=
 OpenBabel10262423043D

 37 45  0  0  1  0  0  0  0  0999 V2000
  183.9270  178.8740  138.4410 O   0  0  0  0  0  0  0  0  0  0  0  0
  187.7330  176.4950  138.1900 C   0  0  1  0  0  3  0  0  0  0  0  0
  191.5970  177.3680  139.7130 C   0  0  2  0  0  3  0  0  0  0  0  0
  186.0890  178.1220  137.9600 N   0  0  0  0  0  0  0  0  0  0  0  0
  190.1990  177.8070  139.2960 C   0  0  1  0  0  3  0  0  0  0  0  0
  187.4550  177.9570  138.3820 C   0  0  1  0  0  3  0  0  0  0  0  0
  190.6000  176.3390  139.1940 C   0  0  1  0  0  3  0  0  0  0  0  0
  185.8010  177.1120  136.9500 C   0  0  0  0  0  2  0  0  0  0  0  0
  187.8070  178.4880  139.7840 C   0  0  1  0  0  3  0  0  0  0  0  0
  187.0300  178.9140  142.1050 C   0  0  0  0  0  2  0  0  0  0  0  0
  187.5260  175.8530  135.7450 C   0  0  0  0  0  2  0  0  0  0  0  0
  188.2800  178.2300  142.6910 C   0  0  2  0  0  3  0  0  0  0  0  0
  186.8650  175.9930  137.0850 C   0  0  2  0  0  0  0  0  0  0  0  0
  186.6570  178.2910  140.7620 C   0  0  1  0  0  3  0  0  0  0  0  0
  191.8330  177.3960  141.2410 C   0  0  0  0  0  2  0  0  0  0  0  0
  188.3820  176.3990  136.8560 C   0  0  2  0  0  0  0  0  0  0  0  0
  189.0670  177.7950  140.3220 C   0  0  2  0  0  3  0  0  0  0  0  0
  185.0910  178.6310  138.8540 C   0  0  0  0  0  0  0  0  0  0  0  0
  190.7560  176.0000  137.7010 C   0  0  2  0  0  3  0  0  0  0  0  0
  185.4310  178.8720  140.2240 N   0  0  0  0  0  2  0  0  0  0  0  0
  189.4850  178.2560  141.7080 C   0  0  2  0  0  3  0  0  0  0  0  0
  190.6110  177.3310  142.1640 C   0  0  0  0  0  2  0  0  0  0  0  0
  189.4790  175.3620  137.1020 C   0  0  0  0  0  2  0  0  0  0  0  0
  193.2020  175.5300  137.8910 C   0  0  0  0  0  3  0  0  0  0  0  0
  191.9340  175.1030  137.4820 C   0  0  0  0  0  0  0  0  0  0  0  0
  191.7870  173.8440  136.8800 C   0  0  0  0  0  3  0  0  0  0  0  0
  192.7560  171.8070  136.1080 F   0  0  0  0  0  0  0  0  0  0  0  0
  194.1660  173.4540  137.0990 C   0  0  0  0  0  3  0  0  0  0  0  0
  192.9010  173.0220  136.6890 C   0  0  0  0  0  0  0  0  0  0  0  0
  194.3160  174.7080  137.7000 C   0  0  0  0  0  3  0  0  0  0  0  0
  187.9380  176.8600  143.2240 C   0  0  0  0  0  0  0  0  0  0  0  0
  188.4280  175.8560  142.7290 O   0  0  0  0  0  0  0  0  0  0  0  0
  187.0100  176.7330  144.3860 C   0  0  0  0  0  2  0  0  0  0  0  0
  187.5480  177.4840  145.5550 C   0  0  0  0  0  3  0  0  0  0  0  0
  188.6810  177.0980  146.1320 C   0  0  0  0  0  3  0  0  0  0  0  0
  189.2150  177.8500  147.3000 C   0  0  0  0  0  2  0  0  0  0  0  0
  188.1810  177.8610  148.4070 C   0  0  0  0  0  1  0  0  0  0  0  0
  1 18  2  0  0  0  0
  2  6  1  0  0  0  0
  3 15  1  0  0  0  0
  4  6  1  0  0  0  0
  4 18  1  0  0  0  0
  5  3  1  0  0  0  0
  5 17  1  0  0  0  0
  6  9  1  0  0  0  0
  7  5  1  0  0  0  0
  7  3  1  0  0  0  0
  8 13  1  0  0  0  0
  8  4  1  0  0  0  0
  9 17  1  0  0  0  0
  9 14  1  0  0  0  0
 10 12  1  0  0  0  0
 11 16  1  0  0  0  0
 11 13  1  0  0  0  0
 12 31  1  0  0  0  0
 13  2  1  0  0  0  0
 14 10  1  0  0  0  0
 15 22  1  0  0  0  0
 16 13  1  0  0  0  0
 16 23  1  0  0  0  0
 16  2  1  0  0  0  0
 17 21  1  0  0  0  0
 18 20  1  0  0  0  0
 19  7  1  0  0  0  0
 20 14  1  0  0  0  0
 21 22  1  0  0  0  0
 21 12  1  0  0  0  0
 23 19  1  0  0  0  0
 25 19  1  0  0  0  0
 25 24  2  0  0  0  0
 26 25  1  0  0  0  0
 27 29  1  0  0  0  0
 28 30  2  0  0  0  0
 29 26  2  0  0  0  0
 29 28  1  0  0  0  0
 30 24  1  0  0  0  0
 31 33  1  0  0  0  0
 32 31  2  0  0  0  0
 33 34  1  0  0  0  0
 34 35  2  0  0  0  0
 35 36  1  0  0  0  0
 36 37  1  0  0  0  0
M  END
>  <MODEL>
1

>  <REMARK>
 VINA RESULT:      -8.9      0.000      0.000
  Name = 
  5 active torsions:
  status: ('A' for Active; 'I' for Inactive)
    1  A    between atoms: C_1  and  C_5
    2  A    between atoms: C_1  and  C_23
    3  A    between atoms: C_5  and  C_17
    4  A    between atoms: C_6  and  C_31
    5  A    between atoms: C_11  and  C_26
                            x       y       z     vdW  Elec       q    Type
                         _______ _______ _______ _____ _____    ______ ____

>  <TORSDO>
F 5

$$$$
=
 OpenBabel10262423043D

 37 45  0  0  1  0  0  0  0  0999 V2000
  189.2760  177.5710  135.4220 O   0  0  0  0  0  0  0  0  0  0  0  0
  188.3170  177.1700  139.7950 C   0  0  1  0  0  3  0  0  0  0  0  0
  185.2580  179.0060  142.0930 C   0  0  2  0  0  3  0  0  0  0  0  0
  188.9490  177.9640  137.7050 N   0  0  0  0  0  0  0  0  0  0  0  0
  186.1330  178.9440  140.8480 C   0  0  1  0  0  3  0  0  0  0  0  0
  188.0420  178.2450  138.7860 C   0  0  1  0  0  3  0  0  0  0  0  0
  186.2790  177.8850  141.9360 C   0  0  1  0  0  3  0  0  0  0  0  0
  190.1260  177.3060  138.2590 C   0  0  0  0  0  2  0  0  0  0  0  0
  186.5560  178.3950  138.4100 C   0  0  1  0  0  3  0  0  0  0  0  0
  184.7090  177.6990  136.9010 C   0  0  0  0  0  2  0  0  0  0  0  0
  190.7040  177.3180  140.6410 C   0  0  0  0  0  2  0  0  0  0  0  0
  183.7770  177.4370  138.0990 C   0  0  2  0  0  3  0  0  0  0  0  0
  189.7390  176.7400  139.6480 C   0  0  2  0  0  0  0  0  0  0  0  0
  186.1650  177.4440  137.2880 C   0  0  1  0  0  3  0  0  0  0  0  0
  183.7780  178.6370  141.8380 C   0  0  0  0  0  2  0  0  0  0  0  0
  189.2760  177.7800  140.7540 C   0  0  2  0  0  0  0  0  0  0  0  0
  185.6640  178.1440  139.6340 C   0  0  2  0  0  3  0  0  0  0  0  0
  188.4690  177.7060  136.3780 C   0  0  0  0  0  0  0  0  0  0  0  0
  187.6150  178.1360  142.6580 C   0  0  2  0  0  3  0  0  0  0  0  0
  187.0600  177.6130  136.1470 N   0  0  0  0  0  2  0  0  0  0  0  0
  184.1760  178.2650  139.3520 C   0  0  2  0  0  3  0  0  0  0  0  0
  183.4450  177.7880  140.6050 C   0  0  0  0  0  2  0  0  0  0  0  0
  188.7630  177.2610  142.0990 C   0  0  0  0  0  2  0  0  0  0  0  0
  188.5960  177.5690  144.8840 C   0  0  0  0  0  3  0  0  0  0  0  0
  187.4690  177.9200  144.1320 C   0  0  0  0  0  0  0  0  0  0  0  0
  186.2280  178.0670  144.7690 C   0  0  0  0  0  3  0  0  0  0  0  0
  184.9190  178.0040  146.7600 F   0  0  0  0  0  0  0  0  0  0  0  0
  187.2470  177.5120  146.8940 C   0  0  0  0  0  3  0  0  0  0  0  0
  186.1180  177.8630  146.1470 C   0  0  0  0  0  0  0  0  0  0  0  0
  188.4850  177.3650  146.2620 C   0  0  0  0  0  3  0  0  0  0  0  0
  183.6320  175.9550  138.3480 C   0  0  0  0  0  0  0  0  0  0  0  0
  182.7960  175.5310  139.1330 O   0  0  0  0  0  0  0  0  0  0  0  0
  184.5030  174.9960  137.6070 C   0  0  0  0  0  2  0  0  0  0  0  0
  183.7180  173.7910  137.2140 C   0  0  0  0  0  3  0  0  0  0  0  0
  184.2810  172.5880  137.2540 C   0  0  0  0  0  3  0  0  0  0  0  0
  183.4940  171.3870  136.8600 C   0  0  0  0  0  2  0  0  0  0  0  0
  182.0160  171.6830  137.0040 C   0  0  0  0  0  1  0  0  0  0  0  0
  1 18  2  0  0  0  0
  2 16  1  0  0  0  0
  4  8  1  0  0  0  0
  4  6  1  0  0  0  0
  5  7  1  0  0  0  0
  5  3  1  0  0  0  0
  6  2  1  0  0  0  0
  7  3  1  0  0  0  0
  7 19  1  0  0  0  0
  8 13  1  0  0  0  0
  9  6  1  0  0  0  0
  9 17  1  0  0  0  0
 10 14  1  0  0  0  0
 10 12  1  0  0  0  0
 11 16  1  0  0  0  0
 12 31  1  0  0  0  0
 12 21  1  0  0  0  0
 13  2  1  0  0  0  0
 13 11  1  0  0  0  0
 13 16  1  0  0  0  0
 14  9  1  0  0  0  0
 15  3  1  0  0  0  0
 16 23  1  0  0  0  0
 17  5  1  0  0  0  0
 18  4  1  0  0  0  0
 19 25  1  0  0  0  0
 20 18  1  0  0  0  0
 20 14  1  0  0  0  0
 21 17  1  0  0  0  0
 21 22  1  0  0  0  0
 22 15  1  0  0  0  0
 23 19  1  0  0  0  0
 24 30  1  0  0  0  0
 25 26  1  0  0  0  0
 25 24  2  0  0  0  0
 26 29  2  0  0  0  0
 29 27  1  0  0  0  0
 29 28  1  0  0  0  0
 30 28  2  0  0  0  0
 31 32  2  0  0  0  0
 33 31  1  0  0  0  0
 34 35  2  0  0  0  0
 34 33  1  0  0  0  0
 36 37  1  0  0  0  0
 36 35  1  0  0  0  0
M  END
>  <MODEL>
2

>  <REMARK>
 VINA RESULT:      -8.6      3.545      7.813
  Name = 
  5 active torsions:
  status: ('A' for Active; 'I' for Inactive)
    1  A    between atoms: C_1  and  C_5
    2  A    between atoms: C_1  and  C_23
    3  A    between atoms: C_5  and  C_17
    4  A    between atoms: C_6  and  C_31
    5  A    between atoms: C_11  and  C_26
                            x       y       z     vdW  Elec       q    Type
                         _______ _______ _______ _____ _____    ______ ____

>  <TORSDO>
F 5

$$$$
=
 OpenBabel10262423043D

 37 45  0  0  1  0  0  0  0  0999 V2000
  189.1400  177.6240  135.1800 O   0  0  0  0  0  0  0  0  0  0  0  0
  188.3910  177.1750  139.5900 C   0  0  1  0  0  3  0  0  0  0  0  0
  185.4520  178.9900  142.0530 C   0  0  2  0  0  3  0  0  0  0  0  0
  188.9250  177.9910  137.4800 N   0  0  0  0  0  0  0  0  0  0  0  0
  186.2660  178.9400  140.7670 C   0  0  1  0  0  3  0  0  0  0  0  0
  188.0720  178.2620  138.6070 C   0  0  1  0  0  3  0  0  0  0  0  0
  186.4600  177.8690  141.8340 C   0  0  1  0  0  3  0  0  0  0  0  0
  190.1250  177.3240  137.9700 C   0  0  0  0  0  2  0  0  0  0  0  0
  186.5700  178.4190  138.3050 C   0  0  1  0  0  3  0  0  0  0  0  0
  184.6510  177.7450  136.8780 C   0  0  0  0  0  2  0  0  0  0  0  0
  190.8170  177.3070  140.3220 C   0  0  0  0  0  2  0  0  0  0  0  0
  183.7760  177.4710  138.1160 C   0  0  2  0  0  3  0  0  0  0  0  0
  189.8030  176.7430  139.3690 C   0  0  2  0  0  0  0  0  0  0  0  0
  186.1220  177.4830  137.1910 C   0  0  1  0  0  3  0  0  0  0  0  0
  183.9600  178.6280  141.8640 C   0  0  0  0  0  2  0  0  0  0  0  0
  189.3970  177.7700  140.5090 C   0  0  2  0  0  0  0  0  0  0  0  0
  185.7370  178.1560  139.5670 C   0  0  2  0  0  3  0  0  0  0  0  0
  188.3810  177.7500  136.1760 C   0  0  0  0  0  0  0  0  0  0  0  0
  187.8300  178.1090  142.4940 C   0  0  2  0  0  3  0  0  0  0  0  0
  186.9620  177.6630  136.0110 N   0  0  0  0  0  2  0  0  0  0  0  0
  184.2370  178.2840  139.3590 C   0  0  2  0  0  3  0  0  0  0  0  0
  183.5660  177.7940  140.6400 C   0  0  0  0  0  2  0  0  0  0  0  0
  188.9480  177.2380  141.8700 C   0  0  0  0  0  2  0  0  0  0  0  0
  186.5010  177.7260  144.5740 C   0  0  0  0  0  3  0  0  0  0  0  0
  187.7550  177.8750  143.9700 C   0  0  0  0  0  0  0  0  0  0  0  0
  188.9160  177.7980  144.7540 C   0  0  0  0  0  3  0  0  0  0  0  0
  189.9430  177.5030  146.8850 F   0  0  0  0  0  0  0  0  0  0  0  0
  187.5660  177.4290  146.7290 C   0  0  0  0  0  3  0  0  0  0  0  0
  188.8200  177.5760  146.1300 C   0  0  0  0  0  0  0  0  0  0  0  0
  186.4070  177.5040  145.9510 C   0  0  0  0  0  3  0  0  0  0  0  0
  183.6390  175.9870  138.3540 C   0  0  0  0  0  0  0  0  0  0  0  0
  182.8260  175.5550  139.1580 O   0  0  0  0  0  0  0  0  0  0  0  0
  184.4900  175.0360  137.5810 C   0  0  0  0  0  2  0  0  0  0  0  0
  183.6810  173.8620  137.1480 C   0  0  0  0  0  3  0  0  0  0  0  0
  184.1730  172.6340  137.2670 C   0  0  0  0  0  3  0  0  0  0  0  0
  183.3620  171.4630  136.8320 C   0  0  0  0  0  2  0  0  0  0  0  0
  181.8950  171.7460  137.0810 C   0  0  0  0  0  1  0  0  0  0  0  0
  1 18  2  0  0  0  0
  2 16  1  0  0  0  0
  4  8  1  0  0  0  0
  4  6  1  0  0  0  0
  5  7  1  0  0  0  0
  5  3  1  0  0  0  0
  6  2  1  0  0  0  0
  7  3  1  0  0  0  0
  7 19  1  0  0  0  0
  8 13  1  0  0  0  0
  9  6  1  0  0  0  0
  9 17  1  0  0  0  0
 10 14  1  0  0  0  0
 10 12  1  0  0  0  0
 11 16  1  0  0  0  0
 12 31  1  0  0  0  0
 12 21  1  0  0  0  0
 13  2  1  0  0  0  0
 13 11  1  0  0  0  0
 13 16  1  0  0  0  0
 14  9  1  0  0  0  0
 15  3  1  0  0  0  0
 16 23  1  0  0  0  0
 17  5  1  0  0  0  0
 18  4  1  0  0  0  0
 19 25  1  0  0  0  0
 20 18  1  0  0  0  0
 20 14  1  0  0  0  0
 21 17  1  0  0  0  0
 21 22  1  0  0  0  0
 22 15  1  0  0  0  0
 23 19  1  0  0  0  0
 24 30  1  0  0  0  0
 25 24  2  0  0  0  0
 25 26  1  0  0  0  0
 26 29  2  0  0  0  0
 29 28  1  0  0  0  0
 29 27  1  0  0  0  0
 30 28  2  0  0  0  0
 31 32  2  0  0  0  0
 33 31  1  0  0  0  0
 34 35  2  0  0  0  0
 34 33  1  0  0  0  0
 36 37  1  0  0  0  0
 36 35  1  0  0  0  0
M  END
>  <MODEL>
3

>  <REMARK>
 VINA RESULT:      -8.4      3.307      7.632
  Name = 
  5 active torsions:
  status: ('A' for Active; 'I' for Inactive)
    1  A    between atoms: C_1  and  C_5
    2  A    between atoms: C_1  and  C_23
    3  A    between atoms: C_5  and  C_17
    4  A    between atoms: C_6  and  C_31
    5  A    between atoms: C_11  and  C_26
                            x       y       z     vdW  Elec       q    Type
                         _______ _______ _______ _____ _____    ______ ____

>  <TORSDO>
F 5

$$$$
=
 OpenBabel10262423043D

 37 45  0  0  1  0  0  0  0  0999 V2000
  192.0240  176.7610  137.8100 O   0  0  0  0  0  0  0  0  0  0  0  0
  188.5250  177.1700  140.6030 C   0  0  1  0  0  3  0  0  0  0  0  0
  184.8090  179.1420  140.0440 C   0  0  2  0  0  3  0  0  0  0  0  0
  190.3670  177.5780  139.2450 N   0  0  0  0  0  0  0  0  0  0  0  0
  186.2650  178.9100  139.6610 C   0  0  1  0  0  3  0  0  0  0  0  0
  189.0010  177.9870  139.4380 C   0  0  1  0  0  3  0  0  0  0  0  0
  185.6400  178.1120  140.8000 C   0  0  1  0  0  3  0  0  0  0  0  0
  190.9010  177.1580  140.5340 C   0  0  0  0  0  2  0  0  0  0  0  0
  188.0850  177.9190  138.2020 C   0  0  1  0  0  3  0  0  0  0  0  0
  187.5480  176.7620  136.0690 C   0  0  0  0  0  2  0  0  0  0  0  0
  189.8660  177.7090  142.6880 C   0  0  0  0  0  2  0  0  0  0  0  0
  186.0590  176.6630  136.4520 C   0  0  2  0  0  3  0  0  0  0  0  0
  189.7010  176.8530  141.4650 C   0  0  2  0  0  0  0  0  0  0  0  0
  188.4270  176.7280  137.3180 C   0  0  1  0  0  3  0  0  0  0  0  0
  183.7950  178.5930  139.0140 C   0  0  0  0  0  2  0  0  0  0  0  0
  188.7080  178.0480  141.7880 C   0  0  2  0  0  0  0  0  0  0  0  0
  186.6120  177.8400  138.6270 C   0  0  2  0  0  3  0  0  0  0  0  0
  190.8060  177.0120  138.0030 C   0  0  0  0  0  0  0  0  0  0  0  0
  186.2450  178.6290  142.1190 C   0  0  2  0  0  3  0  0  0  0  0  0
  189.8460  176.7440  136.9750 N   0  0  0  0  0  2  0  0  0  0  0  0
  185.6340  177.7630  137.4660 C   0  0  2  0  0  3  0  0  0  0  0  0
  184.2570  177.4840  138.0620 C   0  0  0  0  0  2  0  0  0  0  0  0
  187.4400  177.7690  142.5980 C   0  0  0  0  0  2  0  0  0  0  0  0
  183.8580  178.8530  142.8190 C   0  0  0  0  0  3  0  0  0  0  0  0
  185.2000  178.7030  143.1870 C   0  0  0  0  0  0  0  0  0  0  0  0
  185.5420  178.6210  144.5460 C   0  0  0  0  0  3  0  0  0  0  0  0
  184.8810  178.6110  146.8360 F   0  0  0  0  0  0  0  0  0  0  0  0
  183.2090  178.8400  145.1530 C   0  0  0  0  0  3  0  0  0  0  0  0
  184.5480  178.6900  145.5250 C   0  0  0  0  0  0  0  0  0  0  0  0
  182.8640  178.9220  143.8000 C   0  0  0  0  0  3  0  0  0  0  0  0
  185.7090  175.2560  136.8710 C   0  0  0  0  0  0  0  0  0  0  0  0
  186.5190  174.5620  137.4690 O   0  0  0  0  0  0  0  0  0  0  0  0
  184.3500  174.7170  136.5750 C   0  0  0  0  0  2  0  0  0  0  0  0
  184.2330  173.3190  137.0790 C   0  0  0  0  0  3  0  0  0  0  0  0
  183.4880  172.4350  136.4240 C   0  0  0  0  0  3  0  0  0  0  0  0
  183.3730  171.0400  136.9320 C   0  0  0  0  0  2  0  0  0  0  0  0
  183.7680  170.0720  135.8370 C   0  0  0  0  0  1  0  0  0  0  0  0
  1 18  2  0  0  0  0
  2 13  1  0  0  0  0
  2 16  1  0  0  0  0
  3  7  1  0  0  0  0
  4  6  1  0  0  0  0
  4  8  1  0  0  0  0
  5  3  1  0  0  0  0
  5  7  1  0  0  0  0
  6  2  1  0  0  0  0
  7 19  1  0  0  0  0
  8 13  1  0  0  0  0
  9 17  1  0  0  0  0
  9  6  1  0  0  0  0
 10 12  1  0  0  0  0
 10 14  1  0  0  0  0
 12 31  1  0  0  0  0
 12 21  1  0  0  0  0
 13 16  1  0  0  0  0
 13 11  1  0  0  0  0
 14  9  1  0  0  0  0
 15  3  1  0  0  0  0
 16 23  1  0  0  0  0
 16 11  1  0  0  0  0
 17  5  1  0  0  0  0
 18  4  1  0  0  0  0
 19 23  1  0  0  0  0
 19 25  1  0  0  0  0
 20 14  1  0  0  0  0
 20 18  1  0  0  0  0
 21 22  1  0  0  0  0
 21 17  1  0  0  0  0
 22 15  1  0  0  0  0
 24 25  2  0  0  0  0
 24 30  1  0  0  0  0
 25 26  1  0  0  0  0
 26 29  2  0  0  0  0
 28 29  1  0  0  0  0
 29 27  1  0  0  0  0
 30 28  2  0  0  0  0
 31 32  2  0  0  0  0
 33 31  1  0  0  0  0
 33 34  1  0  0  0  0
 35 36  1  0  0  0  0
 35 34  2  0  0  0  0
 37 36  1  0  0  0  0
M  END
>  <MODEL>
4

>  <REMARK>
 VINA RESULT:      -8.3      3.851      8.612
  Name = 
  5 active torsions:
  status: ('A' for Active; 'I' for Inactive)
    1  A    between atoms: C_1  and  C_5
    2  A    between atoms: C_1  and  C_23
    3  A    between atoms: C_5  and  C_17
    4  A    between atoms: C_6  and  C_31
    5  A    between atoms: C_11  and  C_26
                            x       y       z     vdW  Elec       q    Type
                         _______ _______ _______ _____ _____    ______ ____

>  <TORSDO>
F 5

$$$$
=
 OpenBabel10262423043D

 37 45  0  0  1  0  0  0  0  0999 V2000
  188.6330  177.6840  135.2080 O   0  0  0  0  0  0  0  0  0  0  0  0
  188.1500  177.2030  139.6510 C   0  0  1  0  0  3  0  0  0  0  0  0
  185.4120  179.0560  142.3110 C   0  0  2  0  0  3  0  0  0  0  0  0
  188.5700  178.0310  137.5210 N   0  0  0  0  0  0  0  0  0  0  0  0
  186.1430  179.0020  140.9760 C   0  0  1  0  0  3  0  0  0  0  0  0
  187.7950  178.3080  138.7010 C   0  0  1  0  0  3  0  0  0  0  0  0
  186.3790  177.9150  142.0180 C   0  0  1  0  0  3  0  0  0  0  0  0
  189.7820  177.3320  137.9270 C   0  0  0  0  0  2  0  0  0  0  0  0
  186.2810  178.5020  138.4950 C   0  0  1  0  0  3  0  0  0  0  0  0
  184.2620  177.8860  137.1840 C   0  0  0  0  0  2  0  0  0  0  0  0
  190.6190  177.2740  140.2310 C   0  0  0  0  0  2  0  0  0  0  0  0
  183.4600  177.6180  138.4720 C   0  0  2  0  0  3  0  0  0  0  0  0
  189.5350  176.7420  139.3390 C   0  0  2  0  0  0  0  0  0  0  0  0
  185.7440  177.5870  137.4030 C   0  0  1  0  0  3  0  0  0  0  0  0
  183.9040  178.7290  142.2120 C   0  0  0  0  0  2  0  0  0  0  0  0
  189.2240  177.7660  140.5110 C   0  0  2  0  0  0  0  0  0  0  0  0
  185.5220  178.2430  139.8040 C   0  0  2  0  0  3  0  0  0  0  0  0
  187.9400  177.8160  136.2500 C   0  0  0  0  0  0  0  0  0  0  0  0
  187.7920  178.1170  142.5930 C   0  0  2  0  0  3  0  0  0  0  0  0
  186.5120  177.7620  136.1740 N   0  0  0  0  0  2  0  0  0  0  0  0
  184.0160  178.4060  139.6910 C   0  0  2  0  0  3  0  0  0  0  0  0
  183.4150  177.9170  141.0070 C   0  0  0  0  0  2  0  0  0  0  0  0
  188.8490  177.2290  141.8930 C   0  0  0  0  0  2  0  0  0  0  0  0
  189.0080  177.5230  144.6930 C   0  0  0  0  0  3  0  0  0  0  0  0
  187.8040  177.8690  144.0690 C   0  0  0  0  0  0  0  0  0  0  0  0
  186.6340  177.9830  144.8350 C   0  0  0  0  0  3  0  0  0  0  0  0
  185.5390  177.8600  146.9490 F   0  0  0  0  0  0  0  0  0  0  0  0
  187.8760  177.4030  146.8300 C   0  0  0  0  0  3  0  0  0  0  0  0
  186.6710  177.7500  146.2120 C   0  0  0  0  0  0  0  0  0  0  0  0
  189.0440  177.2900  146.0710 C   0  0  0  0  0  3  0  0  0  0  0  0
  183.3050  176.1350  138.7040 C   0  0  0  0  0  0  0  0  0  0  0  0
  184.1690  175.3510  138.3380 O   0  0  0  0  0  0  0  0  0  0  0  0
  182.0950  175.6230  139.4110 C   0  0  0  0  0  2  0  0  0  0  0  0
  180.9040  176.4420  139.0480 C   0  0  0  0  0  3  0  0  0  0  0  0
  180.1360  176.9600  140.0010 C   0  0  0  0  0  3  0  0  0  0  0  0
  178.9470  177.7770  139.6340 C   0  0  0  0  0  2  0  0  0  0  0  0
  179.3850  178.9490  138.7820 C   0  0  0  0  0  1  0  0  0  0  0  0
  1 18  2  0  0  0  0
  2 16  1  0  0  0  0
  4  8  1  0  0  0  0
  4  6  1  0  0  0  0
  5  7  1  0  0  0  0
  5  3  1  0  0  0  0
  6  2  1  0  0  0  0
  7  3  1  0  0  0  0
  7 19  1  0  0  0  0
  8 13  1  0  0  0  0
  9  6  1  0  0  0  0
  9 17  1  0  0  0  0
 10 14  1  0  0  0  0
 10 12  1  0  0  0  0
 11 16  1  0  0  0  0
 12 31  1  0  0  0  0
 12 21  1  0  0  0  0
 13  2  1  0  0  0  0
 13 11  1  0  0  0  0
 13 16  1  0  0  0  0
 14  9  1  0  0  0  0
 15  3  1  0  0  0  0
 16 23  1  0  0  0  0
 17  5  1  0  0  0  0
 18  4  1  0  0  0  0
 19 25  1  0  0  0  0
 20 18  1  0  0  0  0
 20 14  1  0  0  0  0
 21 17  1  0  0  0  0
 21 22  1  0  0  0  0
 22 15  1  0  0  0  0
 23 19  1  0  0  0  0
 24 30  1  0  0  0  0
 25 24  2  0  0  0  0
 25 26  1  0  0  0  0
 26 29  2  0  0  0  0
 29 28  1  0  0  0  0
 29 27  1  0  0  0  0
 30 28  2  0  0  0  0
 31 33  1  0  0  0  0
 32 31  2  0  0  0  0
 34 33  1  0  0  0  0
 34 35  2  0  0  0  0
 36 35  1  0  0  0  0
 37 36  1  0  0  0  0
M  END
>  <MODEL>
5

>  <REMARK>
 VINA RESULT:      -8.2      3.554      7.520
  Name = 
  5 active torsions:
  status: ('A' for Active; 'I' for Inactive)
    1  A    between atoms: C_1  and  C_5
    2  A    between atoms: C_1  and  C_23
    3  A    between atoms: C_5  and  C_17
    4  A    between atoms: C_6  and  C_31
    5  A    between atoms: C_11  and  C_26
                            x       y       z     vdW  Elec       q    Type
                         _______ _______ _______ _____ _____    ______ ____

>  <TORSDO>
F 5

$$$$
=
 OpenBabel10262423043D

 37 45  0  0  1  0  0  0  0  0999 V2000
  189.1210  177.5510  135.1620 O   0  0  0  0  0  0  0  0  0  0  0  0
  187.4810  177.4600  139.3460 C   0  0  1  0  0  3  0  0  0  0  0  0
  183.8520  179.0300  140.8850 C   0  0  2  0  0  3  0  0  0  0  0  0
  188.3540  178.1220  137.2970 N   0  0  0  0  0  0  0  0  0  0  0  0
  184.9300  178.9750  139.8110 C   0  0  1  0  0  3  0  0  0  0  0  0
  187.2440  178.3700  138.1780 C   0  0  1  0  0  3  0  0  0  0  0  0
  185.0260  178.0690  141.0330 C   0  0  1  0  0  3  0  0  0  0  0  0
  189.4940  177.7130  138.1070 C   0  0  0  0  0  2  0  0  0  0  0  0
  185.8390  178.2510  137.5590 C   0  0  1  0  0  3  0  0  0  0  0  0
  184.3930  177.1280  135.8790 C   0  0  0  0  0  2  0  0  0  0  0  0
  189.6440  178.0590  140.5300 C   0  0  0  0  0  2  0  0  0  0  0  0
  183.3100  176.8500  136.9400 C   0  0  2  0  0  3  0  0  0  0  0  0
  188.9520  177.2400  139.4790 C   0  0  2  0  0  0  0  0  0  0  0  0
  185.7800  177.1410  136.5180 C   0  0  1  0  0  3  0  0  0  0  0  0
  182.5020  178.4140  140.4500 C   0  0  0  0  0  2  0  0  0  0  0  0
  188.1690  178.3040  140.3590 C   0  0  2  0  0  0  0  0  0  0  0  0
  184.7900  177.9930  138.6500 C   0  0  2  0  0  3  0  0  0  0  0  0
  188.1510  177.6590  135.9550 C   0  0  0  0  0  0  0  0  0  0  0  0
  186.1700  178.5950  141.9180 C   0  0  2  0  0  3  0  0  0  0  0  0
  186.8280  177.3270  135.5200 N   0  0  0  0  0  2  0  0  0  0  0  0
  183.3710  177.8540  138.1250 C   0  0  2  0  0  3  0  0  0  0  0  0
  182.5050  177.4020  139.2990 C   0  0  0  0  0  2  0  0  0  0  0  0
  187.5060  177.8540  141.6610 C   0  0  0  0  0  2  0  0  0  0  0  0
  184.5940  179.0720  143.7960 C   0  0  0  0  0  3  0  0  0  0  0  0
  185.8020  178.5110  143.3660 C   0  0  0  0  0  0  0  0  0  0  0  0
  186.6420  177.8780  144.2940 C   0  0  0  0  0  3  0  0  0  0  0  0
  187.0880  177.1970  146.5350 F   0  0  0  0  0  0  0  0  0  0  0  0
  185.0680  178.3720  146.0650 C   0  0  0  0  0  3  0  0  0  0  0  0
  186.2750  177.8090  145.6410 C   0  0  0  0  0  0  0  0  0  0  0  0
  184.2280  179.0030  145.1430 C   0  0  0  0  0  3  0  0  0  0  0  0
  183.3250  175.3980  137.3490 C   0  0  0  0  0  0  0  0  0  0  0  0
  184.2180  174.9570  138.0590 O   0  0  0  0  0  0  0  0  0  0  0  0
  182.2240  174.4960  136.9030 C   0  0  0  0  0  2  0  0  0  0  0  0
  181.1870  174.3880  137.9690 C   0  0  0  0  0  3  0  0  0  0  0  0
  180.0610  175.0870  137.8760 C   0  0  0  0  0  3  0  0  0  0  0  0
  179.0290  174.9770  138.9430 C   0  0  0  0  0  2  0  0  0  0  0  0
  179.6890  175.1140  140.2990 C   0  0  0  0  0  1  0  0  0  0  0  0
  1 18  2  0  0  0  0
  2 13  1  0  0  0  0
  2 16  1  0  0  0  0
  3  7  1  0  0  0  0
  4  8  1  0  0  0  0
  4  6  1  0  0  0  0
  5  3  1  0  0  0  0
  5  7  1  0  0  0  0
  6  2  1  0  0  0  0
  7 19  1  0  0  0  0
  8 13  1  0  0  0  0
  9  6  1  0  0  0  0
  9 17  1  0  0  0  0
 10 14  1  0  0  0  0
 10 12  1  0  0  0  0
 12 31  1  0  0  0  0
 12 21  1  0  0  0  0
 13 16  1  0  0  0  0
 13 11  1  0  0  0  0
 14  9  1  0  0  0  0
 15  3  1  0  0  0  0
 16 11  1  0  0  0  0
 16 23  1  0  0  0  0
 17  5  1  0  0  0  0
 18  4  1  0  0  0  0
 19 25  1  0  0  0  0
 20 18  1  0  0  0  0
 20 14  1  0  0  0  0
 21 17  1  0  0  0  0
 21 22  1  0  0  0  0
 22 15  1  0  0  0  0
 23 19  1  0  0  0  0
 24 30  1  0  0  0  0
 25 24  2  0  0  0  0
 25 26  1  0  0  0  0
 26 29  2  0  0  0  0
 29 28  1  0  0  0  0
 29 27  1  0  0  0  0
 30 28  2  0  0  0  0
 31 32  2  0  0  0  0
 33 31  1  0  0  0  0
 33 34  1  0  0  0  0
 35 34  2  0  0  0  0
 35 36  1  0  0  0  0
 36 37  1  0  0  0  0
M  END
>  <MODEL>
6

>  <REMARK>
 VINA RESULT:      -8.1      3.739      8.209
  Name = 
  5 active torsions:
  status: ('A' for Active; 'I' for Inactive)
    1  A    between atoms: C_1  and  C_5
    2  A    between atoms: C_1  and  C_23
    3  A    between atoms: C_5  and  C_17
    4  A    between atoms: C_6  and  C_31
    5  A    between atoms: C_11  and  C_26
                            x       y       z     vdW  Elec       q    Type
                         _______ _______ _______ _____ _____    ______ ____

>  <TORSDO>
F 5

$$$$
=
 OpenBabel10262423043D

 37 45  0  0  1  0  0  0  0  0999 V2000
  191.9430  176.7510  137.4520 O   0  0  0  0  0  0  0  0  0  0  0  0
  188.9380  176.9620  140.7890 C   0  0  1  0  0  3  0  0  0  0  0  0
  185.4000  179.2800  141.1270 C   0  0  2  0  0  3  0  0  0  0  0  0
  190.5990  177.4450  139.2370 N   0  0  0  0  0  0  0  0  0  0  0  0
  186.7550  179.0030  140.4890 C   0  0  1  0  0  3  0  0  0  0  0  0
  189.3230  177.9210  139.7020 C   0  0  1  0  0  3  0  0  0  0  0  0
  186.2220  178.0790  141.5780 C   0  0  1  0  0  3  0  0  0  0  0  0
  191.2670  176.7790  140.3480 C   0  0  0  0  0  2  0  0  0  0  0  0
  188.2380  178.1290  138.6290 C   0  0  1  0  0  3  0  0  0  0  0  0
  187.2890  177.3850  136.4570 C   0  0  0  0  0  2  0  0  0  0  0  0
  190.6110  177.0440  142.6950 C   0  0  0  0  0  2  0  0  0  0  0  0
  185.8670  177.3400  137.0490 C   0  0  2  0  0  3  0  0  0  0  0  0
  190.1870  176.4170  141.3980 C   0  0  2  0  0  0  0  0  0  0  0  0
  188.3290  177.0770  137.5320 C   0  0  1  0  0  3  0  0  0  0  0  0
  184.1990  178.9890  140.1980 C   0  0  0  0  0  2  0  0  0  0  0  0
  189.3770  177.6160  142.0510 C   0  0  2  0  0  0  0  0  0  0  0  0
  186.8410  178.0950  139.2630 C   0  0  2  0  0  3  0  0  0  0  0  0
  190.7970  177.0600  137.8700 C   0  0  0  0  0  0  0  0  0  0  0  0
  187.0580  178.3220  142.8480 C   0  0  2  0  0  3  0  0  0  0  0  0
  189.6780  177.0400  136.9770 N   0  0  0  0  0  2  0  0  0  0  0  0
  185.7050  178.2860  138.2720 C   0  0  2  0  0  3  0  0  0  0  0  0
  184.4050  178.0190  139.0280 C   0  0  0  0  0  2  0  0  0  0  0  0
  188.2160  177.3050  142.9970 C   0  0  0  0  0  2  0  0  0  0  0  0
  186.7410  177.9040  145.2900 C   0  0  0  0  0  3  0  0  0  0  0  0
  186.1890  178.2990  144.0660 C   0  0  0  0  0  0  0  0  0  0  0  0
  184.8380  178.6710  144.0020 C   0  0  0  0  0  3  0  0  0  0  0  0
  182.7430  179.0050  145.0900 F   0  0  0  0  0  0  0  0  0  0  0  0
  184.6040  178.2490  146.3750 C   0  0  0  0  0  3  0  0  0  0  0  0
  184.0480  178.6460  145.1550 C   0  0  0  0  0  0  0  0  0  0  0  0
  185.9500  177.8790  146.4420 C   0  0  0  0  0  3  0  0  0  0  0  0
  185.4400  175.9140  137.2990 C   0  0  0  0  0  0  0  0  0  0  0  0
  186.2610  175.0570  137.5930 O   0  0  0  0  0  0  0  0  0  0  0  0
  183.9950  175.5530  137.2130 C   0  0  0  0  0  2  0  0  0  0  0  0
  183.3500  176.2850  136.0870 C   0  0  0  0  0  3  0  0  0  0  0  0
  182.1650  176.8600  136.2570 C   0  0  0  0  0  3  0  0  0  0  0  0
  181.5240  177.5890  135.1290 C   0  0  0  0  0  2  0  0  0  0  0  0
  181.2240  179.0110  135.5550 C   0  0  0  0  0  1  0  0  0  0  0  0
  1 18  2  0  0  0  0
  2 13  1  0  0  0  0
  2 16  1  0  0  0  0
  3  7  1  0  0  0  0
  4  6  1  0  0  0  0
  4  8  1  0  0  0  0
  5  3  1  0  0  0  0
  5  7  1  0  0  0  0
  6  2  1  0  0  0  0
  7 19  1  0  0  0  0
  8 13  1  0  0  0  0
  9 17  1  0  0  0  0
  9  6  1  0  0  0  0
 10 12  1  0  0  0  0
 10 14  1  0  0  0  0
 12 31  1  0  0  0  0
 12 21  1  0  0  0  0
 13 16  1  0  0  0  0
 13 11  1  0  0  0  0
 14  9  1  0  0  0  0
 15  3  1  0  0  0  0
 16 11  1  0  0  0  0
 16 23  1  0  0  0  0
 17  5  1  0  0  0  0
 18  4  1  0  0  0  0
 19 23  1  0  0  0  0
 19 25  1  0  0  0  0
 20 14  1  0  0  0  0
 20 18  1  0  0  0  0
 21 22  1  0  0  0  0
 21 17  1  0  0  0  0
 22 15  1  0  0  0  0
 24 30  1  0  0  0  0
 25 24  2  0  0  0  0
 26 25  1  0  0  0  0
 26 29  2  0  0  0  0
 27 29  1  0  0  0  0
 28 30  2  0  0  0  0
 29 28  1  0  0  0  0
 31 32  2  0  0  0  0
 33 31  1  0  0  0  0
 34 35  2  0  0  0  0
 34 33  1  0  0  0  0
 36 37  1  0  0  0  0
 36 35  1  0  0  0  0
M  END
>  <MODEL>
7

>  <REMARK>
 VINA RESULT:      -7.9      3.575      8.427
  Name = 
  5 active torsions:
  status: ('A' for Active; 'I' for Inactive)
    1  A    between atoms: C_1  and  C_5
    2  A    between atoms: C_1  and  C_23
    3  A    between atoms: C_5  and  C_17
    4  A    between atoms: C_6  and  C_31
    5  A    between atoms: C_11  and  C_26
                            x       y       z     vdW  Elec       q    Type
                         _______ _______ _______ _____ _____    ______ ____

>  <TORSDO>
F 5

$$$$
=
 OpenBabel10262423043D

 37 45  0  0  1  0  0  0  0  0999 V2000
  194.3300  176.7520  140.0240 O   0  0  0  0  0  0  0  0  0  0  0  0
  189.8950  177.0740  140.6860 C   0  0  1  0  0  3  0  0  0  0  0  0
  186.8440  178.4520  138.0780 C   0  0  2  0  0  3  0  0  0  0  0  0
  192.1440  177.5320  140.3220 N   0  0  0  0  0  0  0  0  0  0  0  0
  188.3100  178.3620  138.4840 C   0  0  1  0  0  3  0  0  0  0  0  0
  190.8420  177.7820  139.7630 C   0  0  1  0  0  3  0  0  0  0  0  0
  187.2450  177.6510  139.3110 C   0  0  1  0  0  3  0  0  0  0  0  0
  191.9950  177.3630  141.7620 C   0  0  0  0  0  2  0  0  0  0  0  0
  190.6570  177.4290  138.2750 C   0  0  1  0  0  3  0  0  0  0  0  0
  191.2940  175.9350  136.3950 C   0  0  0  0  0  2  0  0  0  0  0  0
  190.0100  178.0590  143.0220 C   0  0  0  0  0  2  0  0  0  0  0  0
  189.8160  175.6960  136.0320 C   0  0  2  0  0  3  0  0  0  0  0  0
  190.5090  177.0320  142.0460 C   0  0  2  0  0  0  0  0  0  0  0  0
  191.4460  176.1840  137.8940 C   0  0  1  0  0  3  0  0  0  0  0  0
  186.4950  177.6420  136.8080 C   0  0  0  0  0  2  0  0  0  0  0  0
  189.4290  178.1200  141.6340 C   0  0  2  0  0  0  0  0  0  0  0  0
  189.1710  177.2170  137.9530 C   0  0  2  0  0  3  0  0  0  0  0  0
  193.1640  176.8660  139.5650 C   0  0  0  0  0  0  0  0  0  0  0  0
  187.0980  178.4140  140.6400 C   0  0  2  0  0  3  0  0  0  0  0  0
  192.8470  176.3390  138.2720 N   0  0  0  0  0  2  0  0  0  0  0  0
  188.8960  176.8570  136.5030 C   0  0  2  0  0  3  0  0  0  0  0  0
  187.4180  176.4840  136.4100 C   0  0  0  0  0  2  0  0  0  0  0  0
  187.9430  177.7900  141.7780 C   0  0  0  0  0  2  0  0  0  0  0  0
  184.6750  178.5940  140.0590 C   0  0  0  0  0  3  0  0  0  0  0  0
  185.6600  178.4950  141.0480 C   0  0  0  0  0  0  0  0  0  0  0  0
  185.2860  178.4690  142.4000 C   0  0  0  0  0  3  0  0  0  0  0  0
  183.5780  178.5180  144.0620 F   0  0  0  0  0  0  0  0  0  0  0  0
  182.9560  178.6430  141.7640 C   0  0  0  0  0  3  0  0  0  0  0  0
  183.9360  178.5430  142.7560 C   0  0  0  0  0  0  0  0  0  0  0  0
  183.3260  178.6680  140.4160 C   0  0  0  0  0  3  0  0  0  0  0  0
  189.3730  174.3250  136.4810 C   0  0  0  0  0  0  0  0  0  0  0  0
  189.5410  173.9600  137.6360 O   0  0  0  0  0  0  0  0  0  0  0  0
  188.6980  173.4150  135.5100 C   0  0  0  0  0  2  0  0  0  0  0  0
  187.5730  172.7000  136.1750 C   0  0  0  0  0  3  0  0  0  0  0  0
  186.3170  172.9750  135.8380 C   0  0  0  0  0  3  0  0  0  0  0  0
  185.1950  172.2590  136.5060 C   0  0  0  0  0  2  0  0  0  0  0  0
  184.7520  173.0420  137.7240 C   0  0  0  0  0  1  0  0  0  0  0  0
  2 16  1  0  0  0  0
  2 13  1  0  0  0  0
  3  5  1  0  0  0  0
  3  7  1  0  0  0  0
  4  8  1  0  0  0  0
  5  7  1  0  0  0  0
  6  4  1  0  0  0  0
  6  2  1  0  0  0  0
  7 19  1  0  0  0  0
  8 13  1  0  0  0  0
  9  6  1  0  0  0  0
 10 14  1  0  0  0  0
 12 10  1  0  0  0  0
 12 31  1  0  0  0  0
 12 21  1  0  0  0  0
 13 11  1  0  0  0  0
 14 20  1  0  0  0  0
 14  9  1  0  0  0  0
 15  3  1  0  0  0  0
 16 23  1  0  0  0  0
 16 13  1  0  0  0  0
 16 11  1  0  0  0  0
 17  9  1  0  0  0  0
 17  5  1  0  0  0  0
 18  1  2  0  0  0  0
 18  4  1  0  0  0  0
 19 25  1  0  0  0  0
 19 23  1  0  0  0  0
 20 18  1  0  0  0  0
 21 17  1  0  0  0  0
 22 21  1  0  0  0  0
 22 15  1  0  0  0  0
 24 30  2  0  0  0  0
 24 25  1  0  0  0  0
 25 26  2  0  0  0  0
 26 29  1  0  0  0  0
 28 29  2  0  0  0  0
 29 27  1  0  0  0  0
 30 28  1  0  0  0  0
 31 32  2  0  0  0  0
 33 34  1  0  0  0  0
 33 31  1  0  0  0  0
 35 34  2  0  0  0  0
 35 36  1  0  0  0  0
 36 37  1  0  0  0  0
M  END
>  <MODEL>
8

>  <REMARK>
 VINA RESULT:      -7.9      3.760      8.269
  Name = 
  5 active torsions:
  status: ('A' for Active; 'I' for Inactive)
    1  A    between atoms: C_1  and  C_5
    2  A    between atoms: C_1  and  C_23
    3  A    between atoms: C_5  and  C_17
    4  A    between atoms: C_6  and  C_31
    5  A    between atoms: C_11  and  C_26
                            x       y       z     vdW  Elec       q    Type
                         _______ _______ _______ _____ _____    ______ ____

>  <TORSDO>
F 5

$$$$
=
 OpenBabel10262423043D

 37 45  0  0  1  0  0  0  0  0999 V2000
  192.0210  177.0590  141.9540 O   0  0  0  0  0  0  0  0  0  0  0  0
  187.5460  177.2770  142.3140 C   0  0  1  0  0  3  0  0  0  0  0  0
  184.7220  179.3880  139.9540 C   0  0  2  0  0  3  0  0  0  0  0  0
  189.8160  177.7710  142.2780 N   0  0  0  0  0  0  0  0  0  0  0  0
  186.1480  179.1590  140.4360 C   0  0  1  0  0  3  0  0  0  0  0  0
  188.5650  178.1940  141.7060 C   0  0  1  0  0  3  0  0  0  0  0  0
  185.0190  178.2680  140.9430 C   0  0  1  0  0  3  0  0  0  0  0  0
  189.5470  177.2120  143.5960 C   0  0  0  0  0  2  0  0  0  0  0  0
  188.5070  178.2720  140.1690 C   0  0  1  0  0  3  0  0  0  0  0  0
  189.3050  177.3470  138.0050 C   0  0  0  0  0  2  0  0  0  0  0  0
  187.4610  177.5710  144.8330 C   0  0  0  0  0  2  0  0  0  0  0  0
  187.8630  177.2490  137.4710 C   0  0  2  0  0  3  0  0  0  0  0  0
  188.0420  176.8460  143.6540 C   0  0  2  0  0  0  0  0  0  0  0  0
  189.3290  177.1660  139.5220 C   0  0  1  0  0  3  0  0  0  0  0  0
  184.4830  178.9710  138.4840 C   0  0  0  0  0  2  0  0  0  0  0  0
  186.9980  178.0280  143.4750 C   0  0  2  0  0  0  0  0  0  0  0  0
  187.0540  178.1890  139.6800 C   0  0  2  0  0  3  0  0  0  0  0  0
  190.8980  177.3200  141.4510 C   0  0  0  0  0  0  0  0  0  0  0  0
  184.7580  178.6350  142.4150 C   0  0  2  0  0  3  0  0  0  0  0  0
  190.6930  177.1800  140.0410 N   0  0  0  0  0  2  0  0  0  0  0  0
  186.9030  178.2520  138.1690 C   0  0  2  0  0  3  0  0  0  0  0  0
  185.4400  177.9500  137.8560 C   0  0  0  0  0  2  0  0  0  0  0  0
  185.5060  177.7020  143.3990 C   0  0  0  0  0  2  0  0  0  0  0  0
  182.8640  178.6320  144.0430 C   0  0  0  0  0  3  0  0  0  0  0  0
  183.2910  178.6290  142.7100 C   0  0  0  0  0  0  0  0  0  0  0  0
  182.3410  178.6270  141.6780 C   0  0  0  0  0  3  0  0  0  0  0  0
  180.0620  178.6230  140.9800 F   0  0  0  0  0  0  0  0  0  0  0  0
  180.5560  178.6270  143.3120 C   0  0  0  0  0  3  0  0  0  0  0  0
  180.9770  178.6260  141.9790 C   0  0  0  0  0  0  0  0  0  0  0  0
  181.4990  178.6300  144.3440 C   0  0  0  0  0  3  0  0  0  0  0  0
  187.3880  175.8160  137.4820 C   0  0  0  0  0  0  0  0  0  0  0  0
  188.1600  174.9030  137.7340 O   0  0  0  0  0  0  0  0  0  0  0  0
  185.9530  175.5150  137.2070 C   0  0  0  0  0  2  0  0  0  0  0  0
  185.7930  174.0810  136.8350 C   0  0  0  0  0  3  0  0  0  0  0  0
  184.7850  173.3720  137.3320 C   0  0  0  0  0  3  0  0  0  0  0  0
  184.6290  171.9390  136.9590 C   0  0  0  0  0  2  0  0  0  0  0  0
  183.1560  171.6060  136.8430 C   0  0  0  0  0  1  0  0  0  0  0  0
  2 16  1  0  0  0  0
  2 13  1  0  0  0  0
  3  5  1  0  0  0  0
  3  7  1  0  0  0  0
  4  8  1  0  0  0  0
  5  7  1  0  0  0  0
  6  4  1  0  0  0  0
  6  2  1  0  0  0  0
  7 19  1  0  0  0  0
  8 13  1  0  0  0  0
  9  6  1  0  0  0  0
 10 14  1  0  0  0  0
 12 31  1  0  0  0  0
 12 10  1  0  0  0  0
 12 21  1  0  0  0  0
 13 11  1  0  0  0  0
 14 20  1  0  0  0  0
 14  9  1  0  0  0  0
 15  3  1  0  0  0  0
 16 13  1  0  0  0  0
 16 11  1  0  0  0  0
 17  9  1  0  0  0  0
 17  5  1  0  0  0  0
 18  1  2  0  0  0  0
 18  4  1  0  0  0  0
 19 25  1  0  0  0  0
 19 23  1  0  0  0  0
 20 18  1  0  0  0  0
 21 17  1  0  0  0  0
 22 21  1  0  0  0  0
 22 15  1  0  0  0  0
 23 16  1  0  0  0  0
 24 30  1  0  0  0  0
 25 24  2  0  0  0  0
 26 29  2  0  0  0  0
 26 25  1  0  0  0  0
 27 29  1  0  0  0  0
 28 30  2  0  0  0  0
 29 28  1  0  0  0  0
 31 32  2  0  0  0  0
 33 31  1  0  0  0  0
 34 33  1  0  0  0  0
 34 35  2  0  0  0  0
 36 35  1  0  0  0  0
 37 36  1  0  0  0  0
M  END
>  <MODEL>
9

>  <REMARK>
 VINA RESULT:      -7.9      3.959      8.807
  Name = 
  5 active torsions:
  status: ('A' for Active; 'I' for Inactive)
    1  A    between atoms: C_1  and  C_5
    2  A    between atoms: C_1  and  C_23
    3  A    between atoms: C_5  and  C_17
    4  A    between atoms: C_6  and  C_31
    5  A    between atoms: C_11  and  C_26
                            x       y       z     vdW  Elec       q    Type
                         _______ _______ _______ _____ _____    ______ ____

>  <TORSDO>
F 5

$$$$
