=
 OpenBabel10262421203D

 32 33  0  0  1  0  0  0  0  0999 V2000
  188.5820  176.6890  143.8640 C   0  0  0  0  0  0  0  0  0  0  0  0
  187.6520  176.2660  143.1920 O   0  0  0  0  0  0  0  0  0  0  0  0
  189.0830  177.7700  147.4920 C   0  0  0  0  0  0  0  0  0  0  0  0
  189.8650  177.6710  148.4230 O   0  0  0  0  0  0  0  0  0  0  0  0
  186.9520  177.0670  145.7010 C   0  0  0  0  0  2  0  0  0  0  0  0
  187.8060  178.5380  147.6700 C   0  0  0  0  0  2  0  0  0  0  0  0
  188.3260  177.4290  145.1380 C   0  0  1  0  0  3  0  0  0  0  0  0
  189.4220  177.1520  146.1650 C   0  0  0  0  0  2  0  0  0  0  0  0
  186.6190  177.8340  146.9930 C   0  0  1  0  0  3  0  0  0  0  0  0
  185.4360  178.7820  146.8050 C   0  0  0  0  0  2  0  0  0  0  0  0
  185.3230  179.3250  145.3810 C   0  0  0  0  0  2  0  0  0  0  0  0
  183.9290  179.1240  144.8120 C   0  0  0  0  0  2  0  0  0  0  0  0
  183.9830  178.2290  143.6690 N   0  0  0  0  0  2  0  0  0  0  0  0
  184.0180  178.1920  141.2520 C   0  0  0  0  0  2  0  0  0  0  0  0
  185.3660  178.6770  141.7350 C   0  0  0  0  0  2  0  0  0  0  0  0
  184.1100  179.0640  142.4890 C   0  0  0  0  0  3  0  0  0  0  0  0
  190.1340  175.2360  142.8250 O   0  0  0  0  0  1  0  0  0  0  0  0
  189.9970  176.4960  143.4110 C   0  0  1  0  0  3  0  0  0  0  0  0
  190.4270  177.5880  142.4250 C   0  0  2  0  0  3  0  0  0  0  0  0
  190.2480  177.1330  140.9780 C   0  0  0  0  0  2  0  0  0  0  0  0
  188.8350  177.9660  140.1810 S   0  0  0  0  0  0  0  0  0  0  0  0
  189.5540  177.7570  138.5260 C   0  0  2  0  0  3  0  0  0  0  0  0
  189.0590  178.8540  137.5930 C   0  0  0  0  0  1  0  0  0  0  0  0
  189.2790  176.3490  137.9920 C   0  0  1  0  0  3  0  0  0  0  0  0
  187.9380  175.1260  136.4240 O   0  0  0  0  0  1  0  0  0  0  0  0
  187.9620  176.2690  137.2220 C   0  0  0  0  0  2  0  0  0  0  0  0
  190.4470  175.8710  137.1400 C   0  0  0  0  0  2  0  0  0  0  0  0
  192.8400  176.3850  137.5050 C   0  0  0  0  0  1  0  0  0  0  0  0
  191.6570  175.5840  138.0080 C   0  0  0  0  0  2  0  0  0  0  0  0
  191.7580  177.9590  142.6450 O   0  0  0  0  0  0  0  0  0  0  0  0
  191.8000  178.3840  143.9750 C   0  0  0  0  0  2  0  0  0  0  0  0
  191.1500  179.7470  144.0880 C   0  0  0  0  0  1  0  0  0  0  0  0
  2  1  2  0  0  0  0
  3  6  1  0  0  0  0
  3  4  2  0  0  0  0
  5  9  1  0  0  0  0
  7  1  1  6  0  0  0
  7  5  1  0  0  0  0
  7  8  1  0  0  0  0
  8  3  1  0  0  0  0
  9 10  1  6  0  0  0
  9  6  1  0  0  0  0
 11 10  1  0  0  0  0
 12 11  1  0  0  0  0
 13 12  1  0  0  0  0
 14 15  1  0  0  0  0
 14 16  1  0  0  0  0
 15 16  1  0  0  0  0
 16 13  1  0  0  0  0
 18 17  1  6  0  0  0
 18  1  1  0  0  0  0
 19 20  1  6  0  0  0
 19 30  1  0  0  0  0
 19 18  1  0  0  0  0
 21 20  1  0  0  0  0
 22 23  1  6  0  0  0
 22 21  1  0  0  0  0
 24 27  1  6  0  0  0
 24 22  1  0  0  0  0
 25 26  1  0  0  0  0
 26 24  1  0  0  0  0
 27 29  1  0  0  0  0
 28 29  1  0  0  0  0
 30 31  1  0  0  0  0
 31 32  1  0  0  0  0
M  END
>  <MODEL>
1

>  <REMARK>
 VINA RESULT:      -6.7      0.000      0.000
  Name = 
  17 active torsions:
  status: ('A' for Active; 'I' for Inactive)
    1  A    between atoms: C_1  and  C_2
    2  A    between atoms: C_1  and  S_30
    3  A    between atoms: C_2  and  O_5
    4  A    between atoms: C_2  and  C_27
    5  A    between atoms: C_4  and  C_29
    6  A    between atoms: C_4  and  S_30
    7  A    between atoms: O_5  and  C_14
    8  A    between atoms: C_7  and  C_26
    9  A    between atoms: C_7  and  C_31
   10  A    between atoms: C_9  and  C_31
   11  A    between atoms: C_9  and  N_32
   12  A    between atoms: C_16  and  C_20
   13  A    between atoms: C_16  and  C_27
   14  A    between atoms: C_17  and  C_29
   15  A    between atoms: C_18  and  C_25
   16  A    between atoms: C_18  and  C_29
   17  A    between atoms: C_28  and  N_32
                            x       y       z     vdW  Elec       q    Type
                         _______ _______ _______ _____ _____    ______ ____

>  <TORSDO>
F 17

$$$$
=
 OpenBabel10262421203D

 32 33  0  0  1  0  0  0  0  0999 V2000
  190.4350  176.5490  143.1880 C   0  0  0  0  0  0  0  0  0  0  0  0
  190.3150  175.3860  142.8280 O   0  0  0  0  0  0  0  0  0  0  0  0
  191.7340  176.4140  146.7760 C   0  0  0  0  0  0  0  0  0  0  0  0
  192.6390  175.9520  147.4520 O   0  0  0  0  0  0  0  0  0  0  0  0
  189.2360  176.5250  145.3650 C   0  0  0  0  0  2  0  0  0  0  0  0
  190.6550  177.2260  147.4310 C   0  0  0  0  0  2  0  0  0  0  0  0
  190.5320  176.8900  144.6410 C   0  0  1  0  0  3  0  0  0  0  0  0
  191.7280  176.1950  145.2900 C   0  0  0  0  0  2  0  0  0  0  0  0
  189.2670  176.8940  146.8590 C   0  0  1  0  0  3  0  0  0  0  0  0
  188.2450  177.9770  147.2000 C   0  0  0  0  0  2  0  0  0  0  0  0
  186.9390  177.8360  146.4190 C   0  0  0  0  0  2  0  0  0  0  0  0
  185.8110  178.6250  147.0630 C   0  0  0  0  0  2  0  0  0  0  0  0
  185.2490  179.5600  146.1050 N   0  0  0  0  0  2  0  0  0  0  0  0
  184.1720  179.7010  143.9460 C   0  0  0  0  0  2  0  0  0  0  0  0
  183.3150  178.8390  144.8440 C   0  0  0  0  0  2  0  0  0  0  0  0
  184.8240  178.7800  144.9580 C   0  0  0  0  0  3  0  0  0  0  0  0
  191.6880  177.6520  141.5100 O   0  0  0  0  0  1  0  0  0  0  0  0
  190.4630  177.6570  142.1810 C   0  0  1  0  0  3  0  0  0  0  0  0
  189.3100  177.5360  141.1780 C   0  0  2  0  0  3  0  0  0  0  0  0
  189.8270  177.2880  139.7630 C   0  0  0  0  0  2  0  0  0  0  0  0
  188.9970  178.3610  138.5450 S   0  0  0  0  0  0  0  0  0  0  0  0
  188.7230  176.9750  137.4030 C   0  0  2  0  0  3  0  0  0  0  0  0
  189.8840  176.8620  136.4240 C   0  0  0  0  0  1  0  0  0  0  0  0
  187.3660  177.1080  136.7080 C   0  0  1  0  0  3  0  0  0  0  0  0
  187.0700  174.7930  137.2630 O   0  0  0  0  0  1  0  0  0  0  0  0
  186.7970  175.7530  136.2890 C   0  0  0  0  0  2  0  0  0  0  0  0
  186.3910  177.8670  137.5970 C   0  0  0  0  0  2  0  0  0  0  0  0
  184.0810  177.4340  138.3710 C   0  0  0  0  0  1  0  0  0  0  0  0
  184.9620  177.6180  137.1540 C   0  0  0  0  0  2  0  0  0  0  0  0
  188.5110  178.6850  141.1980 O   0  0  0  0  0  0  0  0  0  0  0  0
  187.3670  178.3180  141.9090 C   0  0  0  0  0  2  0  0  0  0  0  0
  186.1390  178.8240  141.1820 C   0  0  0  0  0  1  0  0  0  0  0  0
  2  1  2  0  0  0  0
  3  6  1  0  0  0  0
  3  4  2  0  0  0  0
  5  9  1  0  0  0  0
  7  1  1  6  0  0  0
  7  8  1  0  0  0  0
  7  5  1  0  0  0  0
  8  3  1  0  0  0  0
  9 10  1  6  0  0  0
  9  6  1  0  0  0  0
 11 12  1  0  0  0  0
 11 10  1  0  0  0  0
 13 12  1  0  0  0  0
 14 15  1  0  0  0  0
 14 16  1  0  0  0  0
 15 16  1  0  0  0  0
 16 13  1  0  0  0  0
 18 17  1  6  0  0  0
 18  1  1  0  0  0  0
 19 20  1  6  0  0  0
 19 30  1  0  0  0  0
 19 18  1  0  0  0  0
 21 20  1  0  0  0  0
 22 23  1  6  0  0  0
 22 21  1  0  0  0  0
 24 26  1  1  0  0  0
 24 22  1  0  0  0  0
 24 27  1  0  0  0  0
 26 25  1  0  0  0  0
 29 27  1  0  0  0  0
 29 28  1  0  0  0  0
 30 31  1  0  0  0  0
 32 31  1  0  0  0  0
M  END
>  <MODEL>
2

>  <REMARK>
 VINA RESULT:      -6.6      1.767      3.495
  Name = 
  17 active torsions:
  status: ('A' for Active; 'I' for Inactive)
    1  A    between atoms: C_1  and  C_2
    2  A    between atoms: C_1  and  S_30
    3  A    between atoms: C_2  and  O_5
    4  A    between atoms: C_2  and  C_27
    5  A    between atoms: C_4  and  C_29
    6  A    between atoms: C_4  and  S_30
    7  A    between atoms: O_5  and  C_14
    8  A    between atoms: C_7  and  C_26
    9  A    between atoms: C_7  and  C_31
   10  A    between atoms: C_9  and  C_31
   11  A    between atoms: C_9  and  N_32
   12  A    between atoms: C_16  and  C_20
   13  A    between atoms: C_16  and  C_27
   14  A    between atoms: C_17  and  C_29
   15  A    between atoms: C_18  and  C_25
   16  A    between atoms: C_18  and  C_29
   17  A    between atoms: C_28  and  N_32
                            x       y       z     vdW  Elec       q    Type
                         _______ _______ _______ _____ _____    ______ ____

>  <TORSDO>
F 17

$$$$
=
 OpenBabel10262421203D

 32 33  0  0  1  0  0  0  0  0999 V2000
  185.2610  178.8910  140.8720 C   0  0  0  0  0  0  0  0  0  0  0  0
  186.4800  178.9560  140.7820 O   0  0  0  0  0  0  0  0  0  0  0  0
  182.4530  178.8300  143.4580 C   0  0  0  0  0  0  0  0  0  0  0  0
  181.2410  178.9240  143.5610 O   0  0  0  0  0  0  0  0  0  0  0  0
  185.1920  179.6590  143.2340 C   0  0  0  0  0  2  0  0  0  0  0  0
  183.2910  178.6360  144.6880 C   0  0  0  0  0  2  0  0  0  0  0  0
  184.6060  178.6970  142.2020 C   0  0  1  0  0  3  0  0  0  0  0  0
  183.0910  178.8720  142.0990 C   0  0  0  0  0  2  0  0  0  0  0  0
  184.5800  179.4720  144.6340 C   0  0  1  0  0  3  0  0  0  0  0  0
  185.6130  178.9790  145.6470 C   0  0  0  0  0  2  0  0  0  0  0  0
  186.2220  177.6290  145.2710 C   0  0  0  0  0  2  0  0  0  0  0  0
  187.6130  177.7850  144.6780 C   0  0  0  0  0  2  0  0  0  0  0  0
  188.5530  176.9350  145.3860 N   0  0  0  0  0  2  0  0  0  0  0  0
  190.1080  176.8920  147.2360 C   0  0  0  0  0  2  0  0  0  0  0  0
  188.7270  177.1640  147.7880 C   0  0  0  0  0  2  0  0  0  0  0  0
  189.1300  177.7400  146.4460 C   0  0  0  0  0  3  0  0  0  0  0  0
  184.5510  180.2400  139.0620 O   0  0  0  0  0  1  0  0  0  0  0  0
  184.4030  178.9810  139.6480 C   0  0  1  0  0  3  0  0  0  0  0  0
  184.7490  177.8820  138.6360 C   0  0  2  0  0  3  0  0  0  0  0  0
  185.8790  178.3180  137.7060 C   0  0  0  0  0  2  0  0  0  0  0  0
  187.0470  176.9570  137.3810 S   0  0  0  0  0  0  0  0  0  0  0  0
  188.3840  177.7940  138.2820 C   0  0  2  0  0  3  0  0  0  0  0  0
  189.0380  178.8460  137.3960 C   0  0  0  0  0  1  0  0  0  0  0  0
  189.3830  176.7750  138.8360 C   0  0  1  0  0  3  0  0  0  0  0  0
  190.5830  174.8520  138.0520 O   0  0  0  0  0  1  0  0  0  0  0  0
  190.2630  176.1740  137.7420 C   0  0  0  0  0  2  0  0  0  0  0  0
  190.2230  177.4070  139.9370 C   0  0  0  0  0  2  0  0  0  0  0  0
  190.4940  177.7230  142.3760 C   0  0  0  0  0  1  0  0  0  0  0  0
  189.6040  177.1460  141.2960 C   0  0  0  0  0  2  0  0  0  0  0  0
  183.6230  177.5280  137.8830 O   0  0  0  0  0  0  0  0  0  0  0  0
  182.6330  177.2450  138.8260 C   0  0  0  0  0  2  0  0  0  0  0  0
  182.6680  175.7700  139.1660 C   0  0  0  0  0  1  0  0  0  0  0  0
  2  1  2  0  0  0  0
  3  4  2  0  0  0  0
  3  6  1  0  0  0  0
  5  9  1  0  0  0  0
  7  1  1  6  0  0  0
  7  5  1  0  0  0  0
  8  7  1  0  0  0  0
  8  3  1  0  0  0  0
  9  6  1  0  0  0  0
  9 10  1  1  0  0  0
 11 10  1  0  0  0  0
 12 11  1  0  0  0  0
 12 13  1  0  0  0  0
 13 16  1  0  0  0  0
 14 15  1  0  0  0  0
 16 14  1  0  0  0  0
 16 15  1  0  0  0  0
 18 17  1  6  0  0  0
 18  1  1  0  0  0  0
 19 20  1  6  0  0  0
 19 18  1  0  0  0  0
 21 20  1  0  0  0  0
 21 22  1  0  0  0  0
 22 23  1  6  0  0  0
 22 24  1  0  0  0  0
 24 26  1  6  0  0  0
 24 27  1  0  0  0  0
 26 25  1  0  0  0  0
 27 29  1  0  0  0  0
 29 28  1  0  0  0  0
 30 19  1  0  0  0  0
 30 31  1  0  0  0  0
 31 32  1  0  0  0  0
M  END
>  <MODEL>
3

>  <REMARK>
 VINA RESULT:      -6.5      2.729      6.011
  Name = 
  17 active torsions:
  status: ('A' for Active; 'I' for Inactive)
    1  A    between atoms: C_1  and  C_2
    2  A    between atoms: C_1  and  S_30
    3  A    between atoms: C_2  and  O_5
    4  A    between atoms: C_2  and  C_27
    5  A    between atoms: C_4  and  C_29
    6  A    between atoms: C_4  and  S_30
    7  A    between atoms: O_5  and  C_14
    8  A    between atoms: C_7  and  C_26
    9  A    between atoms: C_7  and  C_31
   10  A    between atoms: C_9  and  C_31
   11  A    between atoms: C_9  and  N_32
   12  A    between atoms: C_16  and  C_20
   13  A    between atoms: C_16  and  C_27
   14  A    between atoms: C_17  and  C_29
   15  A    between atoms: C_18  and  C_25
   16  A    between atoms: C_18  and  C_29
   17  A    between atoms: C_28  and  N_32
                            x       y       z     vdW  Elec       q    Type
                         _______ _______ _______ _____ _____    ______ ____

>  <TORSDO>
F 17

$$$$
=
 OpenBabel10262421203D

 32 33  0  0  1  0  0  0  0  0999 V2000
  187.5770  177.1630  142.7970 C   0  0  0  0  0  0  0  0  0  0  0  0
  187.7740  176.0490  143.2640 O   0  0  0  0  0  0  0  0  0  0  0  0
  185.4190  178.8160  145.4780 C   0  0  0  0  0  0  0  0  0  0  0  0
  185.3160  178.9370  146.6870 O   0  0  0  0  0  0  0  0  0  0  0  0
  185.1400  177.6430  142.8720 C   0  0  0  0  0  2  0  0  0  0  0  0
  184.4120  179.4700  144.5770 C   0  0  0  0  0  2  0  0  0  0  0  0
  186.5240  178.0540  143.3730 C   0  0  1  0  0  3  0  0  0  0  0  0
  186.5710  178.0450  144.9010 C   0  0  0  0  0  2  0  0  0  0  0  0
  184.0210  178.5560  143.4030 C   0  0  1  0  0  3  0  0  0  0  0  0
  183.3450  179.3420  142.2810 C   0  0  0  0  0  2  0  0  0  0  0  0
  182.1820  178.5870  141.6370 C   0  0  0  0  0  2  0  0  0  0  0  0
  182.2160  178.6890  140.1210 C   0  0  0  0  0  2  0  0  0  0  0  0
  183.2710  177.8440  139.5900 N   0  0  0  0  0  2  0  0  0  0  0  0
  184.8640  177.7800  137.7740 C   0  0  0  0  0  2  0  0  0  0  0  0
  185.5350  178.4210  138.9660 C   0  0  0  0  0  2  0  0  0  0  0  0
  184.0650  178.6720  138.7030 C   0  0  0  0  0  3  0  0  0  0  0  0
  188.6900  178.9940  141.7920 O   0  0  0  0  0  1  0  0  0  0  0  0
  188.3710  177.6450  141.6220 C   0  0  1  0  0  3  0  0  0  0  0  0
  189.6480  176.8200  141.4290 C   0  0  2  0  0  3  0  0  0  0  0  0
  190.8280  177.4360  142.1790 C   0  0  0  0  0  2  0  0  0  0  0  0
  191.3930  176.3650  143.5410 S   0  0  0  0  0  0  0  0  0  0  0  0
  190.3510  177.2310  144.7510 C   0  0  2  0  0  3  0  0  0  0  0  0
  190.6440  178.7250  144.7250 C   0  0  0  0  0  1  0  0  0  0  0  0
  190.5110  176.6150  146.1420 C   0  0  1  0  0  3  0  0  0  0  0  0
  192.0600  175.6840  147.7200 O   0  0  0  0  0  1  0  0  0  0  0  0
  191.9560  176.2130  146.4340 C   0  0  0  0  0  2  0  0  0  0  0  0
  189.9770  177.5650  147.2050 C   0  0  0  0  0  2  0  0  0  0  0  0
  188.0960  178.0760  148.7290 C   0  0  0  0  0  1  0  0  0  0  0  0
  188.6550  177.0630  147.7530 C   0  0  0  0  0  2  0  0  0  0  0  0
  189.9610  176.6980  140.0700 O   0  0  0  0  0  0  0  0  0  0  0  0
  191.2700  177.1690  139.9570 C   0  0  0  0  0  2  0  0  0  0  0  0
  191.8820  176.6520  138.6720 C   0  0  0  0  0  1  0  0  0  0  0  0
  1  2  2  0  0  0  0
  3  4  2  0  0  0  0
  5  7  1  0  0  0  0
  5  9  1  0  0  0  0
  6  3  1  0  0  0  0
  7  1  1  6  0  0  0
  7  8  1  0  0  0  0
  8  3  1  0  0  0  0
  9 10  1  6  0  0  0
  9  6  1  0  0  0  0
 11 10  1  0  0  0  0
 12 11  1  0  0  0  0
 13 12  1  0  0  0  0
 14 16  1  0  0  0  0
 14 15  1  0  0  0  0
 16 15  1  0  0  0  0
 16 13  1  0  0  0  0
 18 17  1  1  0  0  0
 18  1  1  0  0  0  0
 19 18  1  0  0  0  0
 19 20  1  1  0  0  0
 20 21  1  0  0  0  0
 21 22  1  0  0  0  0
 22 23  1  1  0  0  0
 22 24  1  0  0  0  0
 24 26  1  1  0  0  0
 24 27  1  0  0  0  0
 26 25  1  0  0  0  0
 27 29  1  0  0  0  0
 29 28  1  0  0  0  0
 30 19  1  0  0  0  0
 31 30  1  0  0  0  0
 32 31  1  0  0  0  0
M  END
>  <MODEL>
4

>  <REMARK>
 VINA RESULT:      -6.5      2.273      5.945
  Name = 
  17 active torsions:
  status: ('A' for Active; 'I' for Inactive)
    1  A    between atoms: C_1  and  C_2
    2  A    between atoms: C_1  and  S_30
    3  A    between atoms: C_2  and  O_5
    4  A    between atoms: C_2  and  C_27
    5  A    between atoms: C_4  and  C_29
    6  A    between atoms: C_4  and  S_30
    7  A    between atoms: O_5  and  C_14
    8  A    between atoms: C_7  and  C_26
    9  A    between atoms: C_7  and  C_31
   10  A    between atoms: C_9  and  C_31
   11  A    between atoms: C_9  and  N_32
   12  A    between atoms: C_16  and  C_20
   13  A    between atoms: C_16  and  C_27
   14  A    between atoms: C_17  and  C_29
   15  A    between atoms: C_18  and  C_25
   16  A    between atoms: C_18  and  C_29
   17  A    between atoms: C_28  and  N_32
                            x       y       z     vdW  Elec       q    Type
                         _______ _______ _______ _____ _____    ______ ____

>  <TORSDO>
F 17

$$$$
=
 OpenBabel10262421203D

 32 33  0  0  1  0  0  0  0  0999 V2000
  188.7310  177.8460  139.3620 C   0  0  0  0  0  0  0  0  0  0  0  0
  189.0980  178.9820  139.0950 O   0  0  0  0  0  0  0  0  0  0  0  0
  187.1580  175.9130  136.4680 C   0  0  0  0  0  0  0  0  0  0  0  0
  187.4490  175.2680  135.4750 O   0  0  0  0  0  0  0  0  0  0  0  0
  186.6190  178.2110  138.1040 C   0  0  0  0  0  2  0  0  0  0  0  0
  185.7140  176.1410  136.8110 C   0  0  0  0  0  2  0  0  0  0  0  0
  187.6570  177.1850  138.5580 C   0  0  1  0  0  3  0  0  0  0  0  0
  188.2460  176.4440  137.3580 C   0  0  0  0  0  2  0  0  0  0  0  0
  185.4670  177.5760  137.3050 C   0  0  1  0  0  3  0  0  0  0  0  0
  184.1310  177.6950  138.0380 C   0  0  0  0  0  2  0  0  0  0  0  0
  184.2550  178.3730  139.4020 C   0  0  0  0  0  2  0  0  0  0  0  0
  183.3990  177.6830  140.4520 C   0  0  0  0  0  2  0  0  0  0  0  0
  183.1580  178.5840  141.5660 N   0  0  0  0  0  2  0  0  0  0  0  0
  183.8240  179.0590  143.8400 C   0  0  0  0  0  2  0  0  0  0  0  0
  184.9640  179.4450  142.9250 C   0  0  0  0  0  2  0  0  0  0  0  0
  184.1130  178.2350  142.6010 C   0  0  0  0  0  3  0  0  0  0  0  0
  190.4930  176.4470  140.0950 O   0  0  0  0  0  1  0  0  0  0  0  0
  189.3330  177.1030  140.5140 C   0  0  1  0  0  3  0  0  0  0  0  0
  189.6490  178.0410  141.6850 C   0  0  2  0  0  3  0  0  0  0  0  0
  190.9050  177.5960  142.4310 C   0  0  0  0  0  2  0  0  0  0  0  0
  191.1060  178.4940  144.0050 S   0  0  0  0  0  0  0  0  0  0  0  0
  191.5800  176.9810  144.8910 C   0  0  2  0  0  3  0  0  0  0  0  0
  191.6180  175.7980  143.9320 C   0  0  0  0  0  1  0  0  0  0  0  0
  190.6610  176.7470  146.0920 C   0  0  1  0  0  3  0  0  0  0  0  0
  192.4610  175.6910  147.2750 O   0  0  0  0  0  1  0  0  0  0  0  0
  191.4390  176.6320  147.4020 C   0  0  0  0  0  2  0  0  0  0  0  0
  189.6060  177.8420  146.1690 C   0  0  0  0  0  2  0  0  0  0  0  0
  187.5290  177.8890  147.5130 C   0  0  0  0  0  1  0  0  0  0  0  0
  189.0410  177.9390  147.5730 C   0  0  0  0  0  2  0  0  0  0  0  0
  188.5680  178.1080  142.5720 O   0  0  0  0  0  0  0  0  0  0  0  0
  188.1640  176.7830  142.7500 C   0  0  0  0  0  2  0  0  0  0  0  0
  187.2390  176.6950  143.9460 C   0  0  0  0  0  1  0  0  0  0  0  0
  1 18  1  0  0  0  0
  2  1  2  0  0  0  0
  3  6  1  0  0  0  0
  3  8  1  0  0  0  0
  4  3  2  0  0  0  0
  5  7  1  0  0  0  0
  6  9  1  0  0  0  0
  7  1  1  6  0  0  0
  8  7  1  0  0  0  0
  9 10  1  1  0  0  0
  9  5  1  0  0  0  0
 10 11  1  0  0  0  0
 11 12  1  0  0  0  0
 12 13  1  0  0  0  0
 13 16  1  0  0  0  0
 15 14  1  0  0  0  0
 16 15  1  0  0  0  0
 16 14  1  0  0  0  0
 18 17  1  6  0  0  0
 18 19  1  0  0  0  0
 19 20  1  1  0  0  0
 19 30  1  0  0  0  0
 20 21  1  0  0  0  0
 21 22  1  0  0  0  0
 22 23  1  6  0  0  0
 22 24  1  0  0  0  0
 24 27  1  1  0  0  0
 24 26  1  0  0  0  0
 25 26  1  0  0  0  0
 27 29  1  0  0  0  0
 28 29  1  0  0  0  0
 30 31  1  0  0  0  0
 31 32  1  0  0  0  0
M  END
>  <MODEL>
5

>  <REMARK>
 VINA RESULT:      -6.3      2.154      7.405
  Name = 
  17 active torsions:
  status: ('A' for Active; 'I' for Inactive)
    1  A    between atoms: C_1  and  C_2
    2  A    between atoms: C_1  and  S_30
    3  A    between atoms: C_2  and  O_5
    4  A    between atoms: C_2  and  C_27
    5  A    between atoms: C_4  and  C_29
    6  A    between atoms: C_4  and  S_30
    7  A    between atoms: O_5  and  C_14
    8  A    between atoms: C_7  and  C_26
    9  A    between atoms: C_7  and  C_31
   10  A    between atoms: C_9  and  C_31
   11  A    between atoms: C_9  and  N_32
   12  A    between atoms: C_16  and  C_20
   13  A    between atoms: C_16  and  C_27
   14  A    between atoms: C_17  and  C_29
   15  A    between atoms: C_18  and  C_25
   16  A    between atoms: C_18  and  C_29
   17  A    between atoms: C_28  and  N_32
                            x       y       z     vdW  Elec       q    Type
                         _______ _______ _______ _____ _____    ______ ____

>  <TORSDO>
F 17

$$$$
=
 OpenBabel10262421203D

 32 33  0  0  1  0  0  0  0  0999 V2000
  188.8330  177.0250  143.3390 C   0  0  0  0  0  0  0  0  0  0  0  0
  188.9360  175.8130  143.2040 O   0  0  0  0  0  0  0  0  0  0  0  0
  188.6040  177.6230  147.1030 C   0  0  0  0  0  0  0  0  0  0  0  0
  189.1810  177.3810  148.1500 O   0  0  0  0  0  0  0  0  0  0  0  0
  186.8700  177.2290  144.8490 C   0  0  0  0  0  2  0  0  0  0  0  0
  187.3260  178.4100  147.1230 C   0  0  0  0  0  2  0  0  0  0  0  0
  188.3330  177.6090  144.6210 C   0  0  1  0  0  3  0  0  0  0  0  0
  189.1960  177.1650  145.8010 C   0  0  0  0  0  2  0  0  0  0  0  0
  186.2920  177.8400  146.1380 C   0  0  1  0  0  3  0  0  0  0  0  0
  185.1800  178.8460  145.8430 C   0  0  0  0  0  2  0  0  0  0  0  0
  184.4380  178.5550  144.5400 C   0  0  0  0  0  2  0  0  0  0  0  0
  183.1870  179.4080  144.4040 C   0  0  0  0  0  2  0  0  0  0  0  0
  182.0730  178.5870  143.9640 N   0  0  0  0  0  2  0  0  0  0  0  0
  180.0650  178.6370  142.6180 C   0  0  0  0  0  2  0  0  0  0  0  0
  181.2540  178.5550  141.6870 C   0  0  0  0  0  2  0  0  0  0  0  0
  181.3520  179.3580  142.9680 C   0  0  0  0  0  3  0  0  0  0  0  0
  190.5120  177.7450  141.8350 O   0  0  0  0  0  1  0  0  0  0  0  0
  189.1820  177.9470  142.2110 C   0  0  1  0  0  3  0  0  0  0  0  0
  188.2550  177.7420  141.0080 C   0  0  2  0  0  3  0  0  0  0  0  0
  189.0370  177.3140  139.7690 C   0  0  0  0  0  2  0  0  0  0  0  0
  189.1120  178.6470  138.5270 S   0  0  0  0  0  0  0  0  0  0  0  0
  188.2550  177.6350  137.2850 C   0  0  2  0  0  3  0  0  0  0  0  0
  186.7580  177.6190  137.5600 C   0  0  0  0  0  1  0  0  0  0  0  0
  188.8650  176.2330  137.2160 C   0  0  1  0  0  3  0  0  0  0  0  0
  188.3970  173.9570  136.6220 O   0  0  0  0  0  1  0  0  0  0  0  0
  187.8040  175.1490  137.0370 C   0  0  0  0  0  2  0  0  0  0  0  0
  189.9140  176.1680  136.1140 C   0  0  0  0  0  2  0  0  0  0  0  0
  191.4490  175.2130  137.8020 C   0  0  0  0  0  1  0  0  0  0  0  0
  191.3100  176.2430  136.7010 C   0  0  0  0  0  2  0  0  0  0  0  0
  187.5320  178.9100  140.7340 O   0  0  0  0  0  0  0  0  0  0  0  0
  186.3770  178.8100  141.5130 C   0  0  0  0  0  2  0  0  0  0  0  0
  185.1610  179.0560  140.6440 C   0  0  0  0  0  1  0  0  0  0  0  0
  2  1  2  0  0  0  0
  3  6  1  0  0  0  0
  3  4  2  0  0  0  0
  5  9  1  0  0  0  0
  7  1  1  6  0  0  0
  7  5  1  0  0  0  0
  7  8  1  0  0  0  0
  8  3  1  0  0  0  0
  9 10  1  6  0  0  0
  9  6  1  0  0  0  0
 11 10  1  0  0  0  0
 12 11  1  0  0  0  0
 13 12  1  0  0  0  0
 14 16  1  0  0  0  0
 15 14  1  0  0  0  0
 15 16  1  0  0  0  0
 16 13  1  0  0  0  0
 18 17  1  6  0  0  0
 18  1  1  0  0  0  0
 19 20  1  6  0  0  0
 19 18  1  0  0  0  0
 21 20  1  0  0  0  0
 22 23  1  1  0  0  0
 22 21  1  0  0  0  0
 24 27  1  6  0  0  0
 24 22  1  0  0  0  0
 25 26  1  0  0  0  0
 26 24  1  0  0  0  0
 27 29  1  0  0  0  0
 29 28  1  0  0  0  0
 30 19  1  0  0  0  0
 30 31  1  0  0  0  0
 32 31  1  0  0  0  0
M  END
>  <MODEL>
6

>  <REMARK>
 VINA RESULT:      -6.3      1.631      2.549
  Name = 
  17 active torsions:
  status: ('A' for Active; 'I' for Inactive)
    1  A    between atoms: C_1  and  C_2
    2  A    between atoms: C_1  and  S_30
    3  A    between atoms: C_2  and  O_5
    4  A    between atoms: C_2  and  C_27
    5  A    between atoms: C_4  and  C_29
    6  A    between atoms: C_4  and  S_30
    7  A    between atoms: O_5  and  C_14
    8  A    between atoms: C_7  and  C_26
    9  A    between atoms: C_7  and  C_31
   10  A    between atoms: C_9  and  C_31
   11  A    between atoms: C_9  and  N_32
   12  A    between atoms: C_16  and  C_20
   13  A    between atoms: C_16  and  C_27
   14  A    between atoms: C_17  and  C_29
   15  A    between atoms: C_18  and  C_25
   16  A    between atoms: C_18  and  C_29
   17  A    between atoms: C_28  and  N_32
                            x       y       z     vdW  Elec       q    Type
                         _______ _______ _______ _____ _____    ______ ____

>  <TORSDO>
F 17

$$$$
=
 OpenBabel10262421203D

 32 33  0  0  1  0  0  0  0  0999 V2000
  188.3250  176.6620  143.2870 C   0  0  0  0  0  0  0  0  0  0  0  0
  188.2480  175.4420  143.2170 O   0  0  0  0  0  0  0  0  0  0  0  0
  188.7080  177.4940  146.9930 C   0  0  0  0  0  0  0  0  0  0  0  0
  189.4050  177.2500  147.9640 O   0  0  0  0  0  0  0  0  0  0  0  0
  186.6330  177.1610  145.0360 C   0  0  0  0  0  2  0  0  0  0  0  0
  187.5300  178.4130  147.1350 C   0  0  0  0  0  2  0  0  0  0  0  0
  188.0780  177.3670  144.5810 C   0  0  1  0  0  3  0  0  0  0  0  0
  189.0560  176.9000  145.6580 C   0  0  0  0  0  2  0  0  0  0  0  0
  186.3130  177.9030  146.3460 C   0  0  1  0  0  3  0  0  0  0  0  0
  185.2750  179.0050  146.1380 C   0  0  0  0  0  2  0  0  0  0  0  0
  184.1340  178.5870  145.2110 C   0  0  0  0  0  2  0  0  0  0  0  0
  183.8330  179.6560  144.1740 C   0  0  0  0  0  2  0  0  0  0  0  0
  184.8190  179.6040  143.1080 N   0  0  0  0  0  2  0  0  0  0  0  0
  184.9210  178.6050  140.9090 C   0  0  0  0  0  2  0  0  0  0  0  0
  183.4750  178.6270  141.3490 C   0  0  0  0  0  2  0  0  0  0  0  0
  184.5690  178.3810  142.3670 C   0  0  0  0  0  3  0  0  0  0  0  0
  188.1130  178.7560  142.2060 O   0  0  0  0  0  1  0  0  0  0  0  0
  188.6460  177.4730  142.0690 C   0  0  1  0  0  3  0  0  0  0  0  0
  190.1570  177.5490  141.8250 C   0  0  2  0  0  3  0  0  0  0  0  0
  190.5420  176.8870  140.5040 C   0  0  0  0  0  2  0  0  0  0  0  0
  189.7270  177.6920  139.0850 S   0  0  0  0  0  0  0  0  0  0  0  0
  190.0000  176.2480  138.0170 C   0  0  2  0  0  3  0  0  0  0  0  0
  191.3260  176.3810  137.2800 C   0  0  0  0  0  1  0  0  0  0  0  0
  188.8110  176.0400  137.0760 C   0  0  1  0  0  3  0  0  0  0  0  0
  187.2860  174.2530  136.5910 O   0  0  0  0  0  1  0  0  0  0  0  0
  188.6410  174.5750  136.6760 C   0  0  0  0  0  2  0  0  0  0  0  0
  187.5390  176.5950  137.7020 C   0  0  0  0  0  2  0  0  0  0  0  0
  185.3800  177.4720  136.8720 C   0  0  0  0  0  1  0  0  0  0  0  0
  186.8850  177.6020  136.7760 C   0  0  0  0  0  2  0  0  0  0  0  0
  190.8610  176.9530  142.8780 O   0  0  0  0  0  0  0  0  0  0  0  0
  191.8950  177.8440  143.1720 C   0  0  0  0  0  2  0  0  0  0  0  0
  191.3430  179.0120  143.9620 C   0  0  0  0  0  1  0  0  0  0  0  0
  2  1  2  0  0  0  0
  3  6  1  0  0  0  0
  3  4  2  0  0  0  0
  5  9  1  0  0  0  0
  7  1  1  6  0  0  0
  7  5  1  0  0  0  0
  7  8  1  0  0  0  0
  8  3  1  0  0  0  0
  9 10  1  6  0  0  0
  9  6  1  0  0  0  0
 11 10  1  0  0  0  0
 12 11  1  0  0  0  0
 13 12  1  0  0  0  0
 14 15  1  0  0  0  0
 14 16  1  0  0  0  0
 15 16  1  0  0  0  0
 16 13  1  0  0  0  0
 18 17  1  1  0  0  0
 18  1  1  0  0  0  0
 19 20  1  6  0  0  0
 19 18  1  0  0  0  0
 19 30  1  0  0  0  0
 21 20  1  0  0  0  0
 22 23  1  6  0  0  0
 22 21  1  0  0  0  0
 24 26  1  1  0  0  0
 24 27  1  0  0  0  0
 24 22  1  0  0  0  0
 25 26  1  0  0  0  0
 29 28  1  0  0  0  0
 29 27  1  0  0  0  0
 30 31  1  0  0  0  0
 31 32  1  0  0  0  0
M  END
>  <MODEL>
7

>  <REMARK>
 VINA RESULT:      -6.3      1.219      2.230
  Name = 
  17 active torsions:
  status: ('A' for Active; 'I' for Inactive)
    1  A    between atoms: C_1  and  C_2
    2  A    between atoms: C_1  and  S_30
    3  A    between atoms: C_2  and  O_5
    4  A    between atoms: C_2  and  C_27
    5  A    between atoms: C_4  and  C_29
    6  A    between atoms: C_4  and  S_30
    7  A    between atoms: O_5  and  C_14
    8  A    between atoms: C_7  and  C_26
    9  A    between atoms: C_7  and  C_31
   10  A    between atoms: C_9  and  C_31
   11  A    between atoms: C_9  and  N_32
   12  A    between atoms: C_16  and  C_20
   13  A    between atoms: C_16  and  C_27
   14  A    between atoms: C_17  and  C_29
   15  A    between atoms: C_18  and  C_25
   16  A    between atoms: C_18  and  C_29
   17  A    between atoms: C_28  and  N_32
                            x       y       z     vdW  Elec       q    Type
                         _______ _______ _______ _____ _____    ______ ____

>  <TORSDO>
F 17

$$$$
=
 OpenBabel10262421203D

 32 33  0  0  1  0  0  0  0  0999 V2000
  190.2720  176.8030  143.3320 C   0  0  0  0  0  0  0  0  0  0  0  0
  190.2030  175.6350  142.9750 O   0  0  0  0  0  0  0  0  0  0  0  0
  191.2120  176.7790  147.0320 C   0  0  0  0  0  0  0  0  0  0  0  0
  192.0720  176.3810  147.8010 O   0  0  0  0  0  0  0  0  0  0  0  0
  188.8660  176.7210  145.3780 C   0  0  0  0  0  2  0  0  0  0  0  0
  190.0250  177.5270  147.5650 C   0  0  0  0  0  2  0  0  0  0  0  0
  190.2020  177.1610  144.7810 C   0  0  1  0  0  3  0  0  0  0  0  0
  191.3680  176.5490  145.5560 C   0  0  0  0  0  2  0  0  0  0  0  0
  188.7240  177.1030  146.8630 C   0  0  1  0  0  3  0  0  0  0  0  0
  187.6080  178.1220  147.0850 C   0  0  0  0  0  2  0  0  0  0  0  0
  186.4950  178.0300  146.0410 C   0  0  0  0  0  2  0  0  0  0  0  0
  185.5750  179.2380  146.0930 C   0  0  0  0  0  2  0  0  0  0  0  0
  184.1940  178.8170  145.9390 N   0  0  0  0  0  2  0  0  0  0  0  0
  182.3810  178.7860  144.3400 C   0  0  0  0  0  2  0  0  0  0  0  0
  183.6470  178.3720  143.6250 C   0  0  0  0  0  2  0  0  0  0  0  0
  183.7050  179.4230  144.7140 C   0  0  0  0  0  3  0  0  0  0  0  0
  191.6830  177.8730  141.7620 O   0  0  0  0  0  1  0  0  0  0  0  0
  190.4030  177.9000  142.3200 C   0  0  1  0  0  3  0  0  0  0  0  0
  189.3430  177.7800  141.2200 C   0  0  2  0  0  3  0  0  0  0  0  0
  189.9820  177.7460  139.8330 C   0  0  0  0  0  2  0  0  0  0  0  0
  188.7270  177.8250  138.5120 S   0  0  0  0  0  0  0  0  0  0  0  0
  189.8580  177.0890  137.2960 C   0  0  2  0  0  3  0  0  0  0  0  0
  189.2940  177.2420  135.8900 C   0  0  0  0  0  1  0  0  0  0  0  0
  190.1710  175.6350  137.6590 C   0  0  1  0  0  3  0  0  0  0  0  0
  189.5750  173.3530  137.2230 O   0  0  0  0  0  1  0  0  0  0  0  0
  189.5140  174.6450  136.7000 C   0  0  0  0  0  2  0  0  0  0  0  0
  191.6770  175.4220  137.7290 C   0  0  0  0  0  2  0  0  0  0  0  0
  193.6450  176.3660  136.5650 C   0  0  0  0  0  1  0  0  0  0  0  0
  192.3140  175.6710  136.3760 C   0  0  0  0  0  2  0  0  0  0  0  0
  188.4270  178.8370  141.2950 O   0  0  0  0  0  0  0  0  0  0  0  0
  187.2470  178.2590  141.7660 C   0  0  0  0  0  2  0  0  0  0  0  0
  186.1240  179.2720  141.6880 C   0  0  0  0  0  1  0  0  0  0  0  0
  2  1  2  0  0  0  0
  3  6  1  0  0  0  0
  3  4  2  0  0  0  0
  5  9  1  0  0  0  0
  7  1  1  6  0  0  0
  7  5  1  0  0  0  0
  7  8  1  0  0  0  0
  8  3  1  0  0  0  0
  9 10  1  6  0  0  0
  9  6  1  0  0  0  0
 11 12  1  0  0  0  0
 11 10  1  0  0  0  0
 13 12  1  0  0  0  0
 14 16  1  0  0  0  0
 15 14  1  0  0  0  0
 15 16  1  0  0  0  0
 16 13  1  0  0  0  0
 18 17  1  6  0  0  0
 18  1  1  0  0  0  0
 19 20  1  6  0  0  0
 19 30  1  0  0  0  0
 19 18  1  0  0  0  0
 21 20  1  0  0  0  0
 22 23  1  6  0  0  0
 22 24  1  0  0  0  0
 22 21  1  0  0  0  0
 24 26  1  6  0  0  0
 24 27  1  0  0  0  0
 26 25  1  0  0  0  0
 29 28  1  0  0  0  0
 29 27  1  0  0  0  0
 30 31  1  0  0  0  0
 32 31  1  0  0  0  0
M  END
>  <MODEL>
8

>  <REMARK>
 VINA RESULT:      -6.2      1.528      2.549
  Name = 
  17 active torsions:
  status: ('A' for Active; 'I' for Inactive)
    1  A    between atoms: C_1  and  C_2
    2  A    between atoms: C_1  and  S_30
    3  A    between atoms: C_2  and  O_5
    4  A    between atoms: C_2  and  C_27
    5  A    between atoms: C_4  and  C_29
    6  A    between atoms: C_4  and  S_30
    7  A    between atoms: O_5  and  C_14
    8  A    between atoms: C_7  and  C_26
    9  A    between atoms: C_7  and  C_31
   10  A    between atoms: C_9  and  C_31
   11  A    between atoms: C_9  and  N_32
   12  A    between atoms: C_16  and  C_20
   13  A    between atoms: C_16  and  C_27
   14  A    between atoms: C_17  and  C_29
   15  A    between atoms: C_18  and  C_25
   16  A    between atoms: C_18  and  C_29
   17  A    between atoms: C_28  and  N_32
                            x       y       z     vdW  Elec       q    Type
                         _______ _______ _______ _____ _____    ______ ____

>  <TORSDO>
F 17

$$$$
=
 OpenBabel10262421203D

 32 33  0  0  1  0  0  0  0  0999 V2000
  186.7710  178.2520  142.3200 C   0  0  0  0  0  0  0  0  0  0  0  0
  186.6940  178.5100  141.1260 O   0  0  0  0  0  0  0  0  0  0  0  0
  184.9140  178.6390  145.6340 C   0  0  0  0  0  0  0  0  0  0  0  0
  185.0480  178.4670  146.8340 O   0  0  0  0  0  0  0  0  0  0  0  0
  184.3630  178.0150  142.8860 C   0  0  0  0  0  2  0  0  0  0  0  0
  183.6150  179.1660  145.0980 C   0  0  0  0  0  2  0  0  0  0  0  0
  185.6890  178.6760  143.2610 C   0  0  1  0  0  3  0  0  0  0  0  0
  186.0630  178.3560  144.7080 C   0  0  0  0  0  2  0  0  0  0  0  0
  183.2040  178.4500  143.8000 C   0  0  1  0  0  3  0  0  0  0  0  0
  182.1400  179.2380  143.0370 C   0  0  0  0  0  2  0  0  0  0  0  0
  180.7590  179.1670  143.6860 C   0  0  0  0  0  2  0  0  0  0  0  0
  179.6700  178.8960  142.6620 C   0  0  0  0  0  2  0  0  0  0  0  0
  179.6810  177.4940  142.2840 N   0  0  0  0  0  2  0  0  0  0  0  0
  180.1130  176.2770  140.2420 C   0  0  0  0  0  2  0  0  0  0  0  0
  180.6310  177.6860  140.0680 C   0  0  0  0  0  2  0  0  0  0  0  0
  179.3690  177.4390  140.8680 C   0  0  0  0  0  3  0  0  0  0  0  0
  187.5680  176.2870  143.3710 O   0  0  0  0  0  1  0  0  0  0  0  0
  187.9630  177.5270  142.8650 C   0  0  1  0  0  3  0  0  0  0  0  0
  189.0470  177.3430  141.7970 C   0  0  2  0  0  3  0  0  0  0  0  0
  190.4420  177.3310  142.4170 C   0  0  0  0  0  2  0  0  0  0  0  0
  190.5210  178.3620  143.9190 S   0  0  0  0  0  0  0  0  0  0  0  0
  191.3720  177.0590  144.8560 C   0  0  2  0  0  3  0  0  0  0  0  0
  191.5940  175.8360  143.9760 C   0  0  0  0  0  1  0  0  0  0  0  0
  190.6150  176.7390  146.1460 C   0  0  1  0  0  3  0  0  0  0  0  0
  192.3640  175.6360  147.3640 O   0  0  0  0  0  1  0  0  0  0  0  0
  191.5280  176.7530  147.3710 C   0  0  0  0  0  2  0  0  0  0  0  0
  189.4410  177.6930  146.3200 C   0  0  0  0  0  2  0  0  0  0  0  0
  188.2820  178.0740  148.4720 C   0  0  0  0  0  1  0  0  0  0  0  0
  188.4350  177.1260  147.3020 C   0  0  0  0  0  2  0  0  0  0  0  0
  188.9660  178.3500  140.8290 O   0  0  0  0  0  0  0  0  0  0  0  0
  189.7570  177.8980  139.7710 C   0  0  0  0  0  2  0  0  0  0  0  0
  188.9690  177.9840  138.4800 C   0  0  0  0  0  1  0  0  0  0  0  0
  1 18  1  0  0  0  0
  2  1  2  0  0  0  0
  3  4  2  0  0  0  0
  5  7  1  0  0  0  0
  5  9  1  0  0  0  0
  6  3  1  0  0  0  0
  7  1  1  6  0  0  0
  7  8  1  0  0  0  0
  8  3  1  0  0  0  0
  9 10  1  6  0  0  0
  9  6  1  0  0  0  0
 10 11  1  0  0  0  0
 12 11  1  0  0  0  0
 13 12  1  0  0  0  0
 14 16  1  0  0  0  0
 15 14  1  0  0  0  0
 15 16  1  0  0  0  0
 16 13  1  0  0  0  0
 18 17  1  6  0  0  0
 19 20  1  1  0  0  0
 19 18  1  0  0  0  0
 20 21  1  0  0  0  0
 21 22  1  0  0  0  0
 22 23  1  6  0  0  0
 22 24  1  0  0  0  0
 24 27  1  1  0  0  0
 24 26  1  0  0  0  0
 25 26  1  0  0  0  0
 27 29  1  0  0  0  0
 29 28  1  0  0  0  0
 30 19  1  0  0  0  0
 31 30  1  0  0  0  0
 32 31  1  0  0  0  0
M  END
>  <MODEL>
9

>  <REMARK>
 VINA RESULT:      -6.2      2.621      6.086
  Name = 
  17 active torsions:
  status: ('A' for Active; 'I' for Inactive)
    1  A    between atoms: C_1  and  C_2
    2  A    between atoms: C_1  and  S_30
    3  A    between atoms: C_2  and  O_5
    4  A    between atoms: C_2  and  C_27
    5  A    between atoms: C_4  and  C_29
    6  A    between atoms: C_4  and  S_30
    7  A    between atoms: O_5  and  C_14
    8  A    between atoms: C_7  and  C_26
    9  A    between atoms: C_7  and  C_31
   10  A    between atoms: C_9  and  C_31
   11  A    between atoms: C_9  and  N_32
   12  A    between atoms: C_16  and  C_20
   13  A    between atoms: C_16  and  C_27
   14  A    between atoms: C_17  and  C_29
   15  A    between atoms: C_18  and  C_25
   16  A    between atoms: C_18  and  C_29
   17  A    between atoms: C_28  and  N_32
                            x       y       z     vdW  Elec       q    Type
                         _______ _______ _______ _____ _____    ______ ____

>  <TORSDO>
F 17

$$$$
