=
 OpenBabel10262420293D

 55 59  0  0  1  0  0  0  0  0999 V2000
  179.2420  178.6020  141.3060 O   0  0  0  0  0  1  0  0  0  0  0  0
  180.5380  178.2570  141.6940 C   0  0  1  0  0  3  0  0  0  0  0  0
  181.3410  177.9770  140.4610 C   0  0  0  0  0  3  0  0  0  0  0  0
  182.6190  177.6030  140.5270 C   0  0  0  0  0  3  0  0  0  0  0  0
  183.3760  177.3380  139.2730 C   0  0  0  0  0  2  0  0  0  0  0  0
  182.5210  176.7580  138.3150 O   0  0  0  0  0  0  0  0  0  0  0  0
  185.7590  176.3650  136.9090 C   0  0  0  0  0  3  0  0  0  0  0  0
  184.7030  174.1390  136.9060 N   0  0  1  0  0  0  0  0  0  0  0  0
  184.5550  176.9210  137.0850 C   0  0  0  0  0  3  0  0  0  0  0  0
  183.7390  174.7180  137.8390 C   0  0  0  0  0  2  0  0  0  0  0  0
  185.9590  174.8770  137.0550 C   0  0  0  0  0  2  0  0  0  0  0  0
  183.2950  176.1030  137.3250 C   0  0  1  0  0  0  0  0  0  0  0  0
  184.9650  172.7730  137.3370 C   0  0  0  0  0  3  0  0  0  0  0  0
  183.8750  171.8450  136.8200 C   0  0  0  0  0  2  0  0  0  0  0  0
  185.2200  171.9000  136.1170 C   0  0  0  0  0  2  0  0  0  0  0  0
  182.5430  175.8940  136.1230 O   0  0  0  0  0  0  0  0  0  0  0  0
  179.0690  178.2750  136.6980 C   0  0  0  0  0  3  0  0  0  0  0  0
  179.0570  177.0120  137.1570 C   0  0  0  0  0  3  0  0  0  0  0  0
  182.0490  178.3160  134.7690 O   0  0  0  0  0  0  0  0  0  0  0  0
  181.2540  176.5000  136.0780 C   0  0  1  0  0  3  0  0  0  0  0  0
  180.3380  176.2370  137.2860 C   0  0  0  0  0  2  0  0  0  0  0  0
  181.2870  177.9510  135.6540 C   0  0  0  0  0  0  0  0  0  0  0  0
  180.3570  178.9510  136.2990 C   0  0  2  0  0  3  0  0  0  0  0  0
  180.9620  179.5060  137.4420 O   0  0  0  0  0  0  0  0  0  0  0  0
  179.6670  181.3420  137.7560 F   0  0  0  0  0  0  0  0  0  0  0  0
  181.1020  181.3310  136.0290 F   0  0  0  0  0  0  0  0  0  0  0  0
  181.8680  181.4960  138.1570 F   0  0  0  0  0  0  0  0  0  0  0  0
  180.9150  180.9140  137.3410 C   0  0  0  0  0  0  0  0  0  0  0  0
  181.1610  179.3900  142.5160 C   0  0  1  0  0  3  0  0  0  0  0  0
  180.1910  180.3380  142.8430 O   0  0  0  0  0  1  0  0  0  0  0  0
  181.7550  178.8330  143.8000 C   0  0  0  0  0  2  0  0  0  0  0  0
  183.0580  179.5420  144.1340 C   0  0  0  0  0  2  0  0  0  0  0  0
  184.2310  178.6200  143.8520 C   0  0  0  0  0  2  0  0  0  0  0  0
  185.7950  178.2760  141.9950 C   0  0  0  0  0  3  0  0  0  0  0  0
  184.9550  179.0850  142.6360 C   0  0  0  0  0  3  0  0  0  0  0  0
  186.5010  178.7420  140.7620 C   0  0  0  0  0  2  0  0  0  0  0  0
  188.0190  178.6380  140.9220 C   0  0  2  0  0  3  0  0  0  0  0  0
  189.2270  176.5710  138.1270 O   0  0  0  0  0  1  0  0  0  0  0  0
  188.5450  177.5280  140.1360 N   0  0  0  0  0  2  0  0  0  0  0  0
  188.7810  177.5840  138.7270 C   0  0  0  0  0  0  0  0  0  0  0  0
  188.5290  178.7470  138.0120 O   0  0  0  0  0  0  0  0  0  0  0  0
  188.4280  178.5070  142.3870 C   0  0  0  0  0  2  0  0  0  0  0  0
  188.0550  176.8540  145.1650 C   0  0  2  0  0  3  0  0  0  0  0  0
  191.4440  178.0490  142.5290 O   0  0  0  0  0  0  0  0  0  0  0  0
  188.8910  177.0900  142.6930 C   0  0  1  0  0  3  0  0  0  0  0  0
  190.8300  176.2570  147.4860 C   0  0  0  0  0  2  0  0  0  0  0  0
  191.1600  175.6850  143.1370 O   0  0  0  0  0  0  0  0  0  0  0  0
  190.5870  177.0670  143.2810 S   0  0  0  0  0  0  0  0  0  0  0  0
  187.5710  178.2820  145.3870 C   0  0  0  0  0  1  0  0  0  0  0  0
  191.9640  176.4130  146.4370 C   0  0  0  0  0  2  0  0  0  0  0  0
  191.7730  177.5550  145.6230 O   0  0  0  0  0  0  0  0  0  0  0  0
  189.4720  176.6210  145.6910 C   0  0  1  0  0  3  0  0  0  0  0  0
  190.4990  177.5210  144.9930 C   0  0  2  0  0  3  0  0  0  0  0  0
  189.5810  176.7970  147.0800 O   0  0  0  0  0  0  0  0  0  0  0  0
  187.9310  176.4100  143.6920 C   0  0  0  0  0  2  0  0  0  0  0  0
  2  1  1  6  0  0  0
  2 29  1  0  0  0  0
  3  4  2  0  0  0  0
  3  2  1  0  0  0  0
  5  4  1  0  0  0  0
  6  5  1  0  0  0  0
  7 11  1  0  0  0  0
  7  9  2  0  0  0  0
  8 11  1  0  0  0  0
  8 13  1  1  0  0  0
  8 10  1  0  0  0  0
  9 12  1  0  0  0  0
 12 16  1  6  0  0  0
 12 10  1  0  0  0  0
 12  6  1  0  0  0  0
 14 13  1  0  0  0  0
 15 14  1  0  0  0  0
 15 13  1  0  0  0  0
 17 18  2  0  0  0  0
 18 21  1  0  0  0  0
 19 22  2  0  0  0  0
 20 16  1  1  0  0  0
 20 21  1  0  0  0  0
 22 20  1  0  0  0  0
 22 23  1  0  0  0  0
 23 17  1  0  0  0  0
 23 24  1  1  0  0  0
 26 28  1  0  0  0  0
 28 24  1  0  0  0  0
 28 25  1  0  0  0  0
 28 27  1  0  0  0  0
 29 30  1  1  0  0  0
 29 31  1  0  0  0  0
 31 32  1  0  0  0  0
 33 32  1  0  0  0  0
 34 35  2  0  0  0  0
 35 33  1  0  0  0  0
 36 34  1  0  0  0  0
 37 36  1  1  0  0  0
 37 42  1  0  0  0  0
 38 40  1  0  0  0  0
 39 37  1  0  0  0  0
 40 39  1  0  0  0  0
 41 40  2  0  0  0  0
 43 49  1  6  0  0  0
 43 52  1  0  0  0  0
 44 48  2  0  0  0  0
 45 42  1  1  0  0  0
 45 48  1  0  0  0  0
 45 55  1  0  0  0  0
 47 48  2  0  0  0  0
 48 53  1  0  0  0  0
 50 46  1  0  0  0  0
 51 50  1  0  0  0  0
 52 54  1  1  0  0  0
 53 51  1  1  0  0  0
 53 52  1  0  0  0  0
 54 46  1  0  0  0  0
 55 43  1  0  0  0  0
M  END
>  <MODEL>
1

>  <REMARK>
 VINA RESULT:      -7.3      0.000      0.000
  Name = 
  19 active torsions:
  status: ('A' for Active; 'I' for Inactive)
    1  A    between atoms: C_2  and  C_44
    2  A    between atoms: C_6  and  C_46
    3  A    between atoms: N_8  and  C_22
    4  A    between atoms: C_10  and  N_32
    5  A    between atoms: C_17  and  O_36
    6  A    between atoms: O_19  and  C_40
    7  A    between atoms: O_19  and  C_45
    8  A    between atoms: C_22  and  C_35
    9  A    between atoms: C_22  and  C_46
   10  A    between atoms: C_24  and  C_31
   11  A    between atoms: C_24  and  C_44
   12  A    between atoms: C_27  and  C_31
   13  A    between atoms: C_27  and  C_54
   14  A    between atoms: C_28  and  C_49
   15  A    between atoms: O_33  and  C_49
   16  A    between atoms: O_33  and  C_52
   17  A    between atoms: C_35  and  C_43
   18  A    between atoms: O_36  and  C_52
   19  A    between atoms: C_51  and  C_54
                            x       y       z     vdW  Elec       q    Type
                         _______ _______ _______ _____ _____    ______ ____

>  <TORSDO>
F 19

$$$$
=
 OpenBabel10262420293D

 55 59  0  0  1  0  0  0  0  0999 V2000
  191.5130  176.9490  143.0770 O   0  0  0  0  0  1  0  0  0  0  0  0
  190.7640  177.5710  142.0760 C   0  0  1  0  0  3  0  0  0  0  0  0
  191.4740  177.3850  140.7700 C   0  0  0  0  0  3  0  0  0  0  0  0
  190.9830  176.5990  139.8120 C   0  0  0  0  0  3  0  0  0  0  0  0
  191.7270  176.4440  138.5320 C   0  0  0  0  0  2  0  0  0  0  0  0
  191.2520  175.3120  137.8410 O   0  0  0  0  0  0  0  0  0  0  0  0
  194.2700  176.1860  136.1870 C   0  0  0  0  0  3  0  0  0  0  0  0
  194.1400  173.7260  136.1840 N   0  0  1  0  0  0  0  0  0  0  0  0
  192.9640  176.2420  136.4700 C   0  0  0  0  0  3  0  0  0  0  0  0
  193.1080  173.8910  137.2050 C   0  0  0  0  0  2  0  0  0  0  0  0
  195.0310  174.8850  136.2650 C   0  0  0  0  0  2  0  0  0  0  0  0
  192.1320  175.0040  136.7740 C   0  0  1  0  0  0  0  0  0  0  0  0
  194.9350  172.5600  136.5480 C   0  0  0  0  0  3  0  0  0  0  0  0
  194.0610  171.3150  136.5500 C   0  0  0  0  0  2  0  0  0  0  0  0
  194.9780  171.5950  135.3730 C   0  0  0  0  0  2  0  0  0  0  0  0
  191.4200  174.5290  135.6240 O   0  0  0  0  0  0  0  0  0  0  0  0
  187.3480  175.0150  136.7440 C   0  0  0  0  0  3  0  0  0  0  0  0
  187.9300  173.8230  136.9630 C   0  0  0  0  0  3  0  0  0  0  0  0
  189.7890  176.6560  134.7550 O   0  0  0  0  0  0  0  0  0  0  0  0
  190.0000  174.5030  135.7340 C   0  0  1  0  0  3  0  0  0  0  0  0
  189.4250  173.6850  136.9040 C   0  0  0  0  0  2  0  0  0  0  0  0
  189.3600  175.8650  135.5830 C   0  0  0  0  0  0  0  0  0  0  0  0
  188.1690  176.2420  136.4320 C   0  0  2  0  0  3  0  0  0  0  0  0
  188.6000  176.8280  137.6360 O   0  0  0  0  0  0  0  0  0  0  0  0
  187.5020  178.4790  136.5340 F   0  0  0  0  0  0  0  0  0  0  0  0
  189.5780  178.8930  137.2800 F   0  0  0  0  0  0  0  0  0  0  0  0
  187.8520  178.7040  138.7370 F   0  0  0  0  0  0  0  0  0  0  0  0
  188.3940  178.2230  137.5580 C   0  0  0  0  0  0  0  0  0  0  0  0
  189.3520  176.9770  142.0300 C   0  0  1  0  0  3  0  0  0  0  0  0
  189.2850  175.8310  142.8230 O   0  0  0  0  0  1  0  0  0  0  0  0
  188.3450  177.9910  142.5460 C   0  0  0  0  0  2  0  0  0  0  0  0
  187.0850  177.2920  143.0290 C   0  0  0  0  0  2  0  0  0  0  0  0
  187.0070  177.3630  144.5440 C   0  0  0  0  0  2  0  0  0  0  0  0
  184.9030  178.5190  144.0460 C   0  0  0  0  0  3  0  0  0  0  0  0
  185.8020  178.1380  144.9500 C   0  0  0  0  0  3  0  0  0  0  0  0
  183.6840  179.2780  144.4640 C   0  0  0  0  0  2  0  0  0  0  0  0
  182.5680  179.1450  143.4270 C   0  0  2  0  0  3  0  0  0  0  0  0
  179.1260  178.3160  144.4330 O   0  0  0  0  0  1  0  0  0  0  0  0
  181.4080  178.4740  144.0030 N   0  0  0  0  0  2  0  0  0  0  0  0
  180.0660  178.9560  143.8940 C   0  0  0  0  0  0  0  0  0  0  0  0
  179.7870  180.1210  143.1920 O   0  0  0  0  0  0  0  0  0  0  0  0
  183.0440  178.4220  142.1700 C   0  0  0  0  0  2  0  0  0  0  0  0
  181.4400  177.6880  139.4360 C   0  0  2  0  0  3  0  0  0  0  0  0
  185.5460  179.0340  140.5280 O   0  0  0  0  0  0  0  0  0  0  0  0
  182.8580  179.2980  140.9400 C   0  0  1  0  0  3  0  0  0  0  0  0
  183.1610  176.8920  136.2980 C   0  0  0  0  0  2  0  0  0  0  0  0
  184.2630  180.2970  138.8560 O   0  0  0  0  0  0  0  0  0  0  0  0
  184.2330  179.1280  139.7980 S   0  0  0  0  0  0  0  0  0  0  0  0
  181.4880  176.4430  140.3140 C   0  0  0  0  0  1  0  0  0  0  0  0
  184.4830  177.6320  136.6390 C   0  0  0  0  0  2  0  0  0  0  0  0
  184.9300  177.3340  137.9470 O   0  0  0  0  0  0  0  0  0  0  0  0
  182.5010  177.6770  138.3350 C   0  0  1  0  0  3  0  0  0  0  0  0
  183.9230  177.6270  138.9070 C   0  0  2  0  0  3  0  0  0  0  0  0
  182.3390  176.6210  137.4230 O   0  0  0  0  0  0  0  0  0  0  0  0
  181.5080  178.9930  140.2570 C   0  0  0  0  0  2  0  0  0  0  0  0
  2  1  1  1  0  0  0
  3  2  1  0  0  0  0
  4  3  2  0  0  0  0
  5  4  1  0  0  0  0
  6  5  1  0  0  0  0
  7 11  1  0  0  0  0
  7  9  2  0  0  0  0
  8 11  1  0  0  0  0
  8 13  1  1  0  0  0
  8 10  1  0  0  0  0
  9 12  1  0  0  0  0
 12 16  1  6  0  0  0
 12 10  1  0  0  0  0
 12  6  1  0  0  0  0
 13 14  1  0  0  0  0
 15 13  1  0  0  0  0
 15 14  1  0  0  0  0
 17 18  2  0  0  0  0
 19 22  2  0  0  0  0
 20 16  1  1  0  0  0
 20 21  1  0  0  0  0
 21 18  1  0  0  0  0
 22 20  1  0  0  0  0
 22 23  1  0  0  0  0
 23 17  1  0  0  0  0
 23 24  1  1  0  0  0
 25 28  1  0  0  0  0
 26 28  1  0  0  0  0
 28 24  1  0  0  0  0
 28 27  1  0  0  0  0
 29  2  1  0  0  0  0
 29 31  1  0  0  0  0
 29 30  1  1  0  0  0
 31 32  1  0  0  0  0
 32 33  1  0  0  0  0
 33 35  1  0  0  0  0
 34 36  1  0  0  0  0
 34 35  2  0  0  0  0
 37 42  1  6  0  0  0
 37 39  1  0  0  0  0
 37 36  1  0  0  0  0
 40 39  1  0  0  0  0
 40 38  1  0  0  0  0
 41 40  2  0  0  0  0
 43 55  1  0  0  0  0
 43 49  1  1  0  0  0
 45 42  1  1  0  0  0
 46 50  1  0  0  0  0
 46 54  1  0  0  0  0
 47 48  2  0  0  0  0
 48 44  2  0  0  0  0
 48 45  1  0  0  0  0
 50 51  1  0  0  0  0
 52 54  1  6  0  0  0
 52 53  1  0  0  0  0
 52 43  1  0  0  0  0
 53 51  1  6  0  0  0
 53 48  1  0  0  0  0
 55 45  1  0  0  0  0
M  END
>  <MODEL>
2

>  <REMARK>
 VINA RESULT:      -7.1      4.132      8.835
  Name = 
  19 active torsions:
  status: ('A' for Active; 'I' for Inactive)
    1  A    between atoms: C_2  and  C_44
    2  A    between atoms: C_6  and  C_46
    3  A    between atoms: N_8  and  C_22
    4  A    between atoms: C_10  and  N_32
    5  A    between atoms: C_17  and  O_36
    6  A    between atoms: O_19  and  C_40
    7  A    between atoms: O_19  and  C_45
    8  A    between atoms: C_22  and  C_35
    9  A    between atoms: C_22  and  C_46
   10  A    between atoms: C_24  and  C_31
   11  A    between atoms: C_24  and  C_44
   12  A    between atoms: C_27  and  C_31
   13  A    between atoms: C_27  and  C_54
   14  A    between atoms: C_28  and  C_49
   15  A    between atoms: O_33  and  C_49
   16  A    between atoms: O_33  and  C_52
   17  A    between atoms: C_35  and  C_43
   18  A    between atoms: O_36  and  C_52
   19  A    between atoms: C_51  and  C_54
                            x       y       z     vdW  Elec       q    Type
                         _______ _______ _______ _____ _____    ______ ____

>  <TORSDO>
F 19

$$$$
=
 OpenBabel10262420293D

 55 59  0  0  1  0  0  0  0  0999 V2000
  185.9780  178.9470  145.8630 O   0  0  0  0  0  1  0  0  0  0  0  0
  186.6550  177.8210  145.3910 C   0  0  1  0  0  3  0  0  0  0  0  0
  186.3710  177.6790  143.9270 C   0  0  0  0  0  3  0  0  0  0  0  0
  185.7950  178.6560  143.2280 C   0  0  0  0  0  3  0  0  0  0  0  0
  185.5310  178.4670  141.7740 C   0  0  0  0  0  2  0  0  0  0  0  0
  184.5720  179.4040  141.3400 O   0  0  0  0  0  0  0  0  0  0  0  0
  181.2420  178.9280  142.4780 C   0  0  0  0  0  3  0  0  0  0  0  0
  181.1550  178.9810  140.0180 N   0  0  1  0  0  0  0  0  0  0  0  0
  182.5610  178.7130  142.4140 C   0  0  0  0  0  3  0  0  0  0  0  0
  182.5000  179.5480  140.0940 C   0  0  0  0  0  2  0  0  0  0  0  0
  180.4570  179.3320  141.2550 C   0  0  0  0  0  2  0  0  0  0  0  0
  183.3390  178.7450  141.1080 C   0  0  1  0  0  0  0  0  0  0  0  0
  180.4550  179.6570  138.9340 C   0  0  0  0  0  3  0  0  0  0  0  0
  181.3790  179.8170  137.7360 C   0  0  0  0  0  2  0  0  0  0  0  0
  180.3360  178.7130  137.7460 C   0  0  0  0  0  2  0  0  0  0  0  0
  183.5380  177.4350  140.5590 O   0  0  0  0  0  0  0  0  0  0  0  0
  183.4670  176.2680  136.4720 C   0  0  0  0  0  3  0  0  0  0  0  0
  184.1650  177.3670  136.8070 C   0  0  0  0  0  3  0  0  0  0  0  0
  181.7120  175.5790  139.4800 O   0  0  0  0  0  0  0  0  0  0  0  0
  183.3130  177.3030  139.1580 C   0  0  1  0  0  3  0  0  0  0  0  0
  184.5040  177.6430  138.2450 C   0  0  0  0  0  2  0  0  0  0  0  0
  182.6130  176.0170  138.7790 C   0  0  0  0  0  0  0  0  0  0  0  0
  183.0040  175.2840  137.5180 C   0  0  2  0  0  3  0  0  0  0  0  0
  184.0430  174.3750  137.7900 O   0  0  0  0  0  0  0  0  0  0  0  0
  182.3950  172.8690  137.3850 F   0  0  0  0  0  0  0  0  0  0  0  0
  184.4780  172.1050  137.7300 F   0  0  0  0  0  0  0  0  0  0  0  0
  183.9610  173.2010  135.8140 F   0  0  0  0  0  0  0  0  0  0  0  0
  183.7350  173.1400  137.1780 C   0  0  0  0  0  0  0  0  0  0  0  0
  188.1570  177.9610  145.6540 C   0  0  1  0  0  3  0  0  0  0  0  0
  188.4210  177.8450  147.0190 O   0  0  0  0  0  1  0  0  0  0  0  0
  188.9180  176.8740  144.9130 C   0  0  0  0  0  2  0  0  0  0  0  0
  190.3140  177.3530  144.5500 C   0  0  0  0  0  2  0  0  0  0  0  0
  190.2230  178.4750  143.5300 C   0  0  0  0  0  2  0  0  0  0  0  0
  190.0260  177.9140  141.1520 C   0  0  0  0  0  3  0  0  0  0  0  0
  189.4460  178.0160  142.3450 C   0  0  0  0  0  3  0  0  0  0  0  0
  189.2460  177.4310  139.9710 C   0  0  0  0  0  2  0  0  0  0  0  0
  190.0380  177.6100  138.6750 C   0  0  2  0  0  3  0  0  0  0  0  0
  187.4790  178.4770  136.1760 O   0  0  0  0  0  0  0  0  0  0  0  0
  189.2470  178.3290  137.6820 N   0  0  0  0  0  2  0  0  0  0  0  0
  188.0950  177.7880  137.0300 C   0  0  0  0  0  0  0  0  0  0  0  0
  187.6440  176.5110  137.3340 O   0  0  0  0  0  1  0  0  0  0  0  0
  190.5240  176.2750  138.1170 C   0  0  0  0  0  2  0  0  0  0  0  0
  191.4560  174.1540  135.8320 C   0  0  2  0  0  3  0  0  0  0  0  0
  193.4330  176.5990  138.9900 O   0  0  0  0  0  0  0  0  0  0  0  0
  191.5490  176.4900  137.0140 C   0  0  1  0  0  3  0  0  0  0  0  0
  194.7000  172.4480  135.9360 C   0  0  0  0  0  2  0  0  0  0  0  0
  194.2190  176.7600  136.6680 O   0  0  0  0  0  0  0  0  0  0  0  0
  193.2120  176.1190  137.5810 S   0  0  0  0  0  0  0  0  0  0  0  0
  190.5280  173.4360  136.8050 C   0  0  0  0  0  1  0  0  0  0  0  0
  195.4160  173.5020  136.8240 C   0  0  0  0  0  2  0  0  0  0  0  0
  194.6230  173.8810  137.9330 O   0  0  0  0  0  0  0  0  0  0  0  0
  192.9340  173.8810  136.1120 C   0  0  1  0  0  3  0  0  0  0  0  0
  193.3510  174.3530  137.5100 C   0  0  2  0  0  3  0  0  0  0  0  0
  193.2830  172.5280  135.9650 O   0  0  0  0  0  0  0  0  0  0  0  0
  191.1780  175.6700  135.7610 C   0  0  0  0  0  2  0  0  0  0  0  0
  2 29  1  0  0  0  0
  2  1  1  6  0  0  0
  3  2  1  0  0  0  0
  4  3  2  0  0  0  0
  5  4  1  0  0  0  0
  6  5  1  0  0  0  0
  8 13  1  6  0  0  0
  8 10  1  0  0  0  0
  8 11  1  0  0  0  0
  9  7  2  0  0  0  0
 10 12  1  0  0  0  0
 11  7  1  0  0  0  0
 12 16  1  6  0  0  0
 12  6  1  0  0  0  0
 12  9  1  0  0  0  0
 14 15  1  0  0  0  0
 14 13  1  0  0  0  0
 15 13  1  0  0  0  0
 17 18  2  0  0  0  0
 17 23  1  0  0  0  0
 18 21  1  0  0  0  0
 20 16  1  1  0  0  0
 21 20  1  0  0  0  0
 22 20  1  0  0  0  0
 22 19  2  0  0  0  0
 23 24  1  1  0  0  0
 23 22  1  0  0  0  0
 27 28  1  0  0  0  0
 28 25  1  0  0  0  0
 28 26  1  0  0  0  0
 28 24  1  0  0  0  0
 29 30  1  1  0  0  0
 31 29  1  0  0  0  0
 32 31  1  0  0  0  0
 33 32  1  0  0  0  0
 34 35  2  0  0  0  0
 35 33  1  0  0  0  0
 36 34  1  0  0  0  0
 37 42  1  6  0  0  0
 37 36  1  0  0  0  0
 38 40  2  0  0  0  0
 39 37  1  0  0  0  0
 40 41  1  0  0  0  0
 40 39  1  0  0  0  0
 43 52  1  0  0  0  0
 43 49  1  1  0  0  0
 45 48  1  0  0  0  0
 45 42  1  1  0  0  0
 46 54  1  0  0  0  0
 46 50  1  0  0  0  0
 47 48  2  0  0  0  0
 48 44  2  0  0  0  0
 50 51  1  0  0  0  0
 52 54  1  1  0  0  0
 52 53  1  0  0  0  0
 53 48  1  0  0  0  0
 53 51  1  6  0  0  0
 55 43  1  0  0  0  0
 55 45  1  0  0  0  0
M  END
>  <MODEL>
3

>  <REMARK>
 VINA RESULT:      -6.8      3.962      7.091
  Name = 
  19 active torsions:
  status: ('A' for Active; 'I' for Inactive)
    1  A    between atoms: C_2  and  C_44
    2  A    between atoms: C_6  and  C_46
    3  A    between atoms: N_8  and  C_22
    4  A    between atoms: C_10  and  N_32
    5  A    between atoms: C_17  and  O_36
    6  A    between atoms: O_19  and  C_40
    7  A    between atoms: O_19  and  C_45
    8  A    between atoms: C_22  and  C_35
    9  A    between atoms: C_22  and  C_46
   10  A    between atoms: C_24  and  C_31
   11  A    between atoms: C_24  and  C_44
   12  A    between atoms: C_27  and  C_31
   13  A    between atoms: C_27  and  C_54
   14  A    between atoms: C_28  and  C_49
   15  A    between atoms: O_33  and  C_49
   16  A    between atoms: O_33  and  C_52
   17  A    between atoms: C_35  and  C_43
   18  A    between atoms: O_36  and  C_52
   19  A    between atoms: C_51  and  C_54
                            x       y       z     vdW  Elec       q    Type
                         _______ _______ _______ _____ _____    ______ ____

>  <TORSDO>
F 19

$$$$
=
 OpenBabel10262420293D

 55 59  0  0  1  0  0  0  0  0999 V2000
  185.7730  179.3290  141.5310 O   0  0  0  0  0  1  0  0  0  0  0  0
  184.7310  179.3770  140.6020 C   0  0  1  0  0  3  0  0  0  0  0  0
  185.2500  178.8870  139.2850 C   0  0  0  0  0  3  0  0  0  0  0  0
  186.4590  178.3380  139.1690 C   0  0  0  0  0  3  0  0  0  0  0  0
  186.9310  177.8680  137.8370 C   0  0  0  0  0  2  0  0  0  0  0  0
  186.0640  176.8700  137.3510 O   0  0  0  0  0  0  0  0  0  0  0  0
  188.2470  177.3630  134.5940 C   0  0  0  0  0  3  0  0  0  0  0  0
  188.5220  175.0240  135.3120 N   0  0  1  0  0  0  0  0  0  0  0  0
  187.1000  177.4260  135.2790 C   0  0  0  0  0  3  0  0  0  0  0  0
  187.8410  175.4370  136.5370 C   0  0  0  0  0  2  0  0  0  0  0  0
  189.1950  176.2020  134.7630 C   0  0  0  0  0  2  0  0  0  0  0  0
  186.6130  176.2980  136.1760 C   0  0  1  0  0  0  0  0  0  0  0  0
  189.5670  174.0810  135.6890 C   0  0  0  0  0  3  0  0  0  0  0  0
  189.6770  174.0020  137.2040 C   0  0  0  0  0  2  0  0  0  0  0  0
  188.9440  172.9140  136.4400 C   0  0  0  0  0  2  0  0  0  0  0  0
  185.6690  175.4440  135.5160 O   0  0  0  0  0  0  0  0  0  0  0  0
  181.8190  174.2040  136.8240 C   0  0  0  0  0  3  0  0  0  0  0  0
  181.9150  175.3470  136.1240 C   0  0  0  0  0  3  0  0  0  0  0  0
  185.2300  173.4660  137.4750 O   0  0  0  0  0  0  0  0  0  0  0  0
  184.4150  175.2750  136.1700 C   0  0  1  0  0  3  0  0  0  0  0  0
  183.1680  175.6670  135.3590 C   0  0  0  0  0  2  0  0  0  0  0  0
  184.2780  173.9440  136.8750 C   0  0  0  0  0  0  0  0  0  0  0  0
  182.9560  173.2130  136.8660 C   0  0  2  0  0  3  0  0  0  0  0  0
  182.8780  172.3710  135.7410 O   0  0  0  0  0  0  0  0  0  0  0  0
  183.3400  170.9890  137.4790 F   0  0  0  0  0  0  0  0  0  0  0  0
  184.6590  170.8990  135.6660 F   0  0  0  0  0  0  0  0  0  0  0  0
  182.5390  170.1010  135.5820 F   0  0  0  0  0  0  0  0  0  0  0  0
  183.3540  171.0910  136.1010 C   0  0  0  0  0  0  0  0  0  0  0  0
  183.5550  178.5230  141.0870 C   0  0  1  0  0  3  0  0  0  0  0  0
  183.5080  177.3210  140.3820 O   0  0  0  0  0  1  0  0  0  0  0  0
  183.7110  178.2190  142.5680 C   0  0  0  0  0  2  0  0  0  0  0  0
  182.4970  178.7060  143.3430 C   0  0  0  0  0  2  0  0  0  0  0  0
  182.8900  179.0030  144.7790 C   0  0  0  0  0  2  0  0  0  0  0  0
  185.0590  178.8930  145.9160 C   0  0  0  0  0  3  0  0  0  0  0  0
  184.3520  179.2760  144.8560 C   0  0  0  0  0  3  0  0  0  0  0  0
  186.5310  179.1500  145.9760 C   0  0  0  0  0  2  0  0  0  0  0  0
  187.3270  177.8600  145.7680 C   0  0  2  0  0  3  0  0  0  0  0  0
  187.9230  176.6610  149.1970 O   0  0  0  0  0  1  0  0  0  0  0  0
  187.3230  177.0510  146.9830 N   0  0  0  0  0  2  0  0  0  0  0  0
  187.9690  177.4290  148.2010 C   0  0  0  0  0  0  0  0  0  0  0  0
  188.6430  178.6390  148.2980 O   0  0  0  0  0  0  0  0  0  0  0  0
  188.7550  178.1420  145.3100 C   0  0  0  0  0  2  0  0  0  0  0  0
  191.6430  177.8690  143.8360 C   0  0  2  0  0  3  0  0  0  0  0  0
  187.4190  176.7780  142.9250 O   0  0  0  0  0  0  0  0  0  0  0  0
  189.4150  176.8740  144.7890 C   0  0  1  0  0  3  0  0  0  0  0  0
  191.9650  177.2760  140.2320 C   0  0  0  0  0  2  0  0  0  0  0  0
  189.1670  175.0560  142.8000 O   0  0  0  0  0  0  0  0  0  0  0  0
  188.8860  176.4980  143.1150 S   0  0  0  0  0  0  0  0  0  0  0  0
  191.3410  179.3510  144.0320 C   0  0  0  0  0  1  0  0  0  0  0  0
  190.5620  176.6390  140.0400 C   0  0  0  0  0  2  0  0  0  0  0  0
  189.5520  177.3880  140.6870 O   0  0  0  0  0  0  0  0  0  0  0  0
  191.3310  177.3840  142.4200 C   0  0  1  0  0  3  0  0  0  0  0  0
  189.8490  177.5560  142.0670 C   0  0  2  0  0  3  0  0  0  0  0  0
  192.1100  178.0140  141.4360 O   0  0  0  0  0  0  0  0  0  0  0  0
  190.9510  176.9810  144.8910 C   0  0  0  0  0  2  0  0  0  0  0  0
  2 29  1  0  0  0  0
  2  1  1  1  0  0  0
  3  2  1  0  0  0  0
  4  3  2  0  0  0  0
  5  4  1  0  0  0  0
  6  5  1  0  0  0  0
  7 11  1  0  0  0  0
  7  9  2  0  0  0  0
  8 13  1  1  0  0  0
  8 10  1  0  0  0  0
  9 12  1  0  0  0  0
 11  8  1  0  0  0  0
 12 16  1  6  0  0  0
 12 10  1  0  0  0  0
 12  6  1  0  0  0  0
 13 15  1  0  0  0  0
 13 14  1  0  0  0  0
 15 14  1  0  0  0  0
 17 23  1  0  0  0  0
 18 17  2  0  0  0  0
 20 16  1  6  0  0  0
 20 22  1  0  0  0  0
 21 18  1  0  0  0  0
 21 20  1  0  0  0  0
 22 19  2  0  0  0  0
 23 24  1  6  0  0  0
 23 22  1  0  0  0  0
 24 28  1  0  0  0  0
 26 28  1  0  0  0  0
 27 28  1  0  0  0  0
 28 25  1  0  0  0  0
 29 30  1  6  0  0  0
 29 31  1  0  0  0  0
 31 32  1  0  0  0  0
 32 33  1  0  0  0  0
 33 35  1  0  0  0  0
 34 36  1  0  0  0  0
 35 34  2  0  0  0  0
 37 42  1  1  0  0  0
 37 36  1  0  0  0  0
 37 39  1  0  0  0  0
 39 40  1  0  0  0  0
 40 41  2  0  0  0  0
 40 38  1  0  0  0  0
 43 49  1  6  0  0  0
 43 55  1  0  0  0  0
 44 48  2  0  0  0  0
 45 55  1  0  0  0  0
 45 42  1  6  0  0  0
 46 54  1  0  0  0  0
 47 48  2  0  0  0  0
 48 45  1  0  0  0  0
 50 46  1  0  0  0  0
 50 51  1  0  0  0  0
 52 54  1  6  0  0  0
 52 43  1  0  0  0  0
 53 51  1  6  0  0  0
 53 52  1  0  0  0  0
 53 48  1  0  0  0  0
M  END
>  <MODEL>
4

>  <REMARK>
 VINA RESULT:      -6.4      3.633      5.679
  Name = 
  19 active torsions:
  status: ('A' for Active; 'I' for Inactive)
    1  A    between atoms: C_2  and  C_44
    2  A    between atoms: C_6  and  C_46
    3  A    between atoms: N_8  and  C_22
    4  A    between atoms: C_10  and  N_32
    5  A    between atoms: C_17  and  O_36
    6  A    between atoms: O_19  and  C_40
    7  A    between atoms: O_19  and  C_45
    8  A    between atoms: C_22  and  C_35
    9  A    between atoms: C_22  and  C_46
   10  A    between atoms: C_24  and  C_31
   11  A    between atoms: C_24  and  C_44
   12  A    between atoms: C_27  and  C_31
   13  A    between atoms: C_27  and  C_54
   14  A    between atoms: C_28  and  C_49
   15  A    between atoms: O_33  and  C_49
   16  A    between atoms: O_33  and  C_52
   17  A    between atoms: C_35  and  C_43
   18  A    between atoms: O_36  and  C_52
   19  A    between atoms: C_51  and  C_54
                            x       y       z     vdW  Elec       q    Type
                         _______ _______ _______ _____ _____    ______ ____

>  <TORSDO>
F 19

$$$$
=
 OpenBabel10262420293D

 55 59  0  0  1  0  0  0  0  0999 V2000
  179.0050  178.4040  143.4400 O   0  0  0  0  0  1  0  0  0  0  0  0
  180.1660  178.7010  142.7230 C   0  0  1  0  0  3  0  0  0  0  0  0
  179.8170  179.6770  141.6410 C   0  0  0  0  0  3  0  0  0  0  0  0
  179.3300  179.2750  140.4670 C   0  0  0  0  0  3  0  0  0  0  0  0
  178.9990  180.2830  139.4220 C   0  0  0  0  0  2  0  0  0  0  0  0
  180.0760  181.1780  139.2680 O   0  0  0  0  0  0  0  0  0  0  0  0
  179.0690  180.7110  135.8950 C   0  0  0  0  0  3  0  0  0  0  0  0
  180.6310  182.6160  135.9170 N   0  0  1  0  0  0  0  0  0  0  0  0
  179.5090  180.3530  137.1070 C   0  0  0  0  0  3  0  0  0  0  0  0
  180.4110  182.6350  137.3620 C   0  0  0  0  0  2  0  0  0  0  0  0
  179.4340  182.0470  135.2960 C   0  0  0  0  0  2  0  0  0  0  0  0
  180.4860  181.1970  137.9120 C   0  0  1  0  0  0  0  0  0  0  0  0
  180.7200  183.9990  135.4690 C   0  0  0  0  0  3  0  0  0  0  0  0
  179.6560  184.8400  136.1580 C   0  0  0  0  0  2  0  0  0  0  0  0
  181.0920  184.8870  136.6480 C   0  0  0  0  0  2  0  0  0  0  0  0
  181.8410  180.7510  137.7660 O   0  0  0  0  0  0  0  0  0  0  0  0
  183.3630  176.9920  139.0400 C   0  0  0  0  0  3  0  0  0  0  0  0
  182.0570  177.0780  138.7340 C   0  0  0  0  0  3  0  0  0  0  0  0
  184.3360  180.4070  139.0290 O   0  0  0  0  0  0  0  0  0  0  0  0
  182.1880  179.5630  138.4700 C   0  0  1  0  0  3  0  0  0  0  0  0
  181.5310  178.2620  137.9730 C   0  0  0  0  0  2  0  0  0  0  0  0
  183.6720  179.4250  138.7250 C   0  0  0  0  0  0  0  0  0  0  0  0
  184.3360  178.0720  138.6340 C   0  0  2  0  0  3  0  0  0  0  0  0
  184.7690  177.8340  137.3160 O   0  0  0  0  0  0  0  0  0  0  0  0
  186.6320  178.0750  136.0450 F   0  0  0  0  0  0  0  0  0  0  0  0
  186.6120  176.4700  137.6150 F   0  0  0  0  0  0  0  0  0  0  0  0
  186.7230  178.6560  138.2090 F   0  0  0  0  0  0  0  0  0  0  0  0
  186.1790  177.7550  137.3110 C   0  0  0  0  0  0  0  0  0  0  0  0
  181.2330  179.2730  143.6620 C   0  0  1  0  0  3  0  0  0  0  0  0
  180.6740  179.5660  144.9060 O   0  0  0  0  0  1  0  0  0  0  0  0
  182.3530  178.2630  143.8530 C   0  0  0  0  0  2  0  0  0  0  0  0
  183.5820  178.6740  143.0590 C   0  0  0  0  0  2  0  0  0  0  0  0
  184.5620  179.3950  143.9660 C   0  0  0  0  0  2  0  0  0  0  0  0
  186.4940  178.6490  145.2780 C   0  0  0  0  0  3  0  0  0  0  0  0
  185.2620  178.4090  144.8360 C   0  0  0  0  0  3  0  0  0  0  0  0
  187.1830  177.6650  146.1690 C   0  0  0  0  0  2  0  0  0  0  0  0
  188.3390  176.9760  145.4420 C   0  0  2  0  0  3  0  0  0  0  0  0
  191.5160  177.2690  147.2770 O   0  0  0  0  0  0  0  0  0  0  0  0
  189.6220  177.4610  145.9380 N   0  0  0  0  0  2  0  0  0  0  0  0
  190.4260  176.7680  146.8960 C   0  0  0  0  0  0  0  0  0  0  0  0
  190.0190  175.5430  147.4070 O   0  0  0  0  0  1  0  0  0  0  0  0
  188.2420  177.1500  143.9280 C   0  0  0  0  0  2  0  0  0  0  0  0
  188.4550  178.9090  141.2000 C   0  0  2  0  0  3  0  0  0  0  0  0
  190.5790  175.4230  142.9870 O   0  0  0  0  0  0  0  0  0  0  0  0
  189.4610  177.8840  143.3900 C   0  0  1  0  0  3  0  0  0  0  0  0
  190.1940  177.6980  138.2080 C   0  0  0  0  0  2  0  0  0  0  0  0
  191.8700  177.3850  142.2640 O   0  0  0  0  0  0  0  0  0  0  0  0
  190.4900  176.8030  142.3920 S   0  0  0  0  0  0  0  0  0  0  0  0
  187.0850  178.2420  141.2360 C   0  0  0  0  0  1  0  0  0  0  0  0
  191.1140  176.6870  138.9460 C   0  0  0  0  0  2  0  0  0  0  0  0
  190.3930  175.9060  139.8800 O   0  0  0  0  0  0  0  0  0  0  0  0
  189.4530  178.1640  140.3140 C   0  0  1  0  0  3  0  0  0  0  0  0
  189.7010  176.7320  140.8060 C   0  0  2  0  0  3  0  0  0  0  0  0
  189.0700  178.1210  138.9640 O   0  0  0  0  0  0  0  0  0  0  0  0
  189.0350  179.1450  142.6100 C   0  0  0  0  0  2  0  0  0  0  0  0
  2  1  1  1  0  0  0
  2 29  1  0  0  0  0
  3  2  1  0  0  0  0
  4  3  2  0  0  0  0
  5  4  1  0  0  0  0
  6  5  1  0  0  0  0
  7  9  2  0  0  0  0
  8 13  1  6  0  0  0
  8 10  1  0  0  0  0
  9 12  1  0  0  0  0
 10 12  1  0  0  0  0
 11  7  1  0  0  0  0
 11  8  1  0  0  0  0
 12 16  1  6  0  0  0
 12  6  1  0  0  0  0
 13 14  1  0  0  0  0
 13 15  1  0  0  0  0
 14 15  1  0  0  0  0
 18 17  2  0  0  0  0
 20 16  1  6  0  0  0
 20 22  1  0  0  0  0
 21 20  1  0  0  0  0
 21 18  1  0  0  0  0
 22 19  2  0  0  0  0
 23 24  1  6  0  0  0
 23 22  1  0  0  0  0
 23 17  1  0  0  0  0
 25 28  1  0  0  0  0
 28 24  1  0  0  0  0
 28 26  1  0  0  0  0
 28 27  1  0  0  0  0
 29 31  1  0  0  0  0
 29 30  1  1  0  0  0
 32 31  1  0  0  0  0
 32 33  1  0  0  0  0
 33 35  1  0  0  0  0
 34 36  1  0  0  0  0
 35 34  2  0  0  0  0
 37 42  1  6  0  0  0
 37 39  1  0  0  0  0
 37 36  1  0  0  0  0
 39 40  1  0  0  0  0
 40 38  2  0  0  0  0
 40 41  1  0  0  0  0
 43 49  1  1  0  0  0
 43 55  1  0  0  0  0
 45 42  1  6  0  0  0
 46 50  1  0  0  0  0
 46 54  1  0  0  0  0
 47 48  2  0  0  0  0
 48 44  2  0  0  0  0
 48 45  1  0  0  0  0
 50 51  1  0  0  0  0
 52 54  1  6  0  0  0
 52 53  1  0  0  0  0
 52 43  1  0  0  0  0
 53 51  1  6  0  0  0
 53 48  1  0  0  0  0
 55 45  1  0  0  0  0
M  END
>  <MODEL>
5

>  <REMARK>
 VINA RESULT:      -5.9      3.000      6.178
  Name = 
  19 active torsions:
  status: ('A' for Active; 'I' for Inactive)
    1  A    between atoms: C_2  and  C_44
    2  A    between atoms: C_6  and  C_46
    3  A    between atoms: N_8  and  C_22
    4  A    between atoms: C_10  and  N_32
    5  A    between atoms: C_17  and  O_36
    6  A    between atoms: O_19  and  C_40
    7  A    between atoms: O_19  and  C_45
    8  A    between atoms: C_22  and  C_35
    9  A    between atoms: C_22  and  C_46
   10  A    between atoms: C_24  and  C_31
   11  A    between atoms: C_24  and  C_44
   12  A    between atoms: C_27  and  C_31
   13  A    between atoms: C_27  and  C_54
   14  A    between atoms: C_28  and  C_49
   15  A    between atoms: O_33  and  C_49
   16  A    between atoms: O_33  and  C_52
   17  A    between atoms: C_35  and  C_43
   18  A    between atoms: O_36  and  C_52
   19  A    between atoms: C_51  and  C_54
                            x       y       z     vdW  Elec       q    Type
                         _______ _______ _______ _____ _____    ______ ____

>  <TORSDO>
F 19

$$$$
=
 OpenBabel10262420293D

 55 59  0  0  1  0  0  0  0  0999 V2000
  187.9520  178.3740  141.7690 O   0  0  0  0  0  1  0  0  0  0  0  0
  187.4510  178.2440  143.0660 C   0  0  1  0  0  3  0  0  0  0  0  0
  185.9800  177.9780  142.9790 C   0  0  0  0  0  3  0  0  0  0  0  0
  185.0800  178.9130  143.2820 C   0  0  0  0  0  3  0  0  0  0  0  0
  183.6270  178.6000  143.1830 C   0  0  0  0  0  2  0  0  0  0  0  0
  183.1380  179.0130  141.9280 O   0  0  0  0  0  0  0  0  0  0  0  0
  179.9990  179.1510  143.5840 C   0  0  0  0  0  3  0  0  0  0  0  0
  179.5770  179.6550  141.2100 N   0  0  1  0  0  0  0  0  0  0  0  0
  181.1920  178.6440  143.2510 C   0  0  0  0  0  3  0  0  0  0  0  0
  181.0210  179.8630  141.1140 C   0  0  0  0  0  2  0  0  0  0  0  0
  179.1820  179.9400  142.5910 C   0  0  0  0  0  2  0  0  0  0  0  0
  181.7550  178.7180  141.8400 C   0  0  1  0  0  0  0  0  0  0  0  0
  178.9330  180.6590  140.3740 C   0  0  0  0  0  3  0  0  0  0  0  0
  179.9470  181.2700  139.4190 C   0  0  0  0  0  2  0  0  0  0  0  0
  178.9820  180.2090  138.9210 C   0  0  0  0  0  2  0  0  0  0  0  0
  181.5190  177.5160  141.0940 O   0  0  0  0  0  0  0  0  0  0  0  0
  182.4630  176.7610  137.0190 C   0  0  0  0  0  3  0  0  0  0  0  0
  183.3710  177.4030  137.7730 C   0  0  0  0  0  3  0  0  0  0  0  0
  179.6250  176.7540  139.1520 O   0  0  0  0  0  0  0  0  0  0  0  0
  181.7810  177.5870  139.6960 C   0  0  1  0  0  3  0  0  0  0  0  0
  183.2490  177.4080  139.2700 C   0  0  0  0  0  2  0  0  0  0  0  0
  180.8120  176.7810  138.8600 C   0  0  0  0  0  0  0  0  0  0  0  0
  181.3010  176.0290  137.6450 C   0  0  2  0  0  3  0  0  0  0  0  0
  181.7120  174.7340  138.0110 O   0  0  0  0  0  0  0  0  0  0  0  0
  180.2600  174.2780  136.3290 F   0  0  0  0  0  0  0  0  0  0  0  0
  179.7080  173.6540  138.4130 F   0  0  0  0  0  0  0  0  0  0  0  0
  181.3590  172.5780  137.2920 F   0  0  0  0  0  0  0  0  0  0  0  0
  180.7660  173.8050  137.5250 C   0  0  0  0  0  0  0  0  0  0  0  0
  188.1780  177.1130  143.8000 C   0  0  1  0  0  3  0  0  0  0  0  0
  187.8880  175.8860  143.2030 O   0  0  0  0  0  1  0  0  0  0  0  0
  189.6800  177.3420  143.7490 C   0  0  0  0  0  2  0  0  0  0  0  0
  190.3580  176.2500  142.9370 C   0  0  0  0  0  2  0  0  0  0  0  0
  191.5810  176.8150  142.2370 C   0  0  0  0  0  2  0  0  0  0  0  0
  190.4810  176.8950  140.0480 C   0  0  0  0  0  3  0  0  0  0  0  0
  191.1670  177.5270  140.9960 C   0  0  0  0  0  3  0  0  0  0  0  0
  190.0490  177.6220  138.8150 C   0  0  0  0  0  2  0  0  0  0  0  0
  189.8010  176.6500  137.6590 C   0  0  2  0  0  3  0  0  0  0  0  0
  186.3150  175.5480  137.2360 O   0  0  0  0  0  1  0  0  0  0  0  0
  188.5270  175.9610  137.8310 N   0  0  0  0  0  2  0  0  0  0  0  0
  187.3790  176.1800  137.0070 C   0  0  0  0  0  0  0  0  0  0  0  0
  187.4270  177.0800  135.9510 O   0  0  0  0  0  0  0  0  0  0  0  0
  190.9420  175.6490  137.5040 C   0  0  0  0  0  2  0  0  0  0  0  0
  192.4710  173.9610  135.1800 C   0  0  2  0  0  3  0  0  0  0  0  0
  193.6430  176.4880  138.6590 O   0  0  0  0  0  0  0  0  0  0  0  0
  191.9790  176.1600  136.5160 C   0  0  1  0  0  3  0  0  0  0  0  0
  195.9840  172.9520  135.4690 C   0  0  0  0  0  2  0  0  0  0  0  0
  194.5500  176.9980  136.4330 O   0  0  0  0  0  0  0  0  0  0  0  0
  193.6350  176.0920  137.2070 S   0  0  0  0  0  0  0  0  0  0  0  0
  191.6450  172.9900  136.0150 C   0  0  0  0  0  1  0  0  0  0  0  0
  196.3930  174.0530  136.4850 C   0  0  0  0  0  2  0  0  0  0  0  0
  195.4560  174.1680  137.5390 O   0  0  0  0  0  0  0  0  0  0  0  0
  193.9480  173.9730  135.5760 C   0  0  1  0  0  3  0  0  0  0  0  0
  194.1490  174.4030  137.0340 C   0  0  2  0  0  3  0  0  0  0  0  0
  194.5840  172.7380  135.3740 O   0  0  0  0  0  0  0  0  0  0  0  0
  191.8850  175.3880  135.1830 C   0  0  0  0  0  2  0  0  0  0  0  0
  2  1  1  6  0  0  0
  2 29  1  0  0  0  0
  3  2  1  0  0  0  0
  3  4  2  0  0  0  0
  5  4  1  0  0  0  0
  6  5  1  0  0  0  0
  8 13  1  6  0  0  0
  8 11  1  0  0  0  0
  9  7  2  0  0  0  0
 10  8  1  0  0  0  0
 10 12  1  0  0  0  0
 11  7  1  0  0  0  0
 12 16  1  6  0  0  0
 12  6  1  0  0  0  0
 12  9  1  0  0  0  0
 14 13  1  0  0  0  0
 15 14  1  0  0  0  0
 15 13  1  0  0  0  0
 17 23  1  0  0  0  0
 17 18  2  0  0  0  0
 18 21  1  0  0  0  0
 20 16  1  1  0  0  0
 21 20  1  0  0  0  0
 22 19  2  0  0  0  0
 22 20  1  0  0  0  0
 23 24  1  1  0  0  0
 23 22  1  0  0  0  0
 25 28  1  0  0  0  0
 27 28  1  0  0  0  0
 28 24  1  0  0  0  0
 28 26  1  0  0  0  0
 29 30  1  6  0  0  0
 31 29  1  0  0  0  0
 32 31  1  0  0  0  0
 33 32  1  0  0  0  0
 34 35  2  0  0  0  0
 35 33  1  0  0  0  0
 36 34  1  0  0  0  0
 37 42  1  1  0  0  0
 37 39  1  0  0  0  0
 37 36  1  0  0  0  0
 40 38  1  0  0  0  0
 40 39  1  0  0  0  0
 41 40  2  0  0  0  0
 43 55  1  0  0  0  0
 43 52  1  0  0  0  0
 43 49  1  1  0  0  0
 45 48  1  0  0  0  0
 45 42  1  1  0  0  0
 46 50  1  0  0  0  0
 47 48  2  0  0  0  0
 48 44  2  0  0  0  0
 50 51  1  0  0  0  0
 52 54  1  1  0  0  0
 52 53  1  0  0  0  0
 53 48  1  0  0  0  0
 53 51  1  6  0  0  0
 54 46  1  0  0  0  0
 55 45  1  0  0  0  0
M  END
>  <MODEL>
6

>  <REMARK>
 VINA RESULT:      -5.9      4.273      7.583
  Name = 
  19 active torsions:
  status: ('A' for Active; 'I' for Inactive)
    1  A    between atoms: C_2  and  C_44
    2  A    between atoms: C_6  and  C_46
    3  A    between atoms: N_8  and  C_22
    4  A    between atoms: C_10  and  N_32
    5  A    between atoms: C_17  and  O_36
    6  A    between atoms: O_19  and  C_40
    7  A    between atoms: O_19  and  C_45
    8  A    between atoms: C_22  and  C_35
    9  A    between atoms: C_22  and  C_46
   10  A    between atoms: C_24  and  C_31
   11  A    between atoms: C_24  and  C_44
   12  A    between atoms: C_27  and  C_31
   13  A    between atoms: C_27  and  C_54
   14  A    between atoms: C_28  and  C_49
   15  A    between atoms: O_33  and  C_49
   16  A    between atoms: O_33  and  C_52
   17  A    between atoms: C_35  and  C_43
   18  A    between atoms: O_36  and  C_52
   19  A    between atoms: C_51  and  C_54
                            x       y       z     vdW  Elec       q    Type
                         _______ _______ _______ _____ _____    ______ ____

>  <TORSDO>
F 19

$$$$
=
 OpenBabel10262420293D

 55 59  0  0  1  0  0  0  0  0999 V2000
  192.8920  177.8610  139.4520 O   0  0  0  0  0  1  0  0  0  0  0  0
  192.2420  176.6900  139.0560 C   0  0  1  0  0  3  0  0  0  0  0  0
  190.7650  176.9380  139.0810 C   0  0  0  0  0  3  0  0  0  0  0  0
  190.2220  177.8470  139.8900 C   0  0  0  0  0  3  0  0  0  0  0  0
  188.7470  178.0560  139.8800 C   0  0  0  0  0  2  0  0  0  0  0  0
  188.3650  178.7990  141.0140 O   0  0  0  0  0  0  0  0  0  0  0  0
  189.0250  176.1440  143.2790 C   0  0  0  0  0  3  0  0  0  0  0  0
  187.4310  177.6550  144.3940 N   0  0  1  0  0  0  0  0  0  0  0  0
  188.7230  176.7120  142.1060 C   0  0  0  0  0  3  0  0  0  0  0  0
  187.8000  178.6230  143.3640 C   0  0  0  0  0  2  0  0  0  0  0  0
  188.5700  176.7540  144.5810 C   0  0  0  0  0  2  0  0  0  0  0  0
  187.8160  177.9280  141.9870 C   0  0  1  0  0  0  0  0  0  0  0  0
  187.2640  178.3860  145.6430 C   0  0  0  0  0  3  0  0  0  0  0  0
  185.8230  178.8530  145.7840 C   0  0  0  0  0  2  0  0  0  0  0  0
  186.2990  177.6280  146.5440 C   0  0  0  0  0  2  0  0  0  0  0  0
  186.4640  177.5710  141.6710 O   0  0  0  0  0  0  0  0  0  0  0  0
  183.5550  179.7450  139.4600 C   0  0  0  0  0  3  0  0  0  0  0  0
  184.6330  179.2800  138.8070 C   0  0  0  0  0  3  0  0  0  0  0  0
  184.4520  179.1570  142.8450 O   0  0  0  0  0  0  0  0  0  0  0  0
  185.7190  178.5360  140.9350 C   0  0  1  0  0  3  0  0  0  0  0  0
  185.5160  178.2400  139.4380 C   0  0  0  0  0  2  0  0  0  0  0  0
  184.4540  178.9820  141.6350 C   0  0  0  0  0  0  0  0  0  0  0  0
  183.1980  179.2440  140.8380 C   0  0  2  0  0  3  0  0  0  0  0  0
  182.4460  178.0600  140.7200 O   0  0  0  0  0  0  0  0  0  0  0  0
  180.7370  179.5510  140.7800 F   0  0  0  0  0  0  0  0  0  0  0  0
  181.1180  178.2900  142.5980 F   0  0  0  0  0  0  0  0  0  0  0  0
  180.2540  177.3620  140.7190 F   0  0  0  0  0  0  0  0  0  0  0  0
  181.1440  178.3010  141.2100 C   0  0  0  0  0  0  0  0  0  0  0  0
  192.7120  176.2740  137.6590 C   0  0  1  0  0  3  0  0  0  0  0  0
  193.9270  176.8880  137.3550 O   0  0  0  0  0  1  0  0  0  0  0  0
  192.8950  174.7660  137.6000 C   0  0  0  0  0  2  0  0  0  0  0  0
  192.8190  174.2760  136.1630 C   0  0  0  0  0  2  0  0  0  0  0  0
  191.6830  173.2800  136.0190 C   0  0  0  0  0  2  0  0  0  0  0  0
  189.5010  174.3850  136.1700 C   0  0  0  0  0  3  0  0  0  0  0  0
  190.4970  173.7540  136.7850 C   0  0  0  0  0  3  0  0  0  0  0  0
  188.3020  174.8390  136.9410 C   0  0  0  0  0  2  0  0  0  0  0  0
  187.2960  175.5480  136.0330 C   0  0  2  0  0  3  0  0  0  0  0  0
  187.5570  179.1360  136.8100 O   0  0  0  0  0  1  0  0  0  0  0  0
  187.0140  176.8910  136.5270 N   0  0  0  0  0  2  0  0  0  0  0  0
  187.8770  178.0150  136.3370 C   0  0  0  0  0  0  0  0  0  0  0  0
  189.0650  177.8820  135.6300 O   0  0  0  0  0  0  0  0  0  0  0  0
  186.0070  174.7450  135.8770 C   0  0  0  0  0  2  0  0  0  0  0  0
  184.2700  172.2050  136.9330 C   0  0  2  0  0  3  0  0  0  0  0  0
  183.6140  176.5770  136.3730 O   0  0  0  0  0  0  0  0  0  0  0  0
  185.2990  174.5970  137.2150 C   0  0  1  0  0  3  0  0  0  0  0  0
  180.6090  172.2680  137.1250 C   0  0  0  0  0  2  0  0  0  0  0  0
  183.1560  175.5560  138.5600 O   0  0  0  0  0  0  0  0  0  0  0  0
  183.6460  175.2970  137.1630 S   0  0  0  0  0  0  0  0  0  0  0  0
  184.6490  171.9560  135.4780 C   0  0  0  0  0  1  0  0  0  0  0  0
  180.4710  173.8130  137.2090 C   0  0  0  0  0  2  0  0  0  0  0  0
  181.2800  174.4650  136.2480 O   0  0  0  0  0  0  0  0  0  0  0  0
  182.8420  172.7280  137.0920 C   0  0  1  0  0  3  0  0  0  0  0  0
  182.6390  174.0690  136.3750 C   0  0  2  0  0  3  0  0  0  0  0  0
  181.8680  171.8210  136.6460 O   0  0  0  0  0  0  0  0  0  0  0  0
  185.2790  173.1190  137.6590 C   0  0  0  0  0  2  0  0  0  0  0  0
  2  3  1  0  0  0  0
  2  1  1  6  0  0  0
  3  4  2  0  0  0  0
  5  4  1  0  0  0  0
  5  6  1  0  0  0  0
  7 11  1  0  0  0  0
  8 11  1  0  0  0  0
  8 13  1  1  0  0  0
  9  7  2  0  0  0  0
 10  8  1  0  0  0  0
 12  6  1  6  0  0  0
 12  9  1  0  0  0  0
 12 10  1  0  0  0  0
 13 14  1  0  0  0  0
 13 15  1  0  0  0  0
 14 15  1  0  0  0  0
 16 12  1  0  0  0  0
 17 23  1  0  0  0  0
 18 21  1  0  0  0  0
 18 17  2  0  0  0  0
 20 22  1  0  0  0  0
 20 16  1  1  0  0  0
 21 20  1  0  0  0  0
 22 19  2  0  0  0  0
 23 24  1  6  0  0  0
 23 22  1  0  0  0  0
 24 28  1  0  0  0  0
 25 28  1  0  0  0  0
 27 28  1  0  0  0  0
 28 26  1  0  0  0  0
 29 30  1  1  0  0  0
 29  2  1  0  0  0  0
 31 29  1  0  0  0  0
 32 31  1  0  0  0  0
 33 32  1  0  0  0  0
 33 35  1  0  0  0  0
 34 35  2  0  0  0  0
 34 36  1  0  0  0  0
 37 42  1  1  0  0  0
 37 39  1  0  0  0  0
 37 36  1  0  0  0  0
 40 39  1  0  0  0  0
 40 38  1  0  0  0  0
 41 40  2  0  0  0  0
 43 49  1  6  0  0  0
 43 52  1  0  0  0  0
 43 55  1  0  0  0  0
 44 48  2  0  0  0  0
 45 42  1  6  0  0  0
 45 55  1  0  0  0  0
 46 50  1  0  0  0  0
 48 45  1  0  0  0  0
 48 47  2  0  0  0  0
 51 50  1  0  0  0  0
 52 54  1  6  0  0  0
 53 51  1  1  0  0  0
 53 52  1  0  0  0  0
 53 48  1  0  0  0  0
 54 46  1  0  0  0  0
M  END
>  <MODEL>
7

>  <REMARK>
 VINA RESULT:      -5.8      3.177      9.305
  Name = 
  19 active torsions:
  status: ('A' for Active; 'I' for Inactive)
    1  A    between atoms: C_2  and  C_44
    2  A    between atoms: C_6  and  C_46
    3  A    between atoms: N_8  and  C_22
    4  A    between atoms: C_10  and  N_32
    5  A    between atoms: C_17  and  O_36
    6  A    between atoms: O_19  and  C_40
    7  A    between atoms: O_19  and  C_45
    8  A    between atoms: C_22  and  C_35
    9  A    between atoms: C_22  and  C_46
   10  A    between atoms: C_24  and  C_31
   11  A    between atoms: C_24  and  C_44
   12  A    between atoms: C_27  and  C_31
   13  A    between atoms: C_27  and  C_54
   14  A    between atoms: C_28  and  C_49
   15  A    between atoms: O_33  and  C_49
   16  A    between atoms: O_33  and  C_52
   17  A    between atoms: C_35  and  C_43
   18  A    between atoms: O_36  and  C_52
   19  A    between atoms: C_51  and  C_54
                            x       y       z     vdW  Elec       q    Type
                         _______ _______ _______ _____ _____    ______ ____

>  <TORSDO>
F 19

$$$$
=
 OpenBabel10262420293D

 55 59  0  0  1  0  0  0  0  0999 V2000
  193.6400  177.1140  137.6900 O   0  0  0  0  0  1  0  0  0  0  0  0
  192.9060  175.9430  137.8910 C   0  0  1  0  0  3  0  0  0  0  0  0
  191.8920  176.2000  138.9640 C   0  0  0  0  0  3  0  0  0  0  0  0
  191.5510  177.4380  139.3220 C   0  0  0  0  0  3  0  0  0  0  0  0
  190.5390  177.6430  140.3960 C   0  0  0  0  0  2  0  0  0  0  0  0
  191.1620  178.1820  141.5380 O   0  0  0  0  0  0  0  0  0  0  0  0
  190.2830  175.1840  143.2270 C   0  0  0  0  0  3  0  0  0  0  0  0
  191.0920  176.7580  144.9400 N   0  0  1  0  0  0  0  0  0  0  0  0
  190.1280  176.2070  142.3780 C   0  0  0  0  0  3  0  0  0  0  0  0
  191.6380  177.5220  143.8200 C   0  0  0  0  0  2  0  0  0  0  0  0
  191.0270  175.3550  144.5270 C   0  0  0  0  0  2  0  0  0  0  0  0
  190.5800  177.6230  142.7030 C   0  0  1  0  0  0  0  0  0  0  0  0
  192.0540  176.8310  146.0310 C   0  0  0  0  0  3  0  0  0  0  0  0
  191.3460  176.6350  147.3640 C   0  0  0  0  0  2  0  0  0  0  0  0
  192.1160  175.4860  146.7380 C   0  0  0  0  0  2  0  0  0  0  0  0
  189.5080  178.4370  143.1990 O   0  0  0  0  0  0  0  0  0  0  0  0
  186.2310  177.3560  145.6810 C   0  0  0  0  0  3  0  0  0  0  0  0
  187.4380  177.5090  146.2520 C   0  0  0  0  0  3  0  0  0  0  0  0
  187.0460  177.4730  142.2270 O   0  0  0  0  0  0  0  0  0  0  0  0
  188.5580  177.7800  144.0320 C   0  0  1  0  0  3  0  0  0  0  0  0
  188.5480  178.2010  145.5120 C   0  0  0  0  0  2  0  0  0  0  0  0
  187.1760  177.7000  143.4210 C   0  0  0  0  0  0  0  0  0  0  0  0
  185.9520  177.8700  144.2900 C   0  0  2  0  0  3  0  0  0  0  0  0
  185.5960  179.2290  144.3610 O   0  0  0  0  0  0  0  0  0  0  0  0
  184.6160  179.6730  142.3630 F   0  0  0  0  0  0  0  0  0  0  0  0
  183.6570  180.4820  144.2250 F   0  0  0  0  0  0  0  0  0  0  0  0
  183.5940  178.2610  143.7740 F   0  0  0  0  0  0  0  0  0  0  0  0
  184.3620  179.4080  143.6960 C   0  0  0  0  0  0  0  0  0  0  0  0
  192.2340  175.5130  136.5840 C   0  0  1  0  0  3  0  0  0  0  0  0
  193.0680  175.7860  135.5000 O   0  0  0  0  0  1  0  0  0  0  0  0
  191.9430  174.0210  136.6160 C   0  0  0  0  0  2  0  0  0  0  0  0
  191.2700  173.5810  135.3260 C   0  0  0  0  0  2  0  0  0  0  0  0
  189.9330  172.9340  135.6390 C   0  0  0  0  0  2  0  0  0  0  0  0
  188.5030  174.8340  136.2340 C   0  0  0  0  0  3  0  0  0  0  0  0
  189.1900  173.7650  136.6260 C   0  0  0  0  0  3  0  0  0  0  0  0
  187.7410  175.6510  137.2280 C   0  0  0  0  0  2  0  0  0  0  0  0
  186.4370  176.1790  136.6260 C   0  0  2  0  0  3  0  0  0  0  0  0
  185.3240  178.9390  138.7920 O   0  0  0  0  0  1  0  0  0  0  0  0
  185.7030  176.9740  137.6050 N   0  0  0  0  0  2  0  0  0  0  0  0
  186.0050  178.3340  137.9240 C   0  0  0  0  0  0  0  0  0  0  0  0
  187.0400  178.9990  137.2790 O   0  0  0  0  0  0  0  0  0  0  0  0
  185.5660  175.0510  136.0800 C   0  0  0  0  0  2  0  0  0  0  0  0
  184.6460  171.9790  136.6280 C   0  0  2  0  0  3  0  0  0  0  0  0
  182.6370  175.8670  135.7880 O   0  0  0  0  0  0  0  0  0  0  0  0
  184.6060  174.5460  137.1470 C   0  0  1  0  0  3  0  0  0  0  0  0
  181.3250  170.7260  135.7090 C   0  0  0  0  0  2  0  0  0  0  0  0
  181.9710  174.5630  137.7610 O   0  0  0  0  0  0  0  0  0  0  0  0
  182.9020  174.6170  136.5830 S   0  0  0  0  0  0  0  0  0  0  0  0
  185.4920  172.0080  135.3610 C   0  0  0  0  0  1  0  0  0  0  0  0
  180.6170  172.1080  135.7090 C   0  0  0  0  0  2  0  0  0  0  0  0
  181.3730  173.0850  135.0200 O   0  0  0  0  0  0  0  0  0  0  0  0
  183.1450  171.9470  136.3370 C   0  0  1  0  0  3  0  0  0  0  0  0
  182.6840  173.1860  135.5590 C   0  0  2  0  0  3  0  0  0  0  0  0
  182.7410  170.7960  135.6420 O   0  0  0  0  0  0  0  0  0  0  0  0
  184.9970  173.1240  137.6000 C   0  0  0  0  0  2  0  0  0  0  0  0
  2  1  1  6  0  0  0
  2  3  1  0  0  0  0
  3  4  2  0  0  0  0
  4  5  1  0  0  0  0
  5  6  1  0  0  0  0
  7 11  1  0  0  0  0
  8 13  1  1  0  0  0
  9 12  1  0  0  0  0
  9  7  2  0  0  0  0
 10  8  1  0  0  0  0
 11  8  1  0  0  0  0
 12  6  1  6  0  0  0
 12 16  1  0  0  0  0
 12 10  1  0  0  0  0
 13 15  1  0  0  0  0
 13 14  1  0  0  0  0
 15 14  1  0  0  0  0
 17 18  2  0  0  0  0
 19 22  2  0  0  0  0
 20 16  1  6  0  0  0
 20 21  1  0  0  0  0
 21 18  1  0  0  0  0
 22 20  1  0  0  0  0
 22 23  1  0  0  0  0
 23 24  1  1  0  0  0
 23 17  1  0  0  0  0
 25 28  1  0  0  0  0
 28 27  1  0  0  0  0
 28 26  1  0  0  0  0
 28 24  1  0  0  0  0
 29 30  1  6  0  0  0
 29 31  1  0  0  0  0
 29  2  1  0  0  0  0
 32 33  1  0  0  0  0
 32 31  1  0  0  0  0
 33 35  1  0  0  0  0
 34 35  2  0  0  0  0
 34 36  1  0  0  0  0
 37 42  1  1  0  0  0
 37 36  1  0  0  0  0
 37 39  1  0  0  0  0
 39 40  1  0  0  0  0
 40 38  1  0  0  0  0
 41 40  2  0  0  0  0
 43 49  1  6  0  0  0
 43 55  1  0  0  0  0
 44 48  2  0  0  0  0
 45 42  1  6  0  0  0
 45 55  1  0  0  0  0
 48 45  1  0  0  0  0
 48 47  2  0  0  0  0
 50 46  1  0  0  0  0
 51 50  1  0  0  0  0
 52 54  1  6  0  0  0
 52 43  1  0  0  0  0
 53 51  1  1  0  0  0
 53 52  1  0  0  0  0
 53 48  1  0  0  0  0
 54 46  1  0  0  0  0
M  END
>  <MODEL>
8

>  <REMARK>
 VINA RESULT:      -5.7      3.719     10.588
  Name = 
  19 active torsions:
  status: ('A' for Active; 'I' for Inactive)
    1  A    between atoms: C_2  and  C_44
    2  A    between atoms: C_6  and  C_46
    3  A    between atoms: N_8  and  C_22
    4  A    between atoms: C_10  and  N_32
    5  A    between atoms: C_17  and  O_36
    6  A    between atoms: O_19  and  C_40
    7  A    between atoms: O_19  and  C_45
    8  A    between atoms: C_22  and  C_35
    9  A    between atoms: C_22  and  C_46
   10  A    between atoms: C_24  and  C_31
   11  A    between atoms: C_24  and  C_44
   12  A    between atoms: C_27  and  C_31
   13  A    between atoms: C_27  and  C_54
   14  A    between atoms: C_28  and  C_49
   15  A    between atoms: O_33  and  C_49
   16  A    between atoms: O_33  and  C_52
   17  A    between atoms: C_35  and  C_43
   18  A    between atoms: O_36  and  C_52
   19  A    between atoms: C_51  and  C_54
                            x       y       z     vdW  Elec       q    Type
                         _______ _______ _______ _____ _____    ______ ____

>  <TORSDO>
F 19

$$$$
=
 OpenBabel10262420293D

 55 59  0  0  1  0  0  0  0  0999 V2000
  185.7470  178.4560  143.6970 O   0  0  0  0  0  1  0  0  0  0  0  0
  185.3030  179.3350  142.7080 C   0  0  1  0  0  3  0  0  0  0  0  0
  185.9870  178.9840  141.4220 C   0  0  0  0  0  3  0  0  0  0  0  0
  187.2630  178.6010  141.3900 C   0  0  0  0  0  3  0  0  0  0  0  0
  187.9000  178.2630  140.0870 C   0  0  0  0  0  2  0  0  0  0  0  0
  189.3010  178.2710  140.2270 O   0  0  0  0  0  0  0  0  0  0  0  0
  189.2690  175.9520  137.5380 C   0  0  0  0  0  3  0  0  0  0  0  0
  191.6040  176.1290  138.3010 N   0  0  1  0  0  0  0  0  0  0  0  0
  188.8650  176.5080  138.6860 C   0  0  0  0  0  3  0  0  0  0  0  0
  191.1680  177.3370  138.9970 C   0  0  0  0  0  2  0  0  0  0  0  0
  190.7260  175.9440  137.1450 C   0  0  0  0  0  2  0  0  0  0  0  0
  189.8350  177.0600  139.7200 C   0  0  1  0  0  0  0  0  0  0  0  0
  192.9400  176.3820  137.7770 C   0  0  0  0  0  3  0  0  0  0  0  0
  193.9880  175.8540  138.7450 C   0  0  0  0  0  2  0  0  0  0  0  0
  193.6330  175.0560  137.5040 C   0  0  0  0  0  2  0  0  0  0  0  0
  190.1030  176.1230  140.7720 O   0  0  0  0  0  0  0  0  0  0  0  0
  191.3280  177.8840  144.4420 C   0  0  0  0  0  3  0  0  0  0  0  0
  191.5580  178.5610  143.3040 C   0  0  0  0  0  3  0  0  0  0  0  0
  190.3070  174.7160  143.2050 O   0  0  0  0  0  0  0  0  0  0  0  0
  190.8150  176.6320  141.8960 C   0  0  1  0  0  3  0  0  0  0  0  0
  190.8670  178.1640  142.0300 C   0  0  0  0  0  2  0  0  0  0  0  0
  190.4770  175.9270  143.1910 C   0  0  0  0  0  0  0  0  0  0  0  0
  190.3790  176.7120  144.4780 C   0  0  2  0  0  3  0  0  0  0  0  0
  189.0650  177.1850  144.6550 O   0  0  0  0  0  0  0  0  0  0  0  0
  187.5550  176.9320  146.3290 F   0  0  0  0  0  0  0  0  0  0  0  0
  188.9250  178.7100  146.3870 F   0  0  0  0  0  0  0  0  0  0  0  0
  189.7300  176.6280  146.7860 F   0  0  0  0  0  0  0  0  0  0  0  0
  188.8340  177.3690  146.0360 C   0  0  0  0  0  0  0  0  0  0  0  0
  183.7800  179.2450  142.5690 C   0  0  1  0  0  3  0  0  0  0  0  0
  183.4240  178.0680  141.9100 O   0  0  0  0  0  1  0  0  0  0  0  0
  183.1320  179.2540  143.9440 C   0  0  0  0  0  2  0  0  0  0  0  0
  181.9550  178.2930  143.9840 C   0  0  0  0  0  2  0  0  0  0  0  0
  180.6540  179.0730  143.9340 C   0  0  0  0  0  2  0  0  0  0  0  0
  179.9570  178.1330  141.7800 C   0  0  0  0  0  3  0  0  0  0  0  0
  180.2030  179.2100  142.5210 C   0  0  0  0  0  3  0  0  0  0  0  0
  179.4830  178.2780  140.3690 C   0  0  0  0  0  2  0  0  0  0  0  0
  179.2020  176.9130  139.7370 C   0  0  2  0  0  3  0  0  0  0  0  0
  179.7240  173.5860  141.2230 O   0  0  0  0  0  1  0  0  0  0  0  0
  179.5340  175.8380  140.6660 N   0  0  0  0  0  2  0  0  0  0  0  0
  179.4260  174.4470  140.3540 C   0  0  0  0  0  0  0  0  0  0  0  0
  179.0010  174.0340  139.0990 O   0  0  0  0  0  0  0  0  0  0  0  0
  179.9440  176.7360  138.4150 C   0  0  0  0  0  2  0  0  0  0  0  0
  181.4320  177.7800  135.7160 C   0  0  2  0  0  3  0  0  0  0  0  0
  182.6300  175.7860  139.5170 O   0  0  0  0  0  0  0  0  0  0  0  0
  181.1080  177.7110  138.3150 C   0  0  1  0  0  3  0  0  0  0  0  0
  184.7640  176.6130  134.7300 C   0  0  0  0  0  2  0  0  0  0  0  0
  183.7600  177.8550  138.8280 O   0  0  0  0  0  0  0  0  0  0  0  0
  182.6860  176.8680  138.4720 S   0  0  0  0  0  0  0  0  0  0  0  0
  180.4320  176.6970  135.3260 C   0  0  0  0  0  1  0  0  0  0  0  0
  185.2240  176.1930  136.1520 C   0  0  0  0  0  2  0  0  0  0  0  0
  184.2300  175.4440  136.8250 O   0  0  0  0  0  0  0  0  0  0  0  0
  182.8640  177.2550  135.8140 C   0  0  1  0  0  3  0  0  0  0  0  0
  183.0030  176.1590  136.8780 C   0  0  2  0  0  3  0  0  0  0  0  0
  183.3600  176.7710  134.5940 O   0  0  0  0  0  0  0  0  0  0  0  0
  181.0240  178.5230  137.0050 C   0  0  0  0  0  2  0  0  0  0  0  0
  2  1  1  1  0  0  0
  3  2  1  0  0  0  0
  4  3  2  0  0  0  0
  5  6  1  0  0  0  0
  5  4  1  0  0  0  0
  7  9  2  0  0  0  0
  8 13  1  6  0  0  0
  8 10  1  0  0  0  0
  9 12  1  0  0  0  0
 10 12  1  0  0  0  0
 11  7  1  0  0  0  0
 11  8  1  0  0  0  0
 12  6  1  1  0  0  0
 12 16  1  0  0  0  0
 13 14  1  0  0  0  0
 15 13  1  0  0  0  0
 15 14  1  0  0  0  0
 17 23  1  0  0  0  0
 18 17  2  0  0  0  0
 20 16  1  6  0  0  0
 20 21  1  0  0  0  0
 20 22  1  0  0  0  0
 21 18  1  0  0  0  0
 22 19  2  0  0  0  0
 22 23  1  0  0  0  0
 23 24  1  6  0  0  0
 24 28  1  0  0  0  0
 28 25  1  0  0  0  0
 28 26  1  0  0  0  0
 28 27  1  0  0  0  0
 29 30  1  1  0  0  0
 29  2  1  0  0  0  0
 29 31  1  0  0  0  0
 31 32  1  0  0  0  0
 33 32  1  0  0  0  0
 34 35  2  0  0  0  0
 35 33  1  0  0  0  0
 36 34  1  0  0  0  0
 37 42  1  6  0  0  0
 37 36  1  0  0  0  0
 37 39  1  0  0  0  0
 40 39  1  0  0  0  0
 40 38  1  0  0  0  0
 41 40  2  0  0  0  0
 43 49  1  1  0  0  0
 43 52  1  0  0  0  0
 43 55  1  0  0  0  0
 45 42  1  6  0  0  0
 45 48  1  0  0  0  0
 46 50  1  0  0  0  0
 48 47  2  0  0  0  0
 48 44  2  0  0  0  0
 50 51  1  0  0  0  0
 52 54  1  6  0  0  0
 52 53  1  0  0  0  0
 53 51  1  1  0  0  0
 53 48  1  0  0  0  0
 54 46  1  0  0  0  0
 55 45  1  0  0  0  0
M  END
>  <MODEL>
9

>  <REMARK>
 VINA RESULT:      -5.6      3.923      9.612
  Name = 
  19 active torsions:
  status: ('A' for Active; 'I' for Inactive)
    1  A    between atoms: C_2  and  C_44
    2  A    between atoms: C_6  and  C_46
    3  A    between atoms: N_8  and  C_22
    4  A    between atoms: C_10  and  N_32
    5  A    between atoms: C_17  and  O_36
    6  A    between atoms: O_19  and  C_40
    7  A    between atoms: O_19  and  C_45
    8  A    between atoms: C_22  and  C_35
    9  A    between atoms: C_22  and  C_46
   10  A    between atoms: C_24  and  C_31
   11  A    between atoms: C_24  and  C_44
   12  A    between atoms: C_27  and  C_31
   13  A    between atoms: C_27  and  C_54
   14  A    between atoms: C_28  and  C_49
   15  A    between atoms: O_33  and  C_49
   16  A    between atoms: O_33  and  C_52
   17  A    between atoms: C_35  and  C_43
   18  A    between atoms: O_36  and  C_52
   19  A    between atoms: C_51  and  C_54
                            x       y       z     vdW  Elec       q    Type
                         _______ _______ _______ _____ _____    ______ ____

>  <TORSDO>
F 19

$$$$
