=
 OpenBabel10262423323D

 34 39  0  0  0  0  0  0  0  0999 V2000
  182.9550  178.4360  141.4220 C   0  0  0  0  0  0  0  0  0  0  0  0
  180.5260  179.0130  139.2800 C   0  0  0  0  0  1  0  0  0  0  0  0
  183.3240  178.8340  143.8290 C   0  0  0  0  0  0  0  0  0  0  0  0
  183.7820  178.3900  142.5650 C   0  0  0  0  0  3  0  0  0  0  0  0
  181.2150  179.3730  142.8220 C   0  0  0  0  0  0  0  0  0  0  0  0
  179.9600  179.8460  142.7310 N   0  0  0  0  0  0  0  0  0  0  0  0
  182.0150  179.3310  143.9580 C   0  0  0  0  0  3  0  0  0  0  0  0
  180.6000  179.2150  140.7530 C   0  0  0  0  0  0  0  0  0  0  0  0
  181.6610  178.9510  141.5980 C   0  0  0  0  0  0  0  0  0  0  0  0
  179.6250  179.7340  141.4730 O   0  0  0  0  0  0  0  0  0  0  0  0
  187.5680  177.4720  144.1690 C   0  0  0  0  0  3  0  0  0  0  0  0
  186.1020  178.3510  146.3450 N   0  0  0  0  0  0  0  0  0  0  0  0
  190.0380  177.1010  146.9060 C   0  0  0  0  0  0  0  0  0  0  0  0
  189.4670  177.0740  145.6260 C   0  0  0  0  0  3  0  0  0  0  0  0
  188.1470  177.4930  145.4360 C   0  0  0  0  0  0  0  0  0  0  0  0
  184.1540  178.7870  145.0000 N   0  0  0  0  0  2  0  0  0  0  0  0
  187.9530  177.9730  147.8090 C   0  0  0  0  0  3  0  0  0  0  0  0
  187.3850  177.9450  146.5330 C   0  0  0  0  0  0  0  0  0  0  0  0
  189.2740  177.5520  147.9940 C   0  0  0  0  0  3  0  0  0  0  0  0
  185.5130  178.3370  145.1170 C   0  0  0  0  0  0  0  0  0  0  0  0
  186.2480  177.8950  144.0060 C   0  0  0  0  0  3  0  0  0  0  0  0
  191.4280  176.6600  147.1010 C   0  0  0  0  0  0  0  0  0  0  0  0
  192.0830  177.0410  148.1070 O   0  0  0  0  0  1  0  0  0  0  0  0
  192.0320  175.8160  146.1760 O   0  0  0  0  0  0  0  0  0  0  0  0
  182.9640  176.1310  138.4600 C   0  0  0  0  0  3  0  0  0  0  0  0
  183.2570  176.9990  137.2830 C   0  0  0  0  0  2  0  0  0  0  0  0
  184.6700  177.4790  137.2970 C   0  0  0  0  0  0  0  0  0  0  0  0
  185.1450  178.2510  138.2760 C   0  0  0  0  0  3  0  0  0  0  0  0
  183.0230  176.5720  139.7160 C   0  0  0  0  0  3  0  0  0  0  0  0
  184.4280  178.6170  139.5160 C   0  0  0  0  0  3  0  0  0  0  0  0
  183.4540  177.9260  140.1320 C   0  0  0  0  0  0  0  0  0  0  0  0
  185.5030  177.1920  136.1800 N   0  0  0  0  0  0  0  0  0  0  0  0
  186.5350  176.3790  135.4750 C   0  0  0  0  0  2  0  0  0  0  0  0
  186.0200  177.4700  134.8090 C   0  0  0  0  0  2  0  0  0  0  0  0
  1  9  1  0  0  0  0
  1  4  2  0  0  0  0
  2  8  1  0  0  0  0
  3  7  2  0  0  0  0
  3 16  1  0  0  0  0
  4  3  1  0  0  0  0
  5  7  1  0  0  0  0
  6  5  2  0  0  0  0
  8 10  1  0  0  0  0
  8  9  2  0  0  0  0
  9  5  1  0  0  0  0
 10  6  1  0  0  0  0
 11 15  1  0  0  0  0
 12 18  1  0  0  0  0
 13 22  1  0  0  0  0
 13 19  1  0  0  0  0
 14 13  2  0  0  0  0
 15 14  1  0  0  0  0
 15 18  2  0  0  0  0
 16 20  1  0  0  0  0
 17 19  2  0  0  0  0
 18 17  1  0  0  0  0
 20 12  2  0  0  0  0
 21 11  2  0  0  0  0
 21 20  1  0  0  0  0
 22 23  1  0  0  0  0
 24 22  2  0  0  0  0
 25 29  2  0  0  0  0
 26 27  1  0  0  0  0
 26 25  1  0  0  0  0
 27 28  2  0  0  0  0
 28 30  1  0  0  0  0
 29 31  1  0  0  0  0
 30 31  2  0  0  0  0
 31  1  1  0  0  0  0
 32 27  1  0  0  0  0
 33 32  1  0  0  0  0
 34 33  1  0  0  0  0
 34 32  1  0  0  0  0
M  END
>  <MODEL>
1

>  <REMARK>
 VINA RESULT:     -10.7      0.000      0.000
  Name = 
  4 active torsions:
  status: ('A' for Active; 'I' for Inactive)
    1  A    between atoms: C_1  and  C_34
    2  A    between atoms: N_3  and  C_25
    3  A    between atoms: C_7  and  C_11
    4  A    between atoms: C_8  and  N_18
                            x       y       z     vdW  Elec       q    Type
                         _______ _______ _______ _____ _____    ______ ____

>  <TORSDO>
F 4

$$$$
=
 OpenBabel10262423323D

 34 39  0  0  0  0  0  0  0  0999 V2000
  188.0700  177.8840  144.9680 C   0  0  0  0  0  0  0  0  0  0  0  0
  190.8990  176.9650  146.3740 C   0  0  0  0  0  1  0  0  0  0  0  0
  185.7750  178.3440  145.7460 C   0  0  0  0  0  0  0  0  0  0  0  0
  186.7230  178.2100  144.7030 C   0  0  0  0  0  3  0  0  0  0  0  0
  187.5060  177.8240  147.3230 C   0  0  0  0  0  0  0  0  0  0  0  0
  188.0720  177.5630  148.5130 N   0  0  0  0  0  0  0  0  0  0  0  0
  186.1760  178.1500  147.0790 C   0  0  0  0  0  3  0  0  0  0  0  0
  189.5780  177.3090  146.9670 C   0  0  0  0  0  0  0  0  0  0  0  0
  188.4210  177.6890  146.3130 C   0  0  0  0  0  0  0  0  0  0  0  0
  189.3170  177.2570  148.2590 O   0  0  0  0  0  0  0  0  0  0  0  0
  183.6110  178.3840  141.8340 C   0  0  0  0  0  3  0  0  0  0  0  0
  182.4000  179.0940  144.2190 N   0  0  0  0  0  0  0  0  0  0  0  0
  180.1920  179.2350  140.6870 C   0  0  0  0  0  0  0  0  0  0  0  0
  181.5350  178.8310  140.6620 C   0  0  0  0  0  3  0  0  0  0  0  0
  182.2770  178.7840  141.8450 C   0  0  0  0  0  0  0  0  0  0  0  0
  184.4030  178.6820  145.4890 N   0  0  0  0  0  2  0  0  0  0  0  0
  180.3380  179.5430  143.0970 C   0  0  0  0  0  3  0  0  0  0  0  0
  181.6760  179.1420  143.0700 C   0  0  0  0  0  0  0  0  0  0  0  0
  179.6000  179.5900  141.9100 C   0  0  0  0  0  3  0  0  0  0  0  0
  183.7060  178.7100  144.2340 C   0  0  0  0  0  0  0  0  0  0  0  0
  184.3300  178.3460  143.0290 C   0  0  0  0  0  3  0  0  0  0  0  0
  179.4140  179.2830  139.4390 C   0  0  0  0  0  0  0  0  0  0  0  0
  179.0920  180.3890  138.9300 O   0  0  0  0  0  1  0  0  0  0  0  0
  179.0290  178.1060  138.8070 O   0  0  0  0  0  0  0  0  0  0  0  0
  191.3350  178.5740  143.2500 C   0  0  0  0  0  3  0  0  0  0  0  0
  191.7050  177.2980  142.5720 C   0  0  0  0  0  2  0  0  0  0  0  0
  190.8070  177.0150  141.4140 C   0  0  0  0  0  0  0  0  0  0  0  0
  189.4960  176.8250  141.5660 C   0  0  0  0  0  3  0  0  0  0  0  0
  190.1590  178.7620  143.8460 C   0  0  0  0  0  3  0  0  0  0  0  0
  188.7350  176.9960  142.8220 C   0  0  0  0  0  3  0  0  0  0  0  0
  189.0370  177.7950  143.8590 C   0  0  0  0  0  0  0  0  0  0  0  0
  191.3850  176.8400  140.1260 N   0  0  0  0  0  0  0  0  0  0  0  0
  191.3150  176.4560  138.6870 C   0  0  0  0  0  2  0  0  0  0  0  0
  192.5290  176.8970  139.1700 C   0  0  0  0  0  2  0  0  0  0  0  0
  1  9  1  0  0  0  0
  2  8  1  0  0  0  0
  3  7  2  0  0  0  0
  4  1  2  0  0  0  0
  4  3  1  0  0  0  0
  5  6  2  0  0  0  0
  7  5  1  0  0  0  0
  8 10  1  0  0  0  0
  9  8  2  0  0  0  0
  9  5  1  0  0  0  0
 10  6  1  0  0  0  0
 11 15  1  0  0  0  0
 11 21  2  0  0  0  0
 12 20  2  0  0  0  0
 13 19  1  0  0  0  0
 14 13  2  0  0  0  0
 14 15  1  0  0  0  0
 15 18  2  0  0  0  0
 16  3  1  0  0  0  0
 18 17  1  0  0  0  0
 18 12  1  0  0  0  0
 19 17  2  0  0  0  0
 20 16  1  0  0  0  0
 21 20  1  0  0  0  0
 22 13  1  0  0  0  0
 23 22  1  0  0  0  0
 24 22  2  0  0  0  0
 25 29  2  0  0  0  0
 26 25  1  0  0  0  0
 27 28  2  0  0  0  0
 27 26  1  0  0  0  0
 28 30  1  0  0  0  0
 29 31  1  0  0  0  0
 30 31  2  0  0  0  0
 31  1  1  0  0  0  0
 32 27  1  0  0  0  0
 33 34  1  0  0  0  0
 33 32  1  0  0  0  0
 34 32  1  0  0  0  0
M  END
>  <MODEL>
2

>  <REMARK>
 VINA RESULT:     -10.2      2.811      8.802
  Name = 
  4 active torsions:
  status: ('A' for Active; 'I' for Inactive)
    1  A    between atoms: C_1  and  C_34
    2  A    between atoms: N_3  and  C_25
    3  A    between atoms: C_7  and  C_11
    4  A    between atoms: C_8  and  N_18
                            x       y       z     vdW  Elec       q    Type
                         _______ _______ _______ _____ _____    ______ ____

>  <TORSDO>
F 4

$$$$
=
 OpenBabel10262423323D

 34 39  0  0  0  0  0  0  0  0999 V2000
  182.8740  178.7990  140.9400 C   0  0  0  0  0  0  0  0  0  0  0  0
  179.7300  179.3760  141.7210 C   0  0  0  0  0  1  0  0  0  0  0  0
  184.9670  178.4220  142.1910 C   0  0  0  0  0  0  0  0  0  0  0  0
  184.2700  178.5940  140.9710 C   0  0  0  0  0  3  0  0  0  0  0  0
  182.8850  178.6610  143.3590 C   0  0  0  0  0  0  0  0  0  0  0  0
  182.0440  178.7620  144.4020 N   0  0  0  0  0  0  0  0  0  0  0  0
  184.2590  178.4530  143.4050 C   0  0  0  0  0  3  0  0  0  0  0  0
  180.9090  179.0660  142.5740 C   0  0  0  0  0  0  0  0  0  0  0  0
  182.2130  178.8340  142.1790 C   0  0  0  0  0  0  0  0  0  0  0  0
  180.8670  179.0050  143.8910 O   0  0  0  0  0  0  0  0  0  0  0  0
  187.5060  177.3390  145.7070 C   0  0  0  0  0  3  0  0  0  0  0  0
  188.5510  177.7440  143.1770 N   0  0  0  0  0  0  0  0  0  0  0  0
  191.1160  176.7680  146.3130 C   0  0  0  0  0  0  0  0  0  0  0  0
  189.7390  176.8880  146.5430 C   0  0  0  0  0  3  0  0  0  0  0  0
  188.8770  177.2160  145.4920 C   0  0  0  0  0  0  0  0  0  0  0  0
  186.3860  178.2070  142.2330 N   0  0  0  0  0  2  0  0  0  0  0  0
  190.7650  177.3050  143.9660 C   0  0  0  0  0  3  0  0  0  0  0  0
  189.3920  177.4260  144.1970 C   0  0  0  0  0  0  0  0  0  0  0  0
  191.6230  176.9780  145.0210 C   0  0  0  0  0  3  0  0  0  0  0  0
  187.2080  177.8720  143.3620 C   0  0  0  0  0  0  0  0  0  0  0  0
  186.6670  177.6670  144.6410 C   0  0  0  0  0  3  0  0  0  0  0  0
  192.0200  176.4220  147.4220 C   0  0  0  0  0  0  0  0  0  0  0  0
  192.0990  177.1650  148.4360 O   0  0  0  0  0  1  0  0  0  0  0  0
  192.7940  175.2690  147.3620 O   0  0  0  0  0  0  0  0  0  0  0  0
  180.7680  177.5850  138.0800 C   0  0  0  0  0  3  0  0  0  0  0  0
  179.8720  178.7260  137.7350 C   0  0  0  0  0  2  0  0  0  0  0  0
  180.6310  179.8430  137.1000 C   0  0  0  0  0  0  0  0  0  0  0  0
  181.5990  180.4960  137.7440 C   0  0  0  0  0  3  0  0  0  0  0  0
  181.7640  177.6880  138.9590 C   0  0  0  0  0  3  0  0  0  0  0  0
  182.1470  180.1450  139.0700 C   0  0  0  0  0  3  0  0  0  0  0  0
  182.1780  178.9320  139.6480 C   0  0  0  0  0  0  0  0  0  0  0  0
  180.2370  180.2900  135.8080 N   0  0  0  0  0  0  0  0  0  0  0  0
  180.4090  181.1390  134.5940 C   0  0  0  0  0  2  0  0  0  0  0  0
  179.3340  180.2770  134.6210 C   0  0  0  0  0  2  0  0  0  0  0  0
  1  4  2  0  0  0  0
  1  9  1  0  0  0  0
  2  8  1  0  0  0  0
  3 16  1  0  0  0  0
  3  7  2  0  0  0  0
  4  3  1  0  0  0  0
  5  7  1  0  0  0  0
  5  6  2  0  0  0  0
  8 10  1  0  0  0  0
  9  8  2  0  0  0  0
  9  5  1  0  0  0  0
 10  6  1  0  0  0  0
 12 20  2  0  0  0  0
 12 18  1  0  0  0  0
 13 14  1  0  0  0  0
 13 22  1  0  0  0  0
 15 11  1  0  0  0  0
 15 14  2  0  0  0  0
 16 20  1  0  0  0  0
 17 18  2  0  0  0  0
 17 19  1  0  0  0  0
 18 15  1  0  0  0  0
 19 13  2  0  0  0  0
 20 21  1  0  0  0  0
 21 11  2  0  0  0  0
 22 23  1  0  0  0  0
 24 22  2  0  0  0  0
 25 29  2  0  0  0  0
 26 25  1  0  0  0  0
 27 26  1  0  0  0  0
 27 28  2  0  0  0  0
 28 30  1  0  0  0  0
 29 31  1  0  0  0  0
 30 31  2  0  0  0  0
 31  1  1  0  0  0  0
 32 27  1  0  0  0  0
 33 34  1  0  0  0  0
 33 32  1  0  0  0  0
 34 32  1  0  0  0  0
M  END
>  <MODEL>
3

>  <REMARK>
 VINA RESULT:      -9.3      2.477      3.273
  Name = 
  4 active torsions:
  status: ('A' for Active; 'I' for Inactive)
    1  A    between atoms: C_1  and  C_34
    2  A    between atoms: N_3  and  C_25
    3  A    between atoms: C_7  and  C_11
    4  A    between atoms: C_8  and  N_18
                            x       y       z     vdW  Elec       q    Type
                         _______ _______ _______ _____ _____    ______ ____

>  <TORSDO>
F 4

$$$$
=
 OpenBabel10262423323D

 34 39  0  0  0  0  0  0  0  0999 V2000
  189.3580  177.8080  140.9710 C   0  0  0  0  0  0  0  0  0  0  0  0
  192.5200  177.1090  140.3880 C   0  0  0  0  0  1  0  0  0  0  0  0
  187.3600  178.2470  139.5920 C   0  0  0  0  0  0  0  0  0  0  0  0
  187.9960  178.1580  140.8530 C   0  0  0  0  0  3  0  0  0  0  0  0
  189.4360  177.6410  138.5550 C   0  0  0  0  0  0  0  0  0  0  0  0
  190.3110  177.3890  137.5660 N   0  0  0  0  0  0  0  0  0  0  0  0
  188.0940  177.9800  138.4230 C   0  0  0  0  0  3  0  0  0  0  0  0
  191.3650  177.2640  139.4620 C   0  0  0  0  0  0  0  0  0  0  0  0
  190.0520  177.5620  139.7750 C   0  0  0  0  0  0  0  0  0  0  0  0
  191.4580  177.1680  138.1500 O   0  0  0  0  0  0  0  0  0  0  0  0
  184.2230  178.3970  142.7730 C   0  0  0  0  0  3  0  0  0  0  0  0
  183.6880  178.9670  140.1180 N   0  0  0  0  0  0  0  0  0  0  0  0
  180.5960  179.1450  142.9070 C   0  0  0  0  0  0  0  0  0  0  0  0
  181.8920  178.7990  143.3150 C   0  0  0  0  0  3  0  0  0  0  0  0
  182.9300  178.7390  142.3810 C   0  0  0  0  0  0  0  0  0  0  0  0
  185.9730  178.5970  139.4610 N   0  0  0  0  0  2  0  0  0  0  0  0
  181.3850  179.3720  140.6170 C   0  0  0  0  0  3  0  0  0  0  0  0
  182.6760  179.0260  141.0240 C   0  0  0  0  0  0  0  0  0  0  0  0
  180.3490  179.4300  141.5550 C   0  0  0  0  0  3  0  0  0  0  0  0
  184.9580  178.6340  140.4760 C   0  0  0  0  0  0  0  0  0  0  0  0
  185.2410  178.3440  141.8210 C   0  0  0  0  0  3  0  0  0  0  0  0
  179.5060  179.2070  143.8950 C   0  0  0  0  0  0  0  0  0  0  0  0
  178.9310  180.3010  144.1410 O   0  0  0  0  0  0  0  0  0  0  0  0
  179.1000  178.0590  144.5640 O   0  0  0  0  0  1  0  0  0  0  0  0
  190.8460  179.1240  144.1550 C   0  0  0  0  0  3  0  0  0  0  0  0
  190.3160  178.2430  145.2350 C   0  0  0  0  0  2  0  0  0  0  0  0
  190.9110  176.8760  145.1650 C   0  0  0  0  0  0  0  0  0  0  0  0
  190.7330  176.0800  144.1090 C   0  0  0  0  0  3  0  0  0  0  0  0
  190.6530  178.8780  142.8600 C   0  0  0  0  0  3  0  0  0  0  0  0
  190.0720  176.4570  142.8420 C   0  0  0  0  0  3  0  0  0  0  0  0
  189.9740  177.6850  142.3040 C   0  0  0  0  0  0  0  0  0  0  0  0
  191.6000  176.3700  146.3020 N   0  0  0  0  0  0  0  0  0  0  0  0
  192.4940  175.3850  146.9760 C   0  0  0  0  0  2  0  0  0  0  0  0
  191.9850  176.4110  147.7420 C   0  0  0  0  0  2  0  0  0  0  0  0
  1 31  1  0  0  0  0
  3  4  1  0  0  0  0
  4  1  2  0  0  0  0
  5  9  1  0  0  0  0
  6 10  1  0  0  0  0
  6  5  2  0  0  0  0
  7  5  1  0  0  0  0
  7  3  2  0  0  0  0
  8  9  2  0  0  0  0
  8  2  1  0  0  0  0
  9  1  1  0  0  0  0
 10  8  1  0  0  0  0
 12 20  2  0  0  0  0
 12 18  1  0  0  0  0
 13 14  1  0  0  0  0
 13 22  1  0  0  0  0
 15 11  1  0  0  0  0
 15 14  2  0  0  0  0
 16  3  1  0  0  0  0
 16 20  1  0  0  0  0
 17 18  2  0  0  0  0
 17 19  1  0  0  0  0
 18 15  1  0  0  0  0
 19 13  2  0  0  0  0
 20 21  1  0  0  0  0
 21 11  2  0  0  0  0
 22 23  2  0  0  0  0
 22 24  1  0  0  0  0
 25 26  1  0  0  0  0
 27 26  1  0  0  0  0
 27 32  1  0  0  0  0
 28 27  2  0  0  0  0
 29 25  2  0  0  0  0
 30 28  1  0  0  0  0
 31 30  2  0  0  0  0
 31 29  1  0  0  0  0
 32 33  1  0  0  0  0
 32 34  1  0  0  0  0
 33 34  1  0  0  0  0
M  END
>  <MODEL>
4

>  <REMARK>
 VINA RESULT:      -9.2      3.559      9.566
  Name = 
  4 active torsions:
  status: ('A' for Active; 'I' for Inactive)
    1  A    between atoms: C_1  and  C_34
    2  A    between atoms: N_3  and  C_25
    3  A    between atoms: C_7  and  C_11
    4  A    between atoms: C_8  and  N_18
                            x       y       z     vdW  Elec       q    Type
                         _______ _______ _______ _____ _____    ______ ____

>  <TORSDO>
F 4

$$$$
=
 OpenBabel10262423323D

 34 39  0  0  0  0  0  0  0  0999 V2000
  189.9130  176.6710  137.9340 C   0  0  0  0  0  0  0  0  0  0  0  0
  189.7720  176.9790  134.6610 C   0  0  0  0  0  1  0  0  0  0  0  0
  188.6030  177.5110  139.8480 C   0  0  0  0  0  0  0  0  0  0  0  0
  189.7060  176.7960  139.3240 C   0  0  0  0  0  3  0  0  0  0  0  0
  187.9050  177.9840  137.6020 C   0  0  0  0  0  0  0  0  0  0  0  0
  187.1710  178.5140  136.6090 N   0  0  0  0  0  0  0  0  0  0  0  0
  187.6850  178.1120  138.9690 C   0  0  0  0  0  3  0  0  0  0  0  0
  188.8560  177.4630  135.7300 C   0  0  0  0  0  0  0  0  0  0  0  0
  188.9760  177.2980  137.0970 C   0  0  0  0  0  0  0  0  0  0  0  0
  187.7730  178.1800  135.5000 O   0  0  0  0  0  0  0  0  0  0  0  0
  191.4180  176.5960  143.1980 C   0  0  0  0  0  3  0  0  0  0  0  0
  188.8380  177.5040  143.6190 N   0  0  0  0  0  0  0  0  0  0  0  0
  191.2770  176.6880  146.8990 C   0  0  0  0  0  0  0  0  0  0  0  0
  191.7640  176.5030  145.5970 C   0  0  0  0  0  3  0  0  0  0  0  0
  190.9470  176.7750  144.4960 C   0  0  0  0  0  0  0  0  0  0  0  0
  188.3800  177.6390  141.2610 N   0  0  0  0  0  2  0  0  0  0  0  0
  189.1440  177.4250  145.9890 C   0  0  0  0  0  3  0  0  0  0  0  0
  189.6300  177.2390  144.6920 C   0  0  0  0  0  0  0  0  0  0  0  0
  189.9650  177.1500  147.0870 C   0  0  0  0  0  3  0  0  0  0  0  0
  189.2750  177.3340  142.3410 C   0  0  0  0  0  0  0  0  0  0  0  0
  190.5830  176.8750  142.1160 C   0  0  0  0  0  3  0  0  0  0  0  0
  192.1410  176.4010  148.0550 C   0  0  0  0  0  0  0  0  0  0  0  0
  192.5610  175.2310  148.2630 O   0  0  0  0  0  0  0  0  0  0  0  0
  192.5030  177.4190  148.9300 O   0  0  0  0  0  1  0  0  0  0  0  0
  191.5200  173.7130  136.2730 C   0  0  0  0  0  3  0  0  0  0  0  0
  192.6040  174.2780  135.4190 C   0  0  0  0  0  2  0  0  0  0  0  0
  193.7280  174.8100  136.2450 C   0  0  0  0  0  0  0  0  0  0  0  0
  193.5610  175.8180  137.1010 C   0  0  0  0  0  3  0  0  0  0  0  0
  190.8180  174.4500  137.1330 C   0  0  0  0  0  3  0  0  0  0  0  0
  192.2710  176.4440  137.4610 C   0  0  0  0  0  3  0  0  0  0  0  0
  191.0510  175.8830  137.4260 C   0  0  0  0  0  0  0  0  0  0  0  0
  195.0370  174.2940  136.0320 N   0  0  0  0  0  0  0  0  0  0  0  0
  196.4510  174.4250  135.5780 C   0  0  0  0  0  2  0  0  0  0  0  0
  196.0570  173.2080  136.0890 C   0  0  0  0  0  2  0  0  0  0  0  0
  1  4  2  0  0  0  0
  2  8  1  0  0  0  0
  3 16  1  0  0  0  0
  4  3  1  0  0  0  0
  5  7  1  0  0  0  0
  6  5  2  0  0  0  0
  7  3  2  0  0  0  0
  8  9  2  0  0  0  0
  9  5  1  0  0  0  0
  9  1  1  0  0  0  0
 10  8  1  0  0  0  0
 10  6  1  0  0  0  0
 11 15  1  0  0  0  0
 12 18  1  0  0  0  0
 13 19  1  0  0  0  0
 13 22  1  0  0  0  0
 14 13  2  0  0  0  0
 15 18  2  0  0  0  0
 15 14  1  0  0  0  0
 16 20  1  0  0  0  0
 17 19  2  0  0  0  0
 18 17  1  0  0  0  0
 20 12  2  0  0  0  0
 21 20  1  0  0  0  0
 21 11  2  0  0  0  0
 22 23  2  0  0  0  0
 22 24  1  0  0  0  0
 25 29  2  0  0  0  0
 26 27  1  0  0  0  0
 26 25  1  0  0  0  0
 27 28  2  0  0  0  0
 28 30  1  0  0  0  0
 29 31  1  0  0  0  0
 31 30  2  0  0  0  0
 31  1  1  0  0  0  0
 32 34  1  0  0  0  0
 32 27  1  0  0  0  0
 33 32  1  0  0  0  0
 33 34  1  0  0  0  0
M  END
>  <MODEL>
5

>  <REMARK>
 VINA RESULT:      -9.1      5.054      7.301
  Name = 
  4 active torsions:
  status: ('A' for Active; 'I' for Inactive)
    1  A    between atoms: C_1  and  C_34
    2  A    between atoms: N_3  and  C_25
    3  A    between atoms: C_7  and  C_11
    4  A    between atoms: C_8  and  N_18
                            x       y       z     vdW  Elec       q    Type
                         _______ _______ _______ _____ _____    ______ ____

>  <TORSDO>
F 4

$$$$
=
 OpenBabel10262423323D

 34 39  0  0  0  0  0  0  0  0999 V2000
  183.1060  178.1820  139.2690 C   0  0  0  0  0  0  0  0  0  0  0  0
  181.5780  178.3940  136.3630 C   0  0  0  0  0  1  0  0  0  0  0  0
  182.5400  178.7170  141.6090 C   0  0  0  0  0  0  0  0  0  0  0  0
  183.4630  178.2770  140.6310 C   0  0  0  0  0  3  0  0  0  0  0  0
  180.9000  178.9740  139.8780 C   0  0  0  0  0  0  0  0  0  0  0  0
  179.7260  179.2980  139.3080 N   0  0  0  0  0  0  0  0  0  0  0  0
  181.2340  179.0690  141.2240 C   0  0  0  0  0  3  0  0  0  0  0  0
  181.0950  178.6630  137.7450 C   0  0  0  0  0  0  0  0  0  0  0  0
  181.7960  178.5550  138.9310 C   0  0  0  0  0  0  0  0  0  0  0  0
  179.8820  179.0980  138.0270 O   0  0  0  0  0  0  0  0  0  0  0  0
  186.4840  177.8850  143.5410 C   0  0  0  0  0  3  0  0  0  0  0  0
  184.2500  178.6610  144.9780 N   0  0  0  0  0  0  0  0  0  0  0  0
  187.8170  177.9110  146.9980 C   0  0  0  0  0  0  0  0  0  0  0  0
  187.7550  177.7700  145.6050 C   0  0  0  0  0  3  0  0  0  0  0  0
  186.5590  178.0210  144.9260 C   0  0  0  0  0  0  0  0  0  0  0  0
  182.8900  178.8120  142.9990 N   0  0  0  0  0  2  0  0  0  0  0  0
  185.4720  178.5600  147.0300 C   0  0  0  0  0  3  0  0  0  0  0  0
  185.4110  178.4180  145.6420 C   0  0  0  0  0  0  0  0  0  0  0  0
  186.6710  178.3070  147.7050 C   0  0  0  0  0  3  0  0  0  0  0  0
  184.1500  178.5330  143.6270 C   0  0  0  0  0  0  0  0  0  0  0  0
  185.2780  178.1410  142.8880 C   0  0  0  0  0  3  0  0  0  0  0  0
  189.0790  177.6470  147.7090 C   0  0  0  0  0  0  0  0  0  0  0  0
  189.5090  178.4600  148.5700 O   0  0  0  0  0  1  0  0  0  0  0  0
  189.8080  176.4940  147.4380 O   0  0  0  0  0  0  0  0  0  0  0  0
  184.3360  175.8540  136.5930 C   0  0  0  0  0  3  0  0  0  0  0  0
  185.0390  176.7220  135.6050 C   0  0  0  0  0  2  0  0  0  0  0  0
  186.3200  177.2520  136.1570 C   0  0  0  0  0  0  0  0  0  0  0  0
  186.3530  178.0470  137.2270 C   0  0  0  0  0  3  0  0  0  0  0  0
  183.8880  176.3070  137.7630 C   0  0  0  0  0  3  0  0  0  0  0  0
  185.1990  178.3990  138.0820 C   0  0  0  0  0  3  0  0  0  0  0  0
  184.0830  177.6790  138.2860 C   0  0  0  0  0  0  0  0  0  0  0  0
  187.5300  176.9850  135.4580 N   0  0  0  0  0  0  0  0  0  0  0  0
  188.3960  176.1330  134.5940 C   0  0  0  0  0  2  0  0  0  0  0  0
  188.9120  177.3360  135.0230 C   0  0  0  0  0  2  0  0  0  0  0  0
  1  4  2  0  0  0  0
  2  8  1  0  0  0  0
  3 16  1  0  0  0  0
  4  3  1  0  0  0  0
  5  7  1  0  0  0  0
  6  5  2  0  0  0  0
  7  3  2  0  0  0  0
  8 10  1  0  0  0  0
  8  9  2  0  0  0  0
  9  1  1  0  0  0  0
  9  5  1  0  0  0  0
 10  6  1  0  0  0  0
 11 15  1  0  0  0  0
 12 18  1  0  0  0  0
 13 19  1  0  0  0  0
 13 22  1  0  0  0  0
 14 13  2  0  0  0  0
 15 14  1  0  0  0  0
 15 18  2  0  0  0  0
 16 20  1  0  0  0  0
 17 19  2  0  0  0  0
 18 17  1  0  0  0  0
 20 12  2  0  0  0  0
 21 11  2  0  0  0  0
 21 20  1  0  0  0  0
 22 23  1  0  0  0  0
 24 22  2  0  0  0  0
 25 29  2  0  0  0  0
 26 27  1  0  0  0  0
 26 25  1  0  0  0  0
 27 28  2  0  0  0  0
 28 30  1  0  0  0  0
 29 31  1  0  0  0  0
 30 31  2  0  0  0  0
 31  1  1  0  0  0  0
 32 27  1  0  0  0  0
 33 34  1  0  0  0  0
 33 32  1  0  0  0  0
 34 32  1  0  0  0  0
M  END
>  <MODEL>
6

>  <REMARK>
 VINA RESULT:      -8.9      1.678      2.441
  Name = 
  4 active torsions:
  status: ('A' for Active; 'I' for Inactive)
    1  A    between atoms: C_1  and  C_34
    2  A    between atoms: N_3  and  C_25
    3  A    between atoms: C_7  and  C_11
    4  A    between atoms: C_8  and  N_18
                            x       y       z     vdW  Elec       q    Type
                         _______ _______ _______ _____ _____    ______ ____

>  <TORSDO>
F 4

$$$$
=
 OpenBabel10262423323D

 34 39  0  0  0  0  0  0  0  0999 V2000
  182.9470  178.1290  140.7480 C   0  0  0  0  0  0  0  0  0  0  0  0
  179.7620  178.7690  141.2750 C   0  0  0  0  0  1  0  0  0  0  0  0
  185.0390  178.3920  142.0280 C   0  0  0  0  0  0  0  0  0  0  0  0
  184.3520  178.0380  140.8430 C   0  0  0  0  0  3  0  0  0  0  0  0
  182.9300  178.9350  143.0330 C   0  0  0  0  0  0  0  0  0  0  0  0
  182.0680  179.3780  143.9650 N   0  0  0  0  0  0  0  0  0  0  0  0
  184.3130  178.8450  143.1430 C   0  0  0  0  0  3  0  0  0  0  0  0
  180.9450  178.8840  142.1710 C   0  0  0  0  0  0  0  0  0  0  0  0
  182.2660  178.5980  141.8840 C   0  0  0  0  0  0  0  0  0  0  0  0
  180.8860  179.3330  143.4110 O   0  0  0  0  0  0  0  0  0  0  0  0
  187.4780  177.1910  145.5760 C   0  0  0  0  0  3  0  0  0  0  0  0
  188.6140  177.9330  143.1640 N   0  0  0  0  0  0  0  0  0  0  0  0
  191.0890  176.8770  146.3470 C   0  0  0  0  0  0  0  0  0  0  0  0
  189.6960  176.8550  146.5020 C   0  0  0  0  0  3  0  0  0  0  0  0
  188.8640  177.2090  145.4360 C   0  0  0  0  0  0  0  0  0  0  0  0
  186.4680  178.2970  142.1370 N   0  0  0  0  0  2  0  0  0  0  0  0
  190.8140  177.6110  144.0430 C   0  0  0  0  0  3  0  0  0  0  0  0
  189.4260  177.5890  144.1990 C   0  0  0  0  0  0  0  0  0  0  0  0
  191.6410  177.2570  145.1130 C   0  0  0  0  0  3  0  0  0  0  0  0
  187.2570  177.9250  143.2780 C   0  0  0  0  0  0  0  0  0  0  0  0
  186.6710  177.5490  144.4970 C   0  0  0  0  0  3  0  0  0  0  0  0
  191.9610  176.5030  147.4720 C   0  0  0  0  0  0  0  0  0  0  0  0
  192.0080  177.2180  148.5080 O   0  0  0  0  0  1  0  0  0  0  0  0
  192.7400  175.3540  147.4030 O   0  0  0  0  0  0  0  0  0  0  0  0
  181.7900  178.5520  137.2030 C   0  0  0  0  0  3  0  0  0  0  0  0
  181.9770  177.2190  136.5630 C   0  0  0  0  0  2  0  0  0  0  0  0
  180.9970  176.2210  137.0840 C   0  0  0  0  0  0  0  0  0  0  0  0
  180.9710  175.8590  138.3670 C   0  0  0  0  0  3  0  0  0  0  0  0
  181.9560  178.7580  138.5090 C   0  0  0  0  0  3  0  0  0  0  0  0
  181.7710  176.4630  139.4540 C   0  0  0  0  0  3  0  0  0  0  0  0
  182.2630  177.7110  139.5110 C   0  0  0  0  0  0  0  0  0  0  0  0
  180.1360  175.5610  136.1640 N   0  0  0  0  0  0  0  0  0  0  0  0
  179.6650  174.3520  135.4280 C   0  0  0  0  0  2  0  0  0  0  0  0
  179.0100  175.5400  135.1860 C   0  0  0  0  0  2  0  0  0  0  0  0
  1  4  2  0  0  0  0
  1  9  1  0  0  0  0
  2  8  1  0  0  0  0
  3 16  1  0  0  0  0
  3  7  2  0  0  0  0
  4  3  1  0  0  0  0
  5  7  1  0  0  0  0
  5  6  2  0  0  0  0
  8 10  1  0  0  0  0
  9  8  2  0  0  0  0
  9  5  1  0  0  0  0
 10  6  1  0  0  0  0
 12 20  2  0  0  0  0
 12 18  1  0  0  0  0
 13 14  1  0  0  0  0
 13 22  1  0  0  0  0
 15 11  1  0  0  0  0
 15 14  2  0  0  0  0
 16 20  1  0  0  0  0
 17 18  2  0  0  0  0
 17 19  1  0  0  0  0
 18 15  1  0  0  0  0
 19 13  2  0  0  0  0
 20 21  1  0  0  0  0
 21 11  2  0  0  0  0
 22 23  1  0  0  0  0
 24 22  2  0  0  0  0
 25 29  2  0  0  0  0
 26 27  1  0  0  0  0
 26 25  1  0  0  0  0
 27 28  2  0  0  0  0
 28 30  1  0  0  0  0
 29 31  1  0  0  0  0
 30 31  2  0  0  0  0
 31  1  1  0  0  0  0
 32 27  1  0  0  0  0
 33 32  1  0  0  0  0
 34 33  1  0  0  0  0
 34 32  1  0  0  0  0
M  END
>  <MODEL>
7

>  <REMARK>
 VINA RESULT:      -8.9      2.232      3.146
  Name = 
  4 active torsions:
  status: ('A' for Active; 'I' for Inactive)
    1  A    between atoms: C_1  and  C_34
    2  A    between atoms: N_3  and  C_25
    3  A    between atoms: C_7  and  C_11
    4  A    between atoms: C_8  and  N_18
                            x       y       z     vdW  Elec       q    Type
                         _______ _______ _______ _____ _____    ______ ____

>  <TORSDO>
F 4

$$$$
=
 OpenBabel10262423323D

 34 39  0  0  0  0  0  0  0  0999 V2000
  189.4840  176.8450  137.7610 C   0  0  0  0  0  0  0  0  0  0  0  0
  190.3770  176.7240  134.5960 C   0  0  0  0  0  1  0  0  0  0  0  0
  187.6140  177.8260  139.0360 C   0  0  0  0  0  0  0  0  0  0  0  0
  188.8460  177.1300  138.9870 C   0  0  0  0  0  3  0  0  0  0  0  0
  187.6480  177.9590  136.6410 C   0  0  0  0  0  0  0  0  0  0  0  0
  187.2510  178.3060  135.4050 N   0  0  0  0  0  0  0  0  0  0  0  0
  187.0040  178.2440  137.8400 C   0  0  0  0  0  3  0  0  0  0  0  0
  189.1570  177.2740  135.2490 C   0  0  0  0  0  0  0  0  0  0  0  0
  188.8430  177.2930  136.5950 C   0  0  0  0  0  0  0  0  0  0  0  0
  188.1830  177.8770  134.5950 O   0  0  0  0  0  0  0  0  0  0  0  0
  189.1700  177.3200  143.1960 C   0  0  0  0  0  3  0  0  0  0  0  0
  186.6230  178.2580  142.6570 N   0  0  0  0  0  0  0  0  0  0  0  0
  187.8480  177.8420  146.6180 C   0  0  0  0  0  0  0  0  0  0  0  0
  188.7210  177.5090  145.5730 C   0  0  0  0  0  3  0  0  0  0  0  0
  188.3120  177.6470  144.2440 C   0  0  0  0  0  0  0  0  0  0  0  0
  186.9520  178.1160  140.2770 N   0  0  0  0  0  2  0  0  0  0  0  0
  186.1470  178.4570  144.9910 C   0  0  0  0  0  3  0  0  0  0  0  0
  187.0180  178.1240  143.9510 C   0  0  0  0  0  0  0  0  0  0  0  0
  186.5610  178.3160  146.3190 C   0  0  0  0  0  3  0  0  0  0  0  0
  187.4410  177.9430  141.6160 C   0  0  0  0  0  0  0  0  0  0  0  0
  188.7360  177.4680  141.8780 C   0  0  0  0  0  3  0  0  0  0  0  0
  188.2840  177.6950  148.0160 C   0  0  0  0  0  0  0  0  0  0  0  0
  187.5560  177.0970  148.8520 O   0  0  0  0  0  1  0  0  0  0  0  0
  189.5070  178.2130  148.4280 O   0  0  0  0  0  0  0  0  0  0  0  0
  191.6430  173.8720  136.9960 C   0  0  0  0  0  3  0  0  0  0  0  0
  192.9480  174.4340  136.5440 C   0  0  0  0  0  2  0  0  0  0  0  0
  193.6910  175.0660  137.6740 C   0  0  0  0  0  0  0  0  0  0  0  0
  193.2070  176.1140  138.3410 C   0  0  0  0  0  3  0  0  0  0  0  0
  190.6650  174.6250  137.4950 C   0  0  0  0  0  3  0  0  0  0  0  0
  191.8600  176.7000  138.1730 C   0  0  0  0  0  3  0  0  0  0  0  0
  190.7460  176.0820  137.7480 C   0  0  0  0  0  0  0  0  0  0  0  0
  195.0010  174.6000  137.9770 N   0  0  0  0  0  0  0  0  0  0  0  0
  196.3860  174.2060  137.5900 C   0  0  0  0  0  2  0  0  0  0  0  0
  196.0510  174.1260  138.9250 C   0  0  0  0  0  2  0  0  0  0  0  0
  1  4  2  0  0  0  0
  2  8  1  0  0  0  0
  3 16  1  0  0  0  0
  4  3  1  0  0  0  0
  5  7  1  0  0  0  0
  6  5  2  0  0  0  0
  7  3  2  0  0  0  0
  8  9  2  0  0  0  0
  9  5  1  0  0  0  0
  9  1  1  0  0  0  0
 10  8  1  0  0  0  0
 10  6  1  0  0  0  0
 11 15  1  0  0  0  0
 12 18  1  0  0  0  0
 13 22  1  0  0  0  0
 14 13  2  0  0  0  0
 15 14  1  0  0  0  0
 16 20  1  0  0  0  0
 17 19  2  0  0  0  0
 18 15  2  0  0  0  0
 18 17  1  0  0  0  0
 19 13  1  0  0  0  0
 20 21  1  0  0  0  0
 20 12  2  0  0  0  0
 21 11  2  0  0  0  0
 22 24  2  0  0  0  0
 22 23  1  0  0  0  0
 25 29  2  0  0  0  0
 26 25  1  0  0  0  0
 26 27  1  0  0  0  0
 27 32  1  0  0  0  0
 27 28  2  0  0  0  0
 29 31  1  0  0  0  0
 30 28  1  0  0  0  0
 31  1  1  0  0  0  0
 31 30  2  0  0  0  0
 32 34  1  0  0  0  0
 33 32  1  0  0  0  0
 33 34  1  0  0  0  0
M  END
>  <MODEL>
8

>  <REMARK>
 VINA RESULT:      -8.7      5.033      7.392
  Name = 
  4 active torsions:
  status: ('A' for Active; 'I' for Inactive)
    1  A    between atoms: C_1  and  C_34
    2  A    between atoms: N_3  and  C_25
    3  A    between atoms: C_7  and  C_11
    4  A    between atoms: C_8  and  N_18
                            x       y       z     vdW  Elec       q    Type
                         _______ _______ _______ _____ _____    ______ ____

>  <TORSDO>
F 4

$$$$
=
 OpenBabel10262423323D

 34 39  0  0  0  0  0  0  0  0999 V2000
  184.6020  178.4730  141.9930 C   0  0  0  0  0  0  0  0  0  0  0  0
  181.6540  179.0920  143.3170 C   0  0  0  0  0  1  0  0  0  0  0  0
  186.9100  178.2570  142.8360 C   0  0  0  0  0  0  0  0  0  0  0  0
  185.9820  178.2890  141.7670 C   0  0  0  0  0  3  0  0  0  0  0  0
  185.0900  178.5930  144.3620 C   0  0  0  0  0  0  0  0  0  0  0  0
  184.4660  178.7940  145.5360 N   0  0  0  0  0  0  0  0  0  0  0  0
  186.4530  178.4080  144.1570 C   0  0  0  0  0  3  0  0  0  0  0  0
  182.9870  178.8890  143.9470 C   0  0  0  0  0  0  0  0  0  0  0  0
  184.1950  178.6320  143.3270 C   0  0  0  0  0  0  0  0  0  0  0  0
  183.2040  178.9680  145.2460 O   0  0  0  0  0  0  0  0  0  0  0  0
  189.0200  177.2750  139.0200 C   0  0  0  0  0  3  0  0  0  0  0  0
  190.3490  177.5680  141.4300 N   0  0  0  0  0  0  0  0  0  0  0  0
  192.5230  176.6220  138.0020 C   0  0  0  0  0  0  0  0  0  0  0  0
  191.1330  176.7890  137.9290 C   0  0  0  0  0  3  0  0  0  0  0  0
  190.4020  177.1060  139.0780 C   0  0  0  0  0  0  0  0  0  0  0  0
  188.3160  178.0640  142.6190 N   0  0  0  0  0  2  0  0  0  0  0  0
  192.4480  177.0940  140.3880 C   0  0  0  0  0  3  0  0  0  0  0  0
  191.0620  177.2590  140.3140 C   0  0  0  0  0  0  0  0  0  0  0  0
  193.1740  176.7770  139.2360 C   0  0  0  0  0  3  0  0  0  0  0  0
  188.9980  177.7350  141.3990 C   0  0  0  0  0  0  0  0  0  0  0  0
  188.3140  177.5910  140.1810 C   0  0  0  0  0  3  0  0  0  0  0  0
  193.2880  176.2900  136.7900 C   0  0  0  0  0  0  0  0  0  0  0  0
  194.4180  176.8090  136.5850 O   0  0  0  0  0  1  0  0  0  0  0  0
  192.7720  175.3960  135.8580 O   0  0  0  0  0  0  0  0  0  0  0  0
  181.7770  177.0940  139.9420 C   0  0  0  0  0  3  0  0  0  0  0  0
  180.9860  178.2810  139.5060 C   0  0  0  0  0  2  0  0  0  0  0  0
  181.7280  179.0890  138.4950 C   0  0  0  0  0  0  0  0  0  0  0  0
  182.8920  179.6770  138.7750 C   0  0  0  0  0  3  0  0  0  0  0  0
  182.9470  177.1950  140.5720 C   0  0  0  0  0  3  0  0  0  0  0  0
  183.6670  179.5140  140.0230 C   0  0  0  0  0  3  0  0  0  0  0  0
  183.6620  178.4600  140.8570 C   0  0  0  0  0  0  0  0  0  0  0  0
  181.1230  179.3240  137.2290 N   0  0  0  0  0  0  0  0  0  0  0  0
  180.9120  179.0120  135.7860 C   0  0  0  0  0  2  0  0  0  0  0  0
  180.2120  180.0740  136.3160 C   0  0  0  0  0  2  0  0  0  0  0  0
  1  9  1  0  0  0  0
  2  8  1  0  0  0  0
  3  7  2  0  0  0  0
  4  1  2  0  0  0  0
  4  3  1  0  0  0  0
  5  6  2  0  0  0  0
  7  5  1  0  0  0  0
  8 10  1  0  0  0  0
  9  8  2  0  0  0  0
  9  5  1  0  0  0  0
 10  6  1  0  0  0  0
 11 15  1  0  0  0  0
 11 21  2  0  0  0  0
 13 19  1  0  0  0  0
 14 13  2  0  0  0  0
 14 15  1  0  0  0  0
 15 18  2  0  0  0  0
 16  3  1  0  0  0  0
 18 17  1  0  0  0  0
 18 12  1  0  0  0  0
 19 17  2  0  0  0  0
 20 12  2  0  0  0  0
 20 16  1  0  0  0  0
 21 20  1  0  0  0  0
 22 13  1  0  0  0  0
 23 22  1  0  0  0  0
 24 22  2  0  0  0  0
 25 29  2  0  0  0  0
 26 25  1  0  0  0  0
 27 28  2  0  0  0  0
 27 26  1  0  0  0  0
 28 30  1  0  0  0  0
 29 31  1  0  0  0  0
 30 31  2  0  0  0  0
 31  1  1  0  0  0  0
 32 27  1  0  0  0  0
 33 34  1  0  0  0  0
 33 32  1  0  0  0  0
 34 32  1  0  0  0  0
M  END
>  <MODEL>
9

>  <REMARK>
 VINA RESULT:      -8.5      4.436      5.985
  Name = 
  4 active torsions:
  status: ('A' for Active; 'I' for Inactive)
    1  A    between atoms: C_1  and  C_34
    2  A    between atoms: N_3  and  C_25
    3  A    between atoms: C_7  and  C_11
    4  A    between atoms: C_8  and  N_18
                            x       y       z     vdW  Elec       q    Type
                         _______ _______ _______ _____ _____    ______ ____

>  <TORSDO>
F 4

$$$$
