=
 OpenBabel10262420063D

 27 31  0  0  1  0  0  0  0  0999 V2000
  186.1970  179.1400  141.1920 C   0  0  0  0  0  2  0  0  0  0  0  0
  185.6330  178.6160  143.5560 C   0  0  0  0  0  0  0  0  0  0  0  0
  187.4280  176.9650  142.9240 C   0  0  0  0  0  2  0  0  0  0  0  0
  186.7860  178.5980  147.5340 N   0  0  0  0  0  2  0  0  0  0  0  0
  188.1600  177.8940  149.1940 O   0  0  0  0  0  0  0  0  0  0  0  0
  184.9610  179.3410  144.4930 N   0  0  0  0  0  0  0  0  0  0  0  0
  188.2240  177.0680  145.7340 C   0  0  0  0  0  3  0  0  0  0  0  0
  190.0640  177.7240  140.4620 C   0  0  2  0  0  3  0  0  0  0  0  0
  188.5830  177.0880  147.0830 C   0  0  0  0  0  3  0  0  0  0  0  0
  191.1240  176.8240  139.8620 C   0  0  0  0  0  1  0  0  0  0  0  0
  187.1340  177.8250  145.2860 C   0  0  0  0  0  0  0  0  0  0  0  0
  185.2230  178.6810  142.1810 N   0  0  0  0  0  0  0  0  0  0  0  0
  187.8460  177.8670  147.9770 C   0  0  0  0  0  0  0  0  0  0  0  0
  186.4170  178.5940  146.2250 C   0  0  0  0  0  0  0  0  0  0  0  0
  187.1780  178.0330  140.8200 C   0  0  1  0  0  3  0  0  0  0  0  0
  186.7380  177.8310  143.9370 C   0  0  0  0  0  0  0  0  0  0  0  0
  189.2200  176.9430  141.4580 C   0  0  0  0  0  2  0  0  0  0  0  0
  185.3230  179.3470  145.8020 C   0  0  0  0  0  3  0  0  0  0  0  0
  189.1990  178.2880  139.3740 C   0  0  0  0  0  3  0  0  0  0  0  0
  187.8840  178.4640  139.5540 C   0  0  0  0  0  3  0  0  0  0  0  0
  188.1190  177.7800  141.9320 N   0  0  2  0  0  0  0  0  0  0  0  0
  181.2540  177.8500  141.0120 N   0  0  0  0  0  0  0  0  0  0  0  0
  183.8660  178.3880  141.7850 C   0  0  0  0  0  0  0  0  0  0  0  0
  183.6000  177.6690  140.6090 C   0  0  0  0  0  3  0  0  0  0  0  0
  182.2800  177.4070  140.2390 C   0  0  0  0  0  3  0  0  0  0  0  0
  181.4780  178.5530  142.1540 C   0  0  0  0  0  3  0  0  0  0  0  0
  182.7840  178.8340  142.5590 C   0  0  0  0  0  3  0  0  0  0  0  0
  1 12  1  0  0  0  0
  2 16  2  0  0  0  0
  2  6  1  0  0  0  0
  3 16  1  0  0  0  0
  4 13  1  0  0  0  0
  6 18  2  0  0  0  0
  7  9  2  0  0  0  0
  8 10  1  6  0  0  0
  8 17  1  0  0  0  0
  9 13  1  0  0  0  0
 11  7  1  0  0  0  0
 11 14  2  0  0  0  0
 12  2  1  0  0  0  0
 13  5  2  0  0  0  0
 14  4  1  0  0  0  0
 15 20  1  6  0  0  0
 15  1  1  0  0  0  0
 15 21  1  0  0  0  0
 16 11  1  0  0  0  0
 18 14  1  0  0  0  0
 19 20  2  0  0  0  0
 19  8  1  0  0  0  0
 21 17  1  6  0  0  0
 21  3  1  0  0  0  0
 22 26  1  0  0  0  0
 23 12  1  0  0  0  0
 23 27  1  0  0  0  0
 24 23  2  0  0  0  0
 25 24  1  0  0  0  0
 25 22  2  0  0  0  0
 26 27  2  0  0  0  0
M  END
>  <MODEL>
1

>  <REMARK>
 VINA RESULT:      -8.9      0.000      0.000
  Name = 
  1 active torsions:
  status: ('A' for Active; 'I' for Inactive)
    1  A    between atoms: C_9  and  N_15
                            x       y       z     vdW  Elec       q    Type
                         _______ _______ _______ _____ _____    ______ ____

>  <TORSDO>
F 1

$$$$
=
 OpenBabel10262420063D

 27 31  0  0  1  0  0  0  0  0999 V2000
  190.0480  178.1730  142.0050 C   0  0  0  0  0  2  0  0  0  0  0  0
  187.6140  178.1510  141.4970 C   0  0  0  0  0  0  0  0  0  0  0  0
  187.8540  176.8370  143.6330 C   0  0  0  0  0  2  0  0  0  0  0  0
  183.7930  179.3970  142.4970 N   0  0  0  0  0  2  0  0  0  0  0  0
  182.0450  179.4610  143.9390 O   0  0  0  0  0  0  0  0  0  0  0  0
  186.8750  178.9220  140.6510 N   0  0  0  0  0  0  0  0  0  0  0  0
  185.1830  177.8220  144.2960 C   0  0  0  0  0  3  0  0  0  0  0  0
  190.4950  177.5170  146.1130 C   0  0  2  0  0  3  0  0  0  0  0  0
  183.8930  178.2620  144.5980 C   0  0  0  0  0  3  0  0  0  0  0  0
  190.8740  176.7530  147.3640 C   0  0  0  0  0  1  0  0  0  0  0  0
  185.7790  178.1790  143.0800 C   0  0  0  0  0  0  0  0  0  0  0  0
  188.9490  177.7740  141.1270 N   0  0  0  0  0  0  0  0  0  0  0  0
  183.2070  179.0580  143.6780 C   0  0  0  0  0  0  0  0  0  0  0  0
  185.0480  178.9810  142.1810 C   0  0  0  0  0  0  0  0  0  0  0  0
  190.1520  177.2550  143.2200 C   0  0  1  0  0  3  0  0  0  0  0  0
  187.0760  177.7540  142.7360 C   0  0  0  0  0  0  0  0  0  0  0  0
  189.3110  176.8450  145.4320 C   0  0  0  0  0  2  0  0  0  0  0  0
  185.6190  179.3390  140.9610 C   0  0  0  0  0  3  0  0  0  0  0  0
  191.6670  177.5800  145.1790 C   0  0  0  0  0  3  0  0  0  0  0  0
  191.5040  177.4980  143.8520 C   0  0  0  0  0  3  0  0  0  0  0  0
  189.0370  177.5070  144.1570 N   0  0  2  0  0  0  0  0  0  0  0  0
  189.7550  175.8150  137.4760 N   0  0  0  0  0  0  0  0  0  0  0  0
  189.2230  177.0960  139.8820 C   0  0  0  0  0  0  0  0  0  0  0  0
  190.4760  176.5090  139.6440 C   0  0  0  0  0  3  0  0  0  0  0  0
  190.7230  175.8680  138.4290 C   0  0  0  0  0  3  0  0  0  0  0  0
  188.5330  176.3780  137.6740 C   0  0  0  0  0  3  0  0  0  0  0  0
  188.2470  177.0260  138.8770 C   0  0  0  0  0  3  0  0  0  0  0  0
  2 16  1  0  0  0  0
  4 13  1  0  0  0  0
  6 18  1  0  0  0  0
  6  2  2  0  0  0  0
  7  9  2  0  0  0  0
  8 10  1  1  0  0  0
 11  7  1  0  0  0  0
 12  2  1  0  0  0  0
 12  1  1  0  0  0  0
 13  5  2  0  0  0  0
 13  9  1  0  0  0  0
 14  4  1  0  0  0  0
 14 11  1  0  0  0  0
 15  1  1  6  0  0  0
 15 20  1  0  0  0  0
 15 21  1  0  0  0  0
 16 11  2  0  0  0  0
 16  3  1  0  0  0  0
 17  8  1  0  0  0  0
 18 14  2  0  0  0  0
 19  8  1  0  0  0  0
 20 19  2  0  0  0  0
 21  3  1  6  0  0  0
 21 17  1  0  0  0  0
 22 26  2  0  0  0  0
 22 25  1  0  0  0  0
 23 12  1  0  0  0  0
 24 23  1  0  0  0  0
 25 24  2  0  0  0  0
 26 27  1  0  0  0  0
 27 23  2  0  0  0  0
M  END
>  <MODEL>
2

>  <REMARK>
 VINA RESULT:      -8.3      2.559      5.658
  Name = 
  1 active torsions:
  status: ('A' for Active; 'I' for Inactive)
    1  A    between atoms: C_9  and  N_15
                            x       y       z     vdW  Elec       q    Type
                         _______ _______ _______ _____ _____    ______ ____

>  <TORSDO>
F 1

$$$$
=
 OpenBabel10262420063D

 27 31  0  0  1  0  0  0  0  0999 V2000
  189.2010  178.3520  145.2990 C   0  0  0  0  0  2  0  0  0  0  0  0
  190.3110  177.4580  143.2610 C   0  0  0  0  0  0  0  0  0  0  0  0
  187.8820  176.8320  143.0190 C   0  0  0  0  0  2  0  0  0  0  0  0
  190.8400  177.6610  139.1590 N   0  0  0  0  0  2  0  0  0  0  0  0
  190.0250  177.5230  137.0480 O   0  0  0  0  0  0  0  0  0  0  0  0
  191.5280  177.7360  142.7160 N   0  0  0  0  0  0  0  0  0  0  0  0
  188.3220  177.0710  140.1390 C   0  0  0  0  0  3  0  0  0  0  0  0
  185.1450  178.8670  144.4160 C   0  0  2  0  0  3  0  0  0  0  0  0
  188.5390  177.1490  138.7630 C   0  0  0  0  0  3  0  0  0  0  0  0
  183.6600  178.5810  144.4900 C   0  0  0  0  0  1  0  0  0  0  0  0
  189.3790  177.2940  141.0300 C   0  0  0  0  0  0  0  0  0  0  0  0
  190.1630  177.4350  144.6900 N   0  0  0  0  0  0  0  0  0  0  0  0
  189.8170  177.4490  138.2860 C   0  0  0  0  0  0  0  0  0  0  0  0
  190.6530  177.5910  140.5040 C   0  0  0  0  0  0  0  0  0  0  0  0
  187.7740  177.8300  145.1680 C   0  0  1  0  0  3  0  0  0  0  0  0
  189.2040  177.2220  142.4240 C   0  0  0  0  0  0  0  0  0  0  0  0
  185.8620  177.7200  143.7190 C   0  0  0  0  0  2  0  0  0  0  0  0
  191.7210  177.8060  141.3730 C   0  0  0  0  0  3  0  0  0  0  0  0
  185.6950  179.0650  145.7970 C   0  0  0  0  0  3  0  0  0  0  0  0
  186.9150  178.6230  146.1280 C   0  0  0  0  0  3  0  0  0  0  0  0
  187.3070  177.9400  143.7700 N   0  0  2  0  0  0  0  0  0  0  0  0
  192.6220  175.0040  147.1090 N   0  0  0  0  0  0  0  0  0  0  0  0
  190.9970  176.5990  145.5200 C   0  0  0  0  0  0  0  0  0  0  0  0
  191.1260  176.8520  146.8940 C   0  0  0  0  0  3  0  0  0  0  0  0
  191.9460  176.0370  147.6770 C   0  0  0  0  0  3  0  0  0  0  0  0
  192.5220  174.7350  145.7800 C   0  0  0  0  0  3  0  0  0  0  0  0
  191.7100  175.5260  144.9640 C   0  0  0  0  0  3  0  0  0  0  0  0
  2 12  1  0  0  0  0
  4 14  1  0  0  0  0
  5 13  2  0  0  0  0
  6  2  1  0  0  0  0
  7 11  1  0  0  0  0
  8 10  1  1  0  0  0
  8 19  1  0  0  0  0
  9  7  2  0  0  0  0
 11 16  1  0  0  0  0
 12  1  1  0  0  0  0
 12 23  1  0  0  0  0
 13  9  1  0  0  0  0
 13  4  1  0  0  0  0
 14 11  2  0  0  0  0
 14 18  1  0  0  0  0
 15  1  1  6  0  0  0
 15 20  1  0  0  0  0
 16  3  1  0  0  0  0
 16  2  2  0  0  0  0
 17 21  1  0  0  0  0
 17  8  1  0  0  0  0
 18  6  2  0  0  0  0
 19 20  2  0  0  0  0
 21  3  1  6  0  0  0
 21 15  1  0  0  0  0
 22 25  1  0  0  0  0
 23 24  1  0  0  0  0
 24 25  2  0  0  0  0
 26 22  2  0  0  0  0
 27 23  2  0  0  0  0
 27 26  1  0  0  0  0
M  END
>  <MODEL>
3

>  <REMARK>
 VINA RESULT:      -8.3      3.517      7.961
  Name = 
  1 active torsions:
  status: ('A' for Active; 'I' for Inactive)
    1  A    between atoms: C_9  and  N_15
                            x       y       z     vdW  Elec       q    Type
                         _______ _______ _______ _____ _____    ______ ____

>  <TORSDO>
F 1

$$$$
=
 OpenBabel10262420063D

 27 31  0  0  1  0  0  0  0  0999 V2000
  188.2350  178.8750  141.5560 C   0  0  0  0  0  2  0  0  0  0  0  0
  188.5910  177.8450  143.7910 C   0  0  0  0  0  0  0  0  0  0  0  0
  189.5320  176.1880  142.1430 C   0  0  0  0  0  2  0  0  0  0  0  0
  191.2410  176.6630  146.7460 N   0  0  0  0  0  2  0  0  0  0  0  0
  192.9730  175.3840  147.4560 O   0  0  0  0  0  0  0  0  0  0  0  0
  188.5520  178.3910  145.0390 N   0  0  0  0  0  0  0  0  0  0  0  0
  191.4150  175.4660  144.2590 C   0  0  0  0  0  3  0  0  0  0  0  0
  191.0170  177.1940  138.9230 C   0  0  2  0  0  3  0  0  0  0  0  0
  192.2910  175.0940  145.2790 C   0  0  0  0  0  3  0  0  0  0  0  0
  191.4960  176.3440  137.7650 C   0  0  0  0  0  1  0  0  0  0  0  0
  190.4440  176.4490  144.4900 C   0  0  0  0  0  0  0  0  0  0  0  0
  187.6780  178.3120  142.7850 N   0  0  0  0  0  0  0  0  0  0  0  0
  192.1890  175.7100  146.5290 C   0  0  0  0  0  0  0  0  0  0  0  0
  190.3760  177.0410  145.7670 C   0  0  0  0  0  0  0  0  0  0  0  0
  188.6920  177.7800  140.5980 C   0  0  1  0  0  3  0  0  0  0  0  0
  189.5400  176.8500  143.4900 C   0  0  0  0  0  0  0  0  0  0  0  0
  190.5030  176.3030  140.0450 C   0  0  0  0  0  2  0  0  0  0  0  0
  189.4120  178.0150  146.0210 C   0  0  0  0  0  3  0  0  0  0  0  0
  189.9370  178.1250  138.4600 C   0  0  0  0  0  3  0  0  0  0  0  0
  188.8920  178.4220  139.2430 C   0  0  0  0  0  3  0  0  0  0  0  0
  189.9200  177.1300  141.1010 N   0  0  2  0  0  0  0  0  0  0  0  0
  183.5070  178.3380  143.4260 N   0  0  0  0  0  0  0  0  0  0  0  0
  186.2520  178.3120  143.0040 C   0  0  0  0  0  0  0  0  0  0  0  0
  185.3590  178.2560  141.9220 C   0  0  0  0  0  3  0  0  0  0  0  0
  183.9830  178.2680  142.1550 C   0  0  0  0  0  3  0  0  0  0  0  0
  184.3450  178.3990  144.4960 C   0  0  0  0  0  3  0  0  0  0  0  0
  185.7280  178.3870  144.3030 C   0  0  0  0  0  3  0  0  0  0  0  0
  1 12  1  0  0  0  0
  2  6  1  0  0  0  0
  3 16  1  0  0  0  0
  6 18  2  0  0  0  0
  7 11  1  0  0  0  0
  7  9  2  0  0  0  0
  8 10  1  6  0  0  0
  8 17  1  0  0  0  0
  9 13  1  0  0  0  0
 11 14  2  0  0  0  0
 12 23  1  0  0  0  0
 12  2  1  0  0  0  0
 13  4  1  0  0  0  0
 13  5  2  0  0  0  0
 14 18  1  0  0  0  0
 14  4  1  0  0  0  0
 15 20  1  6  0  0  0
 15 21  1  0  0  0  0
 15  1  1  0  0  0  0
 16  2  2  0  0  0  0
 16 11  1  0  0  0  0
 19  8  1  0  0  0  0
 19 20  2  0  0  0  0
 21 17  1  6  0  0  0
 21  3  1  0  0  0  0
 22 26  1  0  0  0  0
 23 27  1  0  0  0  0
 24 25  1  0  0  0  0
 24 23  2  0  0  0  0
 25 22  2  0  0  0  0
 27 26  2  0  0  0  0
M  END
>  <MODEL>
4

>  <REMARK>
 VINA RESULT:      -7.8      2.487      3.309
  Name = 
  1 active torsions:
  status: ('A' for Active; 'I' for Inactive)
    1  A    between atoms: C_9  and  N_15
                            x       y       z     vdW  Elec       q    Type
                         _______ _______ _______ _____ _____    ______ ____

>  <TORSDO>
F 1

$$$$
=
 OpenBabel10262420063D

 27 31  0  0  1  0  0  0  0  0999 V2000
  188.5630  178.2440  139.4060 C   0  0  0  0  0  2  0  0  0  0  0  0
  190.7390  177.0530  139.5700 C   0  0  0  0  0  0  0  0  0  0  0  0
  189.3890  175.7350  137.9000 C   0  0  0  0  0  2  0  0  0  0  0  0
  194.3140  175.9800  137.7760 N   0  0  0  0  0  2  0  0  0  0  0  0
  195.4680  174.9080  136.1460 O   0  0  0  0  0  0  0  0  0  0  0  0
  191.9370  177.4540  140.0810 N   0  0  0  0  0  0  0  0  0  0  0  0
  191.9510  175.0870  136.6510 C   0  0  0  0  0  3  0  0  0  0  0  0
  186.8610  177.2810  135.7090 C   0  0  2  0  0  3  0  0  0  0  0  0
  193.1750  174.7470  136.0750 C   0  0  0  0  0  3  0  0  0  0  0  0
  185.8710  176.6380  134.7610 C   0  0  0  0  0  1  0  0  0  0  0  0
  191.9140  175.8840  137.8020 C   0  0  0  0  0  0  0  0  0  0  0  0
  189.5220  177.4800  140.2020 N   0  0  0  0  0  0  0  0  0  0  0  0
  194.3580  175.2080  136.6560 C   0  0  0  0  0  0  0  0  0  0  0  0
  193.1340  176.3240  138.3560 C   0  0  0  0  0  0  0  0  0  0  0  0
  187.7420  177.3350  138.4970 C   0  0  1  0  0  3  0  0  0  0  0  0
  190.7020  176.2480  138.4160 C   0  0  0  0  0  0  0  0  0  0  0  0
  187.7140  176.2120  136.3750 C   0  0  0  0  0  2  0  0  0  0  0  0
  193.1200  177.1100  139.5070 C   0  0  0  0  0  3  0  0  0  0  0  0
  186.1280  178.0830  136.7430 C   0  0  0  0  0  3  0  0  0  0  0  0
  186.5560  178.1370  138.0110 C   0  0  0  0  0  3  0  0  0  0  0  0
  188.5740  176.8270  137.3850 N   0  0  2  0  0  0  0  0  0  0  0  0
  188.7920  176.7670  144.2970 N   0  0  0  0  0  0  0  0  0  0  0  0
  189.2780  177.2430  141.6050 C   0  0  0  0  0  0  0  0  0  0  0  0
  190.1770  176.4860  142.3730 C   0  0  0  0  0  3  0  0  0  0  0  0
  189.9160  176.2600  143.7250 C   0  0  0  0  0  3  0  0  0  0  0  0
  187.8990  177.5000  143.5800 C   0  0  0  0  0  3  0  0  0  0  0  0
  188.1260  177.7490  142.2250 C   0  0  0  0  0  3  0  0  0  0  0  0
  1 12  1  0  0  0  0
  2  6  1  0  0  0  0
  2 12  1  0  0  0  0
  3 16  1  0  0  0  0
  4 14  1  0  0  0  0
  5 13  2  0  0  0  0
  7 11  1  0  0  0  0
  8 10  1  6  0  0  0
  8 17  1  0  0  0  0
  8 19  1  0  0  0  0
  9  7  2  0  0  0  0
  9 13  1  0  0  0  0
 11 14  2  0  0  0  0
 11 16  1  0  0  0  0
 12 23  1  0  0  0  0
 13  4  1  0  0  0  0
 14 18  1  0  0  0  0
 15 20  1  6  0  0  0
 15  1  1  0  0  0  0
 16  2  2  0  0  0  0
 18  6  2  0  0  0  0
 19 20  2  0  0  0  0
 21 17  1  6  0  0  0
 21  3  1  0  0  0  0
 21 15  1  0  0  0  0
 23 27  2  0  0  0  0
 23 24  1  0  0  0  0
 24 25  2  0  0  0  0
 25 22  1  0  0  0  0
 26 22  2  0  0  0  0
 27 26  1  0  0  0  0
M  END
>  <MODEL>
5

>  <REMARK>
 VINA RESULT:      -7.4      4.650      8.172
  Name = 
  1 active torsions:
  status: ('A' for Active; 'I' for Inactive)
    1  A    between atoms: C_9  and  N_15
                            x       y       z     vdW  Elec       q    Type
                         _______ _______ _______ _____ _____    ______ ____

>  <TORSDO>
F 1

$$$$
=
 OpenBabel10262420063D

 27 31  0  0  1  0  0  0  0  0999 V2000
  189.6070  178.3680  140.5810 C   0  0  0  0  0  2  0  0  0  0  0  0
  187.1280  178.1880  140.4860 C   0  0  0  0  0  0  0  0  0  0  0  0
  187.7890  177.0610  142.6400 C   0  0  0  0  0  2  0  0  0  0  0  0
  183.4500  179.3230  142.0140 N   0  0  0  0  0  2  0  0  0  0  0  0
  181.9570  179.4160  143.7170 O   0  0  0  0  0  0  0  0  0  0  0  0
  186.2170  178.8520  139.7210 N   0  0  0  0  0  0  0  0  0  0  0  0
  185.2050  177.9650  143.6640 C   0  0  0  0  0  3  0  0  0  0  0  0
  190.7490  178.0620  144.5940 C   0  0  2  0  0  3  0  0  0  0  0  0
  183.9570  178.3650  144.1440 C   0  0  0  0  0  3  0  0  0  0  0  0
  191.3710  177.4200  145.8160 C   0  0  0  0  0  1  0  0  0  0  0  0
  185.5750  178.2520  142.3450 C   0  0  0  0  0  0  0  0  0  0  0  0
  188.4070  177.8480  139.9270 N   0  0  0  0  0  0  0  0  0  0  0  0
  183.0840  179.0500  143.2960 C   0  0  0  0  0  0  0  0  0  0  0  0
  184.6610  178.9440  141.5240 C   0  0  0  0  0  0  0  0  0  0  0  0
  189.9610  177.5560  141.8240 C   0  0  1  0  0  3  0  0  0  0  0  0
  186.8220  177.8650  141.8210 C   0  0  0  0  0  0  0  0  0  0  0  0
  189.5150  177.2820  144.1670 C   0  0  0  0  0  2  0  0  0  0  0  0
  185.0050  179.2310  140.2050 C   0  0  0  0  0  3  0  0  0  0  0  0
  191.7500  178.1080  143.4770 C   0  0  0  0  0  3  0  0  0  0  0  0
  191.3800  177.9130  142.2050 C   0  0  0  0  0  3  0  0  0  0  0  0
  188.9980  177.8270  142.9120 N   0  0  2  0  0  0  0  0  0  0  0  0
  188.7290  175.6000  136.3690 N   0  0  0  0  0  0  0  0  0  0  0  0
  188.5170  177.0870  138.7050 C   0  0  0  0  0  0  0  0  0  0  0  0
  187.3770  176.7770  137.9470 C   0  0  0  0  0  3  0  0  0  0  0  0
  187.5050  176.0300  136.7740 C   0  0  0  0  0  3  0  0  0  0  0  0
  189.8520  175.8800  137.0840 C   0  0  0  0  0  3  0  0  0  0  0  0
  189.7650  176.6250  138.2610 C   0  0  0  0  0  3  0  0  0  0  0  0
  2 16  1  0  0  0  0
  4 13  1  0  0  0  0
  6 18  1  0  0  0  0
  6  2  2  0  0  0  0
  7  9  2  0  0  0  0
  8 10  1  1  0  0  0
 11  7  1  0  0  0  0
 12  2  1  0  0  0  0
 12  1  1  0  0  0  0
 13  5  2  0  0  0  0
 13  9  1  0  0  0  0
 14  4  1  0  0  0  0
 14 11  1  0  0  0  0
 15  1  1  6  0  0  0
 15 20  1  0  0  0  0
 15 21  1  0  0  0  0
 16 11  2  0  0  0  0
 16  3  1  0  0  0  0
 17  8  1  0  0  0  0
 18 14  2  0  0  0  0
 19  8  1  0  0  0  0
 20 19  2  0  0  0  0
 21  3  1  6  0  0  0
 21 17  1  0  0  0  0
 22 25  2  0  0  0  0
 22 26  1  0  0  0  0
 23 12  1  0  0  0  0
 24 23  2  0  0  0  0
 25 24  1  0  0  0  0
 26 27  2  0  0  0  0
 27 23  1  0  0  0  0
M  END
>  <MODEL>
6

>  <REMARK>
 VINA RESULT:      -7.3      2.798      5.480
  Name = 
  1 active torsions:
  status: ('A' for Active; 'I' for Inactive)
    1  A    between atoms: C_9  and  N_15
                            x       y       z     vdW  Elec       q    Type
                         _______ _______ _______ _____ _____    ______ ____

>  <TORSDO>
F 1

$$$$
=
 OpenBabel10262420063D

 27 31  0  0  1  0  0  0  0  0999 V2000
  184.5140  177.5120  141.2650 C   0  0  0  0  0  2  0  0  0  0  0  0
  186.4320  177.7890  142.8220 C   0  0  0  0  0  0  0  0  0  0  0  0
  184.7070  179.4530  143.5980 C   0  0  0  0  0  2  0  0  0  0  0  0
  187.9630  177.3420  146.6440 N   0  0  0  0  0  2  0  0  0  0  0  0
  187.9310  177.8260  148.8590 O   0  0  0  0  0  0  0  0  0  0  0  0
  187.5030  176.9820  143.0680 N   0  0  0  0  0  0  0  0  0  0  0  0
  185.7980  179.0230  146.2750 C   0  0  0  0  0  3  0  0  0  0  0  0
  181.0830  178.9010  143.2150 C   0  0  2  0  0  3  0  0  0  0  0  0
  186.3410  178.8460  147.5490 C   0  0  0  0  0  3  0  0  0  0  0  0
  179.9230  179.8350  143.4880 C   0  0  0  0  0  1  0  0  0  0  0  0
  186.3470  178.3480  145.1780 C   0  0  0  0  0  0  0  0  0  0  0  0
  185.9100  177.8850  141.4870 N   0  0  0  0  0  0  0  0  0  0  0  0
  187.4340  177.9930  147.7160 C   0  0  0  0  0  0  0  0  0  0  0  0
  187.4520  177.4980  145.3940 C   0  0  0  0  0  0  0  0  0  0  0  0
  183.5640  178.6280  141.6900 C   0  0  1  0  0  3  0  0  0  0  0  0
  185.8320  178.4990  143.8780 C   0  0  0  0  0  0  0  0  0  0  0  0
  182.3970  179.5900  143.5550 C   0  0  0  0  0  2  0  0  0  0  0  0
  188.0190  176.8240  144.3150 C   0  0  0  0  0  3  0  0  0  0  0  0
  181.0720  178.4820  141.7750 C   0  0  0  0  0  3  0  0  0  0  0  0
  182.2110  178.3200  141.0890 C   0  0  0  0  0  3  0  0  0  0  0  0
  183.5170  178.7340  143.1630 N   0  0  2  0  0  0  0  0  0  0  0  0
  188.3780  178.9360  138.2300 N   0  0  0  0  0  0  0  0  0  0  0  0
  186.7510  178.2530  140.3740 C   0  0  0  0  0  0  0  0  0  0  0  0
  186.2410  178.2800  139.0660 C   0  0  0  0  0  3  0  0  0  0  0  0
  187.0740  178.6280  138.0020 C   0  0  0  0  0  3  0  0  0  0  0  0
  188.9040  178.9150  139.4840 C   0  0  0  0  0  3  0  0  0  0  0  0
  188.1020  178.5730  140.5740 C   0  0  0  0  0  3  0  0  0  0  0  0
  1 12  1  0  0  0  0
  1 15  1  0  0  0  0
  2  6  2  0  0  0  0
  2 16  1  0  0  0  0
  3 16  1  0  0  0  0
  4 13  1  0  0  0  0
  6 18  1  0  0  0  0
  7  9  2  0  0  0  0
  8 10  1  6  0  0  0
  8 17  1  0  0  0  0
  9 13  1  0  0  0  0
 11 14  1  0  0  0  0
 11  7  1  0  0  0  0
 12  2  1  0  0  0  0
 13  5  2  0  0  0  0
 14  4  1  0  0  0  0
 15 20  1  1  0  0  0
 15 21  1  0  0  0  0
 16 11  2  0  0  0  0
 18 14  2  0  0  0  0
 19  8  1  0  0  0  0
 20 19  2  0  0  0  0
 21 17  1  6  0  0  0
 21  3  1  0  0  0  0
 22 26  1  0  0  0  0
 23 27  1  0  0  0  0
 23 12  1  0  0  0  0
 24 23  2  0  0  0  0
 25 22  2  0  0  0  0
 25 24  1  0  0  0  0
 26 27  2  0  0  0  0
M  END
>  <MODEL>
7

>  <REMARK>
 VINA RESULT:      -7.3      1.454      5.178
  Name = 
  1 active torsions:
  status: ('A' for Active; 'I' for Inactive)
    1  A    between atoms: C_9  and  N_15
                            x       y       z     vdW  Elec       q    Type
                         _______ _______ _______ _____ _____    ______ ____

>  <TORSDO>
F 1

$$$$
=
 OpenBabel10262420063D

 27 31  0  0  1  0  0  0  0  0999 V2000
  182.0180  178.5540  140.8910 C   0  0  0  0  0  2  0  0  0  0  0  0
  183.3820  178.4950  138.8130 C   0  0  0  0  0  0  0  0  0  0  0  0
  184.9300  179.3780  140.5940 C   0  0  0  0  0  2  0  0  0  0  0  0
  186.5120  176.8000  136.6970 N   0  0  0  0  0  2  0  0  0  0  0  0
  188.7170  176.3250  136.4630 O   0  0  0  0  0  0  0  0  0  0  0  0
  183.1730  177.8550  137.6280 N   0  0  0  0  0  0  0  0  0  0  0  0
  187.0720  178.0870  139.0790 C   0  0  0  0  0  3  0  0  0  0  0  0
  184.6480  178.4200  144.1410 C   0  0  2  0  0  3  0  0  0  0  0  0
  188.1000  177.5030  138.3390 C   0  0  0  0  0  3  0  0  0  0  0  0
  185.3860  178.9470  145.3530 C   0  0  0  0  0  1  0  0  0  0  0  0
  185.7510  178.0220  138.6190 C   0  0  0  0  0  0  0  0  0  0  0  0
  182.2630  179.0360  139.5320 N   0  0  0  0  0  0  0  0  0  0  0  0
  187.7990  176.8560  137.1380 C   0  0  0  0  0  0  0  0  0  0  0  0
  185.4940  177.3610  137.4010 C   0  0  0  0  0  0  0  0  0  0  0  0
  182.9540  179.2190  141.8950 C   0  0  1  0  0  3  0  0  0  0  0  0
  184.6860  178.6000  139.3330 C   0  0  0  0  0  0  0  0  0  0  0  0
  185.1400  179.1230  142.8850 C   0  0  0  0  0  2  0  0  0  0  0  0
  184.1880  177.2930  136.9200 C   0  0  0  0  0  3  0  0  0  0  0  0
  183.1720  178.6280  144.3130 C   0  0  0  0  0  3  0  0  0  0  0  0
  182.3920  178.9570  143.2750 C   0  0  0  0  0  3  0  0  0  0  0  0
  184.3310  178.7060  141.7400 N   0  0  2  0  0  0  0  0  0  0  0  0
  179.5770  181.7590  137.7490 N   0  0  0  0  0  0  0  0  0  0  0  0
  181.3460  179.9640  138.9140 C   0  0  0  0  0  0  0  0  0  0  0  0
  181.8050  181.1760  138.3760 C   0  0  0  0  0  3  0  0  0  0  0  0
  180.9000  182.0640  137.7920 C   0  0  0  0  0  3  0  0  0  0  0  0
  179.0990  180.5950  138.2660 C   0  0  0  0  0  3  0  0  0  0  0  0
  179.9740  179.6800  138.8560 C   0  0  0  0  0  3  0  0  0  0  0  0
  2 16  1  0  0  0  0
  2 12  1  0  0  0  0
  4 13  1  0  0  0  0
  4 14  1  0  0  0  0
  5 13  2  0  0  0  0
  6  2  2  0  0  0  0
  8 19  1  0  0  0  0
  8 10  1  1  0  0  0
  9  7  2  0  0  0  0
 11  7  1  0  0  0  0
 11 16  2  0  0  0  0
 12  1  1  0  0  0  0
 13  9  1  0  0  0  0
 14 11  1  0  0  0  0
 15  1  1  6  0  0  0
 15 20  1  0  0  0  0
 16  3  1  0  0  0  0
 17  8  1  0  0  0  0
 18 14  2  0  0  0  0
 18  6  1  0  0  0  0
 20 19  2  0  0  0  0
 21  3  1  6  0  0  0
 21 15  1  0  0  0  0
 21 17  1  0  0  0  0
 22 25  2  0  0  0  0
 22 26  1  0  0  0  0
 23 12  1  0  0  0  0
 24 23  2  0  0  0  0
 25 24  1  0  0  0  0
 26 27  2  0  0  0  0
 27 23  1  0  0  0  0
M  END
>  <MODEL>
8

>  <REMARK>
 VINA RESULT:      -7.1      3.851      6.977
  Name = 
  1 active torsions:
  status: ('A' for Active; 'I' for Inactive)
    1  A    between atoms: C_9  and  N_15
                            x       y       z     vdW  Elec       q    Type
                         _______ _______ _______ _____ _____    ______ ____

>  <TORSDO>
F 1

$$$$
=
 OpenBabel10262420063D

 27 31  0  0  1  0  0  0  0  0999 V2000
  187.7460  176.6580  142.5510 C   0  0  0  0  0  2  0  0  0  0  0  0
  190.0470  176.4670  143.4740 C   0  0  0  0  0  0  0  0  0  0  0  0
  188.9270  178.2530  144.8550 C   0  0  0  0  0  2  0  0  0  0  0  0
  192.5030  175.3450  146.6140 N   0  0  0  0  0  2  0  0  0  0  0  0
  193.1870  175.5540  148.7650 O   0  0  0  0  0  0  0  0  0  0  0  0
  190.9870  175.4930  143.3250 N   0  0  0  0  0  0  0  0  0  0  0  0
  190.6450  177.3490  147.0400 C   0  0  0  0  0  3  0  0  0  0  0  0
  185.3060  178.2730  145.5400 C   0  0  2  0  0  3  0  0  0  0  0  0
  191.4890  176.9430  148.0740 C   0  0  0  0  0  3  0  0  0  0  0  0
  184.4500  179.3210  146.2180 C   0  0  0  0  0  1  0  0  0  0  0  0
  190.7340  176.7410  145.7820 C   0  0  0  0  0  0  0  0  0  0  0  0
  189.1900  176.7980  142.3700 N   0  0  0  0  0  0  0  0  0  0  0  0
  192.4210  175.9290  147.8400 C   0  0  0  0  0  0  0  0  0  0  0  0
  191.6910  175.7230  145.5910 C   0  0  0  0  0  0  0  0  0  0  0  0
  187.1640  177.8370  143.3240 C   0  0  1  0  0  3  0  0  0  0  0  0
  189.9040  177.1220  144.7120 C   0  0  0  0  0  0  0  0  0  0  0  0
  186.7600  178.7210  145.5190 C   0  0  0  0  0  2  0  0  0  0  0  0
  191.8030  175.1120  144.3440 C   0  0  0  0  0  3  0  0  0  0  0  0
  184.8120  178.0380  144.1430 C   0  0  0  0  0  3  0  0  0  0  0  0
  185.6630  177.8010  143.1370 C   0  0  0  0  0  3  0  0  0  0  0  0
  187.5570  177.7690  144.7470 N   0  0  2  0  0  0  0  0  0  0  0  0
  190.7660  177.8770  138.6060 N   0  0  0  0  0  0  0  0  0  0  0  0
  189.7280  177.1760  141.0850 C   0  0  0  0  0  0  0  0  0  0  0  0
  188.8810  177.5810  140.0420 C   0  0  0  0  0  3  0  0  0  0  0  0
  189.4220  177.9310  138.8030 C   0  0  0  0  0  3  0  0  0  0  0  0
  191.6130  177.4850  139.5950 C   0  0  0  0  0  3  0  0  0  0  0  0
  191.1100  177.1280  140.8480 C   0  0  0  0  0  3  0  0  0  0  0  0
  2 16  1  0  0  0  0
  4 13  1  0  0  0  0
  6  2  2  0  0  0  0
  6 18  1  0  0  0  0
  7  9  2  0  0  0  0
  8 10  1  6  0  0  0
 11  7  1  0  0  0  0
 12  1  1  0  0  0  0
 12  2  1  0  0  0  0
 13  9  1  0  0  0  0
 13  5  2  0  0  0  0
 14 11  1  0  0  0  0
 14  4  1  0  0  0  0
 15  1  1  6  0  0  0
 15 21  1  0  0  0  0
 16  3  1  0  0  0  0
 16 11  2  0  0  0  0
 17  8  1  0  0  0  0
 18 14  2  0  0  0  0
 19  8  1  0  0  0  0
 20 15  1  0  0  0  0
 20 19  2  0  0  0  0
 21  3  1  6  0  0  0
 21 17  1  0  0  0  0
 22 25  2  0  0  0  0
 22 26  1  0  0  0  0
 23 12  1  0  0  0  0
 24 23  2  0  0  0  0
 25 24  1  0  0  0  0
 26 27  2  0  0  0  0
 27 23  1  0  0  0  0
M  END
>  <MODEL>
9

>  <REMARK>
 VINA RESULT:      -7.1      2.790      6.070
  Name = 
  1 active torsions:
  status: ('A' for Active; 'I' for Inactive)
    1  A    between atoms: C_9  and  N_15
                            x       y       z     vdW  Elec       q    Type
                         _______ _______ _______ _____ _____    ______ ____

>  <TORSDO>
F 1

$$$$
