=
 OpenBabel10252415033D

 34 39  0  0  1  0  0  0  0  0999 V2000
  190.6890  177.0270  144.6760 C   0  0  1  0  0  3  0  0  0  0  0  0
  188.3970  177.0210  145.8840 C   0  0  2  0  0  3  0  0  0  0  0  0
  188.7140  177.5180  143.3660 C   0  0  0  0  0  0  0  0  0  0  0  0
  186.8340  178.3970  142.1470 C   0  0  0  0  0  0  0  0  0  0  0  0
  190.5490  177.2880  147.1850 C   0  0  0  0  0  2  0  0  0  0  0  0
  189.1780  177.9080  146.8500 C   0  0  0  0  0  2  0  0  0  0  0  0
  186.5350  177.8780  144.3780 C   0  0  0  0  0  0  0  0  0  0  0  0
  189.1920  176.7560  144.5630 C   0  0  1  0  0  3  0  0  0  0  0  0
  185.5510  178.6260  142.4230 C   0  0  0  0  0  3  0  0  0  0  0  0
  191.2290  176.5460  146.0150 C   0  0  0  0  0  2  0  0  0  0  0  0
  190.6760  176.6380  142.1170 C   0  0  0  0  0  2  0  0  0  0  0  0
  191.4420  176.4630  143.4560 C   0  0  0  0  0  2  0  0  0  0  0  0
  186.8990  177.4260  145.7630 C   0  0  0  0  0  2  0  0  0  0  0  0
  187.5600  178.3940  140.8710 C   0  0  0  0  0  3  0  0  0  0  0  0
  188.8720  178.0410  140.8520 C   0  0  0  0  0  0  0  0  0  0  0  0
  185.3790  178.3020  143.8670 C   0  0  0  0  0  0  0  0  0  0  0  0
  187.4770  177.9330  143.3230 C   0  0  1  0  0  3  0  0  0  0  0  0
  189.6220  177.7580  142.1750 C   0  0  0  0  0  0  0  0  0  0  0  0
  188.2950  176.4220  137.7050 C   0  0  0  0  0  2  0  0  0  0  0  0
  189.7620  176.0940  137.4500 C   0  0  0  0  0  2  0  0  0  0  0  0
  189.5960  178.0970  139.6050 N   0  0  0  0  0  0  0  0  0  0  0  0
  190.5060  175.9660  138.7760 C   0  0  0  0  0  2  0  0  0  0  0  0
  189.0550  178.7810  138.4360 C   0  0  0  0  0  2  0  0  0  0  0  0
  190.8190  177.3270  139.3930 C   0  0  0  0  0  2  0  0  0  0  0  0
  188.0010  177.9280  137.7220 C   0  0  0  0  0  2  0  0  0  0  0  0
  184.1080  178.4560  144.6310 C   0  0  0  0  0  2  0  0  0  0  0  0
  183.2600  179.5450  144.0070 C   0  0  0  0  0  2  0  0  0  0  0  0
  181.8990  178.9850  143.6560 C   0  0  0  0  0  2  0  0  0  0  0  0
  181.7550  178.9210  142.1490 C   0  0  0  0  0  2  0  0  0  0  0  0
  180.5040  180.4240  140.3160 O   0  0  0  0  0  0  0  0  0  0  0  0
  179.9010  180.7980  142.6610 O   0  0  0  0  0  0  0  0  0  0  0  0
  180.2680  179.7570  141.6410 S   0  0  0  0  0  0  0  0  0  0  0  0
  179.3040  177.3700  142.0440 O   0  0  0  0  0  1  0  0  0  0  0  0
  178.9310  178.5920  141.4840 C   0  0  0  0  0  2  0  0  0  0  0  0
  1 12  1  6  0  0  0
  1 10  1  0  0  0  0
  2 13  1  6  0  0  0
  2  6  1  0  0  0  0
  4  9  2  0  0  0  0
  6  5  1  0  0  0  0
  7 13  1  0  0  0  0
  8  3  1  6  0  0  0
  8  1  1  0  0  0  0
  8  2  1  0  0  0  0
  9 16  1  0  0  0  0
 10  5  1  0  0  0  0
 11 18  1  0  0  0  0
 11 12  1  0  0  0  0
 14  4  1  0  0  0  0
 15 14  2  0  0  0  0
 15 18  1  0  0  0  0
 16  7  2  0  0  0  0
 16 26  1  0  0  0  0
 17  4  1  6  0  0  0
 17  3  1  0  0  0  0
 17  7  1  0  0  0  0
 18  3  2  0  0  0  0
 19 25  1  0  0  0  0
 20 19  1  0  0  0  0
 20 22  1  0  0  0  0
 21 15  1  0  0  0  0
 22 24  1  0  0  0  0
 23 21  1  0  0  0  0
 24 21  1  0  0  0  0
 25 23  1  0  0  0  0
 27 26  1  0  0  0  0
 28 27  1  0  0  0  0
 29 28  1  0  0  0  0
 30 32  2  0  0  0  0
 32 29  1  0  0  0  0
 32 31  2  0  0  0  0
 34 32  1  0  0  0  0
 34 33  1  0  0  0  0
M  END
>  <MODEL>
1

>  <REMARK>
 VINA RESULT:     -10.2      0.000      0.000
  Name = 
  7 active torsions:
  status: ('A' for Active; 'I' for Inactive)
    1  A    between atoms: C_3  and  C_13
    2  A    between atoms: C_3  and  C_17
    3  A    between atoms: N_12  and  C_28
    4  A    between atoms: C_13  and  C_33
    5  A    between atoms: C_14  and  S_34
    6  A    between atoms: C_17  and  C_29
    7  A    between atoms: C_33  and  S_34
                            x       y       z     vdW  Elec       q    Type
                         _______ _______ _______ _____ _____    ______ ____

>  <TORSDO>
F 7

$$$$
=
 OpenBabel10252415033D

 34 39  0  0  1  0  0  0  0  0999 V2000
  186.6270  178.5470  140.8500 C   0  0  1  0  0  3  0  0  0  0  0  0
  187.9360  177.5890  142.8700 C   0  0  2  0  0  3  0  0  0  0  0  0
  185.4640  178.3440  142.9640 C   0  0  0  0  0  0  0  0  0  0  0  0
  184.4250  178.5290  145.1270 C   0  0  0  0  0  0  0  0  0  0  0  0
  189.1530  178.5600  140.8770 C   0  0  0  0  0  2  0  0  0  0  0  0
  188.9430  178.6360  142.4030 C   0  0  0  0  0  2  0  0  0  0  0  0
  186.6090  177.7810  145.0320 C   0  0  0  0  0  0  0  0  0  0  0  0
  186.5600  177.7380  142.1420 C   0  0  1  0  0  3  0  0  0  0  0  0
  184.7820  178.2350  146.3760 C   0  0  0  0  0  2  0  0  0  0  0  0
  187.8880  178.2140  140.0650 C   0  0  0  0  0  2  0  0  0  0  0  0
  184.0460  178.3620  140.9220 C   0  0  0  0  0  2  0  0  0  0  0  0
  185.3240  178.3970  140.0410 C   0  0  0  0  0  2  0  0  0  0  0  0
  187.9260  177.4050  144.4160 C   0  0  0  0  0  2  0  0  0  0  0  0
  183.1220  178.8900  144.5560 C   0  0  0  0  0  3  0  0  0  0  0  0
  183.0070  179.0620  143.2140 C   0  0  0  0  0  0  0  0  0  0  0  0
  186.1960  177.7700  146.2990 C   0  0  0  0  0  0  0  0  0  0  0  0
  185.5200  178.2620  144.2650 C   0  0  0  0  0  0  0  0  0  0  0  0
  184.2600  178.9920  142.3090 C   0  0  0  0  0  0  0  0  0  0  0  0
  179.7880  177.4830  143.2460 C   0  0  0  0  0  2  0  0  0  0  0  0
  179.4520  177.8280  141.8000 C   0  0  0  0  0  2  0  0  0  0  0  0
  181.7380  179.4750  142.6650 N   0  0  0  0  0  0  0  0  0  0  0  0
  180.7360  177.9780  140.9880 C   0  0  0  0  0  2  0  0  0  0  0  0
  180.6390  179.9080  143.5200 C   0  0  0  0  0  2  0  0  0  0  0  0
  181.4270  179.3150  141.2460 C   0  0  0  0  0  2  0  0  0  0  0  0
  179.9140  178.7150  144.1520 C   0  0  0  0  0  2  0  0  0  0  0  0
  187.0310  177.3780  147.4700 C   0  0  0  0  0  2  0  0  0  0  0  0
  187.7800  178.5850  147.9970 C   0  0  0  0  0  2  0  0  0  0  0  0
  189.2470  178.2440  148.1410 C   0  0  0  0  0  2  0  0  0  0  0  0
  189.4810  176.8200  147.6800 C   0  0  0  0  0  2  0  0  0  0  0  0
  191.5370  175.1300  147.3660 O   0  0  0  0  0  0  0  0  0  0  0  0
  192.0580  177.3710  148.2060 O   0  0  0  0  0  0  0  0  0  0  0  0
  191.1950  176.5880  147.2580 S   0  0  0  0  0  0  0  0  0  0  0  0
  191.7650  176.0460  144.7740 O   0  0  0  0  0  1  0  0  0  0  0  0
  191.4980  177.1430  145.5930 C   0  0  0  0  0  2  0  0  0  0  0  0
  1 12  1  6  0  0  0
  1  8  1  0  0  0  0
  2  6  1  1  0  0  0
  2 13  1  0  0  0  0
  3 17  1  0  0  0  0
  4  9  1  0  0  0  0
  5  6  1  0  0  0  0
  7 16  2  0  0  0  0
  8  2  1  0  0  0  0
  8  3  1  1  0  0  0
 10  1  1  0  0  0  0
 10  5  1  0  0  0  0
 11 18  1  0  0  0  0
 12 11  1  0  0  0  0
 13  7  1  0  0  0  0
 14  4  1  0  0  0  0
 15 14  2  0  0  0  0
 16  9  1  0  0  0  0
 16 26  1  0  0  0  0
 17  7  1  0  0  0  0
 17  4  2  0  0  0  0
 18  3  2  0  0  0  0
 18 15  1  0  0  0  0
 19 25  1  0  0  0  0
 20 19  1  0  0  0  0
 21 15  1  0  0  0  0
 21 23  1  0  0  0  0
 22 24  1  0  0  0  0
 22 20  1  0  0  0  0
 23 25  1  0  0  0  0
 24 21  1  0  0  0  0
 26 27  1  0  0  0  0
 27 28  1  0  0  0  0
 29 28  1  0  0  0  0
 32 30  2  0  0  0  0
 32 29  1  0  0  0  0
 32 31  2  0  0  0  0
 33 34  1  0  0  0  0
 34 32  1  0  0  0  0
M  END
>  <MODEL>
2

>  <REMARK>
 VINA RESULT:      -9.2      4.926      8.154
  Name = 
  7 active torsions:
  status: ('A' for Active; 'I' for Inactive)
    1  A    between atoms: C_3  and  C_13
    2  A    between atoms: C_3  and  C_17
    3  A    between atoms: N_12  and  C_28
    4  A    between atoms: C_13  and  C_33
    5  A    between atoms: C_14  and  S_34
    6  A    between atoms: C_17  and  C_29
    7  A    between atoms: C_33  and  S_34
                            x       y       z     vdW  Elec       q    Type
                         _______ _______ _______ _____ _____    ______ ____

>  <TORSDO>
F 7

$$$$
=
 OpenBabel10252415033D

 34 39  0  0  1  0  0  0  0  0999 V2000
  189.4860  177.0350  144.5470 C   0  0  1  0  0  3  0  0  0  0  0  0
  187.1490  177.5960  145.5150 C   0  0  2  0  0  3  0  0  0  0  0  0
  187.7310  177.6450  142.9960 C   0  0  0  0  0  0  0  0  0  0  0  0
  186.1330  178.6310  141.4910 C   0  0  0  0  0  0  0  0  0  0  0  0
  189.2150  177.6940  146.9710 C   0  0  0  0  0  2  0  0  0  0  0  0
  188.0040  178.4760  146.4220 C   0  0  0  0  0  2  0  0  0  0  0  0
  185.5850  178.5140  143.7320 C   0  0  0  0  0  0  0  0  0  0  0  0
  187.9760  177.0040  144.3270 C   0  0  1  0  0  3  0  0  0  0  0  0
  184.8950  179.1100  141.6060 C   0  0  0  0  0  3  0  0  0  0  0  0
  189.8320  176.6800  145.9860 C   0  0  0  0  0  2  0  0  0  0  0  0
  189.5870  176.2690  142.0760 C   0  0  0  0  0  2  0  0  0  0  0  0
  190.2110  176.1740  143.4950 C   0  0  0  0  0  2  0  0  0  0  0  0
  185.7610  178.2230  145.1940 C   0  0  0  0  0  2  0  0  0  0  0  0
  186.9360  178.3120  140.3040 C   0  0  0  0  0  3  0  0  0  0  0  0
  188.1610  177.7460  140.4620 C   0  0  0  0  0  0  0  0  0  0  0  0
  184.5640  179.0430  143.0570 C   0  0  0  0  0  0  0  0  0  0  0  0
  186.5950  178.2490  142.7760 C   0  0  1  0  0  3  0  0  0  0  0  0
  188.7500  177.5460  141.8780 C   0  0  0  0  0  0  0  0  0  0  0  0
  187.6790  178.5950  137.0110 C   0  0  0  0  0  2  0  0  0  0  0  0
  188.1600  177.2530  136.4720 C   0  0  0  0  0  2  0  0  0  0  0  0
  188.9710  177.4900  139.2950 N   0  0  0  0  0  0  0  0  0  0  0  0
  187.9230  176.1590  137.5100 C   0  0  0  0  0  2  0  0  0  0  0  0
  189.7000  178.5580  138.6200 C   0  0  0  0  0  2  0  0  0  0  0  0
  188.9640  176.1910  138.6270 C   0  0  0  0  0  2  0  0  0  0  0  0
  188.7770  179.3930  137.7270 C   0  0  0  0  0  2  0  0  0  0  0  0
  183.2900  179.5210  143.6650 C   0  0  0  0  0  2  0  0  0  0  0  0
  182.4080  178.3400  144.0130 C   0  0  0  0  0  2  0  0  0  0  0  0
  180.9550  178.7510  143.9230 C   0  0  0  0  0  2  0  0  0  0  0  0
  180.7250  179.5050  142.6290 C   0  0  0  0  0  2  0  0  0  0  0  0
  179.1560  179.1280  140.4890 O   0  0  0  0  0  0  0  0  0  0  0  0
  179.4240  177.2340  142.0190 O   0  0  0  0  0  0  0  0  0  0  0  0
  180.1240  178.3960  141.3730 S   0  0  0  0  0  0  0  0  0  0  0  0
  182.0140  178.8350  139.6340 O   0  0  0  0  0  1  0  0  0  0  0  0
  181.4790  177.7910  140.3890 C   0  0  0  0  0  2  0  0  0  0  0  0
  1 12  1  6  0  0  0
  1 10  1  0  0  0  0
  2 13  1  6  0  0  0
  2  6  1  0  0  0  0
  4  9  2  0  0  0  0
  6  5  1  0  0  0  0
  7 13  1  0  0  0  0
  8  3  1  6  0  0  0
  8  1  1  0  0  0  0
  8  2  1  0  0  0  0
  9 16  1  0  0  0  0
 10  5  1  0  0  0  0
 11 12  1  0  0  0  0
 14 15  2  0  0  0  0
 14  4  1  0  0  0  0
 15 18  1  0  0  0  0
 16 26  1  0  0  0  0
 16  7  2  0  0  0  0
 17  4  1  6  0  0  0
 17  3  1  0  0  0  0
 17  7  1  0  0  0  0
 18 11  1  0  0  0  0
 18  3  2  0  0  0  0
 19 25  1  0  0  0  0
 20 19  1  0  0  0  0
 20 22  1  0  0  0  0
 21 15  1  0  0  0  0
 22 24  1  0  0  0  0
 23 21  1  0  0  0  0
 24 21  1  0  0  0  0
 25 23  1  0  0  0  0
 26 27  1  0  0  0  0
 28 27  1  0  0  0  0
 29 28  1  0  0  0  0
 30 32  2  0  0  0  0
 32 31  2  0  0  0  0
 32 29  1  0  0  0  0
 33 34  1  0  0  0  0
 34 32  1  0  0  0  0
M  END
>  <MODEL>
3

>  <REMARK>
 VINA RESULT:      -9.1      1.241      1.756
  Name = 
  7 active torsions:
  status: ('A' for Active; 'I' for Inactive)
    1  A    between atoms: C_3  and  C_13
    2  A    between atoms: C_3  and  C_17
    3  A    between atoms: N_12  and  C_28
    4  A    between atoms: C_13  and  C_33
    5  A    between atoms: C_14  and  S_34
    6  A    between atoms: C_17  and  C_29
    7  A    between atoms: C_33  and  S_34
                            x       y       z     vdW  Elec       q    Type
                         _______ _______ _______ _____ _____    ______ ____

>  <TORSDO>
F 7

$$$$
=
 OpenBabel10252415033D

 34 39  0  0  1  0  0  0  0  0999 V2000
  184.2580  178.3880  144.9580 C   0  0  1  0  0  3  0  0  0  0  0  0
  186.7250  178.5600  144.1840 C   0  0  2  0  0  3  0  0  0  0  0  0
  184.6900  178.6490  142.5900 C   0  0  0  0  0  0  0  0  0  0  0  0
  185.1060  178.5010  140.2240 C   0  0  0  0  0  0  0  0  0  0  0  0
  186.1350  177.5470  146.4250 C   0  0  0  0  0  2  0  0  0  0  0  0
  186.8340  177.3220  145.0690 C   0  0  0  0  0  2  0  0  0  0  0  0
  186.9250  178.5000  141.6490 C   0  0  0  0  0  0  0  0  0  0  0  0
  185.2360  178.9770  143.9450 C   0  0  1  0  0  3  0  0  0  0  0  0
  186.1940  178.4760  139.4540 C   0  0  0  0  0  3  0  0  0  0  0  0
  184.8530  178.4020  146.3590 C   0  0  0  0  0  2  0  0  0  0  0  0
  182.4580  179.3940  143.3930 C   0  0  0  0  0  2  0  0  0  0  0  0
  182.8820  179.0720  144.8520 C   0  0  0  0  0  2  0  0  0  0  0  0
  187.6740  178.5100  142.9500 C   0  0  0  0  0  2  0  0  0  0  0  0
  183.6890  178.6720  139.8850 C   0  0  0  0  0  3  0  0  0  0  0  0
  182.7690  178.7450  140.8820 C   0  0  0  0  0  0  0  0  0  0  0  0
  187.3550  178.4590  140.3880 C   0  0  0  0  0  0  0  0  0  0  0  0
  185.5110  178.5180  141.5840 C   0  0  0  0  0  0  0  0  0  0  0  0
  183.1970  178.5330  142.3530 C   0  0  1  0  0  3  0  0  0  0  0  0
  180.8010  177.0700  138.3960 C   0  0  0  0  0  2  0  0  0  0  0  0
  180.0260  178.3140  137.9750 C   0  0  0  0  0  2  0  0  0  0  0  0
  181.3710  178.8540  140.5410 N   0  0  0  0  0  0  0  0  0  0  0  0
  180.8620  179.5640  138.2400 C   0  0  0  0  0  2  0  0  0  0  0  0
  180.4230  177.7900  140.8490 C   0  0  0  0  0  2  0  0  0  0  0  0
  180.8660  179.9500  139.7180 C   0  0  0  0  0  2  0  0  0  0  0  0
  180.5210  176.6400  139.8420 C   0  0  0  0  0  2  0  0  0  0  0  0
  188.7840  178.3820  139.9710 C   0  0  0  0  0  2  0  0  0  0  0  0
  189.2850  176.9590  140.1070 C   0  0  0  0  0  2  0  0  0  0  0  0
  190.4170  176.9170  141.1110 C   0  0  0  0  0  2  0  0  0  0  0  0
  189.9810  176.1280  142.3290 C   0  0  0  0  0  2  0  0  0  0  0  0
  191.9800  175.4740  143.9900 O   0  0  0  0  0  0  0  0  0  0  0  0
  190.1090  176.7360  144.9440 O   0  0  0  0  0  0  0  0  0  0  0  0
  190.9840  176.5680  143.7330 S   0  0  0  0  0  0  0  0  0  0  0  0
  191.0620  179.1710  143.8180 O   0  0  0  0  0  1  0  0  0  0  0  0
  191.8490  178.0910  143.4170 C   0  0  0  0  0  2  0  0  0  0  0  0
  1 12  1  1  0  0  0
  1 10  1  0  0  0  0
  2 13  1  6  0  0  0
  2  6  1  0  0  0  0
  4 17  1  0  0  0  0
  6  5  1  0  0  0  0
  7 13  1  0  0  0  0
  8  3  1  6  0  0  0
  8  2  1  0  0  0  0
  8  1  1  0  0  0  0
  9  4  2  0  0  0  0
  9 16  1  0  0  0  0
 10  5  1  0  0  0  0
 11 12  1  0  0  0  0
 14  4  1  0  0  0  0
 14 15  2  0  0  0  0
 15 18  1  0  0  0  0
 16  7  2  0  0  0  0
 17  7  1  0  0  0  0
 17  3  2  0  0  0  0
 18  3  1  0  0  0  0
 18 11  1  1  0  0  0
 19 25  1  0  0  0  0
 20 22  1  0  0  0  0
 20 19  1  0  0  0  0
 21 23  1  0  0  0  0
 21 15  1  0  0  0  0
 22 24  1  0  0  0  0
 24 21  1  0  0  0  0
 25 23  1  0  0  0  0
 26 27  1  0  0  0  0
 26 16  1  0  0  0  0
 27 28  1  0  0  0  0
 28 29  1  0  0  0  0
 29 32  1  0  0  0  0
 32 30  2  0  0  0  0
 32 31  2  0  0  0  0
 34 32  1  0  0  0  0
 34 33  1  0  0  0  0
M  END
>  <MODEL>
4

>  <REMARK>
 VINA RESULT:      -8.8      4.609      7.780
  Name = 
  7 active torsions:
  status: ('A' for Active; 'I' for Inactive)
    1  A    between atoms: C_3  and  C_13
    2  A    between atoms: C_3  and  C_17
    3  A    between atoms: N_12  and  C_28
    4  A    between atoms: C_13  and  C_33
    5  A    between atoms: C_14  and  S_34
    6  A    between atoms: C_17  and  C_29
    7  A    between atoms: C_33  and  S_34
                            x       y       z     vdW  Elec       q    Type
                         _______ _______ _______ _____ _____    ______ ____

>  <TORSDO>
F 7

$$$$
=
 OpenBabel10252415033D

 34 39  0  0  1  0  0  0  0  0999 V2000
  185.3390  178.1190  144.0920 C   0  0  1  0  0  3  0  0  0  0  0  0
  187.3930  178.2520  142.5200 C   0  0  2  0  0  3  0  0  0  0  0  0
  184.9410  178.5040  141.7360 C   0  0  0  0  0  0  0  0  0  0  0  0
  184.5090  178.4820  139.3680 C   0  0  0  0  0  0  0  0  0  0  0  0
  187.5590  177.1290  144.7790 C   0  0  0  0  0  2  0  0  0  0  0  0
  187.7360  176.9610  143.2570 C   0  0  0  0  0  2  0  0  0  0  0  0
  186.7050  178.3350  140.0720 C   0  0  0  0  0  0  0  0  0  0  0  0
  185.9380  178.7330  142.8300 C   0  0  1  0  0  3  0  0  0  0  0  0
  185.2620  178.4670  138.2690 C   0  0  0  0  0  3  0  0  0  0  0  0
  186.3790  178.0290  145.1990 C   0  0  0  0  0  2  0  0  0  0  0  0
  183.1650  179.2760  143.2940 C   0  0  0  0  0  2  0  0  0  0  0  0
  184.0480  178.8540  144.5000 C   0  0  0  0  0  2  0  0  0  0  0  0
  187.8550  178.2440  141.0330 C   0  0  0  0  0  2  0  0  0  0  0  0
  183.0730  178.7220  139.5490 C   0  0  0  0  0  3  0  0  0  0  0  0
  182.5580  178.7660  140.8060 C   0  0  0  0  0  0  0  0  0  0  0  0
  186.6720  178.3550  138.7400 C   0  0  0  0  0  0  0  0  0  0  0  0
  185.3570  178.4060  140.5020 C   0  0  0  0  0  0  0  0  0  0  0  0
  183.4550  178.4530  142.0270 C   0  0  1  0  0  3  0  0  0  0  0  0
  179.7730  177.4610  138.9620 C   0  0  0  0  0  2  0  0  0  0  0  0
  178.9780  178.7620  138.9770 C   0  0  0  0  0  2  0  0  0  0  0  0
  181.1350  178.9430  140.9760 N   0  0  0  0  0  0  0  0  0  0  0  0
  179.9280  179.9520  139.0840 C   0  0  0  0  0  2  0  0  0  0  0  0
  180.2830  177.8640  141.4630 C   0  0  0  0  0  2  0  0  0  0  0  0
  180.4500  180.1440  140.5060 C   0  0  0  0  0  2  0  0  0  0  0  0
  179.9690  176.8520  140.3560 C   0  0  0  0  0  2  0  0  0  0  0  0
  187.8630  178.2540  137.8500 C   0  0  0  0  0  2  0  0  0  0  0  0
  187.6430  177.1720  136.8140 C   0  0  0  0  0  2  0  0  0  0  0  0
  188.9120  176.3660  136.6490 C   0  0  0  0  0  2  0  0  0  0  0  0
  190.0590  177.0870  137.3270 C   0  0  0  0  0  2  0  0  0  0  0  0
  190.6430  174.5360  137.9060 O   0  0  0  0  0  0  0  0  0  0  0  0
  190.7380  176.1450  139.7510 O   0  0  0  0  0  0  0  0  0  0  0  0
  191.0200  175.9380  138.2900 S   0  0  0  0  0  0  0  0  0  0  0  0
  193.2910  177.0200  138.9680 O   0  0  0  0  0  1  0  0  0  0  0  0
  192.7570  176.1860  137.9860 C   0  0  0  0  0  2  0  0  0  0  0  0
  1 12  1  1  0  0  0
  1 10  1  0  0  0  0
  2 13  1  6  0  0  0
  2  8  1  0  0  0  0
  2  6  1  0  0  0  0
  3 18  1  0  0  0  0
  4 14  1  0  0  0  0
  4 17  1  0  0  0  0
  5 10  1  0  0  0  0
  6  5  1  0  0  0  0
  7 17  1  0  0  0  0
  7 13  1  0  0  0  0
  8  3  1  6  0  0  0
  8  1  1  0  0  0  0
  9 16  1  0  0  0  0
  9  4  2  0  0  0  0
 11 12  1  0  0  0  0
 14 15  2  0  0  0  0
 15 21  1  0  0  0  0
 15 18  1  0  0  0  0
 16  7  2  0  0  0  0
 17  3  2  0  0  0  0
 18 11  1  1  0  0  0
 19 20  1  0  0  0  0
 19 25  1  0  0  0  0
 20 22  1  0  0  0  0
 21 23  1  0  0  0  0
 22 24  1  0  0  0  0
 24 21  1  0  0  0  0
 25 23  1  0  0  0  0
 26 16  1  0  0  0  0
 27 26  1  0  0  0  0
 28 27  1  0  0  0  0
 28 29  1  0  0  0  0
 29 32  1  0  0  0  0
 30 32  2  0  0  0  0
 32 31  2  0  0  0  0
 34 32  1  0  0  0  0
 34 33  1  0  0  0  0
M  END
>  <MODEL>
5

>  <REMARK>
 VINA RESULT:      -8.7      4.704      8.297
  Name = 
  7 active torsions:
  status: ('A' for Active; 'I' for Inactive)
    1  A    between atoms: C_3  and  C_13
    2  A    between atoms: C_3  and  C_17
    3  A    between atoms: N_12  and  C_28
    4  A    between atoms: C_13  and  C_33
    5  A    between atoms: C_14  and  S_34
    6  A    between atoms: C_17  and  C_29
    7  A    between atoms: C_33  and  S_34
                            x       y       z     vdW  Elec       q    Type
                         _______ _______ _______ _____ _____    ______ ____

>  <TORSDO>
F 7

$$$$
=
 OpenBabel10252415033D

 34 39  0  0  1  0  0  0  0  0999 V2000
  184.8620  178.2670  144.0450 C   0  0  1  0  0  3  0  0  0  0  0  0
  186.7840  178.5440  142.3290 C   0  0  2  0  0  3  0  0  0  0  0  0
  184.2760  178.4450  141.7030 C   0  0  0  0  0  0  0  0  0  0  0  0
  183.7050  178.2150  139.3760 C   0  0  0  0  0  0  0  0  0  0  0  0
  187.2270  177.6010  144.6330 C   0  0  0  0  0  2  0  0  0  0  0  0
  187.3300  177.3550  143.1140 C   0  0  0  0  0  2  0  0  0  0  0  0
  185.9410  178.3810  139.9340 C   0  0  0  0  0  0  0  0  0  0  0  0
  185.3010  178.8640  142.7110 C   0  0  1  0  0  3  0  0  0  0  0  0
  184.3850  178.2180  138.2300 C   0  0  0  0  0  3  0  0  0  0  0  0
  185.9720  178.3770  145.0810 C   0  0  0  0  0  2  0  0  0  0  0  0
  182.5160  179.0970  143.3340 C   0  0  0  0  0  2  0  0  0  0  0  0
  183.5170  178.8650  144.4980 C   0  0  0  0  0  2  0  0  0  0  0  0
  187.1510  178.4930  140.8170 C   0  0  0  0  0  2  0  0  0  0  0  0
  182.2640  178.2900  139.6420 C   0  0  0  0  0  3  0  0  0  0  0  0
  181.8260  178.3550  140.9260 C   0  0  0  0  0  0  0  0  0  0  0  0
  185.8240  178.3090  138.6090 C   0  0  0  0  0  0  0  0  0  0  0  0
  184.6240  178.3160  140.4520 C   0  0  0  0  0  0  0  0  0  0  0  0
  182.8280  178.2340  142.0980 C   0  0  1  0  0  3  0  0  0  0  0  0
  179.7900  180.5980  142.8450 C   0  0  0  0  0  2  0  0  0  0  0  0
  178.9330  179.5020  143.4700 C   0  0  0  0  0  2  0  0  0  0  0  0
  180.4050  178.3690  141.1840 N   0  0  0  0  0  0  0  0  0  0  0  0
  179.7230  178.1990  143.5420 C   0  0  0  0  0  2  0  0  0  0  0  0
  179.5290  179.3700  140.5860 C   0  0  0  0  0  2  0  0  0  0  0  0
  179.8000  177.4980  142.1880 C   0  0  0  0  0  2  0  0  0  0  0  0
  179.6200  180.7100  141.3240 C   0  0  0  0  0  2  0  0  0  0  0  0
  186.9620  178.2950  137.6460 C   0  0  0  0  0  2  0  0  0  0  0  0
  187.4770  176.8810  137.4780 C   0  0  0  0  0  2  0  0  0  0  0  0
  188.9300  176.9200  137.0570 C   0  0  0  0  0  2  0  0  0  0  0  0
  189.7240  177.7290  138.0630 C   0  0  0  0  0  2  0  0  0  0  0  0
  192.2740  176.9100  138.1540 O   0  0  0  0  0  0  0  0  0  0  0  0
  190.5550  175.2580  138.7180 O   0  0  0  0  0  0  0  0  0  0  0  0
  190.9540  176.7020  138.8390 S   0  0  0  0  0  0  0  0  0  0  0  0
  190.2830  176.3020  141.3250 O   0  0  0  0  0  1  0  0  0  0  0  0
  191.1100  177.1260  140.5610 C   0  0  0  0  0  2  0  0  0  0  0  0
  1 12  1  1  0  0  0
  1 10  1  0  0  0  0
  2 13  1  6  0  0  0
  2  8  1  0  0  0  0
  2  6  1  0  0  0  0
  3 18  1  0  0  0  0
  4 14  1  0  0  0  0
  4 17  1  0  0  0  0
  5 10  1  0  0  0  0
  6  5  1  0  0  0  0
  7 17  1  0  0  0  0
  7 13  1  0  0  0  0
  8  3  1  6  0  0  0
  8  1  1  0  0  0  0
  9 16  1  0  0  0  0
  9  4  2  0  0  0  0
 11 12  1  0  0  0  0
 14 15  2  0  0  0  0
 15 21  1  0  0  0  0
 15 18  1  0  0  0  0
 16  7  2  0  0  0  0
 17  3  2  0  0  0  0
 18 11  1  1  0  0  0
 19 20  1  0  0  0  0
 20 22  1  0  0  0  0
 21 24  1  0  0  0  0
 23 21  1  0  0  0  0
 23 25  1  0  0  0  0
 24 22  1  0  0  0  0
 25 19  1  0  0  0  0
 26 16  1  0  0  0  0
 27 26  1  0  0  0  0
 28 27  1  0  0  0  0
 28 29  1  0  0  0  0
 29 32  1  0  0  0  0
 30 32  2  0  0  0  0
 31 32  2  0  0  0  0
 32 34  1  0  0  0  0
 34 33  1  0  0  0  0
M  END
>  <MODEL>
6

>  <REMARK>
 VINA RESULT:      -8.4      4.556      8.428
  Name = 
  7 active torsions:
  status: ('A' for Active; 'I' for Inactive)
    1  A    between atoms: C_3  and  C_13
    2  A    between atoms: C_3  and  C_17
    3  A    between atoms: N_12  and  C_28
    4  A    between atoms: C_13  and  C_33
    5  A    between atoms: C_14  and  S_34
    6  A    between atoms: C_17  and  C_29
    7  A    between atoms: C_33  and  S_34
                            x       y       z     vdW  Elec       q    Type
                         _______ _______ _______ _____ _____    ______ ____

>  <TORSDO>
F 7

$$$$
=
 OpenBabel10252415033D

 34 39  0  0  1  0  0  0  0  0999 V2000
  180.6020  178.7610  141.6440 C   0  0  1  0  0  3  0  0  0  0  0  0
  181.7200  179.1180  143.9540 C   0  0  2  0  0  3  0  0  0  0  0  0
  183.0200  178.7170  141.7540 C   0  0  0  0  0  0  0  0  0  0  0  0
  185.3800  178.2710  141.9060 C   0  0  0  0  0  0  0  0  0  0  0  0
  179.3060  178.3860  143.7800 C   0  0  0  0  0  2  0  0  0  0  0  0
  180.7030  178.0490  144.3400 C   0  0  0  0  0  2  0  0  0  0  0  0
  184.2290  178.7070  143.8610 C   0  0  0  0  0  0  0  0  0  0  0  0
  181.8070  179.3080  142.4030 C   0  0  1  0  0  3  0  0  0  0  0  0
  186.2810  178.2670  142.8880 C   0  0  0  0  0  2  0  0  0  0  0  0
  179.3090  179.0560  142.3910 C   0  0  0  0  0  2  0  0  0  0  0  0
  182.0260  179.2930  139.5480 C   0  0  0  0  0  2  0  0  0  0  0  0
  180.6080  179.2460  140.1820 C   0  0  0  0  0  2  0  0  0  0  0  0
  183.0540  179.0030  144.7480 C   0  0  0  0  0  2  0  0  0  0  0  0
  185.5430  178.2140  140.4490 C   0  0  0  0  0  3  0  0  0  0  0  0
  184.4480  178.3210  139.6520 C   0  0  0  0  0  0  0  0  0  0  0  0
  185.5200  178.5320  144.1420 C   0  0  0  0  0  0  0  0  0  0  0  0
  184.1020  178.5410  142.4610 C   0  0  0  0  0  0  0  0  0  0  0  0
  183.0330  178.3840  140.2750 C   0  0  0  0  0  0  0  0  0  0  0  0
  184.5580  175.4490  137.5070 C   0  0  0  0  0  2  0  0  0  0  0  0
  185.6970  175.9720  136.6380 C   0  0  0  0  0  2  0  0  0  0  0  0
  184.6060  178.2050  138.2210 N   0  0  0  0  0  0  0  0  0  0  0  0
  186.5650  176.9360  137.4410 C   0  0  0  0  0  2  0  0  0  0  0  0
  183.5010  177.8020  137.3590 C   0  0  0  0  0  2  0  0  0  0  0  0
  185.9160  178.3110  137.5840 C   0  0  0  0  0  2  0  0  0  0  0  0
  183.2770  176.2870  137.4010 C   0  0  0  0  0  2  0  0  0  0  0  0
  186.1140  178.5710  145.5080 C   0  0  0  0  0  2  0  0  0  0  0  0
  186.8130  177.2600  145.8040 C   0  0  0  0  0  2  0  0  0  0  0  0
  188.3030  177.4960  145.9150 C   0  0  0  0  0  2  0  0  0  0  0  0
  189.0100  176.8030  144.7670 C   0  0  0  0  0  2  0  0  0  0  0  0
  191.4430  177.3540  145.7480 O   0  0  0  0  0  0  0  0  0  0  0  0
  190.4600  178.9990  144.2210 O   0  0  0  0  0  0  0  0  0  0  0  0
  190.6140  177.5320  144.5080 S   0  0  0  0  0  0  0  0  0  0  0  0
  190.5640  175.8340  142.5320 O   0  0  0  0  0  1  0  0  0  0  0  0
  191.4300  176.7460  143.1350 C   0  0  0  0  0  2  0  0  0  0  0  0
  1 12  1  6  0  0  0
  1 10  1  0  0  0  0
  1  8  1  0  0  0  0
  2  6  1  6  0  0  0
  2 13  1  0  0  0  0
  3 17  1  0  0  0  0
  4 17  2  0  0  0  0
  4  9  1  0  0  0  0
  5  6  1  0  0  0  0
  7 16  2  0  0  0  0
  7 13  1  0  0  0  0
  8  3  1  6  0  0  0
  8  2  1  0  0  0  0
  9 16  1  0  0  0  0
 10  5  1  0  0  0  0
 11 12  1  0  0  0  0
 11 18  1  0  0  0  0
 14  4  1  0  0  0  0
 15 18  1  0  0  0  0
 15 14  2  0  0  0  0
 16 26  1  0  0  0  0
 17  7  1  0  0  0  0
 18  3  2  0  0  0  0
 20 22  1  0  0  0  0
 20 19  1  0  0  0  0
 21 15  1  0  0  0  0
 22 24  1  0  0  0  0
 23 25  1  0  0  0  0
 23 21  1  0  0  0  0
 24 21  1  0  0  0  0
 25 19  1  0  0  0  0
 26 27  1  0  0  0  0
 27 28  1  0  0  0  0
 29 28  1  0  0  0  0
 31 32  2  0  0  0  0
 32 29  1  0  0  0  0
 32 30  2  0  0  0  0
 33 34  1  0  0  0  0
 34 32  1  0  0  0  0
M  END
>  <MODEL>
7

>  <REMARK>
 VINA RESULT:      -8.4      4.448      7.621
  Name = 
  7 active torsions:
  status: ('A' for Active; 'I' for Inactive)
    1  A    between atoms: C_3  and  C_13
    2  A    between atoms: C_3  and  C_17
    3  A    between atoms: N_12  and  C_28
    4  A    between atoms: C_13  and  C_33
    5  A    between atoms: C_14  and  S_34
    6  A    between atoms: C_17  and  C_29
    7  A    between atoms: C_33  and  S_34
                            x       y       z     vdW  Elec       q    Type
                         _______ _______ _______ _____ _____    ______ ____

>  <TORSDO>
F 7

$$$$
=
 OpenBabel10252415033D

 34 39  0  0  1  0  0  0  0  0999 V2000
  185.8640  178.3830  144.9680 C   0  0  1  0  0  3  0  0  0  0  0  0
  184.2550  178.2230  142.9430 C   0  0  2  0  0  3  0  0  0  0  0  0
  186.8350  178.1790  142.7600 C   0  0  0  0  0  0  0  0  0  0  0  0
  187.8110  178.3840  140.5700 C   0  0  0  0  0  0  0  0  0  0  0  0
  183.4740  179.1820  145.1480 C   0  0  0  0  0  2  0  0  0  0  0  0
  183.6500  179.4390  143.6380 C   0  0  0  0  0  2  0  0  0  0  0  0
  185.5070  178.3450  140.7320 C   0  0  0  0  0  0  0  0  0  0  0  0
  185.6290  177.8160  143.5700 C   0  0  1  0  0  3  0  0  0  0  0  0
  187.3410  178.4240  139.3240 C   0  0  0  0  0  3  0  0  0  0  0  0
  184.5870  178.3330  145.7950 C   0  0  0  0  0  2  0  0  0  0  0  0
  188.2470  177.4200  144.6610 C   0  0  0  0  0  2  0  0  0  0  0  0
  187.0750  177.7050  145.6380 C   0  0  0  0  0  2  0  0  0  0  0  0
  184.1590  178.3000  141.3910 C   0  0  0  0  0  2  0  0  0  0  0  0
  189.1790  178.2240  141.0790 C   0  0  0  0  0  3  0  0  0  0  0  0
  189.3840  178.1300  142.4180 C   0  0  0  0  0  0  0  0  0  0  0  0
  185.8560  178.4140  139.4470 C   0  0  0  0  0  0  0  0  0  0  0  0
  186.7160  178.3320  141.4690 C   0  0  0  0  0  0  0  0  0  0  0  0
  188.2020  178.3050  143.4020 C   0  0  1  0  0  3  0  0  0  0  0  0
  190.8490  175.9790  144.8850 C   0  0  0  0  0  2  0  0  0  0  0  0
  191.6980  177.0690  145.5290 C   0  0  0  0  0  2  0  0  0  0  0  0
  190.7350  178.0330  142.9170 N   0  0  0  0  0  0  0  0  0  0  0  0
  191.0400  178.4300  145.3260 C   0  0  0  0  0  2  0  0  0  0  0  0
  191.5920  176.9000  142.5880 C   0  0  0  0  0  2  0  0  0  0  0  0
  191.2540  178.9670  143.9130 C   0  0  0  0  0  2  0  0  0  0  0  0
  191.2500  175.6710  143.4360 C   0  0  0  0  0  2  0  0  0  0  0  0
  184.9040  178.4980  138.3030 C   0  0  0  0  0  2  0  0  0  0  0  0
  184.8240  177.1590  137.5990 C   0  0  0  0  0  2  0  0  0  0  0  0
  185.9460  177.0520  136.5900 C   0  0  0  0  0  2  0  0  0  0  0  0
  186.7070  175.7620  136.8160 C   0  0  0  0  0  2  0  0  0  0  0  0
  188.5840  177.3160  135.7000 O   0  0  0  0  0  0  0  0  0  0  0  0
  188.7520  174.9050  135.2980 O   0  0  0  0  0  0  0  0  0  0  0  0
  188.4040  175.9570  136.3130 S   0  0  0  0  0  0  0  0  0  0  0  0
  190.1420  174.5680  137.6680 O   0  0  0  0  0  1  0  0  0  0  0  0
  189.4830  175.7960  137.7200 C   0  0  0  0  0  2  0  0  0  0  0  0
  1 12  1  1  0  0  0
  1 10  1  0  0  0  0
  2 13  1  6  0  0  0
  2  8  1  0  0  0  0
  2  6  1  0  0  0  0
  3 18  1  0  0  0  0
  4 14  1  0  0  0  0
  4 17  1  0  0  0  0
  5 10  1  0  0  0  0
  6  5  1  0  0  0  0
  7 13  1  0  0  0  0
  7 17  1  0  0  0  0
  8  3  1  6  0  0  0
  8  1  1  0  0  0  0
  9 16  1  0  0  0  0
  9  4  2  0  0  0  0
 11 12  1  0  0  0  0
 14 15  2  0  0  0  0
 15 21  1  0  0  0  0
 15 18  1  0  0  0  0
 16  7  2  0  0  0  0
 17  3  2  0  0  0  0
 18 11  1  1  0  0  0
 19 20  1  0  0  0  0
 21 24  1  0  0  0  0
 22 20  1  0  0  0  0
 23 21  1  0  0  0  0
 23 25  1  0  0  0  0
 24 22  1  0  0  0  0
 25 19  1  0  0  0  0
 26 16  1  0  0  0  0
 27 26  1  0  0  0  0
 28 29  1  0  0  0  0
 28 27  1  0  0  0  0
 30 32  2  0  0  0  0
 31 32  2  0  0  0  0
 32 29  1  0  0  0  0
 32 34  1  0  0  0  0
 33 34  1  0  0  0  0
M  END
>  <MODEL>
8

>  <REMARK>
 VINA RESULT:      -8.2      4.053      6.668
  Name = 
  7 active torsions:
  status: ('A' for Active; 'I' for Inactive)
    1  A    between atoms: C_3  and  C_13
    2  A    between atoms: C_3  and  C_17
    3  A    between atoms: N_12  and  C_28
    4  A    between atoms: C_13  and  C_33
    5  A    between atoms: C_14  and  S_34
    6  A    between atoms: C_17  and  C_29
    7  A    between atoms: C_33  and  S_34
                            x       y       z     vdW  Elec       q    Type
                         _______ _______ _______ _____ _____    ______ ____

>  <TORSDO>
F 7

$$$$
=
 OpenBabel10252415033D

 34 39  0  0  1  0  0  0  0  0999 V2000
  185.0650  178.2340  144.7870 C   0  0  1  0  0  3  0  0  0  0  0  0
  187.5440  178.3110  144.0410 C   0  0  2  0  0  3  0  0  0  0  0  0
  185.5320  178.4830  142.4250 C   0  0  0  0  0  0  0  0  0  0  0  0
  185.9690  178.3240  140.0640 C   0  0  0  0  0  0  0  0  0  0  0  0
  186.8910  177.3170  146.2730 C   0  0  0  0  0  2  0  0  0  0  0  0
  187.5960  177.0680  144.9240 C   0  0  0  0  0  2  0  0  0  0  0  0
  187.7700  178.2490  141.5080 C   0  0  0  0  0  0  0  0  0  0  0  0
  186.0760  178.7860  143.7870 C   0  0  1  0  0  3  0  0  0  0  0  0
  187.0630  178.2590  139.3060 C   0  0  0  0  0  3  0  0  0  0  0  0
  185.6430  178.2210  146.1950 C   0  0  0  0  0  2  0  0  0  0  0  0
  183.3220  179.3130  143.2060 C   0  0  0  0  0  2  0  0  0  0  0  0
  183.7170  178.9710  144.6680 C   0  0  0  0  0  2  0  0  0  0  0  0
  188.5040  178.2270  142.8180 C   0  0  0  0  0  2  0  0  0  0  0  0
  184.5630  178.5520  139.7090 C   0  0  0  0  0  3  0  0  0  0  0  0
  183.6360  178.6580  140.6970 C   0  0  0  0  0  0  0  0  0  0  0  0
  188.2130  178.1950  140.2520 C   0  0  0  0  0  0  0  0  0  0  0  0
  186.3580  178.3230  141.4280 C   0  0  0  0  0  0  0  0  0  0  0  0
  184.0390  178.4260  142.1720 C   0  0  1  0  0  3  0  0  0  0  0  0
  181.6220  177.0420  138.2090 C   0  0  0  0  0  2  0  0  0  0  0  0
  180.9040  178.3120  137.7670 C   0  0  0  0  0  2  0  0  0  0  0  0
  182.2470  178.8220  140.3410 N   0  0  0  0  0  0  0  0  0  0  0  0
  181.7900  179.5280  138.0280 C   0  0  0  0  0  2  0  0  0  0  0  0
  181.2510  177.8030  140.6500 C   0  0  0  0  0  2  0  0  0  0  0  0
  181.7960  179.9300  139.5010 C   0  0  0  0  0  2  0  0  0  0  0  0
  181.3110  176.6380  139.6560 C   0  0  0  0  0  2  0  0  0  0  0  0
  189.6420  178.0630  139.8510 C   0  0  0  0  0  2  0  0  0  0  0  0
  189.7680  177.0720  138.7120 C   0  0  0  0  0  2  0  0  0  0  0  0
  191.0870  176.3390  138.8260 C   0  0  0  0  0  2  0  0  0  0  0  0
  191.7420  176.2660  137.4610 C   0  0  0  0  0  2  0  0  0  0  0  0
  193.9310  176.4330  138.9990 O   0  0  0  0  0  0  0  0  0  0  0  0
  194.2360  176.7600  136.5910 O   0  0  0  0  0  0  0  0  0  0  0  0
  193.4910  175.9800  137.6370 S   0  0  0  0  0  0  0  0  0  0  0  0
  192.7330  173.5870  136.9390 O   0  0  0  0  0  1  0  0  0  0  0  0
  193.8520  174.2470  137.4470 C   0  0  0  0  0  2  0  0  0  0  0  0
  1 12  1  1  0  0  0
  1 10  1  0  0  0  0
  2 13  1  6  0  0  0
  2  6  1  0  0  0  0
  4 17  1  0  0  0  0
  6  5  1  0  0  0  0
  7 13  1  0  0  0  0
  8  3  1  6  0  0  0
  8  2  1  0  0  0  0
  8  1  1  0  0  0  0
  9  4  2  0  0  0  0
  9 16  1  0  0  0  0
 10  5  1  0  0  0  0
 11 12  1  0  0  0  0
 14  4  1  0  0  0  0
 14 15  2  0  0  0  0
 15 18  1  0  0  0  0
 16  7  2  0  0  0  0
 17  7  1  0  0  0  0
 17  3  2  0  0  0  0
 18  3  1  0  0  0  0
 18 11  1  1  0  0  0
 19 25  1  0  0  0  0
 20 22  1  0  0  0  0
 20 19  1  0  0  0  0
 21 23  1  0  0  0  0
 21 15  1  0  0  0  0
 22 24  1  0  0  0  0
 24 21  1  0  0  0  0
 25 23  1  0  0  0  0
 26 16  1  0  0  0  0
 27 28  1  0  0  0  0
 27 26  1  0  0  0  0
 29 32  1  0  0  0  0
 29 28  1  0  0  0  0
 31 32  2  0  0  0  0
 32 30  2  0  0  0  0
 33 34  1  0  0  0  0
 34 32  1  0  0  0  0
M  END
>  <MODEL>
9

>  <REMARK>
 VINA RESULT:      -8.2      5.464      8.362
  Name = 
  7 active torsions:
  status: ('A' for Active; 'I' for Inactive)
    1  A    between atoms: C_3  and  C_13
    2  A    between atoms: C_3  and  C_17
    3  A    between atoms: N_12  and  C_28
    4  A    between atoms: C_13  and  C_33
    5  A    between atoms: C_14  and  S_34
    6  A    between atoms: C_17  and  C_29
    7  A    between atoms: C_33  and  S_34
                            x       y       z     vdW  Elec       q    Type
                         _______ _______ _______ _____ _____    ______ ____

>  <TORSDO>
F 7

$$$$
