=
 OpenBabel10262419473D

 25 28  0  0  1  0  0  0  0  0999 V2000
  185.5500  178.3960  145.0060 C   0  0  0  0  0  0  0  0  0  0  0  0
  185.7080  178.5260  143.6100 C   0  0  0  0  0  0  0  0  0  0  0  0
  183.1660  178.8120  144.7620 C   0  0  0  0  0  3  0  0  0  0  0  0
  183.3210  178.9540  143.3830 C   0  0  0  0  0  3  0  0  0  0  0  0
  184.7780  178.9280  141.4150 C   0  0  0  0  0  0  0  0  0  0  0  0
  183.8120  179.1870  140.6490 O   0  0  0  0  0  0  0  0  0  0  0  0
  186.9250  178.3590  143.0280 N   0  0  0  0  0  0  0  0  0  0  0  0
  184.2720  178.5300  145.5670 C   0  0  0  0  0  3  0  0  0  0  0  0
  186.0200  178.7560  140.8920 N   0  0  0  0  0  2  0  0  0  0  0  0
  187.0860  178.4680  141.6840 C   0  0  0  0  0  0  0  0  0  0  0  0
  184.5860  178.8100  142.7990 C   0  0  0  0  0  0  0  0  0  0  0  0
  186.6900  178.0860  145.8920 C   0  0  0  0  0  0  0  0  0  0  0  0
  188.8950  177.4420  147.5090 C   0  0  0  0  0  3  0  0  0  0  0  0
  186.8540  178.7050  147.1530 C   0  0  0  0  0  0  0  0  0  0  0  0
  187.9570  178.3790  147.9490 C   0  0  0  0  0  3  0  0  0  0  0  0
  188.7300  176.8180  146.2710 C   0  0  0  0  0  3  0  0  0  0  0  0
  185.8560  179.6730  147.6930 C   0  0  0  0  0  1  0  0  0  0  0  0
  187.6320  177.1370  145.4690 C   0  0  0  0  0  3  0  0  0  0  0  0
  188.7090  178.2420  140.9560 S   0  0  0  0  0  0  0  0  0  0  0  0
  190.6320  175.6250  143.3620 O   0  0  0  0  0  0  0  0  0  0  0  0
  190.5900  178.4730  142.9910 C   0  0  0  0  0  2  0  0  0  0  0  0
  191.7780  176.3890  143.6530 C   0  0  0  0  0  2  0  0  0  0  0  0
  189.5010  177.5460  142.4500 C   0  0  2  0  0  3  0  0  0  0  0  0
  191.3650  177.7880  144.1120 C   0  0  0  0  0  2  0  0  0  0  0  0
  190.0800  176.1540  142.1810 C   0  0  0  0  0  2  0  0  0  0  0  0
  1  8  1  0  0  0  0
  1 12  1  0  0  0  0
  2  1  2  0  0  0  0
  3  8  2  0  0  0  0
  4  3  1  0  0  0  0
  5 11  1  0  0  0  0
  6  5  2  0  0  0  0
  7  2  1  0  0  0  0
  9  5  1  0  0  0  0
  9 10  1  0  0  0  0
 10  7  2  0  0  0  0
 11  4  2  0  0  0  0
 11  2  1  0  0  0  0
 12 14  1  0  0  0  0
 13 15  1  0  0  0  0
 14 17  1  0  0  0  0
 14 15  2  0  0  0  0
 16 13  2  0  0  0  0
 18 12  2  0  0  0  0
 18 16  1  0  0  0  0
 19 10  1  0  0  0  0
 20 22  1  0  0  0  0
 21 24  1  0  0  0  0
 22 24  1  0  0  0  0
 23 19  1  6  0  0  0
 23 21  1  0  0  0  0
 25 23  1  0  0  0  0
 25 20  1  0  0  0  0
M  END
>  <MODEL>
1

>  <REMARK>
 VINA RESULT:      -9.3      0.000      0.000
  Name = 
  3 active torsions:
  status: ('A' for Active; 'I' for Inactive)
    1  A    between atoms: C_1  and  C_5
    2  A    between atoms: S_6  and  C_15
    3  A    between atoms: S_6  and  C_23
                            x       y       z     vdW  Elec       q    Type
                         _______ _______ _______ _____ _____    ______ ____

>  <TORSDO>
F 3

$$$$
=
 OpenBabel10262419473D

 25 28  0  0  1  0  0  0  0  0999 V2000
  187.8210  177.6890  145.2170 C   0  0  0  0  0  0  0  0  0  0  0  0
  187.5160  177.9150  143.8580 C   0  0  0  0  0  0  0  0  0  0  0  0
  185.5290  178.2460  145.8110 C   0  0  0  0  0  3  0  0  0  0  0  0
  185.2280  178.4830  144.4690 C   0  0  0  0  0  3  0  0  0  0  0  0
  185.9430  178.5280  142.1280 C   0  0  0  0  0  0  0  0  0  0  0  0
  184.8000  178.8940  141.7460 O   0  0  0  0  0  0  0  0  0  0  0  0
  188.4550  177.7290  142.8930 N   0  0  0  0  0  0  0  0  0  0  0  0
  186.8160  177.8470  146.1810 C   0  0  0  0  0  3  0  0  0  0  0  0
  186.9250  178.3310  141.2090 N   0  0  0  0  0  2  0  0  0  0  0  0
  188.1680  177.9290  141.5810 C   0  0  0  0  0  0  0  0  0  0  0  0
  186.2130  178.3170  143.4880 C   0  0  0  0  0  0  0  0  0  0  0  0
  189.1650  177.2540  145.6510 C   0  0  0  0  0  0  0  0  0  0  0  0
  191.7460  176.4260  146.3850 C   0  0  0  0  0  3  0  0  0  0  0  0
  189.5260  177.1750  147.0160 C   0  0  0  0  0  0  0  0  0  0  0  0
  190.8150  176.7640  147.3700 C   0  0  0  0  0  3  0  0  0  0  0  0
  191.3900  176.4910  145.0370 C   0  0  0  0  0  3  0  0  0  0  0  0
  188.5550  177.4740  148.1090 C   0  0  0  0  0  1  0  0  0  0  0  0
  190.1050  176.9000  144.6730 C   0  0  0  0  0  3  0  0  0  0  0  0
  189.4360  177.6740  140.3390 S   0  0  0  0  0  0  0  0  0  0  0  0
  188.0740  179.2690  136.8840 O   0  0  0  0  0  0  0  0  0  0  0  0
  188.0870  176.6770  138.1210 C   0  0  0  0  0  2  0  0  0  0  0  0
  188.0760  178.1100  136.0860 C   0  0  0  0  0  2  0  0  0  0  0  0
  188.3580  177.9690  138.8920 C   0  0  2  0  0  3  0  0  0  0  0  0
  187.3540  176.9770  136.8180 C   0  0  0  0  0  2  0  0  0  0  0  0
  188.9520  179.0260  137.9560 C   0  0  0  0  0  2  0  0  0  0  0  0
  1 12  1  0  0  0  0
  1  8  1  0  0  0  0
  2  1  2  0  0  0  0
  3  8  2  0  0  0  0
  4  3  1  0  0  0  0
  5 11  1  0  0  0  0
  6  5  2  0  0  0  0
  7  2  1  0  0  0  0
  9 10  1  0  0  0  0
  9  5  1  0  0  0  0
 10  7  2  0  0  0  0
 11  2  1  0  0  0  0
 11  4  2  0  0  0  0
 12 14  1  0  0  0  0
 13 15  1  0  0  0  0
 14 15  2  0  0  0  0
 14 17  1  0  0  0  0
 16 13  2  0  0  0  0
 18 16  1  0  0  0  0
 18 12  2  0  0  0  0
 19 10  1  0  0  0  0
 20 25  1  0  0  0  0
 21 23  1  0  0  0  0
 22 24  1  0  0  0  0
 22 20  1  0  0  0  0
 23 19  1  1  0  0  0
 24 21  1  0  0  0  0
 25 23  1  0  0  0  0
M  END
>  <MODEL>
2

>  <REMARK>
 VINA RESULT:      -8.8      2.597      3.945
  Name = 
  3 active torsions:
  status: ('A' for Active; 'I' for Inactive)
    1  A    between atoms: C_1  and  C_5
    2  A    between atoms: S_6  and  C_15
    3  A    between atoms: S_6  and  C_23
                            x       y       z     vdW  Elec       q    Type
                         _______ _______ _______ _____ _____    ______ ____

>  <TORSDO>
F 3

$$$$
=
 OpenBabel10262419473D

 25 28  0  0  1  0  0  0  0  0999 V2000
  187.3610  177.6950  145.1640 C   0  0  0  0  0  0  0  0  0  0  0  0
  188.4370  177.4980  144.2740 C   0  0  0  0  0  0  0  0  0  0  0  0
  188.8240  177.1650  147.0330 C   0  0  0  0  0  3  0  0  0  0  0  0
  189.8880  176.9560  146.1530 C   0  0  0  0  0  3  0  0  0  0  0  0
  190.7530  176.9390  143.8630 C   0  0  0  0  0  0  0  0  0  0  0  0
  191.8990  176.5970  144.2580 O   0  0  0  0  0  0  0  0  0  0  0  0
  188.2790  177.6850  142.9370 N   0  0  0  0  0  0  0  0  0  0  0  0
  187.5710  177.5370  146.5410 C   0  0  0  0  0  3  0  0  0  0  0  0
  190.5330  177.1360  142.5370 N   0  0  0  0  0  2  0  0  0  0  0  0
  189.3120  177.5110  142.0730 C   0  0  0  0  0  0  0  0  0  0  0  0
  189.7030  177.1230  144.7750 C   0  0  0  0  0  0  0  0  0  0  0  0
  186.0220  178.1020  144.6880 C   0  0  0  0  0  0  0  0  0  0  0  0
  183.4980  178.8350  143.7000 C   0  0  0  0  0  3  0  0  0  0  0  0
  185.0600  178.6780  145.5490 C   0  0  0  0  0  0  0  0  0  0  0  0
  183.8050  179.0370  145.0470 C   0  0  0  0  0  3  0  0  0  0  0  0
  184.4490  178.2790  142.8430 C   0  0  0  0  0  3  0  0  0  0  0  0
  185.3540  178.9630  146.9840 C   0  0  0  0  0  1  0  0  0  0  0  0
  185.7050  177.9170  143.3350 C   0  0  0  0  0  3  0  0  0  0  0  0
  189.0610  177.7680  140.3160 S   0  0  0  0  0  0  0  0  0  0  0  0
  191.1270  175.0610  138.1370 O   0  0  0  0  0  0  0  0  0  0  0  0
  191.7120  177.5130  139.5140 C   0  0  0  0  0  2  0  0  0  0  0  0
  192.1730  175.8890  137.6860 C   0  0  0  0  0  2  0  0  0  0  0  0
  190.4400  176.7020  139.7620 C   0  0  2  0  0  3  0  0  0  0  0  0
  192.7840  176.6410  138.8690 C   0  0  0  0  0  2  0  0  0  0  0  0
  190.0670  175.9110  138.5040 C   0  0  0  0  0  2  0  0  0  0  0  0
  1  8  1  0  0  0  0
  2 11  1  0  0  0  0
  2  1  2  0  0  0  0
  4  3  1  0  0  0  0
  5  6  2  0  0  0  0
  5 11  1  0  0  0  0
  7  2  1  0  0  0  0
  8  3  2  0  0  0  0
  9  5  1  0  0  0  0
 10  9  1  0  0  0  0
 10  7  2  0  0  0  0
 11  4  2  0  0  0  0
 12  1  1  0  0  0  0
 12 14  1  0  0  0  0
 13 15  1  0  0  0  0
 14 17  1  0  0  0  0
 15 14  2  0  0  0  0
 16 18  1  0  0  0  0
 16 13  2  0  0  0  0
 18 12  2  0  0  0  0
 19 10  1  0  0  0  0
 20 25  1  0  0  0  0
 21 23  1  0  0  0  0
 22 20  1  0  0  0  0
 22 24  1  0  0  0  0
 23 19  1  6  0  0  0
 24 21  1  0  0  0  0
 25 23  1  0  0  0  0
M  END
>  <MODEL>
3

>  <REMARK>
 VINA RESULT:      -8.8      2.347      4.782
  Name = 
  3 active torsions:
  status: ('A' for Active; 'I' for Inactive)
    1  A    between atoms: C_1  and  C_5
    2  A    between atoms: S_6  and  C_15
    3  A    between atoms: S_6  and  C_23
                            x       y       z     vdW  Elec       q    Type
                         _______ _______ _______ _____ _____    ______ ____

>  <TORSDO>
F 3

$$$$
=
 OpenBabel10262419473D

 25 28  0  0  1  0  0  0  0  0999 V2000
  188.2470  177.6570  144.8940 C   0  0  0  0  0  0  0  0  0  0  0  0
  186.9620  178.0910  144.5050 C   0  0  0  0  0  0  0  0  0  0  0  0
  187.5500  177.7200  147.2240 C   0  0  0  0  0  3  0  0  0  0  0  0
  186.2820  178.1620  146.8430 C   0  0  0  0  0  3  0  0  0  0  0  0
  184.7120  178.7720  145.0660 C   0  0  0  0  0  0  0  0  0  0  0  0
  183.8030  179.0210  145.9020 O   0  0  0  0  0  0  0  0  0  0  0  0
  186.6470  178.2450  143.1920 N   0  0  0  0  0  0  0  0  0  0  0  0
  188.5230  177.4640  146.2550 C   0  0  0  0  0  3  0  0  0  0  0  0
  184.4570  178.9140  143.7390 N   0  0  0  0  0  2  0  0  0  0  0  0
  185.4090  178.6490  142.8060 C   0  0  0  0  0  0  0  0  0  0  0  0
  185.9800  178.3460  145.4880 C   0  0  0  0  0  0  0  0  0  0  0  0
  189.3020  177.3630  143.9030 C   0  0  0  0  0  0  0  0  0  0  0  0
  191.2550  176.7320  141.9860 C   0  0  0  0  0  3  0  0  0  0  0  0
  190.4390  178.1890  143.7460 C   0  0  0  0  0  0  0  0  0  0  0  0
  191.4040  177.8680  142.7860 C   0  0  0  0  0  3  0  0  0  0  0  0
  190.1410  175.9070  142.1460 C   0  0  0  0  0  3  0  0  0  0  0  0
  190.6730  179.3830  144.6090 C   0  0  0  0  0  1  0  0  0  0  0  0
  189.1720  176.2200  143.1010 C   0  0  0  0  0  3  0  0  0  0  0  0
  185.0340  178.8420  141.0630 S   0  0  0  0  0  0  0  0  0  0  0  0
  181.0580  178.1500  141.2880 O   0  0  0  0  0  0  0  0  0  0  0  0
  183.2930  177.0280  139.8750 C   0  0  0  0  0  2  0  0  0  0  0  0
  180.8640  177.5480  140.0300 C   0  0  0  0  0  2  0  0  0  0  0  0
  183.4500  177.9300  141.0990 C   0  0  2  0  0  3  0  0  0  0  0  0
  181.8900  176.4320  139.8270 C   0  0  0  0  0  2  0  0  0  0  0  0
  182.2560  178.8840  141.2070 C   0  0  0  0  0  2  0  0  0  0  0  0
  1  8  1  0  0  0  0
  2  1  2  0  0  0  0
  2 11  1  0  0  0  0
  4  3  1  0  0  0  0
  5 11  1  0  0  0  0
  5  6  2  0  0  0  0
  7  2  1  0  0  0  0
  8  3  2  0  0  0  0
  9  5  1  0  0  0  0
 10  7  2  0  0  0  0
 10  9  1  0  0  0  0
 11  4  2  0  0  0  0
 12  1  1  0  0  0  0
 13 16  2  0  0  0  0
 13 15  1  0  0  0  0
 14 12  1  0  0  0  0
 14 17  1  0  0  0  0
 15 14  2  0  0  0  0
 16 18  1  0  0  0  0
 18 12  2  0  0  0  0
 19 10  1  0  0  0  0
 21 23  1  0  0  0  0
 22 20  1  0  0  0  0
 23 19  1  6  0  0  0
 23 25  1  0  0  0  0
 24 21  1  0  0  0  0
 24 22  1  0  0  0  0
 25 20  1  0  0  0  0
M  END
>  <MODEL>
4

>  <REMARK>
 VINA RESULT:      -8.7      2.266      5.827
  Name = 
  3 active torsions:
  status: ('A' for Active; 'I' for Inactive)
    1  A    between atoms: C_1  and  C_5
    2  A    between atoms: S_6  and  C_15
    3  A    between atoms: S_6  and  C_23
                            x       y       z     vdW  Elec       q    Type
                         _______ _______ _______ _____ _____    ______ ____

>  <TORSDO>
F 3

$$$$
=
 OpenBabel10262419473D

 25 28  0  0  1  0  0  0  0  0999 V2000
  188.0570  177.9090  145.1340 C   0  0  0  0  0  0  0  0  0  0  0  0
  186.8410  178.2740  144.5200 C   0  0  0  0  0  0  0  0  0  0  0  0
  186.9470  177.8970  147.2980 C   0  0  0  0  0  3  0  0  0  0  0  0
  185.7460  178.2710  146.6950 C   0  0  0  0  0  3  0  0  0  0  0  0
  184.4900  178.8160  144.6650 C   0  0  0  0  0  0  0  0  0  0  0  0
  183.4310  178.9990  145.3240 O   0  0  0  0  0  0  0  0  0  0  0  0
  186.7600  178.4300  143.1720 N   0  0  0  0  0  0  0  0  0  0  0  0
  188.0940  177.7130  146.5220 C   0  0  0  0  0  3  0  0  0  0  0  0
  184.4720  178.9630  143.3150 N   0  0  0  0  0  2  0  0  0  0  0  0
  185.5910  178.7670  142.5690 C   0  0  0  0  0  0  0  0  0  0  0  0
  185.6830  178.4580  145.3090 C   0  0  0  0  0  0  0  0  0  0  0  0
  189.2910  177.6920  144.3500 C   0  0  0  0  0  0  0  0  0  0  0  0
  191.6750  177.3510  142.9060 C   0  0  0  0  0  3  0  0  0  0  0  0
  189.4360  176.6010  143.4620 C   0  0  0  0  0  0  0  0  0  0  0  0
  190.6280  176.4390  142.7500 C   0  0  0  0  0  3  0  0  0  0  0  0
  191.5310  178.4370  143.7710 C   0  0  0  0  0  3  0  0  0  0  0  0
  188.3310  175.6280  143.2190 C   0  0  0  0  0  1  0  0  0  0  0  0
  190.3440  178.6070  144.4870 C   0  0  0  0  0  3  0  0  0  0  0  0
  185.5270  178.9640  140.7880 S   0  0  0  0  0  0  0  0  0  0  0  0
  181.8030  179.7400  139.4200 O   0  0  0  0  0  0  0  0  0  0  0  0
  183.1890  177.4820  140.5300 C   0  0  0  0  0  2  0  0  0  0  0  0
  181.4210  178.4340  139.0590 C   0  0  0  0  0  2  0  0  0  0  0  0
  183.7050  178.9160  140.6490 C   0  0  2  0  0  3  0  0  0  0  0  0
  181.6950  177.4760  140.2190 C   0  0  0  0  0  2  0  0  0  0  0  0
  183.2100  179.7540  139.4660 C   0  0  0  0  0  2  0  0  0  0  0  0
  1  8  1  0  0  0  0
  2  1  2  0  0  0  0
  2 11  1  0  0  0  0
  4  3  1  0  0  0  0
  5 11  1  0  0  0  0
  5  6  2  0  0  0  0
  7  2  1  0  0  0  0
  8  3  2  0  0  0  0
  9  5  1  0  0  0  0
 10  7  2  0  0  0  0
 10  9  1  0  0  0  0
 11  4  2  0  0  0  0
 12 18  1  0  0  0  0
 12  1  1  0  0  0  0
 13 16  1  0  0  0  0
 14 12  2  0  0  0  0
 15 13  2  0  0  0  0
 15 14  1  0  0  0  0
 16 18  2  0  0  0  0
 17 14  1  0  0  0  0
 19 10  1  0  0  0  0
 20 25  1  0  0  0  0
 21 23  1  0  0  0  0
 22 20  1  0  0  0  0
 22 24  1  0  0  0  0
 23 19  1  6  0  0  0
 24 21  1  0  0  0  0
 25 23  1  0  0  0  0
M  END
>  <MODEL>
5

>  <REMARK>
 VINA RESULT:      -8.7      2.184      5.715
  Name = 
  3 active torsions:
  status: ('A' for Active; 'I' for Inactive)
    1  A    between atoms: C_1  and  C_5
    2  A    between atoms: S_6  and  C_15
    3  A    between atoms: S_6  and  C_23
                            x       y       z     vdW  Elec       q    Type
                         _______ _______ _______ _____ _____    ______ ____

>  <TORSDO>
F 3

$$$$
=
 OpenBabel10262419473D

 25 28  0  0  1  0  0  0  0  0999 V2000
  189.7050  177.5170  141.8520 C   0  0  0  0  0  0  0  0  0  0  0  0
  188.3360  177.8540  141.9150 C   0  0  0  0  0  0  0  0  0  0  0  0
  189.7250  178.0960  139.4890 C   0  0  0  0  0  3  0  0  0  0  0  0
  188.3680  178.4180  139.5470 C   0  0  0  0  0  3  0  0  0  0  0  0
  186.3090  178.6340  140.8540 C   0  0  0  0  0  0  0  0  0  0  0  0
  185.6660  179.0320  139.8470 O   0  0  0  0  0  0  0  0  0  0  0  0
  187.6530  177.7750  143.0880 N   0  0  0  0  0  0  0  0  0  0  0  0
  190.3890  177.6530  140.6360 C   0  0  0  0  0  3  0  0  0  0  0  0
  185.6780  178.5290  142.0530 N   0  0  0  0  0  2  0  0  0  0  0  0
  186.3400  178.1110  143.1640 C   0  0  0  0  0  0  0  0  0  0  0  0
  187.6690  178.3030  140.7540 C   0  0  0  0  0  0  0  0  0  0  0  0
  190.4490  177.0570  143.0420 C   0  0  0  0  0  0  0  0  0  0  0  0
  191.8600  176.0940  145.2710 C   0  0  0  0  0  3  0  0  0  0  0  0
  190.9790  177.9590  143.9940 C   0  0  0  0  0  0  0  0  0  0  0  0
  191.6830  177.4690  145.0990 C   0  0  0  0  0  3  0  0  0  0  0  0
  191.3270  175.2000  144.3420 C   0  0  0  0  0  3  0  0  0  0  0  0
  190.7740  179.4330  143.8840 C   0  0  0  0  0  1  0  0  0  0  0  0
  190.6240  175.6790  143.2350 C   0  0  0  0  0  3  0  0  0  0  0  0
  185.4750  177.9910  144.7300 S   0  0  0  0  0  0  0  0  0  0  0  0
  187.7300  178.8990  147.9590 O   0  0  0  0  0  0  0  0  0  0  0  0
  187.7640  176.9130  145.8840 C   0  0  0  0  0  2  0  0  0  0  0  0
  188.2830  177.6290  148.2100 C   0  0  0  0  0  2  0  0  0  0  0  0
  186.9500  178.2050  145.7880 C   0  0  2  0  0  3  0  0  0  0  0  0
  188.8730  177.0580  146.9210 C   0  0  0  0  0  2  0  0  0  0  0  0
  186.5710  178.6930  147.1890 C   0  0  0  0  0  2  0  0  0  0  0  0
  1  2  1  0  0  0  0
  1 12  1  0  0  0  0
  2  7  1  0  0  0  0
  3  4  2  0  0  0  0
  3  8  1  0  0  0  0
  4 11  1  0  0  0  0
  5  9  1  0  0  0  0
  6  5  2  0  0  0  0
  7 10  2  0  0  0  0
  8  1  2  0  0  0  0
  9 10  1  0  0  0  0
 10 19  1  0  0  0  0
 11  5  1  0  0  0  0
 11  2  2  0  0  0  0
 12 18  2  0  0  0  0
 12 14  1  0  0  0  0
 14 15  2  0  0  0  0
 15 13  1  0  0  0  0
 16 13  2  0  0  0  0
 17 14  1  0  0  0  0
 18 16  1  0  0  0  0
 20 22  1  0  0  0  0
 21 24  1  0  0  0  0
 23 19  1  6  0  0  0
 23 21  1  0  0  0  0
 23 25  1  0  0  0  0
 24 22  1  0  0  0  0
 25 20  1  0  0  0  0
M  END
>  <MODEL>
6

>  <REMARK>
 VINA RESULT:      -8.7      2.213      4.861
  Name = 
  3 active torsions:
  status: ('A' for Active; 'I' for Inactive)
    1  A    between atoms: C_1  and  C_5
    2  A    between atoms: S_6  and  C_15
    3  A    between atoms: S_6  and  C_23
                            x       y       z     vdW  Elec       q    Type
                         _______ _______ _______ _____ _____    ______ ____

>  <TORSDO>
F 3

$$$$
=
 OpenBabel10262419473D

 25 28  0  0  1  0  0  0  0  0999 V2000
  187.7150  177.4960  143.9520 C   0  0  0  0  0  0  0  0  0  0  0  0
  187.3360  178.0090  142.6940 C   0  0  0  0  0  0  0  0  0  0  0  0
  185.4580  177.8780  144.7740 C   0  0  0  0  0  3  0  0  0  0  0  0
  185.0840  178.3980  143.5340 C   0  0  0  0  0  3  0  0  0  0  0  0
  185.6710  178.9650  141.2260 C   0  0  0  0  0  0  0  0  0  0  0  0
  184.5080  179.3900  140.9940 O   0  0  0  0  0  0  0  0  0  0  0  0
  188.2220  178.0520  141.6640 N   0  0  0  0  0  0  0  0  0  0  0  0
  186.7630  177.4250  144.9790 C   0  0  0  0  0  3  0  0  0  0  0  0
  186.6020  178.9870  140.2360 N   0  0  0  0  0  2  0  0  0  0  0  0
  187.8650  178.5310  140.4450 C   0  0  0  0  0  0  0  0  0  0  0  0
  186.0150  178.4640  142.4900 C   0  0  0  0  0  0  0  0  0  0  0  0
  189.0810  176.9940  144.2090 C   0  0  0  0  0  0  0  0  0  0  0  0
  191.6810  176.0100  144.6080 C   0  0  0  0  0  3  0  0  0  0  0  0
  189.7600  177.2460  145.4240 C   0  0  0  0  0  0  0  0  0  0  0  0
  191.0550  176.7540  145.6110 C   0  0  0  0  0  3  0  0  0  0  0  0
  191.0100  175.7470  143.4130 C   0  0  0  0  0  3  0  0  0  0  0  0
  189.1180  177.9910  146.5470 C   0  0  0  0  0  1  0  0  0  0  0  0
  189.7160  176.2350  143.2160 C   0  0  0  0  0  3  0  0  0  0  0  0
  189.0640  178.5700  139.1120 S   0  0  0  0  0  0  0  0  0  0  0  0
  187.5150  175.3700  137.1880 O   0  0  0  0  0  0  0  0  0  0  0  0
  190.1210  176.2350  138.0340 C   0  0  0  0  0  2  0  0  0  0  0  0
  188.6570  174.9660  136.4710 C   0  0  0  0  0  2  0  0  0  0  0  0
  188.8250  176.8380  138.5790 C   0  0  2  0  0  3  0  0  0  0  0  0
  189.8530  174.8650  137.4180 C   0  0  0  0  0  2  0  0  0  0  0  0
  187.7100  176.7200  137.5360 C   0  0  0  0  0  2  0  0  0  0  0  0
  1 12  1  0  0  0  0
  1  8  1  0  0  0  0
  2  1  2  0  0  0  0
  3  8  2  0  0  0  0
  4  3  1  0  0  0  0
  5 11  1  0  0  0  0
  6  5  2  0  0  0  0
  7  2  1  0  0  0  0
  9 10  1  0  0  0  0
  9  5  1  0  0  0  0
 10  7  2  0  0  0  0
 11  2  1  0  0  0  0
 11  4  2  0  0  0  0
 12 14  1  0  0  0  0
 13 15  1  0  0  0  0
 14 15  2  0  0  0  0
 14 17  1  0  0  0  0
 16 13  2  0  0  0  0
 18 16  1  0  0  0  0
 18 12  2  0  0  0  0
 19 10  1  0  0  0  0
 20 25  1  0  0  0  0
 21 23  1  0  0  0  0
 22 20  1  0  0  0  0
 22 24  1  0  0  0  0
 23 19  1  6  0  0  0
 24 21  1  0  0  0  0
 25 23  1  0  0  0  0
M  END
>  <MODEL>
7

>  <REMARK>
 VINA RESULT:      -8.6      2.726      3.902
  Name = 
  3 active torsions:
  status: ('A' for Active; 'I' for Inactive)
    1  A    between atoms: C_1  and  C_5
    2  A    between atoms: S_6  and  C_15
    3  A    between atoms: S_6  and  C_23
                            x       y       z     vdW  Elec       q    Type
                         _______ _______ _______ _____ _____    ______ ____

>  <TORSDO>
F 3

$$$$
=
 OpenBabel10262419473D

 25 28  0  0  1  0  0  0  0  0999 V2000
  188.1050  177.8970  145.1470 C   0  0  0  0  0  0  0  0  0  0  0  0
  186.8730  178.2820  144.5770 C   0  0  0  0  0  0  0  0  0  0  0  0
  187.0620  177.8520  147.3440 C   0  0  0  0  0  3  0  0  0  0  0  0
  185.8450  178.2460  146.7850 C   0  0  0  0  0  3  0  0  0  0  0  0
  184.5320  178.8380  144.8050 C   0  0  0  0  0  0  0  0  0  0  0  0
  183.4960  179.0160  145.5000 O   0  0  0  0  0  0  0  0  0  0  0  0
  186.7520  178.4630  143.2360 N   0  0  0  0  0  0  0  0  0  0  0  0
  188.1830  177.6740  146.5290 C   0  0  0  0  0  3  0  0  0  0  0  0
  184.4730  179.0100  143.4590 N   0  0  0  0  0  2  0  0  0  0  0  0
  185.5670  178.8200  142.6760 C   0  0  0  0  0  0  0  0  0  0  0  0
  185.7420  178.4590  145.4050 C   0  0  0  0  0  0  0  0  0  0  0  0
  189.3120  177.6850  144.3200 C   0  0  0  0  0  0  0  0  0  0  0  0
  191.6450  177.3590  142.7920 C   0  0  0  0  0  3  0  0  0  0  0  0
  189.4590  176.5600  143.4770 C   0  0  0  0  0  0  0  0  0  0  0  0
  190.6260  176.4050  142.7230 C   0  0  0  0  0  3  0  0  0  0  0  0
  191.4980  178.4780  143.6130 C   0  0  0  0  0  3  0  0  0  0  0  0
  188.3810  175.5390  143.3270 C   0  0  0  0  0  1  0  0  0  0  0  0
  190.3360  178.6410  144.3700 C   0  0  0  0  0  3  0  0  0  0  0  0
  185.4500  179.0510  140.9010 S   0  0  0  0  0  0  0  0  0  0  0  0
  188.2170  177.0660  138.7230 O   0  0  0  0  0  0  0  0  0  0  0  0
  188.2300  178.9820  140.8630 C   0  0  0  0  0  2  0  0  0  0  0  0
  189.2920  177.9640  138.8560 C   0  0  0  0  0  2  0  0  0  0  0  0
  186.9940  178.1650  140.4840 C   0  0  2  0  0  3  0  0  0  0  0  0
  189.4940  178.3150  140.3310 C   0  0  0  0  0  2  0  0  0  0  0  0
  187.0440  177.7930  138.9990 C   0  0  0  0  0  2  0  0  0  0  0  0
  1  8  1  0  0  0  0
  2  1  2  0  0  0  0
  2 11  1  0  0  0  0
  4  3  1  0  0  0  0
  5 11  1  0  0  0  0
  5  6  2  0  0  0  0
  7  2  1  0  0  0  0
  8  3  2  0  0  0  0
  9  5  1  0  0  0  0
 10  7  2  0  0  0  0
 10  9  1  0  0  0  0
 11  4  2  0  0  0  0
 12 18  1  0  0  0  0
 12  1  1  0  0  0  0
 13 16  1  0  0  0  0
 14 12  2  0  0  0  0
 15 13  2  0  0  0  0
 15 14  1  0  0  0  0
 16 18  2  0  0  0  0
 17 14  1  0  0  0  0
 19 10  1  0  0  0  0
 20 22  1  0  0  0  0
 20 25  1  0  0  0  0
 22 24  1  0  0  0  0
 23 21  1  0  0  0  0
 23 19  1  6  0  0  0
 24 21  1  0  0  0  0
 25 23  1  0  0  0  0
M  END
>  <MODEL>
8

>  <REMARK>
 VINA RESULT:      -8.3      2.208      4.148
  Name = 
  3 active torsions:
  status: ('A' for Active; 'I' for Inactive)
    1  A    between atoms: C_1  and  C_5
    2  A    between atoms: S_6  and  C_15
    3  A    between atoms: S_6  and  C_23
                            x       y       z     vdW  Elec       q    Type
                         _______ _______ _______ _____ _____    ______ ____

>  <TORSDO>
F 3

$$$$
=
 OpenBabel10262419473D

 25 28  0  0  1  0  0  0  0  0999 V2000
  187.7510  177.7270  143.3860 C   0  0  0  0  0  0  0  0  0  0  0  0
  187.0760  177.9930  144.5960 C   0  0  0  0  0  0  0  0  0  0  0  0
  185.8120  178.5140  142.1460 C   0  0  0  0  0  3  0  0  0  0  0  0
  185.1370  178.7650  143.3410 C   0  0  0  0  0  3  0  0  0  0  0  0
  185.1220  178.7670  145.7890 C   0  0  0  0  0  0  0  0  0  0  0  0
  183.9470  179.2220  145.8200 O   0  0  0  0  0  0  0  0  0  0  0  0
  187.6820  177.7780  145.7940 N   0  0  0  0  0  0  0  0  0  0  0  0
  187.1120  178.0030  142.1690 C   0  0  0  0  0  3  0  0  0  0  0  0
  185.7770  178.5270  146.9550 N   0  0  0  0  0  2  0  0  0  0  0  0
  187.0470  178.0430  146.9640 C   0  0  0  0  0  0  0  0  0  0  0  0
  185.7620  178.5110  144.5680 C   0  0  0  0  0  0  0  0  0  0  0  0
  189.1300  177.1990  143.3640 C   0  0  0  0  0  0  0  0  0  0  0  0
  191.7180  176.1100  143.3000 C   0  0  0  0  0  3  0  0  0  0  0  0
  190.2600  178.0350  143.5210 C   0  0  0  0  0  0  0  0  0  0  0  0
  191.5440  177.4830  143.4850 C   0  0  0  0  0  3  0  0  0  0  0  0
  190.6060  175.2780  143.1570 C   0  0  0  0  0  3  0  0  0  0  0  0
  190.1280  179.5000  143.7730 C   0  0  0  0  0  1  0  0  0  0  0  0
  189.3200  175.8200  143.1920 C   0  0  0  0  0  3  0  0  0  0  0  0
  187.8810  177.7440  148.5230 S   0  0  0  0  0  0  0  0  0  0  0  0
  191.9160  177.7590  148.2810 O   0  0  0  0  0  0  0  0  0  0  0  0
  189.7680  176.1860  147.2010 C   0  0  0  0  0  2  0  0  0  0  0  0
  192.1260  176.4030  147.9680 C   0  0  0  0  0  2  0  0  0  0  0  0
  189.5590  177.5700  147.8180 C   0  0  2  0  0  3  0  0  0  0  0  0
  191.2270  175.9970  146.7990 C   0  0  0  0  0  2  0  0  0  0  0  0
  190.6400  177.8470  148.8670 C   0  0  0  0  0  2  0  0  0  0  0  0
  1  2  1  0  0  0  0
  2  7  1  0  0  0  0
  3  8  1  0  0  0  0
  3  4  2  0  0  0  0
  4 11  1  0  0  0  0
  5  6  2  0  0  0  0
  5  9  1  0  0  0  0
  7 10  2  0  0  0  0
  8  1  2  0  0  0  0
  9 10  1  0  0  0  0
 10 19  1  0  0  0  0
 11  2  2  0  0  0  0
 11  5  1  0  0  0  0
 12  1  1  0  0  0  0
 12 14  1  0  0  0  0
 13 15  1  0  0  0  0
 14 17  1  0  0  0  0
 15 14  2  0  0  0  0
 16 18  1  0  0  0  0
 16 13  2  0  0  0  0
 18 12  2  0  0  0  0
 20 25  1  0  0  0  0
 21 23  1  0  0  0  0
 22 20  1  0  0  0  0
 23 19  1  1  0  0  0
 23 25  1  0  0  0  0
 24 21  1  0  0  0  0
 24 22  1  0  0  0  0
M  END
>  <MODEL>
9

>  <REMARK>
 VINA RESULT:      -8.1      2.724      4.686
  Name = 
  3 active torsions:
  status: ('A' for Active; 'I' for Inactive)
    1  A    between atoms: C_1  and  C_5
    2  A    between atoms: S_6  and  C_15
    3  A    between atoms: S_6  and  C_23
                            x       y       z     vdW  Elec       q    Type
                         _______ _______ _______ _____ _____    ______ ____

>  <TORSDO>
F 3

$$$$
