=
 OpenBabel10262419463D

 25 27  0  0  1  0  0  0  0  0999 V2000
  186.7510  177.9630  143.9160 C   0  0  1  0  0  3  0  0  0  0  0  0
  186.1350  176.8550  145.9760 O   0  0  0  0  0  1  0  0  0  0  0  0
  185.6360  179.1980  145.7620 C   0  0  2  0  0  3  0  0  0  0  0  0
  185.3220  179.2140  147.1220 O   0  0  0  0  0  1  0  0  0  0  0  0
  185.5140  177.7370  143.2810 O   0  0  0  0  0  0  0  0  0  0  0  0
  184.3620  179.0870  144.9280 C   0  0  0  0  0  2  0  0  0  0  0  0
  184.7440  178.9040  143.4550 C   0  0  2  0  0  3  0  0  0  0  0  0
  186.6070  178.0570  145.4430 C   0  0  2  0  0  3  0  0  0  0  0  0
  187.8570  176.9980  143.4530 C   0  0  2  0  0  3  0  0  0  0  0  0
  187.8360  178.2470  141.1360 C   0  0  0  0  0  1  0  0  0  0  0  0
  189.0570  177.1300  144.3230 C   0  0  0  0  0  0  0  0  0  0  0  0
  191.5340  177.4270  145.5420 C   0  0  0  0  0  3  0  0  0  0  0  0
  190.1690  177.3810  143.5680 C   0  0  0  0  0  0  0  0  0  0  0  0
  191.4270  177.5390  144.1470 C   0  0  0  0  0  3  0  0  0  0  0  0
  190.3930  177.1590  146.3220 C   0  0  0  0  0  3  0  0  0  0  0  0
  188.4570  177.1730  142.0160 C   0  0  1  0  0  3  0  0  0  0  0  0
  189.8840  177.4420  142.1860 N   0  0  0  0  0  2  0  0  0  0  0  0
  189.1370  177.0040  145.7120 C   0  0  0  0  0  3  0  0  0  0  0  0
  183.5060  178.8620  142.5690 C   0  0  0  0  0  2  0  0  0  0  0  0
  183.8130  178.2830  141.1920 C   0  0  0  0  0  2  0  0  0  0  0  0
  183.2060  179.7230  139.2150 C   0  0  0  0  0  0  0  0  0  0  0  0
  182.2560  180.1810  138.3080 O   0  0  0  0  0  0  0  0  0  0  0  0
  184.3850  180.1630  139.1470 O   0  0  0  0  0  1  0  0  0  0  0  0
  182.8440  178.7640  140.2170 N   0  0  0  0  0  0  0  0  0  0  0  0
  181.4630  178.3310  140.3480 C   0  0  0  0  0  1  0  0  0  0  0  0
  1  5  1  6  0  0  0
  1  8  1  0  0  0  0
  3  4  1  1  0  0  0
  5  7  1  0  0  0  0
  6  3  1  0  0  0  0
  7 19  1  6  0  0  0
  7  6  1  0  0  0  0
  8  3  1  0  0  0  0
  8  2  1  6  0  0  0
  9  1  1  0  0  0  0
  9 11  1  1  0  0  0
 11 18  1  0  0  0  0
 12 15  1  0  0  0  0
 13 14  1  0  0  0  0
 13 11  2  0  0  0  0
 14 12  2  0  0  0  0
 16 10  1  1  0  0  0
 16 17  1  0  0  0  0
 16  9  1  0  0  0  0
 17 13  1  0  0  0  0
 18 15  2  0  0  0  0
 20 19  1  0  0  0  0
 21 24  1  0  0  0  0
 22 21  2  0  0  0  0
 23 21  1  0  0  0  0
 24 25  1  0  0  0  0
 24 20  1  0  0  0  0
M  END
>  <MODEL>
1

>  <REMARK>
 VINA RESULT:      -8.6      0.000      0.000
  Name = 
  4 active torsions:
  status: ('A' for Active; 'I' for Inactive)
    1  A    between atoms: C_1  and  C_3
    2  A    between atoms: C_6  and  C_15
    3  A    between atoms: C_6  and  C_23
    4  A    between atoms: C_15  and  N_21
                            x       y       z     vdW  Elec       q    Type
                         _______ _______ _______ _____ _____    ______ ____

>  <TORSDO>
F 4

$$$$
=
 OpenBabel10262419463D

 25 27  0  0  1  0  0  0  0  0999 V2000
  186.8160  177.9590  144.0990 C   0  0  1  0  0  3  0  0  0  0  0  0
  186.0790  176.9200  146.1550 O   0  0  0  0  0  1  0  0  0  0  0  0
  185.7430  179.2880  145.9030 C   0  0  2  0  0  3  0  0  0  0  0  0
  185.3980  179.3420  147.2540 O   0  0  0  0  0  1  0  0  0  0  0  0
  185.5820  177.8060  143.4350 O   0  0  0  0  0  0  0  0  0  0  0  0
  184.4840  179.2510  145.0390 C   0  0  0  0  0  2  0  0  0  0  0  0
  184.8880  179.0240  143.5780 C   0  0  2  0  0  3  0  0  0  0  0  0
  186.6420  178.0810  145.6200 C   0  0  2  0  0  3  0  0  0  0  0  0
  187.8670  176.9160  143.6740 C   0  0  2  0  0  3  0  0  0  0  0  0
  187.9200  178.0810  141.3150 C   0  0  0  0  0  1  0  0  0  0  0  0
  189.0710  177.0110  144.5420 C   0  0  0  0  0  0  0  0  0  0  0  0
  191.5580  177.2090  145.7590 C   0  0  0  0  0  3  0  0  0  0  0  0
  190.1960  177.1710  143.7830 C   0  0  0  0  0  0  0  0  0  0  0  0
  191.4610  177.2770  144.3610 C   0  0  0  0  0  3  0  0  0  0  0  0
  190.4030  177.0340  146.5440 C   0  0  0  0  0  3  0  0  0  0  0  0
  188.4780  177.0060  142.2330 C   0  0  1  0  0  3  0  0  0  0  0  0
  189.9170  177.2000  142.3990 N   0  0  0  0  0  2  0  0  0  0  0  0
  189.1420  176.9290  145.9350 C   0  0  0  0  0  3  0  0  0  0  0  0
  183.6710  179.0530  142.6620 C   0  0  0  0  0  2  0  0  0  0  0  0
  182.3700  178.8970  143.4420 C   0  0  0  0  0  2  0  0  0  0  0  0
  179.9860  178.2210  142.9830 C   0  0  0  0  0  0  0  0  0  0  0  0
  178.9420  178.0340  142.0840 O   0  0  0  0  0  0  0  0  0  0  0  0
  179.8070  177.9540  144.2010 O   0  0  0  0  0  1  0  0  0  0  0  0
  181.2540  178.7110  142.5260 N   0  0  0  0  0  0  0  0  0  0  0  0
  181.4830  178.9300  141.1070 C   0  0  0  0  0  1  0  0  0  0  0  0
  1  5  1  6  0  0  0
  1  8  1  0  0  0  0
  3  4  1  1  0  0  0
  5  7  1  0  0  0  0
  6  3  1  0  0  0  0
  7 19  1  6  0  0  0
  7  6  1  0  0  0  0
  8  3  1  0  0  0  0
  8  2  1  6  0  0  0
  9  1  1  0  0  0  0
  9 11  1  1  0  0  0
 11 18  1  0  0  0  0
 12 15  1  0  0  0  0
 13 14  1  0  0  0  0
 13 11  2  0  0  0  0
 14 12  2  0  0  0  0
 16 10  1  1  0  0  0
 16 17  1  0  0  0  0
 16  9  1  0  0  0  0
 17 13  1  0  0  0  0
 18 15  2  0  0  0  0
 19 20  1  0  0  0  0
 21 23  1  0  0  0  0
 22 21  2  0  0  0  0
 24 21  1  0  0  0  0
 24 20  1  0  0  0  0
 25 24  1  0  0  0  0
M  END
>  <MODEL>
2

>  <REMARK>
 VINA RESULT:      -8.4      1.838      2.241
  Name = 
  4 active torsions:
  status: ('A' for Active; 'I' for Inactive)
    1  A    between atoms: C_1  and  C_3
    2  A    between atoms: C_6  and  C_15
    3  A    between atoms: C_6  and  C_23
    4  A    between atoms: C_15  and  N_21
                            x       y       z     vdW  Elec       q    Type
                         _______ _______ _______ _____ _____    ______ ____

>  <TORSDO>
F 4

$$$$
=
 OpenBabel10262419463D

 25 27  0  0  1  0  0  0  0  0999 V2000
  188.5850  177.6310  143.2230 C   0  0  1  0  0  3  0  0  0  0  0  0
  186.2740  176.9320  143.0630 O   0  0  0  0  0  1  0  0  0  0  0  0
  186.8790  179.0570  142.1120 C   0  0  2  0  0  3  0  0  0  0  0  0
  185.5190  179.3290  141.9570 O   0  0  0  0  0  1  0  0  0  0  0  0
  188.9670  177.0730  141.9860 O   0  0  0  0  0  0  0  0  0  0  0  0
  187.4710  178.5600  140.7960 C   0  0  0  0  0  2  0  0  0  0  0  0
  188.9170  178.1120  141.0360 C   0  0  2  0  0  3  0  0  0  0  0  0
  187.1040  178.0430  143.2370 C   0  0  2  0  0  3  0  0  0  0  0  0
  189.0050  176.7750  144.4310 C   0  0  2  0  0  3  0  0  0  0  0  0
  191.5070  177.2730  143.7840 C   0  0  0  0  0  1  0  0  0  0  0  0
  188.4660  177.3560  145.6900 C   0  0  0  0  0  0  0  0  0  0  0  0
  187.9020  178.4090  148.1960 C   0  0  0  0  0  3  0  0  0  0  0  0
  189.4730  177.5600  146.5920 C   0  0  0  0  0  0  0  0  0  0  0  0
  189.2260  178.0910  147.8570 C   0  0  0  0  0  3  0  0  0  0  0  0
  186.8610  178.1910  147.2740 C   0  0  0  0  0  3  0  0  0  0  0  0
  190.5320  176.6230  144.7530 C   0  0  1  0  0  3  0  0  0  0  0  0
  190.7350  177.1680  146.0940 N   0  0  0  0  0  2  0  0  0  0  0  0
  187.1380  177.6540  146.0060 C   0  0  0  0  0  3  0  0  0  0  0  0
  189.5790  177.6750  139.7350 C   0  0  0  0  0  2  0  0  0  0  0  0
  190.7420  176.7210  139.9830 C   0  0  0  0  0  2  0  0  0  0  0  0
  192.9340  176.8560  138.7470 C   0  0  0  0  0  0  0  0  0  0  0  0
  193.6600  176.7160  137.5690 O   0  0  0  0  0  0  0  0  0  0  0  0
  193.5220  177.2460  139.7910 O   0  0  0  0  0  1  0  0  0  0  0  0
  191.5300  176.5630  138.7690 N   0  0  0  0  0  0  0  0  0  0  0  0
  190.8400  176.2050  137.5410 C   0  0  0  0  0  1  0  0  0  0  0  0
  1  5  1  6  0  0  0
  1  8  1  0  0  0  0
  1  9  1  0  0  0  0
  3  4  1  6  0  0  0
  3  8  1  0  0  0  0
  6  7  1  0  0  0  0
  6  3  1  0  0  0  0
  7 19  1  6  0  0  0
  7  5  1  0  0  0  0
  8  2  1  6  0  0  0
  9 16  1  0  0  0  0
  9 11  1  1  0  0  0
 11 18  2  0  0  0  0
 11 13  1  0  0  0  0
 13 14  2  0  0  0  0
 14 12  1  0  0  0  0
 15 12  2  0  0  0  0
 16 10  1  6  0  0  0
 16 17  1  0  0  0  0
 17 13  1  0  0  0  0
 18 15  1  0  0  0  0
 19 20  1  0  0  0  0
 21 24  1  0  0  0  0
 21 23  1  0  0  0  0
 22 21  2  0  0  0  0
 24 20  1  0  0  0  0
 25 24  1  0  0  0  0
M  END
>  <MODEL>
3

>  <REMARK>
 VINA RESULT:      -8.2      3.617      5.886
  Name = 
  4 active torsions:
  status: ('A' for Active; 'I' for Inactive)
    1  A    between atoms: C_1  and  C_3
    2  A    between atoms: C_6  and  C_15
    3  A    between atoms: C_6  and  C_23
    4  A    between atoms: C_15  and  N_21
                            x       y       z     vdW  Elec       q    Type
                         _______ _______ _______ _____ _____    ______ ____

>  <TORSDO>
F 4

$$$$
=
 OpenBabel10262419463D

 25 27  0  0  1  0  0  0  0  0999 V2000
  188.3670  177.6370  143.1840 C   0  0  1  0  0  3  0  0  0  0  0  0
  186.0030  177.1280  143.2180 O   0  0  0  0  0  1  0  0  0  0  0  0
  186.7000  179.1860  142.1860 C   0  0  2  0  0  3  0  0  0  0  0  0
  185.3580  179.5670  142.1320 O   0  0  0  0  0  1  0  0  0  0  0  0
  188.6040  177.0370  141.9310 O   0  0  0  0  0  0  0  0  0  0  0  0
  187.1430  178.6280  140.8360 C   0  0  0  0  0  2  0  0  0  0  0  0
  188.5630  178.0660  140.9700 C   0  0  2  0  0  3  0  0  0  0  0  0
  186.9310  178.1690  143.3070 C   0  0  2  0  0  3  0  0  0  0  0  0
  188.8120  176.7630  144.3700 C   0  0  2  0  0  3  0  0  0  0  0  0
  191.2980  177.1750  143.6120 C   0  0  0  0  0  1  0  0  0  0  0  0
  188.3510  177.3580  145.6530 C   0  0  0  0  0  0  0  0  0  0  0  0
  187.9380  178.4220  148.1840 C   0  0  0  0  0  3  0  0  0  0  0  0
  189.4040  177.5240  146.5090 C   0  0  0  0  0  0  0  0  0  0  0  0
  189.2340  178.0580  147.7860 C   0  0  0  0  0  3  0  0  0  0  0  0
  186.8500  178.2430  147.3100 C   0  0  0  0  0  3  0  0  0  0  0  0
  190.3450  176.5570  144.6220 C   0  0  1  0  0  3  0  0  0  0  0  0
  190.6280  177.0890  145.9540 N   0  0  0  0  0  2  0  0  0  0  0  0
  187.0500  177.7010  146.0300 C   0  0  0  0  0  3  0  0  0  0  0  0
  189.0820  177.5620  139.6290 C   0  0  0  0  0  2  0  0  0  0  0  0
  189.0650  178.6550  138.5660 C   0  0  0  0  0  2  0  0  0  0  0  0
  187.2310  178.3270  136.8690 C   0  0  0  0  0  0  0  0  0  0  0  0
  186.7900  177.7870  135.6660 O   0  0  0  0  0  0  0  0  0  0  0  0
  186.4300  178.9960  137.5750 O   0  0  0  0  0  1  0  0  0  0  0  0
  188.5830  178.1190  137.3020 N   0  0  0  0  0  0  0  0  0  0  0  0
  189.4740  177.2700  136.5290 C   0  0  0  0  0  1  0  0  0  0  0  0
  1  5  1  6  0  0  0
  1  8  1  0  0  0  0
  1  9  1  0  0  0  0
  3  4  1  6  0  0  0
  3  8  1  0  0  0  0
  6  7  1  0  0  0  0
  6  3  1  0  0  0  0
  7 19  1  6  0  0  0
  7  5  1  0  0  0  0
  8  2  1  6  0  0  0
  9 16  1  0  0  0  0
  9 11  1  1  0  0  0
 11 18  2  0  0  0  0
 11 13  1  0  0  0  0
 13 14  2  0  0  0  0
 14 12  1  0  0  0  0
 15 12  2  0  0  0  0
 16 10  1  6  0  0  0
 16 17  1  0  0  0  0
 17 13  1  0  0  0  0
 18 15  1  0  0  0  0
 20 19  1  0  0  0  0
 21 24  1  0  0  0  0
 21 23  1  0  0  0  0
 22 21  2  0  0  0  0
 24 20  1  0  0  0  0
 25 24  1  0  0  0  0
M  END
>  <MODEL>
4

>  <REMARK>
 VINA RESULT:      -7.9      2.930      4.438
  Name = 
  4 active torsions:
  status: ('A' for Active; 'I' for Inactive)
    1  A    between atoms: C_1  and  C_3
    2  A    between atoms: C_6  and  C_15
    3  A    between atoms: C_6  and  C_23
    4  A    between atoms: C_15  and  N_21
                            x       y       z     vdW  Elec       q    Type
                         _______ _______ _______ _____ _____    ______ ____

>  <TORSDO>
F 4

$$$$
=
 OpenBabel10262419463D

 25 27  0  0  1  0  0  0  0  0999 V2000
  187.3120  177.9690  141.8450 C   0  0  1  0  0  3  0  0  0  0  0  0
  185.9300  179.9550  141.8590 O   0  0  0  0  0  1  0  0  0  0  0  0
  185.0300  177.9460  142.8280 C   0  0  2  0  0  3  0  0  0  0  0  0
  183.7880  178.5810  142.8910 O   0  0  0  0  0  1  0  0  0  0  0  0
  187.8860  178.2110  143.1090 O   0  0  0  0  0  0  0  0  0  0  0  0
  185.7250  178.0130  144.1850 C   0  0  0  0  0  2  0  0  0  0  0  0
  187.1480  177.4600  144.0440 C   0  0  2  0  0  3  0  0  0  0  0  0
  185.9000  178.5640  141.7290 C   0  0  2  0  0  3  0  0  0  0  0  0
  188.2420  178.3390  140.6750 C   0  0  2  0  0  3  0  0  0  0  0  0
  190.0340  176.7200  141.7200 C   0  0  0  0  0  1  0  0  0  0  0  0
  187.6150  177.9660  139.3780 C   0  0  0  0  0  0  0  0  0  0  0  0
  186.8530  177.0510  136.8700 C   0  0  0  0  0  3  0  0  0  0  0  0
  188.4570  177.1700  138.6520 C   0  0  0  0  0  0  0  0  0  0  0  0
  188.1050  176.6900  137.3910 C   0  0  0  0  0  3  0  0  0  0  0  0
  185.9880  177.8780  137.6100 C   0  0  0  0  0  3  0  0  0  0  0  0
  189.6480  177.6530  140.5840 C   0  0  1  0  0  3  0  0  0  0  0  0
  189.6780  176.9230  139.3170 N   0  0  0  0  0  2  0  0  0  0  0  0
  186.3680  178.3480  138.8780 C   0  0  0  0  0  3  0  0  0  0  0  0
  187.8620  177.4360  145.3900 C   0  0  0  0  0  2  0  0  0  0  0  0
  189.3280  177.0410  145.2480 C   0  0  0  0  0  2  0  0  0  0  0  0
  191.3600  176.7230  146.7040 C   0  0  0  0  0  0  0  0  0  0  0  0
  191.9860  176.8570  147.9380 O   0  0  0  0  0  1  0  0  0  0  0  0
  191.9850  176.1890  145.7500 O   0  0  0  0  0  0  0  0  0  0  0  0
  190.0150  177.1870  146.5230 N   0  0  0  0  0  0  0  0  0  0  0  0
  189.2670  177.7170  147.6510 C   0  0  0  0  0  1  0  0  0  0  0  0
  1  5  1  1  0  0  0
  3  4  1  1  0  0  0
  3  6  1  0  0  0  0
  5  7  1  0  0  0  0
  7  6  1  0  0  0  0
  7 19  1  1  0  0  0
  8  1  1  0  0  0  0
  8  2  1  1  0  0  0
  8  3  1  0  0  0  0
  9 11  1  6  0  0  0
  9  1  1  0  0  0  0
 12 14  2  0  0  0  0
 12 15  1  0  0  0  0
 13 17  1  0  0  0  0
 13 11  2  0  0  0  0
 14 13  1  0  0  0  0
 15 18  2  0  0  0  0
 16  9  1  0  0  0  0
 16 10  1  1  0  0  0
 17 16  1  0  0  0  0
 18 11  1  0  0  0  0
 20 19  1  0  0  0  0
 20 24  1  0  0  0  0
 21 22  1  0  0  0  0
 23 21  2  0  0  0  0
 24 21  1  0  0  0  0
 24 25  1  0  0  0  0
M  END
>  <MODEL>
5

>  <REMARK>
 VINA RESULT:      -7.9      2.883      6.980
  Name = 
  4 active torsions:
  status: ('A' for Active; 'I' for Inactive)
    1  A    between atoms: C_1  and  C_3
    2  A    between atoms: C_6  and  C_15
    3  A    between atoms: C_6  and  C_23
    4  A    between atoms: C_15  and  N_21
                            x       y       z     vdW  Elec       q    Type
                         _______ _______ _______ _____ _____    ______ ____

>  <TORSDO>
F 4

$$$$
=
 OpenBabel10262419463D

 25 27  0  0  1  0  0  0  0  0999 V2000
  187.7900  177.7630  144.4840 C   0  0  1  0  0  3  0  0  0  0  0  0
  187.9560  176.0010  142.8340 O   0  0  0  0  0  1  0  0  0  0  0  0
  189.1950  178.0280  142.4520 C   0  0  2  0  0  3  0  0  0  0  0  0
  189.4600  177.5740  141.1590 O   0  0  0  0  0  1  0  0  0  0  0  0
  188.9030  177.3330  145.2340 O   0  0  0  0  0  0  0  0  0  0  0  0
  190.3860  177.7450  143.3640 C   0  0  0  0  0  2  0  0  0  0  0  0
  190.0050  178.1000  144.8060 C   0  0  2  0  0  3  0  0  0  0  0  0
  187.9160  177.3890  142.9990 C   0  0  2  0  0  3  0  0  0  0  0  0
  186.4430  177.3660  145.1150 C   0  0  2  0  0  3  0  0  0  0  0  0
  187.2680  178.4980  147.3430 C   0  0  0  0  0  1  0  0  0  0  0  0
  185.3180  177.9940  144.3710 C   0  0  0  0  0  0  0  0  0  0  0  0
  183.0750  179.3140  143.4050 C   0  0  0  0  0  3  0  0  0  0  0  0
  184.5160  178.7000  145.2240 C   0  0  0  0  0  0  0  0  0  0  0  0
  183.3840  179.3770  144.7730 C   0  0  0  0  0  3  0  0  0  0  0  0
  183.8920  178.5800  142.5250 C   0  0  0  0  0  3  0  0  0  0  0  0
  186.1500  177.7890  146.5950 C   0  0  1  0  0  3  0  0  0  0  0  0
  184.9630  178.6410  146.5620 N   0  0  0  0  0  2  0  0  0  0  0  0
  185.0260  177.9060  143.0070 C   0  0  0  0  0  3  0  0  0  0  0  0
  191.1860  177.9050  145.7490 C   0  0  0  0  0  2  0  0  0  0  0  0
  190.7920  177.1260  146.9990 C   0  0  0  0  0  2  0  0  0  0  0  0
  192.7010  176.4700  148.5080 C   0  0  0  0  0  0  0  0  0  0  0  0
  193.7240  175.5880  148.8360 O   0  0  0  0  0  0  0  0  0  0  0  0
  192.5240  177.4990  149.2130 O   0  0  0  0  0  1  0  0  0  0  0  0
  191.8580  176.2100  147.3770 N   0  0  0  0  0  0  0  0  0  0  0  0
  192.1250  175.0710  146.5150 C   0  0  0  0  0  1  0  0  0  0  0  0
  1  9  1  0  0  0  0
  1  5  1  1  0  0  0
  3  4  1  6  0  0  0
  3  8  1  0  0  0  0
  3  6  1  0  0  0  0
  6  7  1  0  0  0  0
  7  5  1  0  0  0  0
  7 19  1  1  0  0  0
  8  2  1  1  0  0  0
  8  1  1  0  0  0  0
  9 11  1  6  0  0  0
  9 16  1  0  0  0  0
 11 13  1  0  0  0  0
 12 14  1  0  0  0  0
 13 17  1  0  0  0  0
 14 13  2  0  0  0  0
 15 18  1  0  0  0  0
 15 12  2  0  0  0  0
 16 10  1  6  0  0  0
 17 16  1  0  0  0  0
 18 11  2  0  0  0  0
 19 20  1  0  0  0  0
 20 24  1  0  0  0  0
 21 22  2  0  0  0  0
 21 23  1  0  0  0  0
 24 21  1  0  0  0  0
 25 24  1  0  0  0  0
M  END
>  <MODEL>
6

>  <REMARK>
 VINA RESULT:      -7.7      3.288      8.170
  Name = 
  4 active torsions:
  status: ('A' for Active; 'I' for Inactive)
    1  A    between atoms: C_1  and  C_3
    2  A    between atoms: C_6  and  C_15
    3  A    between atoms: C_6  and  C_23
    4  A    between atoms: C_15  and  N_21
                            x       y       z     vdW  Elec       q    Type
                         _______ _______ _______ _____ _____    ______ ____

>  <TORSDO>
F 4

$$$$
=
 OpenBabel10262419463D

 25 27  0  0  1  0  0  0  0  0999 V2000
  185.3690  178.4630  143.9630 C   0  0  1  0  0  3  0  0  0  0  0  0
  185.5090  180.1220  145.7180 O   0  0  0  0  0  1  0  0  0  0  0  0
  185.5400  177.8020  146.3520 C   0  0  2  0  0  3  0  0  0  0  0  0
  185.3880  178.2050  147.6800 O   0  0  0  0  0  1  0  0  0  0  0  0
  186.7630  178.3400  143.7980 O   0  0  0  0  0  0  0  0  0  0  0  0
  187.0070  177.5020  146.0570 C   0  0  0  0  0  2  0  0  0  0  0  0
  187.1680  177.2250  144.5580 C   0  0  2  0  0  3  0  0  0  0  0  0
  184.9900  178.8650  145.3960 C   0  0  2  0  0  3  0  0  0  0  0  0
  184.7030  179.3260  142.8760 C   0  0  2  0  0  3  0  0  0  0  0  0
  186.4270  178.3200  141.1620 C   0  0  0  0  0  1  0  0  0  0  0  0
  183.2660  178.9660  142.7370 C   0  0  0  0  0  0  0  0  0  0  0  0
  180.6810  178.2540  142.0180 C   0  0  0  0  0  3  0  0  0  0  0  0
  182.9750  178.6570  141.4380 C   0  0  0  0  0  0  0  0  0  0  0  0
  181.6890  178.2920  141.0420 C   0  0  0  0  0  3  0  0  0  0  0  0
  180.9740  178.5820  143.3550 C   0  0  0  0  0  3  0  0  0  0  0  0
  185.2250  179.2200  141.4030 C   0  0  1  0  0  3  0  0  0  0  0  0
  184.0990  178.7640  140.5900 N   0  0  0  0  0  2  0  0  0  0  0  0
  182.2790  178.9470  143.7250 C   0  0  0  0  0  3  0  0  0  0  0  0
  188.6060  176.8470  144.2220 C   0  0  0  0  0  2  0  0  0  0  0  0
  189.6110  177.6570  145.0330 C   0  0  0  0  0  2  0  0  0  0  0  0
  191.2160  176.6210  146.6760 C   0  0  0  0  0  0  0  0  0  0  0  0
  192.3540  175.8640  146.9290 O   0  0  0  0  0  0  0  0  0  0  0  0
  190.5690  177.1040  147.6430 O   0  0  0  0  0  1  0  0  0  0  0  0
  190.7860  176.8510  145.3270 N   0  0  0  0  0  0  0  0  0  0  0  0
  191.5870  176.3690  144.2140 C   0  0  0  0  0  1  0  0  0  0  0  0
  1  5  1  1  0  0  0
  1  8  1  0  0  0  0
  3  4  1  1  0  0  0
  5  7  1  0  0  0  0
  6  3  1  0  0  0  0
  7 19  1  1  0  0  0
  7  6  1  0  0  0  0
  8  2  1  1  0  0  0
  8  3  1  0  0  0  0
  9 11  1  6  0  0  0
  9  1  1  0  0  0  0
 11 18  1  0  0  0  0
 12 15  1  0  0  0  0
 13 11  2  0  0  0  0
 14 13  1  0  0  0  0
 14 12  2  0  0  0  0
 15 18  2  0  0  0  0
 16 10  1  1  0  0  0
 16  9  1  0  0  0  0
 17 16  1  0  0  0  0
 17 13  1  0  0  0  0
 19 20  1  0  0  0  0
 20 24  1  0  0  0  0
 21 22  2  0  0  0  0
 21 23  1  0  0  0  0
 24 21  1  0  0  0  0
 25 24  1  0  0  0  0
M  END
>  <MODEL>
7

>  <REMARK>
 VINA RESULT:      -7.6      2.316      7.324
  Name = 
  4 active torsions:
  status: ('A' for Active; 'I' for Inactive)
    1  A    between atoms: C_1  and  C_3
    2  A    between atoms: C_6  and  C_15
    3  A    between atoms: C_6  and  C_23
    4  A    between atoms: C_15  and  N_21
                            x       y       z     vdW  Elec       q    Type
                         _______ _______ _______ _____ _____    ______ ____

>  <TORSDO>
F 4

$$$$
=
 OpenBabel10262419463D

 25 27  0  0  1  0  0  0  0  0999 V2000
  188.6080  177.7440  143.9370 C   0  0  1  0  0  3  0  0  0  0  0  0
  190.5070  178.7810  142.8530 O   0  0  0  0  0  1  0  0  0  0  0  0
  189.4130  176.9640  141.7190 C   0  0  2  0  0  3  0  0  0  0  0  0
  190.4730  176.9460  140.8120 O   0  0  0  0  0  1  0  0  0  0  0  0
  187.6490  178.5790  143.3290 O   0  0  0  0  0  0  0  0  0  0  0  0
  188.2310  177.7340  141.1350 C   0  0  0  0  0  2  0  0  0  0  0  0
  187.1500  177.8810  142.2120 C   0  0  2  0  0  3  0  0  0  0  0  0
  189.8550  177.5620  143.0580 C   0  0  2  0  0  3  0  0  0  0  0  0
  188.9240  178.1400  145.3910 C   0  0  2  0  0  3  0  0  0  0  0  0
  186.4150  177.6000  145.9760 C   0  0  0  0  0  1  0  0  0  0  0  0
  189.9900  177.2640  145.9470 C   0  0  0  0  0  0  0  0  0  0  0  0
  191.6810  175.5610  147.3430 C   0  0  0  0  0  3  0  0  0  0  0  0
  189.5730  176.6870  147.1150 C   0  0  0  0  0  0  0  0  0  0  0  0
  190.3950  175.8250  147.8400 C   0  0  0  0  0  3  0  0  0  0  0  0
  192.1170  176.1610  146.1470 C   0  0  0  0  0  3  0  0  0  0  0  0
  187.7900  178.0230  146.4670 C   0  0  1  0  0  3  0  0  0  0  0  0
  188.2650  177.0760  147.4750 N   0  0  0  0  0  2  0  0  0  0  0  0
  191.2680  177.0260  145.4370 C   0  0  0  0  0  3  0  0  0  0  0  0
  185.9150  178.5800  141.6570 C   0  0  0  0  0  2  0  0  0  0  0  0
  185.1790  179.3700  142.7330 C   0  0  0  0  0  2  0  0  0  0  0  0
  183.0180  179.0130  143.9800 C   0  0  0  0  0  0  0  0  0  0  0  0
  181.6820  178.6280  143.9830 O   0  0  0  0  0  0  0  0  0  0  0  0
  183.5570  179.3780  145.0590 O   0  0  0  0  0  1  0  0  0  0  0  0
  183.7730  178.9920  142.7610 N   0  0  0  0  0  0  0  0  0  0  0  0
  183.1720  178.4830  141.5390 C   0  0  0  0  0  1  0  0  0  0  0  0
  1  5  1  6  0  0  0
  1  9  1  0  0  0  0
  3  4  1  6  0  0  0
  3  8  1  0  0  0  0
  6  3  1  0  0  0  0
  6  7  1  0  0  0  0
  7 19  1  6  0  0  0
  7  5  1  0  0  0  0
  8  2  1  6  0  0  0
  8  1  1  0  0  0  0
  9 11  1  1  0  0  0
  9 16  1  0  0  0  0
 11 13  1  0  0  0  0
 12 14  1  0  0  0  0
 13 17  1  0  0  0  0
 13 14  2  0  0  0  0
 15 12  2  0  0  0  0
 16 10  1  6  0  0  0
 16 17  1  0  0  0  0
 18 11  2  0  0  0  0
 18 15  1  0  0  0  0
 19 20  1  0  0  0  0
 20 24  1  0  0  0  0
 21 22  2  0  0  0  0
 21 23  1  0  0  0  0
 24 21  1  0  0  0  0
 25 24  1  0  0  0  0
M  END
>  <MODEL>
8

>  <REMARK>
 VINA RESULT:      -7.6      2.527      4.273
  Name = 
  4 active torsions:
  status: ('A' for Active; 'I' for Inactive)
    1  A    between atoms: C_1  and  C_3
    2  A    between atoms: C_6  and  C_15
    3  A    between atoms: C_6  and  C_23
    4  A    between atoms: C_15  and  N_21
                            x       y       z     vdW  Elec       q    Type
                         _______ _______ _______ _____ _____    ______ ____

>  <TORSDO>
F 4

$$$$
=
 OpenBabel10262419463D

 25 27  0  0  1  0  0  0  0  0999 V2000
  183.8290  178.5320  141.6140 C   0  0  1  0  0  3  0  0  0  0  0  0
  184.7330  179.8610  139.8060 O   0  0  0  0  0  1  0  0  0  0  0  0
  183.8830  177.6730  139.2830 C   0  0  2  0  0  3  0  0  0  0  0  0
  184.4470  177.8010  138.0140 O   0  0  0  0  0  1  0  0  0  0  0  0
  182.5050  178.9850  141.4490 O   0  0  0  0  0  0  0  0  0  0  0  0
  182.3940  178.0100  139.2350 C   0  0  0  0  0  2  0  0  0  0  0  0
  181.8390  178.0230  140.6630 C   0  0  2  0  0  3  0  0  0  0  0  0
  184.6170  178.5570  140.2960 C   0  0  2  0  0  3  0  0  0  0  0  0
  184.5590  179.2080  142.7890 C   0  0  2  0  0  3  0  0  0  0  0  0
  182.3630  178.8920  144.2040 C   0  0  0  0  0  1  0  0  0  0  0  0
  185.7680  178.4260  143.1660 C   0  0  0  0  0  0  0  0  0  0  0  0
  187.8500  176.9870  144.3060 C   0  0  0  0  0  3  0  0  0  0  0  0
  185.7420  178.1180  144.4980 C   0  0  0  0  0  0  0  0  0  0  0  0
  186.7690  177.3950  145.1030 C   0  0  0  0  0  3  0  0  0  0  0  0
  187.8850  177.3100  142.9370 C   0  0  0  0  0  3  0  0  0  0  0  0
  183.8100  179.3560  144.1580 C   0  0  1  0  0  3  0  0  0  0  0  0
  184.5940  178.6210  145.1480 N   0  0  0  0  0  2  0  0  0  0  0  0
  186.8380  178.0410  142.3540 C   0  0  0  0  0  3  0  0  0  0  0  0
  180.3380  178.2820  140.6650 C   0  0  0  0  0  2  0  0  0  0  0  0
  179.8610  178.8680  139.3410 C   0  0  0  0  0  2  0  0  0  0  0  0
  180.3830  181.1110  138.3180 C   0  0  0  0  0  0  0  0  0  0  0  0
  180.4010  182.4990  138.4090 O   0  0  0  0  0  1  0  0  0  0  0  0
  180.8210  180.5560  137.2750 O   0  0  0  0  0  0  0  0  0  0  0  0
  179.8730  180.3230  139.4020 N   0  0  0  0  0  0  0  0  0  0  0  0
  179.4550  180.9640  140.6370 C   0  0  0  0  0  1  0  0  0  0  0  0
  1  5  1  6  0  0  0
  1  9  1  0  0  0  0
  3  4  1  6  0  0  0
  3  8  1  0  0  0  0
  6  3  1  0  0  0  0
  6  7  1  0  0  0  0
  7 19  1  6  0  0  0
  7  5  1  0  0  0  0
  8  2  1  6  0  0  0
  8  1  1  0  0  0  0
  9 11  1  1  0  0  0
  9 16  1  0  0  0  0
 11 13  1  0  0  0  0
 12 14  1  0  0  0  0
 13 14  2  0  0  0  0
 13 17  1  0  0  0  0
 15 12  2  0  0  0  0
 16 10  1  6  0  0  0
 16 17  1  0  0  0  0
 18 15  1  0  0  0  0
 18 11  2  0  0  0  0
 20 24  1  0  0  0  0
 20 19  1  0  0  0  0
 21 22  1  0  0  0  0
 21 24  1  0  0  0  0
 23 21  2  0  0  0  0
 24 25  1  0  0  0  0
M  END
>  <MODEL>
9

>  <REMARK>
 VINA RESULT:      -7.3      2.910      4.984
  Name = 
  4 active torsions:
  status: ('A' for Active; 'I' for Inactive)
    1  A    between atoms: C_1  and  C_3
    2  A    between atoms: C_6  and  C_15
    3  A    between atoms: C_6  and  C_23
    4  A    between atoms: C_15  and  N_21
                            x       y       z     vdW  Elec       q    Type
                         _______ _______ _______ _____ _____    ______ ____

>  <TORSDO>
F 4

$$$$
