=
 OpenBabel10262419113D

 34 38  0  0  1  0  0  0  0  0999 V2000
  188.6850  177.2660  143.5310 N   0  0  0  0  0  0  0  0  0  0  0  0
  190.5610  175.9200  142.8070 C   0  0  2  0  0  3  0  0  0  0  0  0
  189.5870  177.0790  144.6660 C   0  0  1  0  0  3  0  0  0  0  0  0
  190.9100  176.5760  144.1280 C   0  0  1  0  0  3  0  0  0  0  0  0
  189.3140  176.6610  142.3540 C   0  0  2  0  0  3  0  0  0  0  0  0
  190.2380  174.5710  142.9790 O   0  0  0  0  0  1  0  0  0  0  0  0
  191.0980  176.8560  139.4280 C   0  0  2  0  0  3  0  0  0  0  0  0
  189.1900  178.3430  139.1550 C   0  0  2  0  0  3  0  0  0  0  0  0
  189.6670  177.7460  141.3320 C   0  0  2  0  0  3  0  0  0  0  0  0
  189.7580  176.8120  137.2040 C   0  0  0  0  0  2  0  0  0  0  0  0
  188.7880  177.8770  137.7630 C   0  0  0  0  0  2  0  0  0  0  0  0
  188.5410  178.7760  141.2300 C   0  0  0  0  0  2  0  0  0  0  0  0
  189.7050  177.1870  139.9440 C   0  0  2  0  0  3  0  0  0  0  0  0
  191.1230  176.7090  137.9280 C   0  0  2  0  0  3  0  0  0  0  0  0
  191.0880  175.5990  138.7970 O   0  0  0  0  0  0  0  0  0  0  0  0
  188.1370  178.9030  139.8820 O   0  0  0  0  0  0  0  0  0  0  0  0
  191.6050  175.6440  145.1190 C   0  0  0  0  0  2  0  0  0  0  0  0
  191.9650  176.3830  146.3960 C   0  0  0  0  0  2  0  0  0  0  0  0
  191.8980  175.5130  147.4850 O   0  0  0  0  0  1  0  0  0  0  0  0
  187.4780  176.5010  143.8070 C   0  0  0  0  0  2  0  0  0  0  0  0
  186.3350  177.4440  144.1290 C   0  0  0  0  0  2  0  0  0  0  0  0
  184.4020  178.2820  142.9090 C   0  0  0  0  0  3  0  0  0  0  0  0
  185.6500  177.8340  142.8710 C   0  0  0  0  0  3  0  0  0  0  0  0
  181.5570  178.6860  142.6530 O   0  0  0  0  0  0  0  0  0  0  0  0
  183.7090  178.6670  141.7180 N   0  0  0  0  0  0  0  0  0  0  0  0
  182.3100  178.8500  141.6550 C   0  0  0  0  0  0  0  0  0  0  0  0
  180.4180  179.4720  140.0980 C   0  0  0  0  0  1  0  0  0  0  0  0
  182.8600  179.3650  139.3770 C   0  0  0  0  0  2  0  0  0  0  0  0
  184.4850  178.9730  140.1570 S   0  0  0  0  0  0  0  0  0  0  0  0
  181.8210  179.2330  140.3850 N   0  0  0  0  0  0  0  0  0  0  0  0
  189.7740  178.4060  145.3850 C   0  0  0  0  0  2  0  0  0  0  0  0
  188.8460  178.4980  146.5800 C   0  0  0  0  0  2  0  0  0  0  0  0
  188.7250  177.1580  147.2180 C   0  0  0  0  0  3  0  0  0  0  0  0
  188.1430  177.0400  148.2830 O   0  0  0  0  0  0  0  0  0  0  0  0
  1 20  1  0  0  0  0
  1  3  1  0  0  0  0
  2  6  1  1  0  0  0
  2  4  1  0  0  0  0
  3 31  1  6  0  0  0
  4  3  1  0  0  0  0
  4 17  1  1  0  0  0
  5  2  1  0  0  0  0
  5  1  1  1  0  0  0
  7 15  1  1  0  0  0
  7 13  1  0  0  0  0
  8 11  1  6  0  0  0
  8 16  1  0  0  0  0
  8 13  1  0  0  0  0
  9 12  1  6  0  0  0
  9  5  1  0  0  0  0
 10 11  1  0  0  0  0
 10 14  1  0  0  0  0
 13  9  1  0  0  0  0
 14 15  1  0  0  0  0
 14  7  1  0  0  0  0
 16 12  1  0  0  0  0
 17 18  1  0  0  0  0
 18 19  1  0  0  0  0
 20 21  1  0  0  0  0
 23 22  2  0  0  0  0
 23 21  1  0  0  0  0
 25 22  1  0  0  0  0
 26 25  1  0  0  0  0
 26 24  2  0  0  0  0
 27 30  1  0  0  0  0
 28 29  1  0  0  0  0
 28 30  1  0  0  0  0
 29 25  1  0  0  0  0
 30 26  1  0  0  0  0
 31 32  1  0  0  0  0
 32 33  1  0  0  0  0
 33 34  2  0  0  0  0
M  END
>  <MODEL>
1

>  <REMARK>
 VINA RESULT:      -7.3      0.000      0.000
  Name = 
  10 active torsions:
  status: ('A' for Active; 'I' for Inactive)
    1  A    between atoms: C_3  and  N_13
    2  A    between atoms: C_4  and  C_31
    3  A    between atoms: N_5  and  C_18
    4  A    between atoms: C_7  and  C_8
    5  A    between atoms: C_8  and  C_28
    6  A    between atoms: C_12  and  C_16
    7  A    between atoms: C_16  and  C_23
    8  A    between atoms: C_17  and  C_29
    9  A    between atoms: C_18  and  C_29
   10  A    between atoms: C_23  and  C_26
                            x       y       z     vdW  Elec       q    Type
                         _______ _______ _______ _____ _____    ______ ____

>  <TORSDO>
F 10

$$$$
=
 OpenBabel10262419113D

 34 38  0  0  1  0  0  0  0  0999 V2000
  185.7960  178.2050  142.2750 N   0  0  0  0  0  0  0  0  0  0  0  0
  184.3890  179.3490  143.8770 C   0  0  2  0  0  3  0  0  0  0  0  0
  186.3530  178.0020  143.6110 C   0  0  1  0  0  3  0  0  0  0  0  0
  185.2910  178.3840  144.6200 C   0  0  1  0  0  3  0  0  0  0  0  0
  184.5310  178.9310  142.4230 C   0  0  2  0  0  3  0  0  0  0  0  0
  184.8370  180.6670  144.0070 O   0  0  0  0  0  1  0  0  0  0  0  0
  181.1320  178.8710  142.8920 C   0  0  2  0  0  3  0  0  0  0  0  0
  181.5130  178.0960  140.6160 C   0  0  2  0  0  3  0  0  0  0  0  0
  183.3620  178.0410  141.9950 C   0  0  2  0  0  3  0  0  0  0  0  0
  179.6430  179.7840  140.9710 C   0  0  0  0  0  2  0  0  0  0  0  0
  180.4440  178.9500  139.9480 C   0  0  0  0  0  2  0  0  0  0  0  0
  183.6260  177.4280  140.6190 C   0  0  0  0  0  2  0  0  0  0  0  0
  182.1300  178.8530  141.7430 C   0  0  2  0  0  3  0  0  0  0  0  0
  179.7670  179.3280  142.4460 C   0  0  2  0  0  3  0  0  0  0  0  0
  180.6730  180.1840  143.1060 O   0  0  0  0  0  0  0  0  0  0  0  0
  182.5460  177.7200  139.7560 O   0  0  0  0  0  0  0  0  0  0  0  0
  185.9050  178.9630  145.8930 C   0  0  0  0  0  2  0  0  0  0  0  0
  186.2590  177.8600  146.8740 C   0  0  0  0  0  2  0  0  0  0  0  0
  187.5360  178.0770  147.3940 O   0  0  0  0  0  1  0  0  0  0  0  0
  186.7070  179.0810  141.5530 C   0  0  0  0  0  2  0  0  0  0  0  0
  187.0900  178.4450  140.2320 C   0  0  0  0  0  2  0  0  0  0  0  0
  189.0930  177.4440  139.2750 C   0  0  0  0  0  3  0  0  0  0  0  0
  188.5600  178.2390  140.1920 C   0  0  0  0  0  3  0  0  0  0  0  0
  190.5670  176.5880  136.9470 O   0  0  0  0  0  0  0  0  0  0  0  0
  190.5040  177.2210  139.2050 N   0  0  0  0  0  0  0  0  0  0  0  0
  191.1700  176.8010  138.0330 C   0  0  0  0  0  0  0  0  0  0  0  0
  193.4450  176.2150  137.0970 C   0  0  0  0  0  1  0  0  0  0  0  0
  193.0570  176.9390  139.5090 C   0  0  0  0  0  2  0  0  0  0  0  0
  191.6240  177.4360  140.5590 S   0  0  0  0  0  0  0  0  0  0  0  0
  192.5680  176.6400  138.1730 N   0  0  0  0  0  0  0  0  0  0  0  0
  186.7460  176.5410  143.7770 C   0  0  0  0  0  2  0  0  0  0  0  0
  188.1830  176.3250  143.3480 C   0  0  0  0  0  2  0  0  0  0  0  0
  189.0650  177.2870  144.0650 C   0  0  0  0  0  3  0  0  0  0  0  0
  189.6240  176.9500  145.0950 O   0  0  0  0  0  0  0  0  0  0  0  0
  1  3  1  0  0  0  0
  2  6  1  6  0  0  0
  2  4  1  0  0  0  0
  3 31  1  6  0  0  0
  3  4  1  0  0  0  0
  4 17  1  1  0  0  0
  5  1  1  1  0  0  0
  5  2  1  0  0  0  0
  7 15  1  1  0  0  0
  8 11  1  6  0  0  0
  8 13  1  0  0  0  0
  9 12  1  6  0  0  0
  9  5  1  0  0  0  0
 10 14  1  0  0  0  0
 11 10  1  0  0  0  0
 13  9  1  0  0  0  0
 13  7  1  0  0  0  0
 14  7  1  0  0  0  0
 14 15  1  0  0  0  0
 16  8  1  0  0  0  0
 16 12  1  0  0  0  0
 17 18  1  0  0  0  0
 18 19  1  0  0  0  0
 20  1  1  0  0  0  0
 21 20  1  0  0  0  0
 22 23  2  0  0  0  0
 23 21  1  0  0  0  0
 24 26  2  0  0  0  0
 25 22  1  0  0  0  0
 25 29  1  0  0  0  0
 26 30  1  0  0  0  0
 26 25  1  0  0  0  0
 27 30  1  0  0  0  0
 28 29  1  0  0  0  0
 30 28  1  0  0  0  0
 32 31  1  0  0  0  0
 32 33  1  0  0  0  0
 33 34  2  0  0  0  0
M  END
>  <MODEL>
2

>  <REMARK>
 VINA RESULT:      -6.5      2.605      7.739
  Name = 
  10 active torsions:
  status: ('A' for Active; 'I' for Inactive)
    1  A    between atoms: C_3  and  N_13
    2  A    between atoms: C_4  and  C_31
    3  A    between atoms: N_5  and  C_18
    4  A    between atoms: C_7  and  C_8
    5  A    between atoms: C_8  and  C_28
    6  A    between atoms: C_12  and  C_16
    7  A    between atoms: C_16  and  C_23
    8  A    between atoms: C_17  and  C_29
    9  A    between atoms: C_18  and  C_29
   10  A    between atoms: C_23  and  C_26
                            x       y       z     vdW  Elec       q    Type
                         _______ _______ _______ _____ _____    ______ ____

>  <TORSDO>
F 10

$$$$
=
 OpenBabel10262419113D

 34 38  0  0  1  0  0  0  0  0999 V2000
  182.9590  178.7620  139.2720 N   0  0  0  0  0  0  0  0  0  0  0  0
  181.7000  178.6940  141.3370 C   0  0  2  0  0  3  0  0  0  0  0  0
  181.7010  179.4790  139.0730 C   0  0  1  0  0  3  0  0  0  0  0  0
  181.1050  179.7580  140.4360 C   0  0  1  0  0  3  0  0  0  0  0  0
  183.0320  178.3690  140.6820 C   0  0  2  0  0  3  0  0  0  0  0  0
  180.9150  177.5370  141.3460 O   0  0  0  0  0  1  0  0  0  0  0  0
  183.7690  179.4110  143.8680 C   0  0  2  0  0  3  0  0  0  0  0  0
  185.8830  178.7220  142.8780 C   0  0  2  0  0  3  0  0  0  0  0  0
  184.1760  179.1130  141.3760 C   0  0  2  0  0  3  0  0  0  0  0  0
  185.4080  177.9520  145.2560 C   0  0  0  0  0  2  0  0  0  0  0  0
  186.3810  177.8990  144.0580 C   0  0  0  0  0  2  0  0  0  0  0  0
  185.5100  178.8050  140.6950 C   0  0  0  0  0  2  0  0  0  0  0  0
  184.4020  178.5850  142.7580 C   0  0  2  0  0  3  0  0  0  0  0  0
  184.3640  179.0960  145.2170 C   0  0  2  0  0  3  0  0  0  0  0  0
  183.1300  178.5630  144.7910 O   0  0  0  0  0  0  0  0  0  0  0  0
  186.4340  178.3350  141.6550 O   0  0  0  0  0  0  0  0  0  0  0  0
  179.5780  179.7530  140.3950 C   0  0  0  0  0  2  0  0  0  0  0  0
  179.0150  181.0020  141.0500 C   0  0  0  0  0  2  0  0  0  0  0  0
  179.5240  181.1320  142.3430 O   0  0  0  0  0  1  0  0  0  0  0  0
  182.8870  177.5350  138.4930 C   0  0  0  0  0  2  0  0  0  0  0  0
  183.7400  177.6680  137.2470 C   0  0  0  0  0  2  0  0  0  0  0  0
  186.1740  177.5880  137.2410 C   0  0  0  0  0  3  0  0  0  0  0  0
  185.0280  176.9570  137.4550 C   0  0  0  0  0  3  0  0  0  0  0  0
  188.3800  178.5770  138.8150 O   0  0  0  0  0  0  0  0  0  0  0  0
  187.4340  176.9370  137.4300 N   0  0  0  0  0  0  0  0  0  0  0  0
  188.4780  177.4740  138.2140 C   0  0  0  0  0  0  0  0  0  0  0  0
  190.8330  177.0340  139.0230 C   0  0  0  0  0  1  0  0  0  0  0  0
  189.5420  175.4410  137.5100 C   0  0  0  0  0  2  0  0  0  0  0  0
  187.8760  175.3770  136.7200 S   0  0  0  0  0  0  0  0  0  0  0  0
  189.6420  176.6730  138.2750 N   0  0  0  0  0  0  0  0  0  0  0  0
  181.9750  180.7810  138.3350 C   0  0  0  0  0  2  0  0  0  0  0  0
  180.9360  181.0080  137.2550 C   0  0  0  0  0  2  0  0  0  0  0  0
  180.6060  179.7100  136.6040 C   0  0  0  0  0  3  0  0  0  0  0  0
  181.0470  179.4540  135.4960 O   0  0  0  0  0  0  0  0  0  0  0  0
  2  6  1  6  0  0  0
  3 31  1  1  0  0  0
  3  1  1  0  0  0  0
  3  4  1  0  0  0  0
  4 17  1  6  0  0  0
  4  2  1  0  0  0  0
  5  1  1  6  0  0  0
  5  2  1  0  0  0  0
  5  9  1  0  0  0  0
  7 15  1  1  0  0  0
  7 14  1  0  0  0  0
  8 11  1  1  0  0  0
  9 12  1  6  0  0  0
  9 13  1  0  0  0  0
 11 10  1  0  0  0  0
 12 16  1  0  0  0  0
 13  8  1  0  0  0  0
 13  7  1  0  0  0  0
 14 10  1  0  0  0  0
 15 14  1  0  0  0  0
 16  8  1  0  0  0  0
 17 18  1  0  0  0  0
 18 19  1  0  0  0  0
 20  1  1  0  0  0  0
 21 23  1  0  0  0  0
 21 20  1  0  0  0  0
 22 25  1  0  0  0  0
 22 23  2  0  0  0  0
 25 26  1  0  0  0  0
 26 30  1  0  0  0  0
 26 24  2  0  0  0  0
 28 30  1  0  0  0  0
 29 25  1  0  0  0  0
 29 28  1  0  0  0  0
 30 27  1  0  0  0  0
 32 31  1  0  0  0  0
 33 32  1  0  0  0  0
 34 33  2  0  0  0  0
M  END
>  <MODEL>
3

>  <REMARK>
 VINA RESULT:      -6.3      3.621      9.290
  Name = 
  10 active torsions:
  status: ('A' for Active; 'I' for Inactive)
    1  A    between atoms: C_3  and  N_13
    2  A    between atoms: C_4  and  C_31
    3  A    between atoms: N_5  and  C_18
    4  A    between atoms: C_7  and  C_8
    5  A    between atoms: C_8  and  C_28
    6  A    between atoms: C_12  and  C_16
    7  A    between atoms: C_16  and  C_23
    8  A    between atoms: C_17  and  C_29
    9  A    between atoms: C_18  and  C_29
   10  A    between atoms: C_23  and  C_26
                            x       y       z     vdW  Elec       q    Type
                         _______ _______ _______ _____ _____    ______ ____

>  <TORSDO>
F 10

$$$$
=
 OpenBabel10262419113D

 34 38  0  0  1  0  0  0  0  0999 V2000
  182.9990  177.6930  140.1660 N   0  0  0  0  0  0  0  0  0  0  0  0
  183.2180  179.3990  138.4640 C   0  0  2  0  0  3  0  0  0  0  0  0
  181.9160  178.6610  140.3360 C   0  0  1  0  0  3  0  0  0  0  0  0
  181.8330  179.4910  139.0720 C   0  0  1  0  0  3  0  0  0  0  0  0
  183.7420  178.0610  138.9580 C   0  0  2  0  0  3  0  0  0  0  0  0
  184.0540  180.4100  138.9460 O   0  0  0  0  0  1  0  0  0  0  0  0
  185.3460  177.1240  136.0710 C   0  0  2  0  0  3  0  0  0  0  0  0
  184.6080  175.0620  137.1340 C   0  0  2  0  0  3  0  0  0  0  0  0
  183.5710  176.9800  137.8870 C   0  0  2  0  0  3  0  0  0  0  0  0
  186.9780  175.1100  136.2090 C   0  0  0  0  0  2  0  0  0  0  0  0
  185.9140  174.2950  136.9760 C   0  0  0  0  0  2  0  0  0  0  0  0
  182.9840  175.7060  138.4970 C   0  0  0  0  0  2  0  0  0  0  0  0
  184.8990  176.5030  137.3870 C   0  0  2  0  0  3  0  0  0  0  0  0
  186.4410  176.3260  135.4130 C   0  0  2  0  0  3  0  0  0  0  0  0
  186.7000  177.4970  136.1540 O   0  0  0  0  0  0  0  0  0  0  0  0
  183.8170  174.6080  138.1910 O   0  0  0  0  0  0  0  0  0  0  0  0
  181.3760  180.9190  139.3640 C   0  0  0  0  0  2  0  0  0  0  0  0
  180.8290  181.5790  138.1110 C   0  0  0  0  0  2  0  0  0  0  0  0
  181.4460  182.8150  137.9160 O   0  0  0  0  0  1  0  0  0  0  0  0
  183.9070  177.8580  141.2910 C   0  0  0  0  0  2  0  0  0  0  0  0
  183.2820  178.7730  142.3250 C   0  0  0  0  0  2  0  0  0  0  0  0
  185.3010  178.3250  143.6110 C   0  0  0  0  0  3  0  0  0  0  0  0
  184.0110  178.6330  143.6110 C   0  0  0  0  0  3  0  0  0  0  0  0
  187.9920  177.3160  143.8640 O   0  0  0  0  0  0  0  0  0  0  0  0
  186.0370  178.1820  144.8290 N   0  0  0  0  0  0  0  0  0  0  0  0
  187.3550  177.6800  144.8890 C   0  0  0  0  0  0  0  0  0  0  0  0
  189.2440  177.1360  146.4790 C   0  0  0  0  0  1  0  0  0  0  0  0
  187.0010  178.0880  147.2270 C   0  0  0  0  0  2  0  0  0  0  0  0
  185.4190  178.6060  146.4330 S   0  0  0  0  0  0  0  0  0  0  0  0
  187.9060  177.6190  146.1900 N   0  0  0  0  0  0  0  0  0  0  0  0
  180.6090  177.9190  140.5740 C   0  0  0  0  0  2  0  0  0  0  0  0
  179.5980  178.8260  141.2480 C   0  0  0  0  0  2  0  0  0  0  0  0
  179.6660  178.6330  142.7230 C   0  0  0  0  0  3  0  0  0  0  0  0
  179.6310  177.5080  143.1930 O   0  0  0  0  0  0  0  0  0  0  0  0
  1  3  1  0  0  0  0
  1 20  1  0  0  0  0
  2  6  1  1  0  0  0
  2  5  1  0  0  0  0
  2  4  1  0  0  0  0
  3 31  1  6  0  0  0
  4 17  1  1  0  0  0
  4  3  1  0  0  0  0
  5  1  1  1  0  0  0
  7 15  1  1  0  0  0
  7 13  1  0  0  0  0
  8 11  1  1  0  0  0
  8 13  1  0  0  0  0
  8 16  1  0  0  0  0
  9 12  1  1  0  0  0
  9  5  1  0  0  0  0
 10 11  1  0  0  0  0
 13  9  1  0  0  0  0
 14  7  1  0  0  0  0
 14 15  1  0  0  0  0
 14 10  1  0  0  0  0
 16 12  1  0  0  0  0
 18 17  1  0  0  0  0
 19 18  1  0  0  0  0
 20 21  1  0  0  0  0
 21 23  1  0  0  0  0
 22 25  1  0  0  0  0
 23 22  2  0  0  0  0
 24 26  2  0  0  0  0
 25 26  1  0  0  0  0
 25 29  1  0  0  0  0
 26 30  1  0  0  0  0
 29 28  1  0  0  0  0
 30 27  1  0  0  0  0
 30 28  1  0  0  0  0
 31 32  1  0  0  0  0
 32 33  1  0  0  0  0
 33 34  2  0  0  0  0
M  END
>  <MODEL>
4

>  <REMARK>
 VINA RESULT:      -6.3      3.471      8.256
  Name = 
  10 active torsions:
  status: ('A' for Active; 'I' for Inactive)
    1  A    between atoms: C_3  and  N_13
    2  A    between atoms: C_4  and  C_31
    3  A    between atoms: N_5  and  C_18
    4  A    between atoms: C_7  and  C_8
    5  A    between atoms: C_8  and  C_28
    6  A    between atoms: C_12  and  C_16
    7  A    between atoms: C_16  and  C_23
    8  A    between atoms: C_17  and  C_29
    9  A    between atoms: C_18  and  C_29
   10  A    between atoms: C_23  and  C_26
                            x       y       z     vdW  Elec       q    Type
                         _______ _______ _______ _____ _____    ______ ____

>  <TORSDO>
F 10

$$$$
=
 OpenBabel10262419113D

 34 38  0  0  1  0  0  0  0  0999 V2000
  182.2500  178.3640  140.6250 N   0  0  0  0  0  0  0  0  0  0  0  0
  183.2820  179.3800  138.6880 C   0  0  2  0  0  3  0  0  0  0  0  0
  181.4290  179.4980  140.2030 C   0  0  1  0  0  3  0  0  0  0  0  0
  181.8580  179.8840  138.8030 C   0  0  1  0  0  3  0  0  0  0  0  0
  183.3290  178.2030  139.6470 C   0  0  2  0  0  3  0  0  0  0  0  0
  184.1990  180.3430  139.1200 O   0  0  0  0  0  1  0  0  0  0  0  0
  181.2800  175.4570  139.8430 C   0  0  2  0  0  3  0  0  0  0  0  0
  181.6750  175.8350  137.4720 C   0  0  2  0  0  3  0  0  0  0  0  0
  183.1610  176.8810  138.8940 C   0  0  2  0  0  3  0  0  0  0  0  0
  179.2860  175.3300  138.1860 C   0  0  0  0  0  2  0  0  0  0  0  0
  180.2290  175.6910  137.0170 C   0  0  0  0  0  2  0  0  0  0  0  0
  183.5280  177.0500  137.4190 C   0  0  0  0  0  2  0  0  0  0  0  0
  181.7190  176.4870  138.8130 C   0  0  2  0  0  3  0  0  0  0  0  0
  179.9810  174.7950  139.4620 C   0  0  2  0  0  3  0  0  0  0  0  0
  180.0490  175.8390  140.4070 O   0  0  0  0  0  0  0  0  0  0  0  0
  182.4570  176.6080  136.6110 O   0  0  0  0  0  0  0  0  0  0  0  0
  181.7080  181.3850  138.5620 C   0  0  0  0  0  2  0  0  0  0  0  0
  180.6010  181.6660  137.5610 C   0  0  0  0  0  2  0  0  0  0  0  0
  179.7740  182.6830  138.0390 O   0  0  0  0  0  1  0  0  0  0  0  0
  182.8740  178.7280  141.8890 C   0  0  0  0  0  2  0  0  0  0  0  0
  184.3100  178.2450  141.9100 C   0  0  0  0  0  2  0  0  0  0  0  0
  186.0590  177.8870  143.5650 C   0  0  0  0  0  3  0  0  0  0  0  0
  184.8340  178.3160  143.2970 C   0  0  0  0  0  3  0  0  0  0  0  0
  188.6590  176.9400  144.3820 O   0  0  0  0  0  0  0  0  0  0  0  0
  186.5980  177.9390  144.8890 N   0  0  0  0  0  0  0  0  0  0  0  0
  187.8820  177.4570  145.2280 C   0  0  0  0  0  0  0  0  0  0  0  0
  189.4950  177.1760  147.1550 C   0  0  0  0  0  1  0  0  0  0  0  0
  187.1850  178.2260  147.3920 C   0  0  0  0  0  2  0  0  0  0  0  0
  185.7530  178.6080  146.2930 S   0  0  0  0  0  0  0  0  0  0  0  0
  188.2270  177.6040  146.5920 N   0  0  0  0  0  0  0  0  0  0  0  0
  179.9630  179.0930  140.2190 C   0  0  0  0  0  2  0  0  0  0  0  0
  179.4630  178.9620  141.6440 C   0  0  0  0  0  2  0  0  0  0  0  0
  179.1940  180.3170  142.2000 C   0  0  0  0  0  3  0  0  0  0  0  0
  180.0490  180.8870  142.8570 O   0  0  0  0  0  0  0  0  0  0  0  0
  1 20  1  0  0  0  0
  2  4  1  0  0  0  0
  2  6  1  1  0  0  0
  2  5  1  0  0  0  0
  3 31  1  6  0  0  0
  3  1  1  0  0  0  0
  4 17  1  1  0  0  0
  4  3  1  0  0  0  0
  5  1  1  1  0  0  0
  7 15  1  1  0  0  0
  8 11  1  6  0  0  0
  8 13  1  0  0  0  0
  9 12  1  6  0  0  0
  9  5  1  0  0  0  0
 10 14  1  0  0  0  0
 11 10  1  0  0  0  0
 13  9  1  0  0  0  0
 13  7  1  0  0  0  0
 14  7  1  0  0  0  0
 14 15  1  0  0  0  0
 16 12  1  0  0  0  0
 16  8  1  0  0  0  0
 18 19  1  0  0  0  0
 18 17  1  0  0  0  0
 20 21  1  0  0  0  0
 21 23  1  0  0  0  0
 22 25  1  0  0  0  0
 23 22  2  0  0  0  0
 24 26  2  0  0  0  0
 25 26  1  0  0  0  0
 25 29  1  0  0  0  0
 26 30  1  0  0  0  0
 29 28  1  0  0  0  0
 30 27  1  0  0  0  0
 30 28  1  0  0  0  0
 31 32  1  0  0  0  0
 32 33  1  0  0  0  0
 33 34  2  0  0  0  0
M  END
>  <MODEL>
5

>  <REMARK>
 VINA RESULT:      -6.1      3.800      9.345
  Name = 
  10 active torsions:
  status: ('A' for Active; 'I' for Inactive)
    1  A    between atoms: C_3  and  N_13
    2  A    between atoms: C_4  and  C_31
    3  A    between atoms: N_5  and  C_18
    4  A    between atoms: C_7  and  C_8
    5  A    between atoms: C_8  and  C_28
    6  A    between atoms: C_12  and  C_16
    7  A    between atoms: C_16  and  C_23
    8  A    between atoms: C_17  and  C_29
    9  A    between atoms: C_18  and  C_29
   10  A    between atoms: C_23  and  C_26
                            x       y       z     vdW  Elec       q    Type
                         _______ _______ _______ _____ _____    ______ ____

>  <TORSDO>
F 10

$$$$
=
 OpenBabel10262419113D

 34 38  0  0  1  0  0  0  0  0999 V2000
  188.8100  177.2790  143.7480 N   0  0  0  0  0  0  0  0  0  0  0  0
  190.5010  175.8490  142.7720 C   0  0  2  0  0  3  0  0  0  0  0  0
  189.8600  177.0560  144.7410 C   0  0  1  0  0  3  0  0  0  0  0  0
  191.0680  176.4940  144.0220 C   0  0  1  0  0  3  0  0  0  0  0  0
  189.2350  176.6430  142.4980 C   0  0  2  0  0  3  0  0  0  0  0  0
  190.1490  174.5150  143.0030 O   0  0  0  0  0  1  0  0  0  0  0  0
  190.8980  176.8350  139.5020 C   0  0  2  0  0  3  0  0  0  0  0  0
  188.8900  178.1880  139.2470 C   0  0  2  0  0  3  0  0  0  0  0  0
  189.4810  177.7070  141.4250 C   0  0  2  0  0  3  0  0  0  0  0  0
  189.4860  176.6220  137.3330 C   0  0  0  0  0  2  0  0  0  0  0  0
  188.4700  177.6440  137.8890 C   0  0  0  0  0  2  0  0  0  0  0  0
  188.2880  178.6590  141.3280 C   0  0  0  0  0  2  0  0  0  0  0  0
  189.5050  177.0980  140.0580 C   0  0  2  0  0  3  0  0  0  0  0  0
  190.8800  176.6320  138.0080 C   0  0  2  0  0  3  0  0  0  0  0  0
  190.9460  175.5570  138.9170 O   0  0  0  0  0  0  0  0  0  0  0  0
  187.8300  178.7090  139.9930 O   0  0  0  0  0  0  0  0  0  0  0  0
  191.8580  175.5360  144.9100 C   0  0  0  0  0  2  0  0  0  0  0  0
  191.8000  175.9720  146.3640 C   0  0  0  0  0  2  0  0  0  0  0  0
  192.7600  175.2840  147.1060 O   0  0  0  0  0  1  0  0  0  0  0  0
  187.6250  176.5690  144.2050 C   0  0  0  0  0  2  0  0  0  0  0  0
  186.9990  177.3110  145.3690 C   0  0  0  0  0  2  0  0  0  0  0  0
  185.3100  177.8010  143.6860 C   0  0  0  0  0  3  0  0  0  0  0  0
  185.6740  177.8420  144.9600 C   0  0  0  0  0  3  0  0  0  0  0  0
  184.3950  177.9870  140.9560 O   0  0  0  0  0  0  0  0  0  0  0  0
  184.0420  178.3020  143.2530 N   0  0  0  0  0  0  0  0  0  0  0  0
  183.6500  178.3680  141.8980 C   0  0  0  0  0  0  0  0  0  0  0  0
  181.7560  179.0510  140.3690 C   0  0  0  0  0  1  0  0  0  0  0  0
  181.6680  179.2710  142.9060 C   0  0  0  0  0  2  0  0  0  0  0  0
  182.7780  178.9090  144.3350 S   0  0  0  0  0  0  0  0  0  0  0  0
  182.3550  178.8940  141.6820 N   0  0  0  0  0  0  0  0  0  0  0  0
  190.2070  178.3770  145.4120 C   0  0  0  0  0  2  0  0  0  0  0  0
  190.3300  179.4810  144.3820 C   0  0  0  0  0  2  0  0  0  0  0  0
  191.7380  179.5580  143.9030 C   0  0  0  0  0  3  0  0  0  0  0  0
  192.6560  179.5490  144.7070 O   0  0  0  0  0  0  0  0  0  0  0  0
  1 20  1  0  0  0  0
  1  3  1  0  0  0  0
  2  6  1  1  0  0  0
  2  4  1  0  0  0  0
  3 31  1  6  0  0  0
  4  3  1  0  0  0  0
  4 17  1  1  0  0  0
  5  2  1  0  0  0  0
  5  1  1  1  0  0  0
  7 15  1  1  0  0  0
  7 13  1  0  0  0  0
  8 11  1  6  0  0  0
  8 16  1  0  0  0  0
  8 13  1  0  0  0  0
  9 12  1  6  0  0  0
  9  5  1  0  0  0  0
 10 11  1  0  0  0  0
 10 14  1  0  0  0  0
 13  9  1  0  0  0  0
 14 15  1  0  0  0  0
 14  7  1  0  0  0  0
 16 12  1  0  0  0  0
 17 18  1  0  0  0  0
 18 19  1  0  0  0  0
 20 21  1  0  0  0  0
 22 23  2  0  0  0  0
 23 21  1  0  0  0  0
 24 26  2  0  0  0  0
 25 22  1  0  0  0  0
 25 29  1  0  0  0  0
 26 25  1  0  0  0  0
 27 30  1  0  0  0  0
 28 29  1  0  0  0  0
 30 26  1  0  0  0  0
 30 28  1  0  0  0  0
 32 31  1  0  0  0  0
 33 32  1  0  0  0  0
 33 34  2  0  0  0  0
M  END
>  <MODEL>
6

>  <REMARK>
 VINA RESULT:      -6.1      1.572      2.019
  Name = 
  10 active torsions:
  status: ('A' for Active; 'I' for Inactive)
    1  A    between atoms: C_3  and  N_13
    2  A    between atoms: C_4  and  C_31
    3  A    between atoms: N_5  and  C_18
    4  A    between atoms: C_7  and  C_8
    5  A    between atoms: C_8  and  C_28
    6  A    between atoms: C_12  and  C_16
    7  A    between atoms: C_16  and  C_23
    8  A    between atoms: C_17  and  C_29
    9  A    between atoms: C_18  and  C_29
   10  A    between atoms: C_23  and  C_26
                            x       y       z     vdW  Elec       q    Type
                         _______ _______ _______ _____ _____    ______ ____

>  <TORSDO>
F 10

$$$$
=
 OpenBabel10262419113D

 34 38  0  0  1  0  0  0  0  0999 V2000
  186.1810  178.3190  142.0250 N   0  0  0  0  0  0  0  0  0  0  0  0
  184.7850  179.1930  143.7980 C   0  0  2  0  0  3  0  0  0  0  0  0
  186.8160  178.0190  143.3070 C   0  0  1  0  0  3  0  0  0  0  0  0
  185.7830  178.2220  144.3950 C   0  0  1  0  0  3  0  0  0  0  0  0
  184.8810  178.9370  142.3030 C   0  0  2  0  0  3  0  0  0  0  0  0
  185.1530  180.5180  144.0470 O   0  0  0  0  0  1  0  0  0  0  0  0
  181.5020  178.6530  142.8340 C   0  0  2  0  0  3  0  0  0  0  0  0
  181.8700  178.0690  140.5000 C   0  0  2  0  0  3  0  0  0  0  0  0
  183.7520  178.0160  141.8340 C   0  0  2  0  0  3  0  0  0  0  0  0
  179.9200  179.6190  141.0170 C   0  0  0  0  0  2  0  0  0  0  0  0
  180.7410  178.9080  139.9190 C   0  0  0  0  0  2  0  0  0  0  0  0
  184.0150  177.5210  140.4110 C   0  0  0  0  0  2  0  0  0  0  0  0
  182.4720  178.7750  141.6680 C   0  0  2  0  0  3  0  0  0  0  0  0
  180.1040  179.0650  142.4520 C   0  0  2  0  0  3  0  0  0  0  0  0
  180.9780  179.9190  143.1540 O   0  0  0  0  0  0  0  0  0  0  0  0
  182.9010  177.8140  139.5940 O   0  0  0  0  0  0  0  0  0  0  0  0
  186.4210  178.7080  145.6950 C   0  0  0  0  0  2  0  0  0  0  0  0
  185.7450  178.0780  146.9000 C   0  0  0  0  0  2  0  0  0  0  0  0
  184.4140  178.4880  146.9680 O   0  0  0  0  0  1  0  0  0  0  0  0
  186.9960  179.3250  141.3620 C   0  0  0  0  0  2  0  0  0  0  0  0
  188.3280  178.7220  140.9590 C   0  0  0  0  0  2  0  0  0  0  0  0
  189.1090  177.1410  139.2810 C   0  0  0  0  0  3  0  0  0  0  0  0
  188.1670  177.9830  139.6820 C   0  0  0  0  0  3  0  0  0  0  0  0
  190.9200  175.1060  138.3310 O   0  0  0  0  0  0  0  0  0  0  0  0
  188.9900  176.4100  138.0570 N   0  0  0  0  0  0  0  0  0  0  0  0
  189.9120  175.4230  137.6450 C   0  0  0  0  0  0  0  0  0  0  0  0
  190.4260  173.7810  135.7930 C   0  0  0  0  0  1  0  0  0  0  0  0
  188.4040  175.3310  135.7810 C   0  0  0  0  0  2  0  0  0  0  0  0
  187.6840  176.6250  136.8810 S   0  0  0  0  0  0  0  0  0  0  0  0
  189.6130  174.8170  136.4030 N   0  0  0  0  0  0  0  0  0  0  0  0
  187.3100  176.5800  143.3010 C   0  0  0  0  0  2  0  0  0  0  0  0
  188.6680  176.4810  143.9680 C   0  0  0  0  0  2  0  0  0  0  0  0
  189.7060  176.2040  142.9380 C   0  0  0  0  0  3  0  0  0  0  0  0
  190.1870  175.0870  142.8420 O   0  0  0  0  0  0  0  0  0  0  0  0
  1  3  1  0  0  0  0
  2  6  1  6  0  0  0
  2  4  1  0  0  0  0
  3 31  1  6  0  0  0
  3  4  1  0  0  0  0
  4 17  1  1  0  0  0
  5  1  1  1  0  0  0
  5  2  1  0  0  0  0
  7 15  1  1  0  0  0
  8 11  1  6  0  0  0
  8 13  1  0  0  0  0
  9 12  1  6  0  0  0
  9  5  1  0  0  0  0
 10 14  1  0  0  0  0
 11 10  1  0  0  0  0
 13  9  1  0  0  0  0
 13  7  1  0  0  0  0
 14  7  1  0  0  0  0
 14 15  1  0  0  0  0
 16 12  1  0  0  0  0
 16  8  1  0  0  0  0
 17 18  1  0  0  0  0
 18 19  1  0  0  0  0
 20  1  1  0  0  0  0
 21 20  1  0  0  0  0
 22 23  2  0  0  0  0
 23 21  1  0  0  0  0
 25 22  1  0  0  0  0
 26 25  1  0  0  0  0
 26 24  2  0  0  0  0
 27 30  1  0  0  0  0
 28 30  1  0  0  0  0
 28 29  1  0  0  0  0
 29 25  1  0  0  0  0
 30 26  1  0  0  0  0
 31 32  1  0  0  0  0
 33 32  1  0  0  0  0
 34 33  2  0  0  0  0
M  END
>  <MODEL>
7

>  <REMARK>
 VINA RESULT:      -6.1      2.633      7.394
  Name = 
  10 active torsions:
  status: ('A' for Active; 'I' for Inactive)
    1  A    between atoms: C_3  and  N_13
    2  A    between atoms: C_4  and  C_31
    3  A    between atoms: N_5  and  C_18
    4  A    between atoms: C_7  and  C_8
    5  A    between atoms: C_8  and  C_28
    6  A    between atoms: C_12  and  C_16
    7  A    between atoms: C_16  and  C_23
    8  A    between atoms: C_17  and  C_29
    9  A    between atoms: C_18  and  C_29
   10  A    between atoms: C_23  and  C_26
                            x       y       z     vdW  Elec       q    Type
                         _______ _______ _______ _____ _____    ______ ____

>  <TORSDO>
F 10

$$$$
=
 OpenBabel10262419113D

 34 38  0  0  1  0  0  0  0  0999 V2000
  189.2150  177.2340  138.2860 N   0  0  0  0  0  0  0  0  0  0  0  0
  191.3070  176.6840  139.3700 C   0  0  2  0  0  3  0  0  0  0  0  0
  189.8530  176.1500  137.5410 C   0  0  1  0  0  3  0  0  0  0  0  0
  190.9430  175.5650  138.4150 C   0  0  1  0  0  3  0  0  0  0  0  0
  190.0300  177.5010  139.4750 C   0  0  2  0  0  3  0  0  0  0  0  0
  192.3140  177.4970  138.8420 O   0  0  0  0  0  1  0  0  0  0  0  0
  190.7450  176.1630  142.5530 C   0  0  2  0  0  3  0  0  0  0  0  0
  189.0070  177.8260  142.9270 C   0  0  2  0  0  3  0  0  0  0  0  0
  189.2500  177.1340  140.7390 C   0  0  2  0  0  3  0  0  0  0  0  0
  190.9660  177.8070  144.5510 C   0  0  0  0  0  2  0  0  0  0  0  0
  189.6500  178.4990  144.1320 C   0  0  0  0  0  2  0  0  0  0  0  0
  188.0660  178.0820  140.9370 C   0  0  0  0  0  2  0  0  0  0  0  0
  190.0640  177.3930  141.9680 C   0  0  2  0  0  3  0  0  0  0  0  0
  191.1830  176.3840  143.9780 C   0  0  2  0  0  3  0  0  0  0  0  0
  192.0760  176.4690  142.8910 O   0  0  0  0  0  0  0  0  0  0  0  0
  188.1290  178.6550  142.2260 O   0  0  0  0  0  0  0  0  0  0  0  0
  192.1170  175.0520  137.5840 C   0  0  0  0  0  2  0  0  0  0  0  0
  192.1530  175.7240  136.2230 C   0  0  0  0  0  2  0  0  0  0  0  0
  193.4660  175.7740  135.7520 O   0  0  0  0  0  1  0  0  0  0  0  0
  189.2740  178.4260  137.4540 C   0  0  0  0  0  2  0  0  0  0  0  0
  187.9000  178.7210  136.8840 C   0  0  0  0  0  2  0  0  0  0  0  0
  185.5940  178.5870  137.6540 C   0  0  0  0  0  3  0  0  0  0  0  0
  186.8610  178.2360  137.8270 C   0  0  0  0  0  3  0  0  0  0  0  0
  184.9310  179.7450  140.2120 O   0  0  0  0  0  0  0  0  0  0  0  0
  184.5650  178.1390  138.5410 N   0  0  0  0  0  0  0  0  0  0  0  0
  184.2880  178.7490  139.7840 C   0  0  0  0  0  0  0  0  0  0  0  0
  182.7790  178.6220  141.8100 C   0  0  0  0  0  1  0  0  0  0  0  0
  182.6250  177.0200  139.8340 C   0  0  0  0  0  2  0  0  0  0  0  0
  183.4910  176.7680  138.2240 S   0  0  0  0  0  0  0  0  0  0  0  0
  183.2290  178.1550  140.5100 N   0  0  0  0  0  0  0  0  0  0  0  0
  188.8150  175.0910  137.2020 C   0  0  0  0  0  2  0  0  0  0  0  0
  188.4820  175.1270  135.7240 C   0  0  0  0  0  2  0  0  0  0  0  0
  187.0270  175.3930  135.5510 C   0  0  0  0  0  3  0  0  0  0  0  0
  186.2300  174.9840  136.3780 O   0  0  0  0  0  0  0  0  0  0  0  0
  2  6  1  6  0  0  0
  2  5  1  0  0  0  0
  3 31  1  1  0  0  0
  3  1  1  0  0  0  0
  3  4  1  0  0  0  0
  4 17  1  6  0  0  0
  4  2  1  0  0  0  0
  5  1  1  6  0  0  0
  5  9  1  0  0  0  0
  7 15  1  6  0  0  0
  7 14  1  0  0  0  0
  8 11  1  1  0  0  0
  9 12  1  1  0  0  0
  9 13  1  0  0  0  0
 11 10  1  0  0  0  0
 12 16  1  0  0  0  0
 13  7  1  0  0  0  0
 13  8  1  0  0  0  0
 14 10  1  0  0  0  0
 15 14  1  0  0  0  0
 16  8  1  0  0  0  0
 18 17  1  0  0  0  0
 19 18  1  0  0  0  0
 20  1  1  0  0  0  0
 21 20  1  0  0  0  0
 21 23  1  0  0  0  0
 22 23  2  0  0  0  0
 22 25  1  0  0  0  0
 25 26  1  0  0  0  0
 26 24  2  0  0  0  0
 26 30  1  0  0  0  0
 28 30  1  0  0  0  0
 29 25  1  0  0  0  0
 29 28  1  0  0  0  0
 30 27  1  0  0  0  0
 32 31  1  0  0  0  0
 33 32  1  0  0  0  0
 33 34  2  0  0  0  0
M  END
>  <MODEL>
8

>  <REMARK>
 VINA RESULT:      -6.1      2.533      6.375
  Name = 
  10 active torsions:
  status: ('A' for Active; 'I' for Inactive)
    1  A    between atoms: C_3  and  N_13
    2  A    between atoms: C_4  and  C_31
    3  A    between atoms: N_5  and  C_18
    4  A    between atoms: C_7  and  C_8
    5  A    between atoms: C_8  and  C_28
    6  A    between atoms: C_12  and  C_16
    7  A    between atoms: C_16  and  C_23
    8  A    between atoms: C_17  and  C_29
    9  A    between atoms: C_18  and  C_29
   10  A    between atoms: C_23  and  C_26
                            x       y       z     vdW  Elec       q    Type
                         _______ _______ _______ _____ _____    ______ ____

>  <TORSDO>
F 10

$$$$
=
 OpenBabel10262419113D

 34 38  0  0  1  0  0  0  0  0999 V2000
  191.1900  176.2590  137.3510 N   0  0  0  0  0  0  0  0  0  0  0  0
  189.7990  174.5100  136.4250 C   0  0  2  0  0  3  0  0  0  0  0  0
  192.0100  175.4350  136.4650 C   0  0  1  0  0  3  0  0  0  0  0  0
  191.0770  174.5990  135.6140 C   0  0  1  0  0  3  0  0  0  0  0  0
  189.8080  175.7820  137.2560 C   0  0  2  0  0  3  0  0  0  0  0  0
  189.8220  173.4130  137.2910 O   0  0  0  0  0  1  0  0  0  0  0  0
  186.5850  176.0070  136.1000 C   0  0  2  0  0  3  0  0  0  0  0  0
  187.0890  178.1610  137.1170 C   0  0  2  0  0  3  0  0  0  0  0  0
  188.9250  176.8560  136.6160 C   0  0  2  0  0  3  0  0  0  0  0  0
  184.8300  177.1210  137.6560 C   0  0  0  0  0  2  0  0  0  0  0  0
  185.7990  178.2960  137.9140 C   0  0  0  0  0  2  0  0  0  0  0  0
  189.3030  178.2440  137.1360 C   0  0  0  0  0  2  0  0  0  0  0  0
  187.5060  176.7290  137.0730 C   0  0  2  0  0  3  0  0  0  0  0  0
  185.1310  176.2730  136.3950 C   0  0  2  0  0  3  0  0  0  0  0  0
  185.7790  175.0880  136.7960 O   0  0  0  0  0  0  0  0  0  0  0  0
  188.1550  178.8850  137.6530 O   0  0  0  0  0  0  0  0  0  0  0  0
  191.6900  173.2430  135.2700 C   0  0  0  0  0  2  0  0  0  0  0  0
  192.9100  172.9650  136.1300 C   0  0  0  0  0  2  0  0  0  0  0  0
  193.2140  171.6040  136.0990 O   0  0  0  0  0  1  0  0  0  0  0  0
  191.6350  176.0050  138.7140 C   0  0  0  0  0  2  0  0  0  0  0  0
  191.6080  177.2940  139.5110 C   0  0  0  0  0  2  0  0  0  0  0  0
  189.5120  177.6010  140.7110 C   0  0  0  0  0  3  0  0  0  0  0  0
  190.7460  177.1160  140.7060 C   0  0  0  0  0  3  0  0  0  0  0  0
  186.9980  178.9520  141.1320 O   0  0  0  0  0  0  0  0  0  0  0  0
  188.6520  177.4490  141.8440 N   0  0  0  0  0  0  0  0  0  0  0  0
  187.4300  178.1400  141.9940 C   0  0  0  0  0  0  0  0  0  0  0  0
  185.4540  178.4470  143.5410 C   0  0  0  0  0  1  0  0  0  0  0  0
  187.4050  176.8840  144.0390 C   0  0  0  0  0  2  0  0  0  0  0  0
  188.9800  176.3830  143.2190 S   0  0  0  0  0  0  0  0  0  0  0  0
  186.7280  177.8480  143.1860 N   0  0  0  0  0  0  0  0  0  0  0  0
  192.8680  176.3350  135.5890 C   0  0  0  0  0  2  0  0  0  0  0  0
  194.2870  176.3950  136.1170 C   0  0  0  0  0  2  0  0  0  0  0  0
  195.1750  176.9970  135.0850 C   0  0  0  0  0  3  0  0  0  0  0  0
  196.3460  177.2240  135.3440 O   0  0  0  0  0  0  0  0  0  0  0  0
  1 20  1  0  0  0  0
  2  5  1  0  0  0  0
  2  6  1  1  0  0  0
  3 31  1  6  0  0  0
  3  1  1  0  0  0  0
  4 17  1  1  0  0  0
  4  2  1  0  0  0  0
  4  3  1  0  0  0  0
  5  1  1  6  0  0  0
  7 14  1  0  0  0  0
  7 15  1  1  0  0  0
  7 13  1  0  0  0  0
  8 16  1  0  0  0  0
  8 11  1  1  0  0  0
  9 13  1  0  0  0  0
  9 12  1  1  0  0  0
  9  5  1  0  0  0  0
 10 11  1  0  0  0  0
 12 16  1  0  0  0  0
 13  8  1  0  0  0  0
 14 15  1  0  0  0  0
 14 10  1  0  0  0  0
 17 18  1  0  0  0  0
 19 18  1  0  0  0  0
 20 21  1  0  0  0  0
 21 23  1  0  0  0  0
 22 25  1  0  0  0  0
 23 22  2  0  0  0  0
 24 26  2  0  0  0  0
 25 26  1  0  0  0  0
 25 29  1  0  0  0  0
 26 30  1  0  0  0  0
 29 28  1  0  0  0  0
 30 27  1  0  0  0  0
 30 28  1  0  0  0  0
 31 32  1  0  0  0  0
 33 34  2  0  0  0  0
 33 32  1  0  0  0  0
M  END
>  <MODEL>
9

>  <REMARK>
 VINA RESULT:      -6.0      3.722      7.569
  Name = 
  10 active torsions:
  status: ('A' for Active; 'I' for Inactive)
    1  A    between atoms: C_3  and  N_13
    2  A    between atoms: C_4  and  C_31
    3  A    between atoms: N_5  and  C_18
    4  A    between atoms: C_7  and  C_8
    5  A    between atoms: C_8  and  C_28
    6  A    between atoms: C_12  and  C_16
    7  A    between atoms: C_16  and  C_23
    8  A    between atoms: C_17  and  C_29
    9  A    between atoms: C_18  and  C_29
   10  A    between atoms: C_23  and  C_26
                            x       y       z     vdW  Elec       q    Type
                         _______ _______ _______ _____ _____    ______ ____

>  <TORSDO>
F 10

$$$$
