=
 OpenBabel10262419193D

 31 34  0  0  1  0  0  0  0  0999 V2000
  183.2210  179.1330  143.7700 C   0  0  1  0  0  3  0  0  0  0  0  0
  186.6740  177.4080  143.9500 C   0  0  1  0  0  3  0  0  0  0  0  0
  187.4540  177.9080  145.1860 C   0  0  1  0  0  3  0  0  0  0  0  0
  187.0740  178.9360  147.4320 C   0  0  0  0  0  2  0  0  0  0  0  0
  185.5950  178.4400  143.5530 C   0  0  2  0  0  3  0  0  0  0  0  0
  182.8030  178.7070  142.0660 S   0  0  0  0  0  0  0  0  0  0  0  0
  186.5200  177.9690  146.3960 C   0  0  0  0  0  2  0  0  0  0  0  0
  188.0260  178.3130  141.9960 C   0  0  1  0  0  3  0  0  0  0  0  0
  182.0850  179.0060  144.5670 O   0  0  0  0  0  1  0  0  0  0  0  0
  189.5300  176.9370  144.2920 N   0  0  0  0  0  2  0  0  0  0  0  0
  187.9280  178.2370  148.4920 C   0  0  0  0  0  2  0  0  0  0  0  0
  186.8150  178.9530  141.3080 C   0  0  0  0  0  2  0  0  0  0  0  0
  187.6110  177.0490  142.7730 C   0  0  1  0  0  3  0  0  0  0  0  0
  184.2590  178.1290  144.2140 C   0  0  0  0  0  2  0  0  0  0  0  0
  188.8570  177.1440  147.9580 C   0  0  0  0  0  2  0  0  0  0  0  0
  185.5290  178.7560  142.0620 C   0  0  0  0  0  0  0  0  0  0  0  0
  184.4240  179.0110  141.4420 N   0  0  0  0  0  0  0  0  0  0  0  0
  188.7990  176.2170  143.2590 C   0  0  0  0  0  2  0  0  0  0  0  0
  188.6780  177.0120  145.4730 C   0  0  1  0  0  3  0  0  0  0  0  0
  189.5160  177.5240  146.6400 C   0  0  0  0  0  2  0  0  0  0  0  0
  189.1070  178.0420  140.9560 C   0  0  0  0  0  2  0  0  0  0  0  0
  188.6330  177.1630  139.9610 O   0  0  0  0  0  0  0  0  0  0  0  0
  189.1760  179.0000  138.7550 O   0  0  0  0  0  1  0  0  0  0  0  0
  189.0220  177.6110  138.6740 C   0  0  1  0  0  0  0  0  0  0  0  0
  190.6280  175.8180  138.9160 O   0  0  0  0  0  1  0  0  0  0  0  0
  190.4020  177.0470  138.2910 C   0  0  0  0  0  2  0  0  0  0  0  0
  187.9370  177.3170  137.6310 C   0  0  0  0  0  0  0  0  0  0  0  0
  186.7750  177.9630  137.7390 C   0  0  0  0  0  2  0  0  0  0  0  0
  188.0830  176.3100  136.6040 N   0  0  0  0  0  0  0  0  0  0  0  0
  187.7900  174.9050  136.8430 C   0  0  0  0  0  1  0  0  0  0  0  0
  188.4220  176.6870  135.2400 C   0  0  0  0  0  1  0  0  0  0  0  0
  1 14  1  0  0  0  0
  1  9  1  1  0  0  0
  2  3  1  0  0  0  0
  3 19  1  0  0  0  0
  3  7  1  0  0  0  0
  4 11  1  0  0  0  0
  5  2  1  0  0  0  0
  5 14  1  0  0  0  0
  6  1  1  0  0  0  0
  7  4  1  0  0  0  0
  8 13  1  0  0  0  0
 10 19  1  0  0  0  0
 12  8  1  0  0  0  0
 12 16  1  0  0  0  0
 13 18  1  0  0  0  0
 13  2  1  0  0  0  0
 15 11  1  0  0  0  0
 16  5  1  0  0  0  0
 17 16  2  0  0  0  0
 17  6  1  0  0  0  0
 18 10  1  0  0  0  0
 19 20  1  0  0  0  0
 20 15  1  0  0  0  0
 21  8  1  0  0  0  0
 22 21  1  0  0  0  0
 24 23  1  0  0  0  0
 24 22  1  0  0  0  0
 26 24  1  0  0  0  0
 26 25  1  0  0  0  0
 27 28  2  0  0  0  0
 27 24  1  0  0  0  0
 29 30  1  0  0  0  0
 29 27  1  0  0  0  0
 31 29  1  0  0  0  0
M  END
>  <MODEL>
1

>  <REMARK>
 VINA RESULT:      -9.1      0.000      0.000
  Name = 
  6 active torsions:
  status: ('A' for Active; 'I' for Inactive)
    1  A    between atoms: N_1  and  C_19
    2  A    between atoms: C_7  and  C_22
    3  A    between atoms: O_9  and  C_22
    4  A    between atoms: O_9  and  C_23
    5  A    between atoms: C_15  and  C_23
    6  A    between atoms: C_19  and  C_22
                            x       y       z     vdW  Elec       q    Type
                         _______ _______ _______ _____ _____    ______ ____

>  <TORSDO>
F 6

$$$$
=
 OpenBabel10262419193D

 31 34  0  0  1  0  0  0  0  0999 V2000
  184.6350  178.9620  145.1350 C   0  0  1  0  0  3  0  0  0  0  0  0
  187.8330  177.0570  144.1010 C   0  0  1  0  0  3  0  0  0  0  0  0
  189.0010  177.4300  145.0410 C   0  0  1  0  0  3  0  0  0  0  0  0
  189.4350  178.3200  147.3350 C   0  0  0  0  0  2  0  0  0  0  0  0
  186.7590  178.1670  144.1260 C   0  0  2  0  0  3  0  0  0  0  0  0
  183.6630  178.6750  143.6400 S   0  0  0  0  0  0  0  0  0  0  0  0
  188.5120  177.4560  146.4890 C   0  0  0  0  0  2  0  0  0  0  0  0
  188.5460  178.0230  141.8610 C   0  0  1  0  0  3  0  0  0  0  0  0
  183.8090  178.8390  146.2510 O   0  0  0  0  0  1  0  0  0  0  0  0
  190.6070  176.4190  143.4750 N   0  0  0  0  0  2  0  0  0  0  0  0
  190.5340  177.5080  148.0250 C   0  0  0  0  0  2  0  0  0  0  0  0
  187.2270  178.7690  141.6350 C   0  0  0  0  0  2  0  0  0  0  0  0
  188.3150  176.7310  142.6680 C   0  0  1  0  0  3  0  0  0  0  0  0
  185.6880  177.8790  145.1690 C   0  0  0  0  0  2  0  0  0  0  0  0
  191.1630  176.4080  147.1660 C   0  0  0  0  0  2  0  0  0  0  0  0
  186.2410  178.5860  142.7540 C   0  0  0  0  0  0  0  0  0  0  0  0
  185.0160  178.9390  142.5400 N   0  0  0  0  0  0  0  0  0  0  0  0
  189.5350  175.8090  142.7020 C   0  0  0  0  0  2  0  0  0  0  0  0
  190.1870  176.4560  144.8710 C   0  0  1  0  0  3  0  0  0  0  0  0
  191.3890  176.8440  145.7260 C   0  0  0  0  0  2  0  0  0  0  0  0
  189.2150  177.7690  140.5140 C   0  0  0  0  0  2  0  0  0  0  0  0
  188.3620  177.0370  139.6640 O   0  0  0  0  0  0  0  0  0  0  0  0
  187.0760  178.2730  138.2720 O   0  0  0  0  0  1  0  0  0  0  0  0
  188.3140  177.6290  138.3770 C   0  0  1  0  0  0  0  0  0  0  0  0
  188.9460  179.7430  137.3860 O   0  0  0  0  0  1  0  0  0  0  0  0
  189.3840  178.7260  138.2370 C   0  0  0  0  0  2  0  0  0  0  0  0
  188.3880  176.5670  137.2730 C   0  0  0  0  0  0  0  0  0  0  0  0
  187.2470  176.0070  136.8670 C   0  0  0  0  0  2  0  0  0  0  0  0
  189.6360  176.0820  136.7280 N   0  0  0  0  0  0  0  0  0  0  0  0
  190.5140  175.1890  137.4680 C   0  0  0  0  0  1  0  0  0  0  0  0
  190.0090  176.3800  135.3540 C   0  0  0  0  0  1  0  0  0  0  0  0
  1 14  1  0  0  0  0
  1  9  1  1  0  0  0
  2  5  1  0  0  0  0
  2  3  1  0  0  0  0
  3  7  1  0  0  0  0
  4 11  1  0  0  0  0
  5 14  1  0  0  0  0
  6  1  1  0  0  0  0
  7  4  1  0  0  0  0
  8 13  1  0  0  0  0
 10 19  1  0  0  0  0
 12  8  1  0  0  0  0
 12 16  1  0  0  0  0
 13 18  1  0  0  0  0
 13  2  1  0  0  0  0
 15 11  1  0  0  0  0
 16  5  1  0  0  0  0
 17 16  2  0  0  0  0
 17  6  1  0  0  0  0
 18 10  1  0  0  0  0
 19  3  1  0  0  0  0
 19 20  1  0  0  0  0
 20 15  1  0  0  0  0
 21  8  1  0  0  0  0
 22 21  1  0  0  0  0
 23 24  1  0  0  0  0
 24 22  1  0  0  0  0
 25 26  1  0  0  0  0
 26 24  1  0  0  0  0
 27 24  1  0  0  0  0
 28 27  2  0  0  0  0
 29 27  1  0  0  0  0
 29 30  1  0  0  0  0
 31 29  1  0  0  0  0
M  END
>  <MODEL>
2

>  <REMARK>
 VINA RESULT:      -8.8      1.440      1.885
  Name = 
  6 active torsions:
  status: ('A' for Active; 'I' for Inactive)
    1  A    between atoms: N_1  and  C_19
    2  A    between atoms: C_7  and  C_22
    3  A    between atoms: O_9  and  C_22
    4  A    between atoms: O_9  and  C_23
    5  A    between atoms: C_15  and  C_23
    6  A    between atoms: C_19  and  C_22
                            x       y       z     vdW  Elec       q    Type
                         _______ _______ _______ _____ _____    ______ ____

>  <TORSDO>
F 6

$$$$
=
 OpenBabel10262419193D

 31 34  0  0  1  0  0  0  0  0999 V2000
  189.9680  176.8320  146.7450 C   0  0  1  0  0  3  0  0  0  0  0  0
  188.3370  178.2650  143.5490 C   0  0  1  0  0  3  0  0  0  0  0  0
  186.8050  178.0790  143.6050 C   0  0  1  0  0  3  0  0  0  0  0  0
  184.9500  177.7650  145.2490 C   0  0  0  0  0  2  0  0  0  0  0  0
  189.0280  177.2490  144.4860 C   0  0  2  0  0  3  0  0  0  0  0  0
  191.6790  176.7870  146.1700 S   0  0  0  0  0  0  0  0  0  0  0  0
  186.2910  178.4370  145.0010 C   0  0  0  0  0  2  0  0  0  0  0  0
  189.0460  176.7400  141.6430 C   0  0  1  0  0  3  0  0  0  0  0  0
  189.9400  177.2670  148.0690 O   0  0  0  0  0  1  0  0  0  0  0  0
  186.6360  178.5920  141.2050 N   0  0  0  0  0  2  0  0  0  0  0  0
  183.7650  178.6680  144.8990 C   0  0  0  0  0  2  0  0  0  0  0  0
  190.1250  176.0270  142.4640 C   0  0  0  0  0  2  0  0  0  0  0  0
  188.8820  178.2010  142.1030 C   0  0  1  0  0  3  0  0  0  0  0  0
  189.2550  177.8370  145.8720 C   0  0  0  0  0  2  0  0  0  0  0  0
  183.9330  179.4890  143.6180 C   0  0  0  0  0  2  0  0  0  0  0  0
  190.2260  176.5290  143.8770 C   0  0  0  0  0  0  0  0  0  0  0  0
  191.2710  176.1930  144.5600 N   0  0  0  0  0  0  0  0  0  0  0  0
  188.0200  179.0430  141.1600 C   0  0  0  0  0  2  0  0  0  0  0  0
  186.1010  178.9220  142.5200 C   0  0  1  0  0  3  0  0  0  0  0  0
  184.5910  178.7000  142.4960 C   0  0  0  0  0  2  0  0  0  0  0  0
  189.3840  176.6210  140.1600 C   0  0  0  0  0  2  0  0  0  0  0  0
  190.6350  175.9970  139.9820 O   0  0  0  0  0  0  0  0  0  0  0  0
  190.7690  174.8620  138.0290 O   0  0  0  0  0  1  0  0  0  0  0  0
  191.0520  176.0930  138.6310 C   0  0  1  0  0  0  0  0  0  0  0  0
  189.9970  176.7450  136.5530 O   0  0  0  0  0  1  0  0  0  0  0  0
  190.2210  177.1430  137.8740 C   0  0  0  0  0  2  0  0  0  0  0  0
  192.5640  176.3320  138.5310 C   0  0  0  0  0  0  0  0  0  0  0  0
  193.1110  177.2260  139.3550 C   0  0  0  0  0  2  0  0  0  0  0  0
  193.3960  175.7060  137.5280 N   0  0  0  0  0  0  0  0  0  0  0  0
  193.4880  176.2110  136.1670 C   0  0  0  0  0  1  0  0  0  0  0  0
  194.2760  174.6020  137.8800 C   0  0  0  0  0  1  0  0  0  0  0  0
  1  9  1  1  0  0  0
  2  3  1  0  0  0  0
  2  5  1  0  0  0  0
  3  7  1  0  0  0  0
  5 14  1  0  0  0  0
  6  1  1  0  0  0  0
  7  4  1  0  0  0  0
  8 13  1  0  0  0  0
  8 12  1  0  0  0  0
 10 19  1  0  0  0  0
 11  4  1  0  0  0  0
 12 16  1  0  0  0  0
 13  2  1  0  0  0  0
 14  1  1  0  0  0  0
 15 11  1  0  0  0  0
 16  5  1  0  0  0  0
 16 17  2  0  0  0  0
 17  6  1  0  0  0  0
 18 10  1  0  0  0  0
 18 13  1  0  0  0  0
 19  3  1  0  0  0  0
 20 19  1  0  0  0  0
 20 15  1  0  0  0  0
 21  8  1  0  0  0  0
 22 21  1  0  0  0  0
 23 24  1  0  0  0  0
 24 22  1  0  0  0  0
 25 26  1  0  0  0  0
 26 24  1  0  0  0  0
 27 24  1  0  0  0  0
 27 28  2  0  0  0  0
 29 31  1  0  0  0  0
 29 27  1  0  0  0  0
 30 29  1  0  0  0  0
M  END
>  <MODEL>
3

>  <REMARK>
 VINA RESULT:      -7.7      3.164      5.119
  Name = 
  6 active torsions:
  status: ('A' for Active; 'I' for Inactive)
    1  A    between atoms: N_1  and  C_19
    2  A    between atoms: C_7  and  C_22
    3  A    between atoms: O_9  and  C_22
    4  A    between atoms: O_9  and  C_23
    5  A    between atoms: C_15  and  C_23
    6  A    between atoms: C_19  and  C_22
                            x       y       z     vdW  Elec       q    Type
                         _______ _______ _______ _____ _____    ______ ____

>  <TORSDO>
F 6

$$$$
=
 OpenBabel10262419193D

 31 34  0  0  1  0  0  0  0  0999 V2000
  190.0090  176.8260  146.7190 C   0  0  1  0  0  3  0  0  0  0  0  0
  188.3280  178.2560  143.5480 C   0  0  1  0  0  3  0  0  0  0  0  0
  186.7960  178.0730  143.6300 C   0  0  1  0  0  3  0  0  0  0  0  0
  184.9680  177.7650  145.3060 C   0  0  0  0  0  2  0  0  0  0  0  0
  189.0320  177.2400  144.4760 C   0  0  2  0  0  3  0  0  0  0  0  0
  191.7100  176.7760  146.1160 S   0  0  0  0  0  0  0  0  0  0  0  0
  186.3070  178.4340  145.0340 C   0  0  0  0  0  2  0  0  0  0  0  0
  189.0010  176.7260  141.6330 C   0  0  1  0  0  3  0  0  0  0  0  0
  190.0040  177.2630  148.0430 O   0  0  0  0  0  1  0  0  0  0  0  0
  186.5880  178.5820  141.2320 N   0  0  0  0  0  2  0  0  0  0  0  0
  183.7790  178.6710  144.9730 C   0  0  0  0  0  2  0  0  0  0  0  0
  190.0930  176.0120  142.4370 C   0  0  0  0  0  2  0  0  0  0  0  0
  188.8480  178.1880  142.0930 C   0  0  1  0  0  3  0  0  0  0  0  0
  189.2830  177.8310  145.8560 C   0  0  0  0  0  2  0  0  0  0  0  0
  183.9280  179.4880  143.6880 C   0  0  0  0  0  2  0  0  0  0  0  0
  190.2190  176.5160  143.8480 C   0  0  0  0  0  0  0  0  0  0  0  0
  191.2740  176.1800  144.5140 N   0  0  0  0  0  0  0  0  0  0  0  0
  187.9720  179.0300  141.1630 C   0  0  0  0  0  2  0  0  0  0  0  0
  186.0750  178.9160  142.5560 C   0  0  1  0  0  3  0  0  0  0  0  0
  184.5660  178.6960  142.5570 C   0  0  0  0  0  2  0  0  0  0  0  0
  189.3140  176.6030  140.1450 C   0  0  0  0  0  2  0  0  0  0  0  0
  190.5670  175.9890  139.9480 O   0  0  0  0  0  0  0  0  0  0  0  0
  190.4470  177.5750  138.3390 O   0  0  0  0  0  1  0  0  0  0  0  0
  191.1600  176.4420  138.7430 C   0  0  1  0  0  0  0  0  0  0  0  0
  192.7290  177.5260  140.2320 O   0  0  0  0  0  1  0  0  0  0  0  0
  192.6060  176.9070  138.9850 C   0  0  0  0  0  2  0  0  0  0  0  0
  191.0400  175.3890  137.6340 C   0  0  0  0  0  0  0  0  0  0  0  0
  192.0020  174.4700  137.5390 C   0  0  0  0  0  2  0  0  0  0  0  0
  189.9920  175.4080  136.6390 N   0  0  0  0  0  0  0  0  0  0  0  0
  188.6440  174.9350  136.9190 C   0  0  0  0  0  1  0  0  0  0  0  0
  190.2160  176.0190  135.3380 C   0  0  0  0  0  1  0  0  0  0  0  0
  1  9  1  1  0  0  0
  2  3  1  0  0  0  0
  2  5  1  0  0  0  0
  3  7  1  0  0  0  0
  5 14  1  0  0  0  0
  6  1  1  0  0  0  0
  7  4  1  0  0  0  0
  8 13  1  0  0  0  0
  8 12  1  0  0  0  0
 10 19  1  0  0  0  0
 11  4  1  0  0  0  0
 12 16  1  0  0  0  0
 13  2  1  0  0  0  0
 14  1  1  0  0  0  0
 15 11  1  0  0  0  0
 16  5  1  0  0  0  0
 16 17  2  0  0  0  0
 17  6  1  0  0  0  0
 18 10  1  0  0  0  0
 18 13  1  0  0  0  0
 19 20  1  0  0  0  0
 19  3  1  0  0  0  0
 20 15  1  0  0  0  0
 21  8  1  0  0  0  0
 22 21  1  0  0  0  0
 23 24  1  0  0  0  0
 24 26  1  0  0  0  0
 24 22  1  0  0  0  0
 26 25  1  0  0  0  0
 27 24  1  0  0  0  0
 28 27  2  0  0  0  0
 29 30  1  0  0  0  0
 29 27  1  0  0  0  0
 31 29  1  0  0  0  0
M  END
>  <MODEL>
4

>  <REMARK>
 VINA RESULT:      -7.5      2.929      4.709
  Name = 
  6 active torsions:
  status: ('A' for Active; 'I' for Inactive)
    1  A    between atoms: N_1  and  C_19
    2  A    between atoms: C_7  and  C_22
    3  A    between atoms: O_9  and  C_22
    4  A    between atoms: O_9  and  C_23
    5  A    between atoms: C_15  and  C_23
    6  A    between atoms: C_19  and  C_22
                            x       y       z     vdW  Elec       q    Type
                         _______ _______ _______ _____ _____    ______ ____

>  <TORSDO>
F 6

$$$$
=
 OpenBabel10262419193D

 31 34  0  0  1  0  0  0  0  0999 V2000
  189.8990  176.8230  146.7000 C   0  0  1  0  0  3  0  0  0  0  0  0
  188.5840  178.2410  143.3550 C   0  0  1  0  0  3  0  0  0  0  0  0
  187.0560  178.0360  143.2550 C   0  0  1  0  0  3  0  0  0  0  0  0
  185.0480  177.6960  144.7020 C   0  0  0  0  0  2  0  0  0  0  0  0
  189.1880  177.2320  144.3570 C   0  0  2  0  0  3  0  0  0  0  0  0
  191.6600  176.8000  146.3020 S   0  0  0  0  0  0  0  0  0  0  0  0
  186.3990  178.3850  144.5910 C   0  0  0  0  0  2  0  0  0  0  0  0
  189.5010  176.7280  141.5300 C   0  0  1  0  0  3  0  0  0  0  0  0
  189.7310  177.2560  148.0140 O   0  0  0  0  0  1  0  0  0  0  0  0
  187.1260  178.5510  140.8500 N   0  0  0  0  0  2  0  0  0  0  0  0
  183.8930  178.5860  144.2330 C   0  0  0  0  0  2  0  0  0  0  0  0
  190.5000  176.0260  142.4560 C   0  0  0  0  0  2  0  0  0  0  0  0
  189.2740  178.1860  141.9720 C   0  0  1  0  0  3  0  0  0  0  0  0
  189.2660  177.8210  145.7590 C   0  0  0  0  0  2  0  0  0  0  0  0
  184.1810  179.4100  142.9760 C   0  0  0  0  0  2  0  0  0  0  0  0
  190.4510  176.5280  143.8730 C   0  0  0  0  0  0  0  0  0  0  0  0
  191.4250  176.2040  144.6580 N   0  0  0  0  0  0  0  0  0  0  0  0
  188.5010  179.0190  140.9460 C   0  0  0  0  0  2  0  0  0  0  0  0
  186.4550  178.8720  142.1040 C   0  0  1  0  0  3  0  0  0  0  0  0
  184.9590  178.6310  141.9260 C   0  0  0  0  0  2  0  0  0  0  0  0
  189.9900  176.6150  140.0890 C   0  0  0  0  0  2  0  0  0  0  0  0
  188.9060  176.4370  139.2070 O   0  0  0  0  0  0  0  0  0  0  0  0
  190.6690  176.9950  137.9020 O   0  0  0  0  0  1  0  0  0  0  0  0
  189.3220  176.6190  137.8640 C   0  0  1  0  0  0  0  0  0  0  0  0
  190.1240  174.3450  137.6600 O   0  0  0  0  0  1  0  0  0  0  0  0
  189.2680  175.2900  137.0890 C   0  0  0  0  0  2  0  0  0  0  0  0
  188.5350  177.7470  137.1860 C   0  0  0  0  0  0  0  0  0  0  0  0
  189.0390  178.9820  137.2430 C   0  0  0  0  0  2  0  0  0  0  0  0
  187.2390  177.5500  136.5780 N   0  0  0  0  0  0  0  0  0  0  0  0
  186.0640  177.1820  137.3530 C   0  0  0  0  0  1  0  0  0  0  0  0
  187.0330  177.8300  135.1650 C   0  0  0  0  0  1  0  0  0  0  0  0
  1  9  1  1  0  0  0
  2  5  1  0  0  0  0
  3  2  1  0  0  0  0
  3  7  1  0  0  0  0
  5 14  1  0  0  0  0
  6  1  1  0  0  0  0
  7  4  1  0  0  0  0
  8 13  1  0  0  0  0
  8 12  1  0  0  0  0
 10 18  1  0  0  0  0
 10 19  1  0  0  0  0
 11  4  1  0  0  0  0
 12 16  1  0  0  0  0
 13  2  1  0  0  0  0
 14  1  1  0  0  0  0
 15 11  1  0  0  0  0
 16  5  1  0  0  0  0
 16 17  2  0  0  0  0
 17  6  1  0  0  0  0
 18 13  1  0  0  0  0
 19  3  1  0  0  0  0
 20 19  1  0  0  0  0
 20 15  1  0  0  0  0
 21  8  1  0  0  0  0
 22 21  1  0  0  0  0
 24 23  1  0  0  0  0
 24 22  1  0  0  0  0
 26 25  1  0  0  0  0
 26 24  1  0  0  0  0
 27 28  2  0  0  0  0
 27 24  1  0  0  0  0
 29 27  1  0  0  0  0
 29 30  1  0  0  0  0
 31 29  1  0  0  0  0
M  END
>  <MODEL>
5

>  <REMARK>
 VINA RESULT:      -7.2      2.831      4.616
  Name = 
  6 active torsions:
  status: ('A' for Active; 'I' for Inactive)
    1  A    between atoms: N_1  and  C_19
    2  A    between atoms: C_7  and  C_22
    3  A    between atoms: O_9  and  C_22
    4  A    between atoms: O_9  and  C_23
    5  A    between atoms: C_15  and  C_23
    6  A    between atoms: C_19  and  C_22
                            x       y       z     vdW  Elec       q    Type
                         _______ _______ _______ _____ _____    ______ ____

>  <TORSDO>
F 6

$$$$
=
 OpenBabel10262419193D

 31 34  0  0  1  0  0  0  0  0999 V2000
  184.8350  178.8730  144.8440 C   0  0  1  0  0  3  0  0  0  0  0  0
  188.0340  176.9860  143.7770 C   0  0  1  0  0  3  0  0  0  0  0  0
  189.2000  177.3390  144.7260 C   0  0  1  0  0  3  0  0  0  0  0  0
  189.6300  178.1810  147.0390 C   0  0  0  0  0  2  0  0  0  0  0  0
  186.9600  178.0960  143.8230 C   0  0  2  0  0  3  0  0  0  0  0  0
  183.8660  178.6180  143.3420 S   0  0  0  0  0  0  0  0  0  0  0  0
  188.7080  177.3350  146.1740 C   0  0  0  0  0  2  0  0  0  0  0  0
  188.7520  177.9990  141.5590 C   0  0  1  0  0  3  0  0  0  0  0  0
  184.0070  178.7270  145.9550 O   0  0  0  0  0  1  0  0  0  0  0  0
  190.8080  176.3590  143.1430 N   0  0  0  0  0  2  0  0  0  0  0  0
  190.7270  177.3530  147.7150 C   0  0  0  0  0  2  0  0  0  0  0  0
  187.4330  178.7500  141.3460 C   0  0  0  0  0  2  0  0  0  0  0  0
  188.5180  176.6900  142.3380 C   0  0  1  0  0  3  0  0  0  0  0  0
  185.8870  177.7880  144.8580 C   0  0  0  0  0  2  0  0  0  0  0  0
  191.3570  176.2710  146.8340 C   0  0  0  0  0  2  0  0  0  0  0  0
  186.4450  178.5450  142.4590 C   0  0  0  0  0  0  0  0  0  0  0  0
  185.2210  178.9030  142.2500 N   0  0  0  0  0  0  0  0  0  0  0  0
  189.7370  175.7660  142.3550 C   0  0  0  0  0  2  0  0  0  0  0  0
  190.3860  176.3670  144.5380 C   0  0  1  0  0  3  0  0  0  0  0  0
  191.5860  176.7360  145.4040 C   0  0  0  0  0  2  0  0  0  0  0  0
  189.4230  177.7720  140.2080 C   0  0  0  0  0  2  0  0  0  0  0  0
  190.5360  176.9190  140.3410 O   0  0  0  0  0  0  0  0  0  0  0  0
  190.6760  175.2460  138.8240 O   0  0  0  0  0  1  0  0  0  0  0  0
  191.0520  176.5710  139.0670 C   0  0  1  0  0  0  0  0  0  0  0  0
  190.1790  176.6490  136.8120 O   0  0  0  0  0  1  0  0  0  0  0  0
  190.3950  177.4150  137.9600 C   0  0  0  0  0  2  0  0  0  0  0  0
  192.5840  176.6380  139.0500 C   0  0  0  0  0  0  0  0  0  0  0  0
  193.1860  177.4100  139.9570 C   0  0  0  0  0  2  0  0  0  0  0  0
  193.3900  175.9830  138.0450 N   0  0  0  0  0  0  0  0  0  0  0  0
  193.4220  176.4290  136.6600 C   0  0  0  0  0  1  0  0  0  0  0  0
  194.3050  174.9120  138.4110 C   0  0  0  0  0  1  0  0  0  0  0  0
  1 14  1  0  0  0  0
  1  9  1  1  0  0  0
  2  5  1  0  0  0  0
  2  3  1  0  0  0  0
  3  7  1  0  0  0  0
  4 11  1  0  0  0  0
  5 14  1  0  0  0  0
  6  1  1  0  0  0  0
  7  4  1  0  0  0  0
  8 13  1  0  0  0  0
 10 19  1  0  0  0  0
 12  8  1  0  0  0  0
 12 16  1  0  0  0  0
 13 18  1  0  0  0  0
 13  2  1  0  0  0  0
 15 11  1  0  0  0  0
 16  5  1  0  0  0  0
 17 16  2  0  0  0  0
 17  6  1  0  0  0  0
 18 10  1  0  0  0  0
 19  3  1  0  0  0  0
 19 20  1  0  0  0  0
 20 15  1  0  0  0  0
 21 22  1  0  0  0  0
 21  8  1  0  0  0  0
 23 24  1  0  0  0  0
 24 22  1  0  0  0  0
 25 26  1  0  0  0  0
 26 24  1  0  0  0  0
 27 24  1  0  0  0  0
 27 28  2  0  0  0  0
 29 31  1  0  0  0  0
 29 27  1  0  0  0  0
 30 29  1  0  0  0  0
M  END
>  <MODEL>
6

>  <REMARK>
 VINA RESULT:      -7.2      2.106      3.049
  Name = 
  6 active torsions:
  status: ('A' for Active; 'I' for Inactive)
    1  A    between atoms: N_1  and  C_19
    2  A    between atoms: C_7  and  C_22
    3  A    between atoms: O_9  and  C_22
    4  A    between atoms: O_9  and  C_23
    5  A    between atoms: C_15  and  C_23
    6  A    between atoms: C_19  and  C_22
                            x       y       z     vdW  Elec       q    Type
                         _______ _______ _______ _____ _____    ______ ____

>  <TORSDO>
F 6

$$$$
=
 OpenBabel10262419193D

 31 34  0  0  1  0  0  0  0  0999 V2000
  183.0380  178.7280  142.5700 C   0  0  1  0  0  3  0  0  0  0  0  0
  186.5280  178.6400  140.9150 C   0  0  1  0  0  3  0  0  0  0  0  0
  186.4590  177.8830  139.5700 C   0  0  1  0  0  3  0  0  0  0  0  0
  184.8300  177.2440  137.7870 C   0  0  0  0  0  2  0  0  0  0  0  0
  185.3490  178.2190  141.8190 C   0  0  2  0  0  3  0  0  0  0  0  0
  183.5460  179.2320  144.2280 S   0  0  0  0  0  0  0  0  0  0  0  0
  185.2120  178.3150  138.7970 C   0  0  0  0  0  2  0  0  0  0  0  0
  187.9680  177.1300  142.3670 C   0  0  1  0  0  3  0  0  0  0  0  0
  181.8700  179.4040  142.2220 O   0  0  0  0  0  1  0  0  0  0  0  0
  188.9140  177.7320  139.5090 N   0  0  0  0  0  2  0  0  0  0  0  0
  185.4250  177.5030  136.4000 C   0  0  0  0  0  2  0  0  0  0  0  0
  186.9690  177.1050  143.5290 C   0  0  0  0  0  2  0  0  0  0  0  0
  187.8980  178.4720  141.6120 C   0  0  1  0  0  3  0  0  0  0  0  0
  184.1530  179.1450  141.6410 C   0  0  0  0  0  2  0  0  0  0  0  0
  186.8680  178.0110  136.3990 C   0  0  0  0  0  2  0  0  0  0  0  0
  185.7280  177.9120  143.2640 C   0  0  0  0  0  0  0  0  0  0  0  0
  184.9600  178.1790  144.2680 N   0  0  0  0  0  0  0  0  0  0  0  0
  189.0430  178.6690  140.6160 C   0  0  0  0  0  2  0  0  0  0  0  0
  187.7390  178.1120  138.7350 C   0  0  1  0  0  3  0  0  0  0  0  0
  187.7380  177.3140  137.4350 C   0  0  0  0  0  2  0  0  0  0  0  0
  189.3640  176.8220  142.9000 C   0  0  0  0  0  2  0  0  0  0  0  0
  189.3230  176.5660  144.2850 O   0  0  0  0  0  0  0  0  0  0  0  0
  191.5670  176.5500  144.5800 O   0  0  0  0  0  1  0  0  0  0  0  0
  190.3940  177.2210  144.9440 C   0  0  1  0  0  0  0  0  0  0  0  0
  191.8570  178.9050  144.0070 O   0  0  0  0  0  1  0  0  0  0  0  0
  190.5490  178.6650  144.4360 C   0  0  0  0  0  2  0  0  0  0  0  0
  190.2500  177.1270  146.4680 C   0  0  0  0  0  0  0  0  0  0  0  0
  191.1670  176.4310  147.1410 C   0  0  0  0  0  2  0  0  0  0  0  0
  189.1220  177.6750  147.1870 N   0  0  0  0  0  0  0  0  0  0  0  0
  187.7580  177.5740  146.6910 C   0  0  0  0  0  1  0  0  0  0  0  0
  189.2980  178.2520  148.5120 C   0  0  0  0  0  1  0  0  0  0  0  0
  1  9  1  6  0  0  0
  1  6  1  0  0  0  0
  2 13  1  0  0  0  0
  2  5  1  0  0  0  0
  3  2  1  0  0  0  0
  4  7  1  0  0  0  0
  5 16  1  0  0  0  0
  6 17  1  0  0  0  0
  7  3  1  0  0  0  0
  8 21  1  0  0  0  0
  8 12  1  0  0  0  0
 10 18  1  0  0  0  0
 11  4  1  0  0  0  0
 13  8  1  0  0  0  0
 14  5  1  0  0  0  0
 14  1  1  0  0  0  0
 15 11  1  0  0  0  0
 15 20  1  0  0  0  0
 16 12  1  0  0  0  0
 16 17  2  0  0  0  0
 18 13  1  0  0  0  0
 19 10  1  0  0  0  0
 19  3  1  0  0  0  0
 20 19  1  0  0  0  0
 21 22  1  0  0  0  0
 22 24  1  0  0  0  0
 23 24  1  0  0  0  0
 24 27  1  0  0  0  0
 25 26  1  0  0  0  0
 26 24  1  0  0  0  0
 27 28  2  0  0  0  0
 27 29  1  0  0  0  0
 29 31  1  0  0  0  0
 30 29  1  0  0  0  0
M  END
>  <MODEL>
7

>  <REMARK>
 VINA RESULT:      -7.1      2.348      6.949
  Name = 
  6 active torsions:
  status: ('A' for Active; 'I' for Inactive)
    1  A    between atoms: N_1  and  C_19
    2  A    between atoms: C_7  and  C_22
    3  A    between atoms: O_9  and  C_22
    4  A    between atoms: O_9  and  C_23
    5  A    between atoms: C_15  and  C_23
    6  A    between atoms: C_19  and  C_22
                            x       y       z     vdW  Elec       q    Type
                         _______ _______ _______ _____ _____    ______ ____

>  <TORSDO>
F 6

$$$$
=
 OpenBabel10262419193D

 31 34  0  0  1  0  0  0  0  0999 V2000
  188.3220  177.9220  138.4970 C   0  0  1  0  0  3  0  0  0  0  0  0
  186.5370  178.8260  141.8020 C   0  0  1  0  0  3  0  0  0  0  0  0
  187.0010  177.8800  142.9320 C   0  0  1  0  0  3  0  0  0  0  0  0
  188.9160  176.4020  143.5590 C   0  0  0  0  0  2  0  0  0  0  0  0
  186.7800  178.1650  140.4270 C   0  0  2  0  0  3  0  0  0  0  0  0
  187.2640  178.8480  137.3640 S   0  0  0  0  0  0  0  0  0  0  0  0
  188.5170  177.6940  142.8610 C   0  0  0  0  0  2  0  0  0  0  0  0
  184.0920  178.2090  141.4840 C   0  0  1  0  0  3  0  0  0  0  0  0
  189.6510  178.0590  138.0990 O   0  0  0  0  0  1  0  0  0  0  0  0
  185.1280  178.6200  144.3450 N   0  0  0  0  0  2  0  0  0  0  0  0
  189.3030  176.6210  145.0240 C   0  0  0  0  0  2  0  0  0  0  0  0
  184.2200  178.0200  139.9680 C   0  0  0  0  0  2  0  0  0  0  0  0
  185.0720  179.2860  141.9880 C   0  0  1  0  0  3  0  0  0  0  0  0
  188.1390  178.5510  139.8570 C   0  0  0  0  0  2  0  0  0  0  0  0
  188.4180  177.6090  145.7870 C   0  0  0  0  0  2  0  0  0  0  0  0
  185.6110  178.2660  139.4530 C   0  0  0  0  0  0  0  0  0  0  0  0
  185.7630  178.4020  138.1770 N   0  0  0  0  0  0  0  0  0  0  0  0
  184.8160  179.7130  143.4340 C   0  0  0  0  0  2  0  0  0  0  0  0
  186.5700  178.4120  144.3170 C   0  0  1  0  0  3  0  0  0  0  0  0
  186.9430  177.4610  145.4500 C   0  0  0  0  0  2  0  0  0  0  0  0
  182.6400  178.5220  141.8290 C   0  0  0  0  0  2  0  0  0  0  0  0
  181.7810  178.1170  140.7880 O   0  0  0  0  0  0  0  0  0  0  0  0
  179.5580  177.8130  140.4960 O   0  0  0  0  0  1  0  0  0  0  0  0
  180.5160  178.7440  140.9140 C   0  0  1  0  0  0  0  0  0  0  0  0
  179.1740  178.2350  142.8610 O   0  0  0  0  0  1  0  0  0  0  0  0
  180.2020  179.0540  142.3870 C   0  0  0  0  0  2  0  0  0  0  0  0
  180.4100  179.9720  140.0010 C   0  0  0  0  0  0  0  0  0  0  0  0
  179.5860  180.9550  140.3680 C   0  0  0  0  0  2  0  0  0  0  0  0
  181.0850  180.0670  138.7260 N   0  0  0  0  0  0  0  0  0  0  0  0
  180.5850  179.4070  137.5290 C   0  0  0  0  0  1  0  0  0  0  0  0
  182.2410  180.9350  138.5630 C   0  0  0  0  0  1  0  0  0  0  0  0
  1  9  1  6  0  0  0
  1 14  1  0  0  0  0
  2 13  1  0  0  0  0
  2  3  1  0  0  0  0
  3 19  1  0  0  0  0
  4 11  1  0  0  0  0
  5  2  1  0  0  0  0
  6 17  1  0  0  0  0
  6  1  1  0  0  0  0
  7  3  1  0  0  0  0
  7  4  1  0  0  0  0
  8 21  1  0  0  0  0
  8 13  1  0  0  0  0
 11 15  1  0  0  0  0
 12  8  1  0  0  0  0
 13 18  1  0  0  0  0
 14  5  1  0  0  0  0
 16 12  1  0  0  0  0
 16  5  1  0  0  0  0
 17 16  2  0  0  0  0
 18 10  1  0  0  0  0
 19 10  1  0  0  0  0
 19 20  1  0  0  0  0
 20 15  1  0  0  0  0
 22 24  1  0  0  0  0
 22 21  1  0  0  0  0
 23 24  1  0  0  0  0
 24 26  1  0  0  0  0
 26 25  1  0  0  0  0
 27 28  2  0  0  0  0
 27 24  1  0  0  0  0
 29 27  1  0  0  0  0
 30 29  1  0  0  0  0
 31 29  1  0  0  0  0
M  END
>  <MODEL>
8

>  <REMARK>
 VINA RESULT:      -6.6      3.177      6.549
  Name = 
  6 active torsions:
  status: ('A' for Active; 'I' for Inactive)
    1  A    between atoms: N_1  and  C_19
    2  A    between atoms: C_7  and  C_22
    3  A    between atoms: O_9  and  C_22
    4  A    between atoms: O_9  and  C_23
    5  A    between atoms: C_15  and  C_23
    6  A    between atoms: C_19  and  C_22
                            x       y       z     vdW  Elec       q    Type
                         _______ _______ _______ _____ _____    ______ ____

>  <TORSDO>
F 6

$$$$
=
 OpenBabel10262419193D

 31 34  0  0  1  0  0  0  0  0999 V2000
  183.6740  178.2290  138.2470 C   0  0  1  0  0  3  0  0  0  0  0  0
  187.4910  177.6500  138.0880 C   0  0  1  0  0  3  0  0  0  0  0  0
  187.7900  176.1720  137.7530 C   0  0  1  0  0  3  0  0  0  0  0  0
  186.7410  174.1780  136.6730 C   0  0  0  0  0  2  0  0  0  0  0  0
  186.0740  177.7780  138.6910 C   0  0  2  0  0  3  0  0  0  0  0  0
  183.6860  179.8340  139.0730 S   0  0  0  0  0  0  0  0  0  0  0  0
  186.8570  175.6940  136.6400 C   0  0  0  0  0  2  0  0  0  0  0  0
  188.3490  177.9000  140.4670 C   0  0  1  0  0  3  0  0  0  0  0  0
  182.7000  178.2320  137.2500 O   0  0  0  0  0  1  0  0  0  0  0  0
  190.1390  176.4780  138.4170 N   0  0  0  0  0  2  0  0  0  0  0  0
  187.7370  173.4900  135.7350 C   0  0  0  0  0  2  0  0  0  0  0  0
  187.0480  178.5150  140.9920 C   0  0  0  0  0  2  0  0  0  0  0  0
  188.5780  178.2770  138.9910 C   0  0  1  0  0  3  0  0  0  0  0  0
  185.0370  178.0680  137.6150 C   0  0  0  0  0  2  0  0  0  0  0  0
  189.1380  174.1060  135.7150 C   0  0  0  0  0  2  0  0  0  0  0  0
  185.9870  178.6540  139.9370 C   0  0  0  0  0  0  0  0  0  0  0  0
  184.9670  179.4010  140.2050 N   0  0  0  0  0  0  0  0  0  0  0  0
  189.9770  177.9240  138.4820 C   0  0  0  0  0  2  0  0  0  0  0  0
  189.2710  175.9780  137.3580 C   0  0  1  0  0  3  0  0  0  0  0  0
  189.6200  174.5160  137.0990 C   0  0  0  0  0  2  0  0  0  0  0  0
  189.5030  178.3210  141.3720 C   0  0  0  0  0  2  0  0  0  0  0  0
  190.1100  177.1960  141.9630 O   0  0  0  0  0  0  0  0  0  0  0  0
  191.3630  176.6430  143.7640 O   0  0  0  0  0  1  0  0  0  0  0  0
  190.2440  177.3800  143.3630 C   0  0  1  0  0  0  0  0  0  0  0  0
  191.8720  178.9930  144.1380 O   0  0  0  0  0  1  0  0  0  0  0  0
  190.5540  178.8490  143.6950 C   0  0  0  0  0  2  0  0  0  0  0  0
  189.0240  176.8330  144.1150 C   0  0  0  0  0  0  0  0  0  0  0  0
  188.2050  176.0070  143.4610 C   0  0  0  0  0  2  0  0  0  0  0  0
  188.6760  177.2460  145.4550 N   0  0  0  0  0  0  0  0  0  0  0  0
  189.5680  177.0490  146.5880 C   0  0  0  0  0  1  0  0  0  0  0  0
  187.4510  177.9910  145.7060 C   0  0  0  0  0  1  0  0  0  0  0  0
  1  9  1  6  0  0  0
  1  6  1  0  0  0  0
  2  5  1  0  0  0  0
  2 13  1  0  0  0  0
  3  2  1  0  0  0  0
  5 16  1  0  0  0  0
  6 17  1  0  0  0  0
  7  4  1  0  0  0  0
  7  3  1  0  0  0  0
  8 12  1  0  0  0  0
  8 21  1  0  0  0  0
 10 18  1  0  0  0  0
 11  4  1  0  0  0  0
 13  8  1  0  0  0  0
 14  1  1  0  0  0  0
 14  5  1  0  0  0  0
 15 11  1  0  0  0  0
 15 20  1  0  0  0  0
 16 17  2  0  0  0  0
 16 12  1  0  0  0  0
 18 13  1  0  0  0  0
 19  3  1  0  0  0  0
 19 10  1  0  0  0  0
 20 19  1  0  0  0  0
 21 22  1  0  0  0  0
 22 24  1  0  0  0  0
 24 26  1  0  0  0  0
 24 23  1  0  0  0  0
 24 27  1  0  0  0  0
 26 25  1  0  0  0  0
 27 29  1  0  0  0  0
 28 27  2  0  0  0  0
 29 31  1  0  0  0  0
 29 30  1  0  0  0  0
M  END
>  <MODEL>
9

>  <REMARK>
 VINA RESULT:      -6.5      2.496      7.211
  Name = 
  6 active torsions:
  status: ('A' for Active; 'I' for Inactive)
    1  A    between atoms: N_1  and  C_19
    2  A    between atoms: C_7  and  C_22
    3  A    between atoms: O_9  and  C_22
    4  A    between atoms: O_9  and  C_23
    5  A    between atoms: C_15  and  C_23
    6  A    between atoms: C_19  and  C_22
                            x       y       z     vdW  Elec       q    Type
                         _______ _______ _______ _____ _____    ______ ____

>  <TORSDO>
F 6

$$$$
