=
 OpenBabel10262420403D

 55 61  0  0  1  0  0  0  0  0999 V2000
  188.0700  176.3490  136.1840 C   0  0  1  0  0  3  0  0  0  0  0  0
  188.9460  174.6280  134.7050 O   0  0  0  0  0  0  0  0  0  0  0  0
  189.6070  174.5210  136.9920 C   0  0  1  0  0  3  0  0  0  0  0  0
  189.7110  173.4650  134.8680 C   0  0  0  0  0  2  0  0  0  0  0  0
  189.2370  175.4220  135.8310 C   0  0  2  0  0  3  0  0  0  0  0  0
  189.8510  173.1850  136.3480 C   0  0  0  0  0  2  0  0  0  0  0  0
  190.8730  175.0390  137.6530 C   0  0  0  0  0  2  0  0  0  0  0  0
  191.6260  175.9570  136.7030 C   0  0  0  0  0  2  0  0  0  0  0  0
  193.1220  175.7270  136.8160 C   0  0  0  0  0  2  0  0  0  0  0  0
  193.8190  176.1200  135.5240 C   0  0  0  0  0  1  0  0  0  0  0  0
  186.8290  175.9240  135.4190 C   0  0  0  0  0  2  0  0  0  0  0  0
  185.6610  171.5260  135.5890 C   0  0  0  0  0  2  0  0  0  0  0  0
  184.3340  170.8820  135.2250 C   0  0  0  0  0  2  0  0  0  0  0  0
  183.9830  173.2550  135.1760 C   0  0  2  0  0  3  0  0  0  0  0  0
  183.2820  171.9370  135.4850 C   0  0  2  0  0  3  0  0  0  0  0  0
  182.8970  171.8680  136.8250 O   0  0  0  0  0  1  0  0  0  0  0  0
  185.4870  173.0140  135.3500 C   0  0  1  0  0  3  0  0  0  0  0  0
  184.3800  175.6470  135.8680 C   0  0  2  0  0  3  0  0  0  0  0  0
  183.4380  174.4420  135.9810 C   0  0  0  0  0  2  0  0  0  0  0  0
  186.0690  173.8020  136.5220 C   0  0  0  0  0  2  0  0  0  0  0  0
  185.8060  175.3070  136.3610 C   0  0  1  0  0  3  0  0  0  0  0  0
  182.3330  177.1180  136.2240 C   0  0  0  0  0  1  0  0  0  0  0  0
  183.7980  176.8660  136.6060 C   0  0  1  0  0  3  0  0  0  0  0  0
  184.0710  176.7810  138.1270 C   0  0  2  0  0  3  0  0  0  0  0  0
  183.0150  175.9830  138.8730 C   0  0  0  0  0  2  0  0  0  0  0  0
  183.0320  177.5000  138.9720 C   0  0  1  0  0  3  0  0  0  0  0  0
  184.2870  179.1580  140.3950 C   0  0  0  0  0  0  0  0  0  0  0  0
  184.8540  179.5030  141.6530 N   0  0  0  0  0  1  0  0  0  0  0  0
  183.6350  177.8980  140.2340 N   0  0  0  0  0  2  0  0  0  0  0  0
  184.3650  179.9650  139.4320 O   0  0  0  0  0  0  0  0  0  0  0  0
  187.7860  176.3790  137.6850 C   0  0  0  0  0  2  0  0  0  0  0  0
  188.4850  177.5620  138.3330 C   0  0  1  0  0  3  0  0  0  0  0  0
  189.0530  178.4940  137.2740 C   0  0  0  0  0  2  0  0  0  0  0  0
  188.8400  179.8240  137.6390 O   0  0  0  0  0  1  0  0  0  0  0  0
  187.5000  178.3100  139.2060 C   0  0  0  0  0  2  0  0  0  0  0  0
  187.9890  178.2910  140.6390 C   0  0  0  0  0  2  0  0  0  0  0  0
  189.2100  177.3920  140.7610 C   0  0  0  0  0  2  0  0  0  0  0  0
  190.8580  177.5170  143.8260 C   0  0  1  0  0  0  0  0  0  0  0  0
  190.5020  175.8460  142.2060 C   0  0  0  0  0  2  0  0  0  0  0  0
  188.1330  176.3200  142.7440 C   0  0  0  0  0  1  0  0  0  0  0  0
  189.4200  176.9160  142.1940 C   0  0  2  0  0  0  0  0  0  0  0  0
  191.9100  175.3660  144.2620 F   0  0  0  0  0  0  0  0  0  0  0  0
  191.4010  176.2540  143.3320 C   0  0  2  0  0  0  0  0  0  0  0  0
  192.1040  177.4640  143.1600 O   0  0  0  0  0  0  0  0  0  0  0  0
  189.8270  178.0020  143.0040 O   0  0  0  0  0  0  0  0  0  0  0  0
  190.6710  179.3980  145.3830 O   0  0  0  0  0  1  0  0  0  0  0  0
  190.9420  178.0300  145.2770 C   0  0  1  0  0  3  0  0  0  0  0  0
  190.0940  177.2350  146.2850 C   0  0  1  0  0  3  0  0  0  0  0  0
  190.9440  176.2980  147.1290 C   0  0  0  0  0  1  0  0  0  0  0  0
  188.0730  177.8950  149.2380 O   0  0  0  0  0  1  0  0  0  0  0  0
  188.2890  177.2910  148.0010 C   0  0  1  0  0  3  0  0  0  0  0  0
  187.7530  178.1910  146.9050 C   0  0  1  0  0  3  0  0  0  0  0  0
  189.2580  178.1370  147.1980 C   0  0  2  0  0  3  0  0  0  0  0  0
  187.2940  177.3410  145.7270 C   0  0  0  0  0  2  0  0  0  0  0  0
  186.0160  177.9250  145.1580 C   0  0  0  0  0  1  0  0  0  0  0  0
  1 11  1  6  0  0  0
  1 31  1  0  0  0  0
  2  4  1  0  0  0  0
  2  5  1  0  0  0  0
  3  7  1  6  0  0  0
  4  6  1  0  0  0  0
  5  1  1  1  0  0  0
  5  3  1  0  0  0  0
  6  3  1  0  0  0  0
  8  9  1  0  0  0  0
  8  7  1  0  0  0  0
 10  9  1  0  0  0  0
 13 15  1  0  0  0  0
 13 12  1  0  0  0  0
 14 17  1  0  0  0  0
 14 15  1  0  0  0  0
 14 19  1  1  0  0  0
 15 16  1  1  0  0  0
 17 12  1  1  0  0  0
 17 20  1  0  0  0  0
 18 19  1  0  0  0  0
 18 21  1  0  0  0  0
 18 23  1  1  0  0  0
 21 11  1  6  0  0  0
 21 20  1  0  0  0  0
 23 22  1  1  0  0  0
 24 23  1  6  0  0  0
 24 25  1  0  0  0  0
 24 26  1  0  0  0  0
 25 26  1  0  0  0  0
 26 29  1  1  0  0  0
 27 28  1  0  0  0  0
 29 27  1  0  0  0  0
 30 27  2  0  0  0  0
 31 32  1  0  0  0  0
 32 33  1  6  0  0  0
 32 35  1  0  0  0  0
 33 34  1  0  0  0  0
 35 36  1  0  0  0  0
 36 37  1  0  0  0  0
 37 41  1  0  0  0  0
 38 47  1  1  0  0  0
 39 43  1  0  0  0  0
 41 39  1  0  0  0  0
 41 40  1  1  0  0  0
 41 45  1  0  0  0  0
 43 38  1  0  0  0  0
 43 42  1  1  0  0  0
 44 43  1  0  0  0  0
 44 38  1  0  0  0  0
 45 38  1  0  0  0  0
 47 46  1  6  0  0  0
 47 48  1  0  0  0  0
 48 49  1  1  0  0  0
 51 50  1  1  0  0  0
 52 54  1  6  0  0  0
 52 53  1  0  0  0  0
 52 51  1  0  0  0  0
 53 48  1  6  0  0  0
 53 51  1  0  0  0  0
 55 54  1  0  0  0  0
M  END
>  <MODEL>
1

>  <REMARK>
 VINA RESULT:      -7.0      0.000      0.000
  Name = 
  20 active torsions:
  status: ('A' for Active; 'I' for Inactive)
    1  A    between atoms: C_1  and  C_38
    2  A    between atoms: C_2  and  C_19
    3  A    between atoms: C_2  and  C_28
    4  A    between atoms: C_2  and  C_44
    5  A    between atoms: C_4  and  C_40
    6  A    between atoms: C_5  and  C_40
    7  A    between atoms: C_5  and  C_46
    8  A    between atoms: C_6  and  C_14
    9  A    between atoms: C_6  and  C_46
   10  A    between atoms: C_8  and  C_22
   11  A    between atoms: C_13  and  C_52
   12  A    between atoms: C_19  and  C_40
   13  A    between atoms: C_21  and  C_38
   14  A    between atoms: C_21  and  C_42
   15  A    between atoms: C_27  and  C_31
   16  A    between atoms: C_28  and  C_49
   17  A    between atoms: C_31  and  C_51
   18  A    between atoms: N_32  and  C_48
   19  A    between atoms: C_33  and  C_52
   20  A    between atoms: C_35  and  C_51
                            x       y       z     vdW  Elec       q    Type
                         _______ _______ _______ _____ _____    ______ ____

>  <TORSDO>
F 20

$$$$
=
 OpenBabel10262420403D

 55 61  0  0  1  0  0  0  0  0999 V2000
  188.8160  177.4670  142.6970 C   0  0  1  0  0  3  0  0  0  0  0  0
  190.0390  179.4040  143.5140 O   0  0  0  0  0  0  0  0  0  0  0  0
  191.1280  177.2920  143.6850 C   0  0  1  0  0  3  0  0  0  0  0  0
  191.3300  179.6360  144.0070 C   0  0  0  0  0  2  0  0  0  0  0  0
  189.8060  178.0310  143.7210 C   0  0  2  0  0  3  0  0  0  0  0  0
  192.1540  178.3840  143.8020 C   0  0  0  0  0  2  0  0  0  0  0  0
  191.2130  176.3460  144.8710 C   0  0  0  0  0  2  0  0  0  0  0  0
  190.4420  176.9120  146.0530 C   0  0  0  0  0  2  0  0  0  0  0  0
  191.1720  176.6220  147.3520 C   0  0  0  0  0  2  0  0  0  0  0  0
  192.3050  175.6350  147.1150 C   0  0  0  0  0  1  0  0  0  0  0  0
  189.5770  176.8570  141.5320 C   0  0  0  0  0  2  0  0  0  0  0  0
  186.0670  178.5310  139.1620 C   0  0  0  0  0  2  0  0  0  0  0  0
  185.7050  178.2910  137.7070 C   0  0  0  0  0  2  0  0  0  0  0  0
  187.8730  177.3210  138.0440 C   0  0  2  0  0  3  0  0  0  0  0  0
  187.0140  178.0210  136.9980 C   0  0  2  0  0  3  0  0  0  0  0  0
  187.5770  179.2400  136.6120 O   0  0  0  0  0  1  0  0  0  0  0  0
  187.3330  177.7360  139.4180 C   0  0  1  0  0  3  0  0  0  0  0  0
  190.1500  177.1070  139.1060 C   0  0  2  0  0  3  0  0  0  0  0  0
  189.3780  177.5590  137.8610 C   0  0  0  0  0  2  0  0  0  0  0  0
  188.3330  178.5830  140.2020 C   0  0  0  0  0  2  0  0  0  0  0  0
  189.6680  177.8440  140.3780 C   0  0  1  0  0  3  0  0  0  0  0  0
  192.4470  177.0790  140.2040 C   0  0  0  0  0  1  0  0  0  0  0  0
  191.6670  177.2680  138.8960 C   0  0  1  0  0  3  0  0  0  0  0  0
  192.1620  176.4050  137.7100 C   0  0  2  0  0  3  0  0  0  0  0  0
  191.7440  174.9490  137.8240 C   0  0  0  0  0  2  0  0  0  0  0  0
  193.1820  175.3520  138.1100 C   0  0  1  0  0  3  0  0  0  0  0  0
  195.4200  174.8220  137.0790 C   0  0  0  0  0  0  0  0  0  0  0  0
  196.1860  174.5030  135.9250 N   0  0  0  0  0  1  0  0  0  0  0  0
  194.0130  175.0330  136.9590 N   0  0  0  0  0  2  0  0  0  0  0  0
  195.9870  174.9170  138.1990 O   0  0  0  0  0  0  0  0  0  0  0  0
  187.8680  176.4380  143.3110 C   0  0  0  0  0  2  0  0  0  0  0  0
  186.6330  177.1230  143.8700 C   0  0  1  0  0  3  0  0  0  0  0  0
  186.9490  177.8000  145.1950 C   0  0  0  0  0  2  0  0  0  0  0  0
  185.8970  177.6180  146.0930 O   0  0  0  0  0  1  0  0  0  0  0  0
  186.1320  178.1470  142.8730 C   0  0  0  0  0  2  0  0  0  0  0  0
  184.6190  178.1010  142.8300 C   0  0  0  0  0  2  0  0  0  0  0  0
  184.0940  179.1390  141.8490 C   0  0  0  0  0  2  0  0  0  0  0  0
  181.2780  179.6110  139.8560 C   0  0  1  0  0  0  0  0  0  0  0  0
  181.6800  178.5790  141.9340 C   0  0  0  0  0  2  0  0  0  0  0  0
  183.2020  177.1950  140.5580 C   0  0  0  0  0  1  0  0  0  0  0  0
  182.9140  178.6070  141.0440 C   0  0  2  0  0  0  0  0  0  0  0  0
  179.3260  178.7040  140.9930 F   0  0  0  0  0  0  0  0  0  0  0  0
  180.6120  179.2050  141.0920 C   0  0  2  0  0  0  0  0  0  0  0  0
  180.7870  180.5670  140.7740 O   0  0  0  0  0  0  0  0  0  0  0  0
  182.6720  179.4520  139.9360 O   0  0  0  0  0  0  0  0  0  0  0  0
  181.1310  180.7350  137.6860 O   0  0  0  0  0  1  0  0  0  0  0  0
  180.6260  179.6860  138.4610 C   0  0  1  0  0  3  0  0  0  0  0  0
  180.6610  178.3680  137.6690 C   0  0  1  0  0  3  0  0  0  0  0  0
  179.5150  178.2720  136.6740 C   0  0  0  0  0  1  0  0  0  0  0  0
  182.6860  177.6300  134.7370 O   0  0  0  0  0  1  0  0  0  0  0  0
  181.7700  177.2730  135.7250 C   0  0  1  0  0  3  0  0  0  0  0  0
  182.5150  176.7030  136.9160 C   0  0  1  0  0  3  0  0  0  0  0  0
  181.9930  178.1450  136.9460 C   0  0  2  0  0  3  0  0  0  0  0  0
  181.6360  175.6820  137.6270 C   0  0  0  0  0  2  0  0  0  0  0  0
  181.3300  174.5410  136.6780 C   0  0  0  0  0  1  0  0  0  0  0  0
  1 11  1  6  0  0  0
  1 31  1  0  0  0  0
  2  5  1  0  0  0  0
  2  4  1  0  0  0  0
  3  5  1  0  0  0  0
  3  6  1  0  0  0  0
  3  7  1  1  0  0  0
  5  1  1  6  0  0  0
  6  4  1  0  0  0  0
  7  8  1  0  0  0  0
  8  9  1  0  0  0  0
 10  9  1  0  0  0  0
 13 12  1  0  0  0  0
 14 19  1  1  0  0  0
 14 17  1  0  0  0  0
 15 16  1  1  0  0  0
 15 13  1  0  0  0  0
 15 14  1  0  0  0  0
 17 12  1  6  0  0  0
 17 20  1  0  0  0  0
 18 23  1  6  0  0  0
 18 21  1  0  0  0  0
 19 18  1  0  0  0  0
 20 21  1  0  0  0  0
 21 11  1  1  0  0  0
 23 22  1  1  0  0  0
 24 25  1  0  0  0  0
 24 26  1  0  0  0  0
 24 23  1  1  0  0  0
 25 26  1  0  0  0  0
 26 29  1  6  0  0  0
 27 30  2  0  0  0  0
 28 27  1  0  0  0  0
 29 27  1  0  0  0  0
 31 32  1  0  0  0  0
 32 35  1  6  0  0  0
 32 33  1  0  0  0  0
 33 34  1  0  0  0  0
 36 35  1  0  0  0  0
 37 36  1  0  0  0  0
 38 47  1  6  0  0  0
 38 45  1  0  0  0  0
 38 44  1  0  0  0  0
 38 43  1  0  0  0  0
 41 40  1  6  0  0  0
 41 37  1  0  0  0  0
 41 39  1  0  0  0  0
 43 42  1  6  0  0  0
 43 39  1  0  0  0  0
 44 43  1  0  0  0  0
 45 41  1  0  0  0  0
 47 46  1  6  0  0  0
 48 49  1  6  0  0  0
 48 47  1  0  0  0  0
 51 50  1  6  0  0  0
 51 52  1  0  0  0  0
 51 53  1  0  0  0  0
 52 53  1  0  0  0  0
 52 54  1  1  0  0  0
 53 48  1  1  0  0  0
 55 54  1  0  0  0  0
M  END
>  <MODEL>
2

>  <REMARK>
 VINA RESULT:      -6.9      3.748      9.736
  Name = 
  20 active torsions:
  status: ('A' for Active; 'I' for Inactive)
    1  A    between atoms: C_1  and  C_38
    2  A    between atoms: C_2  and  C_19
    3  A    between atoms: C_2  and  C_28
    4  A    between atoms: C_2  and  C_44
    5  A    between atoms: C_4  and  C_40
    6  A    between atoms: C_5  and  C_40
    7  A    between atoms: C_5  and  C_46
    8  A    between atoms: C_6  and  C_14
    9  A    between atoms: C_6  and  C_46
   10  A    between atoms: C_8  and  C_22
   11  A    between atoms: C_13  and  C_52
   12  A    between atoms: C_19  and  C_40
   13  A    between atoms: C_21  and  C_38
   14  A    between atoms: C_21  and  C_42
   15  A    between atoms: C_27  and  C_31
   16  A    between atoms: C_28  and  C_49
   17  A    between atoms: C_31  and  C_51
   18  A    between atoms: N_32  and  C_48
   19  A    between atoms: C_33  and  C_52
   20  A    between atoms: C_35  and  C_51
                            x       y       z     vdW  Elec       q    Type
                         _______ _______ _______ _____ _____    ______ ____

>  <TORSDO>
F 20

$$$$
=
 OpenBabel10262420403D

 55 61  0  0  1  0  0  0  0  0999 V2000
  185.4780  177.8060  136.6440 C   0  0  1  0  0  3  0  0  0  0  0  0
  183.7320  177.1270  135.0930 O   0  0  0  0  0  0  0  0  0  0  0  0
  184.7050  175.4150  136.4350 C   0  0  1  0  0  3  0  0  0  0  0  0
  183.0390  175.9390  134.8250 C   0  0  0  0  0  2  0  0  0  0  0  0
  184.9330  176.7240  135.7060 C   0  0  2  0  0  3  0  0  0  0  0  0
  183.3890  174.9280  135.8940 C   0  0  0  0  0  2  0  0  0  0  0  0
  185.8200  174.4430  136.0950 C   0  0  0  0  0  2  0  0  0  0  0  0
  185.9780  173.4130  137.2040 C   0  0  0  0  0  2  0  0  0  0  0  0
  187.3150  172.7050  137.0830 C   0  0  0  0  0  2  0  0  0  0  0  0
  187.2530  171.6310  136.0080 C   0  0  0  0  0  1  0  0  0  0  0  0
  185.2280  177.4050  138.0880 C   0  0  0  0  0  2  0  0  0  0  0  0
  185.3660  179.5080  142.1240 C   0  0  0  0  0  2  0  0  0  0  0  0
  184.5540  179.2150  143.3740 C   0  0  0  0  0  2  0  0  0  0  0  0
  183.6140  177.8800  141.6160 C   0  0  2  0  0  3  0  0  0  0  0  0
  183.2440  178.6370  142.8850 C   0  0  2  0  0  3  0  0  0  0  0  0
  182.3630  179.6860  142.6120 O   0  0  0  0  0  1  0  0  0  0  0  0
  184.9050  178.5100  141.0790 C   0  0  1  0  0  3  0  0  0  0  0  0
  183.0020  177.3260  139.2330 C   0  0  2  0  0  3  0  0  0  0  0  0
  182.4750  177.8060  140.5910 C   0  0  0  0  0  2  0  0  0  0  0  0
  184.6930  179.2150  139.7410 C   0  0  0  0  0  2  0  0  0  0  0  0
  184.1180  178.2510  138.6920 C   0  0  1  0  0  3  0  0  0  0  0  0
  181.0870  175.8560  138.4240 C   0  0  0  0  0  1  0  0  0  0  0  0
  181.8500  177.1730  138.2240 C   0  0  1  0  0  3  0  0  0  0  0  0
  180.9650  178.4420  138.1900 C   0  0  2  0  0  3  0  0  0  0  0  0
  179.6620  178.2330  137.4370 C   0  0  0  0  0  2  0  0  0  0  0  0
  180.7920  179.0230  136.7960 C   0  0  1  0  0  3  0  0  0  0  0  0
  180.6600  181.3330  135.7960 C   0  0  0  0  0  0  0  0  0  0  0  0
  180.3640  182.7150  135.9530 N   0  0  0  0  0  1  0  0  0  0  0  0
  180.5110  180.4470  136.9050 N   0  0  0  0  0  2  0  0  0  0  0  0
  181.0520  180.9000  134.6810 O   0  0  0  0  0  0  0  0  0  0  0  0
  186.9640  178.0780  136.4160 C   0  0  0  0  0  2  0  0  0  0  0  0
  187.7960  177.4170  137.5010 C   0  0  1  0  0  3  0  0  0  0  0  0
  188.8210  176.4730  136.8900 C   0  0  0  0  0  2  0  0  0  0  0  0
  188.4480  176.1330  135.5900 O   0  0  0  0  0  1  0  0  0  0  0  0
  188.4980  178.4840  138.3150 C   0  0  0  0  0  2  0  0  0  0  0  0
  189.1350  177.8440  139.5310 C   0  0  0  0  0  2  0  0  0  0  0  0
  188.3030  178.1360  140.7700 C   0  0  0  0  0  2  0  0  0  0  0  0
  190.7020  177.8710  143.2800 C   0  0  1  0  0  0  0  0  0  0  0  0
  189.9250  176.4430  141.5780 C   0  0  0  0  0  2  0  0  0  0  0  0
  187.7840  176.7470  142.7810 C   0  0  0  0  0  1  0  0  0  0  0  0
  188.8820  177.4630  142.0100 C   0  0  2  0  0  0  0  0  0  0  0  0
  191.8250  175.7200  143.0970 F   0  0  0  0  0  0  0  0  0  0  0  0
  191.0910  176.7150  142.4770 C   0  0  2  0  0  0  0  0  0  0  0  0
  191.7270  177.9620  142.3120 O   0  0  0  0  0  0  0  0  0  0  0  0
  189.4920  178.4330  142.8400 O   0  0  0  0  0  0  0  0  0  0  0  0
  191.1680  179.5360  145.0150 O   0  0  0  0  0  1  0  0  0  0  0  0
  191.1680  178.1690  144.7200 C   0  0  1  0  0  3  0  0  0  0  0  0
  190.4170  177.3840  145.8090 C   0  0  1  0  0  3  0  0  0  0  0  0
  191.3090  176.3560  146.4850 C   0  0  0  0  0  1  0  0  0  0  0  0
  189.0460  178.0720  149.1090 O   0  0  0  0  0  1  0  0  0  0  0  0
  189.0040  177.4550  147.8590 C   0  0  1  0  0  3  0  0  0  0  0  0
  188.2510  178.3430  146.8890 C   0  0  1  0  0  3  0  0  0  0  0  0
  189.7840  178.2950  146.8650 C   0  0  2  0  0  3  0  0  0  0  0  0
  187.5610  177.4810  145.8390 C   0  0  0  0  0  2  0  0  0  0  0  0
  186.0630  177.5230  146.0630 C   0  0  0  0  0  1  0  0  0  0  0  0
  1 31  1  1  0  0  0
  1 11  1  0  0  0  0
  2  5  1  0  0  0  0
  3  7  1  6  0  0  0
  4  2  1  0  0  0  0
  4  6  1  0  0  0  0
  5  3  1  0  0  0  0
  5  1  1  1  0  0  0
  6  3  1  0  0  0  0
  7  8  1  0  0  0  0
  9  8  1  0  0  0  0
 10  9  1  0  0  0  0
 12 13  1  0  0  0  0
 14 19  1  6  0  0  0
 14 15  1  0  0  0  0
 15 16  1  6  0  0  0
 15 13  1  0  0  0  0
 17 20  1  6  0  0  0
 17 14  1  0  0  0  0
 17 12  1  0  0  0  0
 18 23  1  6  0  0  0
 18 19  1  0  0  0  0
 21 11  1  1  0  0  0
 21 18  1  0  0  0  0
 21 20  1  0  0  0  0
 23 22  1  1  0  0  0
 24 23  1  6  0  0  0
 25 24  1  0  0  0  0
 26 29  1  1  0  0  0
 26 25  1  0  0  0  0
 26 24  1  0  0  0  0
 27 28  1  0  0  0  0
 27 29  1  0  0  0  0
 30 27  2  0  0  0  0
 32 31  1  6  0  0  0
 32 35  1  0  0  0  0
 33 32  1  0  0  0  0
 34 33  1  0  0  0  0
 35 36  1  0  0  0  0
 36 37  1  0  0  0  0
 37 41  1  0  0  0  0
 38 47  1  1  0  0  0
 39 41  1  0  0  0  0
 39 43  1  0  0  0  0
 41 40  1  1  0  0  0
 41 45  1  0  0  0  0
 43 42  1  1  0  0  0
 43 38  1  0  0  0  0
 44 43  1  0  0  0  0
 44 38  1  0  0  0  0
 45 38  1  0  0  0  0
 47 46  1  1  0  0  0
 47 48  1  0  0  0  0
 48 49  1  1  0  0  0
 51 50  1  1  0  0  0
 52 54  1  6  0  0  0
 52 51  1  0  0  0  0
 53 48  1  6  0  0  0
 53 52  1  0  0  0  0
 53 51  1  0  0  0  0
 54 55  1  0  0  0  0
M  END
>  <MODEL>
3

>  <REMARK>
 VINA RESULT:      -6.9      2.278      4.875
  Name = 
  20 active torsions:
  status: ('A' for Active; 'I' for Inactive)
    1  A    between atoms: C_1  and  C_38
    2  A    between atoms: C_2  and  C_19
    3  A    between atoms: C_2  and  C_28
    4  A    between atoms: C_2  and  C_44
    5  A    between atoms: C_4  and  C_40
    6  A    between atoms: C_5  and  C_40
    7  A    between atoms: C_5  and  C_46
    8  A    between atoms: C_6  and  C_14
    9  A    between atoms: C_6  and  C_46
   10  A    between atoms: C_8  and  C_22
   11  A    between atoms: C_13  and  C_52
   12  A    between atoms: C_19  and  C_40
   13  A    between atoms: C_21  and  C_38
   14  A    between atoms: C_21  and  C_42
   15  A    between atoms: C_27  and  C_31
   16  A    between atoms: C_28  and  C_49
   17  A    between atoms: C_31  and  C_51
   18  A    between atoms: N_32  and  C_48
   19  A    between atoms: C_33  and  C_52
   20  A    between atoms: C_35  and  C_51
                            x       y       z     vdW  Elec       q    Type
                         _______ _______ _______ _____ _____    ______ ____

>  <TORSDO>
F 20

$$$$
=
 OpenBabel10262420403D

 55 61  0  0  1  0  0  0  0  0999 V2000
  180.9840  178.6230  139.6770 C   0  0  1  0  0  3  0  0  0  0  0  0
  179.8220  177.4850  141.4850 O   0  0  0  0  0  0  0  0  0  0  0  0
  180.0190  176.3090  139.4220 C   0  0  1  0  0  3  0  0  0  0  0  0
  179.2820  176.2060  141.6780 C   0  0  0  0  0  2  0  0  0  0  0  0
  179.8660  177.6610  140.0890 C   0  0  2  0  0  3  0  0  0  0  0  0
  179.6990  175.3300  140.5170 C   0  0  0  0  0  2  0  0  0  0  0  0
  179.0210  176.1880  138.2840 C   0  0  0  0  0  2  0  0  0  0  0  0
  179.6320  175.4110  137.1270 C   0  0  0  0  0  2  0  0  0  0  0  0
  178.9350  174.0730  136.9590 C   0  0  0  0  0  2  0  0  0  0  0  0
  179.7190  172.9740  137.6580 C   0  0  0  0  0  1  0  0  0  0  0  0
  180.3830  179.9370  139.2080 C   0  0  0  0  0  2  0  0  0  0  0  0
  181.0840  184.2310  137.8650 C   0  0  0  0  0  2  0  0  0  0  0  0
  180.4200  184.9900  136.7290 C   0  0  0  0  0  2  0  0  0  0  0  0
  179.7300  182.7020  136.5220 C   0  0  2  0  0  3  0  0  0  0  0  0
  180.0480  183.9450  135.7010 C   0  0  2  0  0  3  0  0  0  0  0  0
  181.1430  183.7320  134.8600 O   0  0  0  0  0  1  0  0  0  0  0  0
  180.4790  182.8400  137.8530 C   0  0  1  0  0  3  0  0  0  0  0  0
  179.9750  180.2020  136.7510 C   0  0  2  0  0  3  0  0  0  0  0  0
  180.0050  181.3880  135.7790 C   0  0  0  0  0  2  0  0  0  0  0  0
  181.5780  181.7910  138.0120 C   0  0  0  0  0  2  0  0  0  0  0  0
  181.0080  180.3700  137.8910 C   0  0  1  0  0  3  0  0  0  0  0  0
  179.1610  178.7150  134.8520 C   0  0  0  0  0  1  0  0  0  0  0  0
  180.1710  178.8740  135.9970 C   0  0  1  0  0  3  0  0  0  0  0  0
  181.6510  178.6710  135.5960 C   0  0  2  0  0  3  0  0  0  0  0  0
  181.8500  177.5100  134.6370 C   0  0  0  0  0  2  0  0  0  0  0  0
  182.2430  177.3640  136.0990 C   0  0  1  0  0  3  0  0  0  0  0  0
  184.4580  176.6510  137.0650 C   0  0  0  0  0  0  0  0  0  0  0  0
  185.8660  176.8330  137.1530 N   0  0  0  0  0  1  0  0  0  0  0  0
  183.6840  177.5130  136.2310 N   0  0  0  0  0  2  0  0  0  0  0  0
  183.9040  175.7320  137.7240 O   0  0  0  0  0  0  0  0  0  0  0  0
  181.9840  178.8690  140.8060 C   0  0  0  0  0  2  0  0  0  0  0  0
  183.3600  178.3550  140.4180 C   0  0  1  0  0  3  0  0  0  0  0  0
  184.0610  179.3450  139.5000 C   0  0  0  0  0  2  0  0  0  0  0  0
  185.2910  179.7180  140.0430 O   0  0  0  0  0  1  0  0  0  0  0  0
  184.1850  178.1360  141.6680 C   0  0  0  0  0  2  0  0  0  0  0  0
  183.5850  178.9320  142.8070 C   0  0  0  0  0  2  0  0  0  0  0  0
  183.8910  178.2550  144.1350 C   0  0  0  0  0  2  0  0  0  0  0  0
  186.9100  178.0110  145.8520 C   0  0  1  0  0  0  0  0  0  0  0  0
  184.8200  178.9910  146.3130 C   0  0  0  0  0  2  0  0  0  0  0  0
  185.3610  180.2710  144.2650 C   0  0  0  0  0  1  0  0  0  0  0  0
  185.1010  178.8800  144.8210 C   0  0  2  0  0  0  0  0  0  0  0  0
  186.6780  179.0500  148.0410 F   0  0  0  0  0  0  0  0  0  0  0  0
  186.0610  178.4540  146.9550 C   0  0  2  0  0  0  0  0  0  0  0  0
  186.3280  177.0860  146.7470 O   0  0  0  0  0  0  0  0  0  0  0  0
  186.2390  178.0650  144.6190 O   0  0  0  0  0  0  0  0  0  0  0  0
  188.9840  176.9190  146.5630 O   0  0  0  0  0  1  0  0  0  0  0  0
  188.4520  177.9970  145.8480 C   0  0  1  0  0  3  0  0  0  0  0  0
  189.0870  178.0780  144.4490 C   0  0  1  0  0  3  0  0  0  0  0  0
  190.4990  178.6400  144.4970 C   0  0  0  0  0  1  0  0  0  0  0  0
  190.6480  175.4610  142.4600 O   0  0  0  0  0  1  0  0  0  0  0  0
  190.1380  176.7480  142.6230 C   0  0  1  0  0  3  0  0  0  0  0  0
  188.6700  176.7560  142.2450 C   0  0  1  0  0  3  0  0  0  0  0  0
  189.0900  176.7310  143.7200 C   0  0  2  0  0  3  0  0  0  0  0  0
  188.2900  178.1290  141.7050 C   0  0  0  0  0  2  0  0  0  0  0  0
  188.3290  178.0970  140.1910 C   0  0  0  0  0  1  0  0  0  0  0  0
  1 11  1  1  0  0  0
  1 31  1  0  0  0  0
  2  4  1  0  0  0  0
  3  7  1  6  0  0  0
  3  5  1  0  0  0  0
  3  6  1  0  0  0  0
  5  1  1  1  0  0  0
  5  2  1  0  0  0  0
  6  4  1  0  0  0  0
  8  7  1  0  0  0  0
  9  8  1  0  0  0  0
  9 10  1  0  0  0  0
 13 12  1  0  0  0  0
 14 19  1  6  0  0  0
 14 17  1  0  0  0  0
 15 16  1  6  0  0  0
 15 14  1  0  0  0  0
 15 13  1  0  0  0  0
 17 12  1  6  0  0  0
 17 20  1  0  0  0  0
 18 23  1  6  0  0  0
 18 21  1  0  0  0  0
 19 18  1  0  0  0  0
 21 20  1  0  0  0  0
 21 11  1  1  0  0  0
 23 22  1  6  0  0  0
 24 23  1  1  0  0  0
 24 26  1  0  0  0  0
 25 24  1  0  0  0  0
 25 26  1  0  0  0  0
 26 29  1  6  0  0  0
 27 28  1  0  0  0  0
 27 30  2  0  0  0  0
 29 27  1  0  0  0  0
 32 33  1  6  0  0  0
 32 31  1  0  0  0  0
 32 35  1  0  0  0  0
 33 34  1  0  0  0  0
 35 36  1  0  0  0  0
 36 37  1  0  0  0  0
 37 41  1  0  0  0  0
 38 47  1  1  0  0  0
 38 44  1  0  0  0  0
 38 43  1  0  0  0  0
 39 43  1  0  0  0  0
 41 40  1  6  0  0  0
 41 39  1  0  0  0  0
 43 42  1  1  0  0  0
 44 43  1  0  0  0  0
 45 41  1  0  0  0  0
 45 38  1  0  0  0  0
 47 46  1  6  0  0  0
 48 49  1  1  0  0  0
 48 47  1  0  0  0  0
 51 50  1  6  0  0  0
 51 53  1  0  0  0  0
 52 54  1  1  0  0  0
 52 51  1  0  0  0  0
 52 53  1  0  0  0  0
 53 48  1  1  0  0  0
 55 54  1  0  0  0  0
M  END
>  <MODEL>
4

>  <REMARK>
 VINA RESULT:      -6.7      3.685      8.029
  Name = 
  20 active torsions:
  status: ('A' for Active; 'I' for Inactive)
    1  A    between atoms: C_1  and  C_38
    2  A    between atoms: C_2  and  C_19
    3  A    between atoms: C_2  and  C_28
    4  A    between atoms: C_2  and  C_44
    5  A    between atoms: C_4  and  C_40
    6  A    between atoms: C_5  and  C_40
    7  A    between atoms: C_5  and  C_46
    8  A    between atoms: C_6  and  C_14
    9  A    between atoms: C_6  and  C_46
   10  A    between atoms: C_8  and  C_22
   11  A    between atoms: C_13  and  C_52
   12  A    between atoms: C_19  and  C_40
   13  A    between atoms: C_21  and  C_38
   14  A    between atoms: C_21  and  C_42
   15  A    between atoms: C_27  and  C_31
   16  A    between atoms: C_28  and  C_49
   17  A    between atoms: C_31  and  C_51
   18  A    between atoms: N_32  and  C_48
   19  A    between atoms: C_33  and  C_52
   20  A    between atoms: C_35  and  C_51
                            x       y       z     vdW  Elec       q    Type
                         _______ _______ _______ _____ _____    ______ ____

>  <TORSDO>
F 20

$$$$
=
 OpenBabel10262420403D

 55 61  0  0  1  0  0  0  0  0999 V2000
  182.5480  176.7370  137.6580 C   0  0  1  0  0  3  0  0  0  0  0  0
  181.4470  175.2230  139.2110 O   0  0  0  0  0  0  0  0  0  0  0  0
  180.0560  176.3550  137.6410 C   0  0  1  0  0  3  0  0  0  0  0  0
  180.1420  174.7400  139.3800 C   0  0  0  0  0  2  0  0  0  0  0  0
  181.3050  176.4290  138.4980 C   0  0  2  0  0  3  0  0  0  0  0  0
  179.3130  175.1700  138.1900 C   0  0  0  0  0  2  0  0  0  0  0  0
  179.2450  177.6270  137.8170 C   0  0  0  0  0  2  0  0  0  0  0  0
  179.6240  178.3190  139.1180 C   0  0  0  0  0  2  0  0  0  0  0  0
  180.1110  179.7310  138.8450 C   0  0  0  0  0  2  0  0  0  0  0  0
  180.0940  180.5550  140.1230 C   0  0  0  0  0  1  0  0  0  0  0  0
  182.1910  176.7020  136.1820 C   0  0  0  0  0  2  0  0  0  0  0  0
  181.5240  172.2040  136.4160 C   0  0  0  0  0  2  0  0  0  0  0  0
  182.4180  171.1430  137.0350 C   0  0  0  0  0  2  0  0  0  0  0  0
  183.6740  173.1880  137.0370 C   0  0  2  0  0  3  0  0  0  0  0  0
  183.8290  171.6770  136.9150 C   0  0  2  0  0  3  0  0  0  0  0  0
  184.3420  171.3180  135.6670 O   0  0  0  0  0  1  0  0  0  0  0  0
  182.2390  173.5270  136.6140 C   0  0  1  0  0  3  0  0  0  0  0  0
  184.3640  175.4570  136.1800 C   0  0  2  0  0  3  0  0  0  0  0  0
  184.7550  173.9780  136.2870 C   0  0  0  0  0  2  0  0  0  0  0  0
  182.1930  174.3440  135.3250 C   0  0  0  0  0  2  0  0  0  0  0  0
  183.0070  175.6390  135.4610 C   0  0  1  0  0  3  0  0  0  0  0  0
  184.9170  177.3980  134.6290 C   0  0  0  0  0  1  0  0  0  0  0  0
  185.4830  176.2680  135.5000 C   0  0  1  0  0  3  0  0  0  0  0  0
  186.5560  176.7070  136.5250 C   0  0  2  0  0  3  0  0  0  0  0  0
  187.1710  178.0560  136.1940 C   0  0  0  0  0  2  0  0  0  0  0  0
  187.9580  176.7800  135.9410 C   0  0  1  0  0  3  0  0  0  0  0  0
  189.6250  175.3550  137.1820 C   0  0  0  0  0  0  0  0  0  0  0  0
  190.5710  175.2230  138.2360 N   0  0  0  0  0  1  0  0  0  0  0  0
  188.9280  176.5890  137.0070 N   0  0  0  0  0  2  0  0  0  0  0  0
  189.4070  174.3840  136.4110 O   0  0  0  0  0  0  0  0  0  0  0  0
  183.1760  178.0820  138.0220 C   0  0  0  0  0  2  0  0  0  0  0  0
  184.0440  177.9440  139.2610 C   0  0  1  0  0  3  0  0  0  0  0  0
  185.0030  179.1190  139.3760 C   0  0  0  0  0  2  0  0  0  0  0  0
  186.3170  178.6610  139.4710 O   0  0  0  0  0  1  0  0  0  0  0  0
  183.1600  177.8770  140.4880 C   0  0  0  0  0  2  0  0  0  0  0  0
  183.7610  178.7350  141.5820 C   0  0  0  0  0  2  0  0  0  0  0  0
  184.3920  177.8530  142.6490 C   0  0  0  0  0  2  0  0  0  0  0  0
  186.7820  178.0250  145.1750 C   0  0  1  0  0  0  0  0  0  0  0  0
  184.7480  179.1280  144.7450 C   0  0  0  0  0  2  0  0  0  0  0  0
  185.9510  179.8040  142.6910 C   0  0  0  0  0  1  0  0  0  0  0  0
  185.4180  178.6170  143.4780 C   0  0  2  0  0  0  0  0  0  0  0  0
  186.0520  179.6150  146.8670 F   0  0  0  0  0  0  0  0  0  0  0  0
  185.7070  178.7610  145.8350 C   0  0  2  0  0  0  0  0  0  0  0  0
  185.8910  177.3830  146.0640 O   0  0  0  0  0  0  0  0  0  0  0  0
  186.4860  177.7590  143.8280 O   0  0  0  0  0  0  0  0  0  0  0  0
  188.4980  177.0040  146.5940 O   0  0  0  0  0  1  0  0  0  0  0  0
  188.2570  177.9830  145.6240 C   0  0  1  0  0  3  0  0  0  0  0  0
  189.2700  177.8610  144.4730 C   0  0  1  0  0  3  0  0  0  0  0  0
  190.4270  178.8350  144.6290 C   0  0  0  0  0  1  0  0  0  0  0  0
  191.9280  175.4350  143.9340 O   0  0  0  0  0  1  0  0  0  0  0  0
  191.1000  176.4720  143.5080 C   0  0  1  0  0  3  0  0  0  0  0  0
  189.8510  175.8880  142.8770 C   0  0  1  0  0  3  0  0  0  0  0  0
  189.8120  176.4370  144.3090 C   0  0  2  0  0  3  0  0  0  0  0  0
  189.3300  176.8370  141.8060 C   0  0  0  0  0  2  0  0  0  0  0  0
  190.4880  177.3070  140.9490 C   0  0  0  0  0  1  0  0  0  0  0  0
  1 11  1  6  0  0  0
  1 31  1  0  0  0  0
  2  4  1  0  0  0  0
  3  7  1  1  0  0  0
  3  6  1  0  0  0  0
  3  5  1  0  0  0  0
  5  1  1  6  0  0  0
  5  2  1  0  0  0  0
  6  4  1  0  0  0  0
  7  8  1  0  0  0  0
  9  8  1  0  0  0  0
  9 10  1  0  0  0  0
 12 17  1  0  0  0  0
 12 13  1  0  0  0  0
 14 19  1  6  0  0  0
 15 16  1  6  0  0  0
 15 13  1  0  0  0  0
 15 14  1  0  0  0  0
 17 20  1  6  0  0  0
 17 14  1  0  0  0  0
 18 23  1  6  0  0  0
 18 19  1  0  0  0  0
 20 21  1  0  0  0  0
 21 18  1  0  0  0  0
 21 11  1  1  0  0  0
 23 22  1  1  0  0  0
 24 23  1  6  0  0  0
 25 24  1  0  0  0  0
 26 25  1  0  0  0  0
 26 24  1  0  0  0  0
 26 29  1  1  0  0  0
 27 28  1  0  0  0  0
 29 27  1  0  0  0  0
 30 27  2  0  0  0  0
 32 31  1  6  0  0  0
 32 33  1  0  0  0  0
 32 35  1  0  0  0  0
 33 34  1  0  0  0  0
 35 36  1  0  0  0  0
 36 37  1  0  0  0  0
 37 41  1  0  0  0  0
 38 47  1  1  0  0  0
 38 43  1  0  0  0  0
 38 44  1  0  0  0  0
 39 43  1  0  0  0  0
 41 40  1  6  0  0  0
 41 45  1  0  0  0  0
 41 39  1  0  0  0  0
 43 44  1  0  0  0  0
 43 42  1  1  0  0  0
 45 38  1  0  0  0  0
 47 46  1  1  0  0  0
 48 49  1  1  0  0  0
 48 47  1  0  0  0  0
 51 50  1  1  0  0  0
 51 53  1  0  0  0  0
 52 54  1  6  0  0  0
 52 51  1  0  0  0  0
 52 53  1  0  0  0  0
 53 48  1  6  0  0  0
 55 54  1  0  0  0  0
M  END
>  <MODEL>
5

>  <REMARK>
 VINA RESULT:      -6.7      2.710      6.398
  Name = 
  20 active torsions:
  status: ('A' for Active; 'I' for Inactive)
    1  A    between atoms: C_1  and  C_38
    2  A    between atoms: C_2  and  C_19
    3  A    between atoms: C_2  and  C_28
    4  A    between atoms: C_2  and  C_44
    5  A    between atoms: C_4  and  C_40
    6  A    between atoms: C_5  and  C_40
    7  A    between atoms: C_5  and  C_46
    8  A    between atoms: C_6  and  C_14
    9  A    between atoms: C_6  and  C_46
   10  A    between atoms: C_8  and  C_22
   11  A    between atoms: C_13  and  C_52
   12  A    between atoms: C_19  and  C_40
   13  A    between atoms: C_21  and  C_38
   14  A    between atoms: C_21  and  C_42
   15  A    between atoms: C_27  and  C_31
   16  A    between atoms: C_28  and  C_49
   17  A    between atoms: C_31  and  C_51
   18  A    between atoms: N_32  and  C_48
   19  A    between atoms: C_33  and  C_52
   20  A    between atoms: C_35  and  C_51
                            x       y       z     vdW  Elec       q    Type
                         _______ _______ _______ _____ _____    ______ ____

>  <TORSDO>
F 20

$$$$
=
 OpenBabel10262420403D

 55 61  0  0  1  0  0  0  0  0999 V2000
  182.9180  176.9380  137.9600 C   0  0  1  0  0  3  0  0  0  0  0  0
  181.6830  178.6170  136.7070 O   0  0  0  0  0  0  0  0  0  0  0  0
  180.5490  177.5840  138.5300 C   0  0  1  0  0  3  0  0  0  0  0  0
  180.4350  179.2430  136.8340 C   0  0  0  0  0  2  0  0  0  0  0  0
  181.5640  177.4080  137.4190 C   0  0  2  0  0  3  0  0  0  0  0  0
  179.8420  178.8620  138.1730 C   0  0  0  0  0  2  0  0  0  0  0  0
  179.5800  176.4140  138.5230 C   0  0  0  0  0  2  0  0  0  0  0  0
  179.8430  175.5200  137.3200 C   0  0  0  0  0  2  0  0  0  0  0  0
  179.4780  174.0820  137.6390 C   0  0  0  0  0  2  0  0  0  0  0  0
  179.7030  173.7900  139.1140 C   0  0  0  0  0  1  0  0  0  0  0  0
  184.0400  177.6190  137.1950 C   0  0  0  0  0  2  0  0  0  0  0  0
  182.9220  173.2510  136.5610 C   0  0  0  0  0  2  0  0  0  0  0  0
  183.6180  172.0080  137.0870 C   0  0  0  0  0  2  0  0  0  0  0  0
  185.0510  173.8640  137.5940 C   0  0  2  0  0  3  0  0  0  0  0  0
  185.0760  172.3850  137.2300 C   0  0  2  0  0  3  0  0  0  0  0  0
  185.7170  172.1730  136.0070 O   0  0  0  0  0  1  0  0  0  0  0  0
  183.7260  174.4320  137.0700 C   0  0  1  0  0  3  0  0  0  0  0  0
  186.0650  176.1450  137.2330 C   0  0  2  0  0  3  0  0  0  0  0  0
  186.2940  174.6330  137.1270 C   0  0  0  0  0  2  0  0  0  0  0  0
  183.9340  175.4460  135.9460 C   0  0  0  0  0  2  0  0  0  0  0  0
  184.8410  176.5980  136.4010 C   0  0  1  0  0  3  0  0  0  0  0  0
  187.5300  178.1720  137.7070 C   0  0  0  0  0  1  0  0  0  0  0  0
  187.3370  176.9190  136.8420 C   0  0  1  0  0  3  0  0  0  0  0  0
  188.5640  175.9780  136.7710 C   0  0  2  0  0  3  0  0  0  0  0  0
  189.3930  175.9920  138.0440 C   0  0  0  0  0  2  0  0  0  0  0  0
  189.8940  176.7120  136.8020 C   0  0  1  0  0  3  0  0  0  0  0  0
  192.2830  175.9680  136.5020 C   0  0  0  0  0  0  0  0  0  0  0  0
  193.2290  175.1440  135.8320 N   0  0  0  0  0  1  0  0  0  0  0  0
  190.9030  175.8980  136.1430 N   0  0  0  0  0  2  0  0  0  0  0  0
  192.6680  176.7540  137.4070 O   0  0  0  0  0  0  0  0  0  0  0  0
  183.0640  177.1930  139.4590 C   0  0  0  0  0  2  0  0  0  0  0  0
  184.0460  178.3240  139.7120 C   0  0  1  0  0  3  0  0  0  0  0  0
  183.3790  179.6720  139.4900 C   0  0  0  0  0  2  0  0  0  0  0  0
  184.3080  180.5990  139.0170 O   0  0  0  0  0  1  0  0  0  0  0  0
  184.5650  178.2310  141.1310 C   0  0  0  0  0  2  0  0  0  0  0  0
  186.0650  178.4320  141.1280 C   0  0  0  0  0  2  0  0  0  0  0  0
  186.5820  178.5270  142.5560 C   0  0  0  0  0  2  0  0  0  0  0  0
  189.9950  177.9190  142.8820 C   0  0  1  0  0  0  0  0  0  0  0  0
  188.3040  177.1300  141.4470 C   0  0  0  0  0  2  0  0  0  0  0  0
  187.3220  176.3770  143.5900 C   0  0  0  0  0  1  0  0  0  0  0  0
  187.7640  177.5940  142.7920 C   0  0  2  0  0  0  0  0  0  0  0  0
  190.7090  176.3800  141.1380 F   0  0  0  0  0  0  0  0  0  0  0  0
  189.7850  177.3150  141.5690 C   0  0  2  0  0  0  0  0  0  0  0  0
  190.2390  178.6430  141.6930 O   0  0  0  0  0  0  0  0  0  0  0  0
  188.7830  178.2790  143.4940 O   0  0  0  0  0  0  0  0  0  0  0  0
  191.6910  178.9390  144.3250 O   0  0  0  0  0  1  0  0  0  0  0  0
  191.2400  177.7360  143.7730 C   0  0  1  0  0  3  0  0  0  0  0  0
  191.0890  176.6660  144.8670 C   0  0  1  0  0  3  0  0  0  0  0  0
  191.6920  175.3350  144.4480 C   0  0  0  0  0  1  0  0  0  0  0  0
  192.7110  176.0400  148.0640 O   0  0  0  0  0  1  0  0  0  0  0  0
  191.6280  175.9480  147.1910 C   0  0  1  0  0  3  0  0  0  0  0  0
  190.7150  177.1400  147.4000 C   0  0  1  0  0  3  0  0  0  0  0  0
  191.6830  177.1030  146.2100 C   0  0  2  0  0  3  0  0  0  0  0  0
  189.2800  176.7460  147.0780 C   0  0  0  0  0  2  0  0  0  0  0  0
  188.3340  177.7500  147.7050 C   0  0  0  0  0  1  0  0  0  0  0  0
  1 11  1  6  0  0  0
  1 31  1  0  0  0  0
  2  4  1  0  0  0  0
  2  5  1  0  0  0  0
  3  7  1  6  0  0  0
  4  6  1  0  0  0  0
  5  1  1  1  0  0  0
  5  3  1  0  0  0  0
  6  3  1  0  0  0  0
  8  9  1  0  0  0  0
  8  7  1  0  0  0  0
  9 10  1  0  0  0  0
 12 17  1  0  0  0  0
 12 13  1  0  0  0  0
 13 15  1  0  0  0  0
 14 19  1  6  0  0  0
 15 16  1  6  0  0  0
 15 14  1  0  0  0  0
 17 20  1  6  0  0  0
 17 14  1  0  0  0  0
 18 23  1  6  0  0  0
 19 18  1  0  0  0  0
 20 21  1  0  0  0  0
 21 11  1  1  0  0  0
 21 18  1  0  0  0  0
 23 22  1  1  0  0  0
 24 26  1  0  0  0  0
 24 23  1  1  0  0  0
 24 25  1  0  0  0  0
 26 29  1  6  0  0  0
 26 25  1  0  0  0  0
 27 30  2  0  0  0  0
 28 27  1  0  0  0  0
 29 27  1  0  0  0  0
 32 31  1  1  0  0  0
 32 35  1  0  0  0  0
 33 32  1  0  0  0  0
 34 33  1  0  0  0  0
 36 35  1  0  0  0  0
 36 37  1  0  0  0  0
 37 41  1  0  0  0  0
 38 45  1  0  0  0  0
 38 47  1  1  0  0  0
 39 43  1  0  0  0  0
 39 41  1  0  0  0  0
 41 45  1  0  0  0  0
 41 40  1  1  0  0  0
 43 42  1  6  0  0  0
 43 44  1  0  0  0  0
 43 38  1  0  0  0  0
 44 38  1  0  0  0  0
 47 46  1  1  0  0  0
 47 48  1  0  0  0  0
 48 49  1  6  0  0  0
 51 52  1  0  0  0  0
 51 50  1  1  0  0  0
 52 54  1  6  0  0  0
 53 48  1  6  0  0  0
 53 51  1  0  0  0  0
 53 52  1  0  0  0  0
 54 55  1  0  0  0  0
M  END
>  <MODEL>
6

>  <REMARK>
 VINA RESULT:      -6.4      2.789      6.155
  Name = 
  20 active torsions:
  status: ('A' for Active; 'I' for Inactive)
    1  A    between atoms: C_1  and  C_38
    2  A    between atoms: C_2  and  C_19
    3  A    between atoms: C_2  and  C_28
    4  A    between atoms: C_2  and  C_44
    5  A    between atoms: C_4  and  C_40
    6  A    between atoms: C_5  and  C_40
    7  A    between atoms: C_5  and  C_46
    8  A    between atoms: C_6  and  C_14
    9  A    between atoms: C_6  and  C_46
   10  A    between atoms: C_8  and  C_22
   11  A    between atoms: C_13  and  C_52
   12  A    between atoms: C_19  and  C_40
   13  A    between atoms: C_21  and  C_38
   14  A    between atoms: C_21  and  C_42
   15  A    between atoms: C_27  and  C_31
   16  A    between atoms: C_28  and  C_49
   17  A    between atoms: C_31  and  C_51
   18  A    between atoms: N_32  and  C_48
   19  A    between atoms: C_33  and  C_52
   20  A    between atoms: C_35  and  C_51
                            x       y       z     vdW  Elec       q    Type
                         _______ _______ _______ _____ _____    ______ ____

>  <TORSDO>
F 20

$$$$
=
 OpenBabel10262420403D

 55 61  0  0  1  0  0  0  0  0999 V2000
  184.7520  177.9680  137.6520 C   0  0  1  0  0  3  0  0  0  0  0  0
  184.0120  177.3200  135.4270 O   0  0  0  0  0  0  0  0  0  0  0  0
  182.8970  176.3040  137.2720 C   0  0  1  0  0  3  0  0  0  0  0  0
  182.9800  176.5260  134.9090 C   0  0  0  0  0  2  0  0  0  0  0  0
  184.2040  176.8620  136.7450 C   0  0  2  0  0  3  0  0  0  0  0  0
  182.0480  176.1510  136.0400 C   0  0  0  0  0  2  0  0  0  0  0  0
  183.1470  174.9550  137.9240 C   0  0  0  0  0  2  0  0  0  0  0  0
  184.3710  174.2920  137.3110 C   0  0  0  0  0  2  0  0  0  0  0  0
  183.9550  173.2230  136.3170 C   0  0  0  0  0  2  0  0  0  0  0  0
  183.9930  171.8500  136.9670 C   0  0  0  0  0  1  0  0  0  0  0  0
  184.5030  177.6080  139.1070 C   0  0  0  0  0  2  0  0  0  0  0  0
  185.2940  178.7220  143.4500 C   0  0  0  0  0  2  0  0  0  0  0  0
  184.3380  178.6800  144.6290 C   0  0  0  0  0  2  0  0  0  0  0  0
  183.0240  178.2700  142.6640 C   0  0  2  0  0  3  0  0  0  0  0  0
  182.9600  178.9070  144.0470 C   0  0  2  0  0  3  0  0  0  0  0  0
  182.7270  180.2810  143.9630 O   0  0  0  0  0  1  0  0  0  0  0  0
  184.4990  178.2550  142.2460 C   0  0  1  0  0  3  0  0  0  0  0  0
  182.4290  178.4630  140.2210 C   0  0  2  0  0  3  0  0  0  0  0  0
  182.0860  178.9260  141.6430 C   0  0  0  0  0  2  0  0  0  0  0  0
  184.7730  179.1680  141.0530 C   0  0  0  0  0  2  0  0  0  0  0  0
  183.8960  178.7880  139.8510 C   0  0  1  0  0  3  0  0  0  0  0  0
  180.0890  178.3270  139.2270 C   0  0  0  0  0  1  0  0  0  0  0  0
  181.4400  179.0550  139.2010 C   0  0  1  0  0  3  0  0  0  0  0  0
  181.3540  180.5950  139.3340 C   0  0  2  0  0  3  0  0  0  0  0  0
  179.9450  181.0860  139.6190 C   0  0  0  0  0  2  0  0  0  0  0  0
  180.5430  181.2550  138.2310 C   0  0  1  0  0  3  0  0  0  0  0  0
  181.0240  183.2620  136.7840 C   0  0  0  0  0  0  0  0  0  0  0  0
  181.4690  184.6080  136.6740 N   0  0  0  0  0  1  0  0  0  0  0  0
  180.9970  182.6270  138.0620 N   0  0  0  0  0  2  0  0  0  0  0  0
  180.6600  182.6380  135.7530 O   0  0  0  0  0  0  0  0  0  0  0  0
  186.2390  178.2280  137.4150 C   0  0  0  0  0  2  0  0  0  0  0  0
  186.9500  176.9400  137.0380 C   0  0  1  0  0  3  0  0  0  0  0  0
  187.5850  177.0620  135.6620 C   0  0  0  0  0  2  0  0  0  0  0  0
  188.7390  177.8430  135.7310 O   0  0  0  0  0  1  0  0  0  0  0  0
  188.0130  176.6330  138.0720 C   0  0  0  0  0  2  0  0  0  0  0  0
  188.1070  177.7860  139.0480 C   0  0  0  0  0  2  0  0  0  0  0  0
  189.4780  177.8010  139.7070 C   0  0  0  0  0  2  0  0  0  0  0  0
  189.8610  176.4360  142.8870 C   0  0  1  0  0  0  0  0  0  0  0  0
  188.0420  177.2920  141.6630 C   0  0  0  0  0  2  0  0  0  0  0  0
  189.4410  179.3330  141.6800 C   0  0  0  0  0  1  0  0  0  0  0  0
  189.3740  177.8830  141.2260 C   0  0  2  0  0  0  0  0  0  0  0  0
  187.6880  176.3100  143.9760 F   0  0  0  0  0  0  0  0  0  0  0  0
  188.4040  176.3810  142.7940 C   0  0  2  0  0  0  0  0  0  0  0  0
  189.1960  175.2630  142.4650 O   0  0  0  0  0  0  0  0  0  0  0  0
  190.4280  177.1490  141.8180 O   0  0  0  0  0  0  0  0  0  0  0  0
  192.0580  176.1030  143.9170 O   0  0  0  0  0  1  0  0  0  0  0  0
  190.6920  176.2590  144.1740 C   0  0  1  0  0  3  0  0  0  0  0  0
  190.4650  177.3500  145.2340 C   0  0  1  0  0  3  0  0  0  0  0  0
  190.0790  178.6800  144.6070 C   0  0  0  0  0  1  0  0  0  0  0  0
  188.0450  178.0730  147.8530 O   0  0  0  0  0  1  0  0  0  0  0  0
  189.3470  178.0190  147.3570 C   0  0  1  0  0  3  0  0  0  0  0  0
  189.9550  176.6720  147.6950 C   0  0  1  0  0  3  0  0  0  0  0  0
  189.4240  176.9500  146.2830 C   0  0  2  0  0  3  0  0  0  0  0  0
  191.4620  176.8210  147.8590 C   0  0  0  0  0  2  0  0  0  0  0  0
  192.1210  175.4710  147.6590 C   0  0  0  0  0  1  0  0  0  0  0  0
  1 31  1  1  0  0  0
  1 11  1  0  0  0  0
  2  5  1  0  0  0  0
  3  7  1  6  0  0  0
  4  2  1  0  0  0  0
  4  6  1  0  0  0  0
  5  3  1  0  0  0  0
  5  1  1  1  0  0  0
  6  3  1  0  0  0  0
  8  7  1  0  0  0  0
  9 10  1  0  0  0  0
  9  8  1  0  0  0  0
 12 13  1  0  0  0  0
 14 19  1  6  0  0  0
 14 15  1  0  0  0  0
 15 16  1  6  0  0  0
 15 13  1  0  0  0  0
 17 20  1  6  0  0  0
 17 14  1  0  0  0  0
 17 12  1  0  0  0  0
 18 23  1  6  0  0  0
 18 19  1  0  0  0  0
 21 11  1  1  0  0  0
 21 18  1  0  0  0  0
 21 20  1  0  0  0  0
 23 22  1  1  0  0  0
 24 23  1  6  0  0  0
 24 25  1  0  0  0  0
 26 29  1  1  0  0  0
 26 24  1  0  0  0  0
 26 25  1  0  0  0  0
 27 29  1  0  0  0  0
 28 27  1  0  0  0  0
 30 27  2  0  0  0  0
 32 33  1  6  0  0  0
 32 31  1  0  0  0  0
 32 35  1  0  0  0  0
 33 34  1  0  0  0  0
 35 36  1  0  0  0  0
 36 37  1  0  0  0  0
 37 41  1  0  0  0  0
 38 47  1  1  0  0  0
 39 43  1  0  0  0  0
 41 39  1  0  0  0  0
 41 40  1  1  0  0  0
 41 45  1  0  0  0  0
 43 38  1  0  0  0  0
 43 42  1  1  0  0  0
 44 43  1  0  0  0  0
 44 38  1  0  0  0  0
 45 38  1  0  0  0  0
 47 46  1  6  0  0  0
 47 48  1  0  0  0  0
 48 49  1  6  0  0  0
 51 52  1  0  0  0  0
 51 50  1  1  0  0  0
 52 54  1  6  0  0  0
 53 48  1  6  0  0  0
 53 51  1  0  0  0  0
 53 52  1  0  0  0  0
 55 54  1  0  0  0  0
M  END
>  <MODEL>
7

>  <REMARK>
 VINA RESULT:      -6.3      2.744      5.921
  Name = 
  20 active torsions:
  status: ('A' for Active; 'I' for Inactive)
    1  A    between atoms: C_1  and  C_38
    2  A    between atoms: C_2  and  C_19
    3  A    between atoms: C_2  and  C_28
    4  A    between atoms: C_2  and  C_44
    5  A    between atoms: C_4  and  C_40
    6  A    between atoms: C_5  and  C_40
    7  A    between atoms: C_5  and  C_46
    8  A    between atoms: C_6  and  C_14
    9  A    between atoms: C_6  and  C_46
   10  A    between atoms: C_8  and  C_22
   11  A    between atoms: C_13  and  C_52
   12  A    between atoms: C_19  and  C_40
   13  A    between atoms: C_21  and  C_38
   14  A    between atoms: C_21  and  C_42
   15  A    between atoms: C_27  and  C_31
   16  A    between atoms: C_28  and  C_49
   17  A    between atoms: C_31  and  C_51
   18  A    between atoms: N_32  and  C_48
   19  A    between atoms: C_33  and  C_52
   20  A    between atoms: C_35  and  C_51
                            x       y       z     vdW  Elec       q    Type
                         _______ _______ _______ _____ _____    ______ ____

>  <TORSDO>
F 20

$$$$
=
 OpenBabel10262420403D

 55 61  0  0  1  0  0  0  0  0999 V2000
  189.2600  177.3590  142.1480 C   0  0  1  0  0  3  0  0  0  0  0  0
  190.4720  179.2590  143.0610 O   0  0  0  0  0  0  0  0  0  0  0  0
  191.2940  177.0910  143.6130 C   0  0  1  0  0  3  0  0  0  0  0  0
  191.6520  179.4320  143.7980 C   0  0  0  0  0  2  0  0  0  0  0  0
  190.0700  177.9340  143.3140 C   0  0  2  0  0  3  0  0  0  0  0  0
  192.3760  178.1050  143.8630 C   0  0  0  0  0  2  0  0  0  0  0  0
  191.0430  176.2540  144.8550 C   0  0  0  0  0  2  0  0  0  0  0  0
  191.1050  177.1260  146.0990 C   0  0  0  0  0  2  0  0  0  0  0  0
  191.3290  176.2730  147.3350 C   0  0  0  0  0  2  0  0  0  0  0  0
  192.4320  175.2580  147.0870 C   0  0  0  0  0  1  0  0  0  0  0  0
  187.8490  177.0400  142.6120 C   0  0  0  0  0  2  0  0  0  0  0  0
  188.1530  177.8940  147.0740 C   0  0  0  0  0  2  0  0  0  0  0  0
  187.0500  177.8820  148.1200 C   0  0  0  0  0  2  0  0  0  0  0  0
  185.9760  177.6690  145.9850 C   0  0  2  0  0  3  0  0  0  0  0  0
  185.7820  178.2480  147.3820 C   0  0  2  0  0  3  0  0  0  0  0  0
  185.6690  179.6390  147.3430 O   0  0  0  0  0  1  0  0  0  0  0  0
  187.4870  177.5480  145.7560 C   0  0  1  0  0  3  0  0  0  0  0  0
  185.7200  178.0170  143.5010 C   0  0  2  0  0  3  0  0  0  0  0  0
  185.2330  178.4450  144.8900 C   0  0  0  0  0  2  0  0  0  0  0  0
  187.9840  178.4860  144.6580 C   0  0  0  0  0  2  0  0  0  0  0  0
  187.2430  178.2330  143.3370 C   0  0  1  0  0  3  0  0  0  0  0  0
  185.7810  179.0060  141.1560 C   0  0  0  0  0  1  0  0  0  0  0  0
  184.9210  178.7340  142.3970 C   0  0  1  0  0  3  0  0  0  0  0  0
  183.5810  178.0110  142.1180 C   0  0  2  0  0  3  0  0  0  0  0  0
  183.2460  177.9400  140.6390 C   0  0  0  0  0  2  0  0  0  0  0  0
  182.5110  178.9210  141.5380 C   0  0  1  0  0  3  0  0  0  0  0  0
  180.2000  179.1800  142.5110 C   0  0  0  0  0  0  0  0  0  0  0  0
  178.9310  178.6120  142.8060 N   0  0  0  0  0  1  0  0  0  0  0  0
  181.1990  178.3870  141.8700 N   0  0  0  0  0  2  0  0  0  0  0  0
  180.4360  180.3780  142.8170 O   0  0  0  0  0  0  0  0  0  0  0  0
  189.2240  178.3010  140.9450 C   0  0  0  0  0  2  0  0  0  0  0  0
  189.6600  177.5720  139.6870 C   0  0  1  0  0  3  0  0  0  0  0  0
  190.5660  176.4010  140.0330 C   0  0  0  0  0  2  0  0  0  0  0  0
  190.8150  175.6300  138.8970 O   0  0  0  0  0  1  0  0  0  0  0  0
  188.4370  177.0760  138.9450 C   0  0  0  0  0  2  0  0  0  0  0  0
  187.7930  178.2360  138.2150 C   0  0  0  0  0  2  0  0  0  0  0  0
  188.1690  178.1990  136.7420 C   0  0  0  0  0  2  0  0  0  0  0  0
  185.5580  175.9140  136.4400 C   0  0  1  0  0  0  0  0  0  0  0  0
  187.7170  176.0890  135.5200 C   0  0  0  0  0  2  0  0  0  0  0  0
  186.7970  178.2160  134.6530 C   0  0  0  0  0  1  0  0  0  0  0  0
  187.1370  177.4390  135.9150 C   0  0  2  0  0  0  0  0  0  0  0  0
  186.2520  174.0840  134.9940 F   0  0  0  0  0  0  0  0  0  0  0  0
  186.6220  175.1170  135.8360 C   0  0  2  0  0  0  0  0  0  0  0  0
  186.2910  174.9740  137.1980 O   0  0  0  0  0  0  0  0  0  0  0  0
  185.9650  177.2370  136.6810 O   0  0  0  0  0  0  0  0  0  0  0  0
  183.6210  174.7160  137.3410 O   0  0  0  0  0  1  0  0  0  0  0  0
  184.0470  175.6150  136.3580 C   0  0  1  0  0  3  0  0  0  0  0  0
  183.1490  176.8640  136.3480 C   0  0  1  0  0  3  0  0  0  0  0  0
  182.9130  177.3830  134.9380 C   0  0  0  0  0  1  0  0  0  0  0  0
  179.5150  176.6980  136.4330 O   0  0  0  0  0  1  0  0  0  0  0  0
  180.7160  177.3970  136.3170 C   0  0  1  0  0  3  0  0  0  0  0  0
  181.1560  177.8660  137.6900 C   0  0  1  0  0  3  0  0  0  0  0  0
  181.8060  176.6340  137.0460 C   0  0  2  0  0  3  0  0  0  0  0  0
  181.9500  179.1590  137.5570 C   0  0  0  0  0  2  0  0  0  0  0  0
  180.9980  180.3030  137.2750 C   0  0  0  0  0  1  0  0  0  0  0  0
  1 31  1  6  0  0  0
  1 11  1  0  0  0  0
  2  5  1  0  0  0  0
  2  4  1  0  0  0  0
  3  6  1  0  0  0  0
  3  7  1  1  0  0  0
  4  6  1  0  0  0  0
  5  1  1  6  0  0  0
  5  3  1  0  0  0  0
  7  8  1  0  0  0  0
  8  9  1  0  0  0  0
 10  9  1  0  0  0  0
 12 13  1  0  0  0  0
 14 19  1  6  0  0  0
 14 15  1  0  0  0  0
 15 16  1  6  0  0  0
 15 13  1  0  0  0  0
 17 20  1  6  0  0  0
 17 14  1  0  0  0  0
 17 12  1  0  0  0  0
 18 23  1  6  0  0  0
 18 19  1  0  0  0  0
 21 11  1  1  0  0  0
 21 18  1  0  0  0  0
 21 20  1  0  0  0  0
 23 22  1  6  0  0  0
 24 23  1  6  0  0  0
 25 26  1  0  0  0  0
 25 24  1  0  0  0  0
 26 29  1  1  0  0  0
 26 24  1  0  0  0  0
 27 28  1  0  0  0  0
 27 30  2  0  0  0  0
 29 27  1  0  0  0  0
 32 35  1  1  0  0  0
 32 33  1  0  0  0  0
 32 31  1  0  0  0  0
 34 33  1  0  0  0  0
 36 35  1  0  0  0  0
 37 36  1  0  0  0  0
 38 47  1  6  0  0  0
 38 45  1  0  0  0  0
 38 44  1  0  0  0  0
 39 43  1  0  0  0  0
 39 41  1  0  0  0  0
 41 40  1  6  0  0  0
 41 45  1  0  0  0  0
 41 37  1  0  0  0  0
 43 42  1  6  0  0  0
 43 38  1  0  0  0  0
 43 44  1  0  0  0  0
 47 46  1  1  0  0  0
 48 49  1  6  0  0  0
 48 47  1  0  0  0  0
 51 50  1  1  0  0  0
 51 53  1  0  0  0  0
 51 52  1  0  0  0  0
 52 54  1  6  0  0  0
 53 48  1  6  0  0  0
 53 52  1  0  0  0  0
 55 54  1  0  0  0  0
M  END
>  <MODEL>
8

>  <REMARK>
 VINA RESULT:      -6.2      2.819      9.220
  Name = 
  20 active torsions:
  status: ('A' for Active; 'I' for Inactive)
    1  A    between atoms: C_1  and  C_38
    2  A    between atoms: C_2  and  C_19
    3  A    between atoms: C_2  and  C_28
    4  A    between atoms: C_2  and  C_44
    5  A    between atoms: C_4  and  C_40
    6  A    between atoms: C_5  and  C_40
    7  A    between atoms: C_5  and  C_46
    8  A    between atoms: C_6  and  C_14
    9  A    between atoms: C_6  and  C_46
   10  A    between atoms: C_8  and  C_22
   11  A    between atoms: C_13  and  C_52
   12  A    between atoms: C_19  and  C_40
   13  A    between atoms: C_21  and  C_38
   14  A    between atoms: C_21  and  C_42
   15  A    between atoms: C_27  and  C_31
   16  A    between atoms: C_28  and  C_49
   17  A    between atoms: C_31  and  C_51
   18  A    between atoms: N_32  and  C_48
   19  A    between atoms: C_33  and  C_52
   20  A    between atoms: C_35  and  C_51
                            x       y       z     vdW  Elec       q    Type
                         _______ _______ _______ _____ _____    ______ ____

>  <TORSDO>
F 20

$$$$
=
 OpenBabel10262420403D

 55 61  0  0  1  0  0  0  0  0999 V2000
  185.2080  176.9940  136.6040 C   0  0  1  0  0  3  0  0  0  0  0  0
  182.8540  177.4620  136.2120 O   0  0  0  0  0  0  0  0  0  0  0  0
  183.7570  178.1600  138.3040 C   0  0  1  0  0  3  0  0  0  0  0  0
  181.8460  178.1560  136.8950 C   0  0  0  0  0  2  0  0  0  0  0  0
  183.8020  177.1260  137.1970 C   0  0  2  0  0  3  0  0  0  0  0  0
  182.4750  178.9020  138.0510 C   0  0  0  0  0  2  0  0  0  0  0  0
  183.7170  177.4610  139.6520 C   0  0  0  0  0  2  0  0  0  0  0  0
  182.7730  178.1900  140.5960 C   0  0  0  0  0  2  0  0  0  0  0  0
  183.4830  178.5360  141.8920 C   0  0  0  0  0  2  0  0  0  0  0  0
  184.9570  178.8070  141.6360 C   0  0  0  0  0  1  0  0  0  0  0  0
  185.1120  176.7330  135.1110 C   0  0  0  0  0  2  0  0  0  0  0  0
  182.2100  173.3790  136.1400 C   0  0  0  0  0  2  0  0  0  0  0  0
  182.3830  172.2480  137.1400 C   0  0  0  0  0  2  0  0  0  0  0  0
  184.5080  173.3490  136.9720 C   0  0  2  0  0  3  0  0  0  0  0  0
  183.8710  171.9840  137.2050 C   0  0  2  0  0  3  0  0  0  0  0  0
  184.2140  171.0840  136.1940 O   0  0  0  0  0  1  0  0  0  0  0  0
  183.4870  174.1940  136.2000 C   0  0  1  0  0  3  0  0  0  0  0  0
  186.3280  174.6610  135.8200 C   0  0  2  0  0  3  0  0  0  0  0  0
  185.8920  173.2760  136.3140 C   0  0  0  0  0  2  0  0  0  0  0  0
  183.9610  174.5270  134.7870 C   0  0  0  0  0  2  0  0  0  0  0  0
  185.3130  175.2540  134.8130 C   0  0  1  0  0  3  0  0  0  0  0  0
  188.1530  175.9450  134.5950 C   0  0  0  0  0  1  0  0  0  0  0  0
  187.7490  174.6080  135.2310 C   0  0  1  0  0  3  0  0  0  0  0  0
  188.7590  174.0420  136.2590 C   0  0  2  0  0  3  0  0  0  0  0  0
  188.7540  174.8040  137.5720 C   0  0  0  0  0  2  0  0  0  0  0  0
  189.8930  175.0000  136.5850 C   0  0  1  0  0  3  0  0  0  0  0  0
  192.2980  174.2920  136.3300 C   0  0  0  0  0  0  0  0  0  0  0  0
  193.4030  173.5320  136.8040 N   0  0  0  0  0  1  0  0  0  0  0  0
  191.0510  174.2360  137.0220 N   0  0  0  0  0  2  0  0  0  0  0  0
  192.4270  175.0080  135.3020 O   0  0  0  0  0  0  0  0  0  0  0  0
  186.0700  178.2260  136.8740 C   0  0  0  0  0  2  0  0  0  0  0  0
  187.3740  177.8260  137.5430 C   0  0  1  0  0  3  0  0  0  0  0  0
  188.5530  178.5120  136.8710 C   0  0  0  0  0  2  0  0  0  0  0  0
  188.8440  179.7130  137.5180 O   0  0  0  0  0  1  0  0  0  0  0  0
  187.3230  178.2030  139.0090 C   0  0  0  0  0  2  0  0  0  0  0  0
  188.4460  177.5020  139.7430 C   0  0  0  0  0  2  0  0  0  0  0  0
  188.9340  178.3660  140.8960 C   0  0  0  0  0  2  0  0  0  0  0  0
  190.7720  177.5770  143.7470 C   0  0  1  0  0  0  0  0  0  0  0  0
  190.1070  176.3890  141.8270 C   0  0  0  0  0  2  0  0  0  0  0  0
  187.8560  176.9760  142.6700 C   0  0  0  0  0  1  0  0  0  0  0  0
  189.1700  177.5420  142.1580 C   0  0  2  0  0  0  0  0  0  0  0  0
  191.5690  175.2840  143.5820 F   0  0  0  0  0  0  0  0  0  0  0  0
  191.1190  176.4170  142.9290 C   0  0  2  0  0  0  0  0  0  0  0  0
  191.9570  177.5500  142.9770 O   0  0  0  0  0  0  0  0  0  0  0  0
  189.7610  178.3530  143.1550 O   0  0  0  0  0  0  0  0  0  0  0  0
  191.2450  179.0410  145.6530 O   0  0  0  0  0  1  0  0  0  0  0  0
  191.0110  177.7180  145.2630 C   0  0  1  0  0  3  0  0  0  0  0  0
  189.9200  177.0840  146.1430 C   0  0  1  0  0  3  0  0  0  0  0  0
  190.4460  175.9000  146.9370 C   0  0  0  0  0  1  0  0  0  0  0  0
  188.2760  178.0340  149.2470 O   0  0  0  0  0  1  0  0  0  0  0  0
  188.3100  177.3670  148.0230 C   0  0  1  0  0  3  0  0  0  0  0  0
  187.7460  178.2710  146.9450 C   0  0  1  0  0  3  0  0  0  0  0  0
  189.2630  178.0920  147.0910 C   0  0  2  0  0  3  0  0  0  0  0  0
  187.0970  177.4240  145.8580 C   0  0  0  0  0  2  0  0  0  0  0  0
  185.8830  178.1520  145.3170 C   0  0  0  0  0  1  0  0  0  0  0  0
  1 11  1  6  0  0  0
  1 31  1  0  0  0  0
  2  4  1  0  0  0  0
  2  5  1  0  0  0  0
  3  7  1  1  0  0  0
  4  6  1  0  0  0  0
  5  1  1  6  0  0  0
  5  3  1  0  0  0  0
  6  3  1  0  0  0  0
  7  8  1  0  0  0  0
  8  9  1  0  0  0  0
 10  9  1  0  0  0  0
 12 17  1  0  0  0  0
 12 13  1  0  0  0  0
 13 15  1  0  0  0  0
 14 19  1  6  0  0  0
 14 15  1  0  0  0  0
 15 16  1  6  0  0  0
 17 20  1  6  0  0  0
 17 14  1  0  0  0  0
 18 23  1  6  0  0  0
 18 19  1  0  0  0  0
 20 21  1  0  0  0  0
 21 11  1  1  0  0  0
 21 18  1  0  0  0  0
 23 22  1  1  0  0  0
 24 23  1  6  0  0  0
 24 26  1  0  0  0  0
 24 25  1  0  0  0  0
 26 29  1  1  0  0  0
 26 25  1  0  0  0  0
 27 28  1  0  0  0  0
 27 29  1  0  0  0  0
 30 27  2  0  0  0  0
 31 32  1  0  0  0  0
 32 33  1  6  0  0  0
 32 35  1  0  0  0  0
 33 34  1  0  0  0  0
 35 36  1  0  0  0  0
 36 37  1  0  0  0  0
 37 41  1  0  0  0  0
 38 47  1  1  0  0  0
 39 41  1  0  0  0  0
 39 43  1  0  0  0  0
 41 40  1  1  0  0  0
 41 45  1  0  0  0  0
 43 44  1  0  0  0  0
 43 42  1  1  0  0  0
 43 38  1  0  0  0  0
 44 38  1  0  0  0  0
 45 38  1  0  0  0  0
 47 46  1  6  0  0  0
 47 48  1  0  0  0  0
 48 49  1  1  0  0  0
 51 50  1  1  0  0  0
 52 54  1  6  0  0  0
 52 53  1  0  0  0  0
 52 51  1  0  0  0  0
 53 48  1  6  0  0  0
 53 51  1  0  0  0  0
 55 54  1  0  0  0  0
M  END
>  <MODEL>
9

>  <REMARK>
 VINA RESULT:      -6.1      2.354      5.083
  Name = 
  20 active torsions:
  status: ('A' for Active; 'I' for Inactive)
    1  A    between atoms: C_1  and  C_38
    2  A    between atoms: C_2  and  C_19
    3  A    between atoms: C_2  and  C_28
    4  A    between atoms: C_2  and  C_44
    5  A    between atoms: C_4  and  C_40
    6  A    between atoms: C_5  and  C_40
    7  A    between atoms: C_5  and  C_46
    8  A    between atoms: C_6  and  C_14
    9  A    between atoms: C_6  and  C_46
   10  A    between atoms: C_8  and  C_22
   11  A    between atoms: C_13  and  C_52
   12  A    between atoms: C_19  and  C_40
   13  A    between atoms: C_21  and  C_38
   14  A    between atoms: C_21  and  C_42
   15  A    between atoms: C_27  and  C_31
   16  A    between atoms: C_28  and  C_49
   17  A    between atoms: C_31  and  C_51
   18  A    between atoms: N_32  and  C_48
   19  A    between atoms: C_33  and  C_52
   20  A    between atoms: C_35  and  C_51
                            x       y       z     vdW  Elec       q    Type
                         _______ _______ _______ _____ _____    ______ ____

>  <TORSDO>
F 20

$$$$
