=
 OpenBabel10262422463D

 37 43  0  0  1  0  0  0  0  0999 V2000
  189.2410  176.7680  145.2990 C   0  0  0  0  0  2  0  0  0  0  0  0
  183.8330  178.6930  143.8300 C   0  0  0  0  0  2  0  0  0  0  0  0
  187.2770  177.9740  141.0390 C   0  0  0  0  0  0  0  0  0  0  0  0
  189.6520  178.1260  145.8790 C   0  0  2  0  0  3  0  0  0  0  0  0
  190.5300  176.0380  141.2990 O   0  0  0  0  0  0  0  0  0  0  0  0
  185.4350  179.2650  142.0360 C   0  0  0  0  0  0  0  0  0  0  0  0
  188.3790  177.2640  141.5020 C   0  0  0  0  0  0  0  0  0  0  0  0
  186.5930  178.4970  142.1940 C   0  0  2  0  0  3  0  0  0  0  0  0
  189.3420  176.4490  140.6500 C   0  0  1  0  0  3  0  0  0  0  0  0
  185.0010  179.5240  140.7700 N   0  0  0  0  0  0  0  0  0  0  0  0
  191.0990  178.4530  145.5300 C   0  0  0  0  0  2  0  0  0  0  0  0
  187.2820  178.0990  143.3230 C   0  0  0  0  0  0  0  0  0  0  0  0
  185.6600  177.4930  145.0950 C   0  0  0  0  0  2  0  0  0  0  0  0
  187.4240  177.8800  138.5570 O   0  0  0  0  0  0  0  0  0  0  0  0
  185.6500  179.0680  139.6570 C   0  0  0  0  0  3  0  0  0  0  0  0
  186.8430  178.3740  144.7260 C   0  0  0  0  0  2  0  0  0  0  0  0
  191.2940  178.4450  144.0160 C   0  0  0  0  0  2  0  0  0  0  0  0
  191.1300  177.1550  141.9000 C   0  0  0  0  0  2  0  0  0  0  0  0
  186.8060  178.2770  139.7490 C   0  0  0  0  0  0  0  0  0  0  0  0
  188.3980  177.3510  142.9080 C   0  0  0  0  0  0  0  0  0  0  0  0
  184.6600  179.7990  143.1950 C   0  0  0  0  0  2  0  0  0  0  0  0
  189.5850  177.0340  139.2560 C   0  0  2  0  0  3  0  0  0  0  0  0
  184.3870  178.3220  145.1990 C   0  0  0  0  0  2  0  0  0  0  0  0
  190.9390  177.0790  143.4140 C   0  0  2  0  0  0  0  0  0  0  0  0
  189.4740  176.7020  143.7800 C   0  0  1  0  0  3  0  0  0  0  0  0
  188.3360  176.8000  138.4280 C   0  0  0  0  0  2  0  0  0  0  0  0
  191.9840  177.1130  138.5540 C   0  0  0  0  0  3  0  0  0  0  0  0
  190.7690  176.4180  138.5660 C   0  0  0  0  0  0  0  0  0  0  0  0
  190.6840  175.1600  137.9480 C   0  0  0  0  0  3  0  0  0  0  0  0
  191.7200  173.3940  136.7280 F   0  0  0  0  0  0  0  0  0  0  0  0
  193.0150  175.3070  137.3140 C   0  0  0  0  0  3  0  0  0  0  0  0
  191.8060  174.6070  137.3230 C   0  0  0  0  0  0  0  0  0  0  0  0
  193.1040  176.5590  137.9290 C   0  0  0  0  0  3  0  0  0  0  0  0
  191.8780  175.9940  143.9600 C   0  0  0  0  0  2  0  0  0  0  0  0
  191.3460  174.7160  143.7660 O   0  0  0  0  0  1  0  0  0  0  0  0
  188.7530  176.9550  147.5290 C   0  0  0  0  0  1  0  0  0  0  0  0
  189.4990  178.1060  147.2660 O   0  0  0  0  0  0  0  0  0  0  0  0
  1  4  1  0  0  0  0
  2 23  1  0  0  0  0
  3  7  2  0  0  0  0
  4 37  1  1  0  0  0
  5 18  1  0  0  0  0
  6  8  1  0  0  0  0
  6 21  1  0  0  0  0
  7 20  1  0  0  0  0
  8  3  1  6  0  0  0
  8 12  1  0  0  0  0
  9  5  1  1  0  0  0
  9  7  1  0  0  0  0
 10  6  2  0  0  0  0
 11  4  1  0  0  0  0
 12 16  1  0  0  0  0
 13 23  1  0  0  0  0
 14 19  1  0  0  0  0
 15 19  2  0  0  0  0
 15 10  1  0  0  0  0
 16 13  1  0  0  0  0
 17 11  1  0  0  0  0
 18 24  1  0  0  0  0
 19  3  1  0  0  0  0
 20 12  2  0  0  0  0
 20 25  1  0  0  0  0
 21  2  1  0  0  0  0
 22 28  1  6  0  0  0
 22  9  1  0  0  0  0
 24 25  1  0  0  0  0
 24 34  1  1  0  0  0
 24 17  1  0  0  0  0
 25  1  1  1  0  0  0
 26 14  1  0  0  0  0
 26 22  1  0  0  0  0
 27 28  1  0  0  0  0
 29 28  2  0  0  0  0
 30 32  1  0  0  0  0
 31 32  2  0  0  0  0
 31 33  1  0  0  0  0
 32 29  1  0  0  0  0
 33 27  2  0  0  0  0
 35 34  1  0  0  0  0
 37 36  1  0  0  0  0
M  END
>  <MODEL>
1

>  <REMARK>
 VINA RESULT:      -8.8      0.000      0.000
  Name = 
  3 active torsions:
  status: ('A' for Active; 'I' for Inactive)
    1  A    between atoms: C_5  and  O_23
    2  A    between atoms: C_6  and  C_31
    3  A    between atoms: C_11  and  C_33
                            x       y       z     vdW  Elec       q    Type
                         _______ _______ _______ _____ _____    ______ ____

>  <TORSDO>
F 3

$$$$
=
 OpenBabel10262422463D

 37 43  0  0  1  0  0  0  0  0999 V2000
  183.4600  179.5980  141.8750 C   0  0  0  0  0  2  0  0  0  0  0  0
  186.8750  178.5560  146.6040 C   0  0  0  0  0  2  0  0  0  0  0  0
  187.8220  177.5430  142.3320 C   0  0  0  0  0  0  0  0  0  0  0  0
  182.5060  178.4470  142.2120 C   0  0  2  0  0  3  0  0  0  0  0  0
  186.4560  178.6830  138.9800 O   0  0  0  0  0  0  0  0  0  0  0  0
  187.5690  177.0900  144.7370 C   0  0  0  0  0  0  0  0  0  0  0  0
  187.0460  178.1000  141.3220 C   0  0  0  0  0  0  0  0  0  0  0  0
  187.0420  177.5900  143.5420 C   0  0  0  0  0  0  0  0  0  0  0  0
  187.4910  178.3590  139.8890 C   0  0  1  0  0  3  0  0  0  0  0  0
  188.8140  176.5380  144.7110 N   0  0  0  0  0  2  0  0  0  0  0  0
  182.0710  177.7120  140.9500 C   0  0  0  0  0  2  0  0  0  0  0  0
  185.8220  178.1700  143.2500 C   0  0  0  0  0  0  0  0  0  0  0  0
  185.1630  179.6630  145.1130 C   0  0  0  0  0  2  0  0  0  0  0  0
  189.9150  176.7900  141.2180 O   0  0  0  0  0  0  0  0  0  0  0  0
  189.5620  176.4510  143.5700 C   0  0  0  0  0  3  0  0  0  0  0  0
  184.7610  178.4700  144.2600 C   0  0  0  0  0  2  0  0  0  0  0  0
  183.2900  177.1830  140.1980 C   0  0  0  0  0  2  0  0  0  0  0  0
  185.4430  177.7180  139.0810 C   0  0  0  0  0  2  0  0  0  0  0  0
  189.0970  176.9500  142.3430 C   0  0  0  0  0  0  0  0  0  0  0  0
  185.8060  178.4730  141.8770 C   0  0  0  0  0  0  0  0  0  0  0  0
  186.8250  177.1490  146.0300 C   0  0  0  0  0  2  0  0  0  0  0  0
  188.4690  177.3140  139.3450 C   0  0  2  0  0  3  0  0  0  0  0  0
  185.5050  179.2180  146.5280 C   0  0  0  0  0  2  0  0  0  0  0  0
  184.2390  178.3220  139.8010 C   0  0  2  0  0  0  0  0  0  0  0  0
  184.6760  179.1140  141.0680 C   0  0  1  0  0  3  0  0  0  0  0  0
  189.8110  177.5380  140.0160 C   0  0  0  0  0  2  0  0  0  0  0  0
  189.2050  178.5410  137.2950 C   0  0  0  0  0  3  0  0  0  0  0  0
  188.6330  177.3930  137.8540 C   0  0  0  0  0  0  0  0  0  0  0  0
  188.2350  176.3390  137.0170 C   0  0  0  0  0  3  0  0  0  0  0  0
  188.0240  175.4180  134.8290 F   0  0  0  0  0  0  0  0  0  0  0  0
  188.9810  177.5860  135.0810 C   0  0  0  0  0  3  0  0  0  0  0  0
  188.4090  176.4360  135.6330 C   0  0  0  0  0  0  0  0  0  0  0  0
  189.3780  178.6380  135.9110 C   0  0  0  0  0  3  0  0  0  0  0  0
  183.5390  179.2880  138.8340 C   0  0  0  0  0  2  0  0  0  0  0  0
  184.0860  180.5720  138.9130 O   0  0  0  0  0  1  0  0  0  0  0  0
  180.5490  179.4170  141.8530 C   0  0  0  0  0  1  0  0  0  0  0  0
  181.3820  178.9510  142.8700 O   0  0  0  0  0  0  0  0  0  0  0  0
  1  4  1  0  0  0  0
  3 19  1  0  0  0  0
  3  8  1  0  0  0  0
  4 37  1  6  0  0  0
  5 18  1  0  0  0  0
  6 21  1  0  0  0  0
  7 20  1  0  0  0  0
  7  3  2  0  0  0  0
  8  6  2  0  0  0  0
  9  5  1  6  0  0  0
  9  7  1  0  0  0  0
 10  6  1  0  0  0  0
 11  4  1  0  0  0  0
 12  8  1  0  0  0  0
 12 16  1  0  0  0  0
 13 23  1  0  0  0  0
 14 19  1  0  0  0  0
 15 10  1  0  0  0  0
 16 13  1  0  0  0  0
 17 11  1  0  0  0  0
 18 24  1  0  0  0  0
 19 15  2  0  0  0  0
 20 12  2  0  0  0  0
 21  2  1  0  0  0  0
 22 28  1  6  0  0  0
 22  9  1  0  0  0  0
 22 26  1  0  0  0  0
 23  2  1  0  0  0  0
 24 34  1  6  0  0  0
 24 17  1  0  0  0  0
 24 25  1  0  0  0  0
 25  1  1  1  0  0  0
 25 20  1  0  0  0  0
 26 14  1  0  0  0  0
 27 28  1  0  0  0  0
 29 28  2  0  0  0  0
 30 32  1  0  0  0  0
 31 32  2  0  0  0  0
 31 33  1  0  0  0  0
 32 29  1  0  0  0  0
 33 27  2  0  0  0  0
 34 35  1  0  0  0  0
 36 37  1  0  0  0  0
M  END
>  <MODEL>
2

>  <REMARK>
 VINA RESULT:      -8.7      2.629      5.678
  Name = 
  3 active torsions:
  status: ('A' for Active; 'I' for Inactive)
    1  A    between atoms: C_5  and  O_23
    2  A    between atoms: C_6  and  C_31
    3  A    between atoms: C_11  and  C_33
                            x       y       z     vdW  Elec       q    Type
                         _______ _______ _______ _____ _____    ______ ____

>  <TORSDO>
F 3

$$$$
=
 OpenBabel10262422463D

 37 43  0  0  1  0  0  0  0  0999 V2000
  190.3280  176.2220  142.1670 C   0  0  0  0  0  2  0  0  0  0  0  0
  191.7220  175.8890  147.9160 C   0  0  0  0  0  2  0  0  0  0  0  0
  187.9900  177.6630  146.1560 C   0  0  0  0  0  0  0  0  0  0  0  0
  191.3100  177.3720  141.9150 C   0  0  2  0  0  3  0  0  0  0  0  0
  186.2740  177.3970  142.7830 O   0  0  0  0  0  0  0  0  0  0  0  0
  189.9990  177.6290  147.5780 C   0  0  0  0  0  0  0  0  0  0  0  0
  187.6940  177.4130  144.8210 C   0  0  0  0  0  0  0  0  0  0  0  0
  189.4050  177.4480  146.3250 C   0  0  0  0  0  0  0  0  0  0  0  0
  186.3050  177.4130  144.1970 C   0  0  1  0  0  3  0  0  0  0  0  0
  189.2110  178.0400  148.6110 N   0  0  0  0  0  2  0  0  0  0  0  0
  190.7150  178.3970  140.9560 C   0  0  0  0  0  2  0  0  0  0  0  0
  189.9350  177.0750  145.1050 C   0  0  0  0  0  0  0  0  0  0  0  0
  191.6310  175.3050  145.4610 C   0  0  0  0  0  2  0  0  0  0  0  0
  185.8490  178.4040  147.1830 O   0  0  0  0  0  0  0  0  0  0  0  0
  187.8720  178.2820  148.4710 C   0  0  0  0  0  3  0  0  0  0  0  0
  191.3620  176.6840  144.8820 C   0  0  0  0  0  2  0  0  0  0  0  0
  189.3980  178.9380  141.5080 C   0  0  0  0  0  2  0  0  0  0  0  0
  187.1010  178.4220  142.2970 C   0  0  0  0  0  2  0  0  0  0  0  0
  187.2140  178.1020  147.2440 C   0  0  0  0  0  0  0  0  0  0  0  0
  188.8900  177.0670  144.1640 C   0  0  0  0  0  0  0  0  0  0  0  0
  191.4500  177.3820  147.8230 C   0  0  0  0  0  2  0  0  0  0  0  0
  185.3480  178.4380  144.8120 C   0  0  2  0  0  3  0  0  0  0  0  0
  192.5060  175.4060  146.7030 C   0  0  0  0  0  2  0  0  0  0  0  0
  188.3770  177.8120  141.7210 C   0  0  2  0  0  0  0  0  0  0  0  0
  188.9680  176.7320  142.6730 C   0  0  1  0  0  3  0  0  0  0  0  0
  184.9510  177.9390  146.1870 C   0  0  0  0  0  2  0  0  0  0  0  0
  182.8780  178.7720  144.6190 C   0  0  0  0  0  3  0  0  0  0  0  0
  184.1170  178.6550  143.9790 C   0  0  0  0  0  0  0  0  0  0  0  0
  184.1860  178.7520  142.5800 C   0  0  0  0  0  3  0  0  0  0  0  0
  183.0950  179.0580  140.4830 F   0  0  0  0  0  0  0  0  0  0  0  0
  181.7900  179.0800  142.4770 C   0  0  0  0  0  3  0  0  0  0  0  0
  183.0240  178.9640  141.8320 C   0  0  0  0  0  0  0  0  0  0  0  0
  181.7170  178.9840  143.8700 C   0  0  0  0  0  3  0  0  0  0  0  0
  188.0260  177.1480  140.3810 C   0  0  0  0  0  2  0  0  0  0  0  0
  187.6240  178.0960  139.4340 O   0  0  0  0  0  1  0  0  0  0  0  0
  192.5640  177.3940  140.0910 C   0  0  0  0  0  1  0  0  0  0  0  0
  192.4960  176.8650  141.3810 O   0  0  0  0  0  0  0  0  0  0  0  0
  3  8  1  0  0  0  0
  3 19  1  0  0  0  0
  4 37  1  6  0  0  0
  4  1  1  0  0  0  0
  6 21  1  0  0  0  0
  6 10  1  0  0  0  0
  7  3  2  0  0  0  0
  8  6  2  0  0  0  0
  9  5  1  6  0  0  0
  9 22  1  0  0  0  0
  9  7  1  0  0  0  0
 11 17  1  0  0  0  0
 11  4  1  0  0  0  0
 12  8  1  0  0  0  0
 13 23  1  0  0  0  0
 14 19  1  0  0  0  0
 15 10  1  0  0  0  0
 16 12  1  0  0  0  0
 16 13  1  0  0  0  0
 17 24  1  0  0  0  0
 18  5  1  0  0  0  0
 19 15  2  0  0  0  0
 20  7  1  0  0  0  0
 20 12  2  0  0  0  0
 21  2  1  0  0  0  0
 22 28  1  6  0  0  0
 22 26  1  0  0  0  0
 23  2  1  0  0  0  0
 24 34  1  6  0  0  0
 24 18  1  0  0  0  0
 24 25  1  0  0  0  0
 25  1  1  6  0  0  0
 25 20  1  0  0  0  0
 26 14  1  0  0  0  0
 28 27  1  0  0  0  0
 29 28  2  0  0  0  0
 30 32  1  0  0  0  0
 31 33  1  0  0  0  0
 32 31  2  0  0  0  0
 32 29  1  0  0  0  0
 33 27  2  0  0  0  0
 35 34  1  0  0  0  0
 36 37  1  0  0  0  0
M  END
>  <MODEL>
3

>  <REMARK>
 VINA RESULT:      -8.4      3.026      7.409
  Name = 
  3 active torsions:
  status: ('A' for Active; 'I' for Inactive)
    1  A    between atoms: C_5  and  O_23
    2  A    between atoms: C_6  and  C_31
    3  A    between atoms: C_11  and  C_33
                            x       y       z     vdW  Elec       q    Type
                         _______ _______ _______ _____ _____    ______ ____

>  <TORSDO>
F 3

$$$$
=
 OpenBabel10262422463D

 37 43  0  0  1  0  0  0  0  0999 V2000
  183.7470  178.0880  143.1750 C   0  0  0  0  0  2  0  0  0  0  0  0
  185.5840  177.7710  137.5510 C   0  0  0  0  0  2  0  0  0  0  0  0
  188.1700  177.8020  141.2230 C   0  0  0  0  0  0  0  0  0  0  0  0
  183.4260  179.5830  143.0680 C   0  0  2  0  0  3  0  0  0  0  0  0
  187.5340  177.1660  144.9090 O   0  0  0  0  0  0  0  0  0  0  0  0
  187.4420  178.5380  138.9900 C   0  0  0  0  0  0  0  0  0  0  0  0
  187.5760  177.6010  142.4630 C   0  0  2  0  0  3  0  0  0  0  0  0
  187.1370  178.2500  140.3240 C   0  0  0  0  0  0  0  0  0  0  0  0
  188.2560  177.0290  143.7000 C   0  0  1  0  0  3  0  0  0  0  0  0
  188.7370  178.4120  138.5840 N   0  0  0  0  0  0  0  0  0  0  0  0
  183.8190  180.3190  144.3440 C   0  0  0  0  0  2  0  0  0  0  0  0
  185.9490  178.3110  141.0260 C   0  0  0  0  0  0  0  0  0  0  0  0
  184.1070  177.5030  139.5810 C   0  0  0  0  0  2  0  0  0  0  0  0
  190.5910  177.3380  141.5650 O   0  0  0  0  0  0  0  0  0  0  0  0
  189.7420  178.0200  139.4230 C   0  0  0  0  0  3  0  0  0  0  0  0
  184.6240  178.6560  140.4240 C   0  0  0  0  0  2  0  0  0  0  0  0
  185.3050  180.1180  144.6340 C   0  0  0  0  0  2  0  0  0  0  0  0
  187.1460  178.5070  145.0580 C   0  0  0  0  0  2  0  0  0  0  0  0
  189.4980  177.6990  140.7680 C   0  0  0  0  0  0  0  0  0  0  0  0
  186.2110  177.9290  142.3540 C   0  0  0  0  0  0  0  0  0  0  0  0
  186.4080  178.9660  138.0030 C   0  0  0  0  0  2  0  0  0  0  0  0
  189.7330  177.4130  143.8300 C   0  0  2  0  0  3  0  0  0  0  0  0
  184.1660  177.8520  138.1000 C   0  0  0  0  0  2  0  0  0  0  0  0
  185.6460  178.6310  144.7980 C   0  0  2  0  0  0  0  0  0  0  0  0
  185.2260  177.8460  143.5220 C   0  0  1  0  0  3  0  0  0  0  0  0
  190.5110  176.6290  142.7910 C   0  0  0  0  0  2  0  0  0  0  0  0
  191.4060  176.2950  145.3140 C   0  0  0  0  0  3  0  0  0  0  0  0
  190.2880  177.1290  145.1960 C   0  0  0  0  0  0  0  0  0  0  0  0
  189.7170  177.6890  146.3500 C   0  0  0  0  0  3  0  0  0  0  0  0
  189.7090  177.9570  148.7190 F   0  0  0  0  0  0  0  0  0  0  0  0
  191.3780  176.5810  147.7190 C   0  0  0  0  0  3  0  0  0  0  0  0
  190.2620  177.4150  147.6080 C   0  0  0  0  0  0  0  0  0  0  0  0
  191.9500  176.0210  146.5720 C   0  0  0  0  0  3  0  0  0  0  0  0
  184.9020  178.0420  146.0060 C   0  0  0  0  0  2  0  0  0  0  0  0
  185.2280  178.7200  147.1840 O   0  0  0  0  0  1  0  0  0  0  0  0
  181.4350  178.8530  143.7010 C   0  0  0  0  0  1  0  0  0  0  0  0
  182.0600  179.7510  142.8340 O   0  0  0  0  0  0  0  0  0  0  0  0
  2 21  1  0  0  0  0
  2 23  1  0  0  0  0
  4 37  1  1  0  0  0
  4  1  1  0  0  0  0
  4 11  1  0  0  0  0
  5 18  1  0  0  0  0
  6  8  1  0  0  0  0
  7  3  1  6  0  0  0
  7  9  1  0  0  0  0
  8 12  1  0  0  0  0
  8  3  2  0  0  0  0
  9 22  1  0  0  0  0
  9  5  1  1  0  0  0
 10  6  2  0  0  0  0
 10 15  1  0  0  0  0
 11 17  1  0  0  0  0
 12 20  2  0  0  0  0
 13 16  1  0  0  0  0
 14 26  1  0  0  0  0
 15 19  2  0  0  0  0
 16 12  1  0  0  0  0
 17 24  1  0  0  0  0
 19  3  1  0  0  0  0
 19 14  1  0  0  0  0
 20  7  1  0  0  0  0
 20 25  1  0  0  0  0
 21  6  1  0  0  0  0
 22 28  1  1  0  0  0
 23 13  1  0  0  0  0
 24 18  1  0  0  0  0
 24 34  1  1  0  0  0
 25  1  1  6  0  0  0
 25 24  1  0  0  0  0
 26 22  1  0  0  0  0
 27 33  1  0  0  0  0
 28 27  2  0  0  0  0
 28 29  1  0  0  0  0
 29 32  2  0  0  0  0
 32 31  1  0  0  0  0
 32 30  1  0  0  0  0
 33 31  2  0  0  0  0
 34 35  1  0  0  0  0
 37 36  1  0  0  0  0
M  END
>  <MODEL>
4

>  <REMARK>
 VINA RESULT:      -7.6      3.066      6.441
  Name = 
  3 active torsions:
  status: ('A' for Active; 'I' for Inactive)
    1  A    between atoms: C_5  and  O_23
    2  A    between atoms: C_6  and  C_31
    3  A    between atoms: C_11  and  C_33
                            x       y       z     vdW  Elec       q    Type
                         _______ _______ _______ _____ _____    ______ ____

>  <TORSDO>
F 3

$$$$
=
 OpenBabel10262422463D

 37 43  0  0  1  0  0  0  0  0999 V2000
  189.7030  178.4040  143.1310 C   0  0  0  0  0  2  0  0  0  0  0  0
  192.6660  176.7590  138.2700 C   0  0  0  0  0  2  0  0  0  0  0  0
  188.2170  177.2290  138.6740 C   0  0  0  0  0  0  0  0  0  0  0  0
  189.8850  177.0360  143.8000 C   0  0  2  0  0  3  0  0  0  0  0  0
  185.9610  178.9830  141.1690 O   0  0  0  0  0  0  0  0  0  0  0  0
  190.3010  176.0630  138.0780 C   0  0  0  0  0  0  0  0  0  0  0  0
  187.7100  177.8840  139.7900 C   0  0  2  0  0  3  0  0  0  0  0  0
  189.5390  176.7680  139.0160 C   0  0  0  0  0  0  0  0  0  0  0  0
  186.3840  178.6280  139.8670 C   0  0  1  0  0  3  0  0  0  0  0  0
  189.7470  175.8050  136.8610 N   0  0  0  0  0  0  0  0  0  0  0  0
  188.6210  176.6220  144.5460 C   0  0  0  0  0  2  0  0  0  0  0  0
  189.8080  177.1480  140.3160 C   0  0  0  0  0  0  0  0  0  0  0  0
  192.1690  177.8780  140.4790 C   0  0  0  0  0  2  0  0  0  0  0  0
  186.3820  177.2670  136.9940 O   0  0  0  0  0  0  0  0  0  0  0  0
  188.4830  176.2020  136.5220 C   0  0  0  0  0  3  0  0  0  0  0  0
  191.1120  176.9250  141.0140 C   0  0  0  0  0  2  0  0  0  0  0  0
  187.4290  176.5900  143.5920 C   0  0  0  0  0  2  0  0  0  0  0  0
  186.0080  177.8460  141.9900 C   0  0  0  0  0  2  0  0  0  0  0  0
  187.6750  176.9280  137.4120 C   0  0  0  0  0  0  0  0  0  0  0  0
  188.6780  177.8230  140.8120 C   0  0  0  0  0  0  0  0  0  0  0  0
  191.6900  175.5960  138.3600 C   0  0  0  0  0  2  0  0  0  0  0  0
  185.2720  178.0030  139.0190 C   0  0  2  0  0  3  0  0  0  0  0  0
  193.1990  177.1240  139.6490 C   0  0  0  0  0  2  0  0  0  0  0  0
  187.1930  177.9620  142.9470 C   0  0  2  0  0  0  0  0  0  0  0  0
  188.4770  178.4280  142.2030 C   0  0  1  0  0  3  0  0  0  0  0  0
  185.5810  178.2910  137.5620 C   0  0  0  0  0  2  0  0  0  0  0  0
  183.5060  179.7600  138.8110 C   0  0  0  0  0  3  0  0  0  0  0  0
  183.9110  178.5390  139.3610 C   0  0  0  0  0  0  0  0  0  0  0  0
  183.0390  177.8360  140.2070 C   0  0  0  0  0  3  0  0  0  0  0  0
  180.9350  177.6730  141.3160 F   0  0  0  0  0  0  0  0  0  0  0  0
  181.3750  179.5740  139.9480 C   0  0  0  0  0  3  0  0  0  0  0  0
  181.7740  178.3540  140.4990 C   0  0  0  0  0  0  0  0  0  0  0  0
  182.2400  180.2770  139.1040 C   0  0  0  0  0  3  0  0  0  0  0  0
  186.8400  179.0030  144.0200 C   0  0  0  0  0  2  0  0  0  0  0  0
  185.6860  178.6390  144.7210 O   0  0  0  0  0  1  0  0  0  0  0  0
  191.6540  178.2500  144.3440 C   0  0  0  0  0  1  0  0  0  0  0  0
  190.9570  177.0920  144.6910 O   0  0  0  0  0  0  0  0  0  0  0  0
  1  4  1  0  0  0  0
  2 21  1  0  0  0  0
  2 23  1  0  0  0  0
  3  8  2  0  0  0  0
  4 11  1  0  0  0  0
  4 37  1  1  0  0  0
  5 18  1  0  0  0  0
  6 21  1  0  0  0  0
  6  8  1  0  0  0  0
  7  3  1  6  0  0  0
  7  9  1  0  0  0  0
  7 20  1  0  0  0  0
  8 12  1  0  0  0  0
  9  5  1  1  0  0  0
 10  6  2  0  0  0  0
 12 20  2  0  0  0  0
 12 16  1  0  0  0  0
 13 16  1  0  0  0  0
 14 19  1  0  0  0  0
 14 26  1  0  0  0  0
 15 10  1  0  0  0  0
 15 19  2  0  0  0  0
 17 11  1  0  0  0  0
 18 24  1  0  0  0  0
 19  3  1  0  0  0  0
 20 25  1  0  0  0  0
 22 28  1  1  0  0  0
 22  9  1  0  0  0  0
 23 13  1  0  0  0  0
 24 17  1  0  0  0  0
 24 34  1  1  0  0  0
 25 24  1  0  0  0  0
 25  1  1  1  0  0  0
 26 22  1  0  0  0  0
 27 33  2  0  0  0  0
 27 28  1  0  0  0  0
 28 29  2  0  0  0  0
 29 32  1  0  0  0  0
 31 32  2  0  0  0  0
 32 30  1  0  0  0  0
 33 31  1  0  0  0  0
 34 35  1  0  0  0  0
 36 37  1  0  0  0  0
M  END
>  <MODEL>
5

>  <REMARK>
 VINA RESULT:      -7.3      3.073      6.692
  Name = 
  3 active torsions:
  status: ('A' for Active; 'I' for Inactive)
    1  A    between atoms: C_5  and  O_23
    2  A    between atoms: C_6  and  C_31
    3  A    between atoms: C_11  and  C_33
                            x       y       z     vdW  Elec       q    Type
                         _______ _______ _______ _____ _____    ______ ____

>  <TORSDO>
F 3

$$$$
=
 OpenBabel10262422463D

 37 43  0  0  1  0  0  0  0  0999 V2000
  190.3860  176.6370  144.6960 C   0  0  0  0  0  2  0  0  0  0  0  0
  185.0520  177.8780  146.9610 C   0  0  0  0  0  2  0  0  0  0  0  0
  186.3380  178.3780  142.6860 C   0  0  0  0  0  0  0  0  0  0  0  0
  191.0240  177.8880  145.3110 C   0  0  2  0  0  3  0  0  0  0  0  0
  189.2100  177.0180  140.6140 O   0  0  0  0  0  0  0  0  0  0  0  0
  185.3510  179.0890  144.8260 C   0  0  0  0  0  0  0  0  0  0  0  0
  187.5230  177.7840  142.2680 C   0  0  0  0  0  0  0  0  0  0  0  0
  186.4130  178.5140  144.1190 C   0  0  0  0  0  0  0  0  0  0  0  0
  187.8540  177.3490  140.8480 C   0  0  1  0  0  3  0  0  0  0  0  0
  184.2750  179.5360  144.1210 N   0  0  0  0  0  2  0  0  0  0  0  0
  192.0150  178.5250  144.3440 C   0  0  0  0  0  2  0  0  0  0  0  0
  187.6270  178.0060  144.5400 C   0  0  0  0  0  0  0  0  0  0  0  0
  187.2990  176.7650  146.6580 C   0  0  0  0  0  2  0  0  0  0  0  0
  185.0610  178.8470  140.6030 O   0  0  0  0  0  0  0  0  0  0  0  0
  184.1920  179.4480  142.7600 C   0  0  0  0  0  3  0  0  0  0  0  0
  188.0500  177.8930  145.9700 C   0  0  0  0  0  2  0  0  0  0  0  0
  191.3220  178.8780  143.0300 C   0  0  0  0  0  2  0  0  0  0  0  0
  190.0210  178.0650  141.0770 C   0  0  0  0  0  2  0  0  0  0  0  0
  185.2150  178.8660  141.9940 C   0  0  0  0  0  0  0  0  0  0  0  0
  188.3290  177.5690  143.4030 C   0  0  0  0  0  0  0  0  0  0  0  0
  185.3540  179.2200  146.3130 C   0  0  0  0  0  2  0  0  0  0  0  0
  187.2570  178.2530  139.7660 C   0  0  2  0  0  3  0  0  0  0  0  0
  186.2900  177.3210  147.6530 C   0  0  0  0  0  2  0  0  0  0  0  0
  190.7180  177.6330  142.3660 C   0  0  2  0  0  0  0  0  0  0  0  0
  189.7230  176.9410  143.3420 C   0  0  1  0  0  3  0  0  0  0  0  0
  185.7640  177.9930  139.7130 C   0  0  0  0  0  2  0  0  0  0  0  0
  188.8410  178.8900  137.9400 C   0  0  0  0  0  3  0  0  0  0  0  0
  187.8580  178.0120  138.4110 C   0  0  0  0  0  0  0  0  0  0  0  0
  187.4650  176.9220  137.6180 C   0  0  0  0  0  3  0  0  0  0  0  0
  187.6670  175.6660  135.6030 F   0  0  0  0  0  0  0  0  0  0  0  0
  189.0290  177.5980  135.9000 C   0  0  0  0  0  3  0  0  0  0  0  0
  188.0500  176.7170  136.3650 C   0  0  0  0  0  0  0  0  0  0  0  0
  189.4250  178.6840  136.6860 C   0  0  0  0  0  3  0  0  0  0  0  0
  191.8240  176.6330  141.9980 C   0  0  0  0  0  2  0  0  0  0  0  0
  192.6160  177.1130  140.9510 O   0  0  0  0  0  1  0  0  0  0  0  0
  191.6820  176.1480  146.5100 C   0  0  0  0  0  1  0  0  0  0  0  0
  191.6800  177.5440  146.4930 O   0  0  0  0  0  0  0  0  0  0  0  0
  1  4  1  0  0  0  0
  2 23  1  0  0  0  0
  3  8  1  0  0  0  0
  4 37  1  1  0  0  0
  5 18  1  0  0  0  0
  6 21  1  0  0  0  0
  7  3  2  0  0  0  0
  7 20  1  0  0  0  0
  8 12  1  0  0  0  0
  8  6  2  0  0  0  0
  9  5  1  1  0  0  0
  9  7  1  0  0  0  0
 10  6  1  0  0  0  0
 11  4  1  0  0  0  0
 12 16  1  0  0  0  0
 13 23  1  0  0  0  0
 14 19  1  0  0  0  0
 15 10  1  0  0  0  0
 16 13  1  0  0  0  0
 17 11  1  0  0  0  0
 18 24  1  0  0  0  0
 19  3  1  0  0  0  0
 19 15  2  0  0  0  0
 20 12  2  0  0  0  0
 21  2  1  0  0  0  0
 22 28  1  6  0  0  0
 22  9  1  0  0  0  0
 24 34  1  6  0  0  0
 24 17  1  0  0  0  0
 24 25  1  0  0  0  0
 25 20  1  0  0  0  0
 25  1  1  1  0  0  0
 26 22  1  0  0  0  0
 26 14  1  0  0  0  0
 27 28  1  0  0  0  0
 29 28  2  0  0  0  0
 30 32  1  0  0  0  0
 31 32  2  0  0  0  0
 31 33  1  0  0  0  0
 32 29  1  0  0  0  0
 33 27  2  0  0  0  0
 35 34  1  0  0  0  0
 37 36  1  0  0  0  0
M  END
>  <MODEL>
6

>  <REMARK>
 VINA RESULT:      -7.2      2.290      2.832
  Name = 
  3 active torsions:
  status: ('A' for Active; 'I' for Inactive)
    1  A    between atoms: C_5  and  O_23
    2  A    between atoms: C_6  and  C_31
    3  A    between atoms: C_11  and  C_33
                            x       y       z     vdW  Elec       q    Type
                         _______ _______ _______ _____ _____    ______ ____

>  <TORSDO>
F 3

$$$$
=
 OpenBabel10262422463D

 37 43  0  0  1  0  0  0  0  0999 V2000
  188.0190  179.0150  141.9170 C   0  0  0  0  0  2  0  0  0  0  0  0
  188.3080  177.9760  136.0910 C   0  0  0  0  0  2  0  0  0  0  0  0
  184.6000  178.0610  138.6230 C   0  0  0  0  0  0  0  0  0  0  0  0
  188.5480  177.6210  142.2720 C   0  0  2  0  0  3  0  0  0  0  0  0
  183.7780  179.4410  142.0600 O   0  0  0  0  0  0  0  0  0  0  0  0
  186.1720  177.1110  136.9850 C   0  0  0  0  0  0  0  0  0  0  0  0
  184.6760  178.5890  139.9070 C   0  0  2  0  0  3  0  0  0  0  0  0
  185.9360  177.6820  138.2400 C   0  0  0  0  0  0  0  0  0  0  0  0
  183.5290  179.2180  140.6860 C   0  0  1  0  0  3  0  0  0  0  0  0
  185.1060  176.9010  136.1620 N   0  0  0  0  0  0  0  0  0  0  0  0
  187.8190  177.0540  143.4840 C   0  0  0  0  0  2  0  0  0  0  0  0
  186.7890  177.9840  139.2840 C   0  0  0  0  0  0  0  0  0  0  0  0
  188.9070  178.8840  138.3700 C   0  0  0  0  0  2  0  0  0  0  0  0
  182.1810  178.0780  138.0420 O   0  0  0  0  0  0  0  0  0  0  0  0
  183.8240  177.2210  136.5140 C   0  0  0  0  0  3  0  0  0  0  0  0
  188.2740  177.8140  139.2440 C   0  0  0  0  0  2  0  0  0  0  0  0
  186.3160  176.9970  143.2210 C   0  0  0  0  0  2  0  0  0  0  0  0
  184.2550  178.2530  142.6360 C   0  0  0  0  0  2  0  0  0  0  0  0
  183.5240  177.8130  137.7510 C   0  0  0  0  0  0  0  0  0  0  0  0
  186.0190  178.5290  140.3270 C   0  0  0  0  0  0  0  0  0  0  0  0
  187.5380  176.7350  136.5160 C   0  0  0  0  0  2  0  0  0  0  0  0
  182.1670  178.5720  140.4150 C   0  0  2  0  0  3  0  0  0  0  0  0
  189.4310  178.2780  137.0750 C   0  0  0  0  0  2  0  0  0  0  0  0
  185.7500  178.3910  142.9140 C   0  0  2  0  0  0  0  0  0  0  0  0
  186.4970  179.0110  141.6980 C   0  0  1  0  0  3  0  0  0  0  0  0
  181.7210  178.9910  139.0270 C   0  0  0  0  0  2  0  0  0  0  0  0
  180.3690  180.1260  141.1910 C   0  0  0  0  0  3  0  0  0  0  0  0
  181.1250  178.9710  141.4200 C   0  0  0  0  0  0  0  0  0  0  0  0
  180.8880  178.2050  142.5730 C   0  0  0  0  0  3  0  0  0  0  0  0
  179.6790  177.8550  144.5970 F   0  0  0  0  0  0  0  0  0  0  0  0
  179.1540  179.7510  143.2520 C   0  0  0  0  0  3  0  0  0  0  0  0
  179.9050  178.5960  143.4870 C   0  0  0  0  0  0  0  0  0  0  0  0
  179.3860  180.5160  142.1050 C   0  0  0  0  0  3  0  0  0  0  0  0
  185.9270  179.3180  144.1260 C   0  0  0  0  0  2  0  0  0  0  0  0
  185.2180  178.8460  145.2350 O   0  0  0  0  0  1  0  0  0  0  0  0
  190.3650  176.3740  142.4800 C   0  0  0  0  0  1  0  0  0  0  0  0
  189.9150  177.6940  142.5410 O   0  0  0  0  0  0  0  0  0  0  0  0
  1  4  1  0  0  0  0
  2 21  1  0  0  0  0
  2 23  1  0  0  0  0
  4 37  1  1  0  0  0
  4 11  1  0  0  0  0
  5 18  1  0  0  0  0
  6  8  1  0  0  0  0
  7  3  1  6  0  0  0
  7 20  1  0  0  0  0
  7  9  1  0  0  0  0
  8  3  2  0  0  0  0
  8 12  1  0  0  0  0
  9  5  1  1  0  0  0
 10 15  1  0  0  0  0
 10  6  2  0  0  0  0
 12 20  2  0  0  0  0
 13 16  1  0  0  0  0
 14 26  1  0  0  0  0
 15 19  2  0  0  0  0
 16 12  1  0  0  0  0
 17 11  1  0  0  0  0
 18 24  1  0  0  0  0
 19 14  1  0  0  0  0
 19  3  1  0  0  0  0
 20 25  1  0  0  0  0
 21  6  1  0  0  0  0
 22  9  1  0  0  0  0
 22 28  1  1  0  0  0
 23 13  1  0  0  0  0
 24 17  1  0  0  0  0
 24 34  1  1  0  0  0
 25  1  1  1  0  0  0
 25 24  1  0  0  0  0
 26 22  1  0  0  0  0
 27 28  2  0  0  0  0
 27 33  1  0  0  0  0
 28 29  1  0  0  0  0
 29 32  2  0  0  0  0
 31 32  1  0  0  0  0
 32 30  1  0  0  0  0
 33 31  2  0  0  0  0
 34 35  1  0  0  0  0
 36 37  1  0  0  0  0
M  END
>  <MODEL>
7

>  <REMARK>
 VINA RESULT:      -7.1      3.891      7.937
  Name = 
  3 active torsions:
  status: ('A' for Active; 'I' for Inactive)
    1  A    between atoms: C_5  and  O_23
    2  A    between atoms: C_6  and  C_31
    3  A    between atoms: C_11  and  C_33
                            x       y       z     vdW  Elec       q    Type
                         _______ _______ _______ _____ _____    ______ ____

>  <TORSDO>
F 3

$$$$
=
 OpenBabel10262422463D

 37 43  0  0  1  0  0  0  0  0999 V2000
  186.5920  178.7750  137.3220 C   0  0  0  0  0  2  0  0  0  0  0  0
  181.4300  179.9320  139.9920 C   0  0  0  0  0  2  0  0  0  0  0  0
  185.1880  178.4360  141.9450 C   0  0  0  0  0  0  0  0  0  0  0  0
  186.0740  177.4670  136.7140 C   0  0  2  0  0  3  0  0  0  0  0  0
  188.8400  178.3370  140.9210 O   0  0  0  0  0  0  0  0  0  0  0  0
  182.7850  178.4310  141.4160 C   0  0  0  0  0  0  0  0  0  0  0  0
  186.3800  178.4810  141.2310 C   0  0  0  0  0  0  0  0  0  0  0  0
  184.1150  178.4680  140.9840 C   0  0  0  0  0  0  0  0  0  0  0  0
  187.7780  178.5730  141.8260 C   0  0  1  0  0  3  0  0  0  0  0  0
  182.5440  178.3330  142.7530 N   0  0  0  0  0  2  0  0  0  0  0  0
  187.1470  176.3850  136.7530 C   0  0  0  0  0  2  0  0  0  0  0  0
  184.6670  178.5330  139.7190 C   0  0  0  0  0  0  0  0  0  0  0  0
  183.3190  180.0700  138.3210 C   0  0  0  0  0  2  0  0  0  0  0  0
  185.8550  178.2140  144.3320 O   0  0  0  0  0  0  0  0  0  0  0  0
  183.5430  178.2690  143.6830 C   0  0  0  0  0  3  0  0  0  0  0  0
  183.8790  178.6640  138.4550 C   0  0  0  0  0  2  0  0  0  0  0  0
  187.6120  176.1510  138.1880 C   0  0  0  0  0  2  0  0  0  0  0  0
  188.6030  177.1320  140.2430 C   0  0  0  0  0  2  0  0  0  0  0  0
  184.8970  178.3190  143.3160 C   0  0  0  0  0  0  0  0  0  0  0  0
  186.0660  178.5240  139.8580 C   0  0  0  0  0  0  0  0  0  0  0  0
  181.6310  178.5020  140.4710 C   0  0  0  0  0  2  0  0  0  0  0  0
  187.9380  177.8260  143.1530 C   0  0  2  0  0  3  0  0  0  0  0  0
  181.8100  180.0670  138.5230 C   0  0  0  0  0  2  0  0  0  0  0  0
  188.1850  177.4340  138.8050 C   0  0  2  0  0  0  0  0  0  0  0  0
  187.1220  178.5690  138.7510 C   0  0  1  0  0  3  0  0  0  0  0  0
  187.2110  178.6190  144.2230 C   0  0  0  0  0  2  0  0  0  0  0  0
  190.1230  178.7710  143.9150 C   0  0  0  0  0  3  0  0  0  0  0  0
  189.3750  177.6460  143.5480 C   0  0  0  0  0  0  0  0  0  0  0  0
  189.9760  176.3780  143.5690 C   0  0  0  0  0  3  0  0  0  0  0  0
  191.8900  175.0150  143.9690 F   0  0  0  0  0  0  0  0  0  0  0  0
  192.0560  177.3670  144.3150 C   0  0  0  0  0  3  0  0  0  0  0  0
  191.3140  176.2400  143.9510 C   0  0  0  0  0  0  0  0  0  0  0  0
  191.4610  178.6320  144.2970 C   0  0  0  0  0  3  0  0  0  0  0  0
  189.4310  177.8890  138.0310 C   0  0  0  0  0  2  0  0  0  0  0  0
  190.5130  177.0330  138.2610 O   0  0  0  0  0  1  0  0  0  0  0  0
  186.8050  178.2430  134.7740 C   0  0  0  0  0  1  0  0  0  0  0  0
  185.6830  177.6900  135.3930 O   0  0  0  0  0  0  0  0  0  0  0  0
  2 21  1  0  0  0  0
  3 19  1  0  0  0  0
  4 37  1  6  0  0  0
  4 11  1  0  0  0  0
  4  1  1  0  0  0  0
  6 10  1  0  0  0  0
  7  9  1  0  0  0  0
  7  3  2  0  0  0  0
  8  6  2  0  0  0  0
  8  3  1  0  0  0  0
  9  5  1  6  0  0  0
  9 22  1  0  0  0  0
 10 15  1  0  0  0  0
 11 17  1  0  0  0  0
 12 20  2  0  0  0  0
 12  8  1  0  0  0  0
 13 16  1  0  0  0  0
 13 23  1  0  0  0  0
 16 12  1  0  0  0  0
 17 24  1  0  0  0  0
 18  5  1  0  0  0  0
 19 15  2  0  0  0  0
 19 14  1  0  0  0  0
 20  7  1  0  0  0  0
 21  6  1  0  0  0  0
 22 28  1  1  0  0  0
 22 26  1  0  0  0  0
 23  2  1  0  0  0  0
 24 34  1  6  0  0  0
 24 18  1  0  0  0  0
 25  1  1  6  0  0  0
 25 24  1  0  0  0  0
 25 20  1  0  0  0  0
 26 14  1  0  0  0  0
 27 33  1  0  0  0  0
 28 29  1  0  0  0  0
 28 27  2  0  0  0  0
 29 32  2  0  0  0  0
 32 30  1  0  0  0  0
 32 31  1  0  0  0  0
 33 31  2  0  0  0  0
 34 35  1  0  0  0  0
 36 37  1  0  0  0  0
M  END
>  <MODEL>
8

>  <REMARK>
 VINA RESULT:      -6.9      2.642      6.412
  Name = 
  3 active torsions:
  status: ('A' for Active; 'I' for Inactive)
    1  A    between atoms: C_5  and  O_23
    2  A    between atoms: C_6  and  C_31
    3  A    between atoms: C_11  and  C_33
                            x       y       z     vdW  Elec       q    Type
                         _______ _______ _______ _____ _____    ______ ____

>  <TORSDO>
F 3

$$$$
=
 OpenBabel10262422463D

 37 43  0  0  1  0  0  0  0  0999 V2000
  187.8560  179.1090  141.6990 C   0  0  0  0  0  2  0  0  0  0  0  0
  188.6710  177.7170  135.9980 C   0  0  0  0  0  2  0  0  0  0  0  0
  184.7570  177.8500  138.1970 C   0  0  0  0  0  0  0  0  0  0  0  0
  188.3850  177.7550  142.1870 C   0  0  2  0  0  3  0  0  0  0  0  0
  183.6090  179.4170  141.4560 O   0  0  0  0  0  0  0  0  0  0  0  0
  186.4870  176.8470  136.7620 C   0  0  0  0  0  0  0  0  0  0  0  0
  184.7090  178.4590  139.4450 C   0  0  2  0  0  3  0  0  0  0  0  0
  186.1300  177.4880  137.9530 C   0  0  0  0  0  0  0  0  0  0  0  0
  183.4840  179.1010  140.0820 C   0  0  1  0  0  3  0  0  0  0  0  0
  185.5010  176.5550  135.8680 N   0  0  0  0  0  0  0  0  0  0  0  0
  187.5680  177.2440  143.3670 C   0  0  0  0  0  2  0  0  0  0  0  0
  186.8820  177.8800  139.0440 C   0  0  0  0  0  0  0  0  0  0  0  0
  189.0490  178.7840  138.2560 C   0  0  0  0  0  2  0  0  0  0  0  0
  182.3970  177.7590  137.4130 O   0  0  0  0  0  0  0  0  0  0  0  0
  184.1860  176.8580  136.0880 C   0  0  0  0  0  3  0  0  0  0  0  0
  188.3690  177.7520  139.1400 C   0  0  0  0  0  2  0  0  0  0  0  0
  186.0950  177.1260  142.9820 C   0  0  0  0  0  2  0  0  0  0  0  0
  184.0630  178.2810  142.1450 C   0  0  0  0  0  2  0  0  0  0  0  0
  183.7670  177.5160  137.2550 C   0  0  0  0  0  0  0  0  0  0  0  0
  186.0120  178.4660  139.9800 C   0  0  0  0  0  0  0  0  0  0  0  0
  187.8970  176.4840  136.4360 C   0  0  0  0  0  2  0  0  0  0  0  0
  182.1670  178.4000  139.7400 C   0  0  2  0  0  3  0  0  0  0  0  0
  189.6970  178.1140  137.0510 C   0  0  0  0  0  2  0  0  0  0  0  0
  185.5250  178.4810  142.5390 C   0  0  2  0  0  0  0  0  0  0  0  0
  186.3590  179.0460  141.3530 C   0  0  1  0  0  3  0  0  0  0  0  0
  181.8320  178.7180  138.2950 C   0  0  0  0  0  2  0  0  0  0  0  0
  180.5070  177.9140  141.5450 C   0  0  0  0  0  3  0  0  0  0  0  0
  181.0330  178.8290  140.6260 C   0  0  0  0  0  0  0  0  0  0  0  0
  180.5020  180.1270  140.5590 C   0  0  0  0  0  3  0  0  0  0  0  0
  178.9440  181.7550  141.3370 F   0  0  0  0  0  0  0  0  0  0  0  0
  178.9310  179.5830  142.3180 C   0  0  0  0  0  3  0  0  0  0  0  0
  179.4530  180.5020  141.4040 C   0  0  0  0  0  0  0  0  0  0  0  0
  179.4570  178.2900  142.3890 C   0  0  0  0  0  3  0  0  0  0  0  0
  185.5740  179.4860  143.6990 C   0  0  0  0  0  2  0  0  0  0  0  0
  184.8950  179.0020  144.8210 O   0  0  0  0  0  1  0  0  0  0  0  0
  190.2450  176.5940  142.4880 C   0  0  0  0  0  1  0  0  0  0  0  0
  189.7220  177.8860  142.5650 O   0  0  0  0  0  0  0  0  0  0  0  0
  1  4  1  0  0  0  0
  2 21  1  0  0  0  0
  2 23  1  0  0  0  0
  4 37  1  1  0  0  0
  4 11  1  0  0  0  0
  5 18  1  0  0  0  0
  6  8  1  0  0  0  0
  7  3  1  6  0  0  0
  7 20  1  0  0  0  0
  7  9  1  0  0  0  0
  8  3  2  0  0  0  0
  8 12  1  0  0  0  0
  9  5  1  1  0  0  0
 10 15  1  0  0  0  0
 10  6  2  0  0  0  0
 12 16  1  0  0  0  0
 12 20  2  0  0  0  0
 13 16  1  0  0  0  0
 14 26  1  0  0  0  0
 15 19  2  0  0  0  0
 17 11  1  0  0  0  0
 18 24  1  0  0  0  0
 19 14  1  0  0  0  0
 19  3  1  0  0  0  0
 20 25  1  0  0  0  0
 21  6  1  0  0  0  0
 22  9  1  0  0  0  0
 22 28  1  1  0  0  0
 23 13  1  0  0  0  0
 24 17  1  0  0  0  0
 24 34  1  1  0  0  0
 25  1  1  1  0  0  0
 25 24  1  0  0  0  0
 26 22  1  0  0  0  0
 27 33  1  0  0  0  0
 28 27  2  0  0  0  0
 29 28  1  0  0  0  0
 29 32  2  0  0  0  0
 30 32  1  0  0  0  0
 31 33  2  0  0  0  0
 32 31  1  0  0  0  0
 34 35  1  0  0  0  0
 36 37  1  0  0  0  0
M  END
>  <MODEL>
9

>  <REMARK>
 VINA RESULT:      -6.8      4.118      8.062
  Name = 
  3 active torsions:
  status: ('A' for Active; 'I' for Inactive)
    1  A    between atoms: C_5  and  O_23
    2  A    between atoms: C_6  and  C_31
    3  A    between atoms: C_11  and  C_33
                            x       y       z     vdW  Elec       q    Type
                         _______ _______ _______ _____ _____    ______ ____

>  <TORSDO>
F 3

$$$$
