=
 OpenBabel10262421223D

 32 37  0  0  1  0  0  0  0  0999 V2000
  181.1540  179.6900  143.2080 C   0  0  0  0  0  2  0  0  0  0  0  0
  185.9910  178.1000  142.9530 C   0  0  2  0  0  3  0  0  0  0  0  0
  187.6110  177.9830  147.7120 C   0  0  0  0  0  2  0  0  0  0  0  0
  188.9640  178.2010  147.0290 C   0  0  0  0  0  2  0  0  0  0  0  0
  188.1160  177.5870  141.6280 C   0  0  0  0  0  0  0  0  0  0  0  0
  187.9300  178.4130  140.5070 C   0  0  0  0  0  0  0  0  0  0  0  0
  183.6560  178.6720  142.3170 C   0  0  2  0  0  3  0  0  0  0  0  0
  184.4960  178.8400  144.7040 O   0  0  0  0  0  0  0  0  0  0  0  0
  190.3890  177.1120  140.9710 C   0  0  0  0  0  0  0  0  0  0  0  0
  182.2780  179.4960  144.1940 C   0  0  0  0  0  3  0  0  0  0  0  0
  186.4310  178.3060  146.7790 C   0  0  0  0  0  2  0  0  0  0  0  0
  185.5700  177.9480  144.4110 C   0  0  2  0  0  3  0  0  0  0  0  0
  186.7890  178.1700  145.2920 C   0  0  2  0  0  3  0  0  0  0  0  0
  187.8570  176.4420  143.6520 C   0  0  2  0  0  3  0  0  0  0  0  0
  190.2210  177.9220  139.8390 C   0  0  0  0  0  3  0  0  0  0  0  0
  183.4520  179.0100  143.7870 C   0  0  0  0  0  0  0  0  0  0  0  0
  188.9970  178.5720  139.6090 C   0  0  0  0  0  3  0  0  0  0  0  0
  182.3810  178.1650  141.7030 C   0  0  0  0  0  3  0  0  0  0  0  0
  181.2010  178.6420  142.1140 C   0  0  0  0  0  0  0  0  0  0  0  0
  189.1250  177.3090  145.7880 C   0  0  0  0  0  2  0  0  0  0  0  0
  187.7830  177.0150  145.0940 C   0  0  1  0  0  3  0  0  0  0  0  0
  189.2890  176.1970  143.1240 C   0  0  0  0  0  2  0  0  0  0  0  0
  184.8030  177.6840  142.0950 C   0  0  0  0  0  2  0  0  0  0  0  0
  186.7290  179.0690  140.2740 O   0  0  0  0  0  1  0  0  0  0  0  0
  191.5730  176.4950  141.2040 F   0  0  0  0  0  0  0  0  0  0  0  0
  187.1870  177.3050  142.6640 N   0  0  0  0  0  0  0  0  0  0  0  0
  189.3150  176.9630  141.8510 C   0  0  0  0  0  0  0  0  0  0  0  0
  180.0320  178.1720  141.5070 O   0  0  0  0  0  0  0  0  0  0  0  0
  179.9900  177.7250  140.1570 C   0  0  0  0  0  2  0  0  0  0  0  0
  179.5090  176.2850  140.0880 C   0  0  2  0  0  3  0  0  0  0  0  0
  178.9480  175.9160  141.3100 O   0  0  0  0  0  1  0  0  0  0  0  0
  180.6800  175.3790  139.7780 C   0  0  0  0  0  1  0  0  0  0  0  0
  1 10  1  0  0  0  0
  2 23  1  6  0  0  0
  2 12  1  0  0  0  0
  4  3  1  0  0  0  0
  5 27  1  0  0  0  0
  5 26  1  0  0  0  0
  6  5  2  0  0  0  0
  7 18  1  1  0  0  0
  7 16  1  0  0  0  0
  9 25  1  0  0  0  0
  9 27  2  0  0  0  0
 11  3  1  0  0  0  0
 12  8  1  1  0  0  0
 12 13  1  0  0  0  0
 13 11  1  1  0  0  0
 14 22  1  6  0  0  0
 14 21  1  0  0  0  0
 15  9  1  0  0  0  0
 16 10  2  0  0  0  0
 16  8  1  0  0  0  0
 17 15  2  0  0  0  0
 17  6  1  0  0  0  0
 18 19  2  0  0  0  0
 19  1  1  0  0  0  0
 20  4  1  0  0  0  0
 21 13  1  0  0  0  0
 21 20  1  6  0  0  0
 23  7  1  0  0  0  0
 24  6  1  0  0  0  0
 26  2  1  0  0  0  0
 26 14  1  0  0  0  0
 27 22  1  0  0  0  0
 28 19  1  0  0  0  0
 29 28  1  0  0  0  0
 30 32  1  1  0  0  0
 30 29  1  0  0  0  0
 30 31  1  0  0  0  0
M  END
>  <MODEL>
1

>  <REMARK>
 VINA RESULT:      -9.4      0.000      0.000
  Name = 
  3 active torsions:
  status: ('A' for Active; 'I' for Inactive)
    1  A    between atoms: C_1  and  C_10
    2  A    between atoms: C_10  and  O_19
    3  A    between atoms: O_19  and  C_24
                            x       y       z     vdW  Elec       q    Type
                         _______ _______ _______ _____ _____    ______ ____

>  <TORSDO>
F 3

$$$$
=
 OpenBabel10262421223D

 32 37  0  0  1  0  0  0  0  0999 V2000
  189.4330  178.2600  136.6940 C   0  0  0  0  0  2  0  0  0  0  0  0
  188.6800  177.7240  141.7060 C   0  0  2  0  0  3  0  0  0  0  0  0
  183.9970  179.3560  142.5360 C   0  0  0  0  0  2  0  0  0  0  0  0
  184.5740  179.6440  143.9250 C   0  0  0  0  0  2  0  0  0  0  0  0
  189.5520  177.3040  144.0730 C   0  0  0  0  0  0  0  0  0  0  0  0
  190.8910  177.7060  143.9330 C   0  0  0  0  0  0  0  0  0  0  0  0
  189.6960  177.5770  139.4420 C   0  0  2  0  0  3  0  0  0  0  0  0
  187.4180  178.6130  139.8460 O   0  0  0  0  0  0  0  0  0  0  0  0
  189.7910  177.1470  146.4690 C   0  0  0  0  0  0  0  0  0  0  0  0
  188.3300  178.6060  137.6600 C   0  0  0  0  0  3  0  0  0  0  0  0
  185.0980  179.1330  141.4840 C   0  0  0  0  0  2  0  0  0  0  0  0
  187.3010  177.9220  141.0890 C   0  0  2  0  0  3  0  0  0  0  0  0
  186.4200  178.6450  142.0940 C   0  0  2  0  0  3  0  0  0  0  0  0
  187.3050  176.7770  143.6890 C   0  0  2  0  0  3  0  0  0  0  0  0
  191.1340  177.5350  146.3510 C   0  0  0  0  0  3  0  0  0  0  0  0
  188.4400  178.2810  138.9500 C   0  0  0  0  0  0  0  0  0  0  0  0
  191.6810  177.8150  145.0870 C   0  0  0  0  0  3  0  0  0  0  0  0
  190.2400  176.6550  138.3860 C   0  0  0  0  0  3  0  0  0  0  0  0
  190.1250  176.9720  137.0920 C   0  0  0  0  0  0  0  0  0  0  0  0
  185.4430  178.4810  144.4320 C   0  0  0  0  0  2  0  0  0  0  0  0
  186.1360  177.7190  143.2890 C   0  0  1  0  0  3  0  0  0  0  0  0
  187.5800  176.6950  145.2080 C   0  0  0  0  0  2  0  0  0  0  0  0
  189.4750  176.8330  140.7600 C   0  0  0  0  0  2  0  0  0  0  0  0
  191.4400  177.9950  142.6910 O   0  0  0  0  0  1  0  0  0  0  0  0
  189.2560  176.8910  147.6870 F   0  0  0  0  0  0  0  0  0  0  0  0
  188.5780  177.1500  143.0510 N   0  0  0  0  0  0  0  0  0  0  0  0
  189.0220  177.0410  145.3090 C   0  0  0  0  0  0  0  0  0  0  0  0
  190.6630  176.1080  136.1330 O   0  0  0  0  0  0  0  0  0  0  0  0
  189.9410  175.0050  135.5970 C   0  0  0  0  0  2  0  0  0  0  0  0
  190.4740  173.6970  136.1570 C   0  0  2  0  0  3  0  0  0  0  0  0
  189.7960  173.3770  137.3340 O   0  0  0  0  0  1  0  0  0  0  0  0
  191.9510  173.8420  136.4520 C   0  0  0  0  0  1  0  0  0  0  0  0
  1 19  1  0  0  0  0
  1 10  1  0  0  0  0
  2 23  1  6  0  0  0
  2 26  1  0  0  0  0
  3  4  1  0  0  0  0
  4 20  1  0  0  0  0
  5 27  1  0  0  0  0
  6  5  2  0  0  0  0
  6 17  1  0  0  0  0
  7 18  1  6  0  0  0
  7 23  1  0  0  0  0
  9 25  1  0  0  0  0
 10 16  2  0  0  0  0
 11  3  1  0  0  0  0
 12  8  1  6  0  0  0
 12  2  1  0  0  0  0
 12 13  1  0  0  0  0
 13 11  1  6  0  0  0
 13 21  1  0  0  0  0
 14 22  1  1  0  0  0
 15  9  1  0  0  0  0
 16  7  1  0  0  0  0
 16  8  1  0  0  0  0
 17 15  2  0  0  0  0
 19 18  2  0  0  0  0
 21 14  1  0  0  0  0
 21 20  1  1  0  0  0
 22 27  1  0  0  0  0
 24  6  1  0  0  0  0
 26 14  1  0  0  0  0
 26  5  1  0  0  0  0
 27  9  2  0  0  0  0
 28 19  1  0  0  0  0
 29 28  1  0  0  0  0
 29 30  1  0  0  0  0
 30 32  1  1  0  0  0
 30 31  1  0  0  0  0
M  END
>  <MODEL>
2

>  <REMARK>
 VINA RESULT:      -9.2      3.420      7.122
  Name = 
  3 active torsions:
  status: ('A' for Active; 'I' for Inactive)
    1  A    between atoms: C_1  and  C_10
    2  A    between atoms: C_10  and  O_19
    3  A    between atoms: O_19  and  C_24
                            x       y       z     vdW  Elec       q    Type
                         _______ _______ _______ _____ _____    ______ ____

>  <TORSDO>
F 3

$$$$
=
 OpenBabel10262421223D

 32 37  0  0  1  0  0  0  0  0999 V2000
  190.9530  178.6510  144.4360 C   0  0  0  0  0  2  0  0  0  0  0  0
  189.6040  177.1030  139.7710 C   0  0  2  0  0  3  0  0  0  0  0  0
  193.9090  175.9090  137.4610 C   0  0  0  0  0  2  0  0  0  0  0  0
  193.0870  176.2580  136.2180 C   0  0  0  0  0  2  0  0  0  0  0  0
  187.8820  176.8730  137.8940 C   0  0  0  0  0  0  0  0  0  0  0  0
  187.0120  177.9310  138.2080 C   0  0  0  0  0  0  0  0  0  0  0  0
  189.4810  177.8290  142.1460 C   0  0  2  0  0  3  0  0  0  0  0  0
  191.6850  177.4510  140.9500 O   0  0  0  0  0  0  0  0  0  0  0  0
  186.7900  176.5300  135.7700 C   0  0  0  0  0  0  0  0  0  0  0  0
  191.6840  178.2290  143.1880 C   0  0  0  0  0  3  0  0  0  0  0  0
  193.2650  176.4460  138.7520 C   0  0  0  0  0  2  0  0  0  0  0  0
  191.0400  176.6350  139.9740 C   0  0  2  0  0  3  0  0  0  0  0  0
  191.7460  176.6400  138.6280 C   0  0  2  0  0  3  0  0  0  0  0  0
  189.6220  175.3090  137.8990 C   0  0  2  0  0  3  0  0  0  0  0  0
  185.9030  177.5740  136.0680 C   0  0  0  0  0  3  0  0  0  0  0  0
  191.0030  177.8330  142.1110 C   0  0  0  0  0  0  0  0  0  0  0  0
  186.0150  178.2730  137.2820 C   0  0  0  0  0  3  0  0  0  0  0  0
  188.9790  177.4860  143.5210 C   0  0  0  0  0  3  0  0  0  0  0  0
  189.6630  177.8730  144.6030 C   0  0  0  0  0  0  0  0  0  0  0  0
  191.6710  175.6640  136.2860 C   0  0  0  0  0  2  0  0  0  0  0  0
  191.1480  175.5470  137.7290 C   0  0  1  0  0  3  0  0  0  0  0  0
  188.8360  175.1710  136.5750 C   0  0  0  0  0  2  0  0  0  0  0  0
  188.8720  176.9020  141.0910 C   0  0  0  0  0  2  0  0  0  0  0  0
  187.1190  178.6350  139.3990 O   0  0  0  0  0  1  0  0  0  0  0  0
  186.6950  175.8640  134.5940 F   0  0  0  0  0  0  0  0  0  0  0  0
  188.9640  176.3780  138.6690 N   0  0  0  0  0  0  0  0  0  0  0  0
  187.7730  176.2010  136.7050 C   0  0  0  0  0  0  0  0  0  0  0  0
  189.1590  177.5630  145.8690 O   0  0  0  0  0  0  0  0  0  0  0  0
  187.7650  177.5020  146.1510 C   0  0  0  0  0  2  0  0  0  0  0  0
  187.5000  177.8680  147.6020 C   0  0  2  0  0  3  0  0  0  0  0  0
  186.6340  178.9600  147.6620 O   0  0  0  0  0  1  0  0  0  0  0  0
  188.8060  178.2250  148.2770 C   0  0  0  0  0  1  0  0  0  0  0  0
  1 19  1  0  0  0  0
  2 12  1  0  0  0  0
  2 23  1  1  0  0  0
  3 11  1  0  0  0  0
  4 20  1  0  0  0  0
  4  3  1  0  0  0  0
  5  6  1  0  0  0  0
  5 26  1  0  0  0  0
  6 24  1  0  0  0  0
  7 23  1  6  0  0  0
  7 18  1  0  0  0  0
  8 16  1  0  0  0  0
  9 15  2  0  0  0  0
  9 27  1  0  0  0  0
 10  1  1  0  0  0  0
 12  8  1  1  0  0  0
 13 11  1  1  0  0  0
 13 12  1  0  0  0  0
 14 22  1  6  0  0  0
 14 26  1  0  0  0  0
 15 17  1  0  0  0  0
 16  7  1  0  0  0  0
 16 10  2  0  0  0  0
 17  6  2  0  0  0  0
 18 19  2  0  0  0  0
 19 28  1  0  0  0  0
 21 20  1  6  0  0  0
 21 14  1  0  0  0  0
 21 13  1  0  0  0  0
 22 27  1  0  0  0  0
 25  9  1  0  0  0  0
 26  2  1  0  0  0  0
 27  5  2  0  0  0  0
 28 29  1  0  0  0  0
 29 30  1  0  0  0  0
 30 31  1  0  0  0  0
 30 32  1  6  0  0  0
M  END
>  <MODEL>
3

>  <REMARK>
 VINA RESULT:      -8.2      4.565      8.097
  Name = 
  3 active torsions:
  status: ('A' for Active; 'I' for Inactive)
    1  A    between atoms: C_1  and  C_10
    2  A    between atoms: C_10  and  O_19
    3  A    between atoms: O_19  and  C_24
                            x       y       z     vdW  Elec       q    Type
                         _______ _______ _______ _____ _____    ______ ____

>  <TORSDO>
F 3

$$$$
=
 OpenBabel10262421223D

 32 37  0  0  1  0  0  0  0  0999 V2000
  190.8250  177.6220  137.8470 C   0  0  0  0  0  2  0  0  0  0  0  0
  188.9490  177.4280  142.5820 C   0  0  2  0  0  3  0  0  0  0  0  0
  184.3660  179.4760  142.2890 C   0  0  0  0  0  2  0  0  0  0  0  0
  184.6490  179.7930  143.7600 C   0  0  0  0  0  2  0  0  0  0  0  0
  189.2410  177.0720  145.0980 C   0  0  0  0  0  0  0  0  0  0  0  0
  190.6080  177.3560  145.2440 C   0  0  0  0  0  0  0  0  0  0  0  0
  190.4180  177.0750  140.6080 C   0  0  2  0  0  3  0  0  0  0  0  0
  188.2100  178.3110  140.4570 O   0  0  0  0  0  0  0  0  0  0  0  0
  188.9350  177.0300  147.4900 C   0  0  0  0  0  0  0  0  0  0  0  0
  189.5730  178.1090  138.5300 C   0  0  0  0  0  3  0  0  0  0  0  0
  185.6450  179.1070  141.5170 C   0  0  0  0  0  2  0  0  0  0  0  0
  187.7620  177.7020  141.6660 C   0  0  2  0  0  3  0  0  0  0  0  0
  186.7520  178.5490  142.4230 C   0  0  2  0  0  3  0  0  0  0  0  0
  187.0940  176.7070  144.2420 C   0  0  2  0  0  3  0  0  0  0  0  0
  190.3010  177.3010  147.6600 C   0  0  0  0  0  3  0  0  0  0  0  0
  189.3690  177.8490  139.8230 C   0  0  0  0  0  0  0  0  0  0  0  0
  191.1340  177.4650  146.5410 C   0  0  0  0  0  3  0  0  0  0  0  0
  191.0940  176.0540  139.7340 C   0  0  0  0  0  3  0  0  0  0  0  0
  191.2930  176.3060  138.4360 C   0  0  0  0  0  0  0  0  0  0  0  0
  185.2770  178.5940  144.4890 C   0  0  0  0  0  2  0  0  0  0  0  0
  186.1310  177.7170  143.5580 C   0  0  1  0  0  3  0  0  0  0  0  0
  187.0210  176.6880  145.7870 C   0  0  0  0  0  2  0  0  0  0  0  0
  189.8470  176.4250  141.8700 C   0  0  0  0  0  2  0  0  0  0  0  0
  191.4400  177.5300  144.1460 O   0  0  0  0  0  1  0  0  0  0  0  0
  188.1250  176.8860  148.5680 F   0  0  0  0  0  0  0  0  0  0  0  0
  188.5040  176.9400  143.8900 N   0  0  0  0  0  0  0  0  0  0  0  0
  188.4320  176.9210  146.1930 C   0  0  0  0  0  0  0  0  0  0  0  0
  191.9470  175.3500  137.6530 O   0  0  0  0  0  0  0  0  0  0  0  0
  193.2320  175.5690  137.0820 C   0  0  0  0  0  2  0  0  0  0  0  0
  193.8130  174.2640  136.5640 C   0  0  2  0  0  3  0  0  0  0  0  0
  195.2060  174.3190  136.6010 O   0  0  0  0  0  1  0  0  0  0  0  0
  193.3570  174.0420  135.1380 C   0  0  0  0  0  1  0  0  0  0  0  0
  1 19  1  0  0  0  0
  1 10  1  0  0  0  0
  2 23  1  6  0  0  0
  2 26  1  0  0  0  0
  3  4  1  0  0  0  0
  4 20  1  0  0  0  0
  5  6  2  0  0  0  0
  5 27  1  0  0  0  0
  6 17  1  0  0  0  0
  7 18  1  6  0  0  0
  7 23  1  0  0  0  0
  9 15  1  0  0  0  0
  9 25  1  0  0  0  0
 10 16  2  0  0  0  0
 11  3  1  0  0  0  0
 12  8  1  6  0  0  0
 12 13  1  0  0  0  0
 12  2  1  0  0  0  0
 13 11  1  6  0  0  0
 13 21  1  0  0  0  0
 14 22  1  1  0  0  0
 16  8  1  0  0  0  0
 16  7  1  0  0  0  0
 17 15  2  0  0  0  0
 19 18  2  0  0  0  0
 21 14  1  0  0  0  0
 21 20  1  1  0  0  0
 22 27  1  0  0  0  0
 24  6  1  0  0  0  0
 26 14  1  0  0  0  0
 26  5  1  0  0  0  0
 27  9  2  0  0  0  0
 28 19  1  0  0  0  0
 29 28  1  0  0  0  0
 30 32  1  6  0  0  0
 30 31  1  0  0  0  0
 30 29  1  0  0  0  0
M  END
>  <MODEL>
4

>  <REMARK>
 VINA RESULT:      -7.6      3.655      8.165
  Name = 
  3 active torsions:
  status: ('A' for Active; 'I' for Inactive)
    1  A    between atoms: C_1  and  C_10
    2  A    between atoms: C_10  and  O_19
    3  A    between atoms: O_19  and  C_24
                            x       y       z     vdW  Elec       q    Type
                         _______ _______ _______ _____ _____    ______ ____

>  <TORSDO>
F 3

$$$$
=
 OpenBabel10262421223D

 32 37  0  0  1  0  0  0  0  0999 V2000
  181.6160  178.8290  137.2960 C   0  0  0  0  0  2  0  0  0  0  0  0
  185.9930  178.1660  139.8230 C   0  0  2  0  0  3  0  0  0  0  0  0
  189.1590  176.1160  136.4970 C   0  0  0  0  0  2  0  0  0  0  0  0
  189.7940  175.5540  137.7720 C   0  0  0  0  0  2  0  0  0  0  0  0
  187.3390  178.0870  141.9950 C   0  0  0  0  0  0  0  0  0  0  0  0
  186.3220  177.8070  142.9220 C   0  0  0  0  0  0  0  0  0  0  0  0
  183.6830  178.8830  139.2490 C   0  0  2  0  0  3  0  0  0  0  0  0
  185.1720  177.6510  137.6080 O   0  0  0  0  0  0  0  0  0  0  0  0
  189.0410  177.7090  143.6640 C   0  0  0  0  0  0  0  0  0  0  0  0
  182.9550  178.2080  136.9880 C   0  0  0  0  0  3  0  0  0  0  0  0
  187.7310  176.6360  136.7390 C   0  0  0  0  0  2  0  0  0  0  0  0
  186.3340  178.0330  138.3420 C   0  0  2  0  0  3  0  0  0  0  0  0
  187.4830  177.0500  138.1970 C   0  0  2  0  0  3  0  0  0  0  0  0
  188.5460  178.5550  140.0460 C   0  0  2  0  0  3  0  0  0  0  0  0
  188.0410  177.4380  144.6090 C   0  0  0  0  0  3  0  0  0  0  0  0
  183.9340  178.2370  137.8940 C   0  0  0  0  0  0  0  0  0  0  0  0
  186.6860  177.4850  144.2380 C   0  0  0  0  0  3  0  0  0  0  0  0
  182.7460  180.0520  139.1190 C   0  0  0  0  0  3  0  0  0  0  0  0
  181.7680  180.0320  138.2060 C   0  0  0  0  0  0  0  0  0  0  0  0
  189.8920  176.6200  138.8750 C   0  0  0  0  0  2  0  0  0  0  0  0
  188.7610  177.6610  138.7940 C   0  0  1  0  0  3  0  0  0  0  0  0
  189.5450  178.3050  141.2000 C   0  0  0  0  0  2  0  0  0  0  0  0
  184.9780  179.2940  139.9530 C   0  0  0  0  0  2  0  0  0  0  0  0
  184.9800  177.8410  142.5670 O   0  0  0  0  0  1  0  0  0  0  0  0
  190.3490  177.6490  144.0130 F   0  0  0  0  0  0  0  0  0  0  0  0
  187.1980  178.4120  140.6200 N   0  0  0  0  0  0  0  0  0  0  0  0
  188.6590  178.0310  142.3610 C   0  0  0  0  0  0  0  0  0  0  0  0
  180.8950  181.1210  138.1240 O   0  0  0  0  0  0  0  0  0  0  0  0
  181.3460  182.4580  137.9440 C   0  0  0  0  0  2  0  0  0  0  0  0
  180.5870  183.1270  136.8100 C   0  0  2  0  0  3  0  0  0  0  0  0
  180.6170  182.3130  135.6780 O   0  0  0  0  0  1  0  0  0  0  0  0
  181.2330  184.4570  136.4890 C   0  0  0  0  0  1  0  0  0  0  0  0
  1 19  1  0  0  0  0
  2 23  1  6  0  0  0
  2 26  1  0  0  0  0
  3 11  1  0  0  0  0
  3  4  1  0  0  0  0
  4 20  1  0  0  0  0
  5 27  2  0  0  0  0
  5  6  1  0  0  0  0
  6 17  2  0  0  0  0
  7 18  1  6  0  0  0
  7 23  1  0  0  0  0
  8 16  1  0  0  0  0
  9 25  1  0  0  0  0
  9 15  2  0  0  0  0
 10  1  1  0  0  0  0
 10 16  2  0  0  0  0
 12  8  1  6  0  0  0
 12  2  1  0  0  0  0
 13 11  1  6  0  0  0
 13 12  1  0  0  0  0
 13 21  1  0  0  0  0
 14 26  1  0  0  0  0
 14 22  1  1  0  0  0
 16  7  1  0  0  0  0
 17 15  1  0  0  0  0
 19 18  2  0  0  0  0
 21 20  1  1  0  0  0
 21 14  1  0  0  0  0
 22 27  1  0  0  0  0
 24  6  1  0  0  0  0
 26  5  1  0  0  0  0
 27  9  1  0  0  0  0
 28 19  1  0  0  0  0
 29 28  1  0  0  0  0
 30 32  1  6  0  0  0
 30 29  1  0  0  0  0
 31 30  1  0  0  0  0
M  END
>  <MODEL>
5

>  <REMARK>
 VINA RESULT:      -7.1      3.506      5.991
  Name = 
  3 active torsions:
  status: ('A' for Active; 'I' for Inactive)
    1  A    between atoms: C_1  and  C_10
    2  A    between atoms: C_10  and  O_19
    3  A    between atoms: O_19  and  C_24
                            x       y       z     vdW  Elec       q    Type
                         _______ _______ _______ _____ _____    ______ ____

>  <TORSDO>
F 3

$$$$
=
 OpenBabel10262421223D

 32 37  0  0  1  0  0  0  0  0999 V2000
  187.9140  177.3930  143.8650 C   0  0  0  0  0  2  0  0  0  0  0  0
  184.0590  178.4140  140.6910 C   0  0  2  0  0  3  0  0  0  0  0  0
  180.0420  179.0870  143.6400 C   0  0  0  0  0  2  0  0  0  0  0  0
  179.3070  178.6280  142.3770 C   0  0  0  0  0  2  0  0  0  0  0  0
  183.0470  178.4950  138.3440 C   0  0  0  0  0  0  0  0  0  0  0  0
  183.8310  177.5320  137.6880 C   0  0  0  0  0  0  0  0  0  0  0  0
  186.3470  177.9970  141.5700 C   0  0  2  0  0  3  0  0  0  0  0  0
  184.3100  178.1090  143.0760 O   0  0  0  0  0  0  0  0  0  0  0  0
  181.5380  178.6260  136.4660 C   0  0  0  0  0  0  0  0  0  0  0  0
  186.4310  177.6170  144.0090 C   0  0  0  0  0  3  0  0  0  0  0  0
  181.5430  178.7490  143.5930 C   0  0  0  0  0  2  0  0  0  0  0  0
  183.5860  178.8290  142.0790 C   0  0  2  0  0  3  0  0  0  0  0  0
  182.0840  178.6190  142.1620 C   0  0  2  0  0  3  0  0  0  0  0  0
  182.1230  179.9560  139.9200 C   0  0  2  0  0  3  0  0  0  0  0  0
  182.3130  177.6740  135.7880 C   0  0  0  0  0  3  0  0  0  0  0  0
  185.6890  177.9110  142.9390 C   0  0  0  0  0  0  0  0  0  0  0  0
  183.4550  177.1280  136.3980 C   0  0  0  0  0  3  0  0  0  0  0  0
  187.7470  178.5340  141.6830 C   0  0  0  0  0  3  0  0  0  0  0  0
  188.4920  178.2510  142.7560 C   0  0  0  0  0  0  0  0  0  0  0  0
  179.8730  179.2980  141.1150 C   0  0  0  0  0  2  0  0  0  0  0  0
  181.3720  179.6210  141.2390 C   0  0  1  0  0  3  0  0  0  0  0  0
  181.2360  179.9680  138.6540 C   0  0  0  0  0  2  0  0  0  0  0  0
  185.5240  178.8150  140.5720 C   0  0  0  0  0  2  0  0  0  0  0  0
  184.9560  176.9770  138.2840 O   0  0  0  0  0  1  0  0  0  0  0  0
  180.4280  179.1450  135.8870 F   0  0  0  0  0  0  0  0  0  0  0  0
  183.2320  179.0270  139.6470 N   0  0  0  0  0  0  0  0  0  0  0  0
  181.9300  179.0180  137.7460 C   0  0  0  0  0  0  0  0  0  0  0  0
  189.7990  178.7420  142.8230 O   0  0  0  0  0  0  0  0  0  0  0  0
  190.5340  178.8170  144.0390 C   0  0  0  0  0  2  0  0  0  0  0  0
  191.6680  177.8050  144.0390 C   0  0  2  0  0  3  0  0  0  0  0  0
  191.7560  177.1960  142.7880 O   0  0  0  0  0  1  0  0  0  0  0  0
  191.4020  176.7530  145.0930 C   0  0  0  0  0  1  0  0  0  0  0  0
  1 10  1  0  0  0  0
  2 23  1  6  0  0  0
  2 12  1  0  0  0  0
  4  3  1  0  0  0  0
  5 26  1  0  0  0  0
  6 24  1  0  0  0  0
  6  5  2  0  0  0  0
  7 23  1  6  0  0  0
  7 18  1  0  0  0  0
  7 16  1  0  0  0  0
  9 27  2  0  0  0  0
 11  3  1  0  0  0  0
 12 13  1  0  0  0  0
 12  8  1  1  0  0  0
 13 11  1  1  0  0  0
 14 22  1  6  0  0  0
 14 21  1  0  0  0  0
 15 17  2  0  0  0  0
 15  9  1  0  0  0  0
 16  8  1  0  0  0  0
 16 10  2  0  0  0  0
 17  6  1  0  0  0  0
 18 19  2  0  0  0  0
 19 28  1  0  0  0  0
 19  1  1  0  0  0  0
 20  4  1  0  0  0  0
 21 20  1  6  0  0  0
 21 13  1  0  0  0  0
 25  9  1  0  0  0  0
 26 14  1  0  0  0  0
 26  2  1  0  0  0  0
 27  5  1  0  0  0  0
 27 22  1  0  0  0  0
 28 29  1  0  0  0  0
 29 30  1  0  0  0  0
 30 32  1  1  0  0  0
 31 30  1  0  0  0  0
M  END
>  <MODEL>
6

>  <REMARK>
 VINA RESULT:      -7.0      3.629      8.002
  Name = 
  3 active torsions:
  status: ('A' for Active; 'I' for Inactive)
    1  A    between atoms: C_1  and  C_10
    2  A    between atoms: C_10  and  O_19
    3  A    between atoms: O_19  and  C_24
                            x       y       z     vdW  Elec       q    Type
                         _______ _______ _______ _____ _____    ______ ____

>  <TORSDO>
F 3

$$$$
=
 OpenBabel10262421223D

 32 37  0  0  1  0  0  0  0  0999 V2000
  194.1260  175.0710  136.9990 C   0  0  0  0  0  2  0  0  0  0  0  0
  189.3050  176.5070  137.8190 C   0  0  2  0  0  3  0  0  0  0  0  0
  189.2070  178.2260  142.5440 C   0  0  0  0  0  2  0  0  0  0  0  0
  187.7400  177.7980  142.4400 C   0  0  0  0  0  2  0  0  0  0  0  0
  186.8350  176.5540  137.1570 C   0  0  0  0  0  0  0  0  0  0  0  0
  186.7560  175.3980  136.3640 C   0  0  0  0  0  0  0  0  0  0  0  0
  191.3810  175.7420  136.6850 C   0  0  2  0  0  3  0  0  0  0  0  0
  191.3290  176.3910  139.1350 O   0  0  0  0  0  0  0  0  0  0  0  0
  184.4340  176.7930  137.1510 C   0  0  0  0  0  0  0  0  0  0  0  0
  193.3430  175.5910  138.1770 C   0  0  0  0  0  3  0  0  0  0  0  0
  190.0740  177.6020  141.4360 C   0  0  0  0  0  2  0  0  0  0  0  0
  190.1310  177.1380  138.9340 C   0  0  2  0  0  3  0  0  0  0  0  0
  189.2680  177.2320  140.1820 C   0  0  2  0  0  3  0  0  0  0  0  0
  187.5790  178.3120  138.5110 C   0  0  2  0  0  3  0  0  0  0  0  0
  184.3320  175.6480  136.3470 C   0  0  0  0  0  3  0  0  0  0  0  0
  192.0560  175.9180  138.0370 C   0  0  0  0  0  0  0  0  0  0  0  0
  185.4890  174.9520  135.9570 C   0  0  0  0  0  3  0  0  0  0  0  0
  192.3490  176.0070  135.5650 C   0  0  0  0  0  3  0  0  0  0  0  0
  193.6410  175.6890  135.7040 C   0  0  0  0  0  0  0  0  0  0  0  0
  187.1180  178.2210  141.1000 C   0  0  0  0  0  2  0  0  0  0  0  0
  188.1470  178.2580  139.9560 C   0  0  1  0  0  3  0  0  0  0  0  0
  186.0360  178.3730  138.4230 C   0  0  0  0  0  2  0  0  0  0  0  0
  190.1240  176.6040  136.5390 C   0  0  0  0  0  2  0  0  0  0  0  0
  187.8900  174.6970  135.9790 O   0  0  0  0  0  1  0  0  0  0  0  0
  183.3200  177.4580  137.5420 F   0  0  0  0  0  0  0  0  0  0  0  0
  188.0010  177.1640  137.6920 N   0  0  0  0  0  0  0  0  0  0  0  0
  185.7030  177.2240  137.5420 C   0  0  0  0  0  0  0  0  0  0  0  0
  194.5140  175.9230  134.6370 O   0  0  0  0  0  0  0  0  0  0  0  0
  195.8360  175.3980  134.5940 C   0  0  0  0  0  2  0  0  0  0  0  0
  196.8520  176.4960  134.8580 C   0  0  2  0  0  3  0  0  0  0  0  0
  197.3840  176.3490  136.1390 O   0  0  0  0  0  1  0  0  0  0  0  0
  196.1750  177.8450  134.7480 C   0  0  0  0  0  1  0  0  0  0  0  0
  1 10  1  0  0  0  0
  2 23  1  6  0  0  0
  2 12  1  0  0  0  0
  4  3  1  0  0  0  0
  5 27  1  0  0  0  0
  5 26  1  0  0  0  0
  6  5  2  0  0  0  0
  7 18  1  6  0  0  0
  7 16  1  0  0  0  0
  9 27  2  0  0  0  0
  9 25  1  0  0  0  0
 11  3  1  0  0  0  0
 12  8  1  1  0  0  0
 12 13  1  0  0  0  0
 13 11  1  1  0  0  0
 14 22  1  1  0  0  0
 14 21  1  0  0  0  0
 15  9  1  0  0  0  0
 16 10  2  0  0  0  0
 16  8  1  0  0  0  0
 17 15  2  0  0  0  0
 17  6  1  0  0  0  0
 18 19  2  0  0  0  0
 19  1  1  0  0  0  0
 20  4  1  0  0  0  0
 21 13  1  0  0  0  0
 21 20  1  1  0  0  0
 23  7  1  0  0  0  0
 24  6  1  0  0  0  0
 26  2  1  0  0  0  0
 26 14  1  0  0  0  0
 27 22  1  0  0  0  0
 28 19  1  0  0  0  0
 29 28  1  0  0  0  0
 29 30  1  0  0  0  0
 30 32  1  1  0  0  0
 30 31  1  0  0  0  0
M  END
>  <MODEL>
7

>  <REMARK>
 VINA RESULT:      -6.9      5.393     10.210
  Name = 
  3 active torsions:
  status: ('A' for Active; 'I' for Inactive)
    1  A    between atoms: C_1  and  C_10
    2  A    between atoms: C_10  and  O_19
    3  A    between atoms: O_19  and  C_24
                            x       y       z     vdW  Elec       q    Type
                         _______ _______ _______ _____ _____    ______ ____

>  <TORSDO>
F 3

$$$$
