=
 OpenBabel10262419393D

 31 33  0  0  1  0  0  0  0  0999 V2000
  189.5100  176.9860  140.7680 C   0  0  0  0  0  0  0  0  0  0  0  0
  188.5790  177.5780  142.8480 C   0  0  0  0  0  0  0  0  0  0  0  0
  187.6650  178.3910  141.6930 S   0  0  0  0  0  0  0  0  0  0  0  0
  189.5750  176.8580  142.1730 C   0  0  0  0  0  0  0  0  0  0  0  0
  188.4860  177.8390  140.3300 C   0  0  0  0  0  0  0  0  0  0  0  0
  190.4660  176.2930  139.8400 C   0  0  1  0  0  3  0  0  0  0  0  0
  190.7320  174.9960  137.7440 C   0  0  0  0  0  2  0  0  0  0  0  0
  189.7820  175.8810  138.5390 C   0  0  0  0  0  2  0  0  0  0  0  0
  192.0100  175.6690  137.5300 N   0  0  0  0  0  2  0  0  0  0  0  0
  193.7530  176.9570  138.3770 O   0  0  0  0  0  0  0  0  0  0  0  0
  191.7000  177.1550  139.5750 C   0  0  0  0  0  2  0  0  0  0  0  0
  192.5600  176.5760  138.4920 C   0  0  0  0  0  0  0  0  0  0  0  0
  186.5780  178.2190  137.0640 C   0  0  0  0  0  3  0  0  0  0  0  0
  188.1310  178.2120  138.9390 C   0  0  0  0  0  0  0  0  0  0  0  0
  188.7280  179.3040  136.8460 C   0  0  0  0  0  3  0  0  0  0  0  0
  187.4960  178.9430  136.2990 C   0  0  0  0  0  3  0  0  0  0  0  0
  186.8950  177.8560  138.3760 C   0  0  0  0  0  3  0  0  0  0  0  0
  189.0440  178.9380  138.1580 C   0  0  0  0  0  3  0  0  0  0  0  0
  189.1020  177.9860  145.1810 C   0  0  0  0  0  2  0  0  0  0  0  0
  188.2360  177.5340  144.2830 C   0  0  0  0  0  0  0  0  0  0  0  0
  186.8430  177.2130  144.7410 C   0  0  0  0  0  2  0  0  0  0  0  0
  186.1100  178.1430  146.8470 O   0  0  0  0  0  1  0  0  0  0  0  0
  186.1510  178.3690  145.4690 C   0  0  2  0  0  3  0  0  0  0  0  0
  183.2630  178.7600  142.9010 C   0  0  0  0  0  0  0  0  0  0  0  0
  183.8940  179.0830  145.7150 O   0  0  0  0  0  0  0  0  0  0  0  0
  183.1370  178.5590  141.6660 O   0  0  0  0  0  0  0  0  0  0  0  0
  182.1880  179.2640  143.6250 O   0  0  0  0  0  1  0  0  0  0  0  0
  184.7830  178.6510  144.9330 C   0  0  0  0  0  0  0  0  0  0  0  0
  184.5100  178.4690  143.5380 N   0  0  0  0  0  2  0  0  0  0  0  0
  191.7610  176.6530  143.3240 C   0  0  0  0  0  1  0  0  0  0  0  0
  190.5740  176.0910  142.7850 O   0  0  0  0  0  0  0  0  0  0  0  0
  1  4  1  0  0  0  0
  2 20  1  0  0  0  0
  3  2  1  0  0  0  0
  4 31  1  0  0  0  0
  4  2  2  0  0  0  0
  5  1  2  0  0  0  0
  5  3  1  0  0  0  0
  6  1  1  1  0  0  0
  7  8  1  0  0  0  0
  8  6  1  0  0  0  0
  9  7  1  0  0  0  0
  9 12  1  0  0  0  0
 10 12  2  0  0  0  0
 11  6  1  0  0  0  0
 12 11  1  0  0  0  0
 13 17  1  0  0  0  0
 14  5  1  0  0  0  0
 15 18  2  0  0  0  0
 16 15  1  0  0  0  0
 16 13  2  0  0  0  0
 17 14  2  0  0  0  0
 18 14  1  0  0  0  0
 20 21  1  0  0  0  0
 20 19  2  0  0  0  0
 21 23  1  0  0  0  0
 23 22  1  1  0  0  0
 24 29  1  0  0  0  0
 24 27  1  0  0  0  0
 26 24  2  0  0  0  0
 28 23  1  0  0  0  0
 28 25  2  0  0  0  0
 29 28  1  0  0  0  0
 31 30  1  0  0  0  0
M  END
>  <MODEL>
1

>  <REMARK>
 VINA RESULT:      -8.1      0.000      0.000
  Name = 
  7 active torsions:
  status: ('A' for Active; 'I' for Inactive)
    1  A    between atoms: C_4  and  C_5
    2  A    between atoms: C_9  and  C_15
    3  A    between atoms: C_9  and  C_23
    4  A    between atoms: C_12  and  C_27
    5  A    between atoms: C_19  and  C_22
    6  A    between atoms: C_21  and  O_29
    7  A    between atoms: C_22  and  C_23
                            x       y       z     vdW  Elec       q    Type
                         _______ _______ _______ _____ _____    ______ ____

>  <TORSDO>
F 7

$$$$
=
 OpenBabel10262419393D

 31 33  0  0  1  0  0  0  0  0999 V2000
  185.2650  178.5780  140.5300 C   0  0  0  0  0  0  0  0  0  0  0  0
  187.5000  178.3970  139.8090 C   0  0  0  0  0  0  0  0  0  0  0  0
  187.5670  178.4390  141.4880 S   0  0  0  0  0  0  0  0  0  0  0  0
  186.1530  178.5030  139.4340 C   0  0  0  0  0  0  0  0  0  0  0  0
  185.9130  178.5690  141.7750 C   0  0  0  0  0  0  0  0  0  0  0  0
  183.7770  178.6820  140.3710 C   0  0  1  0  0  3  0  0  0  0  0  0
  181.8950  179.8870  139.2940 C   0  0  0  0  0  2  0  0  0  0  0  0
  183.4010  179.6570  139.2580 C   0  0  0  0  0  2  0  0  0  0  0  0
  181.1760  178.6190  139.2110 N   0  0  0  0  0  2  0  0  0  0  0  0
  180.9570  176.4010  139.8800 O   0  0  0  0  0  0  0  0  0  0  0  0
  183.1480  177.3060  140.1460 C   0  0  0  0  0  2  0  0  0  0  0  0
  181.6990  177.4110  139.7750 C   0  0  0  0  0  0  0  0  0  0  0  0
  183.4460  179.1740  144.6050 C   0  0  0  0  0  3  0  0  0  0  0  0
  185.3070  178.6420  143.1280 C   0  0  0  0  0  0  0  0  0  0  0  0
  185.4970  178.2870  145.5290 C   0  0  0  0  0  3  0  0  0  0  0  0
  184.1960  178.7600  145.7080 C   0  0  0  0  0  3  0  0  0  0  0  0
  184.0000  179.1150  143.3230 C   0  0  0  0  0  3  0  0  0  0  0  0
  186.0500  178.2300  144.2460 C   0  0  0  0  0  3  0  0  0  0  0  0
  189.0540  179.0240  138.0550 C   0  0  0  0  0  2  0  0  0  0  0  0
  188.6660  178.1210  138.9470 C   0  0  0  0  0  0  0  0  0  0  0  0
  189.5710  176.9530  139.2130 C   0  0  0  0  0  2  0  0  0  0  0  0
  191.9760  176.7320  139.2840 O   0  0  0  0  0  1  0  0  0  0  0  0
  190.8810  177.3330  139.9100 C   0  0  2  0  0  3  0  0  0  0  0  0
  191.5130  177.7490  143.7200 C   0  0  0  0  0  0  0  0  0  0  0  0
  190.3960  175.9210  141.7620 O   0  0  0  0  0  0  0  0  0  0  0  0
  192.0180  178.6430  144.4450 O   0  0  0  0  0  1  0  0  0  0  0  0
  191.0580  176.5720  144.3030 O   0  0  0  0  0  0  0  0  0  0  0  0
  190.8660  177.0240  141.3740 C   0  0  0  0  0  0  0  0  0  0  0  0
  191.4180  177.9580  142.3080 N   0  0  0  0  0  2  0  0  0  0  0  0
  185.5700  177.4140  137.2850 C   0  0  0  0  0  1  0  0  0  0  0  0
  185.6820  178.5590  138.1170 O   0  0  0  0  0  0  0  0  0  0  0  0
  1  5  2  0  0  0  0
  2  3  1  0  0  0  0
  3  5  1  0  0  0  0
  4  2  2  0  0  0  0
  4  1  1  0  0  0  0
  5 14  1  0  0  0  0
  6  1  1  6  0  0  0
  8  7  1  0  0  0  0
  8  6  1  0  0  0  0
  9  7  1  0  0  0  0
  9 12  1  0  0  0  0
 11  6  1  0  0  0  0
 12 10  2  0  0  0  0
 12 11  1  0  0  0  0
 13 16  1  0  0  0  0
 14 17  1  0  0  0  0
 14 18  2  0  0  0  0
 15 16  2  0  0  0  0
 17 13  2  0  0  0  0
 18 15  1  0  0  0  0
 19 20  2  0  0  0  0
 20 21  1  0  0  0  0
 20  2  1  0  0  0  0
 21 23  1  0  0  0  0
 23 22  1  6  0  0  0
 23 28  1  0  0  0  0
 24 27  2  0  0  0  0
 24 26  1  0  0  0  0
 28 25  2  0  0  0  0
 28 29  1  0  0  0  0
 29 24  1  0  0  0  0
 30 31  1  0  0  0  0
 31  4  1  0  0  0  0
M  END
>  <MODEL>
2

>  <REMARK>
 VINA RESULT:      -8.1      2.803      7.890
  Name = 
  7 active torsions:
  status: ('A' for Active; 'I' for Inactive)
    1  A    between atoms: C_4  and  C_5
    2  A    between atoms: C_9  and  C_15
    3  A    between atoms: C_9  and  C_23
    4  A    between atoms: C_12  and  C_27
    5  A    between atoms: C_19  and  C_22
    6  A    between atoms: C_21  and  O_29
    7  A    between atoms: C_22  and  C_23
                            x       y       z     vdW  Elec       q    Type
                         _______ _______ _______ _____ _____    ______ ____

>  <TORSDO>
F 7

$$$$
=
 OpenBabel10262419393D

 31 33  0  0  1  0  0  0  0  0999 V2000
  189.3040  177.6170  140.0620 C   0  0  0  0  0  0  0  0  0  0  0  0
  189.8530  177.4800  142.3480 C   0  0  0  0  0  0  0  0  0  0  0  0
  191.0270  176.5840  141.5450 S   0  0  0  0  0  0  0  0  0  0  0  0
  188.9590  177.9710  141.3850 C   0  0  0  0  0  0  0  0  0  0  0  0
  190.4510  176.8130  139.9790 C   0  0  0  0  0  0  0  0  0  0  0  0
  188.5010  178.0430  138.8670 C   0  0  1  0  0  3  0  0  0  0  0  0
  188.4990  179.2720  136.7140 C   0  0  0  0  0  2  0  0  0  0  0  0
  189.3880  178.6640  137.7910 C   0  0  0  0  0  2  0  0  0  0  0  0
  187.5700  178.2760  136.1860 N   0  0  0  0  0  2  0  0  0  0  0  0
  186.0800  176.5330  136.5770 O   0  0  0  0  0  0  0  0  0  0  0  0
  187.6780  176.8800  138.3130 C   0  0  0  0  0  2  0  0  0  0  0  0
  187.0390  177.2260  137.0020 C   0  0  0  0  0  0  0  0  0  0  0  0
  191.1110  174.7110  136.8810 C   0  0  0  0  0  3  0  0  0  0  0  0
  191.0950  176.2510  138.7660 C   0  0  0  0  0  0  0  0  0  0  0  0
  192.9590  176.2370  137.2010 C   0  0  0  0  0  3  0  0  0  0  0  0
  192.3470  175.2170  136.4710 C   0  0  0  0  0  3  0  0  0  0  0  0
  190.4900  175.2260  138.0220 C   0  0  0  0  0  3  0  0  0  0  0  0
  192.3370  176.7500  138.3430 C   0  0  0  0  0  3  0  0  0  0  0  0
  190.4860  178.9230  144.1920 C   0  0  0  0  0  2  0  0  0  0  0  0
  189.9060  177.8000  143.7880 C   0  0  0  0  0  0  0  0  0  0  0  0
  189.1140  177.0110  144.7900 C   0  0  0  0  0  2  0  0  0  0  0  0
  189.6970  176.9040  147.1330 O   0  0  0  0  0  1  0  0  0  0  0  0
  189.0330  177.6690  146.1710 C   0  0  2  0  0  3  0  0  0  0  0  0
  185.2790  178.6240  145.8920 C   0  0  0  0  0  0  0  0  0  0  0  0
  187.3390  177.9410  147.8180 O   0  0  0  0  0  0  0  0  0  0  0  0
  184.4960  178.8880  144.9440 O   0  0  0  0  0  0  0  0  0  0  0  0
  184.8100  178.6750  147.2000 O   0  0  0  0  0  1  0  0  0  0  0  0
  187.6260  177.9540  146.5920 C   0  0  0  0  0  0  0  0  0  0  0  0
  186.6370  178.2770  145.6080 N   0  0  0  0  0  2  0  0  0  0  0  0
  186.6020  178.1470  142.1340 C   0  0  0  0  0  1  0  0  0  0  0  0
  187.8090  178.7220  141.6580 O   0  0  0  0  0  0  0  0  0  0  0  0
  1  4  1  0  0  0  0
  2 20  1  0  0  0  0
  3  2  1  0  0  0  0
  4 31  1  0  0  0  0
  4  2  2  0  0  0  0
  5  1  2  0  0  0  0
  5  3  1  0  0  0  0
  6  1  1  1  0  0  0
  7  8  1  0  0  0  0
  8  6  1  0  0  0  0
  9  7  1  0  0  0  0
  9 12  1  0  0  0  0
 10 12  2  0  0  0  0
 11  6  1  0  0  0  0
 12 11  1  0  0  0  0
 13 17  1  0  0  0  0
 14  5  1  0  0  0  0
 15 18  2  0  0  0  0
 16 13  2  0  0  0  0
 16 15  1  0  0  0  0
 17 14  2  0  0  0  0
 18 14  1  0  0  0  0
 20 19  2  0  0  0  0
 20 21  1  0  0  0  0
 21 23  1  0  0  0  0
 23 28  1  0  0  0  0
 23 22  1  1  0  0  0
 24 27  1  0  0  0  0
 26 24  2  0  0  0  0
 28 25  2  0  0  0  0
 29 24  1  0  0  0  0
 29 28  1  0  0  0  0
 31 30  1  0  0  0  0
M  END
>  <MODEL>
3

>  <REMARK>
 VINA RESULT:      -7.9      2.399      4.089
  Name = 
  7 active torsions:
  status: ('A' for Active; 'I' for Inactive)
    1  A    between atoms: C_4  and  C_5
    2  A    between atoms: C_9  and  C_15
    3  A    between atoms: C_9  and  C_23
    4  A    between atoms: C_12  and  C_27
    5  A    between atoms: C_19  and  C_22
    6  A    between atoms: C_21  and  O_29
    7  A    between atoms: C_22  and  C_23
                            x       y       z     vdW  Elec       q    Type
                         _______ _______ _______ _____ _____    ______ ____

>  <TORSDO>
F 7

$$$$
=
 OpenBabel10262419393D

 31 33  0  0  1  0  0  0  0  0999 V2000
  188.4220  177.8890  141.5080 C   0  0  0  0  0  0  0  0  0  0  0  0
  187.8260  178.1280  139.2430 C   0  0  0  0  0  0  0  0  0  0  0  0
  186.4220  178.4360  140.1160 S   0  0  0  0  0  0  0  0  0  0  0  0
  188.8400  177.8210  140.1610 C   0  0  0  0  0  0  0  0  0  0  0  0
  187.0650  178.2120  141.6570 C   0  0  0  0  0  0  0  0  0  0  0  0
  189.3410  177.6150  142.6630 C   0  0  1  0  0  3  0  0  0  0  0  0
  190.7680  175.9460  143.8150 C   0  0  0  0  0  2  0  0  0  0  0  0
  190.0310  176.2610  142.5200 C   0  0  0  0  0  2  0  0  0  0  0  0
  191.6890  177.0240  144.1620 N   0  0  0  0  0  2  0  0  0  0  0  0
  192.1110  179.3040  144.3560 O   0  0  0  0  0  0  0  0  0  0  0  0
  190.3560  178.7450  142.8400 C   0  0  0  0  0  2  0  0  0  0  0  0
  191.4100  178.3930  143.8470 C   0  0  0  0  0  0  0  0  0  0  0  0
  185.9360  177.8810  145.2720 C   0  0  0  0  0  3  0  0  0  0  0  0
  186.2860  178.3610  142.9120 C   0  0  0  0  0  0  0  0  0  0  0  0
  184.3800  179.3070  144.0930 C   0  0  0  0  0  3  0  0  0  0  0  0
  184.7840  178.6710  145.2680 C   0  0  0  0  0  3  0  0  0  0  0  0
  186.6820  177.7270  144.1000 C   0  0  0  0  0  3  0  0  0  0  0  0
  185.1260  179.1510  142.9210 C   0  0  0  0  0  3  0  0  0  0  0  0
  188.9240  179.0890  137.3050 C   0  0  0  0  0  2  0  0  0  0  0  0
  187.9460  178.3310  137.7860 C   0  0  0  0  0  0  0  0  0  0  0  0
  187.1430  177.5120  136.8170 C   0  0  0  0  0  2  0  0  0  0  0  0
  188.0690  176.0990  135.0900 O   0  0  0  0  0  1  0  0  0  0  0  0
  187.7890  176.1710  136.4570 C   0  0  2  0  0  3  0  0  0  0  0  0
  184.6820  174.1220  137.5690 C   0  0  0  0  0  0  0  0  0  0  0  0
  187.5400  173.9000  137.1220 O   0  0  0  0  0  0  0  0  0  0  0  0
  183.4560  174.3680  137.7050 O   0  0  0  0  0  0  0  0  0  0  0  0
  185.1640  172.8570  137.8830 O   0  0  0  0  0  1  0  0  0  0  0  0
  186.9680  175.0000  136.8970 C   0  0  0  0  0  0  0  0  0  0  0  0
  185.5580  175.1500  137.0960 N   0  0  0  0  0  2  0  0  0  0  0  0
  190.4590  176.3010  139.0600 C   0  0  0  0  0  1  0  0  0  0  0  0
  190.1500  177.4550  139.8270 O   0  0  0  0  0  0  0  0  0  0  0  0
  1  5  2  0  0  0  0
  2  3  1  0  0  0  0
  2  4  2  0  0  0  0
  3  5  1  0  0  0  0
  4  1  1  0  0  0  0
  5 14  1  0  0  0  0
  6  1  1  6  0  0  0
  6 11  1  0  0  0  0
  7  9  1  0  0  0  0
  8  6  1  0  0  0  0
  8  7  1  0  0  0  0
 11 12  1  0  0  0  0
 12  9  1  0  0  0  0
 12 10  2  0  0  0  0
 14 18  2  0  0  0  0
 14 17  1  0  0  0  0
 15 16  2  0  0  0  0
 16 13  1  0  0  0  0
 17 13  2  0  0  0  0
 18 15  1  0  0  0  0
 19 20  2  0  0  0  0
 20  2  1  0  0  0  0
 21 20  1  0  0  0  0
 23 22  1  6  0  0  0
 23 21  1  0  0  0  0
 23 28  1  0  0  0  0
 24 26  2  0  0  0  0
 24 27  1  0  0  0  0
 28 29  1  0  0  0  0
 28 25  2  0  0  0  0
 29 24  1  0  0  0  0
 30 31  1  0  0  0  0
 31  4  1  0  0  0  0
M  END
>  <MODEL>
4

>  <REMARK>
 VINA RESULT:      -7.6      3.451      6.729
  Name = 
  7 active torsions:
  status: ('A' for Active; 'I' for Inactive)
    1  A    between atoms: C_4  and  C_5
    2  A    between atoms: C_9  and  C_15
    3  A    between atoms: C_9  and  C_23
    4  A    between atoms: C_12  and  C_27
    5  A    between atoms: C_19  and  C_22
    6  A    between atoms: C_21  and  O_29
    7  A    between atoms: C_22  and  C_23
                            x       y       z     vdW  Elec       q    Type
                         _______ _______ _______ _____ _____    ______ ____

>  <TORSDO>
F 7

$$$$
=
 OpenBabel10262419393D

 31 33  0  0  1  0  0  0  0  0999 V2000
  188.3430  178.0760  141.9720 C   0  0  0  0  0  0  0  0  0  0  0  0
  187.7370  178.2490  139.7030 C   0  0  0  0  0  0  0  0  0  0  0  0
  186.3110  178.4510  140.5700 S   0  0  0  0  0  0  0  0  0  0  0  0
  188.7700  178.0310  140.6270 C   0  0  0  0  0  0  0  0  0  0  0  0
  186.9640  178.2910  142.1140 C   0  0  0  0  0  0  0  0  0  0  0  0
  189.2760  177.8850  143.1320 C   0  0  1  0  0  3  0  0  0  0  0  0
  190.4840  176.2600  144.5630 C   0  0  0  0  0  2  0  0  0  0  0  0
  189.7280  176.4320  143.2530 C   0  0  0  0  0  2  0  0  0  0  0  0
  191.5880  177.2110  144.6530 N   0  0  0  0  0  2  0  0  0  0  0  0
  192.3840  179.3780  144.3590 O   0  0  0  0  0  0  0  0  0  0  0  0
  190.4690  178.8370  143.0420 C   0  0  0  0  0  2  0  0  0  0  0  0
  191.5140  178.5170  144.0700 C   0  0  0  0  0  0  0  0  0  0  0  0
  185.8930  177.9790  145.7490 C   0  0  0  0  0  3  0  0  0  0  0  0
  186.1710  178.3870  143.3650 C   0  0  0  0  0  0  0  0  0  0  0  0
  184.1460  179.1030  144.5120 C   0  0  0  0  0  3  0  0  0  0  0  0
  184.6390  178.5920  145.7140 C   0  0  0  0  0  3  0  0  0  0  0  0
  186.6540  177.8780  144.5810 C   0  0  0  0  0  3  0  0  0  0  0  0
  184.9080  178.9990  143.3440 C   0  0  0  0  0  3  0  0  0  0  0  0
  188.9410  179.0030  137.7370 C   0  0  0  0  0  2  0  0  0  0  0  0
  187.8470  178.4490  138.2450 C   0  0  0  0  0  0  0  0  0  0  0  0
  186.8620  177.8280  137.2980 C   0  0  0  0  0  2  0  0  0  0  0  0
  186.7220  177.4100  134.9220 O   0  0  0  0  0  1  0  0  0  0  0  0
  187.5070  177.2010  136.0580 C   0  0  2  0  0  3  0  0  0  0  0  0
  189.4620  173.9890  137.0320 C   0  0  0  0  0  0  0  0  0  0  0  0
  186.9910  174.8920  135.8080 O   0  0  0  0  0  0  0  0  0  0  0  0
  190.5630  173.7530  137.5930 O   0  0  0  0  0  1  0  0  0  0  0  0
  188.6790  172.9290  136.5910 O   0  0  0  0  0  0  0  0  0  0  0  0
  187.8100  175.7470  136.2390 C   0  0  0  0  0  0  0  0  0  0  0  0
  189.0370  175.3440  136.8580 N   0  0  0  0  0  2  0  0  0  0  0  0
  190.5550  176.5010  139.8390 C   0  0  0  0  0  1  0  0  0  0  0  0
  190.1050  177.7670  140.2990 O   0  0  0  0  0  0  0  0  0  0  0  0
  1  5  2  0  0  0  0
  2  3  1  0  0  0  0
  2  4  2  0  0  0  0
  3  5  1  0  0  0  0
  4  1  1  0  0  0  0
  5 14  1  0  0  0  0
  6  1  1  6  0  0  0
  6  8  1  0  0  0  0
  7  9  1  0  0  0  0
  8  7  1  0  0  0  0
 11  6  1  0  0  0  0
 11 12  1  0  0  0  0
 12 10  2  0  0  0  0
 12  9  1  0  0  0  0
 14 17  1  0  0  0  0
 15 16  2  0  0  0  0
 16 13  1  0  0  0  0
 17 13  2  0  0  0  0
 18 14  2  0  0  0  0
 18 15  1  0  0  0  0
 19 20  2  0  0  0  0
 20  2  1  0  0  0  0
 21 20  1  0  0  0  0
 23 22  1  6  0  0  0
 23 28  1  0  0  0  0
 23 21  1  0  0  0  0
 24 26  1  0  0  0  0
 25 28  2  0  0  0  0
 27 24  2  0  0  0  0
 28 29  1  0  0  0  0
 29 24  1  0  0  0  0
 30 31  1  0  0  0  0
 31  4  1  0  0  0  0
M  END
>  <MODEL>
5

>  <REMARK>
 VINA RESULT:      -7.5      3.472      7.284
  Name = 
  7 active torsions:
  status: ('A' for Active; 'I' for Inactive)
    1  A    between atoms: C_4  and  C_5
    2  A    between atoms: C_9  and  C_15
    3  A    between atoms: C_9  and  C_23
    4  A    between atoms: C_12  and  C_27
    5  A    between atoms: C_19  and  C_22
    6  A    between atoms: C_21  and  O_29
    7  A    between atoms: C_22  and  C_23
                            x       y       z     vdW  Elec       q    Type
                         _______ _______ _______ _____ _____    ______ ____

>  <TORSDO>
F 7

$$$$
=
 OpenBabel10262419393D

 31 33  0  0  1  0  0  0  0  0999 V2000
  189.4110  177.0280  140.8150 C   0  0  0  0  0  0  0  0  0  0  0  0
  188.2790  177.6150  142.7950 C   0  0  0  0  0  0  0  0  0  0  0  0
  187.4120  178.3340  141.5470 S   0  0  0  0  0  0  0  0  0  0  0  0
  189.3700  176.9430  142.2240 C   0  0  0  0  0  0  0  0  0  0  0  0
  188.3730  177.8000  140.2710 C   0  0  0  0  0  0  0  0  0  0  0  0
  190.4790  176.3740  139.9880 C   0  0  1  0  0  3  0  0  0  0  0  0
  190.9980  175.0620  137.9480 C   0  0  0  0  0  2  0  0  0  0  0  0
  189.9350  175.9060  138.6400 C   0  0  0  0  0  2  0  0  0  0  0  0
  192.2520  175.8000  137.8340 N   0  0  0  0  0  2  0  0  0  0  0  0
  193.8440  177.1930  138.8050 O   0  0  0  0  0  0  0  0  0  0  0  0
  191.6850  177.2970  139.8150 C   0  0  0  0  0  2  0  0  0  0  0  0
  192.6670  176.7500  138.8220 C   0  0  0  0  0  0  0  0  0  0  0  0
  186.7720  177.8770  136.8240 C   0  0  0  0  0  3  0  0  0  0  0  0
  188.1090  178.1120  138.8440 C   0  0  0  0  0  0  0  0  0  0  0  0
  188.7420  179.2780  136.8030 C   0  0  0  0  0  3  0  0  0  0  0  0
  187.6410  178.7310  136.1410 C   0  0  0  0  0  3  0  0  0  0  0  0
  187.0050  177.5700  138.1670 C   0  0  0  0  0  3  0  0  0  0  0  0
  188.9750  178.9680  138.1470 C   0  0  0  0  0  3  0  0  0  0  0  0
  186.7470  176.8860  144.5290 C   0  0  0  0  0  2  0  0  0  0  0  0
  187.8260  177.5860  144.1990 C   0  0  0  0  0  0  0  0  0  0  0  0
  188.6830  178.1300  145.3050 C   0  0  0  0  0  2  0  0  0  0  0  0
  187.5860  177.9740  147.4520 O   0  0  0  0  0  1  0  0  0  0  0  0
  188.5400  177.3720  146.6280 C   0  0  2  0  0  3  0  0  0  0  0  0
  192.0620  175.9880  147.5020 C   0  0  0  0  0  0  0  0  0  0  0  0
  190.0560  177.8900  148.3860 O   0  0  0  0  0  0  0  0  0  0  0  0
  192.8360  175.1380  146.9920 O   0  0  0  0  0  0  0  0  0  0  0  0
  192.4370  176.6380  148.6730 O   0  0  0  0  0  1  0  0  0  0  0  0
  189.8430  177.2130  147.3450 C   0  0  0  0  0  0  0  0  0  0  0  0
  190.8110  176.2700  146.8700 N   0  0  0  0  0  2  0  0  0  0  0  0
  191.5300  176.8910  143.4390 C   0  0  0  0  0  1  0  0  0  0  0  0
  190.3620  176.2600  142.9370 O   0  0  0  0  0  0  0  0  0  0  0  0
  1  4  1  0  0  0  0
  2 20  1  0  0  0  0
  3  2  1  0  0  0  0
  4  2  2  0  0  0  0
  4 31  1  0  0  0  0
  5  1  2  0  0  0  0
  5  3  1  0  0  0  0
  6  1  1  6  0  0  0
  7  8  1  0  0  0  0
  8  6  1  0  0  0  0
  9  7  1  0  0  0  0
  9 12  1  0  0  0  0
 10 12  2  0  0  0  0
 11  6  1  0  0  0  0
 12 11  1  0  0  0  0
 13 17  1  0  0  0  0
 14  5  1  0  0  0  0
 15 18  2  0  0  0  0
 16 15  1  0  0  0  0
 16 13  2  0  0  0  0
 17 14  2  0  0  0  0
 18 14  1  0  0  0  0
 20 19  2  0  0  0  0
 20 21  1  0  0  0  0
 21 23  1  0  0  0  0
 23 28  1  0  0  0  0
 23 22  1  1  0  0  0
 24 27  1  0  0  0  0
 26 24  2  0  0  0  0
 28 25  2  0  0  0  0
 29 28  1  0  0  0  0
 29 24  1  0  0  0  0
 31 30  1  0  0  0  0
M  END
>  <MODEL>
6

>  <REMARK>
 VINA RESULT:      -7.5      2.580      4.165
  Name = 
  7 active torsions:
  status: ('A' for Active; 'I' for Inactive)
    1  A    between atoms: C_4  and  C_5
    2  A    between atoms: C_9  and  C_15
    3  A    between atoms: C_9  and  C_23
    4  A    between atoms: C_12  and  C_27
    5  A    between atoms: C_19  and  C_22
    6  A    between atoms: C_21  and  O_29
    7  A    between atoms: C_22  and  C_23
                            x       y       z     vdW  Elec       q    Type
                         _______ _______ _______ _____ _____    ______ ____

>  <TORSDO>
F 7

$$$$
=
 OpenBabel10262419393D

 31 33  0  0  1  0  0  0  0  0999 V2000
  185.6570  178.5860  140.4230 C   0  0  0  0  0  0  0  0  0  0  0  0
  187.8770  178.2620  139.7080 C   0  0  0  0  0  0  0  0  0  0  0  0
  187.9360  178.2510  141.3880 S   0  0  0  0  0  0  0  0  0  0  0  0
  186.5440  178.4780  139.3300 C   0  0  0  0  0  0  0  0  0  0  0  0
  186.2930  178.4940  141.6700 C   0  0  0  0  0  0  0  0  0  0  0  0
  184.1810  178.8040  140.2590 C   0  0  1  0  0  3  0  0  0  0  0  0
  182.4000  180.1060  139.1270 C   0  0  0  0  0  2  0  0  0  0  0  0
  183.8820  179.7530  139.1010 C   0  0  0  0  0  2  0  0  0  0  0  0
  181.5790  178.8990  139.1040 N   0  0  0  0  0  2  0  0  0  0  0  0
  181.1830  176.7400  139.8770 O   0  0  0  0  0  0  0  0  0  0  0  0
  183.4420  177.4750  140.1000 C   0  0  0  0  0  2  0  0  0  0  0  0
  182.0050  177.6800  139.7240 C   0  0  0  0  0  0  0  0  0  0  0  0
  183.9610  179.3780  144.5400 C   0  0  0  0  0  3  0  0  0  0  0  0
  185.6850  178.5730  143.0220 C   0  0  0  0  0  0  0  0  0  0  0  0
  185.7210  177.9460  145.3740 C   0  0  0  0  0  3  0  0  0  0  0  0
  184.5620  178.6920  145.5970 C   0  0  0  0  0  3  0  0  0  0  0  0
  184.5200  179.3180  143.2600 C   0  0  0  0  0  3  0  0  0  0  0  0
  186.2800  177.8880  144.0930 C   0  0  0  0  0  3  0  0  0  0  0  0
  189.3300  178.7110  137.8180 C   0  0  0  0  0  2  0  0  0  0  0  0
  189.0260  177.9260  138.8440 C   0  0  0  0  0  0  0  0  0  0  0  0
  190.0050  176.8560  139.2320 C   0  0  0  0  0  2  0  0  0  0  0  0
  189.9320  174.8570  137.8770 O   0  0  0  0  0  1  0  0  0  0  0  0
  190.5800  176.0830  138.0410 C   0  0  2  0  0  3  0  0  0  0  0  0
  194.0630  174.4030  137.6770 C   0  0  0  0  0  0  0  0  0  0  0  0
  192.7520  176.7660  138.7330 O   0  0  0  0  0  0  0  0  0  0  0  0
  194.4880  173.3380  137.1600 O   0  0  0  0  0  0  0  0  0  0  0  0
  194.9550  175.2530  138.3210 O   0  0  0  0  0  1  0  0  0  0  0  0
  192.0620  175.8960  138.1380 C   0  0  0  0  0  0  0  0  0  0  0  0
  192.6710  174.7190  137.5940 N   0  0  0  0  0  2  0  0  0  0  0  0
  185.8640  177.4930  137.1580 C   0  0  0  0  0  1  0  0  0  0  0  0
  186.0880  178.6050  138.0120 O   0  0  0  0  0  0  0  0  0  0  0  0
  1  5  2  0  0  0  0
  2  3  1  0  0  0  0
  3  5  1  0  0  0  0
  4  2  2  0  0  0  0
  4  1  1  0  0  0  0
  5 14  1  0  0  0  0
  6  1  1  6  0  0  0
  8  7  1  0  0  0  0
  8  6  1  0  0  0  0
  9  7  1  0  0  0  0
  9 12  1  0  0  0  0
 11  6  1  0  0  0  0
 12 10  2  0  0  0  0
 12 11  1  0  0  0  0
 13 16  1  0  0  0  0
 14 17  1  0  0  0  0
 14 18  2  0  0  0  0
 15 16  2  0  0  0  0
 17 13  2  0  0  0  0
 18 15  1  0  0  0  0
 19 20  2  0  0  0  0
 20 21  1  0  0  0  0
 20  2  1  0  0  0  0
 23 22  1  1  0  0  0
 23 28  1  0  0  0  0
 23 21  1  0  0  0  0
 24 27  1  0  0  0  0
 26 24  2  0  0  0  0
 28 25  2  0  0  0  0
 29 24  1  0  0  0  0
 29 28  1  0  0  0  0
 30 31  1  0  0  0  0
 31  4  1  0  0  0  0
M  END
>  <MODEL>
7

>  <REMARK>
 VINA RESULT:      -7.4      3.007      8.782
  Name = 
  7 active torsions:
  status: ('A' for Active; 'I' for Inactive)
    1  A    between atoms: C_4  and  C_5
    2  A    between atoms: C_9  and  C_15
    3  A    between atoms: C_9  and  C_23
    4  A    between atoms: C_12  and  C_27
    5  A    between atoms: C_19  and  C_22
    6  A    between atoms: C_21  and  O_29
    7  A    between atoms: C_22  and  C_23
                            x       y       z     vdW  Elec       q    Type
                         _______ _______ _______ _____ _____    ______ ____

>  <TORSDO>
F 7

$$$$
=
 OpenBabel10262419393D

 31 33  0  0  1  0  0  0  0  0999 V2000
  186.6390  178.2380  142.0890 C   0  0  0  0  0  0  0  0  0  0  0  0
  188.1700  178.2010  140.3000 C   0  0  0  0  0  0  0  0  0  0  0  0
  189.0630  177.8090  141.6700 S   0  0  0  0  0  0  0  0  0  0  0  0
  186.8470  178.4290  140.7050 C   0  0  0  0  0  0  0  0  0  0  0  0
  187.8070  177.8960  142.7880 C   0  0  0  0  0  0  0  0  0  0  0  0
  185.3000  178.4110  142.7450 C   0  0  1  0  0  3  0  0  0  0  0  0
  183.9250  179.7620  144.3050 C   0  0  0  0  0  2  0  0  0  0  0  0
  185.2080  179.7440  143.4830 C   0  0  0  0  0  2  0  0  0  0  0  0
  182.7660  179.4950  143.4600 N   0  0  0  0  0  2  0  0  0  0  0  0
  181.7800  178.2490  141.7590 O   0  0  0  0  0  0  0  0  0  0  0  0
  184.1650  178.2510  141.7330 C   0  0  0  0  0  2  0  0  0  0  0  0
  182.8390  178.6290  142.3220 C   0  0  0  0  0  0  0  0  0  0  0  0
  187.0270  177.2250  146.4480 C   0  0  0  0  0  3  0  0  0  0  0  0
  187.9660  177.6320  144.2400 C   0  0  0  0  0  0  0  0  0  0  0  0
  189.4260  177.2810  146.1560 C   0  0  0  0  0  3  0  0  0  0  0  0
  188.3130  177.1280  146.9840 C   0  0  0  0  0  3  0  0  0  0  0  0
  186.8560  177.4750  145.0840 C   0  0  0  0  0  3  0  0  0  0  0  0
  189.2530  177.5330  144.7920 C   0  0  0  0  0  3  0  0  0  0  0  0
  189.0560  179.2470  138.2990 C   0  0  0  0  0  2  0  0  0  0  0  0
  188.7030  178.1310  138.9260 C   0  0  0  0  0  0  0  0  0  0  0  0
  189.0820  176.8190  138.3030 C   0  0  0  0  0  2  0  0  0  0  0  0
  189.7800  176.7600  135.9910 O   0  0  0  0  0  1  0  0  0  0  0  0
  190.2360  176.9200  137.3010 C   0  0  2  0  0  3  0  0  0  0  0  0
  193.7970  175.3700  137.3090 C   0  0  0  0  0  0  0  0  0  0  0  0
  191.0870  174.9030  138.2330 O   0  0  0  0  0  0  0  0  0  0  0  0
  194.9190  175.7150  136.8580 O   0  0  0  0  0  0  0  0  0  0  0  0
  193.6710  174.1520  137.9680 O   0  0  0  0  0  1  0  0  0  0  0  0
  191.3450  175.9620  137.6020 C   0  0  0  0  0  0  0  0  0  0  0  0
  192.6720  176.2350  137.1360 N   0  0  0  0  0  2  0  0  0  0  0  0
  185.5460  178.2290  138.6050 C   0  0  0  0  0  1  0  0  0  0  0  0
  185.8020  178.8300  139.8640 O   0  0  0  0  0  0  0  0  0  0  0  0
  1  5  2  0  0  0  0
  2  4  2  0  0  0  0
  2  3  1  0  0  0  0
  3  5  1  0  0  0  0
  4  1  1  0  0  0  0
  5 14  1  0  0  0  0
  6  1  1  6  0  0  0
  6  8  1  0  0  0  0
  8  7  1  0  0  0  0
  9  7  1  0  0  0  0
 10 12  2  0  0  0  0
 11 12  1  0  0  0  0
 11  6  1  0  0  0  0
 12  9  1  0  0  0  0
 13 16  1  0  0  0  0
 14 18  2  0  0  0  0
 14 17  1  0  0  0  0
 15 16  2  0  0  0  0
 17 13  2  0  0  0  0
 18 15  1  0  0  0  0
 19 20  2  0  0  0  0
 20  2  1  0  0  0  0
 21 20  1  0  0  0  0
 23 22  1  6  0  0  0
 23 28  1  0  0  0  0
 23 21  1  0  0  0  0
 24 27  1  0  0  0  0
 26 24  2  0  0  0  0
 28 25  2  0  0  0  0
 29 24  1  0  0  0  0
 29 28  1  0  0  0  0
 30 31  1  0  0  0  0
 31  4  1  0  0  0  0
M  END
>  <MODEL>
8

>  <REMARK>
 VINA RESULT:      -7.4      2.274      8.870
  Name = 
  7 active torsions:
  status: ('A' for Active; 'I' for Inactive)
    1  A    between atoms: C_4  and  C_5
    2  A    between atoms: C_9  and  C_15
    3  A    between atoms: C_9  and  C_23
    4  A    between atoms: C_12  and  C_27
    5  A    between atoms: C_19  and  C_22
    6  A    between atoms: C_21  and  O_29
    7  A    between atoms: C_22  and  C_23
                            x       y       z     vdW  Elec       q    Type
                         _______ _______ _______ _____ _____    ______ ____

>  <TORSDO>
F 7

$$$$
=
 OpenBabel10262419393D

 31 33  0  0  1  0  0  0  0  0999 V2000
  188.2260  178.0950  141.0890 C   0  0  0  0  0  0  0  0  0  0  0  0
  188.8360  177.7160  138.8460 C   0  0  0  0  0  0  0  0  0  0  0  0
  190.1880  177.3100  139.7590 S   0  0  0  0  0  0  0  0  0  0  0  0
  187.8400  178.1510  139.7320 C   0  0  0  0  0  0  0  0  0  0  0  0
  189.5440  177.6500  141.2770 C   0  0  0  0  0  0  0  0  0  0  0  0
  187.3180  178.4970  142.2140 C   0  0  1  0  0  3  0  0  0  0  0  0
  185.0900  179.3780  142.8550 C   0  0  0  0  0  2  0  0  0  0  0  0
  185.8990  178.7650  141.7190 C   0  0  0  0  0  2  0  0  0  0  0  0
  185.1320  178.5250  144.0390 N   0  0  0  0  0  2  0  0  0  0  0  0
  186.3630  177.1940  145.4970 O   0  0  0  0  0  0  0  0  0  0  0  0
  187.3340  177.4570  143.3340 C   0  0  0  0  0  2  0  0  0  0  0  0
  186.2800  177.7330  144.3640 C   0  0  0  0  0  0  0  0  0  0  0  0
  191.3580  178.3920  144.5350 C   0  0  0  0  0  3  0  0  0  0  0  0
  190.2830  177.4760  142.5520 C   0  0  0  0  0  0  0  0  0  0  0  0
  191.3060  175.9990  144.1940 C   0  0  0  0  0  3  0  0  0  0  0  0
  191.6790  177.1020  144.9640 C   0  0  0  0  0  3  0  0  0  0  0  0
  190.6640  178.5760  143.3360 C   0  0  0  0  0  3  0  0  0  0  0  0
  190.6130  176.1860  142.9940 C   0  0  0  0  0  3  0  0  0  0  0  0
  189.0390  178.4350  136.5380 C   0  0  0  0  0  2  0  0  0  0  0  0
  188.7220  177.4720  137.3950 C   0  0  0  0  0  0  0  0  0  0  0  0
  188.4870  176.0910  136.8540 C   0  0  0  0  0  2  0  0  0  0  0  0
  189.1960  174.4740  135.2050 O   0  0  0  0  0  1  0  0  0  0  0  0
  189.6100  175.5840  135.9450 C   0  0  2  0  0  3  0  0  0  0  0  0
  193.3290  175.8140  137.0400 C   0  0  0  0  0  0  0  0  0  0  0  0
  190.8770  174.3440  137.5310 O   0  0  0  0  0  0  0  0  0  0  0  0
  194.3050  176.5440  136.7290 O   0  0  0  0  0  0  0  0  0  0  0  0
  193.5070  174.7950  137.9690 O   0  0  0  0  0  1  0  0  0  0  0  0
  190.8690  175.2870  136.6960 C   0  0  0  0  0  0  0  0  0  0  0  0
  192.0560  176.0430  136.4300 N   0  0  0  0  0  2  0  0  0  0  0  0
  185.7910  178.0240  138.3420 C   0  0  0  0  0  1  0  0  0  0  0  0
  186.5770  178.6280  139.3570 O   0  0  0  0  0  0  0  0  0  0  0  0
  1  5  2  0  0  0  0
  2  4  2  0  0  0  0
  2  3  1  0  0  0  0
  3  5  1  0  0  0  0
  4  1  1  0  0  0  0
  5 14  1  0  0  0  0
  6  1  1  6  0  0  0
  6 11  1  0  0  0  0
  7  9  1  0  0  0  0
  8  6  1  0  0  0  0
  8  7  1  0  0  0  0
  9 12  1  0  0  0  0
 11 12  1  0  0  0  0
 12 10  2  0  0  0  0
 13 16  1  0  0  0  0
 14 18  2  0  0  0  0
 14 17  1  0  0  0  0
 15 16  2  0  0  0  0
 17 13  2  0  0  0  0
 18 15  1  0  0  0  0
 19 20  2  0  0  0  0
 20  2  1  0  0  0  0
 21 20  1  0  0  0  0
 23 22  1  1  0  0  0
 23 28  1  0  0  0  0
 23 21  1  0  0  0  0
 24 27  1  0  0  0  0
 26 24  2  0  0  0  0
 28 25  2  0  0  0  0
 29 28  1  0  0  0  0
 29 24  1  0  0  0  0
 30 31  1  0  0  0  0
 31  4  1  0  0  0  0
M  END
>  <MODEL>
9

>  <REMARK>
 VINA RESULT:      -7.3      2.210      8.468
  Name = 
  7 active torsions:
  status: ('A' for Active; 'I' for Inactive)
    1  A    between atoms: C_4  and  C_5
    2  A    between atoms: C_9  and  C_15
    3  A    between atoms: C_9  and  C_23
    4  A    between atoms: C_12  and  C_27
    5  A    between atoms: C_19  and  C_22
    6  A    between atoms: C_21  and  O_29
    7  A    between atoms: C_22  and  C_23
                            x       y       z     vdW  Elec       q    Type
                         _______ _______ _______ _____ _____    ______ ____

>  <TORSDO>
F 7

$$$$
