=
 OpenBabel10262421483D

 30 31  0  0  1  0  0  0  0  0999 V2000
  182.9080  178.6640  142.0100 C   0  0  0  0  0  0  0  0  0  0  0  0
  181.2780  178.2170  140.1830 C   0  0  2  0  0  3  0  0  0  0  0  0
  183.9920  178.1770  141.0990 C   0  0  0  0  0  2  0  0  0  0  0  0
  183.7850  178.4090  137.8230 N   0  0  0  0  0  0  0  0  0  0  0  0
  183.3000  179.2690  138.8870 C   0  0  2  0  0  3  0  0  0  0  0  0
  185.5030  178.6600  139.3120 N   0  0  0  0  0  2  0  0  0  0  0  0
  184.3460  179.1870  140.0170 C   0  0  2  0  0  3  0  0  0  0  0  0
  181.7770  179.1990  139.1100 C   0  0  2  0  0  3  0  0  0  0  0  0
  185.8230  177.3620  137.2080 N   0  0  0  0  0  1  0  0  0  0  0  0
  185.0210  178.1540  138.0760 C   0  0  0  0  0  0  0  0  0  0  0  0
  181.6220  178.6190  141.6000 C   0  0  0  0  0  0  0  0  0  0  0  0
  184.3740  178.7760  144.1200 C   0  0  0  0  0  0  0  0  0  0  0  0
  185.2120  177.9280  143.7160 O   0  0  0  0  0  0  0  0  0  0  0  0
  183.2410  179.1470  143.3230 N   0  0  0  0  0  2  0  0  0  0  0  0
  184.5410  179.3820  145.4670 C   0  0  0  0  0  2  0  0  0  0  0  0
  184.6480  178.3270  146.4690 N   0  0  0  0  0  2  0  0  0  0  0  0
  185.9750  179.9190  147.5980 O   0  0  0  0  0  1  0  0  0  0  0  0
  187.0770  177.9710  146.7300 C   0  0  0  0  0  1  0  0  0  0  0  0
  185.8090  178.5570  147.3300 C   0  0  2  0  0  3  0  0  0  0  0  0
  180.4810  178.9980  142.4740 C   0  0  0  0  0  0  0  0  0  0  0  0
  179.6650  178.0440  143.0710 O   0  0  0  0  0  1  0  0  0  0  0  0
  180.2300  180.2160  142.6800 O   0  0  0  0  0  0  0  0  0  0  0  0
  179.7780  180.5530  139.1410 O   0  0  0  0  0  1  0  0  0  0  0  0
  181.1680  180.5990  139.2770 C   0  0  2  0  0  3  0  0  0  0  0  0
  181.7470  181.6130  138.2890 C   0  0  0  0  0  2  0  0  0  0  0  0
  180.6840  182.5640  137.7620 C   0  0  0  0  0  1  0  0  0  0  0  0
  181.6290  176.4650  139.8060 S   0  0  0  0  0  0  0  0  0  0  0  0
  178.9310  176.7810  139.5390 C   0  0  0  0  0  1  0  0  0  0  0  0
  179.9550  175.9300  140.2610 C   0  0  0  0  0  3  0  0  0  0  0  0
  179.7670  174.4810  139.8650 C   0  0  0  0  0  1  0  0  0  0  0  0
  1 14  1  0  0  0  0
  2 27  1  6  0  0  0
  2 11  1  0  0  0  0
  3  1  1  0  0  0  0
  4 10  2  0  0  0  0
  5  4  1  6  0  0  0
  5  8  1  0  0  0  0
  5  7  1  0  0  0  0
  6  7  1  0  0  0  0
  7  3  1  1  0  0  0
  8 24  1  1  0  0  0
  8  2  1  0  0  0  0
  9 10  1  0  0  0  0
 10  6  1  0  0  0  0
 11  1  2  0  0  0  0
 11 20  1  0  0  0  0
 12 15  1  0  0  0  0
 13 12  2  0  0  0  0
 14 12  1  0  0  0  0
 15 16  1  0  0  0  0
 16 19  1  0  0  0  0
 19 18  1  6  0  0  0
 19 17  1  0  0  0  0
 20 22  2  0  0  0  0
 20 21  1  0  0  0  0
 24 23  1  6  0  0  0
 25 24  1  0  0  0  0
 26 25  1  0  0  0  0
 27 29  1  0  0  0  0
 28 29  1  0  0  0  0
 30 29  1  0  0  0  0
M  END
>  <MODEL>
1

>  <REMARK>
 VINA RESULT:      -6.0      0.000      0.000
  Name = 
  9 active torsions:
  status: ('A' for Active; 'I' for Inactive)
    1  A    between atoms: C_1  and  N_22
    2  A    between atoms: C_2  and  C_14
    3  A    between atoms: C_4  and  S_25
    4  A    between atoms: C_7  and  C_30
    5  A    between atoms: C_10  and  C_23
    6  A    between atoms: C_11  and  S_25
    7  A    between atoms: C_13  and  C_30
    8  A    between atoms: C_14  and  N_28
    9  A    between atoms: N_28  and  C_29
                            x       y       z     vdW  Elec       q    Type
                         _______ _______ _______ _____ _____    ______ ____

>  <TORSDO>
F 9

$$$$
=
 OpenBabel10262421483D

 30 31  0  0  1  0  0  0  0  0999 V2000
  182.5660  177.9380  140.3850 C   0  0  0  0  0  0  0  0  0  0  0  0
  182.5210  178.3700  137.9340 C   0  0  2  0  0  3  0  0  0  0  0  0
  181.4210  176.9920  140.1920 C   0  0  0  0  0  2  0  0  0  0  0  0
  180.9310  175.3610  137.3760 N   0  0  0  0  0  0  0  0  0  0  0  0
  182.1440  175.7780  138.0550 C   0  0  2  0  0  3  0  0  0  0  0  0
  180.6870  174.8010  139.5800 N   0  0  0  0  0  2  0  0  0  0  0  0
  181.8500  175.6730  139.5650 C   0  0  2  0  0  3  0  0  0  0  0  0
  182.8590  176.9700  137.3930 C   0  0  2  0  0  3  0  0  0  0  0  0
  178.9310  174.2030  137.9160 N   0  0  0  0  0  1  0  0  0  0  0  0
  180.1900  174.7750  138.2510 C   0  0  0  0  0  0  0  0  0  0  0  0
  183.0380  178.6370  139.3300 C   0  0  0  0  0  0  0  0  0  0  0  0
  182.5660  178.8500  142.7900 C   0  0  0  0  0  0  0  0  0  0  0  0
  181.4650  179.4510  142.6790 O   0  0  0  0  0  0  0  0  0  0  0  0
  183.1310  178.1170  141.6950 N   0  0  0  0  0  2  0  0  0  0  0  0
  183.3140  178.9290  144.0720 C   0  0  0  0  0  2  0  0  0  0  0  0
  184.7320  179.1380  143.8000 N   0  0  0  0  0  2  0  0  0  0  0  0
  186.3520  177.6370  144.6330 O   0  0  0  0  0  1  0  0  0  0  0  0
  184.6690  178.4130  146.1580 C   0  0  0  0  0  1  0  0  0  0  0  0
  185.5380  178.7280  144.9500 C   0  0  2  0  0  3  0  0  0  0  0  0
  184.1090  179.6600  139.4530 C   0  0  0  0  0  0  0  0  0  0  0  0
  185.2300  179.4560  140.2510 O   0  0  0  0  0  1  0  0  0  0  0  0
  184.0060  180.7500  138.8310 O   0  0  0  0  0  0  0  0  0  0  0  0
  184.9210  177.4570  136.2340 O   0  0  0  0  0  1  0  0  0  0  0  0
  184.3750  176.7370  137.2990 C   0  0  2  0  0  3  0  0  0  0  0  0
  184.7320  175.2560  137.1540 C   0  0  0  0  0  2  0  0  0  0  0  0
  186.2340  175.0430  137.0410 C   0  0  0  0  0  1  0  0  0  0  0  0
  180.7800  178.8600  137.6850 S   0  0  0  0  0  0  0  0  0  0  0  0
  180.4790  180.2120  135.3340 C   0  0  0  0  0  1  0  0  0  0  0  0
  181.2250  180.2830  136.6500 C   0  0  0  0  0  3  0  0  0  0  0  0
  180.8500  181.5610  137.3680 C   0  0  0  0  0  1  0  0  0  0  0  0
  1 14  1  0  0  0  0
  2 27  1  1  0  0  0
  2 11  1  0  0  0  0
  3  1  1  0  0  0  0
  4 10  2  0  0  0  0
  5  4  1  6  0  0  0
  5  7  1  0  0  0  0
  7  6  1  0  0  0  0
  7  3  1  6  0  0  0
  8 24  1  1  0  0  0
  8  2  1  0  0  0  0
  8  5  1  0  0  0  0
  9 10  1  0  0  0  0
 10  6  1  0  0  0  0
 11 20  1  0  0  0  0
 11  1  2  0  0  0  0
 12 15  1  0  0  0  0
 13 12  2  0  0  0  0
 14 12  1  0  0  0  0
 16 15  1  0  0  0  0
 16 19  1  0  0  0  0
 17 19  1  0  0  0  0
 19 18  1  1  0  0  0
 20 21  1  0  0  0  0
 22 20  2  0  0  0  0
 24 23  1  6  0  0  0
 25 24  1  0  0  0  0
 26 25  1  0  0  0  0
 28 29  1  0  0  0  0
 29 30  1  0  0  0  0
 29 27  1  0  0  0  0
M  END
>  <MODEL>
2

>  <REMARK>
 VINA RESULT:      -5.2      2.944      4.897
  Name = 
  9 active torsions:
  status: ('A' for Active; 'I' for Inactive)
    1  A    between atoms: C_1  and  N_22
    2  A    between atoms: C_2  and  C_14
    3  A    between atoms: C_4  and  S_25
    4  A    between atoms: C_7  and  C_30
    5  A    between atoms: C_10  and  C_23
    6  A    between atoms: C_11  and  S_25
    7  A    between atoms: C_13  and  C_30
    8  A    between atoms: C_14  and  N_28
    9  A    between atoms: N_28  and  C_29
                            x       y       z     vdW  Elec       q    Type
                         _______ _______ _______ _____ _____    ______ ____

>  <TORSDO>
F 9

$$$$
=
 OpenBabel10262421483D

 30 31  0  0  1  0  0  0  0  0999 V2000
  184.7920  177.6870  137.7680 C   0  0  0  0  0  0  0  0  0  0  0  0
  182.4940  177.7680  138.7200 C   0  0  2  0  0  3  0  0  0  0  0  0
  184.3950  176.4420  137.0370 C   0  0  0  0  0  2  0  0  0  0  0  0
  181.2900  175.8420  136.1250 N   0  0  0  0  0  0  0  0  0  0  0  0
  182.0470  177.0760  136.2310 C   0  0  2  0  0  3  0  0  0  0  0  0
  183.3190  175.4650  135.1390 N   0  0  0  0  0  2  0  0  0  0  0  0
  183.4970  176.7260  135.8400 C   0  0  2  0  0  3  0  0  0  0  0  0
  181.6620  177.9500  137.4380 C   0  0  2  0  0  3  0  0  0  0  0  0
  181.5590  173.7010  135.1380 N   0  0  0  0  0  1  0  0  0  0  0  0
  182.0140  175.0090  135.4620 C   0  0  0  0  0  0  0  0  0  0  0  0
  183.9150  178.2720  138.6130 C   0  0  0  0  0  0  0  0  0  0  0  0
  187.3390  177.5010  137.4670 C   0  0  0  0  0  0  0  0  0  0  0  0
  187.3650  176.2440  137.5300 O   0  0  0  0  0  0  0  0  0  0  0  0
  186.1110  178.2300  137.5890 N   0  0  0  0  0  2  0  0  0  0  0  0
  188.6120  178.2490  137.2960 C   0  0  0  0  0  2  0  0  0  0  0  0
  188.9180  178.9820  138.5210 N   0  0  0  0  0  2  0  0  0  0  0  0
  188.4360  178.7020  140.8140 O   0  0  0  0  0  1  0  0  0  0  0  0
  190.3250  177.5180  139.9240 C   0  0  0  0  0  1  0  0  0  0  0  0
  188.9330  178.0740  139.6680 C   0  0  2  0  0  3  0  0  0  0  0  0
  184.2610  179.4560  139.4430 C   0  0  0  0  0  0  0  0  0  0  0  0
  184.7810  179.3250  140.7260 O   0  0  0  0  0  1  0  0  0  0  0  0
  184.0730  180.6150  138.9870 O   0  0  0  0  0  0  0  0  0  0  0  0
  180.7930  180.1320  138.0040 O   0  0  0  0  0  1  0  0  0  0  0  0
  181.5240  179.4290  137.0430 C   0  0  2  0  0  3  0  0  0  0  0  0
  180.8740  179.6100  135.6700 C   0  0  0  0  0  2  0  0  0  0  0  0
  180.6130  181.0740  135.3540 C   0  0  0  0  0  1  0  0  0  0  0  0
  182.3520  176.1080  139.4660 S   0  0  0  0  0  0  0  0  0  0  0  0
  179.9890  174.9360  140.1690 C   0  0  0  0  0  1  0  0  0  0  0  0
  180.5590  176.2620  139.7100 C   0  0  0  0  0  3  0  0  0  0  0  0
  180.2860  177.3140  140.7630 C   0  0  0  0  0  1  0  0  0  0  0  0
  1 11  2  0  0  0  0
  2 27  1  6  0  0  0
  3  1  1  0  0  0  0
  5  4  1  1  0  0  0
  5  8  1  0  0  0  0
  6 10  1  0  0  0  0
  6  7  1  0  0  0  0
  7  5  1  0  0  0  0
  7  3  1  1  0  0  0
  8 24  1  6  0  0  0
  8  2  1  0  0  0  0
  9 10  1  0  0  0  0
 10  4  2  0  0  0  0
 11  2  1  0  0  0  0
 11 20  1  0  0  0  0
 12 13  2  0  0  0  0
 12 14  1  0  0  0  0
 14  1  1  0  0  0  0
 15 12  1  0  0  0  0
 15 16  1  0  0  0  0
 16 19  1  0  0  0  0
 19 18  1  1  0  0  0
 19 17  1  0  0  0  0
 20 21  1  0  0  0  0
 22 20  2  0  0  0  0
 24 23  1  1  0  0  0
 25 24  1  0  0  0  0
 26 25  1  0  0  0  0
 27 29  1  0  0  0  0
 29 28  1  0  0  0  0
 29 30  1  0  0  0  0
M  END
>  <MODEL>
3

>  <REMARK>
 VINA RESULT:      -5.2      4.011      5.260
  Name = 
  9 active torsions:
  status: ('A' for Active; 'I' for Inactive)
    1  A    between atoms: C_1  and  N_22
    2  A    between atoms: C_2  and  C_14
    3  A    between atoms: C_4  and  S_25
    4  A    between atoms: C_7  and  C_30
    5  A    between atoms: C_10  and  C_23
    6  A    between atoms: C_11  and  S_25
    7  A    between atoms: C_13  and  C_30
    8  A    between atoms: C_14  and  N_28
    9  A    between atoms: N_28  and  C_29
                            x       y       z     vdW  Elec       q    Type
                         _______ _______ _______ _____ _____    ______ ____

>  <TORSDO>
F 9

$$$$
=
 OpenBabel10262421483D

 30 31  0  0  1  0  0  0  0  0999 V2000
  183.7870  177.3810  138.2780 C   0  0  0  0  0  0  0  0  0  0  0  0
  181.7830  178.5710  139.1490 C   0  0  2  0  0  3  0  0  0  0  0  0
  182.8930  176.2350  137.9180 C   0  0  0  0  0  2  0  0  0  0  0  0
  179.7110  176.6390  137.1820 N   0  0  0  0  0  0  0  0  0  0  0  0
  180.8740  177.4760  136.9470 C   0  0  2  0  0  3  0  0  0  0  0  0
  181.3560  175.2800  136.3570 N   0  0  0  0  0  2  0  0  0  0  0  0
  182.0500  176.5150  136.6820 C   0  0  2  0  0  3  0  0  0  0  0  0
  180.9550  178.7130  137.8600 C   0  0  2  0  0  3  0  0  0  0  0  0
  179.0810  174.3790  136.8320 N   0  0  0  0  0  1  0  0  0  0  0  0
  180.0120  175.4520  136.7830 C   0  0  0  0  0  0  0  0  0  0  0  0
  183.2720  178.4530  138.9190 C   0  0  0  0  0  0  0  0  0  0  0  0
  185.7880  177.3050  136.6630 C   0  0  0  0  0  0  0  0  0  0  0  0
  185.0850  177.3300  135.6180 O   0  0  0  0  0  0  0  0  0  0  0  0
  185.1900  177.3180  137.9660 N   0  0  0  0  0  2  0  0  0  0  0  0
  187.2670  177.2250  136.5460 C   0  0  0  0  0  2  0  0  0  0  0  0
  187.8460  176.9060  137.8470 N   0  0  0  0  0  2  0  0  0  0  0  0
  188.0840  178.6830  139.3820 O   0  0  0  0  0  1  0  0  0  0  0  0
  189.0190  178.9760  137.1900 C   0  0  0  0  0  1  0  0  0  0  0  0
  188.6860  178.0080  138.3150 C   0  0  2  0  0  3  0  0  0  0  0  0
  184.1060  179.5900  139.3900 C   0  0  0  0  0  0  0  0  0  0  0  0
  184.9680  179.4670  140.4740 O   0  0  0  0  0  1  0  0  0  0  0  0
  184.0310  180.7030  138.8060 O   0  0  0  0  0  0  0  0  0  0  0  0
  180.8770  181.1230  137.7240 O   0  0  0  0  0  1  0  0  0  0  0  0
  181.3290  179.9760  137.0680 C   0  0  2  0  0  3  0  0  0  0  0  0
  180.7850  179.9530  135.6380 C   0  0  0  0  0  2  0  0  0  0  0  0
  180.5890  181.3550  135.0830 C   0  0  0  0  0  1  0  0  0  0  0  0
  181.1170  177.3440  140.3260 S   0  0  0  0  0  0  0  0  0  0  0  0
  182.0790  178.8160  142.4140 C   0  0  0  0  0  1  0  0  0  0  0  0
  180.8150  178.5930  141.6090 C   0  0  0  0  0  3  0  0  0  0  0  0
  180.4050  179.8950  140.9550 C   0  0  0  0  0  1  0  0  0  0  0  0
  1 11  2  0  0  0  0
  2 27  1  6  0  0  0
  3  1  1  0  0  0  0
  5  4  1  1  0  0  0
  5  8  1  0  0  0  0
  6  7  1  0  0  0  0
  6 10  1  0  0  0  0
  7  5  1  0  0  0  0
  7  3  1  1  0  0  0
  8 24  1  6  0  0  0
  8  2  1  0  0  0  0
 10  9  1  0  0  0  0
 10  4  2  0  0  0  0
 11  2  1  0  0  0  0
 11 20  1  0  0  0  0
 12 14  1  0  0  0  0
 13 12  2  0  0  0  0
 14  1  1  0  0  0  0
 15 12  1  0  0  0  0
 15 16  1  0  0  0  0
 16 19  1  0  0  0  0
 19 18  1  6  0  0  0
 19 17  1  0  0  0  0
 20 21  1  0  0  0  0
 22 20  2  0  0  0  0
 24 23  1  1  0  0  0
 25 24  1  0  0  0  0
 26 25  1  0  0  0  0
 27 29  1  0  0  0  0
 29 28  1  0  0  0  0
 30 29  1  0  0  0  0
M  END
>  <MODEL>
4

>  <REMARK>
 VINA RESULT:      -5.0      3.721      5.798
  Name = 
  9 active torsions:
  status: ('A' for Active; 'I' for Inactive)
    1  A    between atoms: C_1  and  N_22
    2  A    between atoms: C_2  and  C_14
    3  A    between atoms: C_4  and  S_25
    4  A    between atoms: C_7  and  C_30
    5  A    between atoms: C_10  and  C_23
    6  A    between atoms: C_11  and  S_25
    7  A    between atoms: C_13  and  C_30
    8  A    between atoms: C_14  and  N_28
    9  A    between atoms: N_28  and  C_29
                            x       y       z     vdW  Elec       q    Type
                         _______ _______ _______ _____ _____    ______ ____

>  <TORSDO>
F 9

$$$$
=
 OpenBabel10262421483D

 30 31  0  0  1  0  0  0  0  0999 V2000
  185.3340  178.8320  140.2710 C   0  0  0  0  0  0  0  0  0  0  0  0
  183.4460  178.7720  138.6500 C   0  0  2  0  0  3  0  0  0  0  0  0
  184.3820  179.3820  141.2870 C   0  0  0  0  0  2  0  0  0  0  0  0
  181.1580  178.7250  141.2300 N   0  0  0  0  0  0  0  0  0  0  0  0
  182.3160  177.9300  140.8610 C   0  0  2  0  0  3  0  0  0  0  0  0
  182.6870  178.9500  142.9160 N   0  0  0  0  0  2  0  0  0  0  0  0
  183.4380  178.3230  141.8410 C   0  0  2  0  0  3  0  0  0  0  0  0
  182.5100  177.7660  139.3420 C   0  0  2  0  0  3  0  0  0  0  0  0
  180.4420  180.0200  143.0840 N   0  0  0  0  0  1  0  0  0  0  0  0
  181.3920  179.2150  142.3970 C   0  0  0  0  0  0  0  0  0  0  0  0
  184.9050  178.6080  139.0090 C   0  0  0  0  0  0  0  0  0  0  0  0
  187.2040  178.2660  141.9430 C   0  0  0  0  0  0  0  0  0  0  0  0
  186.4420  178.2100  142.9440 O   0  0  0  0  0  0  0  0  0  0  0  0
  186.7000  178.5750  140.6370 N   0  0  0  0  0  2  0  0  0  0  0  0
  188.6620  178.0410  142.1240 C   0  0  0  0  0  2  0  0  0  0  0  0
  188.8920  177.2710  143.3420 N   0  0  0  0  0  2  0  0  0  0  0  0
  190.4810  178.9940  143.6190 O   0  0  0  0  0  1  0  0  0  0  0  0
  190.5870  177.1330  145.1310 C   0  0  0  0  0  1  0  0  0  0  0  0
  189.7070  178.0390  144.2840 C   0  0  2  0  0  3  0  0  0  0  0  0
  185.8070  178.1490  137.9200 C   0  0  0  0  0  0  0  0  0  0  0  0
  186.6910  179.0150  137.2860 O   0  0  0  0  0  0  0  0  0  0  0  0
  185.7710  176.9470  137.5440 O   0  0  0  0  0  1  0  0  0  0  0  0
  182.7580  176.1250  137.5870 O   0  0  0  0  0  1  0  0  0  0  0  0
  182.8430  176.3130  138.9690 C   0  0  2  0  0  3  0  0  0  0  0  0
  181.9410  175.3040  139.6820 C   0  0  0  0  0  2  0  0  0  0  0  0
  180.5410  175.2770  139.0900 C   0  0  0  0  0  1  0  0  0  0  0  0
  182.8580  180.4990  138.7160 S   0  0  0  0  0  0  0  0  0  0  0  0
  180.2060  181.1290  138.5650 C   0  0  0  0  0  1  0  0  0  0  0  0
  181.1910  180.0570  138.1470 C   0  0  0  0  0  3  0  0  0  0  0  0
  181.1920  179.9420  136.6380 C   0  0  0  0  0  1  0  0  0  0  0  0
  1 14  1  0  0  0  0
  1  3  1  0  0  0  0
  2 27  1  1  0  0  0
  2 11  1  0  0  0  0
  2  8  1  0  0  0  0
  4 10  2  0  0  0  0
  5  4  1  6  0  0  0
  5  7  1  0  0  0  0
  7  3  1  6  0  0  0
  7  6  1  0  0  0  0
  8 24  1  1  0  0  0
  8  5  1  0  0  0  0
 10  6  1  0  0  0  0
 10  9  1  0  0  0  0
 11  1  2  0  0  0  0
 12 15  1  0  0  0  0
 12 13  2  0  0  0  0
 14 12  1  0  0  0  0
 15 16  1  0  0  0  0
 16 19  1  0  0  0  0
 17 19  1  0  0  0  0
 19 18  1  6  0  0  0
 20 11  1  0  0  0  0
 21 20  2  0  0  0  0
 22 20  1  0  0  0  0
 24 23  1  6  0  0  0
 24 25  1  0  0  0  0
 26 25  1  0  0  0  0
 29 28  1  0  0  0  0
 29 27  1  0  0  0  0
 30 29  1  0  0  0  0
M  END
>  <MODEL>
5

>  <REMARK>
 VINA RESULT:      -4.8      3.219      5.227
  Name = 
  9 active torsions:
  status: ('A' for Active; 'I' for Inactive)
    1  A    between atoms: C_1  and  N_22
    2  A    between atoms: C_2  and  C_14
    3  A    between atoms: C_4  and  S_25
    4  A    between atoms: C_7  and  C_30
    5  A    between atoms: C_10  and  C_23
    6  A    between atoms: C_11  and  S_25
    7  A    between atoms: C_13  and  C_30
    8  A    between atoms: C_14  and  N_28
    9  A    between atoms: N_28  and  C_29
                            x       y       z     vdW  Elec       q    Type
                         _______ _______ _______ _____ _____    ______ ____

>  <TORSDO>
F 9

$$$$
=
 OpenBabel10262421483D

 30 31  0  0  1  0  0  0  0  0999 V2000
  179.6150  179.4150  139.0070 C   0  0  0  0  0  0  0  0  0  0  0  0
  180.6730  177.3070  139.7990 C   0  0  2  0  0  3  0  0  0  0  0  0
  179.0450  179.5900  140.3810 C   0  0  0  0  0  2  0  0  0  0  0  0
  180.5120  178.3860  143.0700 N   0  0  0  0  0  0  0  0  0  0  0  0
  181.0480  178.9200  141.8310 C   0  0  2  0  0  3  0  0  0  0  0  0
  179.3760  180.3230  142.6310 N   0  0  0  0  0  2  0  0  0  0  0  0
  180.0870  180.0440  141.3940 C   0  0  2  0  0  3  0  0  0  0  0  0
  181.6210  177.8530  140.8800 C   0  0  2  0  0  3  0  0  0  0  0  0
  178.9380  179.0380  144.7210 N   0  0  0  0  0  1  0  0  0  0  0  0
  179.6380  179.2290  143.4980 C   0  0  0  0  0  0  0  0  0  0  0  0
  180.3260  178.3040  138.7170 C   0  0  0  0  0  0  0  0  0  0  0  0
  180.1040  181.6330  137.8000 C   0  0  0  0  0  0  0  0  0  0  0  0
  181.0650  181.9550  138.5480 O   0  0  0  0  0  0  0  0  0  0  0  0
  179.3750  180.4150  138.0020 N   0  0  0  0  0  2  0  0  0  0  0  0
  179.6940  182.5500  136.7050 C   0  0  0  0  0  2  0  0  0  0  0  0
  179.0720  183.7430  137.2710 N   0  0  0  0  0  2  0  0  0  0  0  0
  179.2110  186.0890  137.0560 O   0  0  0  0  0  1  0  0  0  0  0  0
  180.8320  184.7670  135.8770 C   0  0  0  0  0  1  0  0  0  0  0  0
  179.9490  184.9020  137.1080 C   0  0  2  0  0  3  0  0  0  0  0  0
  180.8490  178.0120  137.3560 C   0  0  0  0  0  0  0  0  0  0  0  0
  180.2740  177.0430  136.5420 O   0  0  0  0  0  0  0  0  0  0  0  0
  181.8460  178.6470  136.9210 O   0  0  0  0  0  1  0  0  0  0  0  0
  183.6560  177.1890  139.7610 O   0  0  0  0  0  1  0  0  0  0  0  0
  182.9760  178.2850  140.2980 C   0  0  2  0  0  3  0  0  0  0  0  0
  183.8620  178.9830  141.3320 C   0  0  0  0  0  2  0  0  0  0  0  0
  184.6060  177.9870  142.2070 C   0  0  0  0  0  1  0  0  0  0  0  0
  179.2310  176.4060  140.4630 S   0  0  0  0  0  0  0  0  0  0  0  0
  179.5160  173.7970  141.2160 C   0  0  0  0  0  1  0  0  0  0  0  0
  179.9840  174.7810  140.1630 C   0  0  0  0  0  3  0  0  0  0  0  0
  179.5700  174.2820  138.7950 C   0  0  0  0  0  1  0  0  0  0  0  0
  1  3  1  0  0  0  0
  2 27  1  1  0  0  0
  2  8  1  0  0  0  0
  4 10  2  0  0  0  0
  5  4  1  1  0  0  0
  6 10  1  0  0  0  0
  7  3  1  6  0  0  0
  7  5  1  0  0  0  0
  7  6  1  0  0  0  0
  8 24  1  6  0  0  0
  8  5  1  0  0  0  0
 10  9  1  0  0  0  0
 11  1  2  0  0  0  0
 11  2  1  0  0  0  0
 12 14  1  0  0  0  0
 12 13  2  0  0  0  0
 14  1  1  0  0  0  0
 15 16  1  0  0  0  0
 15 12  1  0  0  0  0
 17 19  1  0  0  0  0
 19 18  1  6  0  0  0
 19 16  1  0  0  0  0
 20 11  1  0  0  0  0
 21 20  2  0  0  0  0
 22 20  1  0  0  0  0
 24 23  1  1  0  0  0
 24 25  1  0  0  0  0
 25 26  1  0  0  0  0
 29 27  1  0  0  0  0
 29 28  1  0  0  0  0
 30 29  1  0  0  0  0
M  END
>  <MODEL>
6

>  <REMARK>
 VINA RESULT:      -4.8      3.689      7.306
  Name = 
  9 active torsions:
  status: ('A' for Active; 'I' for Inactive)
    1  A    between atoms: C_1  and  N_22
    2  A    between atoms: C_2  and  C_14
    3  A    between atoms: C_4  and  S_25
    4  A    between atoms: C_7  and  C_30
    5  A    between atoms: C_10  and  C_23
    6  A    between atoms: C_11  and  S_25
    7  A    between atoms: C_13  and  C_30
    8  A    between atoms: C_14  and  N_28
    9  A    between atoms: N_28  and  C_29
                            x       y       z     vdW  Elec       q    Type
                         _______ _______ _______ _____ _____    ______ ____

>  <TORSDO>
F 9

$$$$
=
 OpenBabel10262421483D

 30 31  0  0  1  0  0  0  0  0999 V2000
  183.8620  177.6670  138.0890 C   0  0  0  0  0  0  0  0  0  0  0  0
  181.4490  178.1400  137.7070 C   0  0  2  0  0  3  0  0  0  0  0  0
  183.7400  178.3570  139.4130 C   0  0  0  0  0  2  0  0  0  0  0  0
  180.9150  178.4590  141.0990 N   0  0  0  0  0  0  0  0  0  0  0  0
  181.4910  177.4450  140.2340 C   0  0  2  0  0  3  0  0  0  0  0  0
  183.1060  178.2250  141.7130 N   0  0  0  0  0  2  0  0  0  0  0  0
  183.0160  177.5100  140.4510 C   0  0  2  0  0  3  0  0  0  0  0  0
  180.8160  177.3350  138.8540 C   0  0  2  0  0  3  0  0  0  0  0  0
  181.5940  179.7670  142.9580 N   0  0  0  0  0  1  0  0  0  0  0  0
  181.8310  178.8090  141.9330 C   0  0  0  0  0  0  0  0  0  0  0  0
  182.7990  177.6250  137.2580 C   0  0  0  0  0  0  0  0  0  0  0  0
  186.3670  177.7600  137.5140 C   0  0  0  0  0  0  0  0  0  0  0  0
  186.4680  179.0060  137.6640 O   0  0  0  0  0  0  0  0  0  0  0  0
  185.1180  177.0820  137.7020 N   0  0  0  0  0  2  0  0  0  0  0  0
  187.5610  176.9770  137.0990 C   0  0  0  0  0  2  0  0  0  0  0  0
  188.7690  177.6210  137.6040 N   0  0  0  0  0  2  0  0  0  0  0  0
  189.0190  178.2640  139.8610 O   0  0  0  0  0  1  0  0  0  0  0  0
  190.3720  176.4460  139.0680 C   0  0  0  0  0  1  0  0  0  0  0  0
  189.0460  177.1840  138.9730 C   0  0  2  0  0  3  0  0  0  0  0  0
  182.8620  177.0400  135.8930 C   0  0  0  0  0  0  0  0  0  0  0  0
  182.7630  175.6700  135.6770 O   0  0  0  0  0  1  0  0  0  0  0  0
  183.0210  177.7950  134.8970 O   0  0  0  0  0  0  0  0  0  0  0  0
  179.7480  175.7920  137.3340 O   0  0  0  0  0  1  0  0  0  0  0  0
  180.5650  175.8700  138.4640 C   0  0  2  0  0  3  0  0  0  0  0  0
  179.9460  175.0580  139.6030 C   0  0  0  0  0  2  0  0  0  0  0  0
  179.3460  173.7510  139.1080 C   0  0  0  0  0  1  0  0  0  0  0  0
  181.3920  179.9480  137.9500 S   0  0  0  0  0  0  0  0  0  0  0  0
  179.6020  179.3930  135.9660 C   0  0  0  0  0  1  0  0  0  0  0  0
  180.8110  180.2570  136.2580 C   0  0  0  0  0  3  0  0  0  0  0  0
  180.4280  181.7150  136.1180 C   0  0  0  0  0  1  0  0  0  0  0  0
  1  3  1  0  0  0  0
  2 27  1  1  0  0  0
  2  8  1  0  0  0  0
  4 10  2  0  0  0  0
  5  7  1  0  0  0  0
  5  4  1  6  0  0  0
  6 10  1  0  0  0  0
  7  3  1  6  0  0  0
  7  6  1  0  0  0  0
  8 24  1  6  0  0  0
  8  5  1  0  0  0  0
 10  9  1  0  0  0  0
 11  2  1  0  0  0  0
 11  1  2  0  0  0  0
 12 13  2  0  0  0  0
 12 14  1  0  0  0  0
 14  1  1  0  0  0  0
 15 12  1  0  0  0  0
 15 16  1  0  0  0  0
 16 19  1  0  0  0  0
 19 18  1  6  0  0  0
 19 17  1  0  0  0  0
 20 11  1  0  0  0  0
 21 20  1  0  0  0  0
 22 20  2  0  0  0  0
 24 23  1  6  0  0  0
 24 25  1  0  0  0  0
 26 25  1  0  0  0  0
 28 29  1  0  0  0  0
 29 27  1  0  0  0  0
 30 29  1  0  0  0  0
M  END
>  <MODEL>
7

>  <REMARK>
 VINA RESULT:      -4.5      3.791      6.392
  Name = 
  9 active torsions:
  status: ('A' for Active; 'I' for Inactive)
    1  A    between atoms: C_1  and  N_22
    2  A    between atoms: C_2  and  C_14
    3  A    between atoms: C_4  and  S_25
    4  A    between atoms: C_7  and  C_30
    5  A    between atoms: C_10  and  C_23
    6  A    between atoms: C_11  and  S_25
    7  A    between atoms: C_13  and  C_30
    8  A    between atoms: C_14  and  N_28
    9  A    between atoms: N_28  and  C_29
                            x       y       z     vdW  Elec       q    Type
                         _______ _______ _______ _____ _____    ______ ____

>  <TORSDO>
F 9

$$$$
=
 OpenBabel10262421483D

 30 31  0  0  1  0  0  0  0  0999 V2000
  190.0820  176.8600  139.4010 C   0  0  0  0  0  0  0  0  0  0  0  0
  188.4060  176.4600  137.6060 C   0  0  2  0  0  3  0  0  0  0  0  0
  191.0190  175.9550  138.6640 C   0  0  0  0  0  2  0  0  0  0  0  0
  190.9000  175.5670  135.3980 N   0  0  0  0  0  0  0  0  0  0  0  0
  190.6340  176.7140  136.2480 C   0  0  2  0  0  3  0  0  0  0  0  0
  192.6160  175.6930  136.9050 N   0  0  0  0  0  2  0  0  0  0  0  0
  191.6200  176.6120  137.4290 C   0  0  2  0  0  3  0  0  0  0  0  0
  189.1400  177.0570  136.3930 C   0  0  2  0  0  3  0  0  0  0  0  0
  192.6230  173.9610  135.1130 N   0  0  0  0  0  1  0  0  0  0  0  0
  192.0340  175.0790  135.7650 C   0  0  0  0  0  0  0  0  0  0  0  0
  188.8270  177.0430  138.9350 C   0  0  0  0  0  0  0  0  0  0  0  0
  190.6780  176.8970  141.9030 C   0  0  0  0  0  0  0  0  0  0  0  0
  190.4200  175.6800  142.0940 O   0  0  0  0  0  0  0  0  0  0  0  0
  190.5140  177.5020  140.6130 N   0  0  0  0  0  2  0  0  0  0  0  0
  191.1280  177.7360  143.0450 C   0  0  0  0  0  2  0  0  0  0  0  0
  191.6780  176.8830  144.0920 N   0  0  0  0  0  2  0  0  0  0  0  0
  192.0400  176.7640  146.4220 O   0  0  0  0  0  1  0  0  0  0  0  0
  189.8090  177.2300  145.6670 C   0  0  0  0  0  1  0  0  0  0  0  0
  191.3000  177.3880  145.4130 C   0  0  2  0  0  3  0  0  0  0  0  0
  187.8080  177.8530  139.6550 C   0  0  0  0  0  0  0  0  0  0  0  0
  186.7020  178.3850  139.0030 O   0  0  0  0  0  0  0  0  0  0  0  0
  187.9460  178.0790  140.8860 O   0  0  0  0  0  1  0  0  0  0  0  0
  189.4180  179.2590  137.3480 O   0  0  0  0  0  1  0  0  0  0  0  0
  188.8930  178.5670  136.2530 C   0  0  2  0  0  3  0  0  0  0  0  0
  187.4090  178.9060  136.0950 C   0  0  0  0  0  2  0  0  0  0  0  0
  186.8060  178.2540  134.8610 C   0  0  0  0  0  1  0  0  0  0  0  0
  188.3170  174.6360  137.5940 S   0  0  0  0  0  0  0  0  0  0  0  0
  186.5200  174.6150  135.5390 C   0  0  0  0  0  1  0  0  0  0  0  0
  186.5840  174.6250  137.0520 C   0  0  0  0  0  3  0  0  0  0  0  0
  185.9000  173.3870  137.5890 C   0  0  0  0  0  1  0  0  0  0  0  0
  1 14  1  0  0  0  0
  2 27  1  1  0  0  0
  2 11  1  0  0  0  0
  3  1  1  0  0  0  0
  4 10  2  0  0  0  0
  5  4  1  1  0  0  0
  5  8  1  0  0  0  0
  5  7  1  0  0  0  0
  6  7  1  0  0  0  0
  7  3  1  1  0  0  0
  8 24  1  1  0  0  0
  8  2  1  0  0  0  0
  9 10  1  0  0  0  0
 10  6  1  0  0  0  0
 11  1  2  0  0  0  0
 11 20  1  0  0  0  0
 12 13  2  0  0  0  0
 12 15  1  0  0  0  0
 14 12  1  0  0  0  0
 15 16  1  0  0  0  0
 16 19  1  0  0  0  0
 19 18  1  1  0  0  0
 19 17  1  0  0  0  0
 20 22  1  0  0  0  0
 21 20  2  0  0  0  0
 24 23  1  1  0  0  0
 25 24  1  0  0  0  0
 26 25  1  0  0  0  0
 28 29  1  0  0  0  0
 29 30  1  0  0  0  0
 29 27  1  0  0  0  0
M  END
>  <MODEL>
8

>  <REMARK>
 VINA RESULT:      -4.4      6.373      7.647
  Name = 
  9 active torsions:
  status: ('A' for Active; 'I' for Inactive)
    1  A    between atoms: C_1  and  N_22
    2  A    between atoms: C_2  and  C_14
    3  A    between atoms: C_4  and  S_25
    4  A    between atoms: C_7  and  C_30
    5  A    between atoms: C_10  and  C_23
    6  A    between atoms: C_11  and  S_25
    7  A    between atoms: C_13  and  C_30
    8  A    between atoms: C_14  and  N_28
    9  A    between atoms: N_28  and  C_29
                            x       y       z     vdW  Elec       q    Type
                         _______ _______ _______ _____ _____    ______ ____

>  <TORSDO>
F 9

$$$$
=
 OpenBabel10262421483D

 30 31  0  0  1  0  0  0  0  0999 V2000
  189.6570  177.4720  139.5950 C   0  0  0  0  0  0  0  0  0  0  0  0
  188.9950  177.1460  137.2180 C   0  0  2  0  0  3  0  0  0  0  0  0
  188.4850  178.3910  139.7470 C   0  0  0  0  0  2  0  0  0  0  0  0
  185.7560  178.0930  137.9310 N   0  0  0  0  0  0  0  0  0  0  0  0
  186.6840  177.1060  138.4550 C   0  0  2  0  0  3  0  0  0  0  0  0
  186.1370  178.6330  140.1200 N   0  0  0  0  0  2  0  0  0  0  0  0
  187.1600  177.6450  139.8190 C   0  0  2  0  0  3  0  0  0  0  0  0
  187.6150  176.4900  137.3950 C   0  0  2  0  0  3  0  0  0  0  0  0
  184.5120  179.9380  138.7530 N   0  0  0  0  0  1  0  0  0  0  0  0
  185.4410  178.8720  138.9060 C   0  0  0  0  0  0  0  0  0  0  0  0
  189.9340  176.9400  138.3850 C   0  0  0  0  0  0  0  0  0  0  0  0
  190.0750  176.7210  142.0190 C   0  0  0  0  0  0  0  0  0  0  0  0
  188.8600  176.5280  142.2850 O   0  0  0  0  0  0  0  0  0  0  0  0
  190.4930  177.1880  140.7290 N   0  0  0  0  0  2  0  0  0  0  0  0
  191.0980  176.4950  143.0740 C   0  0  0  0  0  2  0  0  0  0  0  0
  191.3190  177.7310  143.8160 N   0  0  0  0  0  2  0  0  0  0  0  0
  191.9590  176.4180  145.6700 O   0  0  0  0  0  1  0  0  0  0  0  0
  189.7180  177.2790  145.6400 C   0  0  0  0  0  1  0  0  0  0  0  0
  191.1730  177.4970  145.2530 C   0  0  2  0  0  3  0  0  0  0  0  0
  191.1280  176.0910  138.1300 C   0  0  0  0  0  0  0  0  0  0  0  0
  191.0900  174.7090  138.2760 O   0  0  0  0  0  1  0  0  0  0  0  0
  192.2130  176.6280  137.7820 O   0  0  0  0  0  0  0  0  0  0  0  0
  188.5710  174.4240  136.5870 O   0  0  0  0  0  1  0  0  0  0  0  0
  187.7140  174.9650  137.5500 C   0  0  2  0  0  3  0  0  0  0  0  0
  186.3510  174.2770  137.4680 C   0  0  0  0  0  2  0  0  0  0  0  0
  186.4750  172.8150  137.0690 C   0  0  0  0  0  1  0  0  0  0  0  0
  188.9250  178.8710  136.6230 S   0  0  0  0  0  0  0  0  0  0  0  0
  189.5260  177.1460  134.5940 C   0  0  0  0  0  1  0  0  0  0  0  0
  188.6830  178.3690  134.8950 C   0  0  0  0  0  3  0  0  0  0  0  0
  187.2240  178.0360  134.6690 C   0  0  0  0  0  1  0  0  0  0  0  0
  1  3  1  0  0  0  0
  1 14  1  0  0  0  0
  2 27  1  1  0  0  0
  2  8  1  0  0  0  0
  2 11  1  0  0  0  0
  4 10  2  0  0  0  0
  5  4  1  6  0  0  0
  5  7  1  0  0  0  0
  7  3  1  6  0  0  0
  7  6  1  0  0  0  0
  8 24  1  1  0  0  0
  8  5  1  0  0  0  0
  9 10  1  0  0  0  0
 10  6  1  0  0  0  0
 11  1  2  0  0  0  0
 12 13  2  0  0  0  0
 12 15  1  0  0  0  0
 14 12  1  0  0  0  0
 15 16  1  0  0  0  0
 16 19  1  0  0  0  0
 19 18  1  6  0  0  0
 19 17  1  0  0  0  0
 20 21  1  0  0  0  0
 20 11  1  0  0  0  0
 22 20  2  0  0  0  0
 24 23  1  6  0  0  0
 25 24  1  0  0  0  0
 26 25  1  0  0  0  0
 28 29  1  0  0  0  0
 29 27  1  0  0  0  0
 30 29  1  0  0  0  0
M  END
>  <MODEL>
9

>  <REMARK>
 VINA RESULT:      -4.4      5.523      8.045
  Name = 
  9 active torsions:
  status: ('A' for Active; 'I' for Inactive)
    1  A    between atoms: C_1  and  N_22
    2  A    between atoms: C_2  and  C_14
    3  A    between atoms: C_4  and  S_25
    4  A    between atoms: C_7  and  C_30
    5  A    between atoms: C_10  and  C_23
    6  A    between atoms: C_11  and  S_25
    7  A    between atoms: C_13  and  C_30
    8  A    between atoms: C_14  and  N_28
    9  A    between atoms: N_28  and  C_29
                            x       y       z     vdW  Elec       q    Type
                         _______ _______ _______ _____ _____    ______ ____

>  <TORSDO>
F 9

$$$$
