=
 OpenBabel10262421483D

 30 33  0  0  1  0  0  0  0  0999 V2000
  185.6530  178.3910  139.8070 C   0  0  2  0  0  3  0  0  0  0  0  0
  187.9710  176.1610  142.6060 O   0  0  0  0  0  1  0  0  0  0  0  0
  187.9030  178.5190  141.1330 C   0  0  1  0  0  3  0  0  0  0  0  0
  186.2920  177.3470  138.8970 C   0  0  0  0  0  2  0  0  0  0  0  0
  189.0380  178.9300  137.0670 C   0  0  0  0  0  2  0  0  0  0  0  0
  187.9640  178.9160  138.0640 N   0  0  0  0  0  2  0  0  0  0  0  0
  188.3080  176.4310  137.8330 C   0  0  0  0  0  2  0  0  0  0  0  0
  184.3810  177.6970  142.4910 F   0  0  0  0  0  0  0  0  0  0  0  0
  187.9640  177.4180  143.2210 C   0  0  2  0  0  3  0  0  0  0  0  0
  187.7920  177.5930  138.7070 C   0  0  2  0  0  0  0  0  0  0  0  0
  188.5060  177.5500  140.0860 C   0  0  1  0  0  3  0  0  0  0  0  0
  185.7910  179.6000  142.0590 C   0  0  0  0  0  2  0  0  0  0  0  0
  188.7050  178.0020  135.8970 C   0  0  0  0  0  2  0  0  0  0  0  0
  188.0410  176.7020  136.3550 C   0  0  0  0  0  2  0  0  0  0  0  0
  186.3580  178.5050  141.1690 C   0  0  1  0  0  0  0  0  0  0  0  0
  186.5640  177.8060  143.6740 C   0  0  0  0  0  2  0  0  0  0  0  0
  188.5410  178.4190  142.4020 O   0  0  0  0  0  0  0  0  0  0  0  0
  185.6820  178.1440  142.4840 C   0  0  2  0  0  0  0  0  0  0  0  0
  183.6740  179.6470  139.1140 C   0  0  0  0  0  0  0  0  0  0  0  0
  184.5490  180.6730  138.7660 O   0  0  0  0  0  1  0  0  0  0  0  0
  184.1440  178.5180  139.6840 C   0  0  0  0  0  0  0  0  0  0  0  0
  181.8720  177.7800  140.6220 C   0  0  0  0  0  1  0  0  0  0  0  0
  182.9120  176.5000  138.7840 C   0  0  0  0  0  1  0  0  0  0  0  0
  183.1970  177.3630  140.0030 C   0  0  0  0  0  3  0  0  0  0  0  0
  182.2270  179.8370  138.7900 C   0  0  0  0  0  2  0  0  0  0  0  0
  181.9470  181.1990  138.6770 O   0  0  0  0  0  1  0  0  0  0  0  0
  190.6180  176.4570  139.1770 C   0  0  0  0  0  1  0  0  0  0  0  0
  190.0450  177.6200  139.9690 C   0  0  2  0  0  3  0  0  0  0  0  0
  190.7980  177.8540  141.2820 C   0  0  0  0  0  2  0  0  0  0  0  0
  192.1450  177.5030  141.1720 O   0  0  0  0  0  1  0  0  0  0  0  0
  1 21  1  1  0  0  0
  1 15  1  0  0  0  0
  3 15  1  0  0  0  0
  3 17  1  1  0  0  0
  4  1  1  0  0  0  0
  5  6  1  0  0  0  0
  6 10  1  0  0  0  0
  9  2  1  6  0  0  0
  9 16  1  0  0  0  0
 10  7  1  6  0  0  0
 10  4  1  0  0  0  0
 10 11  1  0  0  0  0
 11 28  1  6  0  0  0
 11  3  1  0  0  0  0
 12 18  1  0  0  0  0
 13 14  1  0  0  0  0
 13  5  1  0  0  0  0
 14  7  1  0  0  0  0
 15 12  1  1  0  0  0
 15 18  1  0  0  0  0
 17  9  1  0  0  0  0
 18  8  1  6  0  0  0
 18 16  1  0  0  0  0
 19 21  2  0  0  0  0
 20 19  1  0  0  0  0
 21 24  1  0  0  0  0
 23 24  1  0  0  0  0
 24 22  1  0  0  0  0
 25 19  1  0  0  0  0
 26 25  1  0  0  0  0
 28 27  1  1  0  0  0
 28 29  1  0  0  0  0
 30 29  1  0  0  0  0
M  END
>  <MODEL>
1

>  <REMARK>
 VINA RESULT:      -6.3      0.000      0.000
  Name = 
  5 active torsions:
  status: ('A' for Active; 'I' for Inactive)
    1  A    between atoms: C_1  and  C_22
    2  A    between atoms: C_2  and  C_14
    3  A    between atoms: C_7  and  C_30
    4  A    between atoms: C_13  and  C_30
    5  A    between atoms: C_22  and  C_29
                            x       y       z     vdW  Elec       q    Type
                         _______ _______ _______ _____ _____    ______ ____

>  <TORSDO>
F 5

$$$$
=
 OpenBabel10262421483D

 30 33  0  0  1  0  0  0  0  0999 V2000
  183.5650  177.3450  138.0160 C   0  0  2  0  0  3  0  0  0  0  0  0
  182.1650  174.0940  135.6390 O   0  0  0  0  0  1  0  0  0  0  0  0
  183.9510  174.7850  137.6560 C   0  0  1  0  0  3  0  0  0  0  0  0
  184.2960  177.6030  136.7030 C   0  0  0  0  0  2  0  0  0  0  0  0
  187.7750  176.5300  137.0840 C   0  0  0  0  0  2  0  0  0  0  0  0
  186.3930  176.6830  137.5470 N   0  0  0  0  0  2  0  0  0  0  0  0
  185.9970  176.9150  135.0690 C   0  0  0  0  0  2  0  0  0  0  0  0
  180.6010  176.6410  138.1540 F   0  0  0  0  0  0  0  0  0  0  0  0
  182.0940  173.5280  136.9170 C   0  0  2  0  0  3  0  0  0  0  0  0
  185.4020  176.5730  136.4520 C   0  0  2  0  0  0  0  0  0  0  0  0
  184.7860  175.1470  136.4030 C   0  0  1  0  0  3  0  0  0  0  0  0
  182.3470  175.6110  139.4530 C   0  0  0  0  0  2  0  0  0  0  0  0
  188.1590  177.6660  136.1350 C   0  0  0  0  0  2  0  0  0  0  0  0
  187.0220  178.0390  135.1810 C   0  0  0  0  0  2  0  0  0  0  0  0
  183.0050  175.9170  138.1160 C   0  0  1  0  0  0  0  0  0  0  0  0
  181.0480  174.2260  137.7750 C   0  0  0  0  0  2  0  0  0  0  0  0
  183.3550  173.4950  137.5610 O   0  0  0  0  0  0  0  0  0  0  0  0
  181.5150  175.6130  138.1800 C   0  0  2  0  0  0  0  0  0  0  0  0
  181.8920  179.1090  137.7610 C   0  0  0  0  0  0  0  0  0  0  0  0
  181.7620  178.6800  136.4420 O   0  0  0  0  0  1  0  0  0  0  0  0
  182.8020  178.5350  138.5740 C   0  0  0  0  0  0  0  0  0  0  0  0
  181.8090  178.3910  140.9360 C   0  0  0  0  0  1  0  0  0  0  0  0
  184.2510  178.6140  140.6470 C   0  0  0  0  0  1  0  0  0  0  0  0
  182.9000  178.9550  140.0400 C   0  0  0  0  0  3  0  0  0  0  0  0
  180.9640  180.1840  138.2290 C   0  0  0  0  0  2  0  0  0  0  0  0
  181.5010  181.4340  137.9220 O   0  0  0  0  0  1  0  0  0  0  0  0
  185.3570  173.2870  134.7600 C   0  0  0  0  0  1  0  0  0  0  0  0
  185.8070  174.0650  135.9850 C   0  0  2  0  0  3  0  0  0  0  0  0
  186.2910  173.1450  137.1090 C   0  0  0  0  0  2  0  0  0  0  0  0
  187.6550  172.8670  136.9950 O   0  0  0  0  0  1  0  0  0  0  0  0
  1 15  1  0  0  0  0
  1 21  1  6  0  0  0
  3 17  1  6  0  0  0
  3 15  1  0  0  0  0
  4  1  1  0  0  0  0
  5  6  1  0  0  0  0
  7 14  1  0  0  0  0
  9  2  1  6  0  0  0
  9 17  1  0  0  0  0
  9 16  1  0  0  0  0
 10  7  1  6  0  0  0
 10  4  1  0  0  0  0
 10  6  1  0  0  0  0
 11 28  1  1  0  0  0
 11 10  1  0  0  0  0
 11  3  1  0  0  0  0
 13  5  1  0  0  0  0
 14 13  1  0  0  0  0
 15 18  1  0  0  0  0
 15 12  1  1  0  0  0
 16 18  1  0  0  0  0
 18  8  1  6  0  0  0
 18 12  1  0  0  0  0
 19 25  1  0  0  0  0
 19 21  2  0  0  0  0
 20 19  1  0  0  0  0
 21 24  1  0  0  0  0
 24 23  1  0  0  0  0
 24 22  1  0  0  0  0
 26 25  1  0  0  0  0
 28 27  1  6  0  0  0
 28 29  1  0  0  0  0
 30 29  1  0  0  0  0
M  END
>  <MODEL>
2

>  <REMARK>
 VINA RESULT:      -5.6      3.533      5.378
  Name = 
  5 active torsions:
  status: ('A' for Active; 'I' for Inactive)
    1  A    between atoms: C_1  and  C_22
    2  A    between atoms: C_2  and  C_14
    3  A    between atoms: C_7  and  C_30
    4  A    between atoms: C_13  and  C_30
    5  A    between atoms: C_22  and  C_29
                            x       y       z     vdW  Elec       q    Type
                         _______ _______ _______ _____ _____    ______ ____

>  <TORSDO>
F 5

$$$$
=
 OpenBabel10262421483D

 30 33  0  0  1  0  0  0  0  0999 V2000
  182.6420  175.0690  137.3940 C   0  0  2  0  0  3  0  0  0  0  0  0
  179.7310  174.1070  140.3570 O   0  0  0  0  0  1  0  0  0  0  0  0
  180.2760  175.8080  138.2250 C   0  0  1  0  0  3  0  0  0  0  0  0
  183.2430  175.7370  138.6270 C   0  0  0  0  0  2  0  0  0  0  0  0
  182.6200  179.3370  138.4120 C   0  0  0  0  0  2  0  0  0  0  0  0
  182.4870  177.9550  137.9450 N   0  0  0  0  0  2  0  0  0  0  0  0
  183.1220  177.4940  140.3400 C   0  0  0  0  0  2  0  0  0  0  0  0
  181.5130  172.2360  137.4270 F   0  0  0  0  0  0  0  0  0  0  0  0
  178.9300  174.1350  139.2100 C   0  0  2  0  0  3  0  0  0  0  0  0
  182.4450  176.9740  139.0540 C   0  0  2  0  0  0  0  0  0  0  0  0
  180.9820  176.5640  139.3770 C   0  0  1  0  0  3  0  0  0  0  0  0
  180.5140  174.1300  136.3240 C   0  0  0  0  0  2  0  0  0  0  0  0
  183.9570  179.5440  139.1260 C   0  0  0  0  0  2  0  0  0  0  0  0
  184.3390  178.3510  140.0050 C   0  0  0  0  0  2  0  0  0  0  0  0
  181.1560  174.7180  137.5720 C   0  0  1  0  0  0  0  0  0  0  0  0
  179.3000  173.0140  138.2490 C   0  0  0  0  0  2  0  0  0  0  0  0
  178.9560  175.3970  138.5690 O   0  0  0  0  0  0  0  0  0  0  0  0
  180.6380  173.2870  137.5840 C   0  0  2  0  0  0  0  0  0  0  0  0
  183.9500  174.5520  135.3950 C   0  0  0  0  0  0  0  0  0  0  0  0
  183.3860  175.6940  134.8320 O   0  0  0  0  0  1  0  0  0  0  0  0
  183.5850  174.1540  136.6310 C   0  0  0  0  0  0  0  0  0  0  0  0
  184.2030  171.6700  136.4490 C   0  0  0  0  0  1  0  0  0  0  0  0
  185.6990  173.2170  137.6600 C   0  0  0  0  0  1  0  0  0  0  0  0
  184.2520  172.9430  137.2790 C   0  0  0  0  0  3  0  0  0  0  0  0
  184.9890  173.8320  134.5960 C   0  0  0  0  0  2  0  0  0  0  0  0
  186.1730  174.5680  134.5940 O   0  0  0  0  0  1  0  0  0  0  0  0
  179.6280  177.3960  141.3670 C   0  0  0  0  0  1  0  0  0  0  0  0
  180.1530  177.7210  139.9790 C   0  0  2  0  0  3  0  0  0  0  0  0
  179.0650  178.2970  139.0680 C   0  0  0  0  0  2  0  0  0  0  0  0
  179.1200  179.6910  139.0190 O   0  0  0  0  0  1  0  0  0  0  0  0
  1 21  1  1  0  0  0
  1 15  1  0  0  0  0
  1  4  1  0  0  0  0
  3 17  1  1  0  0  0
  3 11  1  0  0  0  0
  5 13  1  0  0  0  0
  6  5  1  0  0  0  0
  6 10  1  0  0  0  0
  9  2  1  1  0  0  0
 10  4  1  6  0  0  0
 10 11  1  0  0  0  0
 10  7  1  0  0  0  0
 11 28  1  6  0  0  0
 12 18  1  0  0  0  0
 13 14  1  0  0  0  0
 14  7  1  0  0  0  0
 15 12  1  6  0  0  0
 15 18  1  0  0  0  0
 15  3  1  0  0  0  0
 16  9  1  0  0  0  0
 17  9  1  0  0  0  0
 18  8  1  6  0  0  0
 18 16  1  0  0  0  0
 19 21  2  0  0  0  0
 20 19  1  0  0  0  0
 21 24  1  0  0  0  0
 22 24  1  0  0  0  0
 24 23  1  0  0  0  0
 25 19  1  0  0  0  0
 26 25  1  0  0  0  0
 28 27  1  1  0  0  0
 29 28  1  0  0  0  0
 30 29  1  0  0  0  0
M  END
>  <MODEL>
3

>  <REMARK>
 VINA RESULT:      -5.5      4.863      8.093
  Name = 
  5 active torsions:
  status: ('A' for Active; 'I' for Inactive)
    1  A    between atoms: C_1  and  C_22
    2  A    between atoms: C_2  and  C_14
    3  A    between atoms: C_7  and  C_30
    4  A    between atoms: C_13  and  C_30
    5  A    between atoms: C_22  and  C_29
                            x       y       z     vdW  Elec       q    Type
                         _______ _______ _______ _____ _____    ______ ____

>  <TORSDO>
F 5

$$$$
=
 OpenBabel10262421483D

 30 33  0  0  1  0  0  0  0  0999 V2000
  184.5980  176.3630  136.7160 C   0  0  2  0  0  3  0  0  0  0  0  0
  188.5490  175.9090  138.2530 O   0  0  0  0  0  1  0  0  0  0  0  0
  187.0100  175.7120  135.9450 C   0  0  1  0  0  3  0  0  0  0  0  0
  184.4930  175.0080  137.4070 C   0  0  0  0  0  2  0  0  0  0  0  0
  184.6080  172.3920  134.8500 C   0  0  0  0  0  2  0  0  0  0  0  0
  184.6760  173.7840  135.3040 N   0  0  0  0  0  2  0  0  0  0  0  0
  185.1290  172.6370  137.5020 C   0  0  0  0  0  2  0  0  0  0  0  0
  185.9200  178.7880  138.0110 F   0  0  0  0  0  0  0  0  0  0  0  0
  188.8010  176.6990  137.1250 C   0  0  2  0  0  3  0  0  0  0  0  0
  185.2670  173.9200  136.6550 C   0  0  2  0  0  0  0  0  0  0  0  0
  186.7670  174.3150  136.5670 C   0  0  1  0  0  3  0  0  0  0  0  0
  186.1820  178.1100  135.7160 C   0  0  0  0  0  2  0  0  0  0  0  0
  183.6680  171.5750  135.7380 C   0  0  0  0  0  2  0  0  0  0  0  0
  183.8030  171.9390  137.2180 C   0  0  0  0  0  2  0  0  0  0  0  0
  186.0540  176.8010  136.4810 C   0  0  1  0  0  0  0  0  0  0  0  0
  188.1840  178.0830  137.2690 C   0  0  0  0  0  2  0  0  0  0  0  0
  188.3880  176.0690  135.9260 O   0  0  0  0  0  0  0  0  0  0  0  0
  186.6720  178.0190  137.1530 C   0  0  2  0  0  0  0  0  0  0  0  0
  182.6800  177.7530  136.1140 C   0  0  0  0  0  0  0  0  0  0  0  0
  182.8810  177.3200  134.8060 O   0  0  0  0  0  1  0  0  0  0  0  0
  183.5230  177.3670  137.0940 C   0  0  0  0  0  0  0  0  0  0  0  0
  182.9620  179.2610  138.7320 C   0  0  0  0  0  1  0  0  0  0  0  0
  182.1490  176.9730  139.1830 C   0  0  0  0  0  1  0  0  0  0  0  0
  183.2640  177.7840  138.5410 C   0  0  0  0  0  3  0  0  0  0  0  0
  181.4850  178.6130  136.3780 C   0  0  0  0  0  2  0  0  0  0  0  0
  180.3330  177.9620  135.9350 O   0  0  0  0  0  1  0  0  0  0  0  0
  188.6930  172.6960  136.9590 C   0  0  0  0  0  1  0  0  0  0  0  0
  187.6490  173.1930  135.9730 C   0  0  2  0  0  3  0  0  0  0  0  0
  188.2470  173.4830  134.5940 C   0  0  0  0  0  2  0  0  0  0  0  0
  189.6350  173.3390  134.5940 O   0  0  0  0  0  1  0  0  0  0  0  0
  1 21  1  1  0  0  0
  1  4  1  0  0  0  0
  3 17  1  1  0  0  0
  3 15  1  0  0  0  0
  3 11  1  0  0  0  0
  5  6  1  0  0  0  0
  5 13  1  0  0  0  0
  6 10  1  0  0  0  0
  9 16  1  0  0  0  0
  9  2  1  1  0  0  0
 10  4  1  1  0  0  0
 10  7  1  0  0  0  0
 11 28  1  6  0  0  0
 11 10  1  0  0  0  0
 12 18  1  0  0  0  0
 13 14  1  0  0  0  0
 14  7  1  0  0  0  0
 15 12  1  6  0  0  0
 15  1  1  0  0  0  0
 15 18  1  0  0  0  0
 17  9  1  0  0  0  0
 18 16  1  0  0  0  0
 18  8  1  1  0  0  0
 19 25  1  0  0  0  0
 19 21  2  0  0  0  0
 20 19  1  0  0  0  0
 21 24  1  0  0  0  0
 24 22  1  0  0  0  0
 24 23  1  0  0  0  0
 26 25  1  0  0  0  0
 28 27  1  1  0  0  0
 29 28  1  0  0  0  0
 30 29  1  0  0  0  0
M  END
>  <MODEL>
4

>  <REMARK>
 VINA RESULT:      -5.4      4.003      5.530
  Name = 
  5 active torsions:
  status: ('A' for Active; 'I' for Inactive)
    1  A    between atoms: C_1  and  C_22
    2  A    between atoms: C_2  and  C_14
    3  A    between atoms: C_7  and  C_30
    4  A    between atoms: C_13  and  C_30
    5  A    between atoms: C_22  and  C_29
                            x       y       z     vdW  Elec       q    Type
                         _______ _______ _______ _____ _____    ______ ____

>  <TORSDO>
F 5

$$$$
=
 OpenBabel10262421483D

 30 33  0  0  1  0  0  0  0  0999 V2000
  186.0620  176.4390  136.8990 C   0  0  2  0  0  3  0  0  0  0  0  0
  184.6300  172.5030  137.6960 O   0  0  0  0  0  1  0  0  0  0  0  0
  184.5240  174.5940  135.8670 C   0  0  1  0  0  3  0  0  0  0  0  0
  184.9710  176.7230  137.9250 C   0  0  0  0  0  2  0  0  0  0  0  0
  182.0340  178.0160  136.1630 C   0  0  0  0  0  2  0  0  0  0  0  0
  183.3850  177.4500  136.2190 N   0  0  0  0  0  2  0  0  0  0  0  0
  182.5840  176.7600  138.5060 C   0  0  0  0  0  2  0  0  0  0  0  0
  188.1150  174.2080  137.2360 F   0  0  0  0  0  0  0  0  0  0  0  0
  185.0690  172.3540  136.3760 C   0  0  2  0  0  3  0  0  0  0  0  0
  183.5690  176.5070  137.3450 C   0  0  2  0  0  0  0  0  0  0  0  0
  183.4250  175.0360  136.8650 C   0  0  1  0  0  3  0  0  0  0  0  0
  186.9730  174.7630  135.1900 C   0  0  0  0  0  2  0  0  0  0  0  0
  181.7520  178.8710  137.3990 C   0  0  0  0  0  2  0  0  0  0  0  0
  182.3190  178.2520  138.6790 C   0  0  0  0  0  2  0  0  0  0  0  0
  185.9460  175.0360  136.2790 C   0  0  1  0  0  0  0  0  0  0  0  0
  186.5800  172.5060  136.2740 C   0  0  0  0  0  2  0  0  0  0  0  0
  184.3990  173.2280  135.4870 O   0  0  0  0  0  0  0  0  0  0  0  0
  186.9960  173.9530  136.4770 C   0  0  2  0  0  0  0  0  0  0  0  0
  187.8660  177.9930  136.3470 C   0  0  0  0  0  0  0  0  0  0  0  0
  187.1530  178.2770  135.1850 O   0  0  0  0  0  1  0  0  0  0  0  0
  187.4160  177.0570  137.2070 C   0  0  0  0  0  0  0  0  0  0  0  0
  189.6520  176.5660  138.3650 C   0  0  0  0  0  1  0  0  0  0  0  0
  187.9350  177.8980  139.5370 C   0  0  0  0  0  1  0  0  0  0  0  0
  188.1570  176.7930  138.5170 C   0  0  0  0  0  3  0  0  0  0  0  0
  189.1030  178.7920  136.6080 C   0  0  0  0  0  2  0  0  0  0  0  0
  188.7700  179.9610  137.2930 O   0  0  0  0  0  1  0  0  0  0  0  0
  181.4120  173.5140  137.1980 C   0  0  0  0  0  1  0  0  0  0  0  0
  181.9870  174.6860  136.4220 C   0  0  2  0  0  3  0  0  0  0  0  0
  181.7780  174.5400  134.9120 C   0  0  0  0  0  2  0  0  0  0  0  0
  181.1490  173.3350  134.5940 O   0  0  0  0  0  1  0  0  0  0  0  0
  1 21  1  1  0  0  0
  1  4  1  0  0  0  0
  3 17  1  1  0  0  0
  3 15  1  0  0  0  0
  3 11  1  0  0  0  0
  5  6  1  0  0  0  0
  5 13  1  0  0  0  0
  6 10  1  0  0  0  0
  7 14  1  0  0  0  0
  9  2  1  1  0  0  0
 10  4  1  1  0  0  0
 10  7  1  0  0  0  0
 11 28  1  6  0  0  0
 11 10  1  0  0  0  0
 12 18  1  0  0  0  0
 13 14  1  0  0  0  0
 15 12  1  6  0  0  0
 15 18  1  0  0  0  0
 15  1  1  0  0  0  0
 16  9  1  0  0  0  0
 16 18  1  0  0  0  0
 17  9  1  0  0  0  0
 18  8  1  1  0  0  0
 19 25  1  0  0  0  0
 19 21  2  0  0  0  0
 20 19  1  0  0  0  0
 21 24  1  0  0  0  0
 22 24  1  0  0  0  0
 24 23  1  0  0  0  0
 25 26  1  0  0  0  0
 28 27  1  1  0  0  0
 29 28  1  0  0  0  0
 30 29  1  0  0  0  0
M  END
>  <MODEL>
5

>  <REMARK>
 VINA RESULT:      -5.4      4.021      7.422
  Name = 
  5 active torsions:
  status: ('A' for Active; 'I' for Inactive)
    1  A    between atoms: C_1  and  C_22
    2  A    between atoms: C_2  and  C_14
    3  A    between atoms: C_7  and  C_30
    4  A    between atoms: C_13  and  C_30
    5  A    between atoms: C_22  and  C_29
                            x       y       z     vdW  Elec       q    Type
                         _______ _______ _______ _____ _____    ______ ____

>  <TORSDO>
F 5

$$$$
=
 OpenBabel10262421483D

 30 33  0  0  1  0  0  0  0  0999 V2000
  183.2800  176.3450  137.0350 C   0  0  2  0  0  3  0  0  0  0  0  0
  185.1580  177.8720  140.5450 O   0  0  0  0  0  1  0  0  0  0  0  0
  184.9310  178.2230  137.7960 C   0  0  1  0  0  3  0  0  0  0  0  0
  184.3990  175.3290  137.2370 C   0  0  0  0  0  2  0  0  0  0  0  0
  187.0690  176.0580  134.8410 C   0  0  0  0  0  2  0  0  0  0  0  0
  185.7900  176.3330  135.5010 N   0  0  0  0  0  2  0  0  0  0  0  0
  186.8020  174.8160  137.2400 C   0  0  0  0  0  2  0  0  0  0  0  0
  181.4930  177.3190  139.3080 F   0  0  0  0  0  0  0  0  0  0  0  0
  184.6530  179.0530  139.9890 C   0  0  2  0  0  3  0  0  0  0  0  0
  185.7760  175.9250  136.9240 C   0  0  2  0  0  0  0  0  0  0  0  0
  186.0400  177.1430  137.8530 C   0  0  1  0  0  3  0  0  0  0  0  0
  182.4390  178.7020  137.5780 C   0  0  0  0  0  2  0  0  0  0  0  0
  187.3400  174.5530  134.7870 C   0  0  0  0  0  2  0  0  0  0  0  0
  186.9220  173.8390  136.0740 C   0  0  0  0  0  2  0  0  0  0  0  0
  183.5000  177.6410  137.8320 C   0  0  1  0  0  0  0  0  0  0  0  0
  183.1310  179.0600  139.9900 C   0  0  0  0  0  2  0  0  0  0  0  0
  185.1720  179.3000  138.6960 O   0  0  0  0  0  0  0  0  0  0  0  0
  182.5820  178.0860  138.9620 C   0  0  2  0  0  0  0  0  0  0  0  0
  181.2390  176.0580  135.7210 C   0  0  0  0  0  0  0  0  0  0  0  0
  181.7900  176.9660  134.8210 O   0  0  0  0  0  1  0  0  0  0  0  0
  181.8920  175.7500  136.8610 C   0  0  0  0  0  0  0  0  0  0  0  0
  179.9220  174.9980  138.3220 C   0  0  0  0  0  1  0  0  0  0  0  0
  181.3390  173.3070  137.2150 C   0  0  0  0  0  1  0  0  0  0  0  0
  181.3250  174.7030  137.8170 C   0  0  0  0  0  3  0  0  0  0  0  0
  179.9370  175.4230  135.3490 C   0  0  0  0  0  2  0  0  0  0  0  0
  178.9390  176.3950  135.2980 O   0  0  0  0  0  1  0  0  0  0  0  0
  188.1820  177.7990  139.0620 C   0  0  0  0  0  1  0  0  0  0  0  0
  187.4750  177.6990  137.7210 C   0  0  2  0  0  3  0  0  0  0  0  0
  187.6140  178.9820  136.8970 C   0  0  0  0  0  2  0  0  0  0  0  0
  188.7610  179.6970  137.2460 O   0  0  0  0  0  1  0  0  0  0  0  0
  1 21  1  1  0  0  0
  1  4  1  0  0  0  0
  1 15  1  0  0  0  0
  3 15  1  0  0  0  0
  3 11  1  0  0  0  0
  3 17  1  1  0  0  0
  5  6  1  0  0  0  0
  6 10  1  0  0  0  0
  9 16  1  0  0  0  0
  9  2  1  6  0  0  0
 10  4  1  1  0  0  0
 10  7  1  0  0  0  0
 10 11  1  0  0  0  0
 11 28  1  6  0  0  0
 12 18  1  0  0  0  0
 13  5  1  0  0  0  0
 13 14  1  0  0  0  0
 14  7  1  0  0  0  0
 15 12  1  6  0  0  0
 15 18  1  0  0  0  0
 17  9  1  0  0  0  0
 18  8  1  1  0  0  0
 18 16  1  0  0  0  0
 19 21  2  0  0  0  0
 20 19  1  0  0  0  0
 21 24  1  0  0  0  0
 23 24  1  0  0  0  0
 24 22  1  0  0  0  0
 25 19  1  0  0  0  0
 26 25  1  0  0  0  0
 28 27  1  1  0  0  0
 29 30  1  0  0  0  0
 29 28  1  0  0  0  0
M  END
>  <MODEL>
6

>  <REMARK>
 VINA RESULT:      -5.3      3.052      4.531
  Name = 
  5 active torsions:
  status: ('A' for Active; 'I' for Inactive)
    1  A    between atoms: C_1  and  C_22
    2  A    between atoms: C_2  and  C_14
    3  A    between atoms: C_7  and  C_30
    4  A    between atoms: C_13  and  C_30
    5  A    between atoms: C_22  and  C_29
                            x       y       z     vdW  Elec       q    Type
                         _______ _______ _______ _____ _____    ______ ____

>  <TORSDO>
F 5

$$$$
=
 OpenBabel10262421483D

 30 33  0  0  1  0  0  0  0  0999 V2000
  188.5560  177.5510  142.5560 C   0  0  2  0  0  3  0  0  0  0  0  0
  185.1870  180.1530  142.7980 O   0  0  0  0  0  1  0  0  0  0  0  0
  186.0210  177.6470  141.9250 C   0  0  1  0  0  3  0  0  0  0  0  0
  188.8410  178.5110  141.4060 C   0  0  0  0  0  2  0  0  0  0  0  0
  188.0000  176.8350  138.2620 C   0  0  0  0  0  2  0  0  0  0  0  0
  188.0710  176.9200  139.7240 N   0  0  0  0  0  2  0  0  0  0  0  0
  188.2410  179.3760  139.1860 C   0  0  0  0  0  2  0  0  0  0  0  0
  187.6650  178.4880  145.3180 F   0  0  0  0  0  0  0  0  0  0  0  0
  184.6360  178.9710  143.3060 C   0  0  2  0  0  3  0  0  0  0  0  0
  187.8810  178.2980  140.2310 C   0  0  2  0  0  0  0  0  0  0  0  0
  186.4180  178.5170  140.7070 C   0  0  1  0  0  3  0  0  0  0  0  0
  186.7690  176.5990  144.1230 C   0  0  0  0  0  2  0  0  0  0  0  0
  189.1450  177.6180  137.6170 C   0  0  0  0  0  2  0  0  0  0  0  0
  189.4300  178.9360  138.3390 C   0  0  0  0  0  2  0  0  0  0  0  0
  187.0960  177.6110  143.0340 C   0  0  1  0  0  0  0  0  0  0  0  0
  185.2780  178.5850  144.6310 C   0  0  0  0  0  2  0  0  0  0  0  0
  184.6950  177.9080  142.3730 O   0  0  0  0  0  0  0  0  0  0  0  0
  186.6980  178.0890  144.4230 C   0  0  2  0  0  0  0  0  0  0  0  0
  190.4350  176.2330  143.3980 C   0  0  0  0  0  0  0  0  0  0  0  0
  190.0660  175.2660  142.4680 O   0  0  0  0  0  1  0  0  0  0  0  0
  189.7020  177.3580  143.5350 C   0  0  0  0  0  0  0  0  0  0  0  0
  190.4900  177.9620  145.9010 C   0  0  0  0  0  1  0  0  0  0  0  0
  191.3150  179.2590  143.9680 C   0  0  0  0  0  1  0  0  0  0  0  0
  190.1430  178.4520  144.5050 C   0  0  0  0  0  3  0  0  0  0  0  0
  191.6800  175.9890  144.1890 C   0  0  0  0  0  2  0  0  0  0  0  0
  192.0550  174.6510  144.0710 O   0  0  0  0  0  1  0  0  0  0  0  0
  184.5570  179.7520  139.4850 C   0  0  0  0  0  1  0  0  0  0  0  0
  185.3980  178.4890  139.5470 C   0  0  2  0  0  3  0  0  0  0  0  0
  184.5460  177.2210  139.4470 C   0  0  0  0  0  2  0  0  0  0  0  0
  183.1830  177.5190  139.3980 O   0  0  0  0  0  1  0  0  0  0  0  0
  1 15  1  0  0  0  0
  1 21  1  1  0  0  0
  3 17  1  1  0  0  0
  3 15  1  0  0  0  0
  4  1  1  0  0  0  0
  5  6  1  0  0  0  0
  6 10  1  0  0  0  0
  9  2  1  6  0  0  0
  9 16  1  0  0  0  0
 10  7  1  6  0  0  0
 10 11  1  0  0  0  0
 10  4  1  0  0  0  0
 11 28  1  6  0  0  0
 11  3  1  0  0  0  0
 12 18  1  0  0  0  0
 13  5  1  0  0  0  0
 13 14  1  0  0  0  0
 14  7  1  0  0  0  0
 15 12  1  1  0  0  0
 15 18  1  0  0  0  0
 17  9  1  0  0  0  0
 18 16  1  0  0  0  0
 18  8  1  1  0  0  0
 19 21  2  0  0  0  0
 19 25  1  0  0  0  0
 20 19  1  0  0  0  0
 21 24  1  0  0  0  0
 23 24  1  0  0  0  0
 24 22  1  0  0  0  0
 26 25  1  0  0  0  0
 28 27  1  1  0  0  0
 29 28  1  0  0  0  0
 30 29  1  0  0  0  0
M  END
>  <MODEL>
7

>  <REMARK>
 VINA RESULT:      -5.2      2.347      6.214
  Name = 
  5 active torsions:
  status: ('A' for Active; 'I' for Inactive)
    1  A    between atoms: C_1  and  C_22
    2  A    between atoms: C_2  and  C_14
    3  A    between atoms: C_7  and  C_30
    4  A    between atoms: C_13  and  C_30
    5  A    between atoms: C_22  and  C_29
                            x       y       z     vdW  Elec       q    Type
                         _______ _______ _______ _____ _____    ______ ____

>  <TORSDO>
F 5

$$$$
=
 OpenBabel10262421483D

 30 33  0  0  1  0  0  0  0  0999 V2000
  183.4590  176.9620  137.2350 C   0  0  2  0  0  3  0  0  0  0  0  0
  182.6400  173.2520  135.3000 O   0  0  0  0  0  1  0  0  0  0  0  0
  184.1170  174.4340  137.3390 C   0  0  1  0  0  3  0  0  0  0  0  0
  184.3070  177.0920  135.9740 C   0  0  0  0  0  2  0  0  0  0  0  0
  187.8040  176.4750  136.8610 C   0  0  0  0  0  2  0  0  0  0  0  0
  186.3700  176.5470  137.1560 N   0  0  0  0  0  2  0  0  0  0  0  0
  186.2380  176.3510  134.6480 C   0  0  0  0  0  2  0  0  0  0  0  0
  180.5750  175.9700  137.1990 F   0  0  0  0  0  0  0  0  0  0  0  0
  182.4770  172.8840  136.6400 C   0  0  2  0  0  3  0  0  0  0  0  0
  185.5240  176.1620  136.0040 C   0  0  2  0  0  0  0  0  0  0  0  0
  185.0510  174.6880  136.1300 C   0  0  1  0  0  3  0  0  0  0  0  0
  182.2510  175.3480  138.8130 C   0  0  0  0  0  2  0  0  0  0  0  0
  188.1870  177.4860  135.7800 C   0  0  0  0  0  2  0  0  0  0  0  0
  187.1360  177.5830  134.6730 C   0  0  0  0  0  2  0  0  0  0  0  0
  183.0250  175.5130  137.5130 C   0  0  1  0  0  0  0  0  0  0  0  0
  181.2820  173.5880  137.2670 C   0  0  0  0  0  2  0  0  0  0  0  0
  183.6550  173.0880  137.3990 O   0  0  0  0  0  0  0  0  0  0  0  0
  181.5710  175.0640  137.4820 C   0  0  2  0  0  0  0  0  0  0  0  0
  182.7030  178.7770  138.6870 C   0  0  0  0  0  0  0  0  0  0  0  0
  183.6170  178.2990  139.6220 O   0  0  0  0  0  1  0  0  0  0  0  0
  182.5320  178.1330  137.5140 C   0  0  0  0  0  0  0  0  0  0  0  0
  181.6980  178.0440  135.0880 C   0  0  0  0  0  1  0  0  0  0  0  0
  180.1280  178.6320  136.9010 C   0  0  0  0  0  1  0  0  0  0  0  0
  181.5810  178.6940  136.4580 C   0  0  0  0  0  3  0  0  0  0  0  0
  181.9690  180.0350  139.0240 C   0  0  0  0  0  2  0  0  0  0  0  0
  181.1250  179.8090  140.1110 O   0  0  0  0  0  1  0  0  0  0  0  0
  185.9880  172.6930  134.8550 C   0  0  0  0  0  1  0  0  0  0  0  0
  186.2070  173.6720  135.9970 C   0  0  2  0  0  3  0  0  0  0  0  0
  186.6200  172.9670  137.2920 C   0  0  0  0  0  2  0  0  0  0  0  0
  187.9090  172.4380  137.2010 O   0  0  0  0  0  1  0  0  0  0  0  0
  1 15  1  0  0  0  0
  1 21  1  6  0  0  0
  3 17  1  6  0  0  0
  3 15  1  0  0  0  0
  4 10  1  0  0  0  0
  4  1  1  0  0  0  0
  5  6  1  0  0  0  0
  7 14  1  0  0  0  0
  9  2  1  6  0  0  0
  9 16  1  0  0  0  0
  9 17  1  0  0  0  0
 10  7  1  6  0  0  0
 10 11  1  0  0  0  0
 10  6  1  0  0  0  0
 11 28  1  1  0  0  0
 11  3  1  0  0  0  0
 13  5  1  0  0  0  0
 14 13  1  0  0  0  0
 15 12  1  1  0  0  0
 16 18  1  0  0  0  0
 18  8  1  6  0  0  0
 18 15  1  0  0  0  0
 18 12  1  0  0  0  0
 19 25  1  0  0  0  0
 19 20  1  0  0  0  0
 21 19  2  0  0  0  0
 22 24  1  0  0  0  0
 24 23  1  0  0  0  0
 24 21  1  0  0  0  0
 25 26  1  0  0  0  0
 28 27  1  6  0  0  0
 28 29  1  0  0  0  0
 30 29  1  0  0  0  0
M  END
>  <MODEL>
8

>  <REMARK>
 VINA RESULT:      -5.2      3.984      5.714
  Name = 
  5 active torsions:
  status: ('A' for Active; 'I' for Inactive)
    1  A    between atoms: C_1  and  C_22
    2  A    between atoms: C_2  and  C_14
    3  A    between atoms: C_7  and  C_30
    4  A    between atoms: C_13  and  C_30
    5  A    between atoms: C_22  and  C_29
                            x       y       z     vdW  Elec       q    Type
                         _______ _______ _______ _____ _____    ______ ____

>  <TORSDO>
F 5

$$$$
=
 OpenBabel10262421483D

 30 33  0  0  1  0  0  0  0  0999 V2000
  183.6910  176.2190  136.9640 C   0  0  2  0  0  3  0  0  0  0  0  0
  179.4480  176.6390  136.9540 O   0  0  0  0  0  1  0  0  0  0  0  0
  181.8330  178.0180  136.5760 C   0  0  1  0  0  3  0  0  0  0  0  0
  183.3970  176.2910  138.4590 C   0  0  0  0  0  2  0  0  0  0  0  0
  184.2650  179.6420  139.6490 C   0  0  0  0  0  2  0  0  0  0  0  0
  184.0880  178.6270  138.6070 N   0  0  0  0  0  2  0  0  0  0  0  0
  182.6410  177.5990  140.3960 C   0  0  0  0  0  2  0  0  0  0  0  0
  182.0830  174.4830  135.0390 F   0  0  0  0  0  0  0  0  0  0  0  0
  179.7680  177.2420  135.7330 C   0  0  2  0  0  3  0  0  0  0  0  0
  182.9700  177.6980  138.8910 C   0  0  2  0  0  0  0  0  0  0  0  0
  181.6910  178.1160  138.1160 C   0  0  1  0  0  3  0  0  0  0  0  0
  182.8220  176.7340  134.6110 C   0  0  0  0  0  2  0  0  0  0  0  0
  184.6630  178.9950  140.9760 C   0  0  0  0  0  2  0  0  0  0  0  0
  183.9110  177.6880  141.2370 C   0  0  0  0  0  2  0  0  0  0  0  0
  182.5180  176.7160  136.1020 C   0  0  1  0  0  0  0  0  0  0  0  0
  180.3410  176.2310  134.7490 C   0  0  0  0  0  2  0  0  0  0  0  0
  180.6300  178.3540  135.8940 O   0  0  0  0  0  0  0  0  0  0  0  0
  181.7430  175.8110  135.1560 C   0  0  2  0  0  0  0  0  0  0  0  0
  185.7260  175.3320  135.9420 C   0  0  0  0  0  0  0  0  0  0  0  0
  186.0610  176.6540  135.6600 O   0  0  0  0  0  1  0  0  0  0  0  0
  184.5470  175.0420  136.5300 C   0  0  0  0  0  0  0  0  0  0  0  0
  184.2060  172.6250  135.7370 C   0  0  0  0  0  1  0  0  0  0  0  0
  185.1210  173.0560  137.9900 C   0  0  0  0  0  1  0  0  0  0  0  0
  184.2070  173.6000  136.9030 C   0  0  0  0  0  3  0  0  0  0  0  0
  186.7340  174.2800  135.6060 C   0  0  0  0  0  2  0  0  0  0  0  0
  187.8820  174.4680  136.3760 O   0  0  0  0  0  1  0  0  0  0  0  0
  179.6480  179.3110  139.0560 C   0  0  0  0  0  1  0  0  0  0  0  0
  181.0950  179.4520  138.6140 C   0  0  2  0  0  3  0  0  0  0  0  0
  181.3040  180.6540  137.6890 C   0  0  0  0  0  2  0  0  0  0  0  0
  181.4250  181.8430  138.4110 O   0  0  0  0  0  1  0  0  0  0  0  0
  1 21  1  6  0  0  0
  1  4  1  0  0  0  0
  3 17  1  6  0  0  0
  3 11  1  0  0  0  0
  5 13  1  0  0  0  0
  6 10  1  0  0  0  0
  6  5  1  0  0  0  0
  7 14  1  0  0  0  0
  9 17  1  0  0  0  0
  9  2  1  1  0  0  0
 10  4  1  6  0  0  0
 10  7  1  0  0  0  0
 11 28  1  6  0  0  0
 11 10  1  0  0  0  0
 12 18  1  0  0  0  0
 13 14  1  0  0  0  0
 15 12  1  6  0  0  0
 15  3  1  0  0  0  0
 15  1  1  0  0  0  0
 16 18  1  0  0  0  0
 16  9  1  0  0  0  0
 18  8  1  1  0  0  0
 18 15  1  0  0  0  0
 19 21  2  0  0  0  0
 20 19  1  0  0  0  0
 21 24  1  0  0  0  0
 22 24  1  0  0  0  0
 24 23  1  0  0  0  0
 25 19  1  0  0  0  0
 25 26  1  0  0  0  0
 28 27  1  6  0  0  0
 29 30  1  0  0  0  0
 29 28  1  0  0  0  0
M  END
>  <MODEL>
9

>  <REMARK>
 VINA RESULT:      -5.1      4.122      7.829
  Name = 
  5 active torsions:
  status: ('A' for Active; 'I' for Inactive)
    1  A    between atoms: C_1  and  C_22
    2  A    between atoms: C_2  and  C_14
    3  A    between atoms: C_7  and  C_30
    4  A    between atoms: C_13  and  C_30
    5  A    between atoms: C_22  and  C_29
                            x       y       z     vdW  Elec       q    Type
                         _______ _______ _______ _____ _____    ______ ____

>  <TORSDO>
F 5

$$$$
