=
 OpenBabel10262419523D

 25 28  0  0  1  0  0  0  0  0999 V2000
  188.9430  177.3980  143.7600 C   0  0  0  0  0  0  0  0  0  0  0  0
  189.3370  177.3830  142.4130 C   0  0  0  0  0  0  0  0  0  0  0  0
  186.6540  177.9470  143.0900 C   0  0  0  0  0  3  0  0  0  0  0  0
  189.7190  177.1630  144.9070 C   0  0  0  0  0  0  0  0  0  0  0  0
  190.9220  176.7650  147.3980 C   0  0  0  0  0  3  0  0  0  0  0  0
  187.0530  177.9090  141.7450 C   0  0  0  0  0  3  0  0  0  0  0  0
  188.9810  177.2730  146.0850 C   0  0  0  0  0  0  0  0  0  0  0  0
  189.5570  177.0800  147.3380 C   0  0  0  0  0  3  0  0  0  0  0  0
  190.9620  176.9970  141.7860 S   0  0  0  0  0  0  0  0  0  0  0  0
  191.6800  176.6520  146.2180 C   0  0  0  0  0  3  0  0  0  0  0  0
  187.6120  177.6870  144.0730 C   0  0  0  0  0  0  0  0  0  0  0  0
  187.3760  177.6580  145.7430 S   0  0  0  0  0  0  0  0  0  0  0  0
  188.9060  177.5080  140.0320 C   0  0  1  0  0  3  0  0  0  0  0  0
  191.0800  176.8500  144.9640 C   0  0  0  0  0  3  0  0  0  0  0  0
  190.1720  176.6420  140.1740 C   0  0  1  0  0  3  0  0  0  0  0  0
  188.3920  177.6250  141.4220 C   0  0  0  0  0  0  0  0  0  0  0  0
  191.1390  176.7730  139.0300 C   0  0  0  0  0  3  0  0  0  0  0  0
  191.0390  176.0660  137.8970 C   0  0  0  0  0  3  0  0  0  0  0  0
  189.9530  175.0650  137.6390 C   0  0  2  0  0  3  0  0  0  0  0  0
  190.5170  173.8390  136.9420 C   0  0  0  0  0  1  0  0  0  0  0  0
  188.8700  175.6760  136.8120 C   0  0  0  0  0  0  0  0  0  0  0  0
  187.5580  175.6300  137.2600 O   0  0  0  0  0  1  0  0  0  0  0  0
  189.1360  176.2320  135.7130 O   0  0  0  0  0  0  0  0  0  0  0  0
  189.2150  178.9010  139.4860 C   0  0  0  0  0  2  0  0  0  0  0  0
  188.6410  179.0560  138.1600 N   0  0  0  0  0  1  0  0  0  0  0  0
  1 11  2  0  0  0  0
  1  4  1  0  0  0  0
  2  1  1  0  0  0  0
  3 11  1  0  0  0  0
  4 14  2  0  0  0  0
  4  7  1  0  0  0  0
  6  3  2  0  0  0  0
  7  8  2  0  0  0  0
  8  5  1  0  0  0  0
  9  2  1  0  0  0  0
 10  5  2  0  0  0  0
 11 12  1  0  0  0  0
 12  7  1  0  0  0  0
 13 24  1  1  0  0  0
 13 15  1  0  0  0  0
 13 16  1  0  0  0  0
 14 10  1  0  0  0  0
 15 17  1  6  0  0  0
 15  9  1  0  0  0  0
 16  6  1  0  0  0  0
 16  2  2  0  0  0  0
 18 17  2  0  0  0  0
 19 20  1  6  0  0  0
 19 18  1  0  0  0  0
 21 22  1  0  0  0  0
 21 19  1  0  0  0  0
 23 21  2  0  0  0  0
 25 24  1  0  0  0  0
M  END
>  <MODEL>
1

>  <REMARK>
 VINA RESULT:      -7.9      0.000      0.000
  Name = 
  4 active torsions:
  status: ('A' for Active; 'I' for Inactive)
    1  A    between atoms: C_2  and  C_21
    2  A    between atoms: C_6  and  C_23
    3  A    between atoms: C_13  and  C_20
    4  A    between atoms: C_15  and  C_21
                            x       y       z     vdW  Elec       q    Type
                         _______ _______ _______ _____ _____    ______ ____

>  <TORSDO>
F 4

$$$$
=
 OpenBabel10262419523D

 25 28  0  0  1  0  0  0  0  0999 V2000
  187.1220  177.9750  144.6930 C   0  0  0  0  0  0  0  0  0  0  0  0
  188.1410  177.5730  143.8150 C   0  0  0  0  0  0  0  0  0  0  0  0
  188.7050  177.9360  146.5580 C   0  0  0  0  0  3  0  0  0  0  0  0
  185.7720  178.2430  144.4110 C   0  0  0  0  0  0  0  0  0  0  0  0
  183.0500  178.8520  144.2470 C   0  0  0  0  0  3  0  0  0  0  0  0
  189.7230  177.5550  145.6690 C   0  0  0  0  0  3  0  0  0  0  0  0
  185.0500  178.6100  145.5460 C   0  0  0  0  0  0  0  0  0  0  0  0
  183.6940  178.9180  145.4910 C   0  0  0  0  0  3  0  0  0  0  0  0
  187.9950  177.3470  142.0520 S   0  0  0  0  0  0  0  0  0  0  0  0
  183.7640  178.4820  143.0930 C   0  0  0  0  0  3  0  0  0  0  0  0
  187.4210  178.1400  146.0480 C   0  0  0  0  0  0  0  0  0  0  0  0
  186.0480  178.6120  146.9050 S   0  0  0  0  0  0  0  0  0  0  0  0
  190.4390  177.0330  143.2730 C   0  0  1  0  0  3  0  0  0  0  0  0
  185.1330  178.1750  143.1700 C   0  0  0  0  0  3  0  0  0  0  0  0
  189.8140  177.5280  141.9550 C   0  0  1  0  0  3  0  0  0  0  0  0
  189.4280  177.3810  144.3060 C   0  0  0  0  0  0  0  0  0  0  0  0
  190.3820  176.8800  140.7240 C   0  0  0  0  0  3  0  0  0  0  0  0
  190.0170  177.2160  139.4790 C   0  0  0  0  0  3  0  0  0  0  0  0
  189.0030  178.2780  139.1730 C   0  0  2  0  0  3  0  0  0  0  0  0
  187.5970  177.7080  139.2590 C   0  0  0  0  0  1  0  0  0  0  0  0
  189.2440  178.8510  137.8160 C   0  0  0  0  0  0  0  0  0  0  0  0
  189.7570  178.0400  136.8120 O   0  0  0  0  0  0  0  0  0  0  0  0
  188.9880  180.0600  137.5730 O   0  0  0  0  0  1  0  0  0  0  0  0
  190.6680  175.5220  143.2750 C   0  0  0  0  0  2  0  0  0  0  0  0
  191.8990  175.2040  143.9790 N   0  0  0  0  0  1  0  0  0  0  0  0
  1 11  2  0  0  0  0
  2 16  2  0  0  0  0
  2  1  1  0  0  0  0
  4  1  1  0  0  0  0
  4  7  1  0  0  0  0
  5  8  1  0  0  0  0
  6  3  2  0  0  0  0
  7 12  1  0  0  0  0
  8  7  2  0  0  0  0
  9  2  1  0  0  0  0
 10 14  1  0  0  0  0
 10  5  2  0  0  0  0
 11  3  1  0  0  0  0
 11 12  1  0  0  0  0
 13 24  1  6  0  0  0
 13 16  1  0  0  0  0
 14  4  2  0  0  0  0
 15 17  1  6  0  0  0
 15  9  1  0  0  0  0
 15 13  1  0  0  0  0
 16  6  1  0  0  0  0
 18 17  2  0  0  0  0
 19 20  1  6  0  0  0
 19 18  1  0  0  0  0
 21 19  1  0  0  0  0
 22 21  2  0  0  0  0
 23 21  1  0  0  0  0
 24 25  1  0  0  0  0
M  END
>  <MODEL>
2

>  <REMARK>
 VINA RESULT:      -7.7      2.601      4.634
  Name = 
  4 active torsions:
  status: ('A' for Active; 'I' for Inactive)
    1  A    between atoms: C_2  and  C_21
    2  A    between atoms: C_6  and  C_23
    3  A    between atoms: C_13  and  C_20
    4  A    between atoms: C_15  and  C_21
                            x       y       z     vdW  Elec       q    Type
                         _______ _______ _______ _____ _____    ______ ____

>  <TORSDO>
F 4

$$$$
=
 OpenBabel10262419523D

 25 28  0  0  1  0  0  0  0  0999 V2000
  188.1600  177.6010  142.3090 C   0  0  0  0  0  0  0  0  0  0  0  0
  186.9170  178.0130  142.8140 C   0  0  0  0  0  0  0  0  0  0  0  0
  188.7580  176.6990  144.5040 C   0  0  0  0  0  3  0  0  0  0  0  0
  188.6760  177.7460  141.0100 C   0  0  0  0  0  0  0  0  0  0  0  0
  190.0320  177.8520  138.5700 C   0  0  0  0  0  3  0  0  0  0  0  0
  187.5040  177.0960  144.9940 C   0  0  0  0  0  3  0  0  0  0  0  0
  189.9590  177.2180  140.8810 C   0  0  0  0  0  0  0  0  0  0  0  0
  190.6570  177.2580  139.6770 C   0  0  0  0  0  3  0  0  0  0  0  0
  185.6070  178.8020  141.8950 S   0  0  0  0  0  0  0  0  0  0  0  0
  188.7380  178.3900  138.6850 C   0  0  0  0  0  3  0  0  0  0  0  0
  189.0600  176.9600  143.1650 C   0  0  0  0  0  0  0  0  0  0  0  0
  190.4810  176.5690  142.3470 S   0  0  0  0  0  0  0  0  0  0  0  0
  185.2250  178.1600  144.5410 C   0  0  1  0  0  3  0  0  0  0  0  0
  188.0510  178.3390  139.9090 C   0  0  0  0  0  3  0  0  0  0  0  0
  184.4580  178.2540  143.2090 C   0  0  1  0  0  3  0  0  0  0  0  0
  186.5960  177.7470  144.1400 C   0  0  0  0  0  0  0  0  0  0  0  0
  183.2210  179.1050  143.2710 C   0  0  0  0  0  3  0  0  0  0  0  0
  182.2670  179.0870  142.3310 C   0  0  0  0  0  3  0  0  0  0  0  0
  182.3210  178.2140  141.1130 C   0  0  2  0  0  3  0  0  0  0  0  0
  182.6830  179.0350  139.8880 C   0  0  0  0  0  1  0  0  0  0  0  0
  181.0110  177.5280  140.9060 C   0  0  0  0  0  0  0  0  0  0  0  0
  179.9540  177.8000  141.7640 O   0  0  0  0  0  1  0  0  0  0  0  0
  180.8550  176.7090  139.9620 O   0  0  0  0  0  0  0  0  0  0  0  0
  185.2910  179.5020  145.2680 C   0  0  0  0  0  2  0  0  0  0  0  0
  185.3250  179.2910  146.7060 N   0  0  0  0  0  1  0  0  0  0  0  0
  1  2  2  0  0  0  0
  1 11  1  0  0  0  0
  2 16  1  0  0  0  0
  3  6  1  0  0  0  0
  4  1  1  0  0  0  0
  5 10  2  0  0  0  0
  5  8  1  0  0  0  0
  7  4  1  0  0  0  0
  7 12  1  0  0  0  0
  8  7  2  0  0  0  0
  9  2  1  0  0  0  0
  9 15  1  0  0  0  0
 10 14  1  0  0  0  0
 11  3  2  0  0  0  0
 12 11  1  0  0  0  0
 13 24  1  6  0  0  0
 14  4  2  0  0  0  0
 15 17  1  1  0  0  0
 15 13  1  0  0  0  0
 16 13  1  0  0  0  0
 16  6  2  0  0  0  0
 18 17  2  0  0  0  0
 19 20  1  6  0  0  0
 19 18  1  0  0  0  0
 21 19  1  0  0  0  0
 21 22  1  0  0  0  0
 23 21  2  0  0  0  0
 24 25  1  0  0  0  0
M  END
>  <MODEL>
3

>  <REMARK>
 VINA RESULT:      -7.4      3.940      6.985
  Name = 
  4 active torsions:
  status: ('A' for Active; 'I' for Inactive)
    1  A    between atoms: C_2  and  C_21
    2  A    between atoms: C_6  and  C_23
    3  A    between atoms: C_13  and  C_20
    4  A    between atoms: C_15  and  C_21
                            x       y       z     vdW  Elec       q    Type
                         _______ _______ _______ _____ _____    ______ ____

>  <TORSDO>
F 4

$$$$
=
 OpenBabel10262419523D

 25 28  0  0  1  0  0  0  0  0999 V2000
  186.8720  178.0800  142.3940 C   0  0  0  0  0  0  0  0  0  0  0  0
  188.1380  177.4820  142.5030 C   0  0  0  0  0  0  0  0  0  0  0  0
  187.2220  178.3960  139.9930 C   0  0  0  0  0  3  0  0  0  0  0  0
  185.9200  178.3160  143.4010 C   0  0  0  0  0  0  0  0  0  0  0  0
  183.8020  178.9520  145.1080 C   0  0  0  0  0  3  0  0  0  0  0  0
  188.4770  177.7780  140.1080 C   0  0  0  0  0  3  0  0  0  0  0  0
  184.7740  178.9440  142.9160 C   0  0  0  0  0  0  0  0  0  0  0  0
  183.7050  179.2720  143.7460 C   0  0  0  0  0  3  0  0  0  0  0  0
  188.8640  176.7970  143.9810 S   0  0  0  0  0  0  0  0  0  0  0  0
  184.9530  178.3190  145.6120 C   0  0  0  0  0  3  0  0  0  0  0  0
  186.4420  178.5320  141.1440 C   0  0  0  0  0  0  0  0  0  0  0  0
  184.9070  179.2200  141.2580 S   0  0  0  0  0  0  0  0  0  0  0  0
  190.2040  176.6110  141.5860 C   0  0  1  0  0  3  0  0  0  0  0  0
  186.0200  177.9970  144.7570 C   0  0  0  0  0  3  0  0  0  0  0  0
  189.9760  175.8310  142.8940 C   0  0  1  0  0  3  0  0  0  0  0  0
  188.9190  177.3250  141.3640 C   0  0  0  0  0  0  0  0  0  0  0  0
  191.2410  175.4260  143.5970 C   0  0  0  0  0  3  0  0  0  0  0  0
  191.6800  176.0100  144.7200 C   0  0  0  0  0  3  0  0  0  0  0  0
  190.9580  177.1320  145.4050 C   0  0  2  0  0  3  0  0  0  0  0  0
  191.5900  178.4660  145.0470 C   0  0  0  0  0  1  0  0  0  0  0  0
  190.9750  176.9340  146.8850 C   0  0  0  0  0  0  0  0  0  0  0  0
  189.7800  176.9490  147.5910 O   0  0  0  0  0  1  0  0  0  0  0  0
  192.0610  176.7510  147.4970 O   0  0  0  0  0  0  0  0  0  0  0  0
  191.3370  177.6300  141.7090 C   0  0  0  0  0  2  0  0  0  0  0  0
  192.2470  177.5030  140.5830 N   0  0  0  0  0  1  0  0  0  0  0  0
  1  2  1  0  0  0  0
  1  4  1  0  0  0  0
  2  9  1  0  0  0  0
  3  6  2  0  0  0  0
  3 11  1  0  0  0  0
  4 14  1  0  0  0  0
  5 10  1  0  0  0  0
  6 16  1  0  0  0  0
  7  4  2  0  0  0  0
  7  8  1  0  0  0  0
  8  5  2  0  0  0  0
 11 12  1  0  0  0  0
 11  1  2  0  0  0  0
 12  7  1  0  0  0  0
 13 24  1  1  0  0  0
 13 15  1  0  0  0  0
 14 10  2  0  0  0  0
 15 17  1  1  0  0  0
 15  9  1  0  0  0  0
 16 13  1  0  0  0  0
 16  2  2  0  0  0  0
 17 18  2  0  0  0  0
 18 19  1  0  0  0  0
 19 20  1  1  0  0  0
 19 21  1  0  0  0  0
 21 23  2  0  0  0  0
 21 22  1  0  0  0  0
 25 24  1  0  0  0  0
M  END
>  <MODEL>
4

>  <REMARK>
 VINA RESULT:      -7.2      3.982      6.151
  Name = 
  4 active torsions:
  status: ('A' for Active; 'I' for Inactive)
    1  A    between atoms: C_2  and  C_21
    2  A    between atoms: C_6  and  C_23
    3  A    between atoms: C_13  and  C_20
    4  A    between atoms: C_15  and  C_21
                            x       y       z     vdW  Elec       q    Type
                         _______ _______ _______ _____ _____    ______ ____

>  <TORSDO>
F 4

$$$$
=
 OpenBabel10262419523D

 25 28  0  0  1  0  0  0  0  0999 V2000
  185.5020  178.4880  141.2870 C   0  0  0  0  0  0  0  0  0  0  0  0
  186.8040  178.3110  140.7920 C   0  0  0  0  0  0  0  0  0  0  0  0
  184.6160  178.3920  139.0080 C   0  0  0  0  0  3  0  0  0  0  0  0
  185.0800  178.6430  142.6180 C   0  0  0  0  0  0  0  0  0  0  0  0
  183.8670  178.9840  145.1120 C   0  0  0  0  0  3  0  0  0  0  0  0
  185.9190  178.1940  138.5240 C   0  0  0  0  0  3  0  0  0  0  0  0
  183.7000  178.8050  142.7270 C   0  0  0  0  0  0  0  0  0  0  0  0
  183.0710  178.9770  143.9560 C   0  0  0  0  0  3  0  0  0  0  0  0
  188.2980  178.1790  141.7570 S   0  0  0  0  0  0  0  0  0  0  0  0
  185.2610  178.8220  145.0180 C   0  0  0  0  0  3  0  0  0  0  0  0
  184.4350  178.5320  140.3860 C   0  0  0  0  0  0  0  0  0  0  0  0
  182.9780  178.7620  141.2040 S   0  0  0  0  0  0  0  0  0  0  0  0
  188.4070  177.8970  139.0230 C   0  0  1  0  0  3  0  0  0  0  0  0
  185.8760  178.6500  143.7670 C   0  0  0  0  0  3  0  0  0  0  0  0
  189.0710  177.3690  140.3090 C   0  0  1  0  0  3  0  0  0  0  0  0
  186.9980  178.1530  139.4240 C   0  0  0  0  0  0  0  0  0  0  0  0
  190.5680  177.4940  140.3230 C   0  0  0  0  0  3  0  0  0  0  0  0
  191.2950  177.5160  141.4490 C   0  0  0  0  0  3  0  0  0  0  0  0
  190.6980  177.4160  142.8210 C   0  0  2  0  0  3  0  0  0  0  0  0
  191.3210  178.4470  143.7470 C   0  0  0  0  0  1  0  0  0  0  0  0
  190.8930  176.0430  143.3730 C   0  0  0  0  0  0  0  0  0  0  0  0
  191.7600  175.8510  144.4400 O   0  0  0  0  0  1  0  0  0  0  0  0
  190.2790  175.0580  142.8820 O   0  0  0  0  0  0  0  0  0  0  0  0
  189.0420  179.1990  138.5350 C   0  0  0  0  0  2  0  0  0  0  0  0
  188.9060  179.3110  137.0930 N   0  0  0  0  0  1  0  0  0  0  0  0
  1  4  1  0  0  0  0
  2  1  1  0  0  0  0
  2  9  1  0  0  0  0
  3 11  1  0  0  0  0
  4  7  2  0  0  0  0
  4 14  1  0  0  0  0
  6  3  2  0  0  0  0
  6 16  1  0  0  0  0
  7  8  1  0  0  0  0
  8  5  2  0  0  0  0
 10  5  1  0  0  0  0
 11 12  1  0  0  0  0
 11  1  2  0  0  0  0
 12  7  1  0  0  0  0
 13 24  1  1  0  0  0
 13 16  1  0  0  0  0
 13 15  1  0  0  0  0
 14 10  2  0  0  0  0
 15 17  1  6  0  0  0
 15  9  1  0  0  0  0
 16  2  2  0  0  0  0
 17 18  2  0  0  0  0
 18 19  1  0  0  0  0
 19 21  1  0  0  0  0
 19 20  1  1  0  0  0
 21 22  1  0  0  0  0
 23 21  2  0  0  0  0
 25 24  1  0  0  0  0
M  END
>  <MODEL>
5

>  <REMARK>
 VINA RESULT:      -6.8      3.270      5.304
  Name = 
  4 active torsions:
  status: ('A' for Active; 'I' for Inactive)
    1  A    between atoms: C_2  and  C_21
    2  A    between atoms: C_6  and  C_23
    3  A    between atoms: C_13  and  C_20
    4  A    between atoms: C_15  and  C_21
                            x       y       z     vdW  Elec       q    Type
                         _______ _______ _______ _____ _____    ______ ____

>  <TORSDO>
F 4

$$$$
=
 OpenBabel10262419523D

 25 28  0  0  1  0  0  0  0  0999 V2000
  187.7920  177.7860  144.2870 C   0  0  0  0  0  0  0  0  0  0  0  0
  186.6530  178.1500  143.5510 C   0  0  0  0  0  0  0  0  0  0  0  0
  186.4090  177.4590  146.2780 C   0  0  0  0  0  3  0  0  0  0  0  0
  189.1280  177.7050  143.8590 C   0  0  0  0  0  0  0  0  0  0  0  0
  191.8690  177.4360  143.3890 C   0  0  0  0  0  3  0  0  0  0  0  0
  185.2720  177.8040  145.5300 C   0  0  0  0  0  3  0  0  0  0  0  0
  189.9940  177.3160  144.8790 C   0  0  0  0  0  0  0  0  0  0  0  0
  191.3630  177.1750  144.6710 C   0  0  0  0  0  3  0  0  0  0  0  0
  186.5960  178.5620  141.8170 S   0  0  0  0  0  0  0  0  0  0  0  0
  191.0070  177.8310  142.3500 C   0  0  0  0  0  3  0  0  0  0  0  0
  187.6490  177.4560  145.6370 C   0  0  0  0  0  0  0  0  0  0  0  0
  189.1440  177.0660  146.3130 S   0  0  0  0  0  0  0  0  0  0  0  0
  184.2670  178.4690  143.2770 C   0  0  1  0  0  3  0  0  0  0  0  0
  189.6280  177.9680  142.5810 C   0  0  0  0  0  3  0  0  0  0  0  0
  184.8060  178.1810  141.8630 C   0  0  1  0  0  3  0  0  0  0  0  0
  185.4080  178.1420  144.1720 C   0  0  0  0  0  0  0  0  0  0  0  0
  184.0520  178.8750  140.7640 C   0  0  0  0  0  3  0  0  0  0  0  0
  183.1020  178.2790  140.0320 C   0  0  0  0  0  3  0  0  0  0  0  0
  182.6810  176.8530  140.2260 C   0  0  2  0  0  3  0  0  0  0  0  0
  183.1080  176.0070  139.0390 C   0  0  0  0  0  1  0  0  0  0  0  0
  181.2020  176.7690  140.4140 C   0  0  0  0  0  0  0  0  0  0  0  0
  180.5570  177.7140  141.1990 O   0  0  0  0  0  1  0  0  0  0  0  0
  180.5350  175.8510  139.8670 O   0  0  0  0  0  0  0  0  0  0  0  0
  183.8800  179.9360  143.4620 C   0  0  0  0  0  2  0  0  0  0  0  0
  182.4640  180.0450  143.7690 N   0  0  0  0  0  1  0  0  0  0  0  0
  1 11  2  0  0  0  0
  2 16  2  0  0  0  0
  2  1  1  0  0  0  0
  4  1  1  0  0  0  0
  4  7  1  0  0  0  0
  5  8  1  0  0  0  0
  6  3  2  0  0  0  0
  7 12  1  0  0  0  0
  8  7  2  0  0  0  0
  9 15  1  0  0  0  0
  9  2  1  0  0  0  0
 10 14  1  0  0  0  0
 10  5  2  0  0  0  0
 11  3  1  0  0  0  0
 11 12  1  0  0  0  0
 13 24  1  6  0  0  0
 13 16  1  0  0  0  0
 14  4  2  0  0  0  0
 15 17  1  6  0  0  0
 15 13  1  0  0  0  0
 16  6  1  0  0  0  0
 18 19  1  0  0  0  0
 18 17  2  0  0  0  0
 19 20  1  6  0  0  0
 19 21  1  0  0  0  0
 21 22  1  0  0  0  0
 23 21  2  0  0  0  0
 24 25  1  0  0  0  0
M  END
>  <MODEL>
6

>  <REMARK>
 VINA RESULT:      -6.5      4.215      5.707
  Name = 
  4 active torsions:
  status: ('A' for Active; 'I' for Inactive)
    1  A    between atoms: C_2  and  C_21
    2  A    between atoms: C_6  and  C_23
    3  A    between atoms: C_13  and  C_20
    4  A    between atoms: C_15  and  C_21
                            x       y       z     vdW  Elec       q    Type
                         _______ _______ _______ _____ _____    ______ ____

>  <TORSDO>
F 4

$$$$
=
 OpenBabel10262419523D

 25 28  0  0  1  0  0  0  0  0999 V2000
  188.9290  177.5770  141.8450 C   0  0  0  0  0  0  0  0  0  0  0  0
  189.3020  177.5540  140.4910 C   0  0  0  0  0  0  0  0  0  0  0  0
  186.6670  178.2660  141.2160 C   0  0  0  0  0  3  0  0  0  0  0  0
  189.7080  177.2840  142.9770 C   0  0  0  0  0  0  0  0  0  0  0  0
  190.9230  176.7910  145.4440 C   0  0  0  0  0  3  0  0  0  0  0  0
  187.0430  178.2200  139.8640 C   0  0  0  0  0  3  0  0  0  0  0  0
  188.9960  177.4250  144.1670 C   0  0  0  0  0  0  0  0  0  0  0  0
  189.5780  177.1860  145.4090 C   0  0  0  0  0  3  0  0  0  0  0  0
  190.8910  177.0790  139.8350 S   0  0  0  0  0  0  0  0  0  0  0  0
  191.6550  176.6450  144.2510 C   0  0  0  0  0  3  0  0  0  0  0  0
  187.6230  177.9400  142.1810 C   0  0  0  0  0  0  0  0  0  0  0  0
  187.4110  177.9070  143.8540 S   0  0  0  0  0  0  0  0  0  0  0  0
  188.8430  177.7290  138.1190 C   0  0  1  0  0  3  0  0  0  0  0  0
  191.0490  176.8920  143.0090 C   0  0  0  0  0  3  0  0  0  0  0  0
  190.0580  176.7880  138.2320 C   0  0  1  0  0  3  0  0  0  0  0  0
  188.3570  177.8610  139.5180 C   0  0  0  0  0  0  0  0  0  0  0  0
  191.0120  176.8750  137.0750 C   0  0  0  0  0  3  0  0  0  0  0  0
  191.8490  175.8860  136.7330 C   0  0  0  0  0  3  0  0  0  0  0  0
  191.9260  174.5790  137.4650 C   0  0  2  0  0  3  0  0  0  0  0  0
  193.3560  174.0670  137.4860 C   0  0  0  0  0  1  0  0  0  0  0  0
  191.0280  173.5720  136.8260 C   0  0  0  0  0  0  0  0  0  0  0  0
  189.7740  173.3320  137.3700 O   0  0  0  0  0  1  0  0  0  0  0  0
  191.3950  172.9410  135.8000 O   0  0  0  0  0  0  0  0  0  0  0  0
  189.2250  179.1070  137.5810 C   0  0  0  0  0  2  0  0  0  0  0  0
  188.1070  179.6880  136.8560 N   0  0  0  0  0  1  0  0  0  0  0  0
  1 11  2  0  0  0  0
  1  4  1  0  0  0  0
  2  1  1  0  0  0  0
  3 11  1  0  0  0  0
  4 14  2  0  0  0  0
  4  7  1  0  0  0  0
  6  3  2  0  0  0  0
  7  8  2  0  0  0  0
  8  5  1  0  0  0  0
  9  2  1  0  0  0  0
 10  5  2  0  0  0  0
 11 12  1  0  0  0  0
 12  7  1  0  0  0  0
 13 24  1  1  0  0  0
 13 15  1  0  0  0  0
 13 16  1  0  0  0  0
 14 10  1  0  0  0  0
 15 17  1  6  0  0  0
 15  9  1  0  0  0  0
 16  6  1  0  0  0  0
 16  2  2  0  0  0  0
 18 17  2  0  0  0  0
 18 19  1  0  0  0  0
 19 20  1  6  0  0  0
 21 22  1  0  0  0  0
 21 19  1  0  0  0  0
 23 21  2  0  0  0  0
 25 24  1  0  0  0  0
M  END
>  <MODEL>
7

>  <REMARK>
 VINA RESULT:      -6.4      1.690      2.185
  Name = 
  4 active torsions:
  status: ('A' for Active; 'I' for Inactive)
    1  A    between atoms: C_2  and  C_21
    2  A    between atoms: C_6  and  C_23
    3  A    between atoms: C_13  and  C_20
    4  A    between atoms: C_15  and  C_21
                            x       y       z     vdW  Elec       q    Type
                         _______ _______ _______ _____ _____    ______ ____

>  <TORSDO>
F 4

$$$$
=
 OpenBabel10262419523D

 25 28  0  0  1  0  0  0  0  0999 V2000
  184.4120  178.4120  143.3210 C   0  0  0  0  0  0  0  0  0  0  0  0
  183.8160  178.4340  142.0510 C   0  0  0  0  0  0  0  0  0  0  0  0
  182.2690  179.0040  144.3430 C   0  0  0  0  0  3  0  0  0  0  0  0
  185.7470  178.1350  143.6630 C   0  0  0  0  0  0  0  0  0  0  0  0
  188.2850  177.6510  144.7250 C   0  0  0  0  0  3  0  0  0  0  0  0
  181.6770  179.0030  143.0710 C   0  0  0  0  0  3  0  0  0  0  0  0
  185.9760  178.2170  145.0350 C   0  0  0  0  0  0  0  0  0  0  0  0
  187.2310  177.9810  145.5900 C   0  0  0  0  0  3  0  0  0  0  0  0
  184.6080  178.0510  140.4990 S   0  0  0  0  0  0  0  0  0  0  0  0
  188.0690  177.5660  143.3380 C   0  0  0  0  0  3  0  0  0  0  0  0
  183.6300  178.7050  144.4420 C   0  0  0  0  0  0  0  0  0  0  0  0
  184.5570  178.6280  145.8480 S   0  0  0  0  0  0  0  0  0  0  0  0
  181.9210  178.6350  140.5540 C   0  0  1  0  0  3  0  0  0  0  0  0
  186.7950  177.8080  142.7990 C   0  0  0  0  0  3  0  0  0  0  0  0
  182.9400  177.7530  139.8080 C   0  0  1  0  0  3  0  0  0  0  0  0
  182.4580  178.7150  141.9380 C   0  0  0  0  0  0  0  0  0  0  0  0
  182.9100  177.9090  138.3140 C   0  0  0  0  0  3  0  0  0  0  0  0
  183.1200  176.8960  137.4630 C   0  0  0  0  0  3  0  0  0  0  0  0
  183.4050  175.4910  137.9030 C   0  0  2  0  0  3  0  0  0  0  0  0
  184.6520  174.9620  137.2140 C   0  0  0  0  0  1  0  0  0  0  0  0
  182.2390  174.6070  137.6080 C   0  0  0  0  0  0  0  0  0  0  0  0
  181.0120  174.8730  138.2010 O   0  0  0  0  0  1  0  0  0  0  0  0
  182.3560  173.6260  136.8270 O   0  0  0  0  0  0  0  0  0  0  0  0
  181.8290  180.0410  139.9630 C   0  0  0  0  0  2  0  0  0  0  0  0
  180.4440  180.4780  139.9270 N   0  0  0  0  0  1  0  0  0  0  0  0
  1  4  1  0  0  0  0
  1 11  2  0  0  0  0
  2  1  1  0  0  0  0
  3 11  1  0  0  0  0
  4  7  1  0  0  0  0
  5  8  1  0  0  0  0
  6  3  2  0  0  0  0
  7  8  2  0  0  0  0
  7 12  1  0  0  0  0
  9  2  1  0  0  0  0
 10  5  2  0  0  0  0
 11 12  1  0  0  0  0
 13 24  1  6  0  0  0
 13 16  1  0  0  0  0
 14 10  1  0  0  0  0
 14  4  2  0  0  0  0
 15 17  1  6  0  0  0
 15  9  1  0  0  0  0
 15 13  1  0  0  0  0
 16  2  2  0  0  0  0
 16  6  1  0  0  0  0
 18 19  1  0  0  0  0
 18 17  2  0  0  0  0
 19 20  1  6  0  0  0
 21 19  1  0  0  0  0
 21 22  1  0  0  0  0
 23 21  2  0  0  0  0
 25 24  1  0  0  0  0
M  END
>  <MODEL>
8

>  <REMARK>
 VINA RESULT:      -6.2      4.639      6.003
  Name = 
  4 active torsions:
  status: ('A' for Active; 'I' for Inactive)
    1  A    between atoms: C_2  and  C_21
    2  A    between atoms: C_6  and  C_23
    3  A    between atoms: C_13  and  C_20
    4  A    between atoms: C_15  and  C_21
                            x       y       z     vdW  Elec       q    Type
                         _______ _______ _______ _____ _____    ______ ____

>  <TORSDO>
F 4

$$$$
=
 OpenBabel10262419523D

 25 28  0  0  1  0  0  0  0  0999 V2000
  184.3320  178.7940  141.4920 C   0  0  0  0  0  0  0  0  0  0  0  0
  183.2930  179.0070  140.5720 C   0  0  0  0  0  0  0  0  0  0  0  0
  185.9230  178.5600  139.6480 C   0  0  0  0  0  3  0  0  0  0  0  0
  184.2730  178.7640  142.8960 C   0  0  0  0  0  0  0  0  0  0  0  0
  184.5540  178.6270  145.6720 C   0  0  0  0  0  3  0  0  0  0  0  0
  184.8820  178.7950  138.7370 C   0  0  0  0  0  3  0  0  0  0  0  0
  185.5140  178.5150  143.4780 C   0  0  0  0  0  0  0  0  0  0  0  0
  185.6810  178.4410  144.8580 C   0  0  0  0  0  3  0  0  0  0  0  0
  181.5870  179.3600  140.9600 S   0  0  0  0  0  0  0  0  0  0  0  0
  183.2940  178.8780  145.0980 C   0  0  0  0  0  3  0  0  0  0  0  0
  185.6240  178.5670  141.0130 C   0  0  0  0  0  0  0  0  0  0  0  0
  186.6970  178.3280  142.2910 S   0  0  0  0  0  0  0  0  0  0  0  0
  182.4160  179.3300  138.3370 C   0  0  1  0  0  3  0  0  0  0  0  0
  183.1470  178.9480  143.7030 C   0  0  0  0  0  3  0  0  0  0  0  0
  181.4260  180.0500  139.2720 C   0  0  1  0  0  3  0  0  0  0  0  0
  183.5780  179.0190  139.2110 C   0  0  0  0  0  0  0  0  0  0  0  0
  180.0030  180.0370  138.7900 C   0  0  0  0  0  3  0  0  0  0  0  0
  179.4720  181.0090  138.0360 C   0  0  0  0  0  3  0  0  0  0  0  0
  180.2360  182.2190  137.5870 C   0  0  2  0  0  3  0  0  0  0  0  0
  179.4140  183.4770  137.8070 C   0  0  0  0  0  1  0  0  0  0  0  0
  180.6090  182.0920  136.1470 C   0  0  0  0  0  0  0  0  0  0  0  0
  180.7980  183.2370  135.3850 O   0  0  0  0  0  0  0  0  0  0  0  0
  180.7550  180.9580  135.6170 O   0  0  0  0  0  1  0  0  0  0  0  0
  181.8400  178.0300  137.7760 C   0  0  0  0  0  2  0  0  0  0  0  0
  182.2180  177.8780  136.3810 N   0  0  0  0  0  1  0  0  0  0  0  0
  1  4  1  0  0  0  0
  2  9  1  0  0  0  0
  2  1  1  0  0  0  0
  3 11  1  0  0  0  0
  4  7  2  0  0  0  0
  4 14  1  0  0  0  0
  6 16  1  0  0  0  0
  6  3  2  0  0  0  0
  7  8  1  0  0  0  0
  8  5  2  0  0  0  0
 10  5  1  0  0  0  0
 11  1  2  0  0  0  0
 11 12  1  0  0  0  0
 12  7  1  0  0  0  0
 13 24  1  1  0  0  0
 13 16  1  0  0  0  0
 13 15  1  0  0  0  0
 14 10  2  0  0  0  0
 15 17  1  6  0  0  0
 15  9  1  0  0  0  0
 16  2  2  0  0  0  0
 18 17  2  0  0  0  0
 19 20  1  6  0  0  0
 19 18  1  0  0  0  0
 21 19  1  0  0  0  0
 22 21  2  0  0  0  0
 23 21  1  0  0  0  0
 25 24  1  0  0  0  0
M  END
>  <MODEL>
9

>  <REMARK>
 VINA RESULT:      -6.1      6.217      8.313
  Name = 
  4 active torsions:
  status: ('A' for Active; 'I' for Inactive)
    1  A    between atoms: C_2  and  C_21
    2  A    between atoms: C_6  and  C_23
    3  A    between atoms: C_13  and  C_20
    4  A    between atoms: C_15  and  C_21
                            x       y       z     vdW  Elec       q    Type
                         _______ _______ _______ _____ _____    ______ ____

>  <TORSDO>
F 4

$$$$
