=
 OpenBabel10262419583D

 27 31  0  0  1  0  0  0  0  0999 V2000
  191.8030  176.9610  139.1890 C   0  0  0  0  0  2  0  0  0  0  0  0
  189.2540  176.9820  139.3010 C   0  0  0  0  0  0  0  0  0  0  0  0
  189.6170  175.5070  137.2910 N   0  0  0  0  0  2  0  0  0  0  0  0
  185.6290  178.1000  137.4930 N   0  0  0  0  0  2  0  0  0  0  0  0
  184.8200  177.2950  135.4360 O   0  0  0  0  0  0  0  0  0  0  0  0
  188.4510  177.9590  139.9340 C   0  0  0  0  0  3  0  0  0  0  0  0
  186.9200  176.4010  136.2830 C   0  0  2  0  0  3  0  0  0  0  0  0
  192.9210  173.6600  136.7340 C   0  0  0  0  0  2  0  0  0  0  0  0
  186.5120  174.9410  136.3690 C   0  0  0  0  0  1  0  0  0  0  0  0
  193.4020  174.0810  137.9860 O   0  0  0  0  0  0  0  0  0  0  0  0
  187.5800  176.8260  137.5540 C   0  0  0  0  0  0  0  0  0  0  0  0
  190.5450  176.5270  139.9500 C   0  0  2  0  0  3  0  0  0  0  0  0
  185.7010  177.2730  136.3340 C   0  0  0  0  0  0  0  0  0  0  0  0
  186.8160  177.7780  138.1950 C   0  0  0  0  0  0  0  0  0  0  0  0
  191.8330  176.4630  137.7410 C   0  0  1  0  0  3  0  0  0  0  0  0
  188.8200  176.4210  138.0650 C   0  0  0  0  0  0  0  0  0  0  0  0
  191.5280  174.2440  136.4390 C   0  0  0  0  0  2  0  0  0  0  0  0
  187.2310  178.3680  139.3840 C   0  0  0  0  0  3  0  0  0  0  0  0
  194.1250  175.2740  137.7870 C   0  0  0  0  0  2  0  0  0  0  0  0
  193.2730  176.4210  137.2120 C   0  0  0  0  0  2  0  0  0  0  0  0
  191.0120  175.1670  137.5480 C   0  0  2  0  0  3  0  0  0  0  0  0
  190.9140  177.3060  144.1650 C   0  0  0  0  0  3  0  0  0  0  0  0
  190.6510  176.7990  141.4230 C   0  0  0  0  0  0  0  0  0  0  0  0
  189.8210  176.1410  142.3460 C   0  0  0  0  0  3  0  0  0  0  0  0
  189.9520  176.3980  143.7140 C   0  0  0  0  0  3  0  0  0  0  0  0
  191.7450  177.9580  143.2510 C   0  0  0  0  0  3  0  0  0  0  0  0
  191.6150  177.7030  141.8820 C   0  0  0  0  0  3  0  0  0  0  0  0
  1 12  1  0  0  0  0
  2  6  1  0  0  0  0
  2 12  1  0  0  0  0
  3 21  1  0  0  0  0
  3 16  1  0  0  0  0
  4 14  1  0  0  0  0
  5 13  2  0  0  0  0
  7 13  1  0  0  0  0
  7  9  1  1  0  0  0
  7 11  1  0  0  0  0
  8 10  1  0  0  0  0
 11 16  1  0  0  0  0
 11 14  2  0  0  0  0
 12 23  1  1  0  0  0
 13  4  1  0  0  0  0
 14 18  1  0  0  0  0
 15 20  1  1  0  0  0
 15  1  1  0  0  0  0
 16  2  2  0  0  0  0
 17  8  1  0  0  0  0
 18  6  2  0  0  0  0
 19 10  1  0  0  0  0
 20 19  1  0  0  0  0
 21 17  1  6  0  0  0
 21 15  1  0  0  0  0
 23 27  2  0  0  0  0
 23 24  1  0  0  0  0
 24 25  2  0  0  0  0
 25 22  1  0  0  0  0
 26 22  2  0  0  0  0
 27 26  1  0  0  0  0
M  END
>  <MODEL>
1

>  <REMARK>
 VINA RESULT:      -7.2      0.000      0.000
  Name = 
  1 active torsions:
  status: ('A' for Active; 'I' for Inactive)
    1  A    between atoms: C_9  and  C_15
                            x       y       z     vdW  Elec       q    Type
                         _______ _______ _______ _____ _____    ______ ____

>  <TORSDO>
F 1

$$$$
=
 OpenBabel10262419583D

 27 31  0  0  1  0  0  0  0  0999 V2000
  184.2180  177.6650  142.0540 C   0  0  0  0  0  2  0  0  0  0  0  0
  186.7540  177.9220  141.9510 C   0  0  0  0  0  0  0  0  0  0  0  0
  186.1090  178.7780  139.6710 N   0  0  0  0  0  2  0  0  0  0  0  0
  190.3760  176.7280  140.1850 N   0  0  0  0  0  2  0  0  0  0  0  0
  190.9680  177.0440  137.9300 O   0  0  0  0  0  0  0  0  0  0  0  0
  187.6990  177.2270  142.7410 C   0  0  0  0  0  3  0  0  0  0  0  0
  188.8300  177.9180  138.6980 C   0  0  2  0  0  3  0  0  0  0  0  0
  182.5880  180.0850  138.9460 C   0  0  0  0  0  2  0  0  0  0  0  0
  189.0710  179.3830  138.3760 C   0  0  0  0  0  1  0  0  0  0  0  0
  182.2300  179.9600  140.3000 O   0  0  0  0  0  0  0  0  0  0  0  0
  188.2970  177.7780  140.0860 C   0  0  0  0  0  0  0  0  0  0  0  0
  185.4580  178.4030  142.5700 C   0  0  2  0  0  3  0  0  0  0  0  0
  190.1430  177.2140  138.8650 C   0  0  0  0  0  0  0  0  0  0  0  0
  189.2020  177.1060  140.8810 C   0  0  0  0  0  0  0  0  0  0  0  0
  184.0480  177.7610  140.5350 C   0  0  1  0  0  3  0  0  0  0  0  0
  187.0490  178.1800  140.5810 C   0  0  0  0  0  0  0  0  0  0  0  0
  184.0190  179.5830  138.6910 C   0  0  0  0  0  2  0  0  0  0  0  0
  188.9260  176.8090  142.2100 C   0  0  0  0  0  3  0  0  0  0  0  0
  181.6400  178.6930  140.4710 C   0  0  0  0  0  2  0  0  0  0  0  0
  182.5850  177.5240  140.1360 C   0  0  0  0  0  2  0  0  0  0  0  0
  184.7010  179.0360  139.9510 C   0  0  2  0  0  3  0  0  0  0  0  0
  185.5250  178.6750  146.8640 C   0  0  0  0  0  3  0  0  0  0  0  0
  185.4680  178.5160  144.0680 C   0  0  0  0  0  0  0  0  0  0  0  0
  184.3010  178.8350  144.7810 C   0  0  0  0  0  3  0  0  0  0  0  0
  184.3320  178.9160  146.1770 C   0  0  0  0  0  3  0  0  0  0  0  0
  186.6870  178.3520  146.1580 C   0  0  0  0  0  3  0  0  0  0  0  0
  186.6580  178.2710  144.7620 C   0  0  0  0  0  3  0  0  0  0  0  0
  1 12  1  0  0  0  0
  2 12  1  0  0  0  0
  2  6  1  0  0  0  0
  3 21  1  0  0  0  0
  3 16  1  0  0  0  0
  4 14  1  0  0  0  0
  5 13  2  0  0  0  0
  7  9  1  1  0  0  0
  7 13  1  0  0  0  0
  7 11  1  0  0  0  0
  8 10  1  0  0  0  0
 10 19  1  0  0  0  0
 11 16  1  0  0  0  0
 11 14  2  0  0  0  0
 12 23  1  1  0  0  0
 13  4  1  0  0  0  0
 14 18  1  0  0  0  0
 15 20  1  1  0  0  0
 15  1  1  0  0  0  0
 16  2  2  0  0  0  0
 17  8  1  0  0  0  0
 18  6  2  0  0  0  0
 20 19  1  0  0  0  0
 21 17  1  6  0  0  0
 21 15  1  0  0  0  0
 23 27  2  0  0  0  0
 23 24  1  0  0  0  0
 24 25  2  0  0  0  0
 25 22  1  0  0  0  0
 26 22  2  0  0  0  0
 27 26  1  0  0  0  0
M  END
>  <MODEL>
2

>  <REMARK>
 VINA RESULT:      -7.1      3.891      7.233
  Name = 
  1 active torsions:
  status: ('A' for Active; 'I' for Inactive)
    1  A    between atoms: C_9  and  C_15
                            x       y       z     vdW  Elec       q    Type
                         _______ _______ _______ _____ _____    ______ ____

>  <TORSDO>
F 1

$$$$
=
 OpenBabel10262419583D

 27 31  0  0  1  0  0  0  0  0999 V2000
  189.7450  177.6200  136.8340 C   0  0  0  0  0  2  0  0  0  0  0  0
  190.6150  176.8800  139.1150 C   0  0  0  0  0  0  0  0  0  0  0  0
  188.2360  177.4690  139.6970 N   0  0  0  0  0  2  0  0  0  0  0  0
  191.5640  177.9390  143.0700 N   0  0  0  0  0  2  0  0  0  0  0  0
  190.0310  178.6830  144.6920 O   0  0  0  0  0  0  0  0  0  0  0  0
  191.9690  176.8420  139.5240 C   0  0  0  0  0  3  0  0  0  0  0  0
  189.1810  178.0550  142.4990 C   0  0  2  0  0  3  0  0  0  0  0  0
  185.4870  177.5530  137.0380 C   0  0  0  0  0  2  0  0  0  0  0  0
  188.2450  176.9450  142.9430 C   0  0  0  0  0  1  0  0  0  0  0  0
  186.3710  177.0530  136.0650 O   0  0  0  0  0  0  0  0  0  0  0  0
  190.0230  177.5910  141.3560 C   0  0  0  0  0  0  0  0  0  0  0  0
  190.2370  176.4630  137.7090 C   0  0  2  0  0  3  0  0  0  0  0  0
  190.2520  178.2570  143.5290 C   0  0  0  0  0  0  0  0  0  0  0  0
  191.3500  177.5410  141.7280 C   0  0  0  0  0  0  0  0  0  0  0  0
  188.5330  178.3480  137.4240 C   0  0  1  0  0  3  0  0  0  0  0  0
  189.6200  177.2910  140.0480 C   0  0  0  0  0  0  0  0  0  0  0  0
  186.1960  177.7730  138.3850 C   0  0  0  0  0  2  0  0  0  0  0  0
  192.3460  177.1780  140.8290 C   0  0  0  0  0  3  0  0  0  0  0  0
  186.9410  178.1550  135.3990 C   0  0  0  0  0  2  0  0  0  0  0  0
  187.7530  179.0810  136.3240 C   0  0  0  0  0  2  0  0  0  0  0  0
  187.6910  177.4340  138.3440 C   0  0  2  0  0  3  0  0  0  0  0  0
  193.1290  174.0500  135.6270 C   0  0  0  0  0  3  0  0  0  0  0  0
  191.2500  175.6080  137.0010 C   0  0  0  0  0  0  0  0  0  0  0  0
  191.2780  174.2150  137.1780 C   0  0  0  0  0  3  0  0  0  0  0  0
  192.2180  173.4390  136.4940 C   0  0  0  0  0  3  0  0  0  0  0  0
  193.1010  175.4350  135.4440 C   0  0  0  0  0  3  0  0  0  0  0  0
  192.1610  176.2120  136.1280 C   0  0  0  0  0  3  0  0  0  0  0  0
  1 15  1  0  0  0  0
  1 12  1  0  0  0  0
  2  6  2  0  0  0  0
  2 16  1  0  0  0  0
  3 16  1  0  0  0  0
  4 13  1  0  0  0  0
  6 18  1  0  0  0  0
  7  9  1  1  0  0  0
  7 13  1  0  0  0  0
  8 17  1  0  0  0  0
 10  8  1  0  0  0  0
 11 14  1  0  0  0  0
 11  7  1  0  0  0  0
 12 23  1  6  0  0  0
 12  2  1  0  0  0  0
 13  5  2  0  0  0  0
 14  4  1  0  0  0  0
 15 20  1  6  0  0  0
 15 21  1  0  0  0  0
 16 11  2  0  0  0  0
 18 14  2  0  0  0  0
 19 10  1  0  0  0  0
 19 20  1  0  0  0  0
 21 17  1  1  0  0  0
 21  3  1  0  0  0  0
 22 25  1  0  0  0  0
 23 24  1  0  0  0  0
 25 24  2  0  0  0  0
 26 22  2  0  0  0  0
 26 27  1  0  0  0  0
 27 23  2  0  0  0  0
M  END
>  <MODEL>
3

>  <REMARK>
 VINA RESULT:      -6.9      2.577      6.407
  Name = 
  1 active torsions:
  status: ('A' for Active; 'I' for Inactive)
    1  A    between atoms: C_9  and  C_15
                            x       y       z     vdW  Elec       q    Type
                         _______ _______ _______ _____ _____    ______ ____

>  <TORSDO>
F 1

$$$$
=
 OpenBabel10262419583D

 27 31  0  0  1  0  0  0  0  0999 V2000
  189.1030  178.2520  144.5370 C   0  0  0  0  0  2  0  0  0  0  0  0
  187.9500  177.9330  142.2830 C   0  0  0  0  0  0  0  0  0  0  0  0
  190.0420  176.5730  141.9300 N   0  0  0  0  0  2  0  0  0  0  0  0
  188.0080  178.6110  138.1360 N   0  0  0  0  0  2  0  0  0  0  0  0
  189.6050  177.7610  136.6330 O   0  0  0  0  0  0  0  0  0  0  0  0
  186.9670  178.7780  141.7180 C   0  0  0  0  0  3  0  0  0  0  0  0
  189.7740  177.1300  138.9780 C   0  0  2  0  0  3  0  0  0  0  0  0
  192.0550  175.1950  144.8750 C   0  0  0  0  0  2  0  0  0  0  0  0
  189.6430  175.6270  138.8050 C   0  0  0  0  0  1  0  0  0  0  0  0
  191.0840  175.6420  145.7880 O   0  0  0  0  0  0  0  0  0  0  0  0
  188.8580  177.6040  140.0590 C   0  0  0  0  0  0  0  0  0  0  0  0
  187.9290  177.6350  143.7680 C   0  0  2  0  0  3  0  0  0  0  0  0
  189.1550  177.8310  137.8060 C   0  0  0  0  0  0  0  0  0  0  0  0
  187.8850  178.4290  139.5350 C   0  0  0  0  0  0  0  0  0  0  0  0
  190.4700  177.8020  144.0110 C   0  0  1  0  0  3  0  0  0  0  0  0
  188.9370  177.3530  141.4350 C   0  0  0  0  0  0  0  0  0  0  0  0
  191.7030  175.5970  143.4330 C   0  0  0  0  0  2  0  0  0  0  0  0
  186.9310  179.0360  140.3430 C   0  0  0  0  0  3  0  0  0  0  0  0
  191.4680  176.9250  146.2260 C   0  0  0  0  0  2  0  0  0  0  0  0
  191.5470  177.9640  145.0920 C   0  0  0  0  0  2  0  0  0  0  0  0
  190.4100  176.4140  143.3320 C   0  0  2  0  0  3  0  0  0  0  0  0
  184.1450  178.3750  145.6770 C   0  0  0  0  0  3  0  0  0  0  0  0
  186.6140  177.8790  144.4510 C   0  0  0  0  0  0  0  0  0  0  0  0
  186.5310  178.0080  145.8470 C   0  0  0  0  0  3  0  0  0  0  0  0
  185.2980  178.2530  146.4580 C   0  0  0  0  0  3  0  0  0  0  0  0
  184.2230  178.2530  144.2880 C   0  0  0  0  0  3  0  0  0  0  0  0
  185.4560  178.0080  143.6760 C   0  0  0  0  0  3  0  0  0  0  0  0
  2 12  1  0  0  0  0
  3 21  1  0  0  0  0
  4 14  1  0  0  0  0
  5 13  2  0  0  0  0
  6  2  1  0  0  0  0
  7  9  1  6  0  0  0
  7 11  1  0  0  0  0
  8 10  1  0  0  0  0
 10 19  1  0  0  0  0
 11 16  1  0  0  0  0
 12 23  1  1  0  0  0
 12  1  1  0  0  0  0
 13  4  1  0  0  0  0
 13  7  1  0  0  0  0
 14 11  2  0  0  0  0
 14 18  1  0  0  0  0
 15  1  1  1  0  0  0
 15 20  1  0  0  0  0
 16  3  1  0  0  0  0
 16  2  2  0  0  0  0
 17  8  1  0  0  0  0
 18  6  2  0  0  0  0
 20 19  1  0  0  0  0
 21 17  1  6  0  0  0
 21 15  1  0  0  0  0
 22 25  1  0  0  0  0
 23 24  1  0  0  0  0
 24 25  2  0  0  0  0
 26 22  2  0  0  0  0
 27 26  1  0  0  0  0
 27 23  2  0  0  0  0
M  END
>  <MODEL>
4

>  <REMARK>
 VINA RESULT:      -6.9      3.508      5.622
  Name = 
  1 active torsions:
  status: ('A' for Active; 'I' for Inactive)
    1  A    between atoms: C_9  and  C_15
                            x       y       z     vdW  Elec       q    Type
                         _______ _______ _______ _____ _____    ______ ____

>  <TORSDO>
F 1

$$$$
=
 OpenBabel10262419583D

 27 31  0  0  1  0  0  0  0  0999 V2000
  188.8940  178.7230  142.7900 C   0  0  0  0  0  2  0  0  0  0  0  0
  188.3410  177.8040  140.4750 C   0  0  0  0  0  0  0  0  0  0  0  0
  190.4610  176.5400  140.9810 N   0  0  0  0  0  2  0  0  0  0  0  0
  189.4310  177.4820  136.4280 N   0  0  0  0  0  2  0  0  0  0  0  0
  191.3570  176.4060  135.6120 O   0  0  0  0  0  0  0  0  0  0  0  0
  187.5260  178.4250  139.4990 C   0  0  0  0  0  3  0  0  0  0  0  0
  190.9360  176.3620  138.0090 C   0  0  2  0  0  3  0  0  0  0  0  0
  191.6810  176.0350  144.5710 C   0  0  0  0  0  2  0  0  0  0  0  0
  190.8600  174.8560  138.1850 C   0  0  0  0  0  1  0  0  0  0  0  0
  190.5100  176.6210  145.0840 O   0  0  0  0  0  0  0  0  0  0  0  0
  189.7770  177.0180  138.6870 C   0  0  0  0  0  0  0  0  0  0  0  0
  187.9510  177.8670  141.9370 C   0  0  2  0  0  3  0  0  0  0  0  0
  190.6270  176.7230  136.5870 C   0  0  0  0  0  0  0  0  0  0  0  0
  188.9630  177.6300  137.7570 C   0  0  0  0  0  0  0  0  0  0  0  0
  190.3500  178.2530  142.7370 C   0  0  1  0  0  3  0  0  0  0  0  0
  189.5110  177.1060  140.0590 C   0  0  0  0  0  0  0  0  0  0  0  0
  191.6980  176.0590  143.0330 C   0  0  0  0  0  2  0  0  0  0  0  0
  187.8340  178.3470  138.1360 C   0  0  0  0  0  3  0  0  0  0  0  0
  190.7660  177.9930  145.2720 C   0  0  0  0  0  2  0  0  0  0  0  0
  191.1220  178.7370  143.9710 C   0  0  0  0  0  2  0  0  0  0  0  0
  190.4670  176.7420  142.4260 C   0  0  2  0  0  3  0  0  0  0  0  0
  183.8070  178.7070  142.7320 C   0  0  0  0  0  3  0  0  0  0  0  0
  186.5060  178.1790  142.2010 C   0  0  0  0  0  0  0  0  0  0  0  0
  185.6590  178.6300  141.1760 C   0  0  0  0  0  3  0  0  0  0  0  0
  184.3130  178.8950  141.4430 C   0  0  0  0  0  3  0  0  0  0  0  0
  184.6440  178.2530  143.7540 C   0  0  0  0  0  3  0  0  0  0  0  0
  185.9910  177.9870  143.4880 C   0  0  0  0  0  3  0  0  0  0  0  0
  2 12  1  0  0  0  0
  3 21  1  0  0  0  0
  4 13  1  0  0  0  0
  4 14  1  0  0  0  0
  5 13  2  0  0  0  0
  6  2  2  0  0  0  0
  7  9  1  6  0  0  0
  7 11  1  0  0  0  0
  8 10  1  0  0  0  0
 10 19  1  0  0  0  0
 11 16  2  0  0  0  0
 12 23  1  6  0  0  0
 12  1  1  0  0  0  0
 13  7  1  0  0  0  0
 14 18  2  0  0  0  0
 14 11  1  0  0  0  0
 15  1  1  1  0  0  0
 15 20  1  0  0  0  0
 16  2  1  0  0  0  0
 16  3  1  0  0  0  0
 17  8  1  0  0  0  0
 18  6  1  0  0  0  0
 20 19  1  0  0  0  0
 21 15  1  0  0  0  0
 21 17  1  6  0  0  0
 22 26  1  0  0  0  0
 23 27  1  0  0  0  0
 24 25  1  0  0  0  0
 24 23  2  0  0  0  0
 25 22  2  0  0  0  0
 27 26  2  0  0  0  0
M  END
>  <MODEL>
5

>  <REMARK>
 VINA RESULT:      -6.7      2.904      5.426
  Name = 
  1 active torsions:
  status: ('A' for Active; 'I' for Inactive)
    1  A    between atoms: C_9  and  C_15
                            x       y       z     vdW  Elec       q    Type
                         _______ _______ _______ _____ _____    ______ ____

>  <TORSDO>
F 1

$$$$
=
 OpenBabel10262419583D

 27 31  0  0  1  0  0  0  0  0999 V2000
  183.0390  177.8950  137.6700 C   0  0  0  0  0  2  0  0  0  0  0  0
  182.4590  179.1010  139.8420 C   0  0  0  0  0  0  0  0  0  0  0  0
  184.9030  178.6180  140.2180 N   0  0  0  0  0  2  0  0  0  0  0  0
  182.0490  178.8940  144.0200 N   0  0  0  0  0  2  0  0  0  0  0  0
  183.7910  178.4850  145.5470 O   0  0  0  0  0  0  0  0  0  0  0  0
  181.1700  179.2370  140.4070 C   0  0  0  0  0  3  0  0  0  0  0  0
  184.3390  178.6350  143.1800 C   0  0  2  0  0  3  0  0  0  0  0  0
  187.2850  177.9550  137.2990 C   0  0  0  0  0  2  0  0  0  0  0  0
  185.3070  179.8030  143.2590 C   0  0  0  0  0  1  0  0  0  0  0  0
  186.2750  178.2530  136.3680 O   0  0  0  0  0  0  0  0  0  0  0  0
  183.3490  178.8630  142.0850 C   0  0  0  0  0  0  0  0  0  0  0  0
  182.6450  179.2140  138.3430 C   0  0  2  0  0  3  0  0  0  0  0  0
  183.4140  178.6630  144.3600 C   0  0  0  0  0  0  0  0  0  0  0  0
  182.0800  179.0030  142.6080 C   0  0  0  0  0  0  0  0  0  0  0  0
  184.3280  177.2910  138.2340 C   0  0  1  0  0  3  0  0  0  0  0  0
  183.5740  178.8810  140.7020 C   0  0  0  0  0  0  0  0  0  0  0  0
  186.7610  178.0270  138.7440 C   0  0  0  0  0  2  0  0  0  0  0  0
  180.9700  179.1840  141.7910 C   0  0  0  0  0  3  0  0  0  0  0  0
  185.6400  177.0430  136.0240 C   0  0  0  0  0  2  0  0  0  0  0  0
  184.9710  176.3380  137.2180 C   0  0  0  0  0  2  0  0  0  0  0  0
  185.2680  178.3660  138.8290 C   0  0  2  0  0  3  0  0  0  0  0  0
  179.4820  181.1870  136.1950 C   0  0  0  0  0  3  0  0  0  0  0  0
  181.5360  179.9150  137.6120 C   0  0  0  0  0  0  0  0  0  0  0  0
  181.3050  181.2890  137.7850 C   0  0  0  0  0  3  0  0  0  0  0  0
  180.2780  181.9220  137.0780 C   0  0  0  0  0  3  0  0  0  0  0  0
  179.7120  179.8210  136.0160 C   0  0  0  0  0  3  0  0  0  0  0  0
  180.7380  179.1860  136.7230 C   0  0  0  0  0  3  0  0  0  0  0  0
  1 15  1  0  0  0  0
  1 12  1  0  0  0  0
  2  6  2  0  0  0  0
  2 16  1  0  0  0  0
  3 16  1  0  0  0  0
  4 13  1  0  0  0  0
  6 18  1  0  0  0  0
  7  9  1  1  0  0  0
  7 13  1  0  0  0  0
  8 17  1  0  0  0  0
 10  8  1  0  0  0  0
 11 14  1  0  0  0  0
 11  7  1  0  0  0  0
 12 23  1  6  0  0  0
 12  2  1  0  0  0  0
 13  5  2  0  0  0  0
 14  4  1  0  0  0  0
 15 20  1  6  0  0  0
 15 21  1  0  0  0  0
 16 11  2  0  0  0  0
 18 14  2  0  0  0  0
 19 10  1  0  0  0  0
 19 20  1  0  0  0  0
 21 17  1  1  0  0  0
 21  3  1  0  0  0  0
 22 25  1  0  0  0  0
 23 24  1  0  0  0  0
 25 24  2  0  0  0  0
 26 22  2  0  0  0  0
 26 27  1  0  0  0  0
 27 23  2  0  0  0  0
M  END
>  <MODEL>
6

>  <REMARK>
 VINA RESULT:      -6.3      5.156      9.027
  Name = 
  1 active torsions:
  status: ('A' for Active; 'I' for Inactive)
    1  A    between atoms: C_9  and  C_15
                            x       y       z     vdW  Elec       q    Type
                         _______ _______ _______ _____ _____    ______ ____

>  <TORSDO>
F 1

$$$$
=
 OpenBabel10262419583D

 27 31  0  0  1  0  0  0  0  0999 V2000
  188.1230  177.3860  138.5130 C   0  0  0  0  0  2  0  0  0  0  0  0
  189.7150  176.1080  136.9830 C   0  0  0  0  0  0  0  0  0  0  0  0
  191.1660  176.4000  139.0210 N   0  0  0  0  0  2  0  0  0  0  0  0
  193.2860  176.1200  134.7660 N   0  0  0  0  0  2  0  0  0  0  0  0
  195.4510  176.3250  135.6620 O   0  0  0  0  0  0  0  0  0  0  0  0
  189.6410  176.0310  135.5720 C   0  0  0  0  0  3  0  0  0  0  0  0
  193.5650  176.2640  137.1990 C   0  0  2  0  0  3  0  0  0  0  0  0
  189.6580  177.0520  142.4760 C   0  0  0  0  0  2  0  0  0  0  0  0
  193.9700  175.0290  137.9850 C   0  0  0  0  0  1  0  0  0  0  0  0
  188.3570  176.8750  141.9740 O   0  0  0  0  0  0  0  0  0  0  0  0
  192.1310  176.1640  136.7910 C   0  0  0  0  0  0  0  0  0  0  0  0
  188.4480  176.0630  137.8110 C   0  0  2  0  0  3  0  0  0  0  0  0
  194.2090  176.2370  135.8460 C   0  0  0  0  0  0  0  0  0  0  0  0
  192.0290  176.0850  135.4180 C   0  0  0  0  0  0  0  0  0  0  0  0
  189.2430  177.8670  139.4390 C   0  0  1  0  0  3  0  0  0  0  0  0
  190.9920  176.2040  137.6060 C   0  0  0  0  0  0  0  0  0  0  0  0
  190.7130  176.9390  141.3620 C   0  0  0  0  0  2  0  0  0  0  0  0
  190.7950  176.0250  134.7810 C   0  0  0  0  0  3  0  0  0  0  0  0
  187.8650  178.1420  141.6060 C   0  0  0  0  0  2  0  0  0  0  0  0
  188.6930  178.8270  140.5030 C   0  0  0  0  0  2  0  0  0  0  0  0
  190.1040  176.7000  139.9750 C   0  0  2  0  0  3  0  0  0  0  0  0
  184.9780  174.4390  135.8510 C   0  0  0  0  0  3  0  0  0  0  0  0
  187.2500  175.4810  137.1160 C   0  0  0  0  0  0  0  0  0  0  0  0
  187.0940  174.0920  136.9750 C   0  0  0  0  0  3  0  0  0  0  0  0
  185.9610  173.5740  136.3410 C   0  0  0  0  0  3  0  0  0  0  0  0
  185.1260  175.8210  135.9940 C   0  0  0  0  0  3  0  0  0  0  0  0
  186.2600  176.3400  136.6280 C   0  0  0  0  0  3  0  0  0  0  0  0
  2 16  1  0  0  0  0
  2 12  1  0  0  0  0
  3 21  1  0  0  0  0
  4 14  1  0  0  0  0
  4 13  1  0  0  0  0
  5 13  2  0  0  0  0
  6  2  2  0  0  0  0
  7  9  1  1  0  0  0
 10  8  1  0  0  0  0
 11  7  1  0  0  0  0
 11 16  2  0  0  0  0
 12 23  1  6  0  0  0
 12  1  1  0  0  0  0
 13  7  1  0  0  0  0
 14 11  1  0  0  0  0
 15  1  1  1  0  0  0
 15 21  1  0  0  0  0
 15 20  1  0  0  0  0
 16  3  1  0  0  0  0
 17  8  1  0  0  0  0
 18 14  2  0  0  0  0
 18  6  1  0  0  0  0
 19 10  1  0  0  0  0
 20 19  1  0  0  0  0
 21 17  1  1  0  0  0
 22 26  2  0  0  0  0
 22 25  1  0  0  0  0
 24 23  1  0  0  0  0
 25 24  2  0  0  0  0
 26 27  1  0  0  0  0
 27 23  2  0  0  0  0
M  END
>  <MODEL>
7

>  <REMARK>
 VINA RESULT:      -6.2      2.378      6.677
  Name = 
  1 active torsions:
  status: ('A' for Active; 'I' for Inactive)
    1  A    between atoms: C_9  and  C_15
                            x       y       z     vdW  Elec       q    Type
                         _______ _______ _______ _____ _____    ______ ____

>  <TORSDO>
F 1

$$$$
=
 OpenBabel10262419583D

 27 31  0  0  1  0  0  0  0  0999 V2000
  184.1410  177.6830  137.7410 C   0  0  0  0  0  2  0  0  0  0  0  0
  184.5280  178.6430  140.0730 C   0  0  0  0  0  0  0  0  0  0  0  0
  186.9030  178.2260  139.3450 N   0  0  0  0  0  2  0  0  0  0  0  0
  185.8980  178.0050  143.9950 N   0  0  0  0  0  2  0  0  0  0  0  0
  188.1170  177.5190  144.6060 O   0  0  0  0  0  0  0  0  0  0  0  0
  183.5920  178.6700  141.1340 C   0  0  0  0  0  3  0  0  0  0  0  0
  187.6280  177.9260  142.2570 C   0  0  2  0  0  3  0  0  0  0  0  0
  187.8450  177.9540  135.6480 C   0  0  0  0  0  2  0  0  0  0  0  0
  188.5450  179.1190  142.0510 C   0  0  0  0  0  1  0  0  0  0  0  0
  186.5390  178.3010  135.2590 O   0  0  0  0  0  0  0  0  0  0  0  0
  186.2710  178.2200  141.7040 C   0  0  0  0  0  0  0  0  0  0  0  0
  184.0700  178.9120  138.6550 C   0  0  2  0  0  3  0  0  0  0  0  0
  187.2800  177.7980  143.7090 C   0  0  0  0  0  0  0  0  0  0  0  0
  185.3380  178.2550  142.7180 C   0  0  0  0  0  0  0  0  0  0  0  0
  185.5460  177.0800  137.6500 C   0  0  1  0  0  3  0  0  0  0  0  0
  185.8980  178.3850  140.3630 C   0  0  0  0  0  0  0  0  0  0  0  0
  187.9720  177.8610  137.1780 C   0  0  0  0  0  2  0  0  0  0  0  0
  183.9890  178.4710  142.4610 C   0  0  0  0  0  3  0  0  0  0  0  0
  185.8140  177.1070  135.0820 C   0  0  0  0  0  2  0  0  0  0  0  0
  185.7020  176.2590  136.3630 C   0  0  0  0  0  2  0  0  0  0  0  0
  186.6530  178.1280  137.9120 C   0  0  2  0  0  3  0  0  0  0  0  0
  180.3010  180.9460  138.2500 C   0  0  0  0  0  3  0  0  0  0  0  0
  182.7600  179.6360  138.5310 C   0  0  0  0  0  0  0  0  0  0  0  0
  182.6860  181.0330  138.6530 C   0  0  0  0  0  3  0  0  0  0  0  0
  181.4570  181.6850  138.5150 C   0  0  0  0  0  3  0  0  0  0  0  0
  180.3710  179.5570  138.1210 C   0  0  0  0  0  3  0  0  0  0  0  0
  181.5990  178.9030  138.2600 C   0  0  0  0  0  3  0  0  0  0  0  0
  1 12  1  0  0  0  0
  2 16  2  0  0  0  0
  2  6  1  0  0  0  0
  3 16  1  0  0  0  0
  6 18  2  0  0  0  0
  7  9  1  1  0  0  0
  7 13  1  0  0  0  0
  8 17  1  0  0  0  0
 10  8  1  0  0  0  0
 11  7  1  0  0  0  0
 11 14  2  0  0  0  0
 12 23  1  1  0  0  0
 12  2  1  0  0  0  0
 13  4  1  0  0  0  0
 13  5  2  0  0  0  0
 14  4  1  0  0  0  0
 15 20  1  6  0  0  0
 15  1  1  0  0  0  0
 15 21  1  0  0  0  0
 16 11  1  0  0  0  0
 18 14  1  0  0  0  0
 19 10  1  0  0  0  0
 19 20  1  0  0  0  0
 21 17  1  6  0  0  0
 21  3  1  0  0  0  0
 22 25  1  0  0  0  0
 23 24  1  0  0  0  0
 25 24  2  0  0  0  0
 26 22  2  0  0  0  0
 26 27  1  0  0  0  0
 27 23  2  0  0  0  0
M  END
>  <MODEL>
8

>  <REMARK>
 VINA RESULT:      -6.2      4.050      7.763
  Name = 
  1 active torsions:
  status: ('A' for Active; 'I' for Inactive)
    1  A    between atoms: C_9  and  C_15
                            x       y       z     vdW  Elec       q    Type
                         _______ _______ _______ _____ _____    ______ ____

>  <TORSDO>
F 1

$$$$
=
 OpenBabel10262419583D

 27 31  0  0  1  0  0  0  0  0999 V2000
  189.1730  176.5660  141.2070 C   0  0  0  0  0  2  0  0  0  0  0  0
  187.0670  177.9950  141.0240 C   0  0  0  0  0  0  0  0  0  0  0  0
  187.6350  178.3160  143.4570 N   0  0  0  0  0  2  0  0  0  0  0  0
  183.0620  178.5790  142.1560 N   0  0  0  0  0  2  0  0  0  0  0  0
  182.3070  179.0170  144.3400 O   0  0  0  0  0  0  0  0  0  0  0  0
  186.0580  177.8780  140.0400 C   0  0  0  0  0  3  0  0  0  0  0  0
  184.7030  178.8070  143.9650 C   0  0  2  0  0  3  0  0  0  0  0  0
  191.1790  177.7460  144.7780 C   0  0  0  0  0  2  0  0  0  0  0  0
  185.1160  180.1900  144.4380 C   0  0  0  0  0  1  0  0  0  0  0  0
  191.6640  177.5390  143.4750 O   0  0  0  0  0  0  0  0  0  0  0  0
  185.3390  178.5040  142.6470 C   0  0  0  0  0  0  0  0  0  0  0  0
  188.5220  177.8320  140.6380 C   0  0  2  0  0  3  0  0  0  0  0  0
  183.2640  178.8230  143.5460 C   0  0  0  0  0  0  0  0  0  0  0  0
  184.3770  178.3880  141.6660 C   0  0  0  0  0  0  0  0  0  0  0  0
  189.1060  176.4890  142.7350 C   0  0  1  0  0  3  0  0  0  0  0  0
  186.6950  178.2890  142.3680 C   0  0  0  0  0  0  0  0  0  0  0  0
  189.6580  177.9740  144.7860 C   0  0  0  0  0  2  0  0  0  0  0  0
  184.7070  178.0670  140.3550 C   0  0  0  0  0  3  0  0  0  0  0  0
  191.6210  176.1550  143.2180 C   0  0  0  0  0  2  0  0  0  0  0  0
  190.2010  175.5620  143.2800 C   0  0  0  0  0  2  0  0  0  0  0  0
  189.0270  177.8870  143.3910 C   0  0  2  0  0  3  0  0  0  0  0  0
  189.4310  178.3190  136.4610 C   0  0  0  0  0  3  0  0  0  0  0  0
  188.8220  178.0170  139.1780 C   0  0  0  0  0  0  0  0  0  0  0  0
  188.7540  179.2830  138.5750 C   0  0  0  0  0  3  0  0  0  0  0  0
  189.0550  179.4320  137.2190 C   0  0  0  0  0  3  0  0  0  0  0  0
  189.5050  177.0580  137.0580 C   0  0  0  0  0  3  0  0  0  0  0  0
  189.2030  176.9080  138.4140 C   0  0  0  0  0  3  0  0  0  0  0  0
  2 16  1  0  0  0  0
  4 13  1  0  0  0  0
  6 18  1  0  0  0  0
  6  2  2  0  0  0  0
  7  9  1  6  0  0  0
  8 17  1  0  0  0  0
 10  8  1  0  0  0  0
 11  7  1  0  0  0  0
 12 23  1  6  0  0  0
 12  2  1  0  0  0  0
 12  1  1  0  0  0  0
 13  7  1  0  0  0  0
 13  5  2  0  0  0  0
 14  4  1  0  0  0  0
 14 11  1  0  0  0  0
 15  1  1  6  0  0  0
 15 20  1  0  0  0  0
 15 21  1  0  0  0  0
 16 11  2  0  0  0  0
 16  3  1  0  0  0  0
 18 14  2  0  0  0  0
 19 20  1  0  0  0  0
 19 10  1  0  0  0  0
 21  3  1  0  0  0  0
 21 17  1  1  0  0  0
 22 26  2  0  0  0  0
 22 25  1  0  0  0  0
 24 23  1  0  0  0  0
 25 24  2  0  0  0  0
 26 27  1  0  0  0  0
 27 23  2  0  0  0  0
M  END
>  <MODEL>
9

>  <REMARK>
 VINA RESULT:      -6.1      3.753      6.383
  Name = 
  1 active torsions:
  status: ('A' for Active; 'I' for Inactive)
    1  A    between atoms: C_9  and  C_15
                            x       y       z     vdW  Elec       q    Type
                         _______ _______ _______ _____ _____    ______ ____

>  <TORSDO>
F 1

$$$$
