=
 OpenBabel10262421513D

 30 34  0  0  1  0  0  0  0  0999 V2000
  186.4300  178.2030  144.7460 C   0  0  0  0  0  0  0  0  0  0  0  0
  186.8410  178.2290  147.2640 C   0  0  0  0  0  0  0  0  0  0  0  0
  190.4310  176.9600  144.2050 O   0  0  0  0  0  0  0  0  0  0  0  0
  186.9190  177.9820  143.4370 C   0  0  0  0  0  0  0  0  0  0  0  0
  185.0700  178.8230  144.9400 C   0  0  0  0  0  2  0  0  0  0  0  0
  183.8800  178.8390  141.4150 O   0  0  0  0  0  1  0  0  0  0  0  0
  188.3650  178.6020  141.0630 C   0  0  2  0  0  3  0  0  0  0  0  0
  184.7690  179.0270  142.4770 C   0  0  1  0  0  3  0  0  0  0  0  0
  190.0330  176.6490  141.5960 C   0  0  2  0  0  3  0  0  0  0  0  0
  190.9100  175.8220  143.4860 C   0  0  0  0  0  2  0  0  0  0  0  0
  184.1260  178.5550  143.7780 C   0  0  2  0  0  3  0  0  0  0  0  0
  186.0590  178.2480  142.2050 C   0  0  1  0  0  3  0  0  0  0  0  0
  187.8480  178.2960  148.3280 C   0  0  0  0  0  3  0  0  0  0  0  0
  189.0030  178.7470  139.6860 C   0  0  0  0  0  1  0  0  0  0  0  0
  185.6330  178.4080  147.5680 O   0  0  0  0  0  0  0  0  0  0  0  0
  189.0780  177.3000  144.3520 C   0  0  0  0  0  0  0  0  0  0  0  0
  189.0960  177.8950  148.1090 C   0  0  0  0  0  3  0  0  0  0  0  0
  187.2720  177.9730  145.8600 C   0  0  0  0  0  0  0  0  0  0  0  0
  188.2170  177.4690  143.2390 C   0  0  0  0  0  0  0  0  0  0  0  0
  190.0980  175.5010  142.3920 O   0  0  0  0  0  0  0  0  0  0  0  0
  188.6460  177.2780  141.7920 C   0  0  1  0  0  3  0  0  0  0  0  0
  186.2790  178.4520  139.8290 O   0  0  0  0  0  1  0  0  0  0  0  0
  189.5230  177.2660  146.8140 C   0  0  0  0  0  2  0  0  0  0  0  0
  188.6030  177.5520  145.6480 C   0  0  0  0  0  0  0  0  0  0  0  0
  186.8430  178.8850  141.0320 C   0  0  2  0  0  3  0  0  0  0  0  0
  190.2180  176.2760  140.2620 O   0  0  0  0  0  0  0  0  0  0  0  0
  191.4860  176.7540  139.9280 C   0  0  0  0  0  1  0  0  0  0  0  0
  182.7550  179.1960  144.0260 C   0  0  0  0  0  2  0  0  0  0  0  0
  180.3080  178.9170  143.5960 C   0  0  0  0  0  1  0  0  0  0  0  0
  181.5980  178.2060  143.9580 C   0  0  0  0  0  2  0  0  0  0  0  0
  1  5  1  0  0  0  0
  1 18  1  0  0  0  0
  2 15  2  0  0  0  0
  2 13  1  0  0  0  0
  3 16  1  0  0  0  0
  4  1  2  0  0  0  0
  7 14  1  6  0  0  0
  7 21  1  0  0  0  0
  8  6  1  6  0  0  0
  8 11  1  0  0  0  0
  9 26  1  6  0  0  0
  9 21  1  0  0  0  0
  9 20  1  0  0  0  0
 10  3  1  0  0  0  0
 11 28  1  1  0  0  0
 11  5  1  0  0  0  0
 12  8  1  0  0  0  0
 12  4  1  1  0  0  0
 16 24  1  0  0  0  0
 17 13  2  0  0  0  0
 18  2  1  0  0  0  0
 19  4  1  0  0  0  0
 19 16  2  0  0  0  0
 20 10  1  0  0  0  0
 21 19  1  1  0  0  0
 23 17  1  0  0  0  0
 24 18  2  0  0  0  0
 24 23  1  0  0  0  0
 25 22  1  6  0  0  0
 25  7  1  0  0  0  0
 25 12  1  0  0  0  0
 27 26  1  0  0  0  0
 29 30  1  0  0  0  0
 30 28  1  0  0  0  0
M  END
>  <MODEL>
1

>  <REMARK>
 VINA RESULT:     -11.3      0.000      0.000
  Name = 
  3 active torsions:
  status: ('A' for Active; 'I' for Inactive)
    1  A    between atoms: C_9  and  C_12
    2  A    between atoms: C_9  and  C_21
    3  A    between atoms: C_10  and  O_15
                            x       y       z     vdW  Elec       q    Type
                         _______ _______ _______ _____ _____    ______ ____

>  <TORSDO>
F 3

$$$$
=
 OpenBabel10262421513D

 30 34  0  0  1  0  0  0  0  0999 V2000
  186.6990  178.1890  142.5170 C   0  0  0  0  0  0  0  0  0  0  0  0
  184.2560  178.6110  143.1210 C   0  0  0  0  0  0  0  0  0  0  0  0
  187.5900  178.0370  146.6440 O   0  0  0  0  0  0  0  0  0  0  0  0
  188.0320  177.9640  142.9330 C   0  0  0  0  0  0  0  0  0  0  0  0
  186.4030  178.4300  141.0590 C   0  0  0  0  0  2  0  0  0  0  0  0
  189.7560  177.7210  139.6130 O   0  0  0  0  0  1  0  0  0  0  0  0
  190.6000  178.6850  143.9310 C   0  0  2  0  0  3  0  0  0  0  0  0
  188.8220  178.2640  140.5000 C   0  0  1  0  0  3  0  0  0  0  0  0
  190.1010  177.3370  146.1250 C   0  0  2  0  0  3  0  0  0  0  0  0
  188.2610  177.0010  147.3620 C   0  0  0  0  0  2  0  0  0  0  0  0
  187.4210  177.7840  140.1330 C   0  0  2  0  0  3  0  0  0  0  0  0
  189.1750  177.8430  141.9290 C   0  0  1  0  0  3  0  0  0  0  0  0
  183.3250  179.0700  144.1560 C   0  0  0  0  0  3  0  0  0  0  0  0
  192.0490  178.8430  144.3800 C   0  0  0  0  0  1  0  0  0  0  0  0
  183.8310  178.4840  141.9430 O   0  0  0  0  0  0  0  0  0  0  0  0
  187.3170  178.0080  145.2680 C   0  0  0  0  0  0  0  0  0  0  0  0
  183.6500  179.0050  145.4430 C   0  0  0  0  0  3  0  0  0  0  0  0
  185.6740  178.3250  143.4830 C   0  0  0  0  0  0  0  0  0  0  0  0
  188.3350  177.8070  144.3010 C   0  0  0  0  0  0  0  0  0  0  0  0
  189.2240  176.3480  146.5830 O   0  0  0  0  0  0  0  0  0  0  0  0
  189.8000  177.5790  144.6390 C   0  0  1  0  0  3  0  0  0  0  0  0
  191.5690  177.8300  141.8750 O   0  0  0  0  0  1  0  0  0  0  0  0
  184.9290  178.3750  145.9160 C   0  0  0  0  0  2  0  0  0  0  0  0
  186.0010  178.2650  144.8550 C   0  0  0  0  0  0  0  0  0  0  0  0
  190.4790  178.5350  142.3950 C   0  0  2  0  0  3  0  0  0  0  0  0
  191.4110  176.8810  146.2920 O   0  0  0  0  0  0  0  0  0  0  0  0
  191.5410  176.6530  147.6630 C   0  0  0  0  0  1  0  0  0  0  0  0
  187.0710  178.0490  138.6630 C   0  0  0  0  0  2  0  0  0  0  0  0
  185.1250  177.4270  137.2220 C   0  0  0  0  0  1  0  0  0  0  0  0
  185.5790  178.2440  138.4170 C   0  0  0  0  0  2  0  0  0  0  0  0
  1  4  2  0  0  0  0
  1 18  1  0  0  0  0
  2 18  1  0  0  0  0
  2 13  1  0  0  0  0
  3 10  1  0  0  0  0
  4 19  1  0  0  0  0
  5  1  1  0  0  0  0
  7 14  1  6  0  0  0
  7 21  1  0  0  0  0
  8  6  1  6  0  0  0
  8 12  1  0  0  0  0
  9 26  1  6  0  0  0
  9 20  1  0  0  0  0
 11 28  1  6  0  0  0
 11  8  1  0  0  0  0
 11  5  1  0  0  0  0
 12 25  1  0  0  0  0
 12  4  1  1  0  0  0
 13 17  2  0  0  0  0
 15  2  2  0  0  0  0
 16  3  1  0  0  0  0
 17 23  1  0  0  0  0
 18 24  2  0  0  0  0
 19 16  2  0  0  0  0
 20 10  1  0  0  0  0
 21 19  1  1  0  0  0
 21  9  1  0  0  0  0
 24 16  1  0  0  0  0
 24 23  1  0  0  0  0
 25 22  1  1  0  0  0
 25  7  1  0  0  0  0
 26 27  1  0  0  0  0
 29 30  1  0  0  0  0
 30 28  1  0  0  0  0
M  END
>  <MODEL>
2

>  <REMARK>
 VINA RESULT:      -9.9      1.846      4.961
  Name = 
  3 active torsions:
  status: ('A' for Active; 'I' for Inactive)
    1  A    between atoms: C_9  and  C_12
    2  A    between atoms: C_9  and  C_21
    3  A    between atoms: C_10  and  O_15
                            x       y       z     vdW  Elec       q    Type
                         _______ _______ _______ _____ _____    ______ ____

>  <TORSDO>
F 3

$$$$
=
 OpenBabel10262421513D

 30 34  0  0  1  0  0  0  0  0999 V2000
  188.3030  177.6320  143.1480 C   0  0  0  0  0  0  0  0  0  0  0  0
  190.1470  177.4330  141.3950 C   0  0  0  0  0  0  0  0  0  0  0  0
  185.6060  178.6320  140.0530 O   0  0  0  0  0  0  0  0  0  0  0  0
  186.9510  177.9050  143.4630 C   0  0  0  0  0  0  0  0  0  0  0  0
  189.3090  177.4590  144.2570 C   0  0  0  0  0  2  0  0  0  0  0  0
  187.0180  177.4800  147.1880 O   0  0  0  0  0  1  0  0  0  0  0  0
  184.6740  179.5460  143.9430 C   0  0  2  0  0  3  0  0  0  0  0  0
  187.5550  177.8990  145.9680 C   0  0  1  0  0  3  0  0  0  0  0  0
  183.5670  178.6100  141.7570 C   0  0  2  0  0  3  0  0  0  0  0  0
  184.3550  178.0180  139.7440 C   0  0  0  0  0  2  0  0  0  0  0  0
  188.6840  176.9610  145.5500 C   0  0  2  0  0  3  0  0  0  0  0  0
  186.4520  177.9150  144.9060 C   0  0  1  0  0  3  0  0  0  0  0  0
  190.5830  177.8070  140.0460 C   0  0  0  0  0  3  0  0  0  0  0  0
  183.3530  180.2160  144.3040 C   0  0  0  0  0  1  0  0  0  0  0  0
  190.9930  176.9400  142.1860 O   0  0  0  0  0  0  0  0  0  0  0  0
  186.4570  178.2320  141.0940 C   0  0  0  0  0  0  0  0  0  0  0  0
  189.6970  178.1160  139.1050 C   0  0  0  0  0  3  0  0  0  0  0  0
  188.7300  177.6630  141.7980 C   0  0  0  0  0  0  0  0  0  0  0  0
  186.0130  178.1390  142.4370 C   0  0  0  0  0  0  0  0  0  0  0  0
  183.7040  177.5280  140.8820 O   0  0  0  0  0  0  0  0  0  0  0  0
  184.5890  178.4310  142.8880 C   0  0  1  0  0  3  0  0  0  0  0  0
  184.5400  178.5980  146.1750 O   0  0  0  0  0  1  0  0  0  0  0  0
  188.2160  178.0070  139.3300 C   0  0  0  0  0  2  0  0  0  0  0  0
  187.8050  177.9950  140.7850 C   0  0  0  0  0  0  0  0  0  0  0  0
  185.4330  179.0440  145.1960 C   0  0  2  0  0  3  0  0  0  0  0  0
  182.2660  178.6070  142.2670 O   0  0  0  0  0  0  0  0  0  0  0  0
  181.4600  179.0030  141.1990 C   0  0  0  0  0  1  0  0  0  0  0  0
  189.7460  176.7920  146.6430 C   0  0  0  0  0  2  0  0  0  0  0  0
  192.0600  175.8930  146.9470 C   0  0  0  0  0  1  0  0  0  0  0  0
  191.1760  176.7980  146.1100 C   0  0  0  0  0  2  0  0  0  0  0  0
  1  4  1  0  0  0  0
  1  5  1  0  0  0  0
  2 18  1  0  0  0  0
  2 15  2  0  0  0  0
  3 16  1  0  0  0  0
  5 11  1  0  0  0  0
  7 14  1  1  0  0  0
  7 25  1  0  0  0  0
  8  6  1  1  0  0  0
  9 26  1  1  0  0  0
  9 21  1  0  0  0  0
 10  3  1  0  0  0  0
 10 20  1  0  0  0  0
 11  8  1  0  0  0  0
 11 28  1  1  0  0  0
 12  4  1  6  0  0  0
 12 25  1  0  0  0  0
 12  8  1  0  0  0  0
 13  2  1  0  0  0  0
 16 19  1  0  0  0  0
 17 23  1  0  0  0  0
 17 13  2  0  0  0  0
 18  1  2  0  0  0  0
 19  4  2  0  0  0  0
 20  9  1  0  0  0  0
 21 19  1  6  0  0  0
 21  7  1  0  0  0  0
 23 24  1  0  0  0  0
 24 16  2  0  0  0  0
 24 18  1  0  0  0  0
 25 22  1  1  0  0  0
 27 26  1  0  0  0  0
 30 28  1  0  0  0  0
 30 29  1  0  0  0  0
M  END
>  <MODEL>
3

>  <REMARK>
 VINA RESULT:      -9.9      1.406      6.764
  Name = 
  3 active torsions:
  status: ('A' for Active; 'I' for Inactive)
    1  A    between atoms: C_9  and  C_12
    2  A    between atoms: C_9  and  C_21
    3  A    between atoms: C_10  and  O_15
                            x       y       z     vdW  Elec       q    Type
                         _______ _______ _______ _____ _____    ______ ____

>  <TORSDO>
F 3

$$$$
=
 OpenBabel10262421513D

 30 34  0  0  1  0  0  0  0  0999 V2000
  185.5860  178.3450  143.6700 C   0  0  0  0  0  0  0  0  0  0  0  0
  185.4320  178.5160  146.2110 C   0  0  0  0  0  0  0  0  0  0  0  0
  189.6400  177.2340  144.0900 O   0  0  0  0  0  0  0  0  0  0  0  0
  186.3580  178.0760  142.5150 C   0  0  0  0  0  0  0  0  0  0  0  0
  184.2000  178.9190  143.5250 C   0  0  0  0  0  2  0  0  0  0  0  0
  183.8170  178.7070  139.8310 O   0  0  0  0  0  1  0  0  0  0  0  0
  188.2730  178.6300  140.4820 C   0  0  2  0  0  3  0  0  0  0  0  0
  184.4440  178.9840  141.0490 C   0  0  1  0  0  3  0  0  0  0  0  0
  189.8350  176.7740  141.4800 C   0  0  2  0  0  3  0  0  0  0  0  0
  190.2960  176.0810  143.5620 C   0  0  0  0  0  2  0  0  0  0  0  0
  183.5430  178.5550  142.2040 C   0  0  2  0  0  3  0  0  0  0  0  0
  185.7830  178.2440  141.1110 C   0  0  1  0  0  3  0  0  0  0  0  0
  186.1770  178.6770  147.4630 C   0  0  0  0  0  3  0  0  0  0  0  0
  189.1950  178.7290  139.2720 C   0  0  0  0  0  1  0  0  0  0  0  0
  184.1810  178.6620  146.2320 O   0  0  0  0  0  0  0  0  0  0  0  0
  188.2790  177.5280  143.9180 C   0  0  0  0  0  0  0  0  0  0  0  0
  187.4530  178.3150  147.5470 C   0  0  0  0  0  3  0  0  0  0  0  0
  186.1680  178.2050  144.9520 C   0  0  0  0  0  0  0  0  0  0  0  0
  187.6810  177.6050  142.6360 C   0  0  0  0  0  0  0  0  0  0  0  0
  189.7550  175.6720  142.3380 O   0  0  0  0  0  0  0  0  0  0  0  0
  188.4230  177.3570  141.3310 C   0  0  1  0  0  3  0  0  0  0  0  0
  186.5160  178.3340  138.8330 O   0  0  0  0  0  1  0  0  0  0  0  0
  188.1720  177.6370  146.4150 C   0  0  0  0  0  2  0  0  0  0  0  0
  187.5240  177.8270  145.0620 C   0  0  0  0  0  0  0  0  0  0  0  0
  186.7890  178.8510  140.1030 C   0  0  2  0  0  3  0  0  0  0  0  0
  190.3200  176.3410  140.2440 O   0  0  0  0  0  0  0  0  0  0  0  0
  191.5980  176.8930  140.1450 C   0  0  0  0  0  1  0  0  0  0  0  0
  182.1340  179.1540  142.1080 C   0  0  0  0  0  2  0  0  0  0  0  0
  180.5320  178.6410  143.9570 C   0  0  0  0  0  1  0  0  0  0  0  0
  181.0380  178.2120  142.5940 C   0  0  0  0  0  2  0  0  0  0  0  0
  1 18  1  0  0  0  0
  2 15  2  0  0  0  0
  2 13  1  0  0  0  0
  4 19  1  0  0  0  0
  4  1  2  0  0  0  0
  5  1  1  0  0  0  0
  7 14  1  6  0  0  0
  7 21  1  0  0  0  0
  8  6  1  6  0  0  0
  8 12  1  0  0  0  0
  8 11  1  0  0  0  0
  9 26  1  6  0  0  0
  9 20  1  0  0  0  0
 10  3  1  0  0  0  0
 11 28  1  6  0  0  0
 11  5  1  0  0  0  0
 12  4  1  1  0  0  0
 13 17  2  0  0  0  0
 16  3  1  0  0  0  0
 16 24  1  0  0  0  0
 18 24  2  0  0  0  0
 18  2  1  0  0  0  0
 19 16  2  0  0  0  0
 20 10  1  0  0  0  0
 21  9  1  0  0  0  0
 21 19  1  1  0  0  0
 23 17  1  0  0  0  0
 24 23  1  0  0  0  0
 25 22  1  6  0  0  0
 25  7  1  0  0  0  0
 25 12  1  0  0  0  0
 27 26  1  0  0  0  0
 28 30  1  0  0  0  0
 30 29  1  0  0  0  0
M  END
>  <MODEL>
4

>  <REMARK>
 VINA RESULT:      -9.7      1.006      1.247
  Name = 
  3 active torsions:
  status: ('A' for Active; 'I' for Inactive)
    1  A    between atoms: C_9  and  C_12
    2  A    between atoms: C_9  and  C_21
    3  A    between atoms: C_10  and  O_15
                            x       y       z     vdW  Elec       q    Type
                         _______ _______ _______ _____ _____    ______ ____

>  <TORSDO>
F 3

$$$$
=
 OpenBabel10262421513D

 30 34  0  0  1  0  0  0  0  0999 V2000
  186.7160  178.4700  142.7820 C   0  0  0  0  0  0  0  0  0  0  0  0
  186.7320  178.3870  140.2320 C   0  0  0  0  0  0  0  0  0  0  0  0
  190.7000  177.0660  142.7530 O   0  0  0  0  0  0  0  0  0  0  0  0
  187.3900  178.2640  144.0080 C   0  0  0  0  0  0  0  0  0  0  0  0
  185.2430  178.7890  142.7840 C   0  0  0  0  0  2  0  0  0  0  0  0
  184.7020  179.2250  146.4390 O   0  0  0  0  0  1  0  0  0  0  0  0
  188.4490  176.7400  146.1690 C   0  0  2  0  0  3  0  0  0  0  0  0
  185.1720  178.6260  145.2670 C   0  0  1  0  0  3  0  0  0  0  0  0
  190.8750  177.3630  145.3890 C   0  0  2  0  0  3  0  0  0  0  0  0
  191.8420  177.6450  143.3860 C   0  0  0  0  0  2  0  0  0  0  0  0
  184.7880  179.4780  144.0600 C   0  0  2  0  0  3  0  0  0  0  0  0
  186.6930  178.4700  145.3500 C   0  0  1  0  0  3  0  0  0  0  0  0
  187.3680  177.8150  139.0410 C   0  0  0  0  0  3  0  0  0  0  0  0
  189.0320  176.1470  147.4470 C   0  0  0  0  0  1  0  0  0  0  0  0
  185.6290  178.9800  140.0990 O   0  0  0  0  0  0  0  0  0  0  0  0
  189.4050  177.6020  142.7970 C   0  0  0  0  0  0  0  0  0  0  0  0
  188.6240  177.3840  139.0810 C   0  0  0  0  0  3  0  0  0  0  0  0
  187.3920  178.2370  141.5600 C   0  0  0  0  0  0  0  0  0  0  0  0
  188.7510  177.8950  144.0210 C   0  0  0  0  0  0  0  0  0  0  0  0
  191.5170  178.3040  144.5770 O   0  0  0  0  0  0  0  0  0  0  0  0
  189.3760  177.6910  145.3920 C   0  0  1  0  0  3  0  0  0  0  0  0
  187.0250  178.0050  147.6760 O   0  0  0  0  0  1  0  0  0  0  0  0
  189.4900  177.5440  140.2980 C   0  0  0  0  0  2  0  0  0  0  0  0
  188.7250  177.7740  141.5820 C   0  0  0  0  0  0  0  0  0  0  0  0
  187.0750  177.4100  146.4110 C   0  0  2  0  0  3  0  0  0  0  0  0
  191.4010  177.4570  146.6790 O   0  0  0  0  0  0  0  0  0  0  0  0
  192.1030  176.2660  146.8700 C   0  0  0  0  0  1  0  0  0  0  0  0
  183.2880  179.7910  144.0110 C   0  0  0  0  0  2  0  0  0  0  0  0
  181.0410  178.6990  143.9100 C   0  0  0  0  0  1  0  0  0  0  0  0
  182.4560  178.6880  143.3650 C   0  0  0  0  0  2  0  0  0  0  0  0
  1  5  1  0  0  0  0
  1  4  1  0  0  0  0
  2 18  1  0  0  0  0
  3 16  1  0  0  0  0
  3 10  1  0  0  0  0
  4 19  2  0  0  0  0
  5 11  1  0  0  0  0
  7 25  1  0  0  0  0
  7 14  1  1  0  0  0
  8 12  1  0  0  0  0
  8  6  1  1  0  0  0
  9 21  1  0  0  0  0
  9 26  1  1  0  0  0
 10 20  1  0  0  0  0
 11 28  1  6  0  0  0
 11  8  1  0  0  0  0
 12  4  1  6  0  0  0
 12 25  1  0  0  0  0
 13 17  2  0  0  0  0
 13  2  1  0  0  0  0
 15  2  2  0  0  0  0
 16 19  1  0  0  0  0
 17 23  1  0  0  0  0
 18 24  1  0  0  0  0
 18  1  2  0  0  0  0
 20  9  1  0  0  0  0
 21 19  1  6  0  0  0
 21  7  1  0  0  0  0
 23 24  1  0  0  0  0
 24 16  2  0  0  0  0
 25 22  1  1  0  0  0
 26 27  1  0  0  0  0
 30 29  1  0  0  0  0
 30 28  1  0  0  0  0
M  END
>  <MODEL>
5

>  <REMARK>
 VINA RESULT:      -9.4      1.374      4.989
  Name = 
  3 active torsions:
  status: ('A' for Active; 'I' for Inactive)
    1  A    between atoms: C_9  and  C_12
    2  A    between atoms: C_9  and  C_21
    3  A    between atoms: C_10  and  O_15
                            x       y       z     vdW  Elec       q    Type
                         _______ _______ _______ _____ _____    ______ ____

>  <TORSDO>
F 3

$$$$
=
 OpenBabel10262421513D

 30 34  0  0  1  0  0  0  0  0999 V2000
  187.6660  178.1020  141.8050 C   0  0  0  0  0  0  0  0  0  0  0  0
  189.4250  177.5510  143.5690 C   0  0  0  0  0  0  0  0  0  0  0  0
  184.7450  178.0890  144.8570 O   0  0  0  0  0  0  0  0  0  0  0  0
  186.3140  178.3610  141.4760 C   0  0  0  0  0  0  0  0  0  0  0  0
  188.6800  177.9210  140.7050 C   0  0  0  0  0  2  0  0  0  0  0  0
  186.5890  178.8370  137.7670 O   0  0  0  0  0  1  0  0  0  0  0  0
  183.5980  177.6990  140.9370 C   0  0  2  0  0  3  0  0  0  0  0  0
  186.9140  178.2130  138.9750 C   0  0  1  0  0  3  0  0  0  0  0  0
  182.8860  178.9160  143.1480 C   0  0  2  0  0  3  0  0  0  0  0  0
  183.8070  179.1150  145.1820 C   0  0  0  0  0  2  0  0  0  0  0  0
  188.3040  178.6520  139.4260 C   0  0  2  0  0  3  0  0  0  0  0  0
  185.8690  178.5780  140.0330 C   0  0  1  0  0  3  0  0  0  0  0  0
  189.6720  177.0030  144.9060 C   0  0  0  0  0  3  0  0  0  0  0  0
  182.1280  177.5790  140.5510 C   0  0  0  0  0  1  0  0  0  0  0  0
  190.4060  177.7170  142.7970 O   0  0  0  0  0  0  0  0  0  0  0  0
  185.6990  178.1740  143.8320 C   0  0  0  0  0  0  0  0  0  0  0  0
  188.7200  177.0190  145.8340 C   0  0  0  0  0  3  0  0  0  0  0  0
  188.0310  177.8760  143.1530 C   0  0  0  0  0  0  0  0  0  0  0  0
  185.3410  178.4630  142.4910 C   0  0  0  0  0  0  0  0  0  0  0  0
  183.4020  179.8440  144.0590 O   0  0  0  0  0  0  0  0  0  0  0  0
  183.9180  178.7350  142.0270 C   0  0  1  0  0  3  0  0  0  0  0  0
  183.8580  178.6920  138.7360 O   0  0  0  0  0  1  0  0  0  0  0  0
  187.3890  177.6770  145.6080 C   0  0  0  0  0  2  0  0  0  0  0  0
  187.0340  177.8830  144.1520 C   0  0  0  0  0  0  0  0  0  0  0  0
  184.5070  177.9190  139.7030 C   0  0  2  0  0  3  0  0  0  0  0  0
  181.6870  179.4170  142.6350 O   0  0  0  0  0  0  0  0  0  0  0  0
  180.6980  178.9340  143.4920 C   0  0  0  0  0  1  0  0  0  0  0  0
  189.3700  178.4460  138.3430 C   0  0  0  0  0  2  0  0  0  0  0  0
  191.1820  176.7240  138.2800 C   0  0  0  0  0  1  0  0  0  0  0  0
  189.7000  176.9790  138.0830 C   0  0  0  0  0  2  0  0  0  0  0  0
  1 18  1  0  0  0  0
  2 13  1  0  0  0  0
  3 10  1  0  0  0  0
  4  1  2  0  0  0  0
  4 19  1  0  0  0  0
  5  1  1  0  0  0  0
  7 14  1  6  0  0  0
  7 21  1  0  0  0  0
  8  6  1  6  0  0  0
  8 11  1  0  0  0  0
  8 12  1  0  0  0  0
  9 26  1  6  0  0  0
  9 20  1  0  0  0  0
 11 28  1  6  0  0  0
 11  5  1  0  0  0  0
 12  4  1  1  0  0  0
 13 17  2  0  0  0  0
 15  2  2  0  0  0  0
 16 24  1  0  0  0  0
 16  3  1  0  0  0  0
 18  2  1  0  0  0  0
 18 24  2  0  0  0  0
 19 16  2  0  0  0  0
 20 10  1  0  0  0  0
 21 19  1  1  0  0  0
 21  9  1  0  0  0  0
 23 17  1  0  0  0  0
 24 23  1  0  0  0  0
 25 22  1  6  0  0  0
 25 12  1  0  0  0  0
 25  7  1  0  0  0  0
 26 27  1  0  0  0  0
 30 29  1  0  0  0  0
 30 28  1  0  0  0  0
M  END
>  <MODEL>
6

>  <REMARK>
 VINA RESULT:      -9.1      1.758      6.176
  Name = 
  3 active torsions:
  status: ('A' for Active; 'I' for Inactive)
    1  A    between atoms: C_9  and  C_12
    2  A    between atoms: C_9  and  C_21
    3  A    between atoms: C_10  and  O_15
                            x       y       z     vdW  Elec       q    Type
                         _______ _______ _______ _____ _____    ______ ____

>  <TORSDO>
F 3

$$$$
=
 OpenBabel10262421513D

 30 34  0  0  1  0  0  0  0  0999 V2000
  187.6140  178.1540  142.4040 C   0  0  0  0  0  0  0  0  0  0  0  0
  185.2280  178.5770  143.2040 C   0  0  0  0  0  0  0  0  0  0  0  0
  186.1990  178.2940  138.4260 O   0  0  0  0  0  0  0  0  0  0  0  0
  188.5220  177.9690  141.3350 C   0  0  0  0  0  0  0  0  0  0  0  0
  188.0710  177.9220  143.8210 C   0  0  0  0  0  2  0  0  0  0  0  0
  191.7100  177.4230  143.2310 O   0  0  0  0  0  1  0  0  0  0  0  0
  189.8160  176.5360  139.2410 C   0  0  2  0  0  3  0  0  0  0  0  0
  190.3370  177.2680  143.0240 C   0  0  1  0  0  3  0  0  0  0  0  0
  188.6790  178.1190  137.4860 C   0  0  2  0  0  3  0  0  0  0  0  0
  186.6710  179.1080  137.3510 C   0  0  0  0  0  2  0  0  0  0  0  0
  189.5640  178.1440  144.0050 C   0  0  2  0  0  3  0  0  0  0  0  0
  189.9950  177.6510  141.5810 C   0  0  1  0  0  3  0  0  0  0  0  0
  183.8040  178.5100  142.8610 C   0  0  0  0  0  3  0  0  0  0  0  0
  190.6810  175.9550  138.1290 C   0  0  0  0  0  1  0  0  0  0  0  0
  185.5490  178.7520  144.4090 O   0  0  0  0  0  0  0  0  0  0  0  0
  186.7140  178.3150  139.7300 C   0  0  0  0  0  0  0  0  0  0  0  0
  183.4070  178.5550  141.5940 C   0  0  0  0  0  3  0  0  0  0  0  0
  186.2510  178.4180  142.1300 C   0  0  0  0  0  0  0  0  0  0  0  0
  188.0910  178.1140  140.0000 C   0  0  0  0  0  0  0  0  0  0  0  0
  188.0440  179.3650  137.4390 O   0  0  0  0  0  0  0  0  0  0  0  0
  189.1470  177.8850  138.9290 C   0  0  1  0  0  3  0  0  0  0  0  0
  191.9270  176.8950  140.3860 O   0  0  0  0  0  1  0  0  0  0  0  0
  184.3660  178.7750  140.4580 C   0  0  0  0  0  2  0  0  0  0  0  0
  185.8080  178.4640  140.7910 C   0  0  0  0  0  0  0  0  0  0  0  0
  190.5730  176.6120  140.5890 C   0  0  2  0  0  3  0  0  0  0  0  0
  189.7700  178.1430  136.6140 O   0  0  0  0  0  0  0  0  0  0  0  0
  189.2890  177.6060  135.4200 C   0  0  0  0  0  1  0  0  0  0  0  0
  189.9780  177.9060  145.4620 C   0  0  0  0  0  2  0  0  0  0  0  0
  189.1490  177.8460  147.8200 C   0  0  0  0  0  1  0  0  0  0  0  0
  188.8140  177.5340  146.3740 C   0  0  0  0  0  2  0  0  0  0  0  0
  1  5  1  0  0  0  0
  2 15  2  0  0  0  0
  3 16  1  0  0  0  0
  4  1  2  0  0  0  0
  5 11  1  0  0  0  0
  7 14  1  6  0  0  0
  7 25  1  0  0  0  0
  8  6  1  6  0  0  0
  8 11  1  0  0  0  0
  9 26  1  6  0  0  0
  9 21  1  0  0  0  0
 10 20  1  0  0  0  0
 10  3  1  0  0  0  0
 11 28  1  1  0  0  0
 12  4  1  1  0  0  0
 12  8  1  0  0  0  0
 13  2  1  0  0  0  0
 16 19  2  0  0  0  0
 16 24  1  0  0  0  0
 17 13  2  0  0  0  0
 18  1  1  0  0  0  0
 18  2  1  0  0  0  0
 19  4  1  0  0  0  0
 20  9  1  0  0  0  0
 21  7  1  0  0  0  0
 21 19  1  1  0  0  0
 23 24  1  0  0  0  0
 23 17  1  0  0  0  0
 24 18  2  0  0  0  0
 25 22  1  6  0  0  0
 25 12  1  0  0  0  0
 27 26  1  0  0  0  0
 28 30  1  0  0  0  0
 30 29  1  0  0  0  0
M  END
>  <MODEL>
7

>  <REMARK>
 VINA RESULT:      -8.8      1.958      5.780
  Name = 
  3 active torsions:
  status: ('A' for Active; 'I' for Inactive)
    1  A    between atoms: C_9  and  C_12
    2  A    between atoms: C_9  and  C_21
    3  A    between atoms: C_10  and  O_15
                            x       y       z     vdW  Elec       q    Type
                         _______ _______ _______ _____ _____    ______ ____

>  <TORSDO>
F 3

$$$$
=
 OpenBabel10262421513D

 30 34  0  0  1  0  0  0  0  0999 V2000
  187.5920  178.1770  140.3860 C   0  0  0  0  0  0  0  0  0  0  0  0
  188.9140  177.7260  138.2500 C   0  0  0  0  0  0  0  0  0  0  0  0
  191.0210  177.1180  142.6140 O   0  0  0  0  0  0  0  0  0  0  0  0
  187.5410  178.2070  141.7990 C   0  0  0  0  0  0  0  0  0  0  0  0
  186.3280  178.3700  139.5880 C   0  0  0  0  0  2  0  0  0  0  0  0
  183.9890  179.2860  142.3330 O   0  0  0  0  0  1  0  0  0  0  0  0
  187.3350  177.1060  144.4170 C   0  0  2  0  0  3  0  0  0  0  0  0
  184.9920  178.5640  141.6790 C   0  0  1  0  0  3  0  0  0  0  0  0
  189.8200  177.8070  144.8820 C   0  0  2  0  0  3  0  0  0  0  0  0
  191.6780  177.8750  143.6310 C   0  0  0  0  0  2  0  0  0  0  0  0
  185.2850  179.1970  140.3220 C   0  0  2  0  0  3  0  0  0  0  0  0
  186.2540  178.5480  142.5460 C   0  0  1  0  0  3  0  0  0  0  0  0
  190.0690  177.0420  137.6600 C   0  0  0  0  0  3  0  0  0  0  0  0
  187.1770  176.7550  145.8920 C   0  0  0  0  0  1  0  0  0  0  0  0
  188.0380  178.2000  137.4800 O   0  0  0  0  0  0  0  0  0  0  0  0
  189.8880  177.5460  141.9050 C   0  0  0  0  0  0  0  0  0  0  0  0
  191.1250  176.7270  138.4020 C   0  0  0  0  0  3  0  0  0  0  0  0
  188.7980  177.8260  139.7330 C   0  0  0  0  0  0  0  0  0  0  0  0
  188.7010  177.9580  142.5600 C   0  0  0  0  0  0  0  0  0  0  0  0
  190.7910  178.6700  144.3630 O   0  0  0  0  0  0  0  0  0  0  0  0
  188.5320  178.0080  144.0710 C   0  0  1  0  0  3  0  0  0  0  0  0
  185.3440  178.4540  144.7600 O   0  0  0  0  0  1  0  0  0  0  0  0
  191.2440  177.1330  139.8440 C   0  0  0  0  0  2  0  0  0  0  0  0
  189.9290  177.4820  140.5040 C   0  0  0  0  0  0  0  0  0  0  0  0
  186.0330  177.6880  143.8150 C   0  0  2  0  0  3  0  0  0  0  0  0
  189.6090  178.1310  146.2250 O   0  0  0  0  0  0  0  0  0  0  0  0
  190.3290  177.1750  146.9430 C   0  0  0  0  0  1  0  0  0  0  0  0
  184.0240  179.3750  139.4680 C   0  0  0  0  0  2  0  0  0  0  0  0
  182.7470  177.2720  139.0200 C   0  0  0  0  0  1  0  0  0  0  0  0
  183.7890  178.2340  138.4830 C   0  0  0  0  0  2  0  0  0  0  0  0
  1  4  1  0  0  0  0
  2 18  1  0  0  0  0
  3 10  1  0  0  0  0
  4 19  2  0  0  0  0
  5 11  1  0  0  0  0
  5  1  1  0  0  0  0
  7 14  1  1  0  0  0
  8  6  1  1  0  0  0
  8 12  1  0  0  0  0
  9 26  1  1  0  0  0
 10 20  1  0  0  0  0
 11 28  1  6  0  0  0
 11  8  1  0  0  0  0
 12  4  1  6  0  0  0
 12 25  1  0  0  0  0
 13  2  1  0  0  0  0
 13 17  2  0  0  0  0
 15  2  2  0  0  0  0
 16 19  1  0  0  0  0
 16  3  1  0  0  0  0
 17 23  1  0  0  0  0
 18  1  2  0  0  0  0
 18 24  1  0  0  0  0
 20  9  1  0  0  0  0
 21 19  1  6  0  0  0
 21  7  1  0  0  0  0
 21  9  1  0  0  0  0
 23 24  1  0  0  0  0
 24 16  2  0  0  0  0
 25  7  1  0  0  0  0
 25 22  1  1  0  0  0
 26 27  1  0  0  0  0
 30 29  1  0  0  0  0
 30 28  1  0  0  0  0
M  END
>  <MODEL>
8

>  <REMARK>
 VINA RESULT:      -8.6      2.073      5.546
  Name = 
  3 active torsions:
  status: ('A' for Active; 'I' for Inactive)
    1  A    between atoms: C_9  and  C_12
    2  A    between atoms: C_9  and  C_21
    3  A    between atoms: C_10  and  O_15
                            x       y       z     vdW  Elec       q    Type
                         _______ _______ _______ _____ _____    ______ ____

>  <TORSDO>
F 3

$$$$
=
 OpenBabel10262421513D

 30 34  0  0  1  0  0  0  0  0999 V2000
  188.0790  177.9520  144.3740 C   0  0  0  0  0  0  0  0  0  0  0  0
  186.3560  178.1360  146.2470 C   0  0  0  0  0  0  0  0  0  0  0  0
  184.9380  178.3610  141.5790 O   0  0  0  0  0  0  0  0  0  0  0  0
  188.3710  177.9290  142.9900 C   0  0  0  0  0  0  0  0  0  0  0  0
  189.1600  177.6220  145.3710 C   0  0  0  0  0  2  0  0  0  0  0  0
  192.0860  177.4290  143.0810 O   0  0  0  0  0  1  0  0  0  0  0  0
  188.5340  176.7850  140.3870 C   0  0  2  0  0  3  0  0  0  0  0  0
  190.7820  177.2000  143.5310 C   0  0  1  0  0  3  0  0  0  0  0  0
  186.6730  178.4420  139.5680 C   0  0  2  0  0  3  0  0  0  0  0  0
  184.8280  179.3000  140.5090 C   0  0  0  0  0  2  0  0  0  0  0  0
  190.5560  177.9270  144.8530 C   0  0  2  0  0  3  0  0  0  0  0  0
  189.7880  177.6900  142.4740 C   0  0  1  0  0  3  0  0  0  0  0  0
  184.9420  178.0040  146.6120 C   0  0  0  0  0  3  0  0  0  0  0  0
  188.7740  176.3690  138.9400 C   0  0  0  0  0  1  0  0  0  0  0  0
  187.2100  178.2210  147.1690 O   0  0  0  0  0  0  0  0  0  0  0  0
  186.0120  178.2960  142.4790 C   0  0  0  0  0  0  0  0  0  0  0  0
  183.9880  178.1380  145.6960 C   0  0  0  0  0  3  0  0  0  0  0  0
  186.7460  178.1470  144.8080 C   0  0  0  0  0  0  0  0  0  0  0  0
  187.3540  178.1660  142.0430 C   0  0  0  0  0  0  0  0  0  0  0  0
  186.0720  179.6410  139.9670 O   0  0  0  0  0  0  0  0  0  0  0  0
  187.7750  178.1090  140.5820 C   0  0  1  0  0  3  0  0  0  0  0  0
  190.9300  177.1800  140.4320 O   0  0  0  0  0  1  0  0  0  0  0  0
  184.2870  178.5260  144.2760 C   0  0  0  0  0  2  0  0  0  0  0  0
  185.7180  178.2850  143.8510 C   0  0  0  0  0  0  0  0  0  0  0  0
  189.8410  176.7890  141.2170 C   0  0  2  0  0  3  0  0  0  0  0  0
  187.2160  178.6210  138.2930 O   0  0  0  0  0  0  0  0  0  0  0  0
  186.2260  178.1790  137.4150 C   0  0  0  0  0  1  0  0  0  0  0  0
  191.6190  177.5850  145.9050 C   0  0  0  0  0  2  0  0  0  0  0  0
  192.2180  175.7510  147.4960 C   0  0  0  0  0  1  0  0  0  0  0  0
  191.1090  176.6650  147.0090 C   0  0  0  0  0  2  0  0  0  0  0  0
  1 18  1  0  0  0  0
  1  5  1  0  0  0  0
  2 13  1  0  0  0  0
  2 15  2  0  0  0  0
  3 16  1  0  0  0  0
  4  1  2  0  0  0  0
  7 14  1  6  0  0  0
  7 21  1  0  0  0  0
  7 25  1  0  0  0  0
  8  6  1  6  0  0  0
  8 11  1  0  0  0  0
  9 26  1  6  0  0  0
  9 20  1  0  0  0  0
  9 21  1  0  0  0  0
 10  3  1  0  0  0  0
 11  5  1  0  0  0  0
 11 28  1  1  0  0  0
 12  4  1  1  0  0  0
 12  8  1  0  0  0  0
 16 24  1  0  0  0  0
 17 13  2  0  0  0  0
 18  2  1  0  0  0  0
 19 16  2  0  0  0  0
 19  4  1  0  0  0  0
 20 10  1  0  0  0  0
 21 19  1  1  0  0  0
 23 17  1  0  0  0  0
 24 23  1  0  0  0  0
 24 18  2  0  0  0  0
 25 22  1  6  0  0  0
 25 12  1  0  0  0  0
 27 26  1  0  0  0  0
 28 30  1  0  0  0  0
 30 29  1  0  0  0  0
M  END
>  <MODEL>
9

>  <REMARK>
 VINA RESULT:      -8.5      1.674      5.536
  Name = 
  3 active torsions:
  status: ('A' for Active; 'I' for Inactive)
    1  A    between atoms: C_9  and  C_12
    2  A    between atoms: C_9  and  C_21
    3  A    between atoms: C_10  and  O_15
                            x       y       z     vdW  Elec       q    Type
                         _______ _______ _______ _____ _____    ______ ____

>  <TORSDO>
F 3

$$$$
