=
 OpenBabel10262422363D

 43 48  0  0  1  0  0  0  0  0999 V2000
  191.3180  176.4520  146.9060 C   0  0  0  0  0  0  0  0  0  0  0  0
  187.0390  177.8020  144.5700 C   0  0  0  0  0  0  0  0  0  0  0  0
  187.7240  178.1350  141.8920 C   0  0  0  0  0  0  0  0  0  0  0  0
  189.0200  177.0330  146.4050 C   0  0  0  0  0  0  0  0  0  0  0  0
  191.6590  176.6220  145.5630 C   0  0  0  0  0  3  0  0  0  0  0  0
  192.3580  176.0530  147.8910 C   0  0  0  0  0  1  0  0  0  0  0  0
  189.3580  177.2030  145.0410 C   0  0  0  0  0  0  0  0  0  0  0  0
  190.0020  176.6590  147.3280 C   0  0  0  0  0  3  0  0  0  0  0  0
  190.6850  176.9960  144.6340 C   0  0  0  0  0  3  0  0  0  0  0  0
  188.6610  177.7460  142.8010 N   0  0  0  0  0  0  0  0  0  0  0  0
  188.3630  177.5820  144.1200 C   0  0  0  0  0  0  0  0  0  0  0  0
  186.7240  177.6290  145.9240 C   0  0  0  0  0  3  0  0  0  0  0  0
  186.0560  178.1950  143.6500 C   0  0  0  0  0  0  0  0  0  0  0  0
  186.4100  178.3600  142.3030 C   0  0  0  0  0  3  0  0  0  0  0  0
  187.7100  177.2460  146.8360 C   0  0  0  0  0  3  0  0  0  0  0  0
  188.0720  178.3030  140.4430 C   0  0  2  0  0  3  0  0  0  0  0  0
  186.9250  178.5240  139.6700 O   0  0  0  0  0  1  0  0  0  0  0  0
  188.8950  177.2020  139.9250 N   0  0  0  0  0  2  0  0  0  0  0  0
  190.1900  177.6810  139.4460 C   0  0  1  0  0  3  0  0  0  0  0  0
  191.2720  177.2310  140.4110 C   0  0  0  0  0  1  0  0  0  0  0  0
  190.4660  177.1250  138.0580 C   0  0  0  0  0  2  0  0  0  0  0  0
  189.8190  175.8310  137.8880 N   0  0  0  0  0  0  0  0  0  0  0  0
  189.4720  174.4940  135.9020 C   0  0  0  0  0  2  0  0  0  0  0  0
  190.8650  174.8200  137.8240 C   0  0  0  0  0  2  0  0  0  0  0  0
  189.1970  175.8300  136.5690 C   0  0  1  0  0  3  0  0  0  0  0  0
  190.4220  173.7750  136.8260 C   0  0  0  0  0  2  0  0  0  0  0  0
  187.1770  177.3800  136.4480 C   0  0  0  0  0  0  0  0  0  0  0  0
  187.7240  176.1030  136.6710 C   0  0  0  0  0  0  0  0  0  0  0  0
  183.6530  176.7720  136.9220 F   0  0  0  0  0  0  0  0  0  0  0  0
  185.4900  175.2650  137.0740 C   0  0  0  0  0  3  0  0  0  0  0  0
  184.9870  176.5460  136.8430 C   0  0  0  0  0  0  0  0  0  0  0  0
  186.8650  175.0470  136.9860 C   0  0  0  0  0  3  0  0  0  0  0  0
  185.8320  177.5660  136.5370 N   0  0  0  0  0  0  0  0  0  0  0  0
  187.9740  178.4320  136.1340 F   0  0  0  0  0  0  0  0  0  0  0  0
  184.7430  178.4260  144.0850 O   0  0  0  0  0  0  0  0  0  0  0  0
  182.5650  178.6340  141.0280 C   0  0  0  0  0  2  0  0  0  0  0  0
  181.2130  178.5970  141.7450 C   0  0  1  0  0  3  0  0  0  0  0  0
  182.3760  178.8420  143.9550 C   0  0  0  0  0  2  0  0  0  0  0  0
  183.6640  178.1040  141.9440 C   0  0  0  0  0  2  0  0  0  0  0  0
  183.7180  178.9230  143.2330 C   0  0  2  0  0  3  0  0  0  0  0  0
  181.2650  179.3820  143.0580 C   0  0  0  0  0  2  0  0  0  0  0  0
  179.6590  180.5200  141.1720 C   0  0  0  0  0  1  0  0  0  0  0  0
  180.0870  179.0960  140.8410 C   0  0  0  0  0  2  0  0  0  0  0  0
  1  8  1  0  0  0  0
  1  6  1  0  0  0  0
  2 12  1  0  0  0  0
  3 14  2  0  0  0  0
  3 10  1  0  0  0  0
  4 15  1  0  0  0  0
  4  8  2  0  0  0  0
  5  1  2  0  0  0  0
  7  4  1  0  0  0  0
  9  7  2  0  0  0  0
  9  5  1  0  0  0  0
 10 11  2  0  0  0  0
 11  2  1  0  0  0  0
 11  7  1  0  0  0  0
 12 15  2  0  0  0  0
 13 35  1  0  0  0  0
 13  2  2  0  0  0  0
 14 13  1  0  0  0  0
 16 17  1  6  0  0  0
 16  3  1  0  0  0  0
 18 16  1  0  0  0  0
 19 18  1  0  0  0  0
 19 20  1  1  0  0  0
 21 19  1  0  0  0  0
 22 21  1  0  0  0  0
 23 25  1  0  0  0  0
 23 26  1  0  0  0  0
 24 22  1  0  0  0  0
 25 28  1  1  0  0  0
 25 22  1  0  0  0  0
 26 24  1  0  0  0  0
 27 33  2  0  0  0  0
 27 28  1  0  0  0  0
 28 32  2  0  0  0  0
 31 29  1  0  0  0  0
 31 30  2  0  0  0  0
 32 30  1  0  0  0  0
 33 31  1  0  0  0  0
 34 27  1  0  0  0  0
 36 37  1  0  0  0  0
 36 39  1  0  0  0  0
 37 43  1  6  0  0  0
 37 41  1  0  0  0  0
 39 40  1  0  0  0  0
 40 38  1  0  0  0  0
 40 35  1  1  0  0  0
 41 38  1  0  0  0  0
 43 42  1  0  0  0  0
M  END
>  <MODEL>
1

>  <REMARK>
 VINA RESULT:     -10.7      0.000      0.000
  Name = 
  9 active torsions:
  status: ('A' for Active; 'I' for Inactive)
    1  A    between atoms: O_1  and  C_34
    2  A    between atoms: O_1  and  C_35
    3  A    between atoms: C_2  and  N_6
    4  A    between atoms: C_2  and  C_13
    5  A    between atoms: C_3  and  N_4
    6  A    between atoms: C_3  and  C_12
    7  A    between atoms: N_6  and  C_12
    8  A    between atoms: C_14  and  C_22
    9  A    between atoms: C_19  and  C_37
                            x       y       z     vdW  Elec       q    Type
                         _______ _______ _______ _____ _____    ______ ____

>  <TORSDO>
F 9

$$$$
=
 OpenBabel10262422363D

 43 48  0  0  1  0  0  0  0  0999 V2000
  187.8010  177.6380  147.3790 C   0  0  0  0  0  0  0  0  0  0  0  0
  186.1450  178.6020  142.6970 C   0  0  0  0  0  0  0  0  0  0  0  0
  188.2350  177.8820  141.0040 C   0  0  0  0  0  0  0  0  0  0  0  0
  186.4590  178.2880  145.4700 C   0  0  0  0  0  0  0  0  0  0  0  0
  188.8480  177.2800  146.5270 C   0  0  0  0  0  3  0  0  0  0  0  0
  187.9560  177.4850  148.8490 C   0  0  0  0  0  1  0  0  0  0  0  0
  187.5150  177.9230  144.6000 C   0  0  0  0  0  0  0  0  0  0  0  0
  186.6090  178.1430  146.8520 C   0  0  0  0  0  3  0  0  0  0  0  0
  188.7070  177.4220  145.1440 C   0  0  0  0  0  3  0  0  0  0  0  0
  188.3520  177.7250  142.3520 N   0  0  0  0  0  0  0  0  0  0  0  0
  187.3540  178.0740  143.2100 C   0  0  0  0  0  0  0  0  0  0  0  0
  185.1110  178.9580  143.5740 C   0  0  0  0  0  3  0  0  0  0  0  0
  185.9980  178.7650  141.3120 C   0  0  0  0  0  0  0  0  0  0  0  0
  187.0550  178.3990  140.4660 C   0  0  0  0  0  3  0  0  0  0  0  0
  185.2680  178.8010  144.9530 C   0  0  0  0  0  3  0  0  0  0  0  0
  189.3430  177.4850  140.0760 C   0  0  2  0  0  3  0  0  0  0  0  0
  190.5790  177.4870  140.7340 O   0  0  0  0  0  1  0  0  0  0  0  0
  189.3630  178.2820  138.8410 N   0  0  0  0  0  2  0  0  0  0  0  0
  189.3830  177.4300  137.6540 C   0  0  1  0  0  3  0  0  0  0  0  0
  190.7400  176.7590  137.5490 C   0  0  0  0  0  1  0  0  0  0  0  0
  188.2880  176.3800  137.7520 C   0  0  0  0  0  2  0  0  0  0  0  0
  187.5740  176.2660  136.4870 N   0  0  0  0  0  0  0  0  0  0  0  0
  185.4220  177.1400  135.8120 C   0  0  0  0  0  2  0  0  0  0  0  0
  187.7890  177.5010  135.7460 C   0  0  0  0  0  2  0  0  0  0  0  0
  186.1490  176.2420  136.7980 C   0  0  1  0  0  3  0  0  0  0  0  0
  186.5060  177.8170  135.0130 C   0  0  0  0  0  2  0  0  0  0  0  0
  184.4910  174.4420  137.5070 C   0  0  0  0  0  0  0  0  0  0  0  0
  185.6170  174.8400  136.7640 C   0  0  0  0  0  0  0  0  0  0  0  0
  184.1770  170.9690  136.5840 F   0  0  0  0  0  0  0  0  0  0  0  0
  185.7770  172.5890  135.8880 C   0  0  0  0  0  3  0  0  0  0  0  0
  184.6560  172.2350  136.6390 C   0  0  0  0  0  0  0  0  0  0  0  0
  186.2570  173.8980  135.9530 C   0  0  0  0  0  3  0  0  0  0  0  0
  184.0420  173.1600  137.4250 N   0  0  0  0  0  0  0  0  0  0  0  0
  183.8370  175.3250  138.3020 F   0  0  0  0  0  0  0  0  0  0  0  0
  184.8090  179.2970  140.7920 O   0  0  0  0  0  0  0  0  0  0  0  0
  181.5150  177.6090  140.1350 C   0  0  0  0  0  2  0  0  0  0  0  0
  181.2630  178.2000  138.7460 C   0  0  1  0  0  3  0  0  0  0  0  0
  183.5870  179.1450  138.7240 C   0  0  0  0  0  2  0  0  0  0  0  0
  182.5480  178.4440  140.8870 C   0  0  0  0  0  2  0  0  0  0  0  0
  183.8500  178.5170  140.0890 C   0  0  2  0  0  3  0  0  0  0  0  0
  182.5660  178.3140  137.9520 C   0  0  0  0  0  2  0  0  0  0  0  0
  180.7690  176.1060  137.4010 C   0  0  0  0  0  1  0  0  0  0  0  0
  180.2110  177.3990  137.9810 C   0  0  0  0  0  2  0  0  0  0  0  0
  1  6  1  0  0  0  0
  2 11  1  0  0  0  0
  2 12  1  0  0  0  0
  3 10  1  0  0  0  0
  4  8  2  0  0  0  0
  5  1  2  0  0  0  0
  7  9  2  0  0  0  0
  7  4  1  0  0  0  0
  8  1  1  0  0  0  0
  9  5  1  0  0  0  0
 10 11  2  0  0  0  0
 11  7  1  0  0  0  0
 12 15  2  0  0  0  0
 13  2  2  0  0  0  0
 14  3  2  0  0  0  0
 14 13  1  0  0  0  0
 15  4  1  0  0  0  0
 16 17  1  1  0  0  0
 16  3  1  0  0  0  0
 18 16  1  0  0  0  0
 19 20  1  1  0  0  0
 19 21  1  0  0  0  0
 19 18  1  0  0  0  0
 22 25  1  0  0  0  0
 22 21  1  0  0  0  0
 23 25  1  0  0  0  0
 24 22  1  0  0  0  0
 25 28  1  6  0  0  0
 26 24  1  0  0  0  0
 26 23  1  0  0  0  0
 27 34  1  0  0  0  0
 28 27  2  0  0  0  0
 29 31  1  0  0  0  0
 30 32  2  0  0  0  0
 30 31  1  0  0  0  0
 31 33  2  0  0  0  0
 32 28  1  0  0  0  0
 33 27  1  0  0  0  0
 35 13  1  0  0  0  0
 36 39  1  0  0  0  0
 37 43  1  6  0  0  0
 37 36  1  0  0  0  0
 38 40  1  0  0  0  0
 40 35  1  1  0  0  0
 40 39  1  0  0  0  0
 41 38  1  0  0  0  0
 41 37  1  0  0  0  0
 42 43  1  0  0  0  0
M  END
>  <MODEL>
2

>  <REMARK>
 VINA RESULT:     -10.1      2.155      3.523
  Name = 
  9 active torsions:
  status: ('A' for Active; 'I' for Inactive)
    1  A    between atoms: O_1  and  C_34
    2  A    between atoms: O_1  and  C_35
    3  A    between atoms: C_2  and  N_6
    4  A    between atoms: C_2  and  C_13
    5  A    between atoms: C_3  and  N_4
    6  A    between atoms: C_3  and  C_12
    7  A    between atoms: N_6  and  C_12
    8  A    between atoms: C_14  and  C_22
    9  A    between atoms: C_19  and  C_37
                            x       y       z     vdW  Elec       q    Type
                         _______ _______ _______ _____ _____    ______ ____

>  <TORSDO>
F 9

$$$$
=
 OpenBabel10262422363D

 43 48  0  0  1  0  0  0  0  0999 V2000
  191.6940  176.1300  147.0760 C   0  0  0  0  0  0  0  0  0  0  0  0
  187.6560  177.8930  144.5910 C   0  0  0  0  0  0  0  0  0  0  0  0
  188.3110  177.7270  141.8900 C   0  0  0  0  0  0  0  0  0  0  0  0
  189.5220  177.0400  146.5080 C   0  0  0  0  0  0  0  0  0  0  0  0
  192.0210  176.0500  145.7210 C   0  0  0  0  0  3  0  0  0  0  0  0
  192.6750  175.6900  148.1020 C   0  0  0  0  0  1  0  0  0  0  0  0
  189.8450  176.9570  145.1320 C   0  0  0  0  0  0  0  0  0  0  0  0
  190.4480  176.6260  147.4690 C   0  0  0  0  0  3  0  0  0  0  0  0
  191.1010  176.4620  144.7530 C   0  0  0  0  0  3  0  0  0  0  0  0
  189.1900  177.3050  142.8410 N   0  0  0  0  0  0  0  0  0  0  0  0
  188.9060  177.3790  144.1710 C   0  0  0  0  0  0  0  0  0  0  0  0
  187.3550  177.9670  145.9570 C   0  0  0  0  0  3  0  0  0  0  0  0
  186.7320  178.3260  143.6280 C   0  0  0  0  0  0  0  0  0  0  0  0
  187.0700  178.2380  142.2700 C   0  0  0  0  0  3  0  0  0  0  0  0
  188.2830  177.5420  146.9100 C   0  0  0  0  0  3  0  0  0  0  0  0
  188.6400  177.6300  140.4300 C   0  0  2  0  0  3  0  0  0  0  0  0
  190.0190  177.7520  140.2130 O   0  0  0  0  0  1  0  0  0  0  0  0
  187.8570  178.5630  139.6080 N   0  0  0  0  0  2  0  0  0  0  0  0
  187.8670  178.1750  138.2000 C   0  0  1  0  0  3  0  0  0  0  0  0
  188.9970  178.9020  137.4940 C   0  0  0  0  0  1  0  0  0  0  0  0
  188.0580  176.6720  138.0790 C   0  0  0  0  0  2  0  0  0  0  0  0
  187.3360  176.1560  136.9240 N   0  0  0  0  0  0  0  0  0  0  0  0
  186.0620  177.3100  135.2210 C   0  0  0  0  0  2  0  0  0  0  0  0
  188.1850  176.3370  135.7550 C   0  0  0  0  0  2  0  0  0  0  0  0
  186.1870  177.0300  136.7090 C   0  0  1  0  0  3  0  0  0  0  0  0
  187.2860  176.6930  134.5940 C   0  0  0  0  0  2  0  0  0  0  0  0
  184.0470  177.1270  138.0880 C   0  0  0  0  0  0  0  0  0  0  0  0
  184.9360  176.4150  137.2620 C   0  0  0  0  0  0  0  0  0  0  0  0
  181.4790  174.6710  138.7120 F   0  0  0  0  0  0  0  0  0  0  0  0
  183.4720  174.4940  137.4210 C   0  0  0  0  0  3  0  0  0  0  0  0
  182.6150  175.2360  138.2340 C   0  0  0  0  0  0  0  0  0  0  0  0
  184.6360  175.0900  136.9340 C   0  0  0  0  0  3  0  0  0  0  0  0
  182.9170  176.5240  138.5480 N   0  0  0  0  0  0  0  0  0  0  0  0
  184.2960  178.4170  138.4260 F   0  0  0  0  0  0  0  0  0  0  0  0
  185.4940  178.8470  144.0320 O   0  0  0  0  0  0  0  0  0  0  0  0
  181.7620  178.4990  143.7480 C   0  0  0  0  0  2  0  0  0  0  0  0
  181.6330  178.9330  142.2850 C   0  0  1  0  0  3  0  0  0  0  0  0
  184.1300  178.8830  142.0490 C   0  0  0  0  0  2  0  0  0  0  0  0
  183.0960  178.9660  144.3230 C   0  0  0  0  0  2  0  0  0  0  0  0
  184.2530  178.4090  143.4940 C   0  0  2  0  0  3  0  0  0  0  0  0
  182.8070  178.4120  141.4520 C   0  0  0  0  0  2  0  0  0  0  0  0
  180.4560  177.5740  140.4950 C   0  0  0  0  0  1  0  0  0  0  0  0
  180.2930  178.5020  141.6920 C   0  0  0  0  0  2  0  0  0  0  0  0
  1  8  1  0  0  0  0
  1  6  1  0  0  0  0
  2 12  1  0  0  0  0
  3 14  2  0  0  0  0
  3 10  1  0  0  0  0
  4 15  1  0  0  0  0
  4  8  2  0  0  0  0
  5  1  2  0  0  0  0
  7  4  1  0  0  0  0
  9  7  2  0  0  0  0
  9  5  1  0  0  0  0
 10 11  2  0  0  0  0
 11  2  1  0  0  0  0
 11  7  1  0  0  0  0
 12 15  2  0  0  0  0
 13 35  1  0  0  0  0
 13  2  2  0  0  0  0
 14 13  1  0  0  0  0
 16 17  1  1  0  0  0
 16  3  1  0  0  0  0
 18 16  1  0  0  0  0
 19 20  1  6  0  0  0
 19 18  1  0  0  0  0
 21 19  1  0  0  0  0
 22 21  1  0  0  0  0
 23 25  1  0  0  0  0
 24 22  1  0  0  0  0
 25 22  1  0  0  0  0
 25 28  1  6  0  0  0
 26 23  1  0  0  0  0
 26 24  1  0  0  0  0
 27 34  1  0  0  0  0
 27 33  1  0  0  0  0
 28 27  2  0  0  0  0
 30 31  1  0  0  0  0
 31 33  2  0  0  0  0
 31 29  1  0  0  0  0
 32 28  1  0  0  0  0
 32 30  2  0  0  0  0
 36 39  1  0  0  0  0
 37 43  1  6  0  0  0
 37 36  1  0  0  0  0
 38 40  1  0  0  0  0
 40 35  1  1  0  0  0
 40 39  1  0  0  0  0
 41 38  1  0  0  0  0
 41 37  1  0  0  0  0
 42 43  1  0  0  0  0
M  END
>  <MODEL>
3

>  <REMARK>
 VINA RESULT:     -10.0      1.679      2.408
  Name = 
  9 active torsions:
  status: ('A' for Active; 'I' for Inactive)
    1  A    between atoms: O_1  and  C_34
    2  A    between atoms: O_1  and  C_35
    3  A    between atoms: C_2  and  N_6
    4  A    between atoms: C_2  and  C_13
    5  A    between atoms: C_3  and  N_4
    6  A    between atoms: C_3  and  C_12
    7  A    between atoms: N_6  and  C_12
    8  A    between atoms: C_14  and  C_22
    9  A    between atoms: C_19  and  C_37
                            x       y       z     vdW  Elec       q    Type
                         _______ _______ _______ _____ _____    ______ ____

>  <TORSDO>
F 9

$$$$
=
 OpenBabel10262422363D

 43 48  0  0  1  0  0  0  0  0999 V2000
  191.3040  176.4650  146.9860 C   0  0  0  0  0  0  0  0  0  0  0  0
  187.1460  177.8310  144.4480 C   0  0  0  0  0  0  0  0  0  0  0  0
  187.9400  178.0680  141.7900 C   0  0  0  0  0  0  0  0  0  0  0  0
  189.0400  177.0780  146.3800 C   0  0  0  0  0  0  0  0  0  0  0  0
  191.6990  176.5870  145.6520 C   0  0  0  0  0  3  0  0  0  0  0  0
  192.2970  176.0750  148.0210 C   0  0  0  0  0  1  0  0  0  0  0  0
  189.4330  177.1990  145.0250 C   0  0  0  0  0  0  0  0  0  0  0  0
  189.9780  176.7120  147.3500 C   0  0  0  0  0  3  0  0  0  0  0  0
  190.7690  176.9530  144.6760 C   0  0  0  0  0  3  0  0  0  0  0  0
  188.8320  177.6880  142.7450 N   0  0  0  0  0  0  0  0  0  0  0  0
  188.4810  177.5700  144.0560 C   0  0  0  0  0  0  0  0  0  0  0  0
  186.7770  177.7060  145.7940 C   0  0  0  0  0  3  0  0  0  0  0  0
  186.2080  178.2160  143.4790 C   0  0  0  0  0  0  0  0  0  0  0  0
  186.6160  178.3330  142.1430 C   0  0  0  0  0  3  0  0  0  0  0  0
  187.7190  177.3310  146.7540 C   0  0  0  0  0  3  0  0  0  0  0  0
  188.3450  178.1850  140.3510 C   0  0  2  0  0  3  0  0  0  0  0  0
  187.2630  178.5730  139.5500 O   0  0  0  0  0  1  0  0  0  0  0  0
  189.0110  176.9750  139.8480 N   0  0  0  0  0  2  0  0  0  0  0  0
  190.3410  177.2740  139.3220 C   0  0  1  0  0  3  0  0  0  0  0  0
  191.3000  177.4680  140.4820 C   0  0  0  0  0  1  0  0  0  0  0  0
  190.8160  176.1320  138.4380 C   0  0  0  0  0  2  0  0  0  0  0  0
  191.0790  176.6080  137.0860 N   0  0  0  0  0  0  0  0  0  0  0  0
  190.8770  175.4820  134.9540 C   0  0  0  0  0  2  0  0  0  0  0  0
  189.8020  176.9740  136.4900 C   0  0  0  0  0  2  0  0  0  0  0  0
  191.5560  175.4660  136.3130 C   0  0  1  0  0  3  0  0  0  0  0  0
  189.8590  176.5930  135.0290 C   0  0  0  0  0  2  0  0  0  0  0  0
  193.8900  174.6670  136.9530 C   0  0  0  0  0  0  0  0  0  0  0  0
  193.0510  175.4940  136.1840 C   0  0  0  0  0  0  0  0  0  0  0  0
  197.1590  175.5870  135.7390 F   0  0  0  0  0  0  0  0  0  0  0  0
  195.0150  176.4020  135.1010 C   0  0  0  0  0  3  0  0  0  0  0  0
  195.8120  175.5630  135.8810 C   0  0  0  0  0  0  0  0  0  0  0  0
  193.6290  176.3640  135.2560 C   0  0  0  0  0  3  0  0  0  0  0  0
  195.2380  174.7210  136.7810 N   0  0  0  0  0  0  0  0  0  0  0  0
  193.3700  173.8040  137.8610 F   0  0  0  0  0  0  0  0  0  0  0  0
  184.8850  178.4880  143.8560 O   0  0  0  0  0  0  0  0  0  0  0  0
  182.7990  178.4220  140.7300 C   0  0  0  0  0  2  0  0  0  0  0  0
  181.4260  178.4350  141.4070 C   0  0  1  0  0  3  0  0  0  0  0  0
  182.5210  178.8740  143.6210 C   0  0  0  0  0  2  0  0  0  0  0  0
  183.8730  177.9790  141.7190 C   0  0  0  0  0  2  0  0  0  0  0  0
  183.8840  178.9040  142.9360 C   0  0  2  0  0  3  0  0  0  0  0  0
  181.4350  179.3290  142.6500 C   0  0  0  0  0  2  0  0  0  0  0  0
  180.8150  179.8470  139.3900 C   0  0  0  0  0  1  0  0  0  0  0  0
  180.3270  178.8480  140.4310 C   0  0  0  0  0  2  0  0  0  0  0  0
  1  8  1  0  0  0  0
  1  6  1  0  0  0  0
  2 12  1  0  0  0  0
  3 14  2  0  0  0  0
  3 10  1  0  0  0  0
  4 15  1  0  0  0  0
  4  8  2  0  0  0  0
  5  1  2  0  0  0  0
  7  4  1  0  0  0  0
  9  7  2  0  0  0  0
  9  5  1  0  0  0  0
 10 11  2  0  0  0  0
 11  2  1  0  0  0  0
 11  7  1  0  0  0  0
 12 15  2  0  0  0  0
 13 35  1  0  0  0  0
 13  2  2  0  0  0  0
 14 13  1  0  0  0  0
 16 17  1  6  0  0  0
 16  3  1  0  0  0  0
 18 16  1  0  0  0  0
 19 18  1  0  0  0  0
 19 20  1  1  0  0  0
 21 19  1  0  0  0  0
 22 21  1  0  0  0  0
 23 26  1  0  0  0  0
 23 25  1  0  0  0  0
 24 22  1  0  0  0  0
 25 28  1  6  0  0  0
 25 22  1  0  0  0  0
 26 24  1  0  0  0  0
 27 34  1  0  0  0  0
 28 27  2  0  0  0  0
 29 31  1  0  0  0  0
 30 32  2  0  0  0  0
 30 31  1  0  0  0  0
 31 33  2  0  0  0  0
 32 28  1  0  0  0  0
 33 27  1  0  0  0  0
 36 37  1  0  0  0  0
 36 39  1  0  0  0  0
 37 43  1  6  0  0  0
 37 41  1  0  0  0  0
 39 40  1  0  0  0  0
 40 38  1  0  0  0  0
 40 35  1  1  0  0  0
 41 38  1  0  0  0  0
 42 43  1  0  0  0  0
M  END
>  <MODEL>
4

>  <REMARK>
 VINA RESULT:      -9.9      2.597      4.099
  Name = 
  9 active torsions:
  status: ('A' for Active; 'I' for Inactive)
    1  A    between atoms: O_1  and  C_34
    2  A    between atoms: O_1  and  C_35
    3  A    between atoms: C_2  and  N_6
    4  A    between atoms: C_2  and  C_13
    5  A    between atoms: C_3  and  N_4
    6  A    between atoms: C_3  and  C_12
    7  A    between atoms: N_6  and  C_12
    8  A    between atoms: C_14  and  C_22
    9  A    between atoms: C_19  and  C_37
                            x       y       z     vdW  Elec       q    Type
                         _______ _______ _______ _____ _____    ______ ____

>  <TORSDO>
F 9

$$$$
=
 OpenBabel10262422363D

 43 48  0  0  1  0  0  0  0  0999 V2000
  191.3300  176.4280  146.9040 C   0  0  0  0  0  0  0  0  0  0  0  0
  187.0450  177.7940  144.5870 C   0  0  0  0  0  0  0  0  0  0  0  0
  187.6830  177.9690  141.8820 C   0  0  0  0  0  0  0  0  0  0  0  0
  189.0410  177.0560  146.4190 C   0  0  0  0  0  0  0  0  0  0  0  0
  191.6480  176.5190  145.5470 C   0  0  0  0  0  3  0  0  0  0  0  0
  192.3780  176.0460  147.8860 C   0  0  0  0  0  1  0  0  0  0  0  0
  189.3550  177.1450  145.0410 C   0  0  0  0  0  0  0  0  0  0  0  0
  190.0300  176.6970  147.3400 C   0  0  0  0  0  3  0  0  0  0  0  0
  190.6650  176.8770  144.6190 C   0  0  0  0  0  3  0  0  0  0  0  0
  188.6270  177.5970  142.7910 N   0  0  0  0  0  0  0  0  0  0  0  0
  188.3520  177.5090  144.1220 C   0  0  0  0  0  0  0  0  0  0  0  0
  186.7540  177.6990  145.9540 C   0  0  0  0  0  3  0  0  0  0  0  0
  186.0560  178.1710  143.6670 C   0  0  0  0  0  0  0  0  0  0  0  0
  186.3850  178.2560  142.3070 C   0  0  0  0  0  3  0  0  0  0  0  0
  187.7470  177.3310  146.8650 C   0  0  0  0  0  3  0  0  0  0  0  0
  188.0040  178.0530  140.4200 C   0  0  2  0  0  3  0  0  0  0  0  0
  189.2650  178.6260  140.2110 O   0  0  0  0  0  1  0  0  0  0  0  0
  186.9490  178.7190  139.6440 N   0  0  0  0  0  2  0  0  0  0  0  0
  186.5370  177.9140  138.4970 C   0  0  1  0  0  3  0  0  0  0  0  0
  185.0430  178.0770  138.2890 C   0  0  0  0  0  1  0  0  0  0  0  0
  187.2890  178.3620  137.2540 C   0  0  0  0  0  2  0  0  0  0  0  0
  187.6040  177.2190  136.4070 N   0  0  0  0  0  0  0  0  0  0  0  0
  187.5200  174.8470  136.8720 C   0  0  0  0  0  2  0  0  0  0  0  0
  186.3480  176.6920  135.8920 C   0  0  0  0  0  2  0  0  0  0  0  0
  188.1370  176.1750  137.2750 C   0  0  1  0  0  3  0  0  0  0  0  0
  186.4790  175.1870  135.8360 C   0  0  0  0  0  2  0  0  0  0  0  0
  190.3310  176.0700  135.9820 C   0  0  0  0  0  0  0  0  0  0  0  0
  189.6350  176.1320  137.2040 C   0  0  0  0  0  0  0  0  0  0  0  0
  193.7670  176.0690  137.0800 F   0  0  0  0  0  0  0  0  0  0  0  0
  191.7610  176.1470  138.3610 C   0  0  0  0  0  3  0  0  0  0  0  0
  192.4130  176.0880  137.1290 C   0  0  0  0  0  0  0  0  0  0  0  0
  190.3660  176.1690  138.3940 C   0  0  0  0  0  3  0  0  0  0  0  0
  191.6910  176.0520  135.9760 N   0  0  0  0  0  0  0  0  0  0  0  0
  189.6610  176.0380  134.8030 F   0  0  0  0  0  0  0  0  0  0  0  0
  184.7600  178.4650  144.1160 O   0  0  0  0  0  0  0  0  0  0  0  0
  182.5910  178.6250  141.0490 C   0  0  0  0  0  2  0  0  0  0  0  0
  181.2370  178.5660  141.7610 C   0  0  1  0  0  3  0  0  0  0  0  0
  182.3870  178.8380  143.9740 C   0  0  0  0  0  2  0  0  0  0  0  0
  183.6970  178.1180  141.9710 C   0  0  0  0  0  2  0  0  0  0  0  0
  183.7300  178.9420  143.2590 C   0  0  2  0  0  3  0  0  0  0  0  0
  181.2700  179.3560  143.0720 C   0  0  0  0  0  2  0  0  0  0  0  0
  180.5010  179.0360  139.3780 C   0  0  0  0  0  1  0  0  0  0  0  0
  180.1070  179.0420  140.8500 C   0  0  0  0  0  2  0  0  0  0  0  0
  1  8  1  0  0  0  0
  1  6  1  0  0  0  0
  2 12  1  0  0  0  0
  3 14  2  0  0  0  0
  3 10  1  0  0  0  0
  4 15  1  0  0  0  0
  4  8  2  0  0  0  0
  5  1  2  0  0  0  0
  7  4  1  0  0  0  0
  9  7  2  0  0  0  0
  9  5  1  0  0  0  0
 10 11  2  0  0  0  0
 11  2  1  0  0  0  0
 11  7  1  0  0  0  0
 12 15  2  0  0  0  0
 13 35  1  0  0  0  0
 13  2  2  0  0  0  0
 14 13  1  0  0  0  0
 16 17  1  1  0  0  0
 16  3  1  0  0  0  0
 18 16  1  0  0  0  0
 19 20  1  6  0  0  0
 19 18  1  0  0  0  0
 21 19  1  0  0  0  0
 22 21  1  0  0  0  0
 22 25  1  0  0  0  0
 23 25  1  0  0  0  0
 24 22  1  0  0  0  0
 25 28  1  6  0  0  0
 26 24  1  0  0  0  0
 26 23  1  0  0  0  0
 27 28  1  0  0  0  0
 28 32  2  0  0  0  0
 29 31  1  0  0  0  0
 30 32  1  0  0  0  0
 31 30  2  0  0  0  0
 33 27  2  0  0  0  0
 33 31  1  0  0  0  0
 34 27  1  0  0  0  0
 36 37  1  0  0  0  0
 36 39  1  0  0  0  0
 37 43  1  6  0  0  0
 37 41  1  0  0  0  0
 39 40  1  0  0  0  0
 40 38  1  0  0  0  0
 40 35  1  1  0  0  0
 41 38  1  0  0  0  0
 42 43  1  0  0  0  0
M  END
>  <MODEL>
5

>  <REMARK>
 VINA RESULT:      -9.9      1.576      3.160
  Name = 
  9 active torsions:
  status: ('A' for Active; 'I' for Inactive)
    1  A    between atoms: O_1  and  C_34
    2  A    between atoms: O_1  and  C_35
    3  A    between atoms: C_2  and  N_6
    4  A    between atoms: C_2  and  C_13
    5  A    between atoms: C_3  and  N_4
    6  A    between atoms: C_3  and  C_12
    7  A    between atoms: N_6  and  C_12
    8  A    between atoms: C_14  and  C_22
    9  A    between atoms: C_19  and  C_37
                            x       y       z     vdW  Elec       q    Type
                         _______ _______ _______ _____ _____    ______ ____

>  <TORSDO>
F 9

$$$$
=
 OpenBabel10262422363D

 43 48  0  0  1  0  0  0  0  0999 V2000
  184.4530  178.9300  139.2420 C   0  0  0  0  0  0  0  0  0  0  0  0
  189.1420  177.2880  138.2880 C   0  0  0  0  0  0  0  0  0  0  0  0
  190.5020  177.4660  140.7120 C   0  0  0  0  0  0  0  0  0  0  0  0
  186.4460  178.0630  138.1710 C   0  0  0  0  0  0  0  0  0  0  0  0
  185.1380  179.0200  140.4560 C   0  0  0  0  0  3  0  0  0  0  0  0
  183.0280  179.3450  139.1630 C   0  0  0  0  0  1  0  0  0  0  0  0
  187.1450  178.1470  139.3990 C   0  0  0  0  0  0  0  0  0  0  0  0
  185.1060  178.4540  138.1020 C   0  0  0  0  0  3  0  0  0  0  0  0
  186.4780  178.6320  140.5350 C   0  0  0  0  0  3  0  0  0  0  0  0
  189.1890  177.8190  140.6290 N   0  0  0  0  0  0  0  0  0  0  0  0
  188.4960  177.7530  139.4590 C   0  0  0  0  0  0  0  0  0  0  0  0
  188.4330  177.2120  137.0830 C   0  0  0  0  0  3  0  0  0  0  0  0
  190.4920  176.9120  138.3520 C   0  0  0  0  0  0  0  0  0  0  0  0
  191.1690  177.0040  139.5770 C   0  0  0  0  0  3  0  0  0  0  0  0
  187.0920  177.5970  137.0250 C   0  0  0  0  0  3  0  0  0  0  0  0
  191.2460  177.5400  142.0120 C   0  0  2  0  0  3  0  0  0  0  0  0
  192.5650  177.0950  141.8660 O   0  0  0  0  0  1  0  0  0  0  0  0
  190.5420  176.8600  143.1090 N   0  0  0  0  0  2  0  0  0  0  0  0
  190.8160  177.4940  144.3960 C   0  0  1  0  0  3  0  0  0  0  0  0
  190.4050  178.9530  144.3280 C   0  0  0  0  0  1  0  0  0  0  0  0
  190.0430  176.7850  145.4970 C   0  0  0  0  0  2  0  0  0  0  0  0
  189.3300  177.7500  146.3230 N   0  0  0  0  0  0  0  0  0  0  0  0
  187.7530  177.4160  148.1270 C   0  0  0  0  0  2  0  0  0  0  0  0
  190.0450  177.8610  147.5870 C   0  0  0  0  0  2  0  0  0  0  0  0
  188.0380  177.1610  146.6580 C   0  0  1  0  0  3  0  0  0  0  0  0
  189.0120  178.0400  148.6760 C   0  0  0  0  0  2  0  0  0  0  0  0
  186.7300  177.2480  144.4720 C   0  0  0  0  0  0  0  0  0  0  0  0
  186.9540  177.7140  145.7800 C   0  0  0  0  0  0  0  0  0  0  0  0
  183.9160  179.2520  143.4380 F   0  0  0  0  0  0  0  0  0  0  0  0
  185.1020  179.2470  145.5020 C   0  0  0  0  0  3  0  0  0  0  0  0
  184.9110  178.7540  144.2110 C   0  0  0  0  0  0  0  0  0  0  0  0
  186.1280  178.7220  146.2870 C   0  0  0  0  0  3  0  0  0  0  0  0
  185.7200  177.7740  143.7280 N   0  0  0  0  0  0  0  0  0  0  0  0
  187.5040  176.2670  143.9430 F   0  0  0  0  0  0  0  0  0  0  0  0
  191.1470  176.4600  137.1970 O   0  0  0  0  0  0  0  0  0  0  0  0
  193.7300  173.7440  137.4870 C   0  0  0  0  0  2  0  0  0  0  0  0
  194.4570  174.0210  136.1690 C   0  0  1  0  0  3  0  0  0  0  0  0
  193.1350  176.1340  135.8810 C   0  0  0  0  0  2  0  0  0  0  0  0
  192.3400  174.3730  137.4670 C   0  0  0  0  0  2  0  0  0  0  0  0
  192.4450  175.8780  137.2170 C   0  0  2  0  0  3  0  0  0  0  0  0
  194.5340  175.5240  135.8880 C   0  0  0  0  0  2  0  0  0  0  0  0
  196.2780  172.8880  137.5250 C   0  0  0  0  0  1  0  0  0  0  0  0
  195.8420  173.3780  136.1500 C   0  0  0  0  0  2  0  0  0  0  0  0
  1  5  1  0  0  0  0
  2 13  2  0  0  0  0
  2 11  1  0  0  0  0
  3 16  1  0  0  0  0
  4  7  2  0  0  0  0
  5  9  2  0  0  0  0
  6  1  1  0  0  0  0
  7 11  1  0  0  0  0
  7  9  1  0  0  0  0
  8  4  1  0  0  0  0
  8  1  2  0  0  0  0
 10  3  1  0  0  0  0
 11 10  2  0  0  0  0
 12  2  1  0  0  0  0
 13 14  1  0  0  0  0
 14  3  2  0  0  0  0
 15 12  2  0  0  0  0
 15  4  1  0  0  0  0
 16 17  1  6  0  0  0
 16 18  1  0  0  0  0
 18 19  1  0  0  0  0
 19 20  1  6  0  0  0
 19 21  1  0  0  0  0
 21 22  1  0  0  0  0
 22 25  1  0  0  0  0
 22 24  1  0  0  0  0
 23 26  1  0  0  0  0
 24 26  1  0  0  0  0
 25 28  1  6  0  0  0
 25 23  1  0  0  0  0
 27 28  1  0  0  0  0
 28 32  2  0  0  0  0
 29 31  1  0  0  0  0
 30 32  1  0  0  0  0
 31 30  2  0  0  0  0
 33 31  1  0  0  0  0
 33 27  2  0  0  0  0
 34 27  1  0  0  0  0
 35 13  1  0  0  0  0
 37 43  1  1  0  0  0
 37 36  1  0  0  0  0
 38 41  1  0  0  0  0
 38 40  1  0  0  0  0
 39 36  1  0  0  0  0
 40 35  1  6  0  0  0
 40 39  1  0  0  0  0
 41 37  1  0  0  0  0
 43 42  1  0  0  0  0
M  END
>  <MODEL>
6

>  <REMARK>
 VINA RESULT:      -9.9      3.068      9.754
  Name = 
  9 active torsions:
  status: ('A' for Active; 'I' for Inactive)
    1  A    between atoms: O_1  and  C_34
    2  A    between atoms: O_1  and  C_35
    3  A    between atoms: C_2  and  N_6
    4  A    between atoms: C_2  and  C_13
    5  A    between atoms: C_3  and  N_4
    6  A    between atoms: C_3  and  C_12
    7  A    between atoms: N_6  and  C_12
    8  A    between atoms: C_14  and  C_22
    9  A    between atoms: C_19  and  C_37
                            x       y       z     vdW  Elec       q    Type
                         _______ _______ _______ _____ _____    ______ ____

>  <TORSDO>
F 9

$$$$
=
 OpenBabel10262422363D

 43 48  0  0  1  0  0  0  0  0999 V2000
  181.5460  179.4040  139.2170 C   0  0  0  0  0  0  0  0  0  0  0  0
  185.4210  178.3500  142.2930 C   0  0  0  0  0  0  0  0  0  0  0  0
  187.6850  178.3660  140.6720 C   0  0  0  0  0  0  0  0  0  0  0  0
  182.9140  178.8840  141.1480 C   0  0  0  0  0  0  0  0  0  0  0  0
  182.6820  179.4090  138.4060 C   0  0  0  0  0  3  0  0  0  0  0  0
  180.2100  179.6770  138.6230 C   0  0  0  0  0  1  0  0  0  0  0  0
  184.0710  178.8920  140.3330 C   0  0  0  0  0  0  0  0  0  0  0  0
  181.6600  179.1410  140.5850 C   0  0  0  0  0  3  0  0  0  0  0  0
  183.9400  179.1530  138.9600 C   0  0  0  0  0  3  0  0  0  0  0  0
  186.4580  178.6380  140.1470 N   0  0  0  0  0  0  0  0  0  0  0  0
  185.3290  178.6310  140.9080 C   0  0  0  0  0  0  0  0  0  0  0  0
  184.2650  178.3470  143.0830 C   0  0  0  0  0  3  0  0  0  0  0  0
  186.6760  178.0760  142.8570 C   0  0  0  0  0  0  0  0  0  0  0  0
  187.8110  178.0860  142.0340 C   0  0  0  0  0  3  0  0  0  0  0  0
  183.0180  178.6140  142.5130 C   0  0  0  0  0  3  0  0  0  0  0  0
  188.9170  178.3860  139.8180 C   0  0  2  0  0  3  0  0  0  0  0  0
  188.6980  179.0930  138.6290 O   0  0  0  0  0  1  0  0  0  0  0  0
  189.4640  177.0430  139.5790 N   0  0  0  0  0  2  0  0  0  0  0  0
  189.7940  176.8400  138.1700 C   0  0  1  0  0  3  0  0  0  0  0  0
  191.3010  176.7570  138.0210 C   0  0  0  0  0  1  0  0  0  0  0  0
  189.1490  175.5580  137.6680 C   0  0  0  0  0  2  0  0  0  0  0  0
  188.2050  175.8460  136.5960 N   0  0  0  0  0  0  0  0  0  0  0  0
  186.2590  177.2830  136.5580 C   0  0  0  0  0  2  0  0  0  0  0  0
  188.5840  177.1220  136.0050 C   0  0  0  0  0  2  0  0  0  0  0  0
  186.9050  176.0770  137.2180 C   0  0  1  0  0  3  0  0  0  0  0  0
  187.3100  177.8450  135.6350 C   0  0  0  0  0  2  0  0  0  0  0  0
  184.7140  174.8290  137.5890 C   0  0  0  0  0  0  0  0  0  0  0  0
  186.0370  174.8570  137.1110 C   0  0  0  0  0  0  0  0  0  0  0  0
  183.6860  171.4780  136.7390 F   0  0  0  0  0  0  0  0  0  0  0  0
  185.7720  172.5680  136.3740 C   0  0  0  0  0  3  0  0  0  0  0  0
  184.4630  172.5810  136.8590 C   0  0  0  0  0  0  0  0  0  0  0  0
  186.5580  173.7120  136.5030 C   0  0  0  0  0  3  0  0  0  0  0  0
  183.9670  173.7010  137.4500 N   0  0  0  0  0  0  0  0  0  0  0  0
  184.1670  175.9200  138.1810 F   0  0  0  0  0  0  0  0  0  0  0  0
  186.7800  177.7860  144.2250 O   0  0  0  0  0  0  0  0  0  0  0  0
  189.0400  177.8480  147.2270 C   0  0  0  0  0  2  0  0  0  0  0  0
  190.0060  176.7510  146.7720 C   0  0  1  0  0  3  0  0  0  0  0  0
  188.9320  176.7460  144.5040 C   0  0  0  0  0  2  0  0  0  0  0  0
  187.7310  177.7590  146.4480 C   0  0  0  0  0  2  0  0  0  0  0  0
  188.0010  177.8710  144.9480 C   0  0  2  0  0  3  0  0  0  0  0  0
  190.2540  176.8290  145.2630 C   0  0  0  0  0  2  0  0  0  0  0  0
  192.2610  175.6640  147.1850 C   0  0  0  0  0  1  0  0  0  0  0  0
  191.3150  176.7990  147.5560 C   0  0  0  0  0  2  0  0  0  0  0  0
  1  8  1  0  0  0  0
  2 13  1  0  0  0  0
  2 12  1  0  0  0  0
  3 14  1  0  0  0  0
  4 15  1  0  0  0  0
  5  9  1  0  0  0  0
  5  1  2  0  0  0  0
  6  1  1  0  0  0  0
  7 11  1  0  0  0  0
  7  4  1  0  0  0  0
  8  4  2  0  0  0  0
  9  7  2  0  0  0  0
 10  3  2  0  0  0  0
 10 11  1  0  0  0  0
 11  2  2  0  0  0  0
 13 35  1  0  0  0  0
 14 13  2  0  0  0  0
 15 12  2  0  0  0  0
 16 17  1  6  0  0  0
 16  3  1  0  0  0  0
 18 16  1  0  0  0  0
 19 20  1  1  0  0  0
 19 18  1  0  0  0  0
 21 19  1  0  0  0  0
 22 25  1  0  0  0  0
 22 21  1  0  0  0  0
 23 25  1  0  0  0  0
 24 22  1  0  0  0  0
 25 28  1  6  0  0  0
 26 24  1  0  0  0  0
 26 23  1  0  0  0  0
 27 34  1  0  0  0  0
 28 27  2  0  0  0  0
 29 31  1  0  0  0  0
 30 32  2  0  0  0  0
 30 31  1  0  0  0  0
 31 33  2  0  0  0  0
 32 28  1  0  0  0  0
 33 27  1  0  0  0  0
 37 36  1  0  0  0  0
 37 43  1  1  0  0  0
 38 40  1  0  0  0  0
 38 41  1  0  0  0  0
 39 36  1  0  0  0  0
 40 35  1  6  0  0  0
 40 39  1  0  0  0  0
 41 37  1  0  0  0  0
 42 43  1  0  0  0  0
M  END
>  <MODEL>
7

>  <REMARK>
 VINA RESULT:      -9.9      1.808      6.767
  Name = 
  9 active torsions:
  status: ('A' for Active; 'I' for Inactive)
    1  A    between atoms: O_1  and  C_34
    2  A    between atoms: O_1  and  C_35
    3  A    between atoms: C_2  and  N_6
    4  A    between atoms: C_2  and  C_13
    5  A    between atoms: C_3  and  N_4
    6  A    between atoms: C_3  and  C_12
    7  A    between atoms: N_6  and  C_12
    8  A    between atoms: C_14  and  C_22
    9  A    between atoms: C_19  and  C_37
                            x       y       z     vdW  Elec       q    Type
                         _______ _______ _______ _____ _____    ______ ____

>  <TORSDO>
F 9

$$$$
=
 OpenBabel10262422363D

 43 48  0  0  1  0  0  0  0  0999 V2000
  184.8690  178.5870  145.1330 C   0  0  0  0  0  0  0  0  0  0  0  0
  182.3460  178.7750  140.7520 C   0  0  0  0  0  0  0  0  0  0  0  0
  184.2280  178.1970  138.7820 C   0  0  0  0  0  0  0  0  0  0  0  0
  183.1480  178.8160  143.4420 C   0  0  0  0  0  0  0  0  0  0  0  0
  185.8110  178.2990  144.1420 C   0  0  0  0  0  3  0  0  0  0  0  0
  185.2810  178.6200  146.5600 C   0  0  0  0  0  1  0  0  0  0  0  0
  184.0970  178.5200  142.4330 C   0  0  0  0  0  0  0  0  0  0  0  0
  183.5400  178.8460  144.7840 C   0  0  0  0  0  3  0  0  0  0  0  0
  185.4270  178.2670  142.7990 C   0  0  0  0  0  3  0  0  0  0  0  0
  184.5840  178.2070  140.0960 N   0  0  0  0  0  0  0  0  0  0  0  0
  183.6930  178.4940  141.0850 C   0  0  0  0  0  0  0  0  0  0  0  0
  181.4220  179.0650  141.7640 C   0  0  0  0  0  3  0  0  0  0  0  0
  181.9540  178.7620  139.4050 C   0  0  0  0  0  0  0  0  0  0  0  0
  182.9080  178.4700  138.4200 C   0  0  0  0  0  3  0  0  0  0  0  0
  181.8210  179.0840  143.1020 C   0  0  0  0  0  3  0  0  0  0  0  0
  185.2230  177.8720  137.7100 C   0  0  2  0  0  3  0  0  0  0  0  0
  185.4300  176.4900  137.6120 O   0  0  0  0  0  1  0  0  0  0  0  0
  186.4800  178.6190  137.8560 N   0  0  0  0  0  2  0  0  0  0  0  0
  187.5250  178.0870  136.9840 C   0  0  1  0  0  3  0  0  0  0  0  0
  187.1030  178.2680  135.5380 C   0  0  0  0  0  1  0  0  0  0  0  0
  188.8340  178.8180  137.2410 C   0  0  0  0  0  2  0  0  0  0  0  0
  189.8930  177.8710  137.5640 N   0  0  0  0  0  0  0  0  0  0  0  0
  189.7900  175.5080  138.0700 C   0  0  0  0  0  2  0  0  0  0  0  0
  190.2040  177.1260  136.3530 C   0  0  0  0  0  2  0  0  0  0  0  0
  189.3290  176.8930  138.4880 C   0  0  1  0  0  3  0  0  0  0  0  0
  190.5160  175.7060  136.7630 C   0  0  0  0  0  2  0  0  0  0  0  0
  191.0630  177.1980  140.3300 C   0  0  0  0  0  0  0  0  0  0  0  0
  189.7220  177.2030  139.9020 C   0  0  0  0  0  0  0  0  0  0  0  0
  190.7380  178.1150  143.8040 F   0  0  0  0  0  0  0  0  0  0  0  0
  189.0560  177.8280  142.1430 C   0  0  0  0  0  3  0  0  0  0  0  0
  190.3980  177.8160  142.5270 C   0  0  0  0  0  0  0  0  0  0  0  0
  188.7220  177.5210  140.8250 C   0  0  0  0  0  3  0  0  0  0  0  0
  191.3630  177.5040  141.6210 N   0  0  0  0  0  0  0  0  0  0  0  0
  192.0660  176.9010  139.4670 F   0  0  0  0  0  0  0  0  0  0  0  0
  180.6250  179.0500  139.0600 O   0  0  0  0  0  0  0  0  0  0  0  0
  180.7620  182.6360  137.9430 C   0  0  0  0  0  2  0  0  0  0  0  0
  180.7910  182.3730  136.4350 C   0  0  1  0  0  3  0  0  0  0  0  0
  180.3140  179.9450  136.8480 C   0  0  0  0  0  2  0  0  0  0  0  0
  181.1690  181.3800  138.7070 C   0  0  0  0  0  2  0  0  0  0  0  0
  180.2420  180.2190  138.3470 C   0  0  2  0  0  3  0  0  0  0  0  0
  179.8950  181.1870  136.0670 C   0  0  0  0  0  2  0  0  0  0  0  0
  181.1590  184.8640  136.1210 C   0  0  0  0  0  1  0  0  0  0  0  0
  180.4140  183.6240  135.6430 C   0  0  0  0  0  2  0  0  0  0  0  0
  1  6  1  0  0  0  0
  2 11  1  0  0  0  0
  2 12  1  0  0  0  0
  3 10  1  0  0  0  0
  4  8  2  0  0  0  0
  5  1  2  0  0  0  0
  7  9  2  0  0  0  0
  7  4  1  0  0  0  0
  8  1  1  0  0  0  0
  9  5  1  0  0  0  0
 10 11  2  0  0  0  0
 11  7  1  0  0  0  0
 12 15  2  0  0  0  0
 13  2  2  0  0  0  0
 14  3  2  0  0  0  0
 14 13  1  0  0  0  0
 15  4  1  0  0  0  0
 16 17  1  1  0  0  0
 16 18  1  0  0  0  0
 16  3  1  0  0  0  0
 19 20  1  6  0  0  0
 19 21  1  0  0  0  0
 19 18  1  0  0  0  0
 21 22  1  0  0  0  0
 22 25  1  0  0  0  0
 23 25  1  0  0  0  0
 24 26  1  0  0  0  0
 24 22  1  0  0  0  0
 25 28  1  1  0  0  0
 26 23  1  0  0  0  0
 27 33  1  0  0  0  0
 28 27  2  0  0  0  0
 28 32  1  0  0  0  0
 30 31  1  0  0  0  0
 31 29  1  0  0  0  0
 32 30  2  0  0  0  0
 33 31  2  0  0  0  0
 34 27  1  0  0  0  0
 35 13  1  0  0  0  0
 36 39  1  0  0  0  0
 37 43  1  6  0  0  0
 37 36  1  0  0  0  0
 38 40  1  0  0  0  0
 40 39  1  0  0  0  0
 40 35  1  1  0  0  0
 41 37  1  0  0  0  0
 41 38  1  0  0  0  0
 43 42  1  0  0  0  0
M  END
>  <MODEL>
8

>  <REMARK>
 VINA RESULT:      -9.8      3.151      5.841
  Name = 
  9 active torsions:
  status: ('A' for Active; 'I' for Inactive)
    1  A    between atoms: O_1  and  C_34
    2  A    between atoms: O_1  and  C_35
    3  A    between atoms: C_2  and  N_6
    4  A    between atoms: C_2  and  C_13
    5  A    between atoms: C_3  and  N_4
    6  A    between atoms: C_3  and  C_12
    7  A    between atoms: N_6  and  C_12
    8  A    between atoms: C_14  and  C_22
    9  A    between atoms: C_19  and  C_37
                            x       y       z     vdW  Elec       q    Type
                         _______ _______ _______ _____ _____    ______ ____

>  <TORSDO>
F 9

$$$$
=
 OpenBabel10262422363D

 43 48  0  0  1  0  0  0  0  0999 V2000
  180.9580  179.0190  142.2470 C   0  0  0  0  0  0  0  0  0  0  0  0
  185.7010  178.4530  143.9150 C   0  0  0  0  0  0  0  0  0  0  0  0
  187.2440  178.0180  141.6380 C   0  0  0  0  0  0  0  0  0  0  0  0
  182.9350  178.8530  143.6370 C   0  0  0  0  0  0  0  0  0  0  0  0
  181.7350  178.7980  141.1070 C   0  0  0  0  0  3  0  0  0  0  0  0
  179.4920  179.2240  142.1160 C   0  0  0  0  0  1  0  0  0  0  0  0
  183.7290  178.6330  142.4860 C   0  0  0  0  0  0  0  0  0  0  0  0
  181.5560  179.0450  143.5100 C   0  0  0  0  0  3  0  0  0  0  0  0
  183.1140  178.6060  141.2260 C   0  0  0  0  0  3  0  0  0  0  0  0
  185.9040  178.2320  141.5330 N   0  0  0  0  0  0  0  0  0  0  0  0
  185.1170  178.4390  142.6250 C   0  0  0  0  0  0  0  0  0  0  0  0
  184.8980  178.6720  145.0420 C   0  0  0  0  0  3  0  0  0  0  0  0
  187.0810  178.2440  144.0460 C   0  0  0  0  0  0  0  0  0  0  0  0
  187.8510  178.0260  142.8950 C   0  0  0  0  0  3  0  0  0  0  0  0
  183.5230  178.8720  144.9030 C   0  0  0  0  0  3  0  0  0  0  0  0
  188.0940  177.7980  140.4230 C   0  0  2  0  0  3  0  0  0  0  0  0
  189.4540  177.9430  140.7230 O   0  0  0  0  0  1  0  0  0  0  0  0
  187.6790  178.6260  139.2820 N   0  0  0  0  0  2  0  0  0  0  0  0
  188.0130  177.9920  138.0090 C   0  0  1  0  0  3  0  0  0  0  0  0
  189.2780  178.6230  137.4580 C   0  0  0  0  0  1  0  0  0  0  0  0
  188.2210  176.5000  138.2140 C   0  0  0  0  0  2  0  0  0  0  0  0
  187.5450  175.7410  137.1700 N   0  0  0  0  0  0  0  0  0  0  0  0
  186.4800  176.4800  135.1270 C   0  0  0  0  0  2  0  0  0  0  0  0
  188.4840  175.5680  136.0710 C   0  0  0  0  0  2  0  0  0  0  0  0
  186.4810  176.5890  136.6420 C   0  0  1  0  0  3  0  0  0  0  0  0
  187.6960  175.6570  134.7850 C   0  0  0  0  0  2  0  0  0  0  0  0
  184.3130  177.1360  137.8660 C   0  0  0  0  0  0  0  0  0  0  0  0
  185.1520  176.2060  137.2240 C   0  0  0  0  0  0  0  0  0  0  0  0
  181.4810  175.0900  138.7620 F   0  0  0  0  0  0  0  0  0  0  0  0
  183.4900  174.4950  137.6310 C   0  0  0  0  0  3  0  0  0  0  0  0
  182.6860  175.4490  138.2570 C   0  0  0  0  0  0  0  0  0  0  0  0
  184.7270  174.8790  137.1140 C   0  0  0  0  0  3  0  0  0  0  0  0
  183.1110  176.7370  138.3600 N   0  0  0  0  0  0  0  0  0  0  0  0
  184.6840  178.4350  137.9900 F   0  0  0  0  0  0  0  0  0  0  0  0
  187.6710  178.2440  145.3190 O   0  0  0  0  0  0  0  0  0  0  0  0
  191.1070  176.7800  145.7410 C   0  0  0  0  0  2  0  0  0  0  0  0
  191.0410  176.5530  147.2530 C   0  0  1  0  0  3  0  0  0  0  0  0
  188.5970  177.1190  147.2340 C   0  0  0  0  0  2  0  0  0  0  0  0
  190.0460  177.7890  145.3100 C   0  0  0  0  0  2  0  0  0  0  0  0
  188.6560  177.3010  145.7200 C   0  0  2  0  0  3  0  0  0  0  0  0
  189.6420  176.1010  147.6810 C   0  0  0  0  0  2  0  0  0  0  0  0
  193.0720  176.1810  148.7280 C   0  0  0  0  0  1  0  0  0  0  0  0
  192.1120  175.5670  147.7160 C   0  0  0  0  0  2  0  0  0  0  0  0
  1  8  1  0  0  0  0
  2 13  1  0  0  0  0
  2 12  1  0  0  0  0
  3 14  1  0  0  0  0
  4 15  1  0  0  0  0
  5  9  1  0  0  0  0
  5  1  2  0  0  0  0
  6  1  1  0  0  0  0
  7 11  1  0  0  0  0
  7  4  1  0  0  0  0
  8  4  2  0  0  0  0
  9  7  2  0  0  0  0
 10  3  2  0  0  0  0
 10 11  1  0  0  0  0
 11  2  2  0  0  0  0
 13 35  1  0  0  0  0
 14 13  2  0  0  0  0
 15 12  2  0  0  0  0
 16 17  1  1  0  0  0
 16  3  1  0  0  0  0
 18 16  1  0  0  0  0
 19 20  1  1  0  0  0
 19 21  1  0  0  0  0
 19 18  1  0  0  0  0
 22 21  1  0  0  0  0
 23 25  1  0  0  0  0
 24 22  1  0  0  0  0
 25 22  1  0  0  0  0
 25 28  1  1  0  0  0
 26 23  1  0  0  0  0
 26 24  1  0  0  0  0
 27 34  1  0  0  0  0
 27 33  1  0  0  0  0
 28 27  2  0  0  0  0
 30 31  1  0  0  0  0
 31 33  2  0  0  0  0
 31 29  1  0  0  0  0
 32 28  1  0  0  0  0
 32 30  2  0  0  0  0
 36 37  1  0  0  0  0
 37 41  1  0  0  0  0
 37 43  1  6  0  0  0
 38 41  1  0  0  0  0
 39 40  1  0  0  0  0
 39 36  1  0  0  0  0
 40 35  1  1  0  0  0
 40 38  1  0  0  0  0
 43 42  1  0  0  0  0
M  END
>  <MODEL>
9

>  <REMARK>
 VINA RESULT:      -9.6      1.738      6.613
  Name = 
  9 active torsions:
  status: ('A' for Active; 'I' for Inactive)
    1  A    between atoms: O_1  and  C_34
    2  A    between atoms: O_1  and  C_35
    3  A    between atoms: C_2  and  N_6
    4  A    between atoms: C_2  and  C_13
    5  A    between atoms: C_3  and  N_4
    6  A    between atoms: C_3  and  C_12
    7  A    between atoms: N_6  and  C_12
    8  A    between atoms: C_14  and  C_22
    9  A    between atoms: C_19  and  C_37
                            x       y       z     vdW  Elec       q    Type
                         _______ _______ _______ _____ _____    ______ ____

>  <TORSDO>
F 9

$$$$
