=
 OpenBabel10262420513D

 28 32  0  0  1  0  0  0  0  0999 V2000
  185.9120  178.3870  144.1120 C   0  0  1  0  0  3  0  0  0  0  0  0
  189.1330  176.9940  140.8510 C   0  0  0  0  0  3  0  0  0  0  0  0
  189.3980  178.2450  146.9080 O   0  0  0  0  0  1  0  0  0  0  0  0
  191.0990  177.6090  142.1410 C   0  0  0  0  0  0  0  0  0  0  0  0
  188.8130  177.6840  143.2570 C   0  0  1  0  0  3  0  0  0  0  0  0
  191.3160  176.9830  139.8080 C   0  0  0  0  0  0  0  0  0  0  0  0
  189.7040  177.3740  142.0750 C   0  0  0  0  0  0  0  0  0  0  0  0
  190.8010  178.6510  144.4070 C   0  0  0  0  0  2  0  0  0  0  0  0
  191.8950  177.3910  141.0110 C   0  0  0  0  0  3  0  0  0  0  0  0
  187.4620  177.3060  145.8490 C   0  0  1  0  0  3  0  0  0  0  0  0
  187.6600  176.6890  143.3970 C   0  0  0  0  0  2  0  0  0  0  0  0
  191.7740  178.0090  143.4230 C   0  0  0  0  0  2  0  0  0  0  0  0
  185.1810  178.2990  146.5280 C   0  0  0  0  0  2  0  0  0  0  0  0
  188.6820  178.2300  145.7080 C   0  0  2  0  0  3  0  0  0  0  0  0
  186.5470  177.7870  146.9910 C   0  0  0  0  0  2  0  0  0  0  0  0
  192.3200  176.7200  138.3990 Cl  0  0  0  0  0  0  0  0  0  0  0  0
  189.9350  176.7910  139.7260 C   0  0  0  0  0  3  0  0  0  0  0  0
  189.5910  177.7420  144.5770 C   0  0  1  0  0  3  0  0  0  0  0  0
  185.3220  179.1740  145.2890 C   0  0  0  0  0  2  0  0  0  0  0  0
  186.7080  177.1270  144.5110 C   0  0  2  0  0  3  0  0  0  0  0  0
  184.9330  178.1650  142.9360 C   0  0  0  0  0  2  0  0  0  0  0  0
  185.1030  179.0140  141.7440 N   0  0  0  0  0  0  0  0  0  0  0  0
  184.3830  179.1190  139.4680 C   0  0  0  0  0  0  0  0  0  0  0  0
  183.9200  178.9490  140.8970 C   0  0  0  0  0  2  0  0  0  0  0  0
  186.2390  178.6110  140.9230 C   0  0  0  0  0  2  0  0  0  0  0  0
  185.8680  178.8480  139.4730 C   0  0  0  0  0  2  0  0  0  0  0  0
  183.7270  178.2120  138.6370 O   0  0  0  0  0  1  0  0  0  0  0  0
  184.1370  180.4220  139.0370 O   0  0  0  0  0  1  0  0  0  0  0  0
  1 21  1  6  0  0  0
  1 20  1  0  0  0  0
  1 19  1  0  0  0  0
  2  7  1  0  0  0  0
  4 12  1  0  0  0  0
  5 11  1  1  0  0  0
  5 18  1  0  0  0  0
  6  9  2  0  0  0  0
  7  4  2  0  0  0  0
  7  5  1  0  0  0  0
  9  4  1  0  0  0  0
 10 15  1  1  0  0  0
 12  8  1  0  0  0  0
 13 15  1  0  0  0  0
 14 10  1  0  0  0  0
 14  3  1  1  0  0  0
 16  6  1  0  0  0  0
 17  6  1  0  0  0  0
 17  2  2  0  0  0  0
 18  8  1  6  0  0  0
 18 14  1  0  0  0  0
 19 13  1  0  0  0  0
 20 11  1  6  0  0  0
 20 10  1  0  0  0  0
 22 21  1  0  0  0  0
 23 26  1  0  0  0  0
 23 24  1  0  0  0  0
 24 22  1  0  0  0  0
 25 22  1  0  0  0  0
 26 25  1  0  0  0  0
 27 23  1  0  0  0  0
 28 23  1  0  0  0  0
M  END
>  <MODEL>
1

>  <REMARK>
 VINA RESULT:     -10.5      0.000      0.000
  Name = 
  2 active torsions:
  status: ('A' for Active; 'I' for Inactive)
    1  A    between atoms: C_1  and  C_2
    2  A    between atoms: C_2  and  N_3
                            x       y       z     vdW  Elec       q    Type
                         _______ _______ _______ _____ _____    ______ ____

>  <TORSDO>
F 2

$$$$
=
 OpenBabel10262420513D

 28 32  0  0  1  0  0  0  0  0999 V2000
  189.3570  176.4950  142.7140 C   0  0  1  0  0  3  0  0  0  0  0  0
  184.9500  178.3720  142.6610 C   0  0  0  0  0  3  0  0  0  0  0  0
  189.3950  177.9310  146.9470 O   0  0  0  0  0  1  0  0  0  0  0  0
  184.6830  178.4890  145.0730 C   0  0  0  0  0  0  0  0  0  0  0  0
  186.9610  177.8920  144.1080 C   0  0  1  0  0  3  0  0  0  0  0  0
  182.7870  178.8860  143.6140 C   0  0  0  0  0  0  0  0  0  0  0  0
  185.5160  178.3080  143.9430 C   0  0  0  0  0  0  0  0  0  0  0  0
  186.5380  177.6640  146.5530 C   0  0  0  0  0  2  0  0  0  0  0  0
  183.3290  178.7950  144.8970 C   0  0  0  0  0  3  0  0  0  0  0  0
  189.8540  178.1580  144.6040 C   0  0  1  0  0  3  0  0  0  0  0  0
  187.8760  178.5280  143.0610 C   0  0  0  0  0  2  0  0  0  0  0  0
  185.2290  178.4420  146.4730 C   0  0  0  0  0  2  0  0  0  0  0  0
  191.7030  176.6410  143.6400 C   0  0  0  0  0  2  0  0  0  0  0  0
  188.9030  177.6090  145.6800 C   0  0  2  0  0  3  0  0  0  0  0  0
  191.2660  177.5670  144.7770 C   0  0  0  0  0  2  0  0  0  0  0  0
  181.0910  179.2650  143.4060 Cl  0  0  0  0  0  0  0  0  0  0  0  0
  183.5960  178.6670  142.4960 C   0  0  0  0  0  3  0  0  0  0  0  0
  187.5040  178.2050  145.5080 C   0  0  1  0  0  3  0  0  0  0  0  0
  190.5680  175.7090  143.2350 C   0  0  0  0  0  2  0  0  0  0  0  0
  189.2930  177.9650  143.1770 C   0  0  2  0  0  3  0  0  0  0  0  0
  189.0670  176.2970  141.2080 C   0  0  0  0  0  2  0  0  0  0  0  0
  189.5140  177.3570  140.2870 N   0  0  0  0  0  0  0  0  0  0  0  0
  188.9830  178.2340  138.1290 C   0  0  0  0  0  0  0  0  0  0  0  0
  188.4060  177.8190  139.4630 C   0  0  0  0  0  2  0  0  0  0  0  0
  190.5640  176.9080  139.3790 C   0  0  0  0  0  2  0  0  0  0  0  0
  190.3520  177.6030  138.0490 C   0  0  0  0  0  2  0  0  0  0  0  0
  188.1750  177.7740  137.0900 O   0  0  0  0  0  1  0  0  0  0  0  0
  189.0930  179.6220  138.0660 O   0  0  0  0  0  1  0  0  0  0  0  0
  1 21  1  6  0  0  0
  1 20  1  0  0  0  0
  1 19  1  0  0  0  0
  2  7  1  0  0  0  0
  4 12  1  0  0  0  0
  5 11  1  6  0  0  0
  5 18  1  0  0  0  0
  6  9  2  0  0  0  0
  7  5  1  0  0  0  0
  7  4  2  0  0  0  0
  9  4  1  0  0  0  0
 10 15  1  6  0  0  0
 10 14  1  0  0  0  0
 12  8  1  0  0  0  0
 13 15  1  0  0  0  0
 14  3  1  1  0  0  0
 16  6  1  0  0  0  0
 17  2  2  0  0  0  0
 17  6  1  0  0  0  0
 18 14  1  0  0  0  0
 18  8  1  1  0  0  0
 19 13  1  0  0  0  0
 20 11  1  1  0  0  0
 20 10  1  0  0  0  0
 22 21  1  0  0  0  0
 23 24  1  0  0  0  0
 24 22  1  0  0  0  0
 25 22  1  0  0  0  0
 26 23  1  0  0  0  0
 26 25  1  0  0  0  0
 27 23  1  0  0  0  0
 28 23  1  0  0  0  0
M  END
>  <MODEL>
2

>  <REMARK>
 VINA RESULT:     -10.5      3.144      5.750
  Name = 
  2 active torsions:
  status: ('A' for Active; 'I' for Inactive)
    1  A    between atoms: C_1  and  C_2
    2  A    between atoms: C_2  and  N_3
                            x       y       z     vdW  Elec       q    Type
                         _______ _______ _______ _____ _____    ______ ____

>  <TORSDO>
F 2

$$$$
=
 OpenBabel10262420513D

 28 32  0  0  1  0  0  0  0  0999 V2000
  187.0510  178.4960  142.2560 C   0  0  1  0  0  3  0  0  0  0  0  0
  190.2740  176.6270  145.2670 C   0  0  0  0  0  3  0  0  0  0  0  0
  184.5700  178.9340  145.9500 O   0  0  0  0  0  1  0  0  0  0  0  0
  189.2770  177.5060  147.3010 C   0  0  0  0  0  0  0  0  0  0  0  0
  188.0060  177.7230  145.1070 C   0  0  1  0  0  3  0  0  0  0  0  0
  191.4750  176.4830  147.3610 C   0  0  0  0  0  0  0  0  0  0  0  0
  189.1860  177.2300  145.9160 C   0  0  0  0  0  0  0  0  0  0  0  0
  187.2100  178.9250  147.1400 C   0  0  0  0  0  2  0  0  0  0  0  0
  190.4140  177.1110  148.0150 C   0  0  0  0  0  3  0  0  0  0  0  0
  185.2860  177.7770  143.9750 C   0  0  1  0  0  3  0  0  0  0  0  0
  187.6010  176.7410  144.0070 C   0  0  0  0  0  2  0  0  0  0  0  0
  188.1440  178.1420  148.0570 C   0  0  0  0  0  2  0  0  0  0  0  0
  184.6040  178.8190  141.7170 C   0  0  0  0  0  2  0  0  0  0  0  0
  185.6860  178.6900  145.1450 C   0  0  2  0  0  3  0  0  0  0  0  0
  184.1730  178.4300  143.1330 C   0  0  0  0  0  2  0  0  0  0  0  0
  192.8950  175.9990  148.2630 Cl  0  0  0  0  0  0  0  0  0  0  0  0
  191.4080  176.2470  145.9860 C   0  0  0  0  0  3  0  0  0  0  0  0
  186.7850  178.0310  145.9820 C   0  0  1  0  0  3  0  0  0  0  0  0
  185.9840  179.4650  141.7290 C   0  0  0  0  0  2  0  0  0  0  0  0
  186.5050  177.3460  143.1280 C   0  0  2  0  0  3  0  0  0  0  0  0
  188.0850  178.0470  141.1980 C   0  0  0  0  0  2  0  0  0  0  0  0
  188.0190  178.6870  139.8730 N   0  0  0  0  0  0  0  0  0  0  0  0
  187.6220  178.1040  137.5900 C   0  0  0  0  0  0  0  0  0  0  0  0
  187.1010  177.9650  139.0030 C   0  0  0  0  0  2  0  0  0  0  0  0
  189.3120  178.7190  139.1980 C   0  0  0  0  0  2  0  0  0  0  0  0
  189.0630  178.5360  137.7140 C   0  0  0  0  0  2  0  0  0  0  0  0
  187.5380  176.8820  136.9230 O   0  0  0  0  0  1  0  0  0  0  0  0
  186.8900  179.0710  136.9030 O   0  0  0  0  0  1  0  0  0  0  0  0
  1 21  1  6  0  0  0
  1 20  1  0  0  0  0
  2  7  2  0  0  0  0
  2 17  1  0  0  0  0
  4  9  2  0  0  0  0
  4 12  1  0  0  0  0
  5 11  1  6  0  0  0
  5  7  1  0  0  0  0
  5 18  1  0  0  0  0
  6  9  1  0  0  0  0
  6 16  1  0  0  0  0
  7  4  1  0  0  0  0
  8 12  1  0  0  0  0
 10 15  1  6  0  0  0
 10 14  1  0  0  0  0
 13 19  1  0  0  0  0
 13 15  1  0  0  0  0
 14  3  1  1  0  0  0
 14 18  1  0  0  0  0
 17  6  2  0  0  0  0
 18  8  1  1  0  0  0
 19  1  1  0  0  0  0
 20 10  1  0  0  0  0
 20 11  1  1  0  0  0
 22 21  1  0  0  0  0
 23 26  1  0  0  0  0
 23 24  1  0  0  0  0
 24 22  1  0  0  0  0
 25 22  1  0  0  0  0
 26 25  1  0  0  0  0
 27 23  1  0  0  0  0
 28 23  1  0  0  0  0
M  END
>  <MODEL>
3

>  <REMARK>
 VINA RESULT:     -10.5      2.963      4.648
  Name = 
  2 active torsions:
  status: ('A' for Active; 'I' for Inactive)
    1  A    between atoms: C_1  and  C_2
    2  A    between atoms: C_2  and  N_3
                            x       y       z     vdW  Elec       q    Type
                         _______ _______ _______ _____ _____    ______ ____

>  <TORSDO>
F 2

$$$$
=
 OpenBabel10262420513D

 28 32  0  0  1  0  0  0  0  0999 V2000
  185.6650  179.0040  143.8340 C   0  0  1  0  0  3  0  0  0  0  0  0
  189.3390  177.6000  141.0990 C   0  0  0  0  0  3  0  0  0  0  0  0
  188.2740  177.6380  147.1980 O   0  0  0  0  0  1  0  0  0  0  0  0
  190.9910  177.5490  142.8810 C   0  0  0  0  0  0  0  0  0  0  0  0
  188.5400  177.8880  143.4760 C   0  0  1  0  0  3  0  0  0  0  0  0
  191.6830  177.3300  140.5670 C   0  0  0  0  0  0  0  0  0  0  0  0
  189.6380  177.6230  142.4700 C   0  0  0  0  0  0  0  0  0  0  0  0
  190.3030  178.1970  145.2090 C   0  0  0  0  0  2  0  0  0  0  0  0
  192.0000  177.3830  141.9260 C   0  0  0  0  0  3  0  0  0  0  0  0
  186.5410  177.3280  145.5680 C   0  0  1  0  0  3  0  0  0  0  0  0
  187.2470  177.1430  143.1390 C   0  0  0  0  0  2  0  0  0  0  0  0
  191.3780  177.5600  144.3340 C   0  0  0  0  0  2  0  0  0  0  0  0
  184.3480  178.6280  145.9560 C   0  0  0  0  0  2  0  0  0  0  0  0
  187.8880  177.9910  145.9020 C   0  0  2  0  0  3  0  0  0  0  0  0
  185.4570  177.7700  146.5690 C   0  0  0  0  0  2  0  0  0  0  0  0
  192.9540  177.1280  139.3800 Cl  0  0  0  0  0  0  0  0  0  0  0  0
  190.3540  177.4450  140.1530 C   0  0  0  0  0  3  0  0  0  0  0  0
  188.9620  177.5410  144.9090 C   0  0  1  0  0  3  0  0  0  0  0  0
  184.9300  179.6670  145.0070 C   0  0  0  0  0  2  0  0  0  0  0  0
  186.1280  177.5560  144.0960 C   0  0  2  0  0  3  0  0  0  0  0  0
  184.9890  179.2080  142.4580 C   0  0  0  0  0  2  0  0  0  0  0  0
  183.8100  178.3780  142.1540 N   0  0  0  0  0  0  0  0  0  0  0  0
  182.1560  178.1250  140.4480 C   0  0  0  0  0  0  0  0  0  0  0  0
  183.6400  178.2420  140.7140 C   0  0  0  0  0  2  0  0  0  0  0  0
  182.5720  178.9430  142.6790 C   0  0  0  0  0  2  0  0  0  0  0  0
  181.4660  178.6280  141.6930 C   0  0  0  0  0  2  0  0  0  0  0  0
  181.8000  178.9030  139.3480 O   0  0  0  0  0  1  0  0  0  0  0  0
  181.8140  176.7920  140.2180 O   0  0  0  0  0  1  0  0  0  0  0  0
  1 21  1  6  0  0  0
  1 20  1  0  0  0  0
  1 19  1  0  0  0  0
  2  7  1  0  0  0  0
  4 12  1  0  0  0  0
  5 11  1  6  0  0  0
  5 18  1  0  0  0  0
  6  9  2  0  0  0  0
  7  4  2  0  0  0  0
  7  5  1  0  0  0  0
  9  4  1  0  0  0  0
 10 14  1  0  0  0  0
 10 15  1  1  0  0  0
 12  8  1  0  0  0  0
 13 15  1  0  0  0  0
 14  3  1  1  0  0  0
 16  6  1  0  0  0  0
 17  6  1  0  0  0  0
 17  2  2  0  0  0  0
 18  8  1  1  0  0  0
 18 14  1  0  0  0  0
 19 13  1  0  0  0  0
 20 11  1  6  0  0  0
 20 10  1  0  0  0  0
 22 21  1  0  0  0  0
 22 25  1  0  0  0  0
 23 24  1  0  0  0  0
 23 26  1  0  0  0  0
 24 22  1  0  0  0  0
 26 25  1  0  0  0  0
 27 23  1  0  0  0  0
 28 23  1  0  0  0  0
M  END
>  <MODEL>
4

>  <REMARK>
 VINA RESULT:      -9.6      1.301      1.822
  Name = 
  2 active torsions:
  status: ('A' for Active; 'I' for Inactive)
    1  A    between atoms: C_1  and  C_2
    2  A    between atoms: C_2  and  N_3
                            x       y       z     vdW  Elec       q    Type
                         _______ _______ _______ _____ _____    ______ ____

>  <TORSDO>
F 2

$$$$
=
 OpenBabel10262420513D

 28 32  0  0  1  0  0  0  0  0999 V2000
  186.8190  178.3670  142.5900 C   0  0  1  0  0  3  0  0  0  0  0  0
  190.1520  176.4980  145.4800 C   0  0  0  0  0  3  0  0  0  0  0  0
  184.6560  179.1910  146.4150 O   0  0  0  0  0  1  0  0  0  0  0  0
  189.3650  177.5650  147.5160 C   0  0  0  0  0  0  0  0  0  0  0  0
  187.9440  177.7200  145.4100 C   0  0  1  0  0  3  0  0  0  0  0  0
  191.4990  176.4140  147.4860 C   0  0  0  0  0  0  0  0  0  0  0  0
  189.1520  177.2080  146.1630 C   0  0  0  0  0  0  0  0  0  0  0  0
  187.3750  179.0960  147.4080 C   0  0  0  0  0  2  0  0  0  0  0  0
  190.5280  177.1470  148.1710 C   0  0  0  0  0  3  0  0  0  0  0  0
  185.1530  177.8690  144.4760 C   0  0  1  0  0  3  0  0  0  0  0  0
  187.4010  176.6970  144.4120 C   0  0  0  0  0  2  0  0  0  0  0  0
  188.3310  178.3170  148.3070 C   0  0  0  0  0  2  0  0  0  0  0  0
  184.3610  178.8060  142.2080 C   0  0  0  0  0  2  0  0  0  0  0  0
  185.6920  178.8290  145.5490 C   0  0  2  0  0  3  0  0  0  0  0  0
  184.0190  178.5350  143.6750 C   0  0  0  0  0  2  0  0  0  0  0  0
  192.9540  175.9020  148.3140 Cl  0  0  0  0  0  0  0  0  0  0  0  0
  191.3140  176.0960  146.1390 C   0  0  0  0  0  3  0  0  0  0  0  0
  186.8130  178.1580  146.3480 C   0  0  1  0  0  3  0  0  0  0  0  0
  185.7720  179.3650  142.0760 C   0  0  0  0  0  2  0  0  0  0  0  0
  186.2780  177.3110  143.5750 C   0  0  2  0  0  3  0  0  0  0  0  0
  187.7430  177.7890  141.4930 C   0  0  0  0  0  2  0  0  0  0  0  0
  189.1450  178.2420  141.4790 N   0  0  0  0  0  0  0  0  0  0  0  0
  191.3280  177.4180  141.9930 C   0  0  0  0  0  0  0  0  0  0  0  0
  190.0430  177.1190  141.2540 C   0  0  0  0  0  2  0  0  0  0  0  0
  189.5470  178.8660  142.7350 C   0  0  0  0  0  2  0  0  0  0  0  0
  190.9970  178.5060  142.9860 C   0  0  0  0  0  2  0  0  0  0  0  0
  191.7800  176.2780  142.6550 O   0  0  0  0  0  1  0  0  0  0  0  0
  192.3000  177.8670  141.1000 O   0  0  0  0  0  1  0  0  0  0  0  0
  1 21  1  6  0  0  0
  1 20  1  0  0  0  0
  2 17  2  0  0  0  0
  2  7  1  0  0  0  0
  4  9  1  0  0  0  0
  4 12  1  0  0  0  0
  5 11  1  6  0  0  0
  5  7  1  0  0  0  0
  5 18  1  0  0  0  0
  6  9  2  0  0  0  0
  6 16  1  0  0  0  0
  7  4  2  0  0  0  0
  8 12  1  0  0  0  0
 10 15  1  6  0  0  0
 10 14  1  0  0  0  0
 13 15  1  0  0  0  0
 14 18  1  0  0  0  0
 14  3  1  1  0  0  0
 17  6  1  0  0  0  0
 18  8  1  1  0  0  0
 19 13  1  0  0  0  0
 19  1  1  0  0  0  0
 20 11  1  1  0  0  0
 20 10  1  0  0  0  0
 22 21  1  0  0  0  0
 22 25  1  0  0  0  0
 23 27  1  0  0  0  0
 23 26  1  0  0  0  0
 24 22  1  0  0  0  0
 24 23  1  0  0  0  0
 25 26  1  0  0  0  0
 28 23  1  0  0  0  0
M  END
>  <MODEL>
5

>  <REMARK>
 VINA RESULT:      -9.6      3.288      5.461
  Name = 
  2 active torsions:
  status: ('A' for Active; 'I' for Inactive)
    1  A    between atoms: C_1  and  C_2
    2  A    between atoms: C_2  and  N_3
                            x       y       z     vdW  Elec       q    Type
                         _______ _______ _______ _____ _____    ______ ____

>  <TORSDO>
F 2

$$$$
=
 OpenBabel10262420513D

 28 32  0  0  1  0  0  0  0  0999 V2000
  186.6660  177.2560  144.1080 C   0  0  1  0  0  3  0  0  0  0  0  0
  184.6410  178.2020  139.8710 C   0  0  0  0  0  3  0  0  0  0  0  0
  183.0250  179.2640  145.7520 O   0  0  0  0  0  1  0  0  0  0  0  0
  182.4050  178.6090  140.7310 C   0  0  0  0  0  0  0  0  0  0  0  0
  184.3320  178.3400  142.3720 C   0  0  1  0  0  3  0  0  0  0  0  0
  182.7780  178.4120  138.3430 C   0  0  0  0  0  0  0  0  0  0  0  0
  183.7910  178.4360  140.9620 C   0  0  0  0  0  0  0  0  0  0  0  0
  181.9810  178.3870  143.1970 C   0  0  0  0  0  2  0  0  0  0  0  0
  181.9140  178.6160  139.4210 C   0  0  0  0  0  3  0  0  0  0  0  0
  185.3040  179.2380  145.0050 C   0  0  1  0  0  3  0  0  0  0  0  0
  185.7100  178.9860  142.5140 C   0  0  0  0  0  2  0  0  0  0  0  0
  181.4420  178.8720  141.8550 C   0  0  0  0  0  2  0  0  0  0  0  0
  186.9940  177.9910  146.5030 C   0  0  0  0  0  2  0  0  0  0  0  0
  183.8860  178.6720  144.8240 C   0  0  2  0  0  3  0  0  0  0  0  0
  185.8170  178.9670  146.4320 C   0  0  0  0  0  2  0  0  0  0  0  0
  182.1520  178.4160  136.7080 Cl  0  0  0  0  0  0  0  0  0  0  0  0
  184.1400  178.1990  138.5680 C   0  0  0  0  0  3  0  0  0  0  0  0
  183.3800  178.9520  143.4070 C   0  0  1  0  0  3  0  0  0  0  0  0
  186.7700  176.8060  145.5720 C   0  0  0  0  0  2  0  0  0  0  0  0
  186.2760  178.7350  143.9130 C   0  0  2  0  0  3  0  0  0  0  0  0
  187.8360  176.7900  143.2110 C   0  0  0  0  0  2  0  0  0  0  0  0
  189.1390  176.5650  143.8620 N   0  0  0  0  0  0  0  0  0  0  0  0
  191.2190  177.6890  144.2060 C   0  0  0  0  0  0  0  0  0  0  0  0
  189.7160  177.8270  144.3010 C   0  0  0  0  0  2  0  0  0  0  0  0
  190.1110  175.9360  142.9740 C   0  0  0  0  0  2  0  0  0  0  0  0
  191.4760  176.5040  143.3060 C   0  0  0  0  0  2  0  0  0  0  0  0
  191.7750  178.8440  143.6580 O   0  0  0  0  0  1  0  0  0  0  0  0
  191.7590  177.4550  145.4700 O   0  0  0  0  0  1  0  0  0  0  0  0
  1 21  1  1  0  0  0
  1 19  1  0  0  0  0
  2  7  1  0  0  0  0
  4  7  2  0  0  0  0
  4 12  1  0  0  0  0
  5 11  1  6  0  0  0
  5 18  1  0  0  0  0
  6 17  1  0  0  0  0
  6  9  2  0  0  0  0
  7  5  1  0  0  0  0
  9  4  1  0  0  0  0
 10 15  1  1  0  0  0
 12  8  1  0  0  0  0
 14 10  1  0  0  0  0
 14  3  1  1  0  0  0
 15 13  1  0  0  0  0
 16  6  1  0  0  0  0
 17  2  2  0  0  0  0
 18  8  1  1  0  0  0
 18 14  1  0  0  0  0
 19 13  1  0  0  0  0
 20 11  1  6  0  0  0
 20  1  1  0  0  0  0
 20 10  1  0  0  0  0
 21 22  1  0  0  0  0
 22 24  1  0  0  0  0
 23 24  1  0  0  0  0
 23 28  1  0  0  0  0
 25 26  1  0  0  0  0
 25 22  1  0  0  0  0
 26 23  1  0  0  0  0
 27 23  1  0  0  0  0
M  END
>  <MODEL>
6

>  <REMARK>
 VINA RESULT:      -9.0      3.293      6.689
  Name = 
  2 active torsions:
  status: ('A' for Active; 'I' for Inactive)
    1  A    between atoms: C_1  and  C_2
    2  A    between atoms: C_2  and  N_3
                            x       y       z     vdW  Elec       q    Type
                         _______ _______ _______ _____ _____    ______ ____

>  <TORSDO>
F 2

$$$$
=
 OpenBabel10262420513D

 28 32  0  0  1  0  0  0  0  0999 V2000
  189.3630  176.8630  138.9270 C   0  0  1  0  0  3  0  0  0  0  0  0
  185.8280  178.5410  141.6910 C   0  0  0  0  0  3  0  0  0  0  0  0
  191.6170  176.6360  142.7820 O   0  0  0  0  0  1  0  0  0  0  0  0
  186.7440  177.7540  143.7990 C   0  0  0  0  0  0  0  0  0  0  0  0
  188.1700  177.6000  141.6970 C   0  0  1  0  0  3  0  0  0  0  0  0
  184.4830  178.6250  143.6990 C   0  0  0  0  0  0  0  0  0  0  0  0
  186.9090  178.0200  142.4190 C   0  0  0  0  0  0  0  0  0  0  0  0
  188.9090  176.4780  143.7960 C   0  0  0  0  0  2  0  0  0  0  0  0
  185.5390  178.0780  144.4310 C   0  0  0  0  0  3  0  0  0  0  0  0
  190.9580  177.7200  140.7470 C   0  0  1  0  0  3  0  0  0  0  0  0
  188.5810  178.5950  140.6110 C   0  0  0  0  0  2  0  0  0  0  0  0
  187.8650  177.2050  144.6380 C   0  0  0  0  0  2  0  0  0  0  0  0
  191.8570  176.7020  138.5550 C   0  0  0  0  0  2  0  0  0  0  0  0
  190.5430  176.7950  141.9020 C   0  0  2  0  0  3  0  0  0  0  0  0
  192.1650  177.1350  139.9900 C   0  0  0  0  0  2  0  0  0  0  0  0
  182.9770  179.0210  144.4980 Cl  0  0  0  0  0  0  0  0  0  0  0  0
  184.6250  178.8500  142.3280 C   0  0  0  0  0  3  0  0  0  0  0  0
  189.3490  177.3860  142.6550 C   0  0  1  0  0  3  0  0  0  0  0  0
  190.5260  175.9630  138.4870 C   0  0  0  0  0  2  0  0  0  0  0  0
  189.7710  178.0570  139.8150 C   0  0  2  0  0  3  0  0  0  0  0  0
  188.3740  177.2280  137.7970 C   0  0  0  0  0  2  0  0  0  0  0  0
  186.9770  176.7840  137.9500 N   0  0  0  0  0  0  0  0  0  0  0  0
  185.1420  176.0580  136.6030 C   0  0  0  0  0  0  0  0  0  0  0  0
  186.6150  175.8620  136.8830 C   0  0  0  0  0  2  0  0  0  0  0  0
  186.0260  177.8890  137.9020 C   0  0  0  0  0  2  0  0  0  0  0  0
  184.7730  177.3900  137.2110 C   0  0  0  0  0  2  0  0  0  0  0  0
  184.9100  176.0710  135.2290 O   0  0  0  0  0  1  0  0  0  0  0  0
  184.4010  175.0390  137.2010 O   0  0  0  0  0  1  0  0  0  0  0  0
  1 21  1  6  0  0  0
  1 20  1  0  0  0  0
  2 17  2  0  0  0  0
  2  7  1  0  0  0  0
  4  9  1  0  0  0  0
  4 12  1  0  0  0  0
  5 11  1  6  0  0  0
  5  7  1  0  0  0  0
  5 18  1  0  0  0  0
  6  9  2  0  0  0  0
  6 16  1  0  0  0  0
  7  4  2  0  0  0  0
  8 12  1  0  0  0  0
 10 15  1  6  0  0  0
 10 14  1  0  0  0  0
 13 15  1  0  0  0  0
 14 18  1  0  0  0  0
 14  3  1  1  0  0  0
 17  6  1  0  0  0  0
 18  8  1  1  0  0  0
 19 13  1  0  0  0  0
 19  1  1  0  0  0  0
 20 11  1  1  0  0  0
 20 10  1  0  0  0  0
 21 22  1  0  0  0  0
 23 24  1  0  0  0  0
 23 28  1  0  0  0  0
 23 26  1  0  0  0  0
 24 22  1  0  0  0  0
 25 22  1  0  0  0  0
 26 25  1  0  0  0  0
 27 23  1  0  0  0  0
M  END
>  <MODEL>
7

>  <REMARK>
 VINA RESULT:      -8.9      3.182      5.941
  Name = 
  2 active torsions:
  status: ('A' for Active; 'I' for Inactive)
    1  A    between atoms: C_1  and  C_2
    2  A    between atoms: C_2  and  N_3
                            x       y       z     vdW  Elec       q    Type
                         _______ _______ _______ _____ _____    ______ ____

>  <TORSDO>
F 2

$$$$
=
 OpenBabel10262420513D

 28 32  0  0  1  0  0  0  0  0999 V2000
  183.6280  179.3910  139.6310 C   0  0  1  0  0  3  0  0  0  0  0  0
  186.7680  177.8030  142.8820 C   0  0  0  0  0  3  0  0  0  0  0  0
  180.7490  179.2420  143.0480 O   0  0  0  0  0  1  0  0  0  0  0  0
  185.4530  178.4030  144.8350 C   0  0  0  0  0  0  0  0  0  0  0  0
  184.3930  178.5790  142.5280 C   0  0  1  0  0  3  0  0  0  0  0  0
  187.7590  177.6960  145.0850 C   0  0  0  0  0  0  0  0  0  0  0  0
  185.5430  178.2060  143.4360 C   0  0  0  0  0  0  0  0  0  0  0  0
  183.2280  179.5270  144.5170 C   0  0  0  0  0  2  0  0  0  0  0  0
  186.5570  178.1270  145.6490 C   0  0  0  0  0  3  0  0  0  0  0  0
  181.8220  178.3240  141.1090 C   0  0  1  0  0  3  0  0  0  0  0  0
  184.2480  177.6220  141.3440 C   0  0  0  0  0  2  0  0  0  0  0  0
  184.1690  178.8260  145.4920 C   0  0  0  0  0  2  0  0  0  0  0  0
  181.2270  179.4020  138.8440 C   0  0  0  0  0  2  0  0  0  0  0  0
  181.9640  179.2080  142.3590 C   0  0  2  0  0  3  0  0  0  0  0  0
  180.7170  178.8670  140.1840 C   0  0  0  0  0  2  0  0  0  0  0  0
  189.1360  177.3590  146.1130 Cl  0  0  0  0  0  0  0  0  0  0  0  0
  187.8670  177.5400  143.7010 C   0  0  0  0  0  3  0  0  0  0  0  0
  183.0570  178.6580  143.2780 C   0  0  1  0  0  3  0  0  0  0  0  0
  182.4900  180.2320  139.0380 C   0  0  0  0  0  2  0  0  0  0  0  0
  183.1700  178.1230  140.3810 C   0  0  2  0  0  3  0  0  0  0  0  0
  184.8180  179.1580  138.6720 C   0  0  0  0  0  2  0  0  0  0  0  0
  185.0290  177.7880  138.1740 N   0  0  0  0  0  0  0  0  0  0  0  0
  186.4500  176.6000  136.6650 C   0  0  0  0  0  0  0  0  0  0  0  0
  186.4250  177.5860  137.8110 C   0  0  0  0  0  2  0  0  0  0  0  0
  184.2320  177.4890  136.9900 C   0  0  0  0  0  2  0  0  0  0  0  0
  185.0510  176.5770  136.0990 C   0  0  0  0  0  2  0  0  0  0  0  0
  187.3600  177.0140  135.6920 O   0  0  0  0  0  1  0  0  0  0  0  0
  186.7970  175.3320  137.1310 O   0  0  0  0  0  1  0  0  0  0  0  0
  1 21  1  6  0  0  0
  1 20  1  0  0  0  0
  2  7  2  0  0  0  0
  2 17  1  0  0  0  0
  4 12  1  0  0  0  0
  4  9  2  0  0  0  0
  5 11  1  6  0  0  0
  5 18  1  0  0  0  0
  5  7  1  0  0  0  0
  6  9  1  0  0  0  0
  6 16  1  0  0  0  0
  7  4  1  0  0  0  0
  8 12  1  0  0  0  0
 10 15  1  6  0  0  0
 10 14  1  0  0  0  0
 13 19  1  0  0  0  0
 13 15  1  0  0  0  0
 14  3  1  1  0  0  0
 14 18  1  0  0  0  0
 17  6  2  0  0  0  0
 18  8  1  1  0  0  0
 19  1  1  0  0  0  0
 20 10  1  0  0  0  0
 20 11  1  1  0  0  0
 22 21  1  0  0  0  0
 23 28  1  0  0  0  0
 23 24  1  0  0  0  0
 24 22  1  0  0  0  0
 25 22  1  0  0  0  0
 26 23  1  0  0  0  0
 26 25  1  0  0  0  0
 27 23  1  0  0  0  0
M  END
>  <MODEL>
8

>  <REMARK>
 VINA RESULT:      -8.6      3.641      6.237
  Name = 
  2 active torsions:
  status: ('A' for Active; 'I' for Inactive)
    1  A    between atoms: C_1  and  C_2
    2  A    between atoms: C_2  and  N_3
                            x       y       z     vdW  Elec       q    Type
                         _______ _______ _______ _____ _____    ______ ____

>  <TORSDO>
F 2

$$$$
=
 OpenBabel10262420513D

 28 32  0  0  1  0  0  0  0  0999 V2000
  189.1510  177.2120  140.8380 C   0  0  1  0  0  3  0  0  0  0  0  0
  184.7750  178.7620  142.0230 C   0  0  0  0  0  3  0  0  0  0  0  0
  189.9280  177.5390  145.2290 O   0  0  0  0  0  1  0  0  0  0  0  0
  184.9470  178.2520  144.3920 C   0  0  0  0  0  0  0  0  0  0  0  0
  187.0230  178.0620  142.9330 C   0  0  1  0  0  3  0  0  0  0  0  0
  182.8120  178.8830  143.4300 C   0  0  0  0  0  0  0  0  0  0  0  0
  185.5650  178.4140  143.1290 C   0  0  0  0  0  0  0  0  0  0  0  0
  187.0520  177.2010  145.2710 C   0  0  0  0  0  2  0  0  0  0  0  0
  183.5780  178.5080  144.5350 C   0  0  0  0  0  3  0  0  0  0  0  0
  189.9530  178.3750  142.9810 C   0  0  1  0  0  3  0  0  0  0  0  0
  187.7220  178.9960  141.9450 C   0  0  0  0  0  2  0  0  0  0  0  0
  185.7370  177.8900  145.6190 C   0  0  0  0  0  2  0  0  0  0  0  0
  191.6230  177.2670  141.3570 C   0  0  0  0  0  2  0  0  0  0  0  0
  189.2210  177.5150  144.0230 C   0  0  2  0  0  3  0  0  0  0  0  0
  191.3830  177.8490  142.7520 C   0  0  0  0  0  2  0  0  0  0  0  0
  181.1000  179.1950  143.6180 Cl  0  0  0  0  0  0  0  0  0  0  0  0
  183.4090  179.0040  142.1730 C   0  0  0  0  0  3  0  0  0  0  0  0
  187.8040  178.0470  144.2520 C   0  0  1  0  0  3  0  0  0  0  0  0
  190.4490  176.3980  140.9250 C   0  0  0  0  0  2  0  0  0  0  0  0
  189.1470  178.5120  141.6690 C   0  0  2  0  0  3  0  0  0  0  0  0
  188.5960  177.3800  139.4040 C   0  0  0  0  0  2  0  0  0  0  0  0
  189.2290  176.5870  138.3360 N   0  0  0  0  0  0  0  0  0  0  0  0
  189.7820  176.7700  136.0190 C   0  0  0  0  0  0  0  0  0  0  0  0
  189.8680  177.4600  137.3620 C   0  0  0  0  0  2  0  0  0  0  0  0
  188.2740  175.7600  137.6080 C   0  0  0  0  0  2  0  0  0  0  0  0
  188.7160  175.7110  136.1590 C   0  0  0  0  0  2  0  0  0  0  0  0
  189.4290  177.6860  135.0290 O   0  0  0  0  0  1  0  0  0  0  0  0
  191.0050  176.1790  135.7050 O   0  0  0  0  0  1  0  0  0  0  0  0
  1 21  1  6  0  0  0
  1 19  1  0  0  0  0
  1 20  1  0  0  0  0
  2 17  2  0  0  0  0
  2  7  1  0  0  0  0
  4  9  1  0  0  0  0
  4 12  1  0  0  0  0
  5 11  1  6  0  0  0
  5  7  1  0  0  0  0
  5 18  1  0  0  0  0
  6 16  1  0  0  0  0
  6  9  2  0  0  0  0
  7  4  2  0  0  0  0
  8 12  1  0  0  0  0
 10 15  1  6  0  0  0
 10 14  1  0  0  0  0
 13 15  1  0  0  0  0
 14 18  1  0  0  0  0
 14  3  1  1  0  0  0
 17  6  1  0  0  0  0
 18  8  1  1  0  0  0
 19 13  1  0  0  0  0
 20 11  1  1  0  0  0
 20 10  1  0  0  0  0
 22 21  1  0  0  0  0
 23 26  1  0  0  0  0
 23 24  1  0  0  0  0
 24 22  1  0  0  0  0
 25 22  1  0  0  0  0
 26 25  1  0  0  0  0
 27 23  1  0  0  0  0
 28 23  1  0  0  0  0
M  END
>  <MODEL>
9

>  <REMARK>
 VINA RESULT:      -8.5      3.709      6.268
  Name = 
  2 active torsions:
  status: ('A' for Active; 'I' for Inactive)
    1  A    between atoms: C_1  and  C_2
    2  A    between atoms: C_2  and  N_3
                            x       y       z     vdW  Elec       q    Type
                         _______ _______ _______ _____ _____    ______ ____

>  <TORSDO>
F 2

$$$$
