=
 OpenBabel10262421003D

 32 38  0  0  1  0  0  0  0  0999 V2000
  184.2420  178.1900  142.5670 C   0  0  2  0  0  3  0  0  0  0  0  0
  186.7430  177.9890  142.9840 C   0  0  0  0  0  0  0  0  0  0  0  0
  183.2030  179.2120  143.0090 C   0  0  0  0  0  2  0  0  0  0  0  0
  185.4420  178.2070  143.4810 C   0  0  0  0  0  0  0  0  0  0  0  0
  187.8020  177.7390  143.8890 C   0  0  0  0  0  0  0  0  0  0  0  0
  189.8450  177.1630  139.2150 C   0  0  0  0  0  2  0  0  0  0  0  0
  187.0010  178.0530  141.5990 C   0  0  0  0  0  0  0  0  0  0  0  0
  190.7030  177.0720  141.5470 C   0  0  0  0  0  2  0  0  0  0  0  0
  189.3300  177.4640  142.0180 C   0  0  0  0  0  0  0  0  0  0  0  0
  185.2320  178.3430  144.8660 C   0  0  0  0  0  0  0  0  0  0  0  0
  189.0780  177.4570  143.3900 C   0  0  0  0  0  3  0  0  0  0  0  0
  186.2930  178.1380  145.7500 C   0  0  0  0  0  3  0  0  0  0  0  0
  183.9290  178.8720  145.4130 C   0  0  0  0  0  2  0  0  0  0  0  0
  185.9430  178.5990  140.6780 C   0  0  0  0  0  2  0  0  0  0  0  0
  184.5580  178.0820  141.0610 C   0  0  2  0  0  3  0  0  0  0  0  0
  188.2910  177.7680  141.1100 C   0  0  0  0  0  0  0  0  0  0  0  0
  187.5640  177.8010  145.2770 C   0  0  0  0  0  0  0  0  0  0  0  0
  182.7610  178.8200  144.4170 C   0  0  0  0  0  2  0  0  0  0  0  0
  190.9930  177.5570  140.1310 C   0  0  0  0  0  2  0  0  0  0  0  0
  188.5840  177.9090  139.6340 C   0  0  0  0  0  2  0  0  0  0  0  0
  182.2810  177.4510  137.9130 C   0  0  2  0  0  3  0  0  0  0  0  0
  181.1050  180.4100  136.9270 O   0  0  0  0  0  1  0  0  0  0  0  0
  183.6190  176.7760  138.2100 C   0  0  0  0  0  2  0  0  0  0  0  0
  182.6420  180.5260  138.7490 C   0  0  0  0  0  2  0  0  0  0  0  0
  183.4370  178.5480  140.1200 C   0  0  1  0  0  3  0  0  0  0  0  0
  182.5420  178.6630  137.2540 O   0  0  0  0  0  0  0  0  0  0  0  0
  183.8520  179.7660  139.2880 C   0  0  0  0  0  2  0  0  0  0  0  0
  182.8150  177.3530  139.3520 C   0  0  1  0  0  0  0  0  0  0  0  0
  182.1240  176.2870  140.1810 C   0  0  0  0  0  1  0  0  0  0  0  0
  181.7560  179.6340  137.8850 C   0  0  2  0  0  3  0  0  0  0  0  0
  188.6460  177.5390  146.2750 C   0  0  0  0  0  2  0  0  0  0  0  0
  188.0890  177.0460  147.4540 O   0  0  0  0  0  1  0  0  0  0  0  0
  1  3  1  6  0  0  0
  1  4  1  0  0  0  0
  2  4  2  0  0  0  0
  2  5  1  0  0  0  0
  3 18  1  0  0  0  0
  4 10  1  0  0  0  0
  5 17  2  0  0  0  0
  6 20  1  0  0  0  0
  6 19  1  0  0  0  0
  7  2  1  0  0  0  0
  8  9  1  0  0  0  0
  9 11  2  0  0  0  0
 10 13  1  0  0  0  0
 10 12  2  0  0  0  0
 11  5  1  0  0  0  0
 14  7  1  0  0  0  0
 15 14  1  1  0  0  0
 15  1  1  0  0  0  0
 16  7  2  0  0  0  0
 16  9  1  0  0  0  0
 17 12  1  0  0  0  0
 17 31  1  0  0  0  0
 18 13  1  0  0  0  0
 19  8  1  0  0  0  0
 20 16  1  0  0  0  0
 21 23  1  6  0  0  0
 21 28  1  0  0  0  0
 23 28  1  0  0  0  0
 24 27  1  0  0  0  0
 25 27  1  6  0  0  0
 25 15  1  0  0  0  0
 26 30  1  0  0  0  0
 26 21  1  0  0  0  0
 28 25  1  0  0  0  0
 28 29  1  1  0  0  0
 30 22  1  6  0  0  0
 30 24  1  0  0  0  0
 31 32  1  0  0  0  0
M  END
>  <MODEL>
1

>  <REMARK>
 VINA RESULT:     -10.6      0.000      0.000
  Name = 
  2 active torsions:
  status: ('A' for Active; 'I' for Inactive)
    1  A    between atoms: C_13  and  C_29
    2  A    between atoms: C_16  and  C_27
                            x       y       z     vdW  Elec       q    Type
                         _______ _______ _______ _____ _____    ______ ____

>  <TORSDO>
F 2

$$$$
=
 OpenBabel10262421003D

 32 38  0  0  1  0  0  0  0  0999 V2000
  186.9270  178.5750  145.2520 C   0  0  2  0  0  3  0  0  0  0  0  0
  185.7100  178.4520  143.0220 C   0  0  0  0  0  0  0  0  0  0  0  0
  186.7810  177.7910  146.5490 C   0  0  0  0  0  2  0  0  0  0  0  0
  185.6640  178.5020  144.4290 C   0  0  0  0  0  0  0  0  0  0  0  0
  184.5240  178.6600  142.2770 C   0  0  0  0  0  0  0  0  0  0  0  0
  188.2690  178.2840  138.7870 C   0  0  0  0  0  2  0  0  0  0  0  0
  186.9180  178.1630  142.3540 C   0  0  0  0  0  0  0  0  0  0  0  0
  185.7980  178.5600  138.7120 C   0  0  0  0  0  2  0  0  0  0  0  0
  185.7880  178.4460  140.2120 C   0  0  0  0  0  0  0  0  0  0  0  0
  184.4240  178.5880  145.0900 C   0  0  0  0  0  0  0  0  0  0  0  0
  184.5850  178.6760  140.8800 C   0  0  0  0  0  3  0  0  0  0  0  0
  183.2540  178.7480  144.3460 C   0  0  0  0  0  3  0  0  0  0  0  0
  184.3080  178.3400  146.5740 C   0  0  0  0  0  2  0  0  0  0  0  0
  188.0950  177.6630  143.1470 C   0  0  0  0  0  2  0  0  0  0  0  0
  188.2420  178.4290  144.4590 C   0  0  2  0  0  3  0  0  0  0  0  0
  186.9650  178.1810  140.9460 C   0  0  0  0  0  0  0  0  0  0  0  0
  183.2970  178.8220  142.9510 C   0  0  0  0  0  0  0  0  0  0  0  0
  185.6390  178.4320  147.3330 C   0  0  0  0  0  2  0  0  0  0  0  0
  186.9920  177.8490  138.0840 C   0  0  0  0  0  2  0  0  0  0  0  0
  188.2410  177.7990  140.2320 C   0  0  0  0  0  2  0  0  0  0  0  0
  191.9390  177.0890  144.6290 C   0  0  2  0  0  3  0  0  0  0  0  0
  192.4040  175.8380  147.6830 O   0  0  0  0  0  1  0  0  0  0  0  0
  190.9780  176.9420  143.4500 C   0  0  0  0  0  2  0  0  0  0  0  0
  190.1800  176.5960  147.2640 C   0  0  0  0  0  2  0  0  0  0  0  0
  189.4660  178.0150  145.2890 C   0  0  1  0  0  3  0  0  0  0  0  0
  191.7070  176.0250  145.5140 O   0  0  0  0  0  0  0  0  0  0  0  0
  189.2090  176.7360  146.0930 C   0  0  0  0  0  2  0  0  0  0  0  0
  190.7630  178.0630  144.4410 C   0  0  1  0  0  0  0  0  0  0  0  0
  191.1810  179.4150  143.8970 C   0  0  0  0  0  1  0  0  0  0  0  0
  191.6310  176.5850  146.7950 C   0  0  2  0  0  3  0  0  0  0  0  0
  182.0160  179.0510  142.2140 C   0  0  0  0  0  2  0  0  0  0  0  0
  181.1550  179.8220  142.9930 O   0  0  0  0  0  1  0  0  0  0  0  0
  1  3  1  1  0  0  0
  2  4  2  0  0  0  0
  3 18  1  0  0  0  0
  4 10  1  0  0  0  0
  4  1  1  0  0  0  0
  5 17  2  0  0  0  0
  5  2  1  0  0  0  0
  6 20  1  0  0  0  0
  7  2  1  0  0  0  0
  7 14  1  0  0  0  0
  8  9  1  0  0  0  0
  9 11  2  0  0  0  0
  9 16  1  0  0  0  0
 10 13  1  0  0  0  0
 11  5  1  0  0  0  0
 12 10  2  0  0  0  0
 13 18  1  0  0  0  0
 15 14  1  6  0  0  0
 15  1  1  0  0  0  0
 15 25  1  0  0  0  0
 16  7  2  0  0  0  0
 17 12  1  0  0  0  0
 19  8  1  0  0  0  0
 19  6  1  0  0  0  0
 20 16  1  0  0  0  0
 21 23  1  6  0  0  0
 21 26  1  0  0  0  0
 23 28  1  0  0  0  0
 25 27  1  6  0  0  0
 26 30  1  0  0  0  0
 27 24  1  0  0  0  0
 28 29  1  6  0  0  0
 28 21  1  0  0  0  0
 28 25  1  0  0  0  0
 30 24  1  0  0  0  0
 30 22  1  1  0  0  0
 31 17  1  0  0  0  0
 31 32  1  0  0  0  0
M  END
>  <MODEL>
2

>  <REMARK>
 VINA RESULT:     -10.1      2.474      7.316
  Name = 
  2 active torsions:
  status: ('A' for Active; 'I' for Inactive)
    1  A    between atoms: C_13  and  C_29
    2  A    between atoms: C_16  and  C_27
                            x       y       z     vdW  Elec       q    Type
                         _______ _______ _______ _____ _____    ______ ____

>  <TORSDO>
F 2

$$$$
=
 OpenBabel10262421003D

 32 38  0  0  1  0  0  0  0  0999 V2000
  182.8290  178.2140  142.1210 C   0  0  2  0  0  3  0  0  0  0  0  0
  185.1290  178.3420  143.1990 C   0  0  0  0  0  0  0  0  0  0  0  0
  181.6390  179.1640  142.1170 C   0  0  0  0  0  2  0  0  0  0  0  0
  183.7300  178.4780  143.3020 C   0  0  0  0  0  0  0  0  0  0  0  0
  185.9160  178.3270  144.3750 C   0  0  0  0  0  0  0  0  0  0  0  0
  189.1920  177.3860  140.5360 C   0  0  0  0  0  2  0  0  0  0  0  0
  185.7500  178.2560  141.9360 C   0  0  0  0  0  0  0  0  0  0  0  0
  189.3850  177.6870  142.9980 C   0  0  0  0  0  2  0  0  0  0  0  0
  187.9120  177.9840  143.0300 C   0  0  0  0  0  0  0  0  0  0  0  0
  183.1410  178.7660  144.5470 C   0  0  0  0  0  0  0  0  0  0  0  0
  187.2960  178.1240  144.2740 C   0  0  0  0  0  3  0  0  0  0  0  0
  183.9320  178.7920  145.6970 C   0  0  0  0  0  3  0  0  0  0  0  0
  181.7040  179.2140  144.6500 C   0  0  0  0  0  2  0  0  0  0  0  0
  184.9470  178.5620  140.7000 C   0  0  0  0  0  2  0  0  0  0  0  0
  183.5510  177.9500  140.7840 C   0  0  2  0  0  3  0  0  0  0  0  0
  187.1410  178.0540  141.8480 C   0  0  0  0  0  0  0  0  0  0  0  0
  185.3050  178.5390  145.6270 C   0  0  0  0  0  0  0  0  0  0  0  0
  180.8590  178.9090  143.4040 C   0  0  0  0  0  2  0  0  0  0  0  0
  190.0150  178.0160  141.6480 C   0  0  0  0  0  2  0  0  0  0  0  0
  187.8140  178.0370  140.4950 C   0  0  0  0  0  2  0  0  0  0  0  0
  182.4740  176.8160  137.1710 C   0  0  2  0  0  3  0  0  0  0  0  0
  181.1360  179.4650  135.6540 O   0  0  0  0  0  1  0  0  0  0  0  0
  183.7600  176.4210  137.8960 C   0  0  0  0  0  2  0  0  0  0  0  0
  182.0090  179.9200  137.8280 C   0  0  0  0  0  2  0  0  0  0  0  0
  182.6990  178.1670  139.5240 C   0  0  1  0  0  3  0  0  0  0  0  0
  182.6980  178.0400  136.5220 O   0  0  0  0  0  0  0  0  0  0  0  0
  183.1180  179.4240  138.7540 C   0  0  0  0  0  2  0  0  0  0  0  0
  182.5600  176.8560  138.7070 C   0  0  1  0  0  0  0  0  0  0  0  0
  181.8570  175.6950  139.3810 C   0  0  0  0  0  1  0  0  0  0  0  0
  181.5980  178.8530  136.8190 C   0  0  2  0  0  3  0  0  0  0  0  0
  186.0890  178.5260  146.9000 C   0  0  0  0  0  2  0  0  0  0  0  0
  185.8860  179.7210  147.5900 O   0  0  0  0  0  1  0  0  0  0  0  0
  1  3  1  6  0  0  0
  1  4  1  0  0  0  0
  2  4  2  0  0  0  0
  2  5  1  0  0  0  0
  3 18  1  0  0  0  0
  4 10  1  0  0  0  0
  5 17  2  0  0  0  0
  6 19  1  0  0  0  0
  7  2  1  0  0  0  0
  8  9  1  0  0  0  0
  9 11  2  0  0  0  0
 10 13  1  0  0  0  0
 10 12  2  0  0  0  0
 11  5  1  0  0  0  0
 14  7  1  0  0  0  0
 15 14  1  6  0  0  0
 15  1  1  0  0  0  0
 16  7  2  0  0  0  0
 16  9  1  0  0  0  0
 17 12  1  0  0  0  0
 17 31  1  0  0  0  0
 18 13  1  0  0  0  0
 19  8  1  0  0  0  0
 20  6  1  0  0  0  0
 20 16  1  0  0  0  0
 21 23  1  6  0  0  0
 21 28  1  0  0  0  0
 23 28  1  0  0  0  0
 24 27  1  0  0  0  0
 25 27  1  6  0  0  0
 25 15  1  0  0  0  0
 26 30  1  0  0  0  0
 26 21  1  0  0  0  0
 28 29  1  1  0  0  0
 28 25  1  0  0  0  0
 30 22  1  6  0  0  0
 30 24  1  0  0  0  0
 31 32  1  0  0  0  0
M  END
>  <MODEL>
3

>  <REMARK>
 VINA RESULT:      -9.0      1.212      1.756
  Name = 
  2 active torsions:
  status: ('A' for Active; 'I' for Inactive)
    1  A    between atoms: C_13  and  C_29
    2  A    between atoms: C_16  and  C_27
                            x       y       z     vdW  Elec       q    Type
                         _______ _______ _______ _____ _____    ______ ____

>  <TORSDO>
F 2

$$$$
=
 OpenBabel10262421003D

 32 38  0  0  1  0  0  0  0  0999 V2000
  183.4860  178.4680  142.0530 C   0  0  2  0  0  3  0  0  0  0  0  0
  186.0140  178.2140  141.9310 C   0  0  0  0  0  0  0  0  0  0  0  0
  182.5830  179.4090  142.8370 C   0  0  0  0  0  2  0  0  0  0  0  0
  184.8430  178.3520  142.7030 C   0  0  0  0  0  0  0  0  0  0  0  0
  187.2240  177.8360  142.5610 C   0  0  0  0  0  0  0  0  0  0  0  0
  188.2890  177.9630  137.5410 C   0  0  0  0  0  2  0  0  0  0  0  0
  185.9960  178.4830  140.5470 C   0  0  0  0  0  0  0  0  0  0  0  0
  189.5870  177.5300  139.6180 C   0  0  0  0  0  2  0  0  0  0  0  0
  188.3450  177.8450  140.4040 C   0  0  0  0  0  0  0  0  0  0  0  0
  184.9140  178.2810  144.1060 C   0  0  0  0  0  0  0  0  0  0  0  0
  188.3680  177.6340  141.7820 C   0  0  0  0  0  3  0  0  0  0  0  0
  186.1220  177.9500  144.7230 C   0  0  0  0  0  3  0  0  0  0  0  0
  183.7580  178.7190  144.9730 C   0  0  0  0  0  2  0  0  0  0  0  0
  184.7920  179.1560  139.9440 C   0  0  0  0  0  2  0  0  0  0  0  0
  183.4970  178.5850  140.5160 C   0  0  2  0  0  3  0  0  0  0  0  0
  187.1560  178.2770  139.7750 C   0  0  0  0  0  0  0  0  0  0  0  0
  187.2660  177.6910  143.9620 C   0  0  0  0  0  0  0  0  0  0  0  0
  182.4170  178.8120  144.2330 C   0  0  0  0  0  2  0  0  0  0  0  0
  189.6050  178.2210  138.2580 C   0  0  0  0  0  2  0  0  0  0  0  0
  187.1560  178.6360  138.3070 C   0  0  0  0  0  2  0  0  0  0  0  0
  180.2610  178.1500  138.3170 C   0  0  2  0  0  3  0  0  0  0  0  0
  179.3290  181.1860  137.3070 O   0  0  0  0  0  1  0  0  0  0  0  0
  181.4940  177.2490  138.2960 C   0  0  0  0  0  2  0  0  0  0  0  0
  181.3660  181.1510  138.5500 C   0  0  0  0  0  2  0  0  0  0  0  0
  182.2250  179.1810  139.8950 C   0  0  1  0  0  3  0  0  0  0  0  0
  180.4900  179.2220  137.4410 O   0  0  0  0  0  0  0  0  0  0  0  0
  182.5440  180.2150  138.8090 C   0  0  0  0  0  2  0  0  0  0  0  0
  181.2030  178.0720  139.5300 C   0  0  1  0  0  0  0  0  0  0  0  0
  180.6510  177.2420  140.6720 C   0  0  0  0  0  1  0  0  0  0  0  0
  180.1170  180.3820  138.1300 C   0  0  2  0  0  3  0  0  0  0  0  0
  188.5150  177.2870  144.6760 C   0  0  0  0  0  2  0  0  0  0  0  0
  188.8640  178.2670  145.6050 O   0  0  0  0  0  1  0  0  0  0  0  0
  1  4  1  0  0  0  0
  1  3  1  1  0  0  0
  2  5  1  0  0  0  0
  2  4  2  0  0  0  0
  3 18  1  0  0  0  0
  4 10  1  0  0  0  0
  5 17  2  0  0  0  0
  6 19  1  0  0  0  0
  6 20  1  0  0  0  0
  7  2  1  0  0  0  0
  8  9  1  0  0  0  0
  9 11  2  0  0  0  0
 10 12  2  0  0  0  0
 10 13  1  0  0  0  0
 11  5  1  0  0  0  0
 14  7  1  0  0  0  0
 15 14  1  1  0  0  0
 15  1  1  0  0  0  0
 16  9  1  0  0  0  0
 16  7  2  0  0  0  0
 17 31  1  0  0  0  0
 17 12  1  0  0  0  0
 18 13  1  0  0  0  0
 19  8  1  0  0  0  0
 20 16  1  0  0  0  0
 21 23  1  6  0  0  0
 21 28  1  0  0  0  0
 23 28  1  0  0  0  0
 24 27  1  0  0  0  0
 25 27  1  6  0  0  0
 25 15  1  0  0  0  0
 26 30  1  0  0  0  0
 26 21  1  0  0  0  0
 28 25  1  0  0  0  0
 28 29  1  1  0  0  0
 30 22  1  6  0  0  0
 30 24  1  0  0  0  0
 31 32  1  0  0  0  0
M  END
>  <MODEL>
4

>  <REMARK>
 VINA RESULT:      -8.9      1.300      1.675
  Name = 
  2 active torsions:
  status: ('A' for Active; 'I' for Inactive)
    1  A    between atoms: C_13  and  C_29
    2  A    between atoms: C_16  and  C_27
                            x       y       z     vdW  Elec       q    Type
                         _______ _______ _______ _____ _____    ______ ____

>  <TORSDO>
F 2

$$$$
=
 OpenBabel10262421003D

 32 38  0  0  1  0  0  0  0  0999 V2000
  187.5430  178.6140  141.5700 C   0  0  2  0  0  3  0  0  0  0  0  0
  188.2710  177.7940  139.2750 C   0  0  0  0  0  0  0  0  0  0  0  0
  186.3640  178.2570  142.4640 C   0  0  0  0  0  2  0  0  0  0  0  0
  187.2560  178.2670  140.1290 C   0  0  0  0  0  0  0  0  0  0  0  0
  188.0400  177.7390  137.8800 C   0  0  0  0  0  0  0  0  0  0  0  0
  192.9600  176.4080  138.4920 C   0  0  0  0  0  2  0  0  0  0  0  0
  189.5000  177.3430  139.8020 C   0  0  0  0  0  0  0  0  0  0  0  0
  191.4000  176.5920  136.5630 C   0  0  0  0  0  2  0  0  0  0  0  0
  190.3090  176.9380  137.5380 C   0  0  0  0  0  0  0  0  0  0  0  0
  185.9690  178.5200  139.6190 C   0  0  0  0  0  0  0  0  0  0  0  0
  189.0730  177.3330  137.0290 C   0  0  0  0  0  3  0  0  0  0  0  0
  185.7370  178.4210  138.2460 C   0  0  0  0  0  3  0  0  0  0  0  0
  184.7900  178.7310  140.5360 C   0  0  0  0  0  2  0  0  0  0  0  0
  189.6300  177.1340  141.2870 C   0  0  0  0  0  2  0  0  0  0  0  0
  188.9610  178.2650  142.0640 C   0  0  2  0  0  3  0  0  0  0  0  0
  190.5310  176.9350  138.9340 C   0  0  0  0  0  0  0  0  0  0  0  0
  186.7680  178.0700  137.3700 C   0  0  0  0  0  0  0  0  0  0  0  0
  185.1710  179.0790  141.9820 C   0  0  0  0  0  2  0  0  0  0  0  0
  192.5030  175.7520  137.1980 C   0  0  0  0  0  2  0  0  0  0  0  0
  191.8180  176.3840  139.5010 C   0  0  0  0  0  2  0  0  0  0  0  0
  191.2240  177.5770  145.2110 C   0  0  2  0  0  3  0  0  0  0  0  0
  189.2020  176.7570  147.7300 O   0  0  0  0  0  1  0  0  0  0  0  0
  191.5200  177.1480  143.7750 C   0  0  0  0  0  2  0  0  0  0  0  0
  188.0850  177.0890  145.6470 C   0  0  0  0  0  2  0  0  0  0  0  0
  189.1140  178.1500  143.5880 C   0  0  1  0  0  3  0  0  0  0  0  0
  190.4180  176.5920  145.8020 O   0  0  0  0  0  0  0  0  0  0  0  0
  188.3610  176.9400  144.1530 C   0  0  0  0  0  2  0  0  0  0  0  0
  190.5950  178.3190  144.0190 C   0  0  1  0  0  0  0  0  0  0  0  0
  191.2490  179.6540  143.7250 C   0  0  0  0  0  1  0  0  0  0  0  0
  189.3730  177.2670  146.4440 C   0  0  2  0  0  3  0  0  0  0  0  0
  186.4720  178.0350  135.9050 C   0  0  0  0  0  2  0  0  0  0  0  0
  185.5350  177.0390  135.6370 O   0  0  0  0  0  1  0  0  0  0  0  0
  1 15  1  0  0  0  0
  1  3  1  1  0  0  0
  2  7  1  0  0  0  0
  2  4  2  0  0  0  0
  4  1  1  0  0  0  0
  5  2  1  0  0  0  0
  6 20  1  0  0  0  0
  7 14  1  0  0  0  0
  8 19  1  0  0  0  0
  8  9  1  0  0  0  0
  9 16  1  0  0  0  0
 10  4  1  0  0  0  0
 10 13  1  0  0  0  0
 11  9  2  0  0  0  0
 11  5  1  0  0  0  0
 12 10  2  0  0  0  0
 13 18  1  0  0  0  0
 15 14  1  6  0  0  0
 15 25  1  0  0  0  0
 16 20  1  0  0  0  0
 16  7  2  0  0  0  0
 17  5  2  0  0  0  0
 17 12  1  0  0  0  0
 18  3  1  0  0  0  0
 19  6  1  0  0  0  0
 21 23  1  6  0  0  0
 21 26  1  0  0  0  0
 23 28  1  0  0  0  0
 24 30  1  0  0  0  0
 25 28  1  0  0  0  0
 25 27  1  6  0  0  0
 26 30  1  0  0  0  0
 27 24  1  0  0  0  0
 28 29  1  6  0  0  0
 28 21  1  0  0  0  0
 30 22  1  1  0  0  0
 31 17  1  0  0  0  0
 32 31  1  0  0  0  0
M  END
>  <MODEL>
5

>  <REMARK>
 VINA RESULT:      -8.8      2.372      7.478
  Name = 
  2 active torsions:
  status: ('A' for Active; 'I' for Inactive)
    1  A    between atoms: C_13  and  C_29
    2  A    between atoms: C_16  and  C_27
                            x       y       z     vdW  Elec       q    Type
                         _______ _______ _______ _____ _____    ______ ____

>  <TORSDO>
F 2

$$$$
=
 OpenBabel10262421003D

 32 38  0  0  1  0  0  0  0  0999 V2000
  185.1780  177.8760  144.0860 C   0  0  2  0  0  3  0  0  0  0  0  0
  187.5550  177.9530  143.1840 C   0  0  0  0  0  0  0  0  0  0  0  0
  184.4280  178.7440  145.0860 C   0  0  0  0  0  2  0  0  0  0  0  0
  186.6700  177.9900  144.2800 C   0  0  0  0  0  0  0  0  0  0  0  0
  188.9420  177.7870  143.4130 C   0  0  0  0  0  0  0  0  0  0  0  0
  188.3870  177.6820  138.3110 C   0  0  0  0  0  2  0  0  0  0  0  0
  187.0740  178.1130  141.8680 C   0  0  0  0  0  0  0  0  0  0  0  0
  190.3080  177.5810  139.8870 C   0  0  0  0  0  2  0  0  0  0  0  0
  189.3340  177.7850  141.0140 C   0  0  0  0  0  0  0  0  0  0  0  0
  187.1770  178.0340  145.5920 C   0  0  0  0  0  0  0  0  0  0  0  0
  189.8100  177.6820  142.3210 C   0  0  0  0  0  3  0  0  0  0  0  0
  188.5510  177.9140  145.8070 C   0  0  0  0  0  3  0  0  0  0  0  0
  186.2910  178.3780  146.7640 C   0  0  0  0  0  2  0  0  0  0  0  0
  185.6570  178.5740  141.6540 C   0  0  0  0  0  2  0  0  0  0  0  0
  184.7000  177.8780  142.6200 C   0  0  2  0  0  3  0  0  0  0  0  0
  187.9590  178.0070  140.7770 C   0  0  0  0  0  0  0  0  0  0  0  0
  189.4320  177.7540  144.7340 C   0  0  0  0  0  0  0  0  0  0  0  0
  184.7880  178.2360  146.4800 C   0  0  0  0  0  2  0  0  0  0  0  0
  189.8050  178.1650  138.5710 C   0  0  0  0  0  2  0  0  0  0  0  0
  187.4550  178.2530  139.3740 C   0  0  0  0  0  2  0  0  0  0  0  0
  181.8150  179.1530  140.2630 C   0  0  2  0  0  3  0  0  0  0  0  0
  179.3800  180.3230  142.2150 O   0  0  0  0  0  1  0  0  0  0  0  0
  183.3150  179.3430  140.0400 C   0  0  0  0  0  2  0  0  0  0  0  0
  181.3270  179.6120  143.3990 C   0  0  0  0  0  2  0  0  0  0  0  0
  183.2250  178.2530  142.4120 C   0  0  1  0  0  3  0  0  0  0  0  0
  181.3610  180.1990  141.0810 O   0  0  0  0  0  0  0  0  0  0  0  0
  182.8360  179.5170  143.1870 C   0  0  0  0  0  2  0  0  0  0  0  0
  182.8380  178.2030  140.9100 C   0  0  1  0  0  0  0  0  0  0  0  0
  182.9340  176.8580  140.2190 C   0  0  0  0  0  1  0  0  0  0  0  0
  180.5700  179.6100  142.0750 C   0  0  2  0  0  3  0  0  0  0  0  0
  190.8860  177.5740  145.0320 C   0  0  0  0  0  2  0  0  0  0  0  0
  191.0410  176.7530  146.1480 O   0  0  0  0  0  1  0  0  0  0  0  0
  1  4  1  0  0  0  0
  1  3  1  1  0  0  0
  2  5  1  0  0  0  0
  2  4  2  0  0  0  0
  3 18  1  0  0  0  0
  4 10  1  0  0  0  0
  5 17  2  0  0  0  0
  6 19  1  0  0  0  0
  6 20  1  0  0  0  0
  7  2  1  0  0  0  0
  8  9  1  0  0  0  0
  9 11  2  0  0  0  0
 10 12  2  0  0  0  0
 10 13  1  0  0  0  0
 11  5  1  0  0  0  0
 14  7  1  0  0  0  0
 15 14  1  6  0  0  0
 15  1  1  0  0  0  0
 16  9  1  0  0  0  0
 16  7  2  0  0  0  0
 17 31  1  0  0  0  0
 17 12  1  0  0  0  0
 18 13  1  0  0  0  0
 19  8  1  0  0  0  0
 20 16  1  0  0  0  0
 21 23  1  6  0  0  0
 21 28  1  0  0  0  0
 21 26  1  0  0  0  0
 23 28  1  0  0  0  0
 25 15  1  0  0  0  0
 25 27  1  6  0  0  0
 26 30  1  0  0  0  0
 27 24  1  0  0  0  0
 28 29  1  6  0  0  0
 28 25  1  0  0  0  0
 30 22  1  1  0  0  0
 30 24  1  0  0  0  0
 31 32  1  0  0  0  0
M  END
>  <MODEL>
6

>  <REMARK>
 VINA RESULT:      -8.7      1.778      2.600
  Name = 
  2 active torsions:
  status: ('A' for Active; 'I' for Inactive)
    1  A    between atoms: C_13  and  C_29
    2  A    between atoms: C_16  and  C_27
                            x       y       z     vdW  Elec       q    Type
                         _______ _______ _______ _____ _____    ______ ____

>  <TORSDO>
F 2

$$$$
=
 OpenBabel10262421003D

 32 38  0  0  1  0  0  0  0  0999 V2000
  189.7680  177.8320  142.1690 C   0  0  2  0  0  3  0  0  0  0  0  0
  187.4740  177.9510  143.2620 C   0  0  0  0  0  0  0  0  0  0  0  0
  190.8710  176.7840  142.2030 C   0  0  0  0  0  2  0  0  0  0  0  0
  188.8560  177.7000  143.3650 C   0  0  0  0  0  0  0  0  0  0  0  0
  186.7000  178.0860  144.4400 C   0  0  0  0  0  0  0  0  0  0  0  0
  183.4870  179.1350  140.5760 C   0  0  0  0  0  2  0  0  0  0  0  0
  186.8520  178.0340  141.9980 C   0  0  0  0  0  0  0  0  0  0  0  0
  183.2880  178.9610  143.0490 C   0  0  0  0  0  2  0  0  0  0  0  0
  184.7310  178.5400  143.0880 C   0  0  0  0  0  0  0  0  0  0  0  0
  189.4280  177.4180  144.6190 C   0  0  0  0  0  0  0  0  0  0  0  0
  185.3420  178.4020  144.3350 C   0  0  0  0  0  3  0  0  0  0  0  0
  188.6470  177.5100  145.7720 C   0  0  0  0  0  3  0  0  0  0  0  0
  190.8220  176.8520  144.7360 C   0  0  0  0  0  2  0  0  0  0  0  0
  187.6150  177.6050  140.7740 C   0  0  0  0  0  2  0  0  0  0  0  0
  189.0600  178.0980  140.8250 C   0  0  2  0  0  3  0  0  0  0  0  0
  185.4830  178.3510  141.9070 C   0  0  0  0  0  0  0  0  0  0  0  0
  187.3010  177.8780  145.6970 C   0  0  0  0  0  0  0  0  0  0  0  0
  191.6810  177.0270  143.4750 C   0  0  0  0  0  2  0  0  0  0  0  0
  182.6210  178.6280  141.7180 C   0  0  0  0  0  2  0  0  0  0  0  0
  184.8030  178.3660  140.5580 C   0  0  0  0  0  2  0  0  0  0  0  0
  189.2020  177.2040  136.9940 C   0  0  2  0  0  3  0  0  0  0  0  0
  192.1310  175.7180  136.4270 O   0  0  0  0  0  1  0  0  0  0  0  0
  187.9880  177.0620  137.9100 C   0  0  0  0  0  2  0  0  0  0  0  0
  191.7260  176.2390  138.7210 C   0  0  0  0  0  2  0  0  0  0  0  0
  189.8800  177.7530  139.5730 C   0  0  1  0  0  3  0  0  0  0  0  0
  189.9730  176.0360  137.1080 O   0  0  0  0  0  0  0  0  0  0  0  0
  190.5480  176.3780  139.6820 C   0  0  0  0  0  2  0  0  0  0  0  0
  189.0770  178.0430  138.2770 C   0  0  1  0  0  0  0  0  0  0  0  0
  188.6810  179.4830  138.0210 C   0  0  0  0  0  1  0  0  0  0  0  0
  191.2990  176.4520  137.2720 C   0  0  2  0  0  3  0  0  0  0  0  0
  186.5310  178.0140  146.9710 C   0  0  0  0  0  2  0  0  0  0  0  0
  187.4110  178.2210  148.0330 O   0  0  0  0  0  1  0  0  0  0  0  0
  1  3  1  6  0  0  0
  1  4  1  0  0  0  0
  2  4  2  0  0  0  0
  2  5  1  0  0  0  0
  3 18  1  0  0  0  0
  4 10  1  0  0  0  0
  5 17  2  0  0  0  0
  6 19  1  0  0  0  0
  7  2  1  0  0  0  0
  8  9  1  0  0  0  0
  9 11  2  0  0  0  0
 10 13  1  0  0  0  0
 10 12  2  0  0  0  0
 11  5  1  0  0  0  0
 14  7  1  0  0  0  0
 15 14  1  1  0  0  0
 15  1  1  0  0  0  0
 16  7  2  0  0  0  0
 16  9  1  0  0  0  0
 17 12  1  0  0  0  0
 17 31  1  0  0  0  0
 18 13  1  0  0  0  0
 19  8  1  0  0  0  0
 20  6  1  0  0  0  0
 20 16  1  0  0  0  0
 21 26  1  0  0  0  0
 21 23  1  1  0  0  0
 21 28  1  0  0  0  0
 23 28  1  0  0  0  0
 24 27  1  0  0  0  0
 25 27  1  1  0  0  0
 25 15  1  0  0  0  0
 26 30  1  0  0  0  0
 28 29  1  6  0  0  0
 28 25  1  0  0  0  0
 30 22  1  6  0  0  0
 30 24  1  0  0  0  0
 31 32  1  0  0  0  0
M  END
>  <MODEL>
7

>  <REMARK>
 VINA RESULT:      -8.3      2.697      6.176
  Name = 
  2 active torsions:
  status: ('A' for Active; 'I' for Inactive)
    1  A    between atoms: C_13  and  C_29
    2  A    between atoms: C_16  and  C_27
                            x       y       z     vdW  Elec       q    Type
                         _______ _______ _______ _____ _____    ______ ____

>  <TORSDO>
F 2

$$$$
=
 OpenBabel10262421003D

 32 38  0  0  1  0  0  0  0  0999 V2000
  185.3190  178.6990  138.9510 C   0  0  2  0  0  3  0  0  0  0  0  0
  186.2770  178.3180  141.2760 C   0  0  0  0  0  0  0  0  0  0  0  0
  185.3360  177.8610  137.6800 C   0  0  0  0  0  2  0  0  0  0  0  0
  186.4420  178.3040  139.8770 C   0  0  0  0  0  0  0  0  0  0  0  0
  187.4120  178.2110  142.1140 C   0  0  0  0  0  0  0  0  0  0  0  0
  183.4570  179.0220  145.2840 C   0  0  0  0  0  2  0  0  0  0  0  0
  184.9890  178.4030  141.8440 C   0  0  0  0  0  0  0  0  0  0  0  0
  185.8920  178.5970  145.5610 C   0  0  0  0  0  2  0  0  0  0  0  0
  185.9850  178.4320  144.0690 C   0  0  0  0  0  0  0  0  0  0  0  0
  187.7030  178.0160  139.3210 C   0  0  0  0  0  0  0  0  0  0  0  0
  187.2510  178.2940  143.5010 C   0  0  0  0  0  3  0  0  0  0  0  0
  188.8100  177.8680  140.1570 C   0  0  0  0  0  3  0  0  0  0  0  0
  187.8580  177.6940  137.8550 C   0  0  0  0  0  2  0  0  0  0  0  0
  183.7820  178.2250  140.9620 C   0  0  0  0  0  2  0  0  0  0  0  0
  183.9590  178.9560  139.6330 C   0  0  2  0  0  3  0  0  0  0  0  0
  184.8400  178.4830  143.2430 C   0  0  0  0  0  0  0  0  0  0  0  0
  188.6840  178.0000  141.5430 C   0  0  0  0  0  0  0  0  0  0  0  0
  186.6690  178.1280  136.9860 C   0  0  0  0  0  2  0  0  0  0  0  0
  184.5020  178.2720  146.0960 C   0  0  0  0  0  2  0  0  0  0  0  0
  183.4580  178.4990  143.8530 C   0  0  0  0  0  2  0  0  0  0  0  0
  180.2500  179.9780  138.8010 C   0  0  2  0  0  3  0  0  0  0  0  0
  179.0400  177.7010  136.6900 O   0  0  0  0  0  1  0  0  0  0  0  0
  180.9200  180.0480  140.1720 C   0  0  0  0  0  2  0  0  0  0  0  0
  181.2460  177.2360  137.4720 C   0  0  0  0  0  2  0  0  0  0  0  0
  182.7360  178.8720  138.7080 C   0  0  1  0  0  3  0  0  0  0  0  0
  179.7370  178.6830  138.6320 O   0  0  0  0  0  0  0  0  0  0  0  0
  182.1060  177.4750  138.7110 C   0  0  0  0  0  2  0  0  0  0  0  0
  181.7800  180.0740  138.9300 C   0  0  1  0  0  0  0  0  0  0  0  0
  182.3270  181.4540  138.6230 C   0  0  0  0  0  1  0  0  0  0  0  0
  180.1280  178.2660  137.3550 C   0  0  2  0  0  3  0  0  0  0  0  0
  189.9160  177.8870  142.3820 C   0  0  0  0  0  2  0  0  0  0  0  0
  190.4290  176.5930  142.2930 O   0  0  0  0  0  1  0  0  0  0  0  0
  1  3  1  6  0  0  0
  1 15  1  0  0  0  0
  1  4  1  0  0  0  0
  2  7  2  0  0  0  0
  2  5  1  0  0  0  0
  4  2  1  0  0  0  0
  5 11  2  0  0  0  0
  6 19  1  0  0  0  0
  7 16  1  0  0  0  0
  8 19  1  0  0  0  0
  9  8  1  0  0  0  0
 10  4  2  0  0  0  0
 10 12  1  0  0  0  0
 11  9  1  0  0  0  0
 12 17  2  0  0  0  0
 13 10  1  0  0  0  0
 14  7  1  0  0  0  0
 15 14  1  1  0  0  0
 16 20  1  0  0  0  0
 16  9  2  0  0  0  0
 17  5  1  0  0  0  0
 17 31  1  0  0  0  0
 18  3  1  0  0  0  0
 18 13  1  0  0  0  0
 20  6  1  0  0  0  0
 21 28  1  0  0  0  0
 21 23  1  1  0  0  0
 24 27  1  0  0  0  0
 25 27  1  1  0  0  0
 25 28  1  0  0  0  0
 25 15  1  0  0  0  0
 26 21  1  0  0  0  0
 28 29  1  6  0  0  0
 28 23  1  0  0  0  0
 30 22  1  1  0  0  0
 30 24  1  0  0  0  0
 30 26  1  0  0  0  0
 32 31  1  0  0  0  0
M  END
>  <MODEL>
8

>  <REMARK>
 VINA RESULT:      -8.3      1.806      4.911
  Name = 
  2 active torsions:
  status: ('A' for Active; 'I' for Inactive)
    1  A    between atoms: C_13  and  C_29
    2  A    between atoms: C_16  and  C_27
                            x       y       z     vdW  Elec       q    Type
                         _______ _______ _______ _____ _____    ______ ____

>  <TORSDO>
F 2

$$$$
=
 OpenBabel10262421003D

 32 38  0  0  1  0  0  0  0  0999 V2000
  186.2600  178.7650  140.5870 C   0  0  2  0  0  3  0  0  0  0  0  0
  188.4670  177.7230  141.3020 C   0  0  0  0  0  0  0  0  0  0  0  0
  185.1480  178.2880  139.6640 C   0  0  0  0  0  2  0  0  0  0  0  0
  187.5590  178.0610  140.2800 C   0  0  0  0  0  0  0  0  0  0  0  0
  189.7810  177.3180  140.9640 C   0  0  0  0  0  0  0  0  0  0  0  0
  189.7170  177.5630  146.0910 C   0  0  0  0  0  2  0  0  0  0  0  0
  188.0670  177.7510  142.6550 C   0  0  0  0  0  0  0  0  0  0  0  0
  191.3860  176.9040  144.3690 C   0  0  0  0  0  2  0  0  0  0  0  0
  190.3270  177.1270  143.3250 C   0  0  0  0  0  0  0  0  0  0  0  0
  187.9010  177.8360  138.9330 C   0  0  0  0  0  0  0  0  0  0  0  0
  190.6990  177.0480  141.9830 C   0  0  0  0  0  3  0  0  0  0  0  0
  189.1850  177.3950  138.6100 C   0  0  0  0  0  3  0  0  0  0  0  0
  186.8630  177.8970  137.8400 C   0  0  0  0  0  2  0  0  0  0  0  0
  186.6060  177.8970  142.9860 C   0  0  0  0  0  2  0  0  0  0  0  0
  185.9380  178.9340  142.0860 C   0  0  2  0  0  3  0  0  0  0  0  0
  189.0020  177.4740  143.6720 C   0  0  0  0  0  0  0  0  0  0  0  0
  190.1370  177.1710  139.6080 C   0  0  0  0  0  0  0  0  0  0  0  0
  185.5720  178.6280  138.2380 C   0  0  0  0  0  2  0  0  0  0  0  0
  190.7950  176.5530  145.7300 C   0  0  0  0  0  2  0  0  0  0  0  0
  188.5540  177.4320  145.1140 C   0  0  0  0  0  2  0  0  0  0  0  0
  183.0140  179.0580  144.7180 C   0  0  2  0  0  3  0  0  0  0  0  0
  180.1490  178.8060  143.0350 O   0  0  0  0  0  1  0  0  0  0  0  0
  184.3380  178.3100  144.8730 C   0  0  0  0  0  2  0  0  0  0  0  0
  182.1010  178.6130  141.6770 C   0  0  0  0  0  2  0  0  0  0  0  0
  184.4580  179.1830  142.4140 C   0  0  1  0  0  3  0  0  0  0  0  0
  182.1180  178.2200  144.0350 O   0  0  0  0  0  0  0  0  0  0  0  0
  183.5430  178.1230  141.7910 C   0  0  0  0  0  2  0  0  0  0  0  0
  184.2600  179.4830  143.9230 C   0  0  1  0  0  0  0  0  0  0  0  0
  184.9310  180.7270  144.4720 C   0  0  0  0  0  1  0  0  0  0  0  0
  181.5290  179.0030  143.0360 C   0  0  2  0  0  3  0  0  0  0  0  0
  191.5120  176.7530  139.1960 C   0  0  0  0  0  2  0  0  0  0  0  0
  191.4800  175.4500  138.7000 O   0  0  0  0  0  1  0  0  0  0  0  0
  1  3  1  6  0  0  0
  1 15  1  0  0  0  0
  2  7  1  0  0  0  0
  4  1  1  0  0  0  0
  4  2  1  0  0  0  0
  5  2  2  0  0  0  0
  5 11  1  0  0  0  0
  7 14  1  0  0  0  0
  7 16  2  0  0  0  0
  8 19  1  0  0  0  0
  9 16  1  0  0  0  0
  9  8  1  0  0  0  0
 10  4  2  0  0  0  0
 11  9  2  0  0  0  0
 12 10  1  0  0  0  0
 12 17  2  0  0  0  0
 13 18  1  0  0  0  0
 13 10  1  0  0  0  0
 15 25  1  0  0  0  0
 15 14  1  1  0  0  0
 16 20  1  0  0  0  0
 17  5  1  0  0  0  0
 18  3  1  0  0  0  0
 19  6  1  0  0  0  0
 20  6  1  0  0  0  0
 21 23  1  1  0  0  0
 24 27  1  0  0  0  0
 24 30  1  0  0  0  0
 25 27  1  1  0  0  0
 25 28  1  0  0  0  0
 26 21  1  0  0  0  0
 28 29  1  1  0  0  0
 28 21  1  0  0  0  0
 28 23  1  0  0  0  0
 30 22  1  6  0  0  0
 30 26  1  0  0  0  0
 31 17  1  0  0  0  0
 32 31  1  0  0  0  0
M  END
>  <MODEL>
9

>  <REMARK>
 VINA RESULT:      -8.2      2.700      5.362
  Name = 
  2 active torsions:
  status: ('A' for Active; 'I' for Inactive)
    1  A    between atoms: C_13  and  C_29
    2  A    between atoms: C_16  and  C_27
                            x       y       z     vdW  Elec       q    Type
                         _______ _______ _______ _____ _____    ______ ____

>  <TORSDO>
F 2

$$$$
