=
 OpenBabel10262423343D

 34 39  0  0  1  0  0  0  0  0999 V2000
  188.0220  177.1940  145.5330 C   0  0  2  0  0  3  0  0  0  0  0  0
  191.4890  177.1210  144.2520 C   0  0  0  0  0  3  0  0  0  0  0  0
  190.7740  176.8520  146.5230 C   0  0  0  0  0  2  0  0  0  0  0  0
  185.8620  178.3340  146.1950 C   0  0  0  0  0  0  0  0  0  0  0  0
  186.5520  177.3340  145.2500 C   0  0  0  0  0  2  0  0  0  0  0  0
  187.6180  178.0130  147.7900 C   0  0  0  0  0  0  0  0  0  0  0  0
  188.4330  178.4760  148.8110 C   0  0  0  0  0  3  0  0  0  0  0  0
  186.3870  178.6090  147.3640 N   0  0  0  0  0  0  0  0  0  0  0  0
  189.6600  177.2770  147.3610 N   0  0  0  0  0  0  0  0  0  0  0  0
  188.3960  177.3130  146.9300 C   0  0  0  0  0  0  0  0  0  0  0  0
  189.7100  177.9910  148.5060 C   0  0  0  0  0  3  0  0  0  0  0  0
  191.5880  177.2730  142.8000 C   0  0  0  0  0  3  0  0  0  0  0  0
  190.6530  177.1750  141.8480 C   0  0  0  0  0  0  0  0  0  0  0  0
  189.2320  176.8440  142.0730 C   0  0  0  0  0  3  0  0  0  0  0  0
  190.4260  177.0240  145.0450 C   0  0  1  0  0  3  0  0  0  0  0  0
  188.5440  176.8210  143.2070 C   0  0  0  0  0  3  0  0  0  0  0  0
  188.9820  177.0740  144.5900 C   0  0  0  0  0  0  0  0  0  0  0  0
  191.0880  177.4100  140.4580 C   0  0  0  0  0  0  0  0  0  0  0  0
  190.1550  177.6290  139.4470 O   0  0  0  0  0  0  0  0  0  0  0  0
  192.3190  177.3900  140.1670 O   0  0  0  0  0  1  0  0  0  0  0  0
  184.6760  178.9880  145.8340 O   0  0  0  0  0  0  0  0  0  0  0  0
  182.0480  178.7350  143.2540 C   0  0  0  0  0  3  0  0  0  0  0  0
  184.8050  179.1490  143.3820 C   0  0  0  0  0  3  0  0  0  0  0  0
  182.6940  178.3250  139.7020 N   0  0  0  0  0  0  0  0  0  0  0  0
  184.2310  179.1390  139.4110 P   0  0  2  0  0  0  0  0  0  0  0  0
  182.0220  179.0310  140.7860 C   0  0  0  0  0  2  0  0  0  0  0  0
  185.1080  178.2880  138.5170 O   0  0  0  0  0  0  0  0  0  0  0  0
  182.7810  178.8950  142.0750 C   0  0  0  0  0  0  0  0  0  0  0  0
  181.8980  178.4490  138.4990 C   0  0  0  0  0  1  0  0  0  0  0  0
  184.9600  179.2110  140.9680 O   0  0  0  0  0  0  0  0  0  0  0  0
  184.1820  179.0800  142.1320 C   0  0  0  0  0  0  0  0  0  0  0  0
  184.0440  180.7000  138.7850 O   0  0  0  0  0  1  0  0  0  0  0  0
  184.0750  178.9720  144.5660 C   0  0  0  0  0  0  0  0  0  0  0  0
  182.7010  178.7470  144.4930 C   0  0  0  0  0  3  0  0  0  0  0  0
  1  5  1  6  0  0  0
  1 10  1  0  0  0  0
  3  9  1  0  0  0  0
  4  8  2  0  0  0  0
  5  4  1  0  0  0  0
  6  7  1  0  0  0  0
  8  6  1  0  0  0  0
  9 11  1  0  0  0  0
 10  9  1  0  0  0  0
 10  6  2  0  0  0  0
 11  7  2  0  0  0  0
 12  2  2  0  0  0  0
 13 14  2  0  0  0  0
 13 12  1  0  0  0  0
 14 16  1  0  0  0  0
 15  2  1  1  0  0  0
 15  3  1  0  0  0  0
 16 17  2  0  0  0  0
 17 15  1  0  0  0  0
 17  1  1  0  0  0  0
 18 13  1  0  0  0  0
 19 18  2  0  0  0  0
 20 18  1  0  0  0  0
 21  4  1  0  0  0  0
 22 34  1  0  0  0  0
 23 33  1  0  0  0  0
 24 26  1  0  0  0  0
 25 27  2  6  0  0  0
 25 24  1  0  0  0  0
 25 30  1  0  0  0  0
 26 28  1  0  0  0  0
 28 31  1  0  0  0  0
 28 22  2  0  0  0  0
 29 24  1  0  0  0  0
 30 31  1  0  0  0  0
 31 23  2  0  0  0  0
 32 25  1  0  0  0  0
 33 21  1  0  0  0  0
 34 33  2  0  0  0  0
M  END
>  <MODEL>
1

>  <REMARK>
 VINA RESULT:     -12.4      0.000      0.000
  Name = 
  3 active torsions:
  status: ('A' for Active; 'I' for Inactive)
    1  A    between atoms: C_3  and  C_25
    2  A    between atoms: C_8  and  O_18
    3  A    between atoms: O_18  and  C_30
                            x       y       z     vdW  Elec       q    Type
                         _______ _______ _______ _____ _____    ______ ____

>  <TORSDO>
F 3

$$$$
=
 OpenBabel10262423343D

 34 39  0  0  1  0  0  0  0  0999 V2000
  188.0370  177.1690  145.4700 C   0  0  2  0  0  3  0  0  0  0  0  0
  191.5310  177.0900  144.2660 C   0  0  0  0  0  3  0  0  0  0  0  0
  190.7640  176.7930  146.5160 C   0  0  0  0  0  2  0  0  0  0  0  0
  185.8700  178.3140  146.1010 C   0  0  0  0  0  0  0  0  0  0  0  0
  186.5750  177.3230  145.1570 C   0  0  0  0  0  2  0  0  0  0  0  0
  187.5880  177.9580  147.7300 C   0  0  0  0  0  0  0  0  0  0  0  0
  188.3840  178.4000  148.7750 C   0  0  0  0  0  3  0  0  0  0  0  0
  186.3710  178.5680  147.2860 N   0  0  0  0  0  0  0  0  0  0  0  0
  189.6340  177.2140  147.3360 N   0  0  0  0  0  0  0  0  0  0  0  0
  188.3810  177.2650  146.8770 C   0  0  0  0  0  0  0  0  0  0  0  0
  189.6640  177.9110  148.4920 C   0  0  0  0  0  3  0  0  0  0  0  0
  191.6630  177.2620  142.8190 C   0  0  0  0  0  3  0  0  0  0  0  0
  190.7480  177.1840  141.8450 C   0  0  0  0  0  0  0  0  0  0  0  0
  189.3210  176.8600  142.0340 C   0  0  0  0  0  3  0  0  0  0  0  0
  190.4500  176.9890  145.0340 C   0  0  1  0  0  3  0  0  0  0  0  0
  188.6080  176.8250  143.1520 C   0  0  0  0  0  3  0  0  0  0  0  0
  189.0170  177.0560  144.5480 C   0  0  0  0  0  0  0  0  0  0  0  0
  191.2160  177.4360  140.4680 C   0  0  0  0  0  0  0  0  0  0  0  0
  190.3070  177.6560  139.4370 O   0  0  0  0  0  0  0  0  0  0  0  0
  192.4540  177.4300  140.2080 O   0  0  0  0  0  1  0  0  0  0  0  0
  184.6980  178.9820  145.7240 O   0  0  0  0  0  0  0  0  0  0  0  0
  184.1760  178.3790  142.1190 C   0  0  0  0  0  3  0  0  0  0  0  0
  182.6550  179.0740  144.3540 C   0  0  0  0  0  3  0  0  0  0  0  0
  181.1600  179.2820  140.3050 N   0  0  0  0  0  0  0  0  0  0  0  0
  179.8540  179.1630  141.4830 P   0  0  2  0  0  0  0  0  0  0  0  0
  182.1660  178.2880  140.6610 C   0  0  0  0  0  2  0  0  0  0  0  0
  178.9310  180.3560  141.3570 O   0  0  0  0  0  0  0  0  0  0  0  0
  182.8050  178.6120  141.9810 C   0  0  0  0  0  0  0  0  0  0  0  0
  180.6120  178.9490  139.0080 C   0  0  0  0  0  1  0  0  0  0  0  0
  180.6580  179.2640  143.0010 O   0  0  0  0  0  0  0  0  0  0  0  0
  182.0330  178.9880  143.1050 C   0  0  0  0  0  0  0  0  0  0  0  0
  178.9980  177.7070  141.3760 O   0  0  0  0  0  1  0  0  0  0  0  0
  184.0340  178.8580  144.4940 C   0  0  0  0  0  0  0  0  0  0  0  0
  184.7900  178.5290  143.3690 C   0  0  0  0  0  3  0  0  0  0  0  0
  1  5  1  6  0  0  0
  1 10  1  0  0  0  0
  3  9  1  0  0  0  0
  4  8  2  0  0  0  0
  5  4  1  0  0  0  0
  6  7  1  0  0  0  0
  8  6  1  0  0  0  0
  9 11  1  0  0  0  0
 10  9  1  0  0  0  0
 10  6  2  0  0  0  0
 11  7  2  0  0  0  0
 12  2  2  0  0  0  0
 13 14  2  0  0  0  0
 13 12  1  0  0  0  0
 14 16  1  0  0  0  0
 15  2  1  1  0  0  0
 15  3  1  0  0  0  0
 16 17  2  0  0  0  0
 17 15  1  0  0  0  0
 17  1  1  0  0  0  0
 18 13  1  0  0  0  0
 19 18  2  0  0  0  0
 20 18  1  0  0  0  0
 21  4  1  0  0  0  0
 22 34  1  0  0  0  0
 23 33  1  0  0  0  0
 24 26  1  0  0  0  0
 24 25  1  0  0  0  0
 25 27  2  6  0  0  0
 25 30  1  0  0  0  0
 26 28  1  0  0  0  0
 28 22  2  0  0  0  0
 28 31  1  0  0  0  0
 29 24  1  0  0  0  0
 30 31  1  0  0  0  0
 31 23  2  0  0  0  0
 32 25  1  0  0  0  0
 33 21  1  0  0  0  0
 34 33  2  0  0  0  0
M  END
>  <MODEL>
2

>  <REMARK>
 VINA RESULT:     -11.7      1.915      2.217
  Name = 
  3 active torsions:
  status: ('A' for Active; 'I' for Inactive)
    1  A    between atoms: C_3  and  C_25
    2  A    between atoms: C_8  and  O_18
    3  A    between atoms: O_18  and  C_30
                            x       y       z     vdW  Elec       q    Type
                         _______ _______ _______ _____ _____    ______ ____

>  <TORSDO>
F 3

$$$$
=
 OpenBabel10262423343D

 34 39  0  0  1  0  0  0  0  0999 V2000
  187.6970  177.3470  143.5010 C   0  0  2  0  0  3  0  0  0  0  0  0
  188.1250  177.5130  147.1700 C   0  0  0  0  0  3  0  0  0  0  0  0
  186.0820  177.7200  145.9360 C   0  0  0  0  0  2  0  0  0  0  0  0
  187.8710  178.2510  141.1450 C   0  0  0  0  0  0  0  0  0  0  0  0
  188.3170  177.1690  142.1440 C   0  0  0  0  0  2  0  0  0  0  0  0
  185.9120  178.6390  142.4650 C   0  0  0  0  0  0  0  0  0  0  0  0
  184.9160  179.4730  142.9480 C   0  0  0  0  0  3  0  0  0  0  0  0
  186.7450  178.8980  141.3290 N   0  0  0  0  0  0  0  0  0  0  0  0
  185.6610  178.1590  144.6100 N   0  0  0  0  0  0  0  0  0  0  0  0
  186.3460  177.8780  143.4990 C   0  0  0  0  0  0  0  0  0  0  0  0
  184.7870  179.1410  144.3020 C   0  0  0  0  0  3  0  0  0  0  0  0
  189.5030  177.3020  147.6150 C   0  0  0  0  0  2  0  0  0  0  0  0
  190.5640  176.8140  146.9640 C   0  0  0  0  0  0  0  0  0  0  0  0
  190.5650  176.3250  145.5710 C   0  0  0  0  0  3  0  0  0  0  0  0
  187.5850  177.4510  145.9550 C   0  0  0  0  0  0  0  0  0  0  0  0
  189.6480  176.4810  144.6260 C   0  0  0  0  0  3  0  0  0  0  0  0
  188.3360  177.1480  144.6750 C   0  0  0  0  0  0  0  0  0  0  0  0
  191.8360  176.7530  147.7100 C   0  0  0  0  0  0  0  0  0  0  0  0
  192.7950  175.7910  147.4040 O   0  0  0  0  0  0  0  0  0  0  0  0
  192.0550  177.5630  148.6560 O   0  0  0  0  0  1  0  0  0  0  0  0
  188.6500  178.5900  140.0310 O   0  0  0  0  0  0  0  0  0  0  0  0
  189.4790  175.9140  137.6270 C   0  0  0  0  0  3  0  0  0  0  0  0
  190.8230  177.6780  139.3200 C   0  0  0  0  0  3  0  0  0  0  0  0
  192.7490  174.3550  137.3410 N   0  0  0  0  0  0  0  0  0  0  0  0
  193.9030  175.6050  137.8000 P   0  0  2  0  0  0  0  0  0  0  0  0
  191.6100  175.0160  136.7150 C   0  0  0  0  0  2  0  0  0  0  0  0
  194.9580  175.0270  138.7190 O   0  0  0  0  0  1  0  0  0  0  0  0
  190.8740  175.8780  137.7010 C   0  0  0  0  0  0  0  0  0  0  0  0
  193.3910  173.5030  136.3620 C   0  0  0  0  0  1  0  0  0  0  0  0
  192.9600  176.7250  138.7040 O   0  0  0  0  0  0  0  0  0  0  0  0
  191.5600  176.7530  138.5750 C   0  0  0  0  0  0  0  0  0  0  0  0
  194.6030  176.3800  136.4680 O   0  0  0  0  0  0  0  0  0  0  0  0
  189.4220  177.7060  139.2610 C   0  0  0  0  0  0  0  0  0  0  0  0
  188.7570  176.8090  138.4260 C   0  0  0  0  0  3  0  0  0  0  0  0
  1  5  1  6  0  0  0
  1 17  1  0  0  0  0
  2 12  1  0  0  0  0
  3 15  1  0  0  0  0
  4  8  2  0  0  0  0
  4  5  1  0  0  0  0
  6  7  1  0  0  0  0
  6 10  2  0  0  0  0
  7 11  2  0  0  0  0
  8  6  1  0  0  0  0
  9  3  1  0  0  0  0
 10  1  1  0  0  0  0
 10  9  1  0  0  0  0
 11  9  1  0  0  0  0
 13 12  1  0  0  0  0
 13 18  1  0  0  0  0
 14 13  2  0  0  0  0
 15  2  2  0  0  0  0
 16 17  2  0  0  0  0
 16 14  1  0  0  0  0
 17 15  1  0  0  0  0
 18 20  1  0  0  0  0
 19 18  2  0  0  0  0
 21  4  1  0  0  0  0
 22 28  2  0  0  0  0
 22 34  1  0  0  0  0
 24 25  1  0  0  0  0
 25 32  2  6  0  0  0
 25 30  1  0  0  0  0
 25 27  1  0  0  0  0
 26 24  1  0  0  0  0
 26 28  1  0  0  0  0
 28 31  1  0  0  0  0
 29 24  1  0  0  0  0
 31 30  1  0  0  0  0
 31 23  2  0  0  0  0
 33 23  1  0  0  0  0
 33 21  1  0  0  0  0
 34 33  2  0  0  0  0
M  END
>  <MODEL>
3

>  <REMARK>
 VINA RESULT:     -10.9      3.971      7.488
  Name = 
  3 active torsions:
  status: ('A' for Active; 'I' for Inactive)
    1  A    between atoms: C_3  and  C_25
    2  A    between atoms: C_8  and  O_18
    3  A    between atoms: O_18  and  C_30
                            x       y       z     vdW  Elec       q    Type
                         _______ _______ _______ _____ _____    ______ ____

>  <TORSDO>
F 3

$$$$
=
 OpenBabel10262423343D

 34 39  0  0  1  0  0  0  0  0999 V2000
  187.0330  177.5930  142.8000 C   0  0  2  0  0  3  0  0  0  0  0  0
  185.5680  178.4590  146.0820 C   0  0  0  0  0  3  0  0  0  0  0  0
  184.4200  178.2510  143.9900 C   0  0  0  0  0  2  0  0  0  0  0  0
  188.3740  178.0680  140.7080 C   0  0  0  0  0  0  0  0  0  0  0  0
  188.2480  177.2300  141.9930 C   0  0  0  0  0  2  0  0  0  0  0  0
  186.0220  178.5070  140.7820 C   0  0  0  0  0  0  0  0  0  0  0  0
  184.9290  179.3200  140.5320 C   0  0  0  0  0  3  0  0  0  0  0  0
  187.3160  178.6310  140.1790 N   0  0  0  0  0  0  0  0  0  0  0  0
  184.7250  178.4020  142.5710 N   0  0  0  0  0  0  0  0  0  0  0  0
  185.8710  177.9880  142.0250 C   0  0  0  0  0  0  0  0  0  0  0  0
  184.1340  179.2280  141.6810 C   0  0  0  0  0  3  0  0  0  0  0  0
  186.5340  178.4600  147.1810 C   0  0  0  0  0  2  0  0  0  0  0  0
  187.7740  177.9600  147.2520 C   0  0  0  0  0  0  0  0  0  0  0  0
  188.4660  177.2300  146.1720 C   0  0  0  0  0  3  0  0  0  0  0  0
  185.7080  178.1290  144.8010 C   0  0  0  0  0  0  0  0  0  0  0  0
  188.1480  177.1270  144.8880 C   0  0  0  0  0  3  0  0  0  0  0  0
  186.9960  177.6690  144.1480 C   0  0  0  0  0  0  0  0  0  0  0  0
  188.4990  178.1530  148.5220 C   0  0  0  0  0  0  0  0  0  0  0  0
  189.8640  178.4300  148.5270 O   0  0  0  0  0  0  0  0  0  0  0  0
  187.8890  178.0420  149.6240 O   0  0  0  0  0  1  0  0  0  0  0  0
  189.6110  178.2690  140.0810 O   0  0  0  0  0  0  0  0  0  0  0  0
  190.2070  175.5330  137.6750 C   0  0  0  0  0  3  0  0  0  0  0  0
  191.7020  177.2090  139.3320 C   0  0  0  0  0  3  0  0  0  0  0  0
  193.3580  173.7550  137.3320 N   0  0  0  0  0  0  0  0  0  0  0  0
  194.6040  174.9260  137.7610 P   0  0  2  0  0  0  0  0  0  0  0  0
  192.2540  174.4900  136.7250 C   0  0  0  0  0  2  0  0  0  0  0  0
  195.6350  174.2810  138.6610 O   0  0  0  0  0  1  0  0  0  0  0  0
  191.5980  175.4040  137.7210 C   0  0  0  0  0  0  0  0  0  0  0  0
  193.9200  172.8580  136.3450 C   0  0  0  0  0  1  0  0  0  0  0  0
  193.7570  176.1100  138.6780 O   0  0  0  0  0  0  0  0  0  0  0  0
  192.3600  176.2330  138.5770 C   0  0  0  0  0  0  0  0  0  0  0  0
  195.3270  175.6460  136.4120 O   0  0  0  0  0  0  0  0  0  0  0  0
  190.3060  177.3320  139.3010 C   0  0  0  0  0  0  0  0  0  0  0  0
  189.5650  176.4780  138.4840 C   0  0  0  0  0  3  0  0  0  0  0  0
  1  5  1  6  0  0  0
  1 17  1  0  0  0  0
  2 12  1  0  0  0  0
  3 15  1  0  0  0  0
  4  5  1  0  0  0  0
  6 10  2  0  0  0  0
  7  6  1  0  0  0  0
  7 11  2  0  0  0  0
  8  4  2  0  0  0  0
  8  6  1  0  0  0  0
  9  3  1  0  0  0  0
 10  9  1  0  0  0  0
 10  1  1  0  0  0  0
 11  9  1  0  0  0  0
 12 13  1  0  0  0  0
 13 18  1  0  0  0  0
 14 13  2  0  0  0  0
 15  2  2  0  0  0  0
 16 14  1  0  0  0  0
 17 15  1  0  0  0  0
 17 16  2  0  0  0  0
 18 19  2  0  0  0  0
 18 20  1  0  0  0  0
 21  4  1  0  0  0  0
 22 28  2  0  0  0  0
 22 34  1  0  0  0  0
 24 25  1  0  0  0  0
 25 32  2  6  0  0  0
 25 27  1  0  0  0  0
 25 30  1  0  0  0  0
 26 24  1  0  0  0  0
 26 28  1  0  0  0  0
 28 31  1  0  0  0  0
 29 24  1  0  0  0  0
 31 30  1  0  0  0  0
 31 23  2  0  0  0  0
 33 23  1  0  0  0  0
 33 21  1  0  0  0  0
 34 33  2  0  0  0  0
M  END
>  <MODEL>
4

>  <REMARK>
 VINA RESULT:     -10.1      4.000      8.481
  Name = 
  3 active torsions:
  status: ('A' for Active; 'I' for Inactive)
    1  A    between atoms: C_3  and  C_25
    2  A    between atoms: C_8  and  O_18
    3  A    between atoms: O_18  and  C_30
                            x       y       z     vdW  Elec       q    Type
                         _______ _______ _______ _____ _____    ______ ____

>  <TORSDO>
F 3

$$$$
=
 OpenBabel10262423343D

 34 39  0  0  1  0  0  0  0  0999 V2000
  188.6790  176.9350  143.6240 C   0  0  2  0  0  3  0  0  0  0  0  0
  191.4350  177.1700  141.1720 C   0  0  0  0  0  3  0  0  0  0  0  0
  191.5740  176.4240  143.4440 C   0  0  0  0  0  2  0  0  0  0  0  0
  186.9850  177.8860  145.2460 C   0  0  0  0  0  0  0  0  0  0  0  0
  187.2190  177.1140  143.9350 C   0  0  0  0  0  2  0  0  0  0  0  0
  189.1740  177.2600  145.9860 C   0  0  0  0  0  0  0  0  0  0  0  0
  190.3320  177.5090  146.7060 C   0  0  0  0  0  3  0  0  0  0  0  0
  187.9150  177.9170  146.1700 N   0  0  0  0  0  0  0  0  0  0  0  0
  190.8690  176.6530  144.7000 N   0  0  0  0  0  0  0  0  0  0  0  0
  189.5400  176.7630  144.7800 C   0  0  0  0  0  0  0  0  0  0  0  0
  191.3780  177.1130  145.8630 C   0  0  0  0  0  3  0  0  0  0  0  0
  191.0110  177.6230  139.8460 C   0  0  0  0  0  3  0  0  0  0  0  0
  189.7910  177.7150  139.3060 C   0  0  0  0  0  0  0  0  0  0  0  0
  188.5290  177.3280  139.9670 C   0  0  0  0  0  3  0  0  0  0  0  0
  190.7270  176.8980  142.2640 C   0  0  2  0  0  3  0  0  0  0  0  0
  188.2980  177.0610  141.2460 C   0  0  0  0  0  3  0  0  0  0  0  0
  189.2220  177.0250  142.3910 C   0  0  0  0  0  0  0  0  0  0  0  0
  189.7090  178.2400  137.9290 C   0  0  0  0  0  0  0  0  0  0  0  0
  189.0830  179.4560  137.6670 O   0  0  0  0  0  1  0  0  0  0  0  0
  190.1880  177.5740  136.9660 O   0  0  0  0  0  0  0  0  0  0  0  0
  185.7960  178.5880  145.4840 O   0  0  0  0  0  0  0  0  0  0  0  0
  182.3100  178.9810  144.3320 C   0  0  0  0  0  3  0  0  0  0  0  0
  184.8370  178.5810  143.2170 C   0  0  0  0  0  3  0  0  0  0  0  0
  181.1650  178.2230  140.9670 N   0  0  0  0  0  0  0  0  0  0  0  0
  182.5480  178.5390  139.9220 P   0  0  2  0  0  0  0  0  0  0  0  0
  181.2440  179.1470  142.0930 C   0  0  0  0  0  2  0  0  0  0  0  0
  182.6970  177.4260  138.9060 O   0  0  0  0  0  0  0  0  0  0  0  0
  182.4470  178.8610  142.9460 C   0  0  0  0  0  0  0  0  0  0  0  0
  179.9670  178.5120  140.2090 C   0  0  0  0  0  1  0  0  0  0  0  0
  183.8960  178.4740  140.9900 O   0  0  0  0  0  0  0  0  0  0  0  0
  183.7210  178.6340  142.3760 C   0  0  0  0  0  0  0  0  0  0  0  0
  182.4770  180.0530  139.1710 O   0  0  0  0  0  1  0  0  0  0  0  0
  184.7030  178.6840  144.6090 C   0  0  0  0  0  0  0  0  0  0  0  0
  183.4340  178.8650  145.1590 C   0  0  0  0  0  3  0  0  0  0  0  0
  1  5  1  1  0  0  0
  1 10  1  0  0  0  0
  3  9  1  0  0  0  0
  4 21  1  0  0  0  0
  4  8  2  0  0  0  0
  5  4  1  0  0  0  0
  6  8  1  0  0  0  0
  6  7  1  0  0  0  0
  9 10  1  0  0  0  0
  9 11  1  0  0  0  0
 10  6  2  0  0  0  0
 11  7  2  0  0  0  0
 12  2  2  0  0  0  0
 13 12  1  0  0  0  0
 13 14  2  0  0  0  0
 14 16  1  0  0  0  0
 15  2  1  6  0  0  0
 15 17  1  0  0  0  0
 15  3  1  0  0  0  0
 16 17  2  0  0  0  0
 17  1  1  0  0  0  0
 18 13  1  0  0  0  0
 19 18  1  0  0  0  0
 20 18  2  0  0  0  0
 22 34  1  0  0  0  0
 23 33  1  0  0  0  0
 24 26  1  0  0  0  0
 25 27  2  6  0  0  0
 25 24  1  0  0  0  0
 25 30  1  0  0  0  0
 26 28  1  0  0  0  0
 28 22  2  0  0  0  0
 29 24  1  0  0  0  0
 30 31  1  0  0  0  0
 31 28  1  0  0  0  0
 31 23  2  0  0  0  0
 32 25  1  0  0  0  0
 33 34  2  0  0  0  0
 33 21  1  0  0  0  0
M  END
>  <MODEL>
5

>  <REMARK>
 VINA RESULT:     -10.1      1.648      2.285
  Name = 
  3 active torsions:
  status: ('A' for Active; 'I' for Inactive)
    1  A    between atoms: C_3  and  C_25
    2  A    between atoms: C_8  and  O_18
    3  A    between atoms: O_18  and  C_30
                            x       y       z     vdW  Elec       q    Type
                         _______ _______ _______ _____ _____    ______ ____

>  <TORSDO>
F 3

$$$$
=
 OpenBabel10262423343D

 34 39  0  0  1  0  0  0  0  0999 V2000
  182.9730  179.0920  141.7680 C   0  0  2  0  0  3  0  0  0  0  0  0
  182.8510  177.8070  138.3040 C   0  0  0  0  0  3  0  0  0  0  0  0
  181.0090  178.5550  139.6400 C   0  0  0  0  0  2  0  0  0  0  0  0
  183.2100  178.8600  144.2770 C   0  0  0  0  0  0  0  0  0  0  0  0
  183.7920  179.4450  142.9770 C   0  0  0  0  0  2  0  0  0  0  0  0
  181.0620  178.7180  143.2310 C   0  0  0  0  0  0  0  0  0  0  0  0
  179.8250  178.1130  143.0700 C   0  0  0  0  0  3  0  0  0  0  0  0
  181.9390  178.5480  144.3500 N   0  0  0  0  0  0  0  0  0  0  0  0
  180.6660  178.6410  141.0550 N   0  0  0  0  0  0  0  0  0  0  0  0
  181.5420  179.0030  141.9960 C   0  0  0  0  0  0  0  0  0  0  0  0
  179.6110  178.0840  141.6870 C   0  0  0  0  0  3  0  0  0  0  0  0
  184.1630  177.4720  137.7500 C   0  0  0  0  0  3  0  0  0  0  0  0
  185.3930  177.7870  138.1720 C   0  0  0  0  0  0  0  0  0  0  0  0
  185.7090  178.6170  139.3510 C   0  0  0  0  0  3  0  0  0  0  0  0
  182.5130  178.3550  139.4680 C   0  0  2  0  0  3  0  0  0  0  0  0
  184.9170  179.0030  140.3430 C   0  0  0  0  0  3  0  0  0  0  0  0
  183.4800  178.7650  140.5600 C   0  0  0  0  0  0  0  0  0  0  0  0
  186.5240  177.2640  137.3810 C   0  0  0  0  0  0  0  0  0  0  0  0
  186.6220  175.9060  137.0900 O   0  0  0  0  0  1  0  0  0  0  0  0
  187.4330  178.0470  136.9790 O   0  0  0  0  0  0  0  0  0  0  0  0
  184.0120  178.6270  145.4020 O   0  0  0  0  0  0  0  0  0  0  0  0
  187.4050  177.8810  146.6530 C   0  0  0  0  0  3  0  0  0  0  0  0
  186.0490  177.9230  144.2140 C   0  0  0  0  0  3  0  0  0  0  0  0
  190.3420  177.5470  144.5390 N   0  0  0  0  0  0  0  0  0  0  0  0
  189.7420  176.9260  143.0020 P   0  0  2  0  0  0  0  0  0  0  0  0
  189.4810  177.0200  145.5920 C   0  0  0  0  0  2  0  0  0  0  0  0
  190.3910  177.6670  141.8530 O   0  0  0  0  0  0  0  0  0  0  0  0
  188.0850  177.5630  145.4740 C   0  0  0  0  0  0  0  0  0  0  0  0
  191.6810  177.0310  144.7270 C   0  0  0  0  0  1  0  0  0  0  0  0
  188.0680  177.3270  143.0210 O   0  0  0  0  0  0  0  0  0  0  0  0
  187.4110  177.6060  144.2320 C   0  0  0  0  0  0  0  0  0  0  0  0
  189.9350  175.2530  142.8440 O   0  0  0  0  0  1  0  0  0  0  0  0
  185.3660  178.2580  145.3910 C   0  0  0  0  0  0  0  0  0  0  0  0
  186.0560  178.2530  146.6040 C   0  0  0  0  0  3  0  0  0  0  0  0
  1 10  1  0  0  0  0
  1  5  1  1  0  0  0
  3  9  1  0  0  0  0
  4  8  2  0  0  0  0
  4 21  1  0  0  0  0
  5  4  1  0  0  0  0
  6  8  1  0  0  0  0
  7  6  1  0  0  0  0
  9 11  1  0  0  0  0
  9 10  1  0  0  0  0
 10  6  2  0  0  0  0
 11  7  2  0  0  0  0
 12 13  1  0  0  0  0
 12  2  2  0  0  0  0
 13 14  2  0  0  0  0
 14 16  1  0  0  0  0
 15  2  1  6  0  0  0
 15  3  1  0  0  0  0
 15 17  1  0  0  0  0
 16 17  2  0  0  0  0
 17  1  1  0  0  0  0
 18 13  1  0  0  0  0
 19 18  1  0  0  0  0
 20 18  2  0  0  0  0
 23 31  2  0  0  0  0
 23 33  1  0  0  0  0
 24 29  1  0  0  0  0
 24 26  1  0  0  0  0
 25 27  2  6  0  0  0
 25 30  1  0  0  0  0
 25 24  1  0  0  0  0
 28 26  1  0  0  0  0
 28 22  2  0  0  0  0
 30 31  1  0  0  0  0
 31 28  1  0  0  0  0
 32 25  1  0  0  0  0
 33 21  1  0  0  0  0
 33 34  2  0  0  0  0
 34 22  1  0  0  0  0
M  END
>  <MODEL>
6

>  <REMARK>
 VINA RESULT:      -9.4      2.617      7.447
  Name = 
  3 active torsions:
  status: ('A' for Active; 'I' for Inactive)
    1  A    between atoms: C_3  and  C_25
    2  A    between atoms: C_8  and  O_18
    3  A    between atoms: O_18  and  C_30
                            x       y       z     vdW  Elec       q    Type
                         _______ _______ _______ _____ _____    ______ ____

>  <TORSDO>
F 3

$$$$
=
 OpenBabel10262423343D

 34 39  0  0  1  0  0  0  0  0999 V2000
  188.4510  178.0210  141.8870 C   0  0  2  0  0  3  0  0  0  0  0  0
  185.9860  178.0370  144.6420 C   0  0  0  0  0  3  0  0  0  0  0  0
  188.3620  177.7910  144.8220 C   0  0  0  0  0  2  0  0  0  0  0  0
  189.6480  176.9960  139.9070 C   0  0  0  0  0  0  0  0  0  0  0  0
  188.7290  178.1230  140.4130 C   0  0  0  0  0  2  0  0  0  0  0  0
  190.4810  176.6980  142.1310 C   0  0  0  0  0  0  0  0  0  0  0  0
  191.0000  175.9010  143.1390 C   0  0  0  0  0  3  0  0  0  0  0  0
  190.4480  176.3730  140.7370 N   0  0  0  0  0  0  0  0  0  0  0  0
  189.4600  177.2900  144.0030 N   0  0  0  0  0  0  0  0  0  0  0  0
  189.5460  177.5060  142.6880 C   0  0  0  0  0  0  0  0  0  0  0  0
  190.3330  176.3030  144.3030 C   0  0  0  0  0  3  0  0  0  0  0  0
  184.6070  178.2550  144.2020 C   0  0  0  0  0  2  0  0  0  0  0  0
  184.1240  178.6980  143.0350 C   0  0  0  0  0  0  0  0  0  0  0  0
  184.9360  179.1150  141.8750 C   0  0  0  0  0  3  0  0  0  0  0  0
  187.1270  178.0440  143.9590 C   0  0  0  0  0  0  0  0  0  0  0  0
  186.2270  178.9210  141.6390 C   0  0  0  0  0  3  0  0  0  0  0  0
  187.2570  178.2730  142.4660 C   0  0  0  0  0  0  0  0  0  0  0  0
  182.6570  178.7820  142.9090 C   0  0  0  0  0  0  0  0  0  0  0  0
  182.0500  178.8030  141.6560 O   0  0  0  0  0  0  0  0  0  0  0  0
  181.9340  178.8610  143.9450 O   0  0  0  0  0  1  0  0  0  0  0  0
  189.6450  176.5920  138.5650 O   0  0  0  0  0  0  0  0  0  0  0  0
  191.2470  173.8150  136.7340 C   0  0  0  0  0  3  0  0  0  0  0  0
  191.9710  176.2810  137.8220 C   0  0  0  0  0  3  0  0  0  0  0  0
  194.8390  173.3710  136.4160 N   0  0  0  0  0  0  0  0  0  0  0  0
  195.5150  174.9990  136.4470 P   0  0  2  0  0  0  0  0  0  0  0  0
  193.5210  173.4540  135.7980 C   0  0  0  0  0  2  0  0  0  0  0  0
  196.7370  175.0380  137.3390 O   0  0  0  0  0  1  0  0  0  0  0  0
  192.5720  174.2500  136.6490 C   0  0  0  0  0  0  0  0  0  0  0  0
  195.6960  172.5570  135.5820 C   0  0  0  0  0  1  0  0  0  0  0  0
  194.2800  175.9440  137.1850 O   0  0  0  0  0  0  0  0  0  0  0  0
  192.9510  175.4870  137.2200 C   0  0  0  0  0  0  0  0  0  0  0  0
  195.8590  175.6010  134.9030 O   0  0  0  0  0  0  0  0  0  0  0  0
  190.6430  175.8410  137.9250 C   0  0  0  0  0  0  0  0  0  0  0  0
  190.2930  174.6000  137.3950 C   0  0  0  0  0  3  0  0  0  0  0  0
  1  5  1  6  0  0  0
  1 17  1  0  0  0  0
  1 10  1  0  0  0  0
  4  5  1  0  0  0  0
  4  8  2  0  0  0  0
  6 10  2  0  0  0  0
  6  7  1  0  0  0  0
  7 11  2  0  0  0  0
  8  6  1  0  0  0  0
  9 11  1  0  0  0  0
  9  3  1  0  0  0  0
 10  9  1  0  0  0  0
 12  2  1  0  0  0  0
 13 12  1  0  0  0  0
 14 13  2  0  0  0  0
 15  2  2  0  0  0  0
 15  3  1  0  0  0  0
 16 14  1  0  0  0  0
 16 17  2  0  0  0  0
 17 15  1  0  0  0  0
 18 13  1  0  0  0  0
 18 20  1  0  0  0  0
 19 18  2  0  0  0  0
 21  4  1  0  0  0  0
 22 34  1  0  0  0  0
 23 33  1  0  0  0  0
 24 25  1  0  0  0  0
 25 32  2  6  0  0  0
 25 30  1  0  0  0  0
 25 27  1  0  0  0  0
 26 24  1  0  0  0  0
 26 28  1  0  0  0  0
 28 22  2  0  0  0  0
 28 31  1  0  0  0  0
 29 24  1  0  0  0  0
 30 31  1  0  0  0  0
 31 23  2  0  0  0  0
 33 21  1  0  0  0  0
 34 33  2  0  0  0  0
M  END
>  <MODEL>
7

>  <REMARK>
 VINA RESULT:      -9.4      4.648      9.043
  Name = 
  3 active torsions:
  status: ('A' for Active; 'I' for Inactive)
    1  A    between atoms: C_3  and  C_25
    2  A    between atoms: C_8  and  O_18
    3  A    between atoms: O_18  and  C_30
                            x       y       z     vdW  Elec       q    Type
                         _______ _______ _______ _____ _____    ______ ____

>  <TORSDO>
F 3

$$$$
