=
 OpenBabel10262423163D

 34 39  0  0  1  0  0  0  0  0999 V2000
  187.0290  177.7510  144.1870 C   0  0  1  0  0  3  0  0  0  0  0  0
  183.6610  178.9550  145.1470 C   0  0  0  0  0  3  0  0  0  0  0  0
  185.4820  178.3480  146.5210 C   0  0  0  0  0  3  0  0  0  0  0  0
  188.9580  177.2840  145.7720 C   0  0  0  0  0  3  0  0  0  0  0  0
  188.5620  177.4430  148.1890 C   0  0  0  0  0  3  0  0  0  0  0  0
  189.3650  177.0280  147.0210 C   0  0  0  0  0  3  0  0  0  0  0  0
  186.7760  178.1030  146.6830 C   0  0  0  0  0  0  0  0  0  0  0  0
  187.7130  178.0960  145.4970 C   0  0  2  0  0  3  0  0  0  0  0  0
  187.3320  177.9390  148.0340 C   0  0  0  0  0  3  0  0  0  0  0  0
  182.7600  179.2140  144.0200 C   0  0  0  0  0  3  0  0  0  0  0  0
  182.8770  178.8720  142.7420 C   0  0  0  0  0  0  0  0  0  0  0  0
  183.9590  178.0810  142.1540 C   0  0  0  0  0  3  0  0  0  0  0  0
  184.8970  178.4590  145.1780 C   0  0  1  0  0  3  0  0  0  0  0  0
  185.1280  177.7320  142.6760 C   0  0  0  0  0  3  0  0  0  0  0  0
  185.7060  178.0140  144.0060 C   0  0  0  0  0  0  0  0  0  0  0  0
  181.7600  179.2520  141.8340 C   0  0  0  0  0  2  0  0  0  0  0  0
  180.8350  180.0350  142.5250 O   0  0  0  0  0  1  0  0  0  0  0  0
  187.9050  177.3150  143.0400 C   0  0  0  0  0  2  0  0  0  0  0  0
  192.4690  177.5810  140.9640 C   0  0  0  0  0  2  0  0  0  0  0  0
  189.6080  177.0820  140.8390 N   0  0  0  0  0  0  0  0  0  0  0  0
  191.9060  175.8450  137.5620 C   0  0  2  0  0  0  0  0  0  0  0  0
  189.3560  177.6970  143.3040 C   0  0  2  0  0  3  0  0  0  0  0  0
  191.8670  174.4630  137.7820 O   0  0  0  0  0  1  0  0  0  0  0  0
  192.5220  176.5140  138.7620 C   0  0  0  0  0  3  0  0  0  0  0  0
  191.7950  176.8890  139.8170 C   0  0  0  0  0  0  0  0  0  0  0  0
  189.7070  178.9470  142.4960 C   0  0  0  0  0  2  0  0  0  0  0  0
  189.6240  176.1840  138.5960 C   0  0  0  0  0  2  0  0  0  0  0  0
  190.3130  176.7680  139.7930 C   0  0  0  0  0  0  0  0  0  0  0  0
  190.4770  176.3570  137.3380 C   0  0  0  0  0  2  0  0  0  0  0  0
  190.2260  177.6000  142.0610 C   0  0  2  0  0  0  0  0  0  0  0  0
  191.7140  177.3430  142.2700 C   0  0  0  0  0  2  0  0  0  0  0  0
  192.7410  176.1470  136.3520 C   0  0  0  0  0  0  0  0  0  0  0  0
  193.9990  176.7200  136.5020 O   0  0  0  0  0  1  0  0  0  0  0  0
  192.3290  175.8570  135.1970 O   0  0  0  0  0  0  0  0  0  0  0  0
  1 18  1  6  0  0  0
  1  8  1  0  0  0  0
  3  7  2  0  0  0  0
  4  6  2  0  0  0  0
  6  5  1  0  0  0  0
  7  9  1  0  0  0  0
  8  4  1  1  0  0  0
  8  7  1  0  0  0  0
  9  5  2  0  0  0  0
 10  2  2  0  0  0  0
 11 10  1  0  0  0  0
 12 14  1  0  0  0  0
 12 11  2  0  0  0  0
 13  2  1  1  0  0  0
 13  3  1  0  0  0  0
 14 15  2  0  0  0  0
 15  1  1  0  0  0  0
 15 13  1  0  0  0  0
 16 17  1  0  0  0  0
 16 11  1  0  0  0  0
 19 31  1  0  0  0  0
 20 30  1  0  0  0  0
 21 23  1  1  0  0  0
 21 24  1  0  0  0  0
 22 18  1  6  0  0  0
 24 25  2  0  0  0  0
 25 19  1  0  0  0  0
 26 22  1  0  0  0  0
 27 28  1  0  0  0  0
 28 25  1  0  0  0  0
 28 20  2  0  0  0  0
 29 21  1  0  0  0  0
 29 27  1  0  0  0  0
 30 31  1  1  0  0  0
 30 26  1  0  0  0  0
 30 22  1  0  0  0  0
 32 33  1  0  0  0  0
 32 21  1  0  0  0  0
 34 32  2  0  0  0  0
M  END
>  <MODEL>
1

>  <REMARK>
 VINA RESULT:     -11.1      0.000      0.000
  Name = 
  4 active torsions:
  status: ('A' for Active; 'I' for Inactive)
    1  A    between atoms: C_1  and  C_9
    2  A    between atoms: C_3  and  C_25
    3  A    between atoms: C_7  and  C_11
    4  A    between atoms: C_8  and  C_9
                            x       y       z     vdW  Elec       q    Type
                         _______ _______ _______ _____ _____    ______ ____

>  <TORSDO>
F 4

$$$$
=
 OpenBabel10262423163D

 34 39  0  0  1  0  0  0  0  0999 V2000
  186.0260  178.5010  142.0710 C   0  0  1  0  0  3  0  0  0  0  0  0
  189.2980  176.9250  142.7930 C   0  0  0  0  0  3  0  0  0  0  0  0
  187.5750  177.5480  144.2820 C   0  0  0  0  0  3  0  0  0  0  0  0
  184.1890  178.9730  143.7610 C   0  0  0  0  0  3  0  0  0  0  0  0
  184.6340  178.5450  146.1360 C   0  0  0  0  0  3  0  0  0  0  0  0
  183.8390  179.1400  145.0420 C   0  0  0  0  0  3  0  0  0  0  0  0
  186.3130  177.8850  144.5120 C   0  0  0  0  0  0  0  0  0  0  0  0
  185.3500  178.0890  143.3660 C   0  0  2  0  0  3  0  0  0  0  0  0
  185.8100  177.9630  145.8910 C   0  0  0  0  0  3  0  0  0  0  0  0
  190.1420  176.7010  141.6160 C   0  0  0  0  0  3  0  0  0  0  0  0
  190.0220  177.1750  140.3800 C   0  0  0  0  0  0  0  0  0  0  0  0
  188.9980  178.1100  139.9090 C   0  0  0  0  0  3  0  0  0  0  0  0
  188.1120  177.5190  142.9150 C   0  0  1  0  0  3  0  0  0  0  0  0
  187.8800  178.5050  140.5030 C   0  0  0  0  0  3  0  0  0  0  0  0
  187.3140  178.1450  141.8190 C   0  0  0  0  0  0  0  0  0  0  0  0
  191.0760  176.7920  139.4020 C   0  0  0  0  0  2  0  0  0  0  0  0
  190.7810  175.5430  138.8540 O   0  0  0  0  0  1  0  0  0  0  0  0
  185.1620  179.1200  141.0030 C   0  0  0  0  0  2  0  0  0  0  0  0
  181.6590  178.2770  137.5060 C   0  0  0  0  0  2  0  0  0  0  0  0
  183.2360  180.0360  139.1980 N   0  0  0  0  0  0  0  0  0  0  0  0
  179.9290  181.7200  137.2560 C   0  0  2  0  0  0  0  0  0  0  0  0
  184.5040  178.0370  140.1560 C   0  0  2  0  0  3  0  0  0  0  0  0
  179.0800  181.8600  138.3590 O   0  0  0  0  0  1  0  0  0  0  0  0
  180.2930  180.2670  137.0990 C   0  0  0  0  0  3  0  0  0  0  0  0
  181.3340  179.7230  137.7340 C   0  0  0  0  0  0  0  0  0  0  0  0
  184.8890  178.2350  138.6900 C   0  0  0  0  0  2  0  0  0  0  0  0
  181.9990  182.0440  138.6700 C   0  0  0  0  0  2  0  0  0  0  0  0
  182.2550  180.5710  138.5360 C   0  0  0  0  0  0  0  0  0  0  0  0
  181.1890  182.5660  137.4820 C   0  0  0  0  0  2  0  0  0  0  0  0
  183.5030  178.5970  139.1580 C   0  0  2  0  0  0  0  0  0  0  0  0
  182.3720  177.6760  138.7150 C   0  0  0  0  0  2  0  0  0  0  0  0
  179.2320  182.1860  136.0110 C   0  0  0  0  0  0  0  0  0  0  0  0
  178.9310  183.5330  135.8460 O   0  0  0  0  0  1  0  0  0  0  0  0
  178.9420  181.3720  135.0930 O   0  0  0  0  0  0  0  0  0  0  0  0
  1 18  1  6  0  0  0
  1  8  1  0  0  0  0
  3  7  2  0  0  0  0
  4  6  2  0  0  0  0
  6  5  1  0  0  0  0
  7  9  1  0  0  0  0
  8  4  1  1  0  0  0
  8  7  1  0  0  0  0
  9  5  2  0  0  0  0
 10  2  2  0  0  0  0
 11 10  1  0  0  0  0
 12 11  2  0  0  0  0
 12 14  1  0  0  0  0
 13  2  1  1  0  0  0
 13  3  1  0  0  0  0
 14 15  2  0  0  0  0
 15  1  1  0  0  0  0
 15 13  1  0  0  0  0
 16 11  1  0  0  0  0
 17 16  1  0  0  0  0
 19 25  1  0  0  0  0
 19 31  1  0  0  0  0
 21 29  1  0  0  0  0
 21 23  1  1  0  0  0
 22 18  1  1  0  0  0
 24 21  1  0  0  0  0
 24 25  2  0  0  0  0
 25 28  1  0  0  0  0
 26 22  1  0  0  0  0
 28 27  1  0  0  0  0
 28 20  2  0  0  0  0
 29 27  1  0  0  0  0
 30 26  1  6  0  0  0
 30 20  1  0  0  0  0
 30 22  1  0  0  0  0
 31 30  1  0  0  0  0
 32 21  1  0  0  0  0
 33 32  1  0  0  0  0
 34 32  2  0  0  0  0
M  END
>  <MODEL>
2

>  <REMARK>
 VINA RESULT:     -10.6      3.719      8.914
  Name = 
  4 active torsions:
  status: ('A' for Active; 'I' for Inactive)
    1  A    between atoms: C_1  and  C_9
    2  A    between atoms: C_3  and  C_25
    3  A    between atoms: C_7  and  C_11
    4  A    between atoms: C_8  and  C_9
                            x       y       z     vdW  Elec       q    Type
                         _______ _______ _______ _____ _____    ______ ____

>  <TORSDO>
F 4

$$$$
=
 OpenBabel10262423163D

 34 39  0  0  1  0  0  0  0  0999 V2000
  187.3680  177.5890  143.8230 C   0  0  1  0  0  3  0  0  0  0  0  0
  188.0970  177.5910  147.4540 C   0  0  0  0  0  3  0  0  0  0  0  0
  186.1750  178.3530  146.3120 C   0  0  0  0  0  3  0  0  0  0  0  0
  185.1830  178.2940  142.7360 C   0  0  0  0  0  3  0  0  0  0  0  0
  183.4210  179.2540  144.1480 C   0  0  0  0  0  3  0  0  0  0  0  0
  184.0320  178.9700  142.8340 C   0  0  0  0  0  3  0  0  0  0  0  0
  185.4130  178.3840  145.2260 C   0  0  0  0  0  0  0  0  0  0  0  0
  185.8600  177.7040  143.9520 C   0  0  2  0  0  3  0  0  0  0  0  0
  184.0770  178.9910  145.2810 C   0  0  0  0  0  3  0  0  0  0  0  0
  189.4150  177.0620  147.8140 C   0  0  0  0  0  2  0  0  0  0  0  0
  190.4650  176.7990  147.0430 C   0  0  0  0  0  0  0  0  0  0  0  0
  190.5610  177.0380  145.6020 C   0  0  0  0  0  3  0  0  0  0  0  0
  187.5360  177.8000  146.2640 C   0  0  0  0  0  0  0  0  0  0  0  0
  189.6060  177.3380  144.7320 C   0  0  0  0  0  3  0  0  0  0  0  0
  188.1560  177.5390  144.9310 C   0  0  0  0  0  0  0  0  0  0  0  0
  191.6930  176.2980  147.7190 C   0  0  0  0  0  2  0  0  0  0  0  0
  192.4550  175.5490  146.8220 O   0  0  0  0  0  1  0  0  0  0  0  0
  187.9290  177.3170  142.4510 C   0  0  0  0  0  2  0  0  0  0  0  0
  191.9940  177.4210  139.5060 C   0  0  0  0  0  2  0  0  0  0  0  0
  189.2090  176.7760  140.0280 N   0  0  0  0  0  0  0  0  0  0  0  0
  190.9510  175.0830  136.6150 C   0  0  2  0  0  0  0  0  0  0  0  0
  189.3690  177.8070  142.3580 C   0  0  2  0  0  3  0  0  0  0  0  0
  191.0630  173.7630  137.0640 O   0  0  0  0  0  1  0  0  0  0  0  0
  191.7230  175.9830  137.5440 C   0  0  0  0  0  3  0  0  0  0  0  0
  191.1770  176.5050  138.6440 C   0  0  0  0  0  0  0  0  0  0  0  0
  189.4640  178.9080  141.3020 C   0  0  0  0  0  2  0  0  0  0  0  0
  188.8800  175.4950  138.0050 C   0  0  0  0  0  2  0  0  0  0  0  0
  189.7300  176.3140  138.9310 C   0  0  0  0  0  0  0  0  0  0  0  0
  189.4690  175.4810  136.5930 C   0  0  0  0  0  2  0  0  0  0  0  0
  189.9990  177.5310  141.0020 C   0  0  2  0  0  0  0  0  0  0  0  0
  191.5150  177.3840  140.9560 C   0  0  0  0  0  2  0  0  0  0  0  0
  191.5210  175.2040  135.2320 C   0  0  0  0  0  0  0  0  0  0  0  0
  192.1190  174.1030  134.6280 O   0  0  0  0  0  1  0  0  0  0  0  0
  191.4370  176.2870  134.5940 O   0  0  0  0  0  0  0  0  0  0  0  0
  1 18  1  1  0  0  0
  1  8  1  0  0  0  0
  1 15  1  0  0  0  0
  2 10  1  0  0  0  0
  4  6  2  0  0  0  0
  5  9  2  0  0  0  0
  6  5  1  0  0  0  0
  7  9  1  0  0  0  0
  7  3  2  0  0  0  0
  8  4  1  6  0  0  0
  8  7  1  0  0  0  0
 11 16  1  0  0  0  0
 11 10  1  0  0  0  0
 12 11  2  0  0  0  0
 13  3  1  0  0  0  0
 13  2  2  0  0  0  0
 14 15  2  0  0  0  0
 14 12  1  0  0  0  0
 15 13  1  0  0  0  0
 17 16  1  0  0  0  0
 19 31  1  0  0  0  0
 20 30  1  0  0  0  0
 21 23  1  1  0  0  0
 21 24  1  0  0  0  0
 22 18  1  6  0  0  0
 24 25  2  0  0  0  0
 25 28  1  0  0  0  0
 25 19  1  0  0  0  0
 26 22  1  0  0  0  0
 27 28  1  0  0  0  0
 28 20  2  0  0  0  0
 29 21  1  0  0  0  0
 29 27  1  0  0  0  0
 30 31  1  6  0  0  0
 30 26  1  0  0  0  0
 30 22  1  0  0  0  0
 32 21  1  0  0  0  0
 33 32  1  0  0  0  0
 34 32  2  0  0  0  0
M  END
>  <MODEL>
3

>  <REMARK>
 VINA RESULT:     -10.4      2.533      4.772
  Name = 
  4 active torsions:
  status: ('A' for Active; 'I' for Inactive)
    1  A    between atoms: C_1  and  C_9
    2  A    between atoms: C_3  and  C_25
    3  A    between atoms: C_7  and  C_11
    4  A    between atoms: C_8  and  C_9
                            x       y       z     vdW  Elec       q    Type
                         _______ _______ _______ _____ _____    ______ ____

>  <TORSDO>
F 4

$$$$
=
 OpenBabel10262423163D

 34 39  0  0  1  0  0  0  0  0999 V2000
  186.1390  178.0270  143.5090 C   0  0  1  0  0  3  0  0  0  0  0  0
  182.7120  179.0860  144.4270 C   0  0  0  0  0  3  0  0  0  0  0  0
  184.5370  178.5470  145.8240 C   0  0  0  0  0  3  0  0  0  0  0  0
  188.0630  177.6310  145.1190 C   0  0  0  0  0  3  0  0  0  0  0  0
  187.6280  177.7610  147.5300 C   0  0  0  0  0  3  0  0  0  0  0  0
  188.4640  177.3850  146.3720 C   0  0  0  0  0  3  0  0  0  0  0  0
  185.8380  178.3550  146.0030 C   0  0  0  0  0  0  0  0  0  0  0  0
  186.7900  178.3920  144.8300 C   0  0  2  0  0  3  0  0  0  0  0  0
  186.3810  178.2070  147.3600 C   0  0  0  0  0  3  0  0  0  0  0  0
  181.8160  179.3140  143.2900 C   0  0  0  0  0  3  0  0  0  0  0  0
  181.9650  178.9850  142.0110 C   0  0  0  0  0  0  0  0  0  0  0  0
  183.0870  178.2420  141.4340 C   0  0  0  0  0  3  0  0  0  0  0  0
  183.9660  178.6420  144.4730 C   0  0  1  0  0  3  0  0  0  0  0  0
  184.2620  177.9380  141.9710 C   0  0  0  0  0  3  0  0  0  0  0  0
  184.8090  178.2360  143.3100 C   0  0  0  0  0  0  0  0  0  0  0  0
  180.8460  179.3230  141.0900 C   0  0  0  0  0  2  0  0  0  0  0  0
  180.2490  180.5190  141.4900 O   0  0  0  0  0  1  0  0  0  0  0  0
  187.0470  177.6330  142.3720 C   0  0  0  0  0  2  0  0  0  0  0  0
  191.7500  177.5190  140.6160 C   0  0  0  0  0  2  0  0  0  0  0  0
  188.8790  177.1870  140.3110 N   0  0  0  0  0  0  0  0  0  0  0  0
  191.3110  175.6470  137.2670 C   0  0  2  0  0  0  0  0  0  0  0  0
  188.4990  177.9410  142.7210 C   0  0  2  0  0  3  0  0  0  0  0  0
  191.1700  174.2840  137.5480 O   0  0  0  0  0  1  0  0  0  0  0  0
  191.8850  176.3390  138.4760 C   0  0  0  0  0  3  0  0  0  0  0  0
  191.1130  176.8110  139.4570 C   0  0  0  0  0  0  0  0  0  0  0  0
  188.9820  179.1240  141.8820 C   0  0  0  0  0  2  0  0  0  0  0  0
  188.9900  176.1750  138.1190 C   0  0  0  0  0  2  0  0  0  0  0  0
  189.6320  176.7780  139.3340 C   0  0  0  0  0  0  0  0  0  0  0  0
  189.9370  176.2330  136.9180 C   0  0  0  0  0  2  0  0  0  0  0  0
  189.4430  177.7290  141.5480 C   0  0  2  0  0  0  0  0  0  0  0  0
  190.8940  177.3940  141.8750 C   0  0  0  0  0  2  0  0  0  0  0  0
  192.2440  175.8370  136.1080 C   0  0  0  0  0  0  0  0  0  0  0  0
  191.7400  175.8960  134.8130 O   0  0  0  0  0  0  0  0  0  0  0  0
  193.4830  175.9760  136.2940 O   0  0  0  0  0  1  0  0  0  0  0  0
  1 18  1  6  0  0  0
  1  8  1  0  0  0  0
  3  7  2  0  0  0  0
  4  6  2  0  0  0  0
  6  5  1  0  0  0  0
  7  9  1  0  0  0  0
  8  4  1  1  0  0  0
  8  7  1  0  0  0  0
  9  5  2  0  0  0  0
 10  2  2  0  0  0  0
 11 10  1  0  0  0  0
 12 14  1  0  0  0  0
 12 11  2  0  0  0  0
 13  2  1  1  0  0  0
 13  3  1  0  0  0  0
 14 15  2  0  0  0  0
 15  1  1  0  0  0  0
 15 13  1  0  0  0  0
 16 17  1  0  0  0  0
 16 11  1  0  0  0  0
 19 31  1  0  0  0  0
 20 30  1  0  0  0  0
 21 23  1  1  0  0  0
 21 24  1  0  0  0  0
 22 18  1  6  0  0  0
 24 25  2  0  0  0  0
 25 19  1  0  0  0  0
 26 22  1  0  0  0  0
 27 28  1  0  0  0  0
 28 25  1  0  0  0  0
 28 20  2  0  0  0  0
 29 21  1  0  0  0  0
 29 27  1  0  0  0  0
 30 31  1  1  0  0  0
 30 26  1  0  0  0  0
 30 22  1  0  0  0  0
 32 34  1  0  0  0  0
 32 21  1  0  0  0  0
 33 32  2  0  0  0  0
M  END
>  <MODEL>
4

>  <REMARK>
 VINA RESULT:     -10.3      0.834      1.160
  Name = 
  4 active torsions:
  status: ('A' for Active; 'I' for Inactive)
    1  A    between atoms: C_1  and  C_9
    2  A    between atoms: C_3  and  C_25
    3  A    between atoms: C_7  and  C_11
    4  A    between atoms: C_8  and  C_9
                            x       y       z     vdW  Elec       q    Type
                         _______ _______ _______ _____ _____    ______ ____

>  <TORSDO>
F 4

$$$$
=
 OpenBabel10262423163D

 34 39  0  0  1  0  0  0  0  0999 V2000
  188.2810  178.3930  142.0800 C   0  0  1  0  0  3  0  0  0  0  0  0
  186.0510  177.6800  144.9480 C   0  0  0  0  0  3  0  0  0  0  0  0
  188.2780  176.9900  144.5760 C   0  0  0  0  0  3  0  0  0  0  0  0
  190.7220  177.7180  141.8790 C   0  0  0  0  0  3  0  0  0  0  0  0
  191.6990  176.2990  143.6260 C   0  0  0  0  0  3  0  0  0  0  0  0
  191.7170  176.9230  142.2870 C   0  0  0  0  0  3  0  0  0  0  0  0
  189.4350  177.1160  143.9390 C   0  0  0  0  0  0  0  0  0  0  0  0
  189.5840  178.0980  142.7990 C   0  0  2  0  0  3  0  0  0  0  0  0
  190.6160  176.3770  144.4040 C   0  0  0  0  0  3  0  0  0  0  0  0
  184.7060  178.2520  144.8350 C   0  0  0  0  0  2  0  0  0  0  0  0
  184.0930  178.7810  143.7820 C   0  0  0  0  0  0  0  0  0  0  0  0
  184.6310  178.8710  142.4230 C   0  0  0  0  0  3  0  0  0  0  0  0
  187.0720  177.6770  144.0930 C   0  0  0  0  0  0  0  0  0  0  0  0
  185.8700  178.6700  141.9920 C   0  0  0  0  0  3  0  0  0  0  0  0
  187.0900  178.2820  142.7290 C   0  0  0  0  0  0  0  0  0  0  0  0
  182.6930  179.2480  143.9760 C   0  0  0  0  0  2  0  0  0  0  0  0
  181.9400  178.9740  142.8340 O   0  0  0  0  0  1  0  0  0  0  0  0
  188.3700  179.0120  140.7080 C   0  0  0  0  0  2  0  0  0  0  0  0
  186.9870  176.2010  136.7840 C   0  0  0  0  0  2  0  0  0  0  0  0
  186.4830  178.2310  138.8020 N   0  0  0  0  0  0  0  0  0  0  0  0
  183.1710  176.7850  136.6830 C   0  0  2  0  0  0  0  0  0  0  0  0
  188.8630  177.9870  139.6930 C   0  0  2  0  0  3  0  0  0  0  0  0
  182.5880  176.0150  137.6950 O   0  0  0  0  0  1  0  0  0  0  0  0
  184.5670  176.2790  136.4260 C   0  0  0  0  0  3  0  0  0  0  0  0
  185.6210  176.7230  137.1150 C   0  0  0  0  0  0  0  0  0  0  0  0
  188.8980  178.6250  138.3040 C   0  0  0  0  0  2  0  0  0  0  0  0
  184.1210  178.4410  138.3400 C   0  0  0  0  0  2  0  0  0  0  0  0
  185.4700  177.8340  138.0910 C   0  0  0  0  0  0  0  0  0  0  0  0
  183.2070  178.2530  137.1270 C   0  0  0  0  0  2  0  0  0  0  0  0
  187.8130  177.6380  138.6510 C   0  0  2  0  0  0  0  0  0  0  0  0
  187.9090  176.2630  138.0000 C   0  0  0  0  0  2  0  0  0  0  0  0
  182.3680  176.6630  135.4210 C   0  0  0  0  0  0  0  0  0  0  0  0
  181.8530  177.8030  134.8130 O   0  0  0  0  0  0  0  0  0  0  0  0
  182.1810  175.5390  134.8830 O   0  0  0  0  0  1  0  0  0  0  0  0
  1 18  1  1  0  0  0
  1 15  1  0  0  0  0
  1  8  1  0  0  0  0
  4  6  2  0  0  0  0
  5  9  2  0  0  0  0
  6  5  1  0  0  0  0
  7  9  1  0  0  0  0
  7  3  2  0  0  0  0
  8  4  1  6  0  0  0
  8  7  1  0  0  0  0
 10  2  1  0  0  0  0
 11 16  1  0  0  0  0
 11 10  1  0  0  0  0
 12 11  2  0  0  0  0
 13  3  1  0  0  0  0
 13  2  2  0  0  0  0
 14 12  1  0  0  0  0
 14 15  2  0  0  0  0
 15 13  1  0  0  0  0
 17 16  1  0  0  0  0
 19 25  1  0  0  0  0
 19 31  1  0  0  0  0
 21 29  1  0  0  0  0
 21 23  1  1  0  0  0
 22 18  1  1  0  0  0
 24 21  1  0  0  0  0
 24 25  2  0  0  0  0
 25 28  1  0  0  0  0
 26 30  1  0  0  0  0
 26 22  1  0  0  0  0
 28 27  1  0  0  0  0
 28 20  2  0  0  0  0
 29 27  1  0  0  0  0
 30 31  1  6  0  0  0
 30 20  1  0  0  0  0
 30 22  1  0  0  0  0
 32 21  1  0  0  0  0
 33 32  2  0  0  0  0
 34 32  1  0  0  0  0
M  END
>  <MODEL>
5

>  <REMARK>
 VINA RESULT:      -9.4      3.742      5.706
  Name = 
  4 active torsions:
  status: ('A' for Active; 'I' for Inactive)
    1  A    between atoms: C_1  and  C_9
    2  A    between atoms: C_3  and  C_25
    3  A    between atoms: C_7  and  C_11
    4  A    between atoms: C_8  and  C_9
                            x       y       z     vdW  Elec       q    Type
                         _______ _______ _______ _____ _____    ______ ____

>  <TORSDO>
F 4

$$$$
=
 OpenBabel10262423163D

 34 39  0  0  1  0  0  0  0  0999 V2000
  187.3170  177.7680  142.5100 C   0  0  1  0  0  3  0  0  0  0  0  0
  189.9020  177.7540  145.1610 C   0  0  0  0  0  3  0  0  0  0  0  0
  190.1570  177.5840  142.8200 C   0  0  0  0  0  3  0  0  0  0  0  0
  187.7420  177.7400  140.0060 C   0  0  0  0  0  3  0  0  0  0  0  0
  190.0480  177.4880  139.2060 C   0  0  0  0  0  3  0  0  0  0  0  0
  188.5860  177.4790  139.0000 C   0  0  0  0  0  3  0  0  0  0  0  0
  189.6780  177.7340  141.5920 C   0  0  0  0  0  0  0  0  0  0  0  0
  188.2430  178.1530  141.3720 C   0  0  2  0  0  3  0  0  0  0  0  0
  190.5680  177.5950  140.4310 C   0  0  0  0  0  3  0  0  0  0  0  0
  189.3790  177.8500  146.5270 C   0  0  0  0  0  2  0  0  0  0  0  0
  188.1350  177.7120  146.9730 C   0  0  0  0  0  0  0  0  0  0  0  0
  186.9620  177.3670  146.1680 C   0  0  0  0  0  3  0  0  0  0  0  0
  189.2730  177.6640  143.9910 C   0  0  0  0  0  0  0  0  0  0  0  0
  186.8230  177.3380  144.8490 C   0  0  0  0  0  3  0  0  0  0  0  0
  187.7960  177.6280  143.7760 C   0  0  0  0  0  0  0  0  0  0  0  0
  187.9250  177.8300  148.4410 C   0  0  0  0  0  2  0  0  0  0  0  0
  189.0680  178.3590  149.0420 O   0  0  0  0  0  1  0  0  0  0  0  0
  185.8360  177.7590  142.2290 C   0  0  0  0  0  2  0  0  0  0  0  0
  182.7170  179.6630  138.7850 C   0  0  0  0  0  2  0  0  0  0  0  0
  183.7130  177.4870  140.4340 N   0  0  0  0  0  0  0  0  0  0  0  0
  181.0960  176.4780  137.3220 C   0  0  2  0  0  0  0  0  0  0  0  0
  185.4220  179.0430  141.5200 C   0  0  2  0  0  3  0  0  0  0  0  0
  182.0160  175.8840  136.4520 O   0  0  0  0  0  1  0  0  0  0  0  0
  181.5170  177.9010  137.5830 C   0  0  0  0  0  3  0  0  0  0  0  0
  182.3680  178.2220  138.5600 C   0  0  0  0  0  0  0  0  0  0  0  0
  184.0130  179.4360  141.9640 C   0  0  0  0  0  2  0  0  0  0  0  0
  182.4010  175.7610  139.3650 C   0  0  0  0  0  2  0  0  0  0  0  0
  182.8440  177.1870  139.5160 C   0  0  0  0  0  0  0  0  0  0  0  0
  181.0600  175.6820  138.6330 C   0  0  0  0  0  2  0  0  0  0  0  0
  184.2310  178.8460  140.5950 C   0  0  2  0  0  0  0  0  0  0  0  0
  184.1020  179.8010  139.4130 C   0  0  0  0  0  2  0  0  0  0  0  0
  179.7300  176.4790  136.7000 C   0  0  0  0  0  0  0  0  0  0  0  0
  179.2330  175.3210  136.1130 O   0  0  0  0  0  0  0  0  0  0  0  0
  179.0100  177.5130  136.7310 O   0  0  0  0  0  1  0  0  0  0  0  0
  1 18  1  1  0  0  0
  1 15  1  0  0  0  0
  2 10  1  0  0  0  0
  3 13  1  0  0  0  0
  5  9  2  0  0  0  0
  6  5  1  0  0  0  0
  6  4  2  0  0  0  0
  7  3  2  0  0  0  0
  8  4  1  6  0  0  0
  8  7  1  0  0  0  0
  8  1  1  0  0  0  0
  9  7  1  0  0  0  0
 10 11  1  0  0  0  0
 11 16  1  0  0  0  0
 12 11  2  0  0  0  0
 13  2  2  0  0  0  0
 14 12  1  0  0  0  0
 15 13  1  0  0  0  0
 15 14  2  0  0  0  0
 16 17  1  0  0  0  0
 19 31  1  0  0  0  0
 20 30  1  0  0  0  0
 21 23  1  6  0  0  0
 21 24  1  0  0  0  0
 21 29  1  0  0  0  0
 22 26  1  0  0  0  0
 22 18  1  1  0  0  0
 24 25  2  0  0  0  0
 25 19  1  0  0  0  0
 25 28  1  0  0  0  0
 27 28  1  0  0  0  0
 28 20  2  0  0  0  0
 29 27  1  0  0  0  0
 30 31  1  6  0  0  0
 30 22  1  0  0  0  0
 30 26  1  0  0  0  0
 32 34  1  0  0  0  0
 32 21  1  0  0  0  0
 33 32  2  0  0  0  0
M  END
>  <MODEL>
6

>  <REMARK>
 VINA RESULT:      -9.4      3.944      8.141
  Name = 
  4 active torsions:
  status: ('A' for Active; 'I' for Inactive)
    1  A    between atoms: C_1  and  C_9
    2  A    between atoms: C_3  and  C_25
    3  A    between atoms: C_7  and  C_11
    4  A    between atoms: C_8  and  C_9
                            x       y       z     vdW  Elec       q    Type
                         _______ _______ _______ _____ _____    ______ ____

>  <TORSDO>
F 4

$$$$
=
 OpenBabel10262423163D

 34 39  0  0  1  0  0  0  0  0999 V2000
  188.8030  177.4090  144.7060 C   0  0  1  0  0  3  0  0  0  0  0  0
  186.0470  178.1080  147.0790 C   0  0  0  0  0  3  0  0  0  0  0  0
  188.2020  177.2390  147.5000 C   0  0  0  0  0  3  0  0  0  0  0  0
  191.1390  176.6220  145.3180 C   0  0  0  0  0  3  0  0  0  0  0  0
  191.6210  176.0720  147.6600 C   0  0  0  0  0  3  0  0  0  0  0  0
  191.9440  176.0470  146.2190 C   0  0  0  0  0  3  0  0  0  0  0  0
  189.4570  177.0300  147.1240 C   0  0  0  0  0  0  0  0  0  0  0  0
  189.9180  177.4080  145.7360 C   0  0  2  0  0  3  0  0  0  0  0  0
  190.4410  176.5240  148.0910 C   0  0  0  0  0  3  0  0  0  0  0  0
  184.8230  178.6230  146.4600 C   0  0  0  0  0  3  0  0  0  0  0  0
  184.4680  178.6630  145.1800 C   0  0  0  0  0  0  0  0  0  0  0  0
  185.2360  178.1290  144.0530 C   0  0  0  0  0  3  0  0  0  0  0  0
  187.1900  177.6920  146.5360 C   0  0  1  0  0  3  0  0  0  0  0  0
  186.4950  177.7120  144.0140 C   0  0  0  0  0  3  0  0  0  0  0  0
  187.5150  177.6390  145.0800 C   0  0  0  0  0  0  0  0  0  0  0  0
  183.1250  179.2210  144.8660 C   0  0  0  0  0  2  0  0  0  0  0  0
  182.8720  179.1060  143.4990 O   0  0  0  0  0  1  0  0  0  0  0  0
  189.2000  177.3620  143.2530 C   0  0  0  0  0  2  0  0  0  0  0  0
  193.0290  177.4830  140.0070 C   0  0  0  0  0  2  0  0  0  0  0  0
  190.2530  176.9680  140.6960 N   0  0  0  0  0  0  0  0  0  0  0  0
  191.6100  175.4920  137.0180 C   0  0  2  0  0  0  0  0  0  0  0  0
  190.6590  177.7670  143.0860 C   0  0  2  0  0  3  0  0  0  0  0  0
  191.6640  174.1310  137.3390 O   0  0  0  0  0  1  0  0  0  0  0  0
  192.5110  176.2520  137.9560 C   0  0  0  0  0  3  0  0  0  0  0  0
  192.0870  176.7040  139.1380 C   0  0  0  0  0  0  0  0  0  0  0  0
  190.7510  178.9530  142.1260 C   0  0  0  0  0  2  0  0  0  0  0  0
  189.6840  175.9020  138.6030 C   0  0  0  0  0  2  0  0  0  0  0  0
  190.6570  176.5770  139.5240 C   0  0  0  0  0  0  0  0  0  0  0  0
  190.1630  175.9820  137.1520 C   0  0  0  0  0  2  0  0  0  0  0  0
  191.1640  177.5790  141.6650 C   0  0  2  0  0  0  0  0  0  0  0  0
  192.6590  177.3420  141.4820 C   0  0  0  0  0  2  0  0  0  0  0  0
  192.0820  175.7040  135.6090 C   0  0  0  0  0  0  0  0  0  0  0  0
  191.1580  175.9280  134.5940 O   0  0  0  0  0  0  0  0  0  0  0  0
  193.3120  175.7140  135.3370 O   0  0  0  0  0  1  0  0  0  0  0  0
  1 18  1  6  0  0  0
  1 15  1  0  0  0  0
  1  8  1  0  0  0  0
  4  6  2  0  0  0  0
  5  9  2  0  0  0  0
  6  5  1  0  0  0  0
  7  3  2  0  0  0  0
  7  9  1  0  0  0  0
  8  4  1  6  0  0  0
  8  7  1  0  0  0  0
 10  2  2  0  0  0  0
 11 10  1  0  0  0  0
 12 11  2  0  0  0  0
 13  2  1  6  0  0  0
 13  3  1  0  0  0  0
 14 12  1  0  0  0  0
 14 15  2  0  0  0  0
 15 13  1  0  0  0  0
 16 11  1  0  0  0  0
 17 16  1  0  0  0  0
 19 31  1  0  0  0  0
 20 30  1  0  0  0  0
 21 29  1  0  0  0  0
 21 23  1  1  0  0  0
 21 24  1  0  0  0  0
 22 18  1  6  0  0  0
 24 25  2  0  0  0  0
 25 28  1  0  0  0  0
 25 19  1  0  0  0  0
 26 22  1  0  0  0  0
 27 28  1  0  0  0  0
 28 20  2  0  0  0  0
 29 27  1  0  0  0  0
 30 31  1  6  0  0  0
 30 26  1  0  0  0  0
 30 22  1  0  0  0  0
 32 21  1  0  0  0  0
 33 32  2  0  0  0  0
 34 32  1  0  0  0  0
M  END
>  <MODEL>
7

>  <REMARK>
 VINA RESULT:      -9.3      1.196      2.152
  Name = 
  4 active torsions:
  status: ('A' for Active; 'I' for Inactive)
    1  A    between atoms: C_1  and  C_9
    2  A    between atoms: C_3  and  C_25
    3  A    between atoms: C_7  and  C_11
    4  A    between atoms: C_8  and  C_9
                            x       y       z     vdW  Elec       q    Type
                         _______ _______ _______ _____ _____    ______ ____

>  <TORSDO>
F 4

$$$$
=
 OpenBabel10262423163D

 34 39  0  0  1  0  0  0  0  0999 V2000
  188.8640  178.1250  144.1790 C   0  0  1  0  0  3  0  0  0  0  0  0
  185.7550  178.0870  146.1900 C   0  0  0  0  0  3  0  0  0  0  0  0
  187.9020  177.2720  146.7370 C   0  0  0  0  0  3  0  0  0  0  0  0
  191.1570  177.3550  144.9560 C   0  0  0  0  0  3  0  0  0  0  0  0
  191.3600  176.3030  147.1630 C   0  0  0  0  0  3  0  0  0  0  0  0
  191.8800  176.6340  145.8210 C   0  0  0  0  0  3  0  0  0  0  0  0
  189.2110  177.2310  146.5240 C   0  0  0  0  0  0  0  0  0  0  0  0
  189.8220  177.9490  145.3430 C   0  0  2  0  0  3  0  0  0  0  0  0
  190.0950  176.5710  147.4950 C   0  0  0  0  0  3  0  0  0  0  0  0
  184.5850  178.6600  145.5190 C   0  0  0  0  0  3  0  0  0  0  0  0
  184.4080  178.9760  144.2400 C   0  0  0  0  0  0  0  0  0  0  0  0
  185.3700  178.7670  143.1570 C   0  0  0  0  0  3  0  0  0  0  0  0
  186.9950  177.8770  145.7520 C   0  0  1  0  0  3  0  0  0  0  0  0
  186.6560  178.4460  143.2210 C   0  0  0  0  0  3  0  0  0  0  0  0
  187.5210  178.1860  144.3900 C   0  0  0  0  0  0  0  0  0  0  0  0
  183.0740  179.5120  143.8530 C   0  0  0  0  0  2  0  0  0  0  0  0
  182.0740  178.6270  144.2560 O   0  0  0  0  0  1  0  0  0  0  0  0
  189.4600  178.4430  142.8320 C   0  0  0  0  0  2  0  0  0  0  0  0
  189.8430  175.9520  138.4880 C   0  0  0  0  0  2  0  0  0  0  0  0
  190.9890  177.2190  140.8390 N   0  0  0  0  0  0  0  0  0  0  0  0
  193.6180  176.2380  137.7290 C   0  0  2  0  0  0  0  0  0  0  0  0
  188.6580  177.7700  141.7240 C   0  0  2  0  0  3  0  0  0  0  0  0
  193.8660  177.5270  137.2430 O   0  0  0  0  0  1  0  0  0  0  0  0
  192.1400  175.9590  137.6440 C   0  0  0  0  0  3  0  0  0  0  0  0
  191.2980  176.2910  138.6250 C   0  0  0  0  0  0  0  0  0  0  0  0
  188.8840  176.2590  141.7780 C   0  0  0  0  0  2  0  0  0  0  0  0
  193.2820  177.0760  140.0910 C   0  0  0  0  0  2  0  0  0  0  0  0
  191.8110  176.8460  139.9050 C   0  0  0  0  0  0  0  0  0  0  0  0
  194.0970  176.1510  139.1840 C   0  0  0  0  0  2  0  0  0  0  0  0
  189.5390  177.0780  140.6960 C   0  0  2  0  0  0  0  0  0  0  0  0
  188.9750  176.9220  139.2880 C   0  0  0  0  0  2  0  0  0  0  0  0
  194.3540  175.2280  136.8990 C   0  0  0  0  0  0  0  0  0  0  0  0
  195.5480  175.5770  136.2760 O   0  0  0  0  0  0  0  0  0  0  0  0
  193.9210  174.0500  136.7850 O   0  0  0  0  0  1  0  0  0  0  0  0
  1 18  1  1  0  0  0
  1 15  1  0  0  0  0
  1  8  1  0  0  0  0
  4  6  2  0  0  0  0
  5  9  2  0  0  0  0
  6  5  1  0  0  0  0
  7  3  2  0  0  0  0
  7  9  1  0  0  0  0
  8  4  1  6  0  0  0
  8  7  1  0  0  0  0
 10  2  2  0  0  0  0
 11 10  1  0  0  0  0
 12 14  1  0  0  0  0
 12 11  2  0  0  0  0
 13  2  1  6  0  0  0
 13  3  1  0  0  0  0
 14 15  2  0  0  0  0
 15 13  1  0  0  0  0
 16 11  1  0  0  0  0
 16 17  1  0  0  0  0
 19 25  1  0  0  0  0
 19 31  1  0  0  0  0
 21 23  1  6  0  0  0
 21 29  1  0  0  0  0
 22 26  1  0  0  0  0
 22 18  1  1  0  0  0
 24 21  1  0  0  0  0
 24 25  2  0  0  0  0
 25 28  1  0  0  0  0
 28 27  1  0  0  0  0
 28 20  2  0  0  0  0
 29 27  1  0  0  0  0
 30 31  1  6  0  0  0
 30 20  1  0  0  0  0
 30 22  1  0  0  0  0
 30 26  1  0  0  0  0
 32 21  1  0  0  0  0
 33 32  2  0  0  0  0
 34 32  1  0  0  0  0
M  END
>  <MODEL>
8

>  <REMARK>
 VINA RESULT:      -9.1      1.440      2.560
  Name = 
  4 active torsions:
  status: ('A' for Active; 'I' for Inactive)
    1  A    between atoms: C_1  and  C_9
    2  A    between atoms: C_3  and  C_25
    3  A    between atoms: C_7  and  C_11
    4  A    between atoms: C_8  and  C_9
                            x       y       z     vdW  Elec       q    Type
                         _______ _______ _______ _____ _____    ______ ____

>  <TORSDO>
F 4

$$$$
=
 OpenBabel10262423163D

 34 39  0  0  1  0  0  0  0  0999 V2000
  188.1500  177.7390  138.5880 C   0  0  1  0  0  3  0  0  0  0  0  0
  190.1030  175.5090  136.3700 C   0  0  0  0  0  3  0  0  0  0  0  0
  187.7850  175.9560  136.3780 C   0  0  0  0  0  3  0  0  0  0  0  0
  185.6710  178.2540  138.3840 C   0  0  0  0  0  3  0  0  0  0  0  0
  184.3520  177.0490  136.7010 C   0  0  0  0  0  3  0  0  0  0  0  0
  184.4730  177.9010  137.9020 C   0  0  0  0  0  3  0  0  0  0  0  0
  186.7550  176.7110  136.7400 C   0  0  0  0  0  0  0  0  0  0  0  0
  186.9510  177.8860  137.6700 C   0  0  2  0  0  3  0  0  0  0  0  0
  185.4270  176.4740  136.1570 C   0  0  0  0  0  3  0  0  0  0  0  0
  191.5360  175.4490  136.6700 C   0  0  0  0  0  3  0  0  0  0  0  0
  192.2000  175.8810  137.7370 C   0  0  0  0  0  0  0  0  0  0  0  0
  191.6150  176.4960  138.9290 C   0  0  0  0  0  3  0  0  0  0  0  0
  189.1080  176.1400  136.9900 C   0  0  1  0  0  3  0  0  0  0  0  0
  190.3850  176.9540  139.1240 C   0  0  0  0  0  3  0  0  0  0  0  0
  189.2170  176.9810  138.2190 C   0  0  0  0  0  0  0  0  0  0  0  0
  193.6680  175.6370  137.7650 C   0  0  0  0  0  2  0  0  0  0  0  0
  194.3010  176.4470  136.8220 O   0  0  0  0  0  1  0  0  0  0  0  0
  188.2030  178.6230  139.8080 C   0  0  0  0  0  2  0  0  0  0  0  0
  187.4480  177.1920  144.5610 C   0  0  0  0  0  2  0  0  0  0  0  0
  189.1390  178.1350  142.3940 N   0  0  0  0  0  0  0  0  0  0  0  0
  191.0610  176.7600  145.8530 C   0  0  2  0  0  0  0  0  0  0  0  0
  187.1350  178.2080  140.8130 C   0  0  2  0  0  3  0  0  0  0  0  0
  191.5570  175.5500  145.3560 O   0  0  0  0  0  1  0  0  0  0  0  0
  189.5600  176.7650  145.7210 C   0  0  0  0  0  3  0  0  0  0  0  0
  188.9470  177.1820  144.6110 C   0  0  0  0  0  0  0  0  0  0  0  0
  186.9900  179.2960  141.8770 C   0  0  0  0  0  2  0  0  0  0  0  0
  191.2220  177.8800  143.5920 C   0  0  0  0  0  2  0  0  0  0  0  0
  189.7280  177.7790  143.4960 C   0  0  0  0  0  0  0  0  0  0  0  0
  191.6720  177.9190  145.0540 C   0  0  0  0  0  2  0  0  0  0  0  0
  187.6920  178.0060  142.2130 C   0  0  2  0  0  0  0  0  0  0  0  0
  186.9450  177.0410  143.1270 C   0  0  0  0  0  2  0  0  0  0  0  0
  191.4240  176.9060  147.3010 C   0  0  0  0  0  0  0  0  0  0  0  0
  190.5630  177.5670  148.1710 O   0  0  0  0  0  1  0  0  0  0  0  0
  192.4900  176.4070  147.7510 O   0  0  0  0  0  0  0  0  0  0  0  0
  1 18  1  6  0  0  0
  2 10  2  0  0  0  0
  3  7  2  0  0  0  0
  3 13  1  0  0  0  0
  5  6  1  0  0  0  0
  6  4  2  0  0  0  0
  7  8  1  0  0  0  0
  8  4  1  1  0  0  0
  8  1  1  0  0  0  0
  9  5  2  0  0  0  0
  9  7  1  0  0  0  0
 10 11  1  0  0  0  0
 11 16  1  0  0  0  0
 11 12  2  0  0  0  0
 12 14  1  0  0  0  0
 13  2  1  1  0  0  0
 13 15  1  0  0  0  0
 15  1  1  0  0  0  0
 15 14  2  0  0  0  0
 17 16  1  0  0  0  0
 19 25  1  0  0  0  0
 20 28  2  0  0  0  0
 21 23  1  6  0  0  0
 21 32  1  0  0  0  0
 22 18  1  6  0  0  0
 22 26  1  0  0  0  0
 22 30  1  0  0  0  0
 24 21  1  0  0  0  0
 25 24  2  0  0  0  0
 27 29  1  0  0  0  0
 28 27  1  0  0  0  0
 28 25  1  0  0  0  0
 29 21  1  0  0  0  0
 30 26  1  1  0  0  0
 30 20  1  0  0  0  0
 30 31  1  0  0  0  0
 31 19  1  0  0  0  0
 32 34  2  0  0  0  0
 32 33  1  0  0  0  0
M  END
>  <MODEL>
9

>  <REMARK>
 VINA RESULT:      -9.1      3.703      8.883
  Name = 
  4 active torsions:
  status: ('A' for Active; 'I' for Inactive)
    1  A    between atoms: C_1  and  C_9
    2  A    between atoms: C_3  and  C_25
    3  A    between atoms: C_7  and  C_11
    4  A    between atoms: C_8  and  C_9
                            x       y       z     vdW  Elec       q    Type
                         _______ _______ _______ _____ _____    ______ ____

>  <TORSDO>
F 4

$$$$
