=
 OpenBabel10262421343D

 32 37  0  0  1  0  0  0  0  0999 V2000
  181.8370  179.0750  142.6190 C   0  0  0  0  0  0  0  0  0  0  0  0
  186.6600  178.0020  143.6420 C   0  0  0  0  0  0  0  0  0  0  0  0
  189.1120  177.9700  139.3530 C   0  0  0  0  0  3  0  0  0  0  0  0
  190.2190  177.4420  140.0220 C   0  0  0  0  0  3  0  0  0  0  0  0
  184.3010  178.3800  143.7620 C   0  0  0  0  0  0  0  0  0  0  0  0
  185.3570  178.1760  141.4980 C   0  0  0  0  0  2  0  0  0  0  0  0
  182.9500  178.8400  141.7970 C   0  0  0  0  0  3  0  0  0  0  0  0
  187.9580  178.3000  140.0650 C   0  0  0  0  0  3  0  0  0  0  0  0
  186.6670  178.5250  142.2180 C   0  0  2  0  0  3  0  0  0  0  0  0
  187.8880  178.0870  141.4500 C   0  0  0  0  0  0  0  0  0  0  0  0
  188.9780  177.3800  143.5950 C   0  0  0  0  0  0  0  0  0  0  0  0
  181.9610  178.9500  144.0080 C   0  0  0  0  0  3  0  0  0  0  0  0
  184.1800  178.5050  142.3660 C   0  0  0  0  0  0  0  0  0  0  0  0
  183.1890  178.5990  144.5790 C   0  0  0  0  0  3  0  0  0  0  0  0
  190.1710  177.2490  141.4040 C   0  0  0  0  0  3  0  0  0  0  0  0
  189.0150  177.5750  142.1280 C   0  0  0  0  0  0  0  0  0  0  0  0
  190.1580  176.9430  144.2800 N   0  0  0  0  0  2  0  0  0  0  0  0
  185.5610  178.0130  144.3390 N   0  0  0  0  0  0  0  0  0  0  0  0
  187.8760  177.5720  144.2590 N   0  0  0  0  0  0  0  0  0  0  0  0
  180.3930  180.4830  141.3030 N   0  0  0  0  0  0  0  0  0  0  0  0
  180.5350  179.4380  142.0510 C   0  0  0  0  0  3  0  0  0  0  0  0
  179.0910  180.8140  140.7560 C   0  0  2  0  0  3  0  0  0  0  0  0
  179.0660  180.4740  139.3910 O   0  0  0  0  0  0  0  0  0  0  0  0
  179.2410  181.8340  139.6970 C   0  0  0  0  0  2  0  0  0  0  0  0
  190.2160  176.7490  145.7230 C   0  0  1  0  0  3  0  0  0  0  0  0
  191.6700  176.7070  146.1950 C   0  0  0  0  0  2  0  0  0  0  0  0
  191.8960  175.6570  147.2720 C   0  0  0  0  0  2  0  0  0  0  0  0
  192.9520  176.0520  148.0910 O   0  0  0  0  0  1  0  0  0  0  0  0
  189.4220  177.8380  146.4380 C   0  0  0  0  0  2  0  0  0  0  0  0
  187.3960  178.1290  147.8140 C   0  0  0  0  0  2  0  0  0  0  0  0
  188.5930  178.1980  148.7360 C   0  0  0  0  0  2  0  0  0  0  0  0
  188.5960  177.2410  147.5620 C   0  0  0  0  0  3  0  0  0  0  0  0
  1 12  1  0  0  0  0
  2 19  1  0  0  0  0
  2 18  2  0  0  0  0
  3  4  2  0  0  0  0
  3  8  1  0  0  0  0
  4 15  1  0  0  0  0
  5 18  1  0  0  0  0
  5 14  1  0  0  0  0
  6 13  1  0  0  0  0
  7 13  1  0  0  0  0
  7  1  2  0  0  0  0
  8 10  2  0  0  0  0
  9  6  1  6  0  0  0
  9  2  1  0  0  0  0
 10 16  1  0  0  0  0
 10  9  1  0  0  0  0
 11 19  2  0  0  0  0
 11 17  1  0  0  0  0
 12 14  2  0  0  0  0
 13  5  2  0  0  0  0
 15 16  2  0  0  0  0
 16 11  1  0  0  0  0
 17 25  1  0  0  0  0
 20 21  2  0  0  0  0
 21  1  1  0  0  0  0
 22 20  1  1  0  0  0
 23 24  1  0  0  0  0
 23 22  1  0  0  0  0
 24 22  1  0  0  0  0
 25 26  1  1  0  0  0
 25 29  1  0  0  0  0
 26 27  1  0  0  0  0
 27 28  1  0  0  0  0
 29 32  1  0  0  0  0
 30 31  1  0  0  0  0
 32 30  1  0  0  0  0
 32 31  1  0  0  0  0
M  END
>  <MODEL>
1

>  <REMARK>
 VINA RESULT:      -9.4      0.000      0.000
  Name = 
  7 active torsions:
  status: ('A' for Active; 'I' for Inactive)
    1  A    between atoms: C_1  and  N_10
    2  A    between atoms: C_2  and  C_24
    3  A    between atoms: C_6  and  C_7
    4  A    between atoms: C_7  and  C_32
    5  A    between atoms: C_22  and  C_30
    6  A    between atoms: C_22  and  C_32
    7  A    between atoms: N_27  and  C_32
                            x       y       z     vdW  Elec       q    Type
                         _______ _______ _______ _____ _____    ______ ____

>  <TORSDO>
F 7

$$$$
=
 OpenBabel10262421343D

 32 37  0  0  1  0  0  0  0  0999 V2000
  191.6200  176.7670  138.8030 C   0  0  0  0  0  0  0  0  0  0  0  0
  187.7710  177.9930  141.8250 C   0  0  0  0  0  0  0  0  0  0  0  0
  189.1880  177.0900  146.4710 C   0  0  0  0  0  3  0  0  0  0  0  0
  187.8730  177.3100  146.8850 C   0  0  0  0  0  3  0  0  0  0  0  0
  189.1750  177.5220  139.9460 C   0  0  0  0  0  0  0  0  0  0  0  0
  189.9510  176.8040  142.2190 C   0  0  0  0  0  2  0  0  0  0  0  0
  191.4200  176.6290  140.1850 C   0  0  0  0  0  3  0  0  0  0  0  0
  189.5330  177.2470  145.1270 C   0  0  0  0  0  3  0  0  0  0  0  0
  188.9670  177.8560  142.7480 C   0  0  2  0  0  3  0  0  0  0  0  0
  188.5630  177.6080  144.1800 C   0  0  0  0  0  0  0  0  0  0  0  0
  186.2100  178.2730  143.6280 C   0  0  0  0  0  0  0  0  0  0  0  0
  190.5910  177.2710  138.0000 C   0  0  0  0  0  3  0  0  0  0  0  0
  190.2060  177.0160  140.7570 C   0  0  0  0  0  0  0  0  0  0  0  0
  189.3690  177.6450  138.5690 C   0  0  0  0  0  3  0  0  0  0  0  0
  186.9040  177.6940  145.9560 C   0  0  0  0  0  3  0  0  0  0  0  0
  187.2400  177.8530  144.6030 C   0  0  0  0  0  0  0  0  0  0  0  0
  184.8940  178.6030  144.0860 N   0  0  0  0  0  2  0  0  0  0  0  0
  187.9220  177.8960  140.5370 N   0  0  0  0  0  0  0  0  0  0  0  0
  186.4820  178.3140  142.3560 N   0  0  0  0  0  0  0  0  0  0  0  0
  193.0260  176.3590  136.8900 N   0  0  0  0  0  0  0  0  0  0  0  0
  192.8870  176.3790  138.1760 C   0  0  0  0  0  3  0  0  0  0  0  0
  194.2930  175.9710  136.3010 C   0  0  2  0  0  3  0  0  0  0  0  0
  194.9750  177.1260  135.8750 O   0  0  0  0  0  0  0  0  0  0  0  0
  194.3260  176.3750  134.8800 C   0  0  0  0  0  2  0  0  0  0  0  0
  183.8270  179.0490  143.1980 C   0  0  1  0  0  3  0  0  0  0  0  0
  183.8030  178.1970  141.9290 C   0  0  0  0  0  2  0  0  0  0  0  0
  183.5550  179.0300  140.6800 C   0  0  0  0  0  2  0  0  0  0  0  0
  184.7560  179.5880  140.2490 O   0  0  0  0  0  1  0  0  0  0  0  0
  182.4850  179.0210  143.9240 C   0  0  0  0  0  2  0  0  0  0  0  0
  180.2920  179.7780  143.0860 C   0  0  0  0  0  2  0  0  0  0  0  0
  180.0970  178.4240  143.7310 C   0  0  0  0  0  2  0  0  0  0  0  0
  181.3630  178.7150  142.9510 C   0  0  0  0  0  3  0  0  0  0  0  0
  1  7  1  0  0  0  0
  2 19  1  0  0  0  0
  2  9  1  0  0  0  0
  3  4  1  0  0  0  0
  5 18  1  0  0  0  0
  5 13  1  0  0  0  0
  7 13  2  0  0  0  0
  8  3  2  0  0  0  0
  9  6  1  6  0  0  0
  9 10  1  0  0  0  0
 10 16  2  0  0  0  0
 10  8  1  0  0  0  0
 11 17  1  0  0  0  0
 11 16  1  0  0  0  0
 12 14  1  0  0  0  0
 12  1  2  0  0  0  0
 13  6  1  0  0  0  0
 14  5  2  0  0  0  0
 15  4  2  0  0  0  0
 16 15  1  0  0  0  0
 18  2  2  0  0  0  0
 19 11  2  0  0  0  0
 20 21  2  0  0  0  0
 21  1  1  0  0  0  0
 22 20  1  1  0  0  0
 23 22  1  0  0  0  0
 24 23  1  0  0  0  0
 24 22  1  0  0  0  0
 25 26  1  6  0  0  0
 25 29  1  0  0  0  0
 25 17  1  0  0  0  0
 27 26  1  0  0  0  0
 28 27  1  0  0  0  0
 30 31  1  0  0  0  0
 32 30  1  0  0  0  0
 32 31  1  0  0  0  0
 32 29  1  0  0  0  0
M  END
>  <MODEL>
2

>  <REMARK>
 VINA RESULT:      -8.8      3.496      9.108
  Name = 
  7 active torsions:
  status: ('A' for Active; 'I' for Inactive)
    1  A    between atoms: C_1  and  N_10
    2  A    between atoms: C_2  and  C_24
    3  A    between atoms: C_6  and  C_7
    4  A    between atoms: C_7  and  C_32
    5  A    between atoms: C_22  and  C_30
    6  A    between atoms: C_22  and  C_32
    7  A    between atoms: N_27  and  C_32
                            x       y       z     vdW  Elec       q    Type
                         _______ _______ _______ _____ _____    ______ ____

>  <TORSDO>
F 7

$$$$
=
 OpenBabel10262421343D

 32 37  0  0  1  0  0  0  0  0999 V2000
  183.3940  179.3330  139.0980 C   0  0  0  0  0  0  0  0  0  0  0  0
  186.9300  177.9460  142.4200 C   0  0  0  0  0  0  0  0  0  0  0  0
  185.0700  178.6450  146.9430 C   0  0  0  0  0  3  0  0  0  0  0  0
  186.3380  178.3970  147.4720 C   0  0  0  0  0  3  0  0  0  0  0  0
  185.7150  178.5100  140.4370 C   0  0  0  0  0  0  0  0  0  0  0  0
  184.7230  179.1300  142.6550 C   0  0  0  0  0  2  0  0  0  0  0  0
  183.4590  179.4060  140.4980 C   0  0  0  0  0  3  0  0  0  0  0  0
  184.8570  178.5510  145.5670 C   0  0  0  0  0  3  0  0  0  0  0  0
  185.6490  178.0480  143.2280 C   0  0  2  0  0  3  0  0  0  0  0  0
  185.9130  178.2280  144.7020 C   0  0  0  0  0  0  0  0  0  0  0  0
  188.3080  177.5730  144.3500 C   0  0  0  0  0  0  0  0  0  0  0  0
  184.4950  178.8590  138.3760 C   0  0  0  0  0  3  0  0  0  0  0  0
  184.6110  178.9860  141.1670 C   0  0  0  0  0  0  0  0  0  0  0  0
  185.6550  178.4520  139.0430 C   0  0  0  0  0  3  0  0  0  0  0  0
  187.3920  178.0500  146.6240 C   0  0  0  0  0  3  0  0  0  0  0  0
  187.1890  177.9550  145.2400 C   0  0  0  0  0  0  0  0  0  0  0  0
  189.5720  177.2140  144.9180 N   0  0  0  0  0  2  0  0  0  0  0  0
  186.9040  178.1030  141.1280 N   0  0  0  0  0  0  0  0  0  0  0  0
  188.1600  177.5920  143.0570 N   0  0  0  0  0  0  0  0  0  0  0  0
  181.7750  180.9800  138.4160 N   0  0  0  0  0  0  0  0  0  0  0  0
  182.1940  179.7580  138.3700 C   0  0  0  0  0  3  0  0  0  0  0  0
  180.5840  181.3680  137.6820 C   0  0  2  0  0  3  0  0  0  0  0  0
  180.9670  182.0090  136.4900 O   0  0  0  0  0  0  0  0  0  0  0  0
  180.5430  182.8380  137.5430 C   0  0  0  0  0  2  0  0  0  0  0  0
  190.7190  176.8020  144.1180 C   0  0  1  0  0  3  0  0  0  0  0  0
  191.3450  178.0130  143.4260 C   0  0  0  0  0  2  0  0  0  0  0  0
  191.7190  177.7210  141.9800 C   0  0  0  0  0  2  0  0  0  0  0  0
  190.8320  176.7860  141.4510 O   0  0  0  0  0  1  0  0  0  0  0  0
  191.7320  176.0600  144.9840 C   0  0  0  0  0  2  0  0  0  0  0  0
  192.5200  175.6900  147.2920 C   0  0  0  0  0  2  0  0  0  0  0  0
  191.0080  175.6810  147.3140 C   0  0  0  0  0  2  0  0  0  0  0  0
  191.7450  176.6280  146.3900 C   0  0  0  0  0  3  0  0  0  0  0  0
  1  7  1  0  0  0  0
  2 19  1  0  0  0  0
  2  9  1  0  0  0  0
  3  4  1  0  0  0  0
  5 18  1  0  0  0  0
  5 13  1  0  0  0  0
  7 13  2  0  0  0  0
  8  3  2  0  0  0  0
  9  6  1  6  0  0  0
  9 10  1  0  0  0  0
 10 16  2  0  0  0  0
 10  8  1  0  0  0  0
 11 17  1  0  0  0  0
 11 16  1  0  0  0  0
 12 14  1  0  0  0  0
 12  1  2  0  0  0  0
 13  6  1  0  0  0  0
 14  5  2  0  0  0  0
 15  4  2  0  0  0  0
 16 15  1  0  0  0  0
 18  2  2  0  0  0  0
 19 11  2  0  0  0  0
 21 20  2  0  0  0  0
 21  1  1  0  0  0  0
 22 20  1  1  0  0  0
 23 24  1  0  0  0  0
 23 22  1  0  0  0  0
 24 22  1  0  0  0  0
 25 26  1  1  0  0  0
 25 17  1  0  0  0  0
 25 29  1  0  0  0  0
 27 26  1  0  0  0  0
 28 27  1  0  0  0  0
 29 32  1  0  0  0  0
 30 31  1  0  0  0  0
 32 30  1  0  0  0  0
 32 31  1  0  0  0  0
M  END
>  <MODEL>
3

>  <REMARK>
 VINA RESULT:      -8.8      2.463      4.335
  Name = 
  7 active torsions:
  status: ('A' for Active; 'I' for Inactive)
    1  A    between atoms: C_1  and  N_10
    2  A    between atoms: C_2  and  C_24
    3  A    between atoms: C_6  and  C_7
    4  A    between atoms: C_7  and  C_32
    5  A    between atoms: C_22  and  C_30
    6  A    between atoms: C_22  and  C_32
    7  A    between atoms: N_27  and  C_32
                            x       y       z     vdW  Elec       q    Type
                         _______ _______ _______ _____ _____    ______ ____

>  <TORSDO>
F 7

$$$$
=
 OpenBabel10262421343D

 32 37  0  0  1  0  0  0  0  0999 V2000
  191.4440  176.6610  137.7950 C   0  0  0  0  0  0  0  0  0  0  0  0
  188.5900  177.5660  141.8560 C   0  0  0  0  0  0  0  0  0  0  0  0
  191.4170  176.8490  145.8440 C   0  0  0  0  0  3  0  0  0  0  0  0
  190.2740  176.9530  146.6390 C   0  0  0  0  0  3  0  0  0  0  0  0
  189.3990  177.2040  139.6340 C   0  0  0  0  0  0  0  0  0  0  0  0
  190.8860  176.5850  141.5550 C   0  0  0  0  0  2  0  0  0  0  0  0
  191.6830  176.5220  139.1710 C   0  0  0  0  0  3  0  0  0  0  0  0
  191.3250  177.0220  144.4620 C   0  0  0  0  0  3  0  0  0  0  0  0
  190.0160  177.5490  142.3740 C   0  0  2  0  0  3  0  0  0  0  0  0
  190.0870  177.2810  143.8560 C   0  0  0  0  0  0  0  0  0  0  0  0
  187.6260  177.7230  144.0500 C   0  0  0  0  0  0  0  0  0  0  0  0
  190.1790  177.0610  137.3480 C   0  0  0  0  0  3  0  0  0  0  0  0
  190.6680  176.8030  140.0880 C   0  0  0  0  0  0  0  0  0  0  0  0
  189.1570  177.3280  138.2640 C   0  0  0  0  0  3  0  0  0  0  0  0
  189.0400  177.2370  146.0510 C   0  0  0  0  0  3  0  0  0  0  0  0
  188.9360  177.4100  144.6630 C   0  0  0  0  0  0  0  0  0  0  0  0
  186.4860  177.9370  144.8890 N   0  0  0  0  0  2  0  0  0  0  0  0
  188.3540  177.4680  140.5810 N   0  0  0  0  0  0  0  0  0  0  0  0
  187.4980  177.7740  142.7560 N   0  0  0  0  0  0  0  0  0  0  0  0
  193.6290  175.8750  137.1580 N   0  0  0  0  0  0  0  0  0  0  0  0
  192.4930  176.3830  136.8090 C   0  0  0  0  0  3  0  0  0  0  0  0
  194.6460  175.6120  136.1570 C   0  0  2  0  0  3  0  0  0  0  0  0
  194.7340  174.2230  135.9460 O   0  0  0  0  0  0  0  0  0  0  0  0
  195.7310  174.8030  136.7510 C   0  0  0  0  0  2  0  0  0  0  0  0
  185.1650  178.2730  144.3710 C   0  0  1  0  0  3  0  0  0  0  0  0
  184.2290  178.6610  145.5150 C   0  0  0  0  0  2  0  0  0  0  0  0
  184.8610  178.4330  146.8800 C   0  0  0  0  0  2  0  0  0  0  0  0
  185.5710  179.5710  147.2580 O   0  0  0  0  0  1  0  0  0  0  0  0
  185.2710  179.3810  143.3270 C   0  0  0  0  0  2  0  0  0  0  0  0
  184.1150  177.8880  141.7410 C   0  0  0  0  0  2  0  0  0  0  0  0
  184.7010  179.0360  140.9490 C   0  0  0  0  0  2  0  0  0  0  0  0
  184.1320  179.2830  142.3310 C   0  0  0  0  0  3  0  0  0  0  0  0
  1  7  1  0  0  0  0
  2  9  1  0  0  0  0
  2 19  1  0  0  0  0
  3  4  1  0  0  0  0
  5 13  1  0  0  0  0
  5 18  1  0  0  0  0
  7 13  2  0  0  0  0
  8  3  2  0  0  0  0
  9  6  1  6  0  0  0
  9 10  1  0  0  0  0
 10  8  1  0  0  0  0
 10 16  2  0  0  0  0
 11 16  1  0  0  0  0
 11 17  1  0  0  0  0
 12  1  2  0  0  0  0
 12 14  1  0  0  0  0
 13  6  1  0  0  0  0
 14  5  2  0  0  0  0
 15  4  2  0  0  0  0
 16 15  1  0  0  0  0
 18  2  2  0  0  0  0
 19 11  2  0  0  0  0
 21 20  2  0  0  0  0
 21  1  1  0  0  0  0
 22 24  1  0  0  0  0
 22 20  1  1  0  0  0
 23 22  1  0  0  0  0
 23 24  1  0  0  0  0
 25 29  1  6  0  0  0
 25 17  1  0  0  0  0
 25 26  1  0  0  0  0
 26 27  1  0  0  0  0
 27 28  1  0  0  0  0
 30 32  1  0  0  0  0
 31 30  1  0  0  0  0
 31 32  1  0  0  0  0
 32 29  1  0  0  0  0
M  END
>  <MODEL>
4

>  <REMARK>
 VINA RESULT:      -8.7      3.755      8.814
  Name = 
  7 active torsions:
  status: ('A' for Active; 'I' for Inactive)
    1  A    between atoms: C_1  and  N_10
    2  A    between atoms: C_2  and  C_24
    3  A    between atoms: C_6  and  C_7
    4  A    between atoms: C_7  and  C_32
    5  A    between atoms: C_22  and  C_30
    6  A    between atoms: C_22  and  C_32
    7  A    between atoms: N_27  and  C_32
                            x       y       z     vdW  Elec       q    Type
                         _______ _______ _______ _____ _____    ______ ____

>  <TORSDO>
F 7

$$$$
=
 OpenBabel10262421343D

 32 37  0  0  1  0  0  0  0  0999 V2000
  187.9330  177.7860  145.1010 C   0  0  0  0  0  0  0  0  0  0  0  0
  184.2310  178.6850  141.7910 C   0  0  0  0  0  0  0  0  0  0  0  0
  180.0150  179.0350  144.3430 C   0  0  0  0  0  3  0  0  0  0  0  0
  179.3160  179.0330  143.1340 C   0  0  0  0  0  3  0  0  0  0  0  0
  186.3220  178.1850  142.8410 C   0  0  0  0  0  0  0  0  0  0  0  0
  184.2430  178.1100  144.2400 C   0  0  0  0  0  2  0  0  0  0  0  0
  186.5390  177.8780  145.2400 C   0  0  0  0  0  3  0  0  0  0  0  0
  181.4110  179.0030  144.3430 C   0  0  0  0  0  3  0  0  0  0  0  0
  183.6300  178.9990  143.1490 C   0  0  2  0  0  3  0  0  0  0  0  0
  182.1230  178.9480  143.1360 C   0  0  0  0  0  0  0  0  0  0  0  0
  182.1480  178.9530  140.6290 C   0  0  0  0  0  0  0  0  0  0  0  0
  188.5110  177.8850  143.8300 C   0  0  0  0  0  3  0  0  0  0  0  0
  185.7370  178.0870  144.1160 C   0  0  0  0  0  0  0  0  0  0  0  0
  187.7080  178.0800  142.7010 C   0  0  0  0  0  3  0  0  0  0  0  0
  180.0140  179.0050  141.9250 C   0  0  0  0  0  3  0  0  0  0  0  0
  181.4160  178.9700  141.9140 C   0  0  0  0  0  0  0  0  0  0  0  0
  181.4210  179.0650  139.3990 N   0  0  0  0  0  2  0  0  0  0  0  0
  185.4910  178.3770  141.6880 N   0  0  0  0  0  0  0  0  0  0  0  0
  183.4410  178.8070  140.6060 N   0  0  0  0  0  0  0  0  0  0  0  0
  189.9060  176.9120  146.1690 N   0  0  0  0  0  0  0  0  0  0  0  0
  188.8010  177.5770  146.2630 C   0  0  0  0  0  3  0  0  0  0  0  0
  190.7430  176.7230  147.3380 C   0  0  2  0  0  3  0  0  0  0  0  0
  192.0560  177.1280  147.0340 O   0  0  0  0  0  0  0  0  0  0  0  0
  191.8080  175.7440  147.0350 C   0  0  0  0  0  2  0  0  0  0  0  0
  182.0630  179.0810  138.0910 C   0  0  1  0  0  3  0  0  0  0  0  0
  182.0220  177.6890  137.4610 C   0  0  0  0  0  2  0  0  0  0  0  0
  183.3360  177.3200  136.7900 C   0  0  0  0  0  2  0  0  0  0  0  0
  184.3980  177.7170  137.5990 O   0  0  0  0  0  1  0  0  0  0  0  0
  181.4110  180.1280  137.1920 C   0  0  0  0  0  2  0  0  0  0  0  0
  179.6890  181.8070  137.7410 C   0  0  0  0  0  2  0  0  0  0  0  0
  180.8050  182.5140  137.0040 C   0  0  0  0  0  2  0  0  0  0  0  0
  181.1280  181.3960  137.9740 C   0  0  0  0  0  3  0  0  0  0  0  0
  1  7  1  0  0  0  0
  1 21  1  0  0  0  0
  2  9  1  0  0  0  0
  4  3  2  0  0  0  0
  5 13  1  0  0  0  0
  8  3  1  0  0  0  0
  9  6  1  1  0  0  0
 10  9  1  0  0  0  0
 10  8  2  0  0  0  0
 11 16  1  0  0  0  0
 12  1  2  0  0  0  0
 13  6  1  0  0  0  0
 13  7  2  0  0  0  0
 14  5  2  0  0  0  0
 14 12  1  0  0  0  0
 15  4  1  0  0  0  0
 16 15  2  0  0  0  0
 16 10  1  0  0  0  0
 17 11  1  0  0  0  0
 18  2  2  0  0  0  0
 18  5  1  0  0  0  0
 19 11  2  0  0  0  0
 19  2  1  0  0  0  0
 20 21  2  0  0  0  0
 22 20  1  6  0  0  0
 23 24  1  0  0  0  0
 23 22  1  0  0  0  0
 24 22  1  0  0  0  0
 25 29  1  6  0  0  0
 25 17  1  0  0  0  0
 26 25  1  0  0  0  0
 27 26  1  0  0  0  0
 27 28  1  0  0  0  0
 29 32  1  0  0  0  0
 30 32  1  0  0  0  0
 31 30  1  0  0  0  0
 31 32  1  0  0  0  0
M  END
>  <MODEL>
5

>  <REMARK>
 VINA RESULT:      -8.3      2.468      9.954
  Name = 
  7 active torsions:
  status: ('A' for Active; 'I' for Inactive)
    1  A    between atoms: C_1  and  N_10
    2  A    between atoms: C_2  and  C_24
    3  A    between atoms: C_6  and  C_7
    4  A    between atoms: C_7  and  C_32
    5  A    between atoms: C_22  and  C_30
    6  A    between atoms: C_22  and  C_32
    7  A    between atoms: N_27  and  C_32
                            x       y       z     vdW  Elec       q    Type
                         _______ _______ _______ _____ _____    ______ ____

>  <TORSDO>
F 7

$$$$
=
 OpenBabel10262421343D

 32 37  0  0  1  0  0  0  0  0999 V2000
  181.6480  178.9740  142.2250 C   0  0  0  0  0  0  0  0  0  0  0  0
  186.3630  178.3690  143.9160 C   0  0  0  0  0  0  0  0  0  0  0  0
  189.2510  177.5500  139.9920 C   0  0  0  0  0  3  0  0  0  0  0  0
  190.2950  177.2270  140.8630 C   0  0  0  0  0  3  0  0  0  0  0  0
  183.9960  178.6530  143.7230 C   0  0  0  0  0  0  0  0  0  0  0  0
  185.2880  178.0260  141.6690 C   0  0  0  0  0  2  0  0  0  0  0  0
  182.8470  178.6240  141.5850 C   0  0  0  0  0  3  0  0  0  0  0  0
  188.0210  177.9680  140.5020 C   0  0  0  0  0  3  0  0  0  0  0  0
  186.5060  178.5810  142.4210 C   0  0  2  0  0  3  0  0  0  0  0  0
  187.8120  178.0480  141.8870 C   0  0  0  0  0  0  0  0  0  0  0  0
  188.6890  177.8610  144.2280 C   0  0  0  0  0  0  0  0  0  0  0  0
  181.6300  179.1510  143.6140 C   0  0  0  0  0  3  0  0  0  0  0  0
  184.0190  178.4740  142.3290 C   0  0  0  0  0  0  0  0  0  0  0  0
  182.8000  178.9870  144.3630 C   0  0  0  0  0  3  0  0  0  0  0  0
  190.1070  177.3280  142.2430 C   0  0  0  0  0  3  0  0  0  0  0  0
  188.8740  177.7450  142.7650 C   0  0  0  0  0  0  0  0  0  0  0  0
  189.8010  177.6350  145.1020 N   0  0  0  0  0  2  0  0  0  0  0  0
  185.1980  178.4750  144.4850 N   0  0  0  0  0  0  0  0  0  0  0  0
  187.5190  178.1370  144.7260 N   0  0  0  0  0  0  0  0  0  0  0  0
  180.2190  180.1710  140.7020 N   0  0  0  0  0  0  0  0  0  0  0  0
  180.4040  179.1470  141.4690 C   0  0  0  0  0  3  0  0  0  0  0  0
  178.9760  180.3130  139.9660 C   0  0  2  0  0  3  0  0  0  0  0  0
  179.2520  180.2800  138.5870 O   0  0  0  0  0  0  0  0  0  0  0  0
  179.0170  181.5450  139.1520 C   0  0  0  0  0  2  0  0  0  0  0  0
  189.7130  177.7530  146.5520 C   0  0  1  0  0  3  0  0  0  0  0  0
  188.5900  176.8650  147.0900 C   0  0  0  0  0  2  0  0  0  0  0  0
  187.9300  177.4560  148.3260 C   0  0  0  0  0  2  0  0  0  0  0  0
  186.9420  178.3590  147.9390 O   0  0  0  0  0  1  0  0  0  0  0  0
  191.0560  177.4170  147.1950 C   0  0  0  0  0  2  0  0  0  0  0  0
  192.4980  175.6280  148.0920 C   0  0  0  0  0  2  0  0  0  0  0  0
  192.4310  175.4560  146.5900 C   0  0  0  0  0  2  0  0  0  0  0  0
  191.2060  175.9160  147.3550 C   0  0  0  0  0  3  0  0  0  0  0  0
  1 12  1  0  0  0  0
  2 18  2  0  0  0  0
  2 19  1  0  0  0  0
  3  8  2  0  0  0  0
  3  4  1  0  0  0  0
  4 15  2  0  0  0  0
  5 14  1  0  0  0  0
  5 18  1  0  0  0  0
  6 13  1  0  0  0  0
  7  1  2  0  0  0  0
  7 13  1  0  0  0  0
  8 10  1  0  0  0  0
  9  6  1  6  0  0  0
  9  2  1  0  0  0  0
 10  9  1  0  0  0  0
 10 16  2  0  0  0  0
 11 19  2  0  0  0  0
 11 17  1  0  0  0  0
 12 14  2  0  0  0  0
 13  5  2  0  0  0  0
 15 16  1  0  0  0  0
 16 11  1  0  0  0  0
 17 25  1  0  0  0  0
 20 21  2  0  0  0  0
 21  1  1  0  0  0  0
 22 20  1  1  0  0  0
 23 24  1  0  0  0  0
 23 22  1  0  0  0  0
 24 22  1  0  0  0  0
 25 26  1  1  0  0  0
 25 29  1  0  0  0  0
 26 27  1  0  0  0  0
 28 27  1  0  0  0  0
 29 32  1  0  0  0  0
 31 32  1  0  0  0  0
 31 30  1  0  0  0  0
 32 30  1  0  0  0  0
M  END
>  <MODEL>
6

>  <REMARK>
 VINA RESULT:      -8.3      1.354      2.206
  Name = 
  7 active torsions:
  status: ('A' for Active; 'I' for Inactive)
    1  A    between atoms: C_1  and  N_10
    2  A    between atoms: C_2  and  C_24
    3  A    between atoms: C_6  and  C_7
    4  A    between atoms: C_7  and  C_32
    5  A    between atoms: C_22  and  C_30
    6  A    between atoms: C_22  and  C_32
    7  A    between atoms: N_27  and  C_32
                            x       y       z     vdW  Elec       q    Type
                         _______ _______ _______ _____ _____    ______ ____

>  <TORSDO>
F 7

$$$$
=
 OpenBabel10262421343D

 32 37  0  0  1  0  0  0  0  0999 V2000
  182.4120  178.9630  142.4240 C   0  0  0  0  0  0  0  0  0  0  0  0
  187.0680  177.7490  143.9440 C   0  0  0  0  0  0  0  0  0  0  0  0
  187.2530  178.4260  148.8350 C   0  0  0  0  0  3  0  0  0  0  0  0
  188.6350  178.2320  148.7810 C   0  0  0  0  0  3  0  0  0  0  0  0
  185.1120  178.2450  142.6590 C   0  0  0  0  0  0  0  0  0  0  0  0
  185.1190  178.8500  145.0920 C   0  0  0  0  0  2  0  0  0  0  0  0
  183.0560  179.0540  143.6670 C   0  0  0  0  0  3  0  0  0  0  0  0
  186.4860  178.3080  147.6750 C   0  0  0  0  0  3  0  0  0  0  0  0
  186.2420  177.8110  145.2160 C   0  0  2  0  0  3  0  0  0  0  0  0
  187.0930  178.0170  146.4440 C   0  0  0  0  0  0  0  0  0  0  0  0
  189.1420  177.4510  145.1150 C   0  0  0  0  0  0  0  0  0  0  0  0
  183.1260  178.5240  141.3030 C   0  0  0  0  0  3  0  0  0  0  0  0
  184.3980  178.6860  143.7880 C   0  0  0  0  0  0  0  0  0  0  0  0
  184.4740  178.1690  141.4190 C   0  0  0  0  0  3  0  0  0  0  0  0
  189.2480  177.9170  147.5670 C   0  0  0  0  0  3  0  0  0  0  0  0
  188.4860  177.7990  146.3950 C   0  0  0  0  0  0  0  0  0  0  0  0
  190.5420  177.1470  145.0980 N   0  0  0  0  0  2  0  0  0  0  0  0
  186.4960  177.8910  142.7840 N   0  0  0  0  0  0  0  0  0  0  0  0
  188.4650  177.4500  144.0040 N   0  0  0  0  0  0  0  0  0  0  0  0
  180.5200  179.6910  141.1240 N   0  0  0  0  0  0  0  0  0  0  0  0
  181.0020  179.3330  142.2690 C   0  0  0  0  0  3  0  0  0  0  0  0
  179.1200  180.0510  141.0050 C   0  0  2  0  0  3  0  0  0  0  0  0
  178.9310  180.7710  139.8110 O   0  0  0  0  0  0  0  0  0  0  0  0
  178.9820  181.5220  140.9980 C   0  0  0  0  0  2  0  0  0  0  0  0
  191.2620  176.7710  143.8870 C   0  0  1  0  0  3  0  0  0  0  0  0
  191.2050  175.2570  143.6840 C   0  0  0  0  0  2  0  0  0  0  0  0
  192.2750  174.5280  144.4830 C   0  0  0  0  0  2  0  0  0  0  0  0
  192.0220  173.1580  144.4560 O   0  0  0  0  0  1  0  0  0  0  0  0
  190.7040  177.5240  142.6830 C   0  0  0  0  0  2  0  0  0  0  0  0
  191.2160  177.4990  140.2700 C   0  0  0  0  0  2  0  0  0  0  0  0
  189.7510  177.1640  140.4340 C   0  0  0  0  0  2  0  0  0  0  0  0
  190.7600  176.6550  141.4410 C   0  0  0  0  0  3  0  0  0  0  0  0
  1  7  1  0  0  0  0
  2 19  1  0  0  0  0
  2  9  1  0  0  0  0
  4  3  1  0  0  0  0
  5 18  1  0  0  0  0
  5 13  1  0  0  0  0
  7 13  2  0  0  0  0
  8  3  2  0  0  0  0
  9  6  1  6  0  0  0
  9 10  1  0  0  0  0
 10  8  1  0  0  0  0
 11 16  1  0  0  0  0
 12 14  1  0  0  0  0
 12  1  2  0  0  0  0
 13  6  1  0  0  0  0
 14  5  2  0  0  0  0
 15  4  2  0  0  0  0
 16 10  2  0  0  0  0
 16 15  1  0  0  0  0
 17 11  1  0  0  0  0
 18  2  2  0  0  0  0
 19 11  2  0  0  0  0
 20 21  2  0  0  0  0
 21  1  1  0  0  0  0
 22 20  1  6  0  0  0
 23 24  1  0  0  0  0
 23 22  1  0  0  0  0
 24 22  1  0  0  0  0
 25 29  1  6  0  0  0
 25 17  1  0  0  0  0
 26 25  1  0  0  0  0
 26 27  1  0  0  0  0
 28 27  1  0  0  0  0
 30 31  1  0  0  0  0
 30 32  1  0  0  0  0
 31 32  1  0  0  0  0
 32 29  1  0  0  0  0
M  END
>  <MODEL>
7

>  <REMARK>
 VINA RESULT:      -8.2      1.551      4.423
  Name = 
  7 active torsions:
  status: ('A' for Active; 'I' for Inactive)
    1  A    between atoms: C_1  and  N_10
    2  A    between atoms: C_2  and  C_24
    3  A    between atoms: C_6  and  C_7
    4  A    between atoms: C_7  and  C_32
    5  A    between atoms: C_22  and  C_30
    6  A    between atoms: C_22  and  C_32
    7  A    between atoms: N_27  and  C_32
                            x       y       z     vdW  Elec       q    Type
                         _______ _______ _______ _____ _____    ______ ____

>  <TORSDO>
F 7

$$$$
=
 OpenBabel10262421343D

 32 37  0  0  1  0  0  0  0  0999 V2000
  189.9010  177.7380  139.3590 C   0  0  0  0  0  0  0  0  0  0  0  0
  185.1120  178.7610  140.5750 C   0  0  0  0  0  0  0  0  0  0  0  0
  184.8120  178.8040  145.5070 C   0  0  0  0  0  3  0  0  0  0  0  0
  183.4220  178.8680  145.3940 C   0  0  0  0  0  3  0  0  0  0  0  0
  187.1450  178.2500  139.4230 C   0  0  0  0  0  0  0  0  0  0  0  0
  187.1030  178.0140  141.9190 C   0  0  0  0  0  2  0  0  0  0  0  0
  189.2230  177.7790  140.5870 C   0  0  0  0  0  3  0  0  0  0  0  0
  185.6070  178.8130  144.3590 C   0  0  0  0  0  3  0  0  0  0  0  0
  185.8950  178.9590  141.8600 C   0  0  2  0  0  3  0  0  0  0  0  0
  185.0220  178.8660  143.0860 C   0  0  0  0  0  0  0  0  0  0  0  0
  182.9810  179.0500  141.6420 C   0  0  0  0  0  0  0  0  0  0  0  0
  189.1930  177.9440  138.1690 C   0  0  0  0  0  3  0  0  0  0  0  0
  187.8530  178.0440  140.6210 C   0  0  0  0  0  0  0  0  0  0  0  0
  187.8170  178.1950  138.2000 C   0  0  0  0  0  3  0  0  0  0  0  0
  182.8280  178.9460  144.1320 C   0  0  0  0  0  3  0  0  0  0  0  0
  183.6180  178.9540  142.9730 C   0  0  0  0  0  0  0  0  0  0  0  0
  181.5620  179.2280  141.5470 N   0  0  0  0  0  2  0  0  0  0  0  0
  185.7330  178.4990  139.4630 N   0  0  0  0  0  0  0  0  0  0  0  0
  183.6940  178.9450  140.5590 N   0  0  0  0  0  0  0  0  0  0  0  0
  191.8320  176.6260  138.4480 N   0  0  0  0  0  0  0  0  0  0  0  0
  191.3410  177.4720  139.2930 C   0  0  0  0  0  3  0  0  0  0  0  0
  193.2630  176.3850  138.4080 C   0  0  2  0  0  3  0  0  0  0  0  0
  193.7580  176.7710  137.1490 O   0  0  0  0  0  0  0  0  0  0  0  0
  193.5710  175.3940  137.3570 C   0  0  0  0  0  2  0  0  0  0  0  0
  180.8570  179.3570  140.2780 C   0  0  1  0  0  3  0  0  0  0  0  0
  179.6180  178.4610  140.2670 C   0  0  0  0  0  2  0  0  0  0  0  0
  179.2420  177.9780  141.6600 C   0  0  0  0  0  2  0  0  0  0  0  0
  179.3080  176.5870  141.7020 O   0  0  0  0  0  1  0  0  0  0  0  0
  180.5010  180.8170  140.0140 C   0  0  0  0  0  2  0  0  0  0  0  0
  181.5180  180.5410  137.7840 C   0  0  0  0  0  2  0  0  0  0  0  0
  181.3590  182.0240  138.0380 C   0  0  0  0  0  2  0  0  0  0  0  0
  180.3040  181.0540  138.5300 C   0  0  0  0  0  3  0  0  0  0  0  0
  1  7  1  0  0  0  0
  2  9  1  0  0  0  0
  4  3  1  0  0  0  0
  5 18  1  0  0  0  0
  5 13  1  0  0  0  0
  7 13  2  0  0  0  0
  8  3  2  0  0  0  0
  9  6  1  1  0  0  0
  9 10  1  0  0  0  0
 10  8  1  0  0  0  0
 11 16  1  0  0  0  0
 12 14  1  0  0  0  0
 12  1  2  0  0  0  0
 13  6  1  0  0  0  0
 14  5  2  0  0  0  0
 15  4  2  0  0  0  0
 16 10  2  0  0  0  0
 16 15  1  0  0  0  0
 17 11  1  0  0  0  0
 18  2  2  0  0  0  0
 19  2  1  0  0  0  0
 19 11  2  0  0  0  0
 20 21  2  0  0  0  0
 21  1  1  0  0  0  0
 22 20  1  6  0  0  0
 23 24  1  0  0  0  0
 23 22  1  0  0  0  0
 24 22  1  0  0  0  0
 25 29  1  1  0  0  0
 25 17  1  0  0  0  0
 26 25  1  0  0  0  0
 26 27  1  0  0  0  0
 27 28  1  0  0  0  0
 30 31  1  0  0  0  0
 30 32  1  0  0  0  0
 31 32  1  0  0  0  0
 32 29  1  0  0  0  0
M  END
>  <MODEL>
8

>  <REMARK>
 VINA RESULT:      -8.1      3.787      9.882
  Name = 
  7 active torsions:
  status: ('A' for Active; 'I' for Inactive)
    1  A    between atoms: C_1  and  N_10
    2  A    between atoms: C_2  and  C_24
    3  A    between atoms: C_6  and  C_7
    4  A    between atoms: C_7  and  C_32
    5  A    between atoms: C_22  and  C_30
    6  A    between atoms: C_22  and  C_32
    7  A    between atoms: N_27  and  C_32
                            x       y       z     vdW  Elec       q    Type
                         _______ _______ _______ _____ _____    ______ ____

>  <TORSDO>
F 7

$$$$
=
 OpenBabel10262421343D

 32 37  0  0  1  0  0  0  0  0999 V2000
  190.9190  177.1090  139.0130 C   0  0  0  0  0  0  0  0  0  0  0  0
  186.5640  178.2870  141.2730 C   0  0  0  0  0  0  0  0  0  0  0  0
  187.2160  177.7120  146.1370 C   0  0  0  0  0  3  0  0  0  0  0  0
  185.8410  177.8840  146.3130 C   0  0  0  0  0  3  0  0  0  0  0  0
  188.2850  177.7920  139.6860 C   0  0  0  0  0  0  0  0  0  0  0  0
  188.6980  177.2400  142.0960 C   0  0  0  0  0  2  0  0  0  0  0  0
  190.4950  177.0360  140.3490 C   0  0  0  0  0  3  0  0  0  0  0  0
  187.7750  177.8160  144.8620 C   0  0  0  0  0  3  0  0  0  0  0  0
  187.5930  178.2640  142.3880 C   0  0  2  0  0  3  0  0  0  0  0  0
  186.9640  178.0720  143.7460 C   0  0  0  0  0  0  0  0  0  0  0  0
  184.7110  178.5790  142.7710 C   0  0  0  0  0  0  0  0  0  0  0  0
  190.0190  177.5140  138.0210 C   0  0  0  0  0  3  0  0  0  0  0  0
  189.1860  177.3870  140.6860 C   0  0  0  0  0  0  0  0  0  0  0  0
  188.7030  177.8510  138.3550 C   0  0  0  0  0  3  0  0  0  0  0  0
  185.0270  178.1640  145.2130 C   0  0  0  0  0  3  0  0  0  0  0  0
  185.5790  178.2680  143.9280 C   0  0  0  0  0  0  0  0  0  0  0  0
  183.3230  178.8620  142.9840 N   0  0  0  0  0  2  0  0  0  0  0  0
  186.9350  178.1290  140.0360 N   0  0  0  0  0  0  0  0  0  0  0  0
  185.1910  178.5660  141.5620 N   0  0  0  0  0  0  0  0  0  0  0  0
  192.5630  176.2920  137.4550 N   0  0  0  0  0  0  0  0  0  0  0  0
  192.2900  176.7570  138.6300 C   0  0  0  0  0  3  0  0  0  0  0  0
  193.9300  175.9540  137.1070 C   0  0  2  0  0  3  0  0  0  0  0  0
  194.4820  176.9980  136.3420 O   0  0  0  0  0  0  0  0  0  0  0  0
  194.0610  175.8560  135.6380 C   0  0  0  0  0  2  0  0  0  0  0  0
  182.4030  179.2010  141.9050 C   0  0  1  0  0  3  0  0  0  0  0  0
  182.3960  178.0980  140.8470 C   0  0  0  0  0  2  0  0  0  0  0  0
  182.1540  178.6430  139.4470 C   0  0  0  0  0  2  0  0  0  0  0  0
  182.9750  179.7470  139.2300 O   0  0  0  0  0  1  0  0  0  0  0  0
  181.0060  179.4600  142.4600 C   0  0  0  0  0  2  0  0  0  0  0  0
  180.0550  177.7200  143.9280 C   0  0  0  0  0  2  0  0  0  0  0  0
  179.4610  179.0480  144.3420 C   0  0  0  0  0  2  0  0  0  0  0  0
  180.9050  178.9720  143.8930 C   0  0  0  0  0  3  0  0  0  0  0  0
  1  7  1  0  0  0  0
  2 19  1  0  0  0  0
  2  9  1  0  0  0  0
  3  4  1  0  0  0  0
  5 18  1  0  0  0  0
  5 13  1  0  0  0  0
  7 13  2  0  0  0  0
  8  3  2  0  0  0  0
  9  6  1  6  0  0  0
  9 10  1  0  0  0  0
 10 16  2  0  0  0  0
 10  8  1  0  0  0  0
 11 17  1  0  0  0  0
 11 16  1  0  0  0  0
 12 14  1  0  0  0  0
 12  1  2  0  0  0  0
 13  6  1  0  0  0  0
 14  5  2  0  0  0  0
 15  4  2  0  0  0  0
 16 15  1  0  0  0  0
 18  2  2  0  0  0  0
 19 11  2  0  0  0  0
 20 21  2  0  0  0  0
 21  1  1  0  0  0  0
 22 20  1  6  0  0  0
 23 22  1  0  0  0  0
 24 23  1  0  0  0  0
 24 22  1  0  0  0  0
 25 26  1  6  0  0  0
 25 29  1  0  0  0  0
 25 17  1  0  0  0  0
 27 26  1  0  0  0  0
 28 27  1  0  0  0  0
 29 32  1  0  0  0  0
 30 31  1  0  0  0  0
 32 30  1  0  0  0  0
 32 31  1  0  0  0  0
M  END
>  <MODEL>
9

>  <REMARK>
 VINA RESULT:      -8.1      3.349      9.248
  Name = 
  7 active torsions:
  status: ('A' for Active; 'I' for Inactive)
    1  A    between atoms: C_1  and  N_10
    2  A    between atoms: C_2  and  C_24
    3  A    between atoms: C_6  and  C_7
    4  A    between atoms: C_7  and  C_32
    5  A    between atoms: C_22  and  C_30
    6  A    between atoms: C_22  and  C_32
    7  A    between atoms: N_27  and  C_32
                            x       y       z     vdW  Elec       q    Type
                         _______ _______ _______ _____ _____    ______ ____

>  <TORSDO>
F 7

$$$$
