=
 OpenBabel10262423193D

 34 39  0  0  1  0  0  0  0  0999 V2000
  182.5620  175.3430  138.7660 C   0  0  0  0  0  0  0  0  0  0  0  0
  179.7910  176.1180  138.9150 C   0  0  0  0  0  0  0  0  0  0  0  0
  180.3990  173.4690  136.7090 C   0  0  2  0  0  0  0  0  0  0  0  0
  179.7040  178.7000  141.1050 C   0  0  0  0  0  2  0  0  0  0  0  0
  181.0980  178.8280  141.5460 C   0  0  0  0  0  2  0  0  0  0  0  0
  181.8600  173.3050  137.1900 C   0  0  0  0  0  2  0  0  0  0  0  0
  182.3260  174.4240  138.0230 C   0  0  0  0  0  0  0  0  0  0  0  0
  180.6930  177.5800  140.7380 C   0  0  0  0  0  0  0  0  0  0  0  0
  179.4000  173.6860  137.8770 C   0  0  0  0  0  2  0  0  0  0  0  0
  179.5360  175.0170  138.4940 C   0  0  0  0  0  0  0  0  0  0  0  0
  180.0170  172.1620  136.0430 C   0  0  0  0  0  1  0  0  0  0  0  0
  180.2220  177.4690  139.2890 C   0  0  1  0  0  3  0  0  0  0  0  0
  182.6860  176.4300  139.7440 C   0  0  0  0  0  2  0  0  0  0  0  0
  181.7080  177.6130  139.5300 C   0  0  2  0  0  0  0  0  0  0  0  0
  181.3180  179.9550  138.4010 C   0  0  0  0  0  2  0  0  0  0  0  0
  184.6150  178.0500  138.1330 C   0  0  0  0  0  2  0  0  0  0  0  0
  182.5570  177.8770  136.6060 C   0  0  0  0  0  2  0  0  0  0  0  0
  179.5340  180.2170  136.6650 C   0  0  0  0  0  3  0  0  0  0  0  0
  179.5400  178.9630  134.5940 C   0  0  0  0  0  3  0  0  0  0  0  0
  178.9490  179.9120  135.4340 C   0  0  0  0  0  3  0  0  0  0  0  0
  181.3200  178.6300  136.2040 C   0  0  0  0  0  0  0  0  0  0  0  0
  180.7100  179.5760  137.0670 C   0  0  0  0  0  0  0  0  0  0  0  0
  180.7190  178.3220  134.9810 C   0  0  0  0  0  3  0  0  0  0  0  0
  185.2640  178.9780  139.1730 C   0  0  1  0  0  3  0  0  0  0  0  0
  183.2020  179.6050  140.0220 C   0  0  0  0  0  2  0  0  0  0  0  0
  184.4450  180.0800  139.5410 O   0  0  0  0  0  0  0  0  0  0  0  0
  183.2690  178.6220  137.7250 C   0  0  1  0  0  3  0  0  0  0  0  0
  182.3490  178.9320  138.9250 C   0  0  1  0  0  0  0  0  0  0  0  0
  185.7730  178.1890  140.3780 C   0  0  0  0  0  2  0  0  0  0  0  0
  188.0180  178.6000  139.6670 O   0  0  0  0  0  1  0  0  0  0  0  0
  187.1690  178.6340  140.7740 C   0  0  0  0  0  2  0  0  0  0  0  0
  180.2850  174.5580  135.6630 C   0  0  0  0  0  0  0  0  0  0  0  0
  179.1580  175.0390  135.3650 O   0  0  0  0  0  1  0  0  0  0  0  0
  181.4090  175.0000  134.9750 O   0  0  0  0  0  0  0  0  0  0  0  0
  1 13  1  0  0  0  0
  3 11  1  6  0  0  0
  3  6  1  0  0  0  0
  3  9  1  0  0  0  0
  4  5  1  0  0  0  0
  6  7  1  0  0  0  0
  7  1  3  0  0  0  0
  8  4  1  0  0  0  0
  8  5  1  0  0  0  0
  9 10  1  0  0  0  0
 10  2  3  0  0  0  0
 12  2  1  1  0  0  0
 12 14  1  0  0  0  0
 12  8  1  0  0  0  0
 14 13  1  6  0  0  0
 14  8  1  0  0  0  0
 16 24  1  0  0  0  0
 18 22  1  0  0  0  0
 19 23  2  0  0  0  0
 19 20  1  0  0  0  0
 20 18  2  0  0  0  0
 21 17  1  0  0  0  0
 21 22  2  0  0  0  0
 22 15  1  0  0  0  0
 23 21  1  0  0  0  0
 24 26  1  0  0  0  0
 24 29  1  1  0  0  0
 26 25  1  0  0  0  0
 27 17  1  6  0  0  0
 27 16  1  0  0  0  0
 27 28  1  0  0  0  0
 28 15  1  6  0  0  0
 28 14  1  0  0  0  0
 28 25  1  0  0  0  0
 29 31  1  0  0  0  0
 30 31  1  0  0  0  0
 32  3  1  0  0  0  0
 33 32  1  0  0  0  0
 34 32  2  0  0  0  0
M  END
>  <MODEL>
1

>  <REMARK>
 VINA RESULT:      -4.5      0.000      0.000
  Name = 
  4 active torsions:
  status: ('A' for Active; 'I' for Inactive)
    1  A    between atoms: C_3  and  C_23
    2  A    between atoms: C_3  and  C_24
    3  A    between atoms: C_7  and  C_11
    4  A    between atoms: C_33  and  C_34
                            x       y       z     vdW  Elec       q    Type
                         _______ _______ _______ _____ _____    ______ ____

>  <TORSDO>
F 4

$$$$
=
 OpenBabel10262423193D

 34 39  0  0  1  0  0  0  0  0999 V2000
  182.6020  177.2100  136.1120 C   0  0  0  0  0  0  0  0  0  0  0  0
  183.4230  175.6920  138.4200 C   0  0  0  0  0  0  0  0  0  0  0  0
  183.0990  173.7720  135.5110 C   0  0  2  0  0  0  0  0  0  0  0  0
  183.5560  177.9310  140.9570 C   0  0  0  0  0  2  0  0  0  0  0  0
  183.2180  179.2050  140.3140 C   0  0  0  0  0  2  0  0  0  0  0  0
  182.9270  175.0230  134.6150 C   0  0  0  0  0  2  0  0  0  0  0  0
  182.6920  176.2560  135.3810 C   0  0  0  0  0  0  0  0  0  0  0  0
  183.5180  177.9860  139.4200 C   0  0  0  0  0  0  0  0  0  0  0  0
  184.2240  173.9390  136.5680 C   0  0  0  0  0  2  0  0  0  0  0  0
  183.8530  174.8770  137.6410 C   0  0  0  0  0  0  0  0  0  0  0  0
  183.5250  172.6430  134.5940 C   0  0  0  0  0  1  0  0  0  0  0  0
  182.7450  176.6770  139.2690 C   0  0  1  0  0  3  0  0  0  0  0  0
  182.6320  178.2980  137.0960 C   0  0  0  0  0  2  0  0  0  0  0  0
  182.2170  177.8870  138.5320 C   0  0  2  0  0  0  0  0  0  0  0  0
  180.2820  177.7120  140.3030 C   0  0  0  0  0  2  0  0  0  0  0  0
  179.7190  178.9490  136.7360 C   0  0  0  0  0  2  0  0  0  0  0  0
  179.6380  176.5340  137.6070 C   0  0  0  0  0  2  0  0  0  0  0  0
  179.6910  175.4860  141.2830 C   0  0  0  0  0  3  0  0  0  0  0  0
  178.9310  173.6290  139.9290 C   0  0  0  0  0  3  0  0  0  0  0  0
  179.2500  174.1650  141.1800 C   0  0  0  0  0  3  0  0  0  0  0  0
  179.4740  175.7410  138.8740 C   0  0  0  0  0  0  0  0  0  0  0  0
  179.8190  176.2800  140.1400 C   0  0  0  0  0  0  0  0  0  0  0  0
  179.0460  174.4140  138.7800 C   0  0  0  0  0  3  0  0  0  0  0  0
  179.6490  180.4040  137.2260 C   0  0  1  0  0  3  0  0  0  0  0  0
  180.7970  179.8920  139.1710 C   0  0  0  0  0  2  0  0  0  0  0  0
  179.6500  180.5280  138.6410 O   0  0  0  0  0  0  0  0  0  0  0  0
  179.6990  178.0170  137.9350 C   0  0  1  0  0  3  0  0  0  0  0  0
  180.7730  178.3590  138.9900 C   0  0  1  0  0  0  0  0  0  0  0  0
  180.7180  181.2660  136.5540 C   0  0  0  0  0  2  0  0  0  0  0  0
  181.2310  183.5520  137.0260 O   0  0  0  0  0  1  0  0  0  0  0  0
  180.2720  182.7140  136.4570 C   0  0  0  0  0  2  0  0  0  0  0  0
  181.7860  173.3670  136.1470 C   0  0  0  0  0  0  0  0  0  0  0  0
  181.7720  172.5760  137.1280 O   0  0  0  0  0  1  0  0  0  0  0  0
  180.5790  173.8110  135.6210 O   0  0  0  0  0  0  0  0  0  0  0  0
  1 13  1  0  0  0  0
  3 11  1  6  0  0  0
  3 32  1  0  0  0  0
  3  9  1  0  0  0  0
  5  4  1  0  0  0  0
  6  7  1  0  0  0  0
  6  3  1  0  0  0  0
  7  1  3  0  0  0  0
  8  5  1  0  0  0  0
  8  4  1  0  0  0  0
  9 10  1  0  0  0  0
 10  2  3  0  0  0  0
 12  2  1  6  0  0  0
 12  8  1  0  0  0  0
 14 13  1  6  0  0  0
 14 28  1  0  0  0  0
 14 12  1  0  0  0  0
 14  8  1  0  0  0  0
 16 24  1  0  0  0  0
 17 27  1  0  0  0  0
 17 21  1  0  0  0  0
 19 20  2  0  0  0  0
 20 18  1  0  0  0  0
 21 22  1  0  0  0  0
 22 15  1  0  0  0  0
 22 18  2  0  0  0  0
 23 21  2  0  0  0  0
 23 19  1  0  0  0  0
 24 29  1  6  0  0  0
 24 26  1  0  0  0  0
 26 25  1  0  0  0  0
 27 16  1  6  0  0  0
 27 28  1  0  0  0  0
 28 25  1  1  0  0  0
 28 15  1  0  0  0  0
 31 29  1  0  0  0  0
 31 30  1  0  0  0  0
 32 33  1  0  0  0  0
 34 32  2  0  0  0  0
M  END
>  <MODEL>
2

>  <REMARK>
 VINA RESULT:      -4.4      2.286      4.751
  Name = 
  4 active torsions:
  status: ('A' for Active; 'I' for Inactive)
    1  A    between atoms: C_3  and  C_23
    2  A    between atoms: C_3  and  C_24
    3  A    between atoms: C_7  and  C_11
    4  A    between atoms: C_33  and  C_34
                            x       y       z     vdW  Elec       q    Type
                         _______ _______ _______ _____ _____    ______ ____

>  <TORSDO>
F 4

$$$$
=
 OpenBabel10262423193D

 34 39  0  0  1  0  0  0  0  0999 V2000
  180.9320  176.0650  139.3640 C   0  0  0  0  0  0  0  0  0  0  0  0
  182.7470  178.1860  138.6550 C   0  0  0  0  0  0  0  0  0  0  0  0
  180.7040  178.9360  141.3970 C   0  0  2  0  0  0  0  0  0  0  0  0
  184.4560  177.0360  135.9680 C   0  0  0  0  0  2  0  0  0  0  0  0
  183.9360  175.6770  135.7810 C   0  0  0  0  0  2  0  0  0  0  0  0
  180.1800  177.4830  141.4980 C   0  0  0  0  0  2  0  0  0  0  0  0
  180.5180  176.6620  140.3260 C   0  0  0  0  0  0  0  0  0  0  0  0
  183.5830  176.4290  137.0790 C   0  0  0  0  0  0  0  0  0  0  0  0
  182.2350  179.0080  141.1460 C   0  0  0  0  0  2  0  0  0  0  0  0
  182.6020  178.5900  139.7830 C   0  0  0  0  0  0  0  0  0  0  0  0
  180.4510  179.5780  142.7460 C   0  0  0  0  0  1  0  0  0  0  0  0
  182.7410  177.6880  137.2760 C   0  0  1  0  0  3  0  0  0  0  0  0
  181.5960  175.4200  138.2260 C   0  0  0  0  0  2  0  0  0  0  0  0
  182.0060  176.3810  137.0810 C   0  0  2  0  0  0  0  0  0  0  0  0
  181.3490  177.4750  134.7830 C   0  0  0  0  0  2  0  0  0  0  0  0
  179.0500  175.0820  136.6700 C   0  0  0  0  0  2  0  0  0  0  0  0
  179.2230  177.6330  136.9110 C   0  0  0  0  0  2  0  0  0  0  0  0
  181.1770  179.9650  134.5940 C   0  0  0  0  0  3  0  0  0  0  0  0
  179.6220  181.2650  135.9180 C   0  0  0  0  0  3  0  0  0  0  0  0
  180.6240  181.1980  134.9460 C   0  0  0  0  0  3  0  0  0  0  0  0
  179.7020  178.8570  136.1820 C   0  0  0  0  0  0  0  0  0  0  0  0
  180.7350  178.7910  135.2110 C   0  0  0  0  0  0  0  0  0  0  0  0
  179.1660  180.0980  136.5360 C   0  0  0  0  0  3  0  0  0  0  0  0
  179.4020  173.9420  135.7010 C   0  0  1  0  0  3  0  0  0  0  0  0
  181.3710  174.9800  135.0610 C   0  0  0  0  0  2  0  0  0  0  0  0
  180.1890  174.3580  134.5940 O   0  0  0  0  0  0  0  0  0  0  0  0
  179.5990  176.3880  136.1220 C   0  0  1  0  0  3  0  0  0  0  0  0
  181.1020  176.3210  135.7790 C   0  0  1  0  0  0  0  0  0  0  0  0
  180.0070  172.7510  136.4450 C   0  0  0  0  0  2  0  0  0  0  0  0
  179.2230  170.4930  136.4110 O   0  0  0  0  0  1  0  0  0  0  0  0
  178.9310  171.7740  136.8820 C   0  0  0  0  0  2  0  0  0  0  0  0
  179.9280  179.7290  140.3660 C   0  0  0  0  0  0  0  0  0  0  0  0
  178.9350  179.2140  139.7840 O   0  0  0  0  0  0  0  0  0  0  0  0
  180.3350  181.0070  140.0040 O   0  0  0  0  0  1  0  0  0  0  0  0
  1  7  3  0  0  0  0
  2 10  3  0  0  0  0
  3  6  1  0  0  0  0
  3 11  1  1  0  0  0
  4  8  1  0  0  0  0
  5  4  1  0  0  0  0
  5  8  1  0  0  0  0
  7  6  1  0  0  0  0
  8 14  1  0  0  0  0
  8 12  1  0  0  0  0
  9  3  1  0  0  0  0
 10  9  1  0  0  0  0
 12  2  1  1  0  0  0
 13  1  1  0  0  0  0
 14 12  1  0  0  0  0
 14 13  1  1  0  0  0
 15 22  1  0  0  0  0
 18 20  2  0  0  0  0
 18 22  1  0  0  0  0
 19 23  2  0  0  0  0
 20 19  1  0  0  0  0
 21 23  1  0  0  0  0
 21 17  1  0  0  0  0
 22 21  2  0  0  0  0
 24 29  1  1  0  0  0
 24 16  1  0  0  0  0
 25 28  1  0  0  0  0
 26 25  1  0  0  0  0
 26 24  1  0  0  0  0
 27 16  1  1  0  0  0
 27 17  1  0  0  0  0
 28 15  1  6  0  0  0
 28 27  1  0  0  0  0
 28 14  1  0  0  0  0
 29 31  1  0  0  0  0
 30 31  1  0  0  0  0
 32  3  1  0  0  0  0
 33 32  2  0  0  0  0
 34 32  1  0  0  0  0
M  END
>  <MODEL>
3

>  <REMARK>
 VINA RESULT:      -4.0      2.263      6.166
  Name = 
  4 active torsions:
  status: ('A' for Active; 'I' for Inactive)
    1  A    between atoms: C_3  and  C_23
    2  A    between atoms: C_3  and  C_24
    3  A    between atoms: C_7  and  C_11
    4  A    between atoms: C_33  and  C_34
                            x       y       z     vdW  Elec       q    Type
                         _______ _______ _______ _____ _____    ______ ____

>  <TORSDO>
F 4

$$$$
=
 OpenBabel10262423193D

 34 39  0  0  1  0  0  0  0  0999 V2000
  184.4690  174.4590  134.7100 C   0  0  0  0  0  0  0  0  0  0  0  0
  183.5310  177.1280  135.2530 C   0  0  0  0  0  0  0  0  0  0  0  0
  187.0160  176.8140  135.3370 C   0  0  2  0  0  0  0  0  0  0  0  0
  180.1530  176.9310  135.1070 C   0  0  0  0  0  2  0  0  0  0  0  0
  179.9020  175.5330  134.7420 C   0  0  0  0  0  2  0  0  0  0  0  0
  186.9760  175.3800  134.7570 C   0  0  0  0  0  2  0  0  0  0  0  0
  185.6270  174.7950  134.7520 C   0  0  0  0  0  0  0  0  0  0  0  0
  181.3430  176.0720  134.6450 C   0  0  0  0  0  0  0  0  0  0  0  0
  186.0420  177.7830  134.6140 C   0  0  0  0  0  2  0  0  0  0  0  0
  184.6310  177.5030  134.9310 C   0  0  0  0  0  0  0  0  0  0  0  0
  188.4170  177.3380  135.0900 C   0  0  0  0  0  1  0  0  0  0  0  0
  182.2780  176.5520  135.7540 C   0  0  1  0  0  3  0  0  0  0  0  0
  183.0270  174.2160  134.5940 C   0  0  0  0  0  2  0  0  0  0  0  0
  182.1460  175.0590  135.5510 C   0  0  2  0  0  0  0  0  0  0  0  0
  180.5180  175.0910  137.6140 C   0  0  0  0  0  2  0  0  0  0  0  0
  183.4450  172.6580  137.3230 C   0  0  0  0  0  2  0  0  0  0  0  0
  183.4460  175.0270  138.3160 C   0  0  0  0  0  2  0  0  0  0  0  0
  180.3460  177.1470  139.0310 C   0  0  0  0  0  3  0  0  0  0  0  0
  182.2420  178.0680  140.2220 C   0  0  0  0  0  3  0  0  0  0  0  0
  180.8870  178.1140  139.8810 C   0  0  0  0  0  3  0  0  0  0  0  0
  182.5230  176.0700  138.8790 C   0  0  0  0  0  0  0  0  0  0  0  0
  181.1530  176.1290  138.5150 C   0  0  0  0  0  0  0  0  0  0  0  0
  183.0570  177.0510  139.7190 C   0  0  0  0  0  3  0  0  0  0  0  0
  182.4890  171.5140  136.9490 C   0  0  1  0  0  3  0  0  0  0  0  0
  180.8470  172.9990  136.2670 C   0  0  0  0  0  2  0  0  0  0  0  0
  181.1150  171.8610  137.0630 O   0  0  0  0  0  0  0  0  0  0  0  0
  182.6340  173.8540  137.7920 C   0  0  1  0  0  3  0  0  0  0  0  0
  181.5380  174.2770  136.7900 C   0  0  1  0  0  0  0  0  0  0  0  0
  182.8400  170.9250  135.5830 C   0  0  0  0  0  2  0  0  0  0  0  0
  185.0940  170.1580  135.3730 O   0  0  0  0  0  1  0  0  0  0  0  0
  183.8030  169.7590  135.7210 C   0  0  0  0  0  2  0  0  0  0  0  0
  186.7940  176.8080  136.8350 C   0  0  0  0  0  0  0  0  0  0  0  0
  186.4680  177.8680  137.4330 O   0  0  0  0  0  0  0  0  0  0  0  0
  187.0040  175.6520  137.5760 O   0  0  0  0  0  1  0  0  0  0  0  0
  1  7  3  0  0  0  0
  3 11  1  6  0  0  0
  3 32  1  0  0  0  0
  5  4  1  0  0  0  0
  6  3  1  0  0  0  0
  7  6  1  0  0  0  0
  8  5  1  0  0  0  0
  8  4  1  0  0  0  0
  8 14  1  0  0  0  0
  8 12  1  0  0  0  0
  9 10  1  0  0  0  0
  9  3  1  0  0  0  0
 10  2  3  0  0  0  0
 12  2  1  6  0  0  0
 13  1  1  0  0  0  0
 14 13  1  6  0  0  0
 14 12  1  0  0  0  0
 14 28  1  0  0  0  0
 15 22  1  0  0  0  0
 17 21  1  0  0  0  0
 18 20  1  0  0  0  0
 20 19  2  0  0  0  0
 21 23  2  0  0  0  0
 22 21  1  0  0  0  0
 22 18  2  0  0  0  0
 23 19  1  0  0  0  0
 24 29  1  6  0  0  0
 24 26  1  0  0  0  0
 24 16  1  0  0  0  0
 25 26  1  0  0  0  0
 27 16  1  6  0  0  0
 27 17  1  0  0  0  0
 28 25  1  6  0  0  0
 28 15  1  0  0  0  0
 28 27  1  0  0  0  0
 29 31  1  0  0  0  0
 30 31  1  0  0  0  0
 32 33  2  0  0  0  0
 32 34  1  0  0  0  0
M  END
>  <MODEL>
4

>  <REMARK>
 VINA RESULT:      -3.8      2.841      6.675
  Name = 
  4 active torsions:
  status: ('A' for Active; 'I' for Inactive)
    1  A    between atoms: C_3  and  C_23
    2  A    between atoms: C_3  and  C_24
    3  A    between atoms: C_7  and  C_11
    4  A    between atoms: C_33  and  C_34
                            x       y       z     vdW  Elec       q    Type
                         _______ _______ _______ _____ _____    ______ ____

>  <TORSDO>
F 4

$$$$
=
 OpenBabel10262423193D

 34 39  0  0  1  0  0  0  0  0999 V2000
  183.4860  174.5760  134.6580 C   0  0  0  0  0  0  0  0  0  0  0  0
  183.9440  177.2900  135.5090 C   0  0  0  0  0  0  0  0  0  0  0  0
  186.8550  175.3530  135.3440 C   0  0  2  0  0  0  0  0  0  0  0  0
  180.8820  178.7370  135.5570 C   0  0  0  0  0  2  0  0  0  0  0  0
  179.9890  177.6760  135.0780 C   0  0  0  0  0  2  0  0  0  0  0  0
  186.1280  174.1860  134.6340 C   0  0  0  0  0  2  0  0  0  0  0  0
  184.6630  174.3150  134.6590 C   0  0  0  0  0  0  0  0  0  0  0  0
  181.5110  177.4740  134.9420 C   0  0  0  0  0  0  0  0  0  0  0  0
  186.4560  176.7430  134.7800 C   0  0  0  0  0  2  0  0  0  0  0  0
  185.0860  177.1310  135.1560 C   0  0  0  0  0  0  0  0  0  0  0  0
  188.3330  175.1740  135.0600 C   0  0  0  0  0  1  0  0  0  0  0  0
  182.5730  177.3240  136.0310 C   0  0  1  0  0  3  0  0  0  0  0  0
  182.1030  175.0610  134.6090 C   0  0  0  0  0  2  0  0  0  0  0  0
  181.7410  176.1060  135.6950 C   0  0  2  0  0  0  0  0  0  0  0  0
  180.2900  176.6790  137.8110 C   0  0  0  0  0  2  0  0  0  0  0  0
  181.8330  173.2360  137.2270 C   0  0  0  0  0  2  0  0  0  0  0  0
  182.8830  175.2640  138.4020 C   0  0  0  0  0  2  0  0  0  0  0  0
  181.0460  178.4680  139.3900 C   0  0  0  0  0  3  0  0  0  0  0  0
  183.1500  178.3490  140.5810 C   0  0  0  0  0  3  0  0  0  0  0  0
  181.9580  179.0190  140.2930 C   0  0  0  0  0  3  0  0  0  0  0  0
  182.5180  176.5560  139.0780 C   0  0  0  0  0  0  0  0  0  0  0  0
  181.3180  177.2470  138.7670 C   0  0  0  0  0  0  0  0  0  0  0  0
  183.4300  177.1230  139.9720 C   0  0  0  0  0  3  0  0  0  0  0  0
  180.4690  172.6710  136.7990 C   0  0  1  0  0  3  0  0  0  0  0  0
  179.6600  174.7820  136.2940 C   0  0  0  0  0  2  0  0  0  0  0  0
  179.3920  173.5790  136.9880 O   0  0  0  0  0  0  0  0  0  0  0  0
  181.6360  174.6220  137.8160 C   0  0  1  0  0  3  0  0  0  0  0  0
  180.8450  175.5710  136.8900 C   0  0  1  0  0  0  0  0  0  0  0  0
  180.5260  172.1070  135.3790 C   0  0  0  0  0  2  0  0  0  0  0  0
  179.5880  169.9720  135.9090 O   0  0  0  0  0  1  0  0  0  0  0  0
  180.7240  170.6020  135.3970 C   0  0  0  0  0  2  0  0  0  0  0  0
  186.6720  175.2830  136.8460 C   0  0  0  0  0  0  0  0  0  0  0  0
  187.0100  176.2550  137.5730 O   0  0  0  0  0  1  0  0  0  0  0  0
  186.1860  174.1280  137.4460 O   0  0  0  0  0  0  0  0  0  0  0  0
  1  7  3  0  0  0  0
  3 11  1  6  0  0  0
  3 32  1  0  0  0  0
  5  4  1  0  0  0  0
  6  7  1  0  0  0  0
  6  3  1  0  0  0  0
  8  5  1  0  0  0  0
  8  4  1  0  0  0  0
  8 14  1  0  0  0  0
  8 12  1  0  0  0  0
  9 10  1  0  0  0  0
  9  3  1  0  0  0  0
 10  2  3  0  0  0  0
 12  2  1  6  0  0  0
 13  1  1  0  0  0  0
 14 13  1  6  0  0  0
 14 12  1  0  0  0  0
 14 28  1  0  0  0  0
 15 22  1  0  0  0  0
 17 21  1  0  0  0  0
 18 20  1  0  0  0  0
 20 19  2  0  0  0  0
 21 23  2  0  0  0  0
 22 21  1  0  0  0  0
 22 18  2  0  0  0  0
 23 19  1  0  0  0  0
 24 29  1  6  0  0  0
 24 26  1  0  0  0  0
 24 16  1  0  0  0  0
 25 26  1  0  0  0  0
 27 16  1  6  0  0  0
 27 17  1  0  0  0  0
 28 25  1  6  0  0  0
 28 15  1  0  0  0  0
 28 27  1  0  0  0  0
 29 31  1  0  0  0  0
 31 30  1  0  0  0  0
 32 34  2  0  0  0  0
 32 33  1  0  0  0  0
M  END
>  <MODEL>
5

>  <REMARK>
 VINA RESULT:      -3.8      2.694      6.562
  Name = 
  4 active torsions:
  status: ('A' for Active; 'I' for Inactive)
    1  A    between atoms: C_3  and  C_23
    2  A    between atoms: C_3  and  C_24
    3  A    between atoms: C_7  and  C_11
    4  A    between atoms: C_33  and  C_34
                            x       y       z     vdW  Elec       q    Type
                         _______ _______ _______ _____ _____    ______ ____

>  <TORSDO>
F 4

$$$$
=
 OpenBabel10262423193D

 34 39  0  0  1  0  0  0  0  0999 V2000
  182.9250  175.9070  139.0920 C   0  0  0  0  0  0  0  0  0  0  0  0
  180.1380  176.4670  138.6200 C   0  0  0  0  0  0  0  0  0  0  0  0
  181.8020  175.1440  135.8390 C   0  0  2  0  0  0  0  0  0  0  0  0
  178.9810  177.7500  141.5330 C   0  0  0  0  0  2  0  0  0  0  0  0
  180.1440  177.6900  142.4250 C   0  0  0  0  0  2  0  0  0  0  0  0
  183.0680  174.8080  136.6630 C   0  0  0  0  0  2  0  0  0  0  0  0
  183.0740  175.4280  137.9960 C   0  0  0  0  0  0  0  0  0  0  0  0
  180.2110  176.9450  141.0780 C   0  0  0  0  0  0  0  0  0  0  0  0
  180.4870  174.7780  136.5790 C   0  0  0  0  0  2  0  0  0  0  0  0
  180.2080  175.6780  137.7100 C   0  0  0  0  0  0  0  0  0  0  0  0
  181.8580  174.2820  134.5940 C   0  0  0  0  0  1  0  0  0  0  0  0
  180.2030  177.5040  139.6560 C   0  0  1  0  0  3  0  0  0  0  0  0
  182.5730  176.4250  140.4190 C   0  0  0  0  0  2  0  0  0  0  0  0
  181.5090  177.5520  140.4170 C   0  0  2  0  0  0  0  0  0  0  0  0
  181.0010  180.1280  140.5380 C   0  0  0  0  0  2  0  0  0  0  0  0
  184.5200  178.7320  140.0460 C   0  0  0  0  0  2  0  0  0  0  0  0
  182.7730  179.2960  138.2490 C   0  0  0  0  0  2  0  0  0  0  0  0
  179.5000  181.1820  138.8360 C   0  0  0  0  0  3  0  0  0  0  0  0
  180.0000  181.1580  136.4670 C   0  0  0  0  0  3  0  0  0  0  0  0
  179.1640  181.5280  137.5250 C   0  0  0  0  0  3  0  0  0  0  0  0
  181.5280  180.1090  138.0280 C   0  0  0  0  0  0  0  0  0  0  0  0
  180.6690  180.4630  139.1000 C   0  0  0  0  0  0  0  0  0  0  0  0
  181.1760  180.4480  136.7190 C   0  0  0  0  0  3  0  0  0  0  0  0
  184.8670  179.0210  141.5150 C   0  0  1  0  0  3  0  0  0  0  0  0
  182.6320  179.0620  142.1210 C   0  0  0  0  0  2  0  0  0  0  0  0
  183.8630  179.7550  142.2020 O   0  0  0  0  0  0  0  0  0  0  0  0
  183.1930  179.3890  139.7070 C   0  0  1  0  0  3  0  0  0  0  0  0
  182.0610  179.0150  140.6870 C   0  0  1  0  0  0  0  0  0  0  0  0
  185.2750  177.7440  142.2490 C   0  0  0  0  0  2  0  0  0  0  0  0
  185.4430  178.3400  144.5580 O   0  0  0  0  0  1  0  0  0  0  0  0
  186.1940  178.0550  143.4170 C   0  0  0  0  0  2  0  0  0  0  0  0
  181.8080  176.5900  135.3880 C   0  0  0  0  0  0  0  0  0  0  0  0
  180.7470  177.1330  134.9790 O   0  0  0  0  0  0  0  0  0  0  0  0
  182.9920  177.3180  135.3610 O   0  0  0  0  0  1  0  0  0  0  0  0
  1 13  1  0  0  0  0
  3 11  1  6  0  0  0
  3  9  1  0  0  0  0
  3  6  1  0  0  0  0
  4  5  1  0  0  0  0
  6  7  1  0  0  0  0
  7  1  3  0  0  0  0
  8  4  1  0  0  0  0
  8  5  1  0  0  0  0
  9 10  1  0  0  0  0
 10  2  3  0  0  0  0
 12  2  1  6  0  0  0
 12 14  1  0  0  0  0
 12  8  1  0  0  0  0
 14 13  1  6  0  0  0
 14 28  1  0  0  0  0
 14  8  1  0  0  0  0
 16 24  1  0  0  0  0
 18 22  1  0  0  0  0
 19 23  2  0  0  0  0
 19 20  1  0  0  0  0
 20 18  2  0  0  0  0
 21 17  1  0  0  0  0
 21 22  2  0  0  0  0
 22 15  1  0  0  0  0
 23 21  1  0  0  0  0
 24 26  1  0  0  0  0
 24 29  1  1  0  0  0
 25 26  1  0  0  0  0
 27 17  1  6  0  0  0
 27 16  1  0  0  0  0
 27 28  1  0  0  0  0
 28 15  1  6  0  0  0
 28 25  1  0  0  0  0
 29 31  1  0  0  0  0
 31 30  1  0  0  0  0
 32  3  1  0  0  0  0
 33 32  2  0  0  0  0
 34 32  1  0  0  0  0
M  END
>  <MODEL>
6

>  <REMARK>
 VINA RESULT:      -3.7      1.830      2.286
  Name = 
  4 active torsions:
  status: ('A' for Active; 'I' for Inactive)
    1  A    between atoms: C_3  and  C_23
    2  A    between atoms: C_3  and  C_24
    3  A    between atoms: C_7  and  C_11
    4  A    between atoms: C_33  and  C_34
                            x       y       z     vdW  Elec       q    Type
                         _______ _______ _______ _____ _____    ______ ____

>  <TORSDO>
F 4

$$$$
=
 OpenBabel10262423193D

 34 39  0  0  1  0  0  0  0  0999 V2000
  182.0380  177.7370  134.9960 C   0  0  0  0  0  0  0  0  0  0  0  0
  179.3790  177.3100  136.0200 C   0  0  0  0  0  0  0  0  0  0  0  0
  180.0930  180.6610  135.3040 C   0  0  2  0  0  0  0  0  0  0  0  0
  179.1720  173.9790  136.5960 C   0  0  0  0  0  2  0  0  0  0  0  0
  180.4700  173.4670  136.1440 C   0  0  0  0  0  2  0  0  0  0  0  0
  181.4210  180.3050  134.5940 C   0  0  0  0  0  2  0  0  0  0  0  0
  181.8440  178.9140  134.8200 C   0  0  0  0  0  0  0  0  0  0  0  0
  180.0890  174.9180  135.7940 C   0  0  0  0  0  0  0  0  0  0  0  0
  178.9310  179.7050  134.9230 C   0  0  0  0  0  2  0  0  0  0  0  0
  179.0910  178.3630  135.5080 C   0  0  0  0  0  0  0  0  0  0  0  0
  179.7020  182.0420  134.8150 C   0  0  0  0  0  1  0  0  0  0  0  0
  179.8740  176.1170  136.7160 C   0  0  1  0  0  3  0  0  0  0  0  0
  182.0980  176.2820  135.1720 C   0  0  0  0  0  2  0  0  0  0  0  0
  181.3000  175.7400  136.3850 C   0  0  2  0  0  0  0  0  0  0  0  0
  181.3470  174.9960  138.9050 C   0  0  0  0  0  2  0  0  0  0  0  0
  184.3870  176.4610  137.1210 C   0  0  0  0  0  2  0  0  0  0  0  0
  182.5250  177.7150  138.3680 C   0  0  0  0  0  2  0  0  0  0  0  0
  179.8350  176.1100  140.5600 C   0  0  0  0  0  3  0  0  0  0  0  0
  179.9350  178.4840  141.0210 C   0  0  0  0  0  3  0  0  0  0  0  0
  179.3710  177.2270  141.2570 C   0  0  0  0  0  3  0  0  0  0  0  0
  181.4500  177.5110  139.3990 C   0  0  0  0  0  0  0  0  0  0  0  0
  180.8630  176.2390  139.6220 C   0  0  0  0  0  0  0  0  0  0  0  0
  180.9690  178.6250  140.0920 C   0  0  0  0  0  3  0  0  0  0  0  0
  185.0160  175.0650  136.9940 C   0  0  1  0  0  3  0  0  0  0  0  0
  182.9620  174.0250  137.2470 C   0  0  0  0  0  2  0  0  0  0  0  0
  184.3040  174.0540  137.6940 O   0  0  0  0  0  0  0  0  0  0  0  0
  183.1830  176.3840  138.0440 C   0  0  1  0  0  3  0  0  0  0  0  0
  182.1710  175.2930  137.6340 C   0  0  1  0  0  0  0  0  0  0  0  0
  185.2710  174.7050  135.5300 C   0  0  0  0  0  2  0  0  0  0  0  0
  187.6010  174.9020  136.0290 O   0  0  0  0  0  1  0  0  0  0  0  0
  186.6630  174.1280  135.3430 C   0  0  0  0  0  2  0  0  0  0  0  0
  180.2790  180.7490  136.8040 C   0  0  0  0  0  0  0  0  0  0  0  0
  181.4370  180.7990  137.2990 O   0  0  0  0  0  0  0  0  0  0  0  0
  179.1820  180.7150  137.6560 O   0  0  0  0  0  1  0  0  0  0  0  0
  1 13  1  0  0  0  0
  3 11  1  6  0  0  0
  3 32  1  0  0  0  0
  5  4  1  0  0  0  0
  6  7  1  0  0  0  0
  6  3  1  0  0  0  0
  7  1  3  0  0  0  0
  8  5  1  0  0  0  0
  8 14  1  0  0  0  0
  8  4  1  0  0  0  0
  8 12  1  0  0  0  0
  9  3  1  0  0  0  0
  9 10  1  0  0  0  0
 10  2  3  0  0  0  0
 12  2  1  6  0  0  0
 14 13  1  6  0  0  0
 14 12  1  0  0  0  0
 14 28  1  0  0  0  0
 15 22  1  0  0  0  0
 17 21  1  0  0  0  0
 18 20  1  0  0  0  0
 19 20  2  0  0  0  0
 21 22  1  0  0  0  0
 21 23  2  0  0  0  0
 22 18  2  0  0  0  0
 23 19  1  0  0  0  0
 24 29  1  6  0  0  0
 24 16  1  0  0  0  0
 24 26  1  0  0  0  0
 25 26  1  0  0  0  0
 27 16  1  6  0  0  0
 27 17  1  0  0  0  0
 28 25  1  6  0  0  0
 28 27  1  0  0  0  0
 28 15  1  0  0  0  0
 31 29  1  0  0  0  0
 31 30  1  0  0  0  0
 32 33  2  0  0  0  0
 32 34  1  0  0  0  0
M  END
>  <MODEL>
7

>  <REMARK>
 VINA RESULT:      -3.6      2.395      5.616
  Name = 
  4 active torsions:
  status: ('A' for Active; 'I' for Inactive)
    1  A    between atoms: C_3  and  C_23
    2  A    between atoms: C_3  and  C_24
    3  A    between atoms: C_7  and  C_11
    4  A    between atoms: C_33  and  C_34
                            x       y       z     vdW  Elec       q    Type
                         _______ _______ _______ _____ _____    ______ ____

>  <TORSDO>
F 4

$$$$
=
 OpenBabel10262423193D

 34 39  0  0  1  0  0  0  0  0999 V2000
  183.5450  176.6330  138.8570 C   0  0  0  0  0  0  0  0  0  0  0  0
  181.5990  174.9410  137.5740 C   0  0  0  0  0  0  0  0  0  0  0  0
  184.4380  175.5560  135.6210 C   0  0  2  0  0  0  0  0  0  0  0  0
  179.0540  174.6690  139.7910 C   0  0  0  0  0  2  0  0  0  0  0  0
  179.5230  175.4320  140.9540 C   0  0  0  0  0  2  0  0  0  0  0  0
  185.1940  176.2210  136.7970 C   0  0  0  0  0  2  0  0  0  0  0  0
  184.3280  176.5220  137.9460 C   0  0  0  0  0  0  0  0  0  0  0  0
  180.5280  175.1060  139.8320 C   0  0  0  0  0  0  0  0  0  0  0  0
  183.6830  174.2670  136.0430 C   0  0  0  0  0  2  0  0  0  0  0  0
  182.5030  174.5530  136.8760 C   0  0  0  0  0  0  0  0  0  0  0  0
  185.4920  175.1370  134.6160 C   0  0  0  0  0  1  0  0  0  0  0  0
  180.5550  175.5820  138.3810 C   0  0  1  0  0  3  0  0  0  0  0  0
  182.5410  176.5970  139.9260 C   0  0  0  0  0  2  0  0  0  0  0  0
  181.0720  176.5340  139.4360 C   0  0  2  0  0  0  0  0  0  0  0  0
  179.1730  178.0770  138.4760 C   0  0  0  0  0  2  0  0  0  0  0  0
  181.9540  179.3820  140.7420 C   0  0  0  0  0  2  0  0  0  0  0  0
  181.9620  179.1750  138.1820 C   0  0  0  0  0  2  0  0  0  0  0  0
  178.9310  178.3580  136.0010 C   0  0  0  0  0  3  0  0  0  0  0  0
  180.6920  179.2760  134.6170 C   0  0  0  0  0  3  0  0  0  0  0  0
  179.4050  178.7460  134.7460 C   0  0  0  0  0  3  0  0  0  0  0  0
  181.0350  179.0510  137.0050 C   0  0  0  0  0  0  0  0  0  0  0  0
  179.7370  178.4930  137.1350 C   0  0  0  0  0  0  0  0  0  0  0  0
  181.5050  179.4230  135.7430 C   0  0  0  0  0  3  0  0  0  0  0  0
  180.9910  179.4260  141.9390 C   0  0  1  0  0  3  0  0  0  0  0  0
  179.5580  177.8990  140.9500 C   0  0  0  0  0  2  0  0  0  0  0  0
  179.6400  179.1560  141.5930 O   0  0  0  0  0  0  0  0  0  0  0  0
  181.1610  179.1230  139.4730 C   0  0  1  0  0  3  0  0  0  0  0  0
  180.2470  177.8830  139.5680 C   0  0  1  0  0  0  0  0  0  0  0  0
  181.4950  178.5510  143.0870 C   0  0  0  0  0  2  0  0  0  0  0  0
  183.0190  179.0070  144.8710 O   0  0  0  0  0  1  0  0  0  0  0  0
  182.9110  178.9290  143.4820 C   0  0  0  0  0  2  0  0  0  0  0  0
  183.5210  176.5430  134.9300 C   0  0  0  0  0  0  0  0  0  0  0  0
  183.9310  177.7000  134.6450 O   0  0  0  0  0  0  0  0  0  0  0  0
  182.2010  176.2080  134.6540 O   0  0  0  0  0  1  0  0  0  0  0  0
  1 13  1  0  0  0  0
  3 11  1  6  0  0  0
  3  9  1  0  0  0  0
  3  6  1  0  0  0  0
  4  8  1  0  0  0  0
  4  5  1  0  0  0  0
  6  7  1  0  0  0  0
  7  1  3  0  0  0  0
  8  5  1  0  0  0  0
  9 10  1  0  0  0  0
 10  2  3  0  0  0  0
 12  2  1  6  0  0  0
 12 14  1  0  0  0  0
 12  8  1  0  0  0  0
 14 28  1  0  0  0  0
 14  8  1  0  0  0  0
 14 13  1  1  0  0  0
 16 24  1  0  0  0  0
 18 22  1  0  0  0  0
 19 20  1  0  0  0  0
 19 23  2  0  0  0  0
 20 18  2  0  0  0  0
 21 22  2  0  0  0  0
 21 17  1  0  0  0  0
 22 15  1  0  0  0  0
 23 21  1  0  0  0  0
 24 29  1  1  0  0  0
 25 26  1  0  0  0  0
 26 24  1  0  0  0  0
 27 17  1  6  0  0  0
 27 28  1  0  0  0  0
 27 16  1  0  0  0  0
 28 15  1  6  0  0  0
 28 25  1  0  0  0  0
 29 31  1  0  0  0  0
 31 30  1  0  0  0  0
 32  3  1  0  0  0  0
 33 32  2  0  0  0  0
 34 32  1  0  0  0  0
M  END
>  <MODEL>
8

>  <REMARK>
 VINA RESULT:      -3.3      2.319      3.667
  Name = 
  4 active torsions:
  status: ('A' for Active; 'I' for Inactive)
    1  A    between atoms: C_3  and  C_23
    2  A    between atoms: C_3  and  C_24
    3  A    between atoms: C_7  and  C_11
    4  A    between atoms: C_33  and  C_34
                            x       y       z     vdW  Elec       q    Type
                         _______ _______ _______ _____ _____    ______ ____

>  <TORSDO>
F 4

$$$$
=
 OpenBabel10262423193D

 34 39  0  0  1  0  0  0  0  0999 V2000
  182.5140  179.0710  139.2580 C   0  0  0  0  0  0  0  0  0  0  0  0
  179.9350  178.9590  137.9790 C   0  0  0  0  0  0  0  0  0  0  0  0
  179.7700  179.3420  141.4550 C   0  0  2  0  0  0  0  0  0  0  0  0
  180.5930  178.5470  134.6830 C   0  0  0  0  0  2  0  0  0  0  0  0
  182.0580  178.5710  134.6150 C   0  0  0  0  0  2  0  0  0  0  0  0
  181.2920  179.5980  141.5740 C   0  0  0  0  0  2  0  0  0  0  0  0
  182.0310  179.2760  140.3440 C   0  0  0  0  0  0  0  0  0  0  0  0
  181.3740  178.9950  135.9300 C   0  0  0  0  0  0  0  0  0  0  0  0
  179.1250  180.0930  140.2590 C   0  0  0  0  0  2  0  0  0  0  0  0
  179.5050  179.5150  138.9590 C   0  0  0  0  0  0  0  0  0  0  0  0
  179.1410  179.9020  142.7150 C   0  0  0  0  0  1  0  0  0  0  0  0
  180.5380  178.1650  136.9030 C   0  0  1  0  0  3  0  0  0  0  0  0
  182.9600  178.9150  137.8700 C   0  0  0  0  0  2  0  0  0  0  0  0
  182.0430  178.0310  136.9870 C   0  0  2  0  0  0  0  0  0  0  0  0
  181.4930  175.5240  136.4180 C   0  0  0  0  0  2  0  0  0  0  0  0
  184.8380  176.6300  137.8880 C   0  0  0  0  0  2  0  0  0  0  0  0
  182.6970  175.9670  139.1430 C   0  0  0  0  0  2  0  0  0  0  0  0
  179.5960  174.3730  137.5750 C   0  0  0  0  0  3  0  0  0  0  0  0
  179.5200  174.0840  139.9780 C   0  0  0  0  0  3  0  0  0  0  0  0
  178.9470  173.8960  138.7160 C   0  0  0  0  0  3  0  0  0  0  0  0
  181.4090  175.2130  138.9630 C   0  0  0  0  0  0  0  0  0  0  0  0
  180.8180  175.0430  137.6840 C   0  0  0  0  0  0  0  0  0  0  0  0
  180.7450  174.7440  140.0990 C   0  0  0  0  0  3  0  0  0  0  0  0
  185.5140  176.4950  136.5150 C   0  0  1  0  0  3  0  0  0  0  0  0
  183.4870  176.6660  135.4070 C   0  0  0  0  0  2  0  0  0  0  0  0
  184.6780  175.9120  135.5240 O   0  0  0  0  0  0  0  0  0  0  0  0
  183.4480  176.0210  137.8220 C   0  0  1  0  0  3  0  0  0  0  0  0
  182.5930  176.5790  136.6640 C   0  0  1  0  0  0  0  0  0  0  0  0
  186.1270  177.8220  136.0680 C   0  0  0  0  0  2  0  0  0  0  0  0
  187.7330  179.2320  137.1390 O   0  0  0  0  0  1  0  0  0  0  0  0
  187.5490  177.9670  136.5790 C   0  0  0  0  0  2  0  0  0  0  0  0
  179.4640  177.8590  141.4170 C   0  0  0  0  0  0  0  0  0  0  0  0
  178.9320  177.3450  140.3970 O   0  0  0  0  0  0  0  0  0  0  0  0
  179.7090  177.0580  142.5260 O   0  0  0  0  0  1  0  0  0  0  0  0
  1  7  3  0  0  0  0
  2 10  3  0  0  0  0
  3  6  1  0  0  0  0
  3 11  1  1  0  0  0
  4  8  1  0  0  0  0
  5  4  1  0  0  0  0
  5  8  1  0  0  0  0
  7  6  1  0  0  0  0
  8 12  1  0  0  0  0
  8 14  1  0  0  0  0
  9  3  1  0  0  0  0
 10  9  1  0  0  0  0
 12 14  1  0  0  0  0
 12  2  1  1  0  0  0
 13  1  1  0  0  0  0
 14 13  1  1  0  0  0
 15 28  1  0  0  0  0
 15 22  1  0  0  0  0
 18 22  2  0  0  0  0
 18 20  1  0  0  0  0
 19 23  1  0  0  0  0
 20 19  2  0  0  0  0
 21 17  1  0  0  0  0
 21 23  2  0  0  0  0
 22 21  1  0  0  0  0
 24 29  1  6  0  0  0
 24 16  1  0  0  0  0
 25 26  1  0  0  0  0
 26 24  1  0  0  0  0
 27 16  1  1  0  0  0
 27 17  1  0  0  0  0
 28 25  1  6  0  0  0
 28 14  1  0  0  0  0
 28 27  1  0  0  0  0
 29 31  1  0  0  0  0
 31 30  1  0  0  0  0
 32  3  1  0  0  0  0
 32 34  1  0  0  0  0
 33 32  2  0  0  0  0
M  END
>  <MODEL>
9

>  <REMARK>
 VINA RESULT:      -3.2      2.170      5.445
  Name = 
  4 active torsions:
  status: ('A' for Active; 'I' for Inactive)
    1  A    between atoms: C_3  and  C_23
    2  A    between atoms: C_3  and  C_24
    3  A    between atoms: C_7  and  C_11
    4  A    between atoms: C_33  and  C_34
                            x       y       z     vdW  Elec       q    Type
                         _______ _______ _______ _____ _____    ______ ____

>  <TORSDO>
F 4

$$$$
