=
 OpenBabel10262422003D

 30 36  0  0  1  0  0  0  0  0999 V2000
  187.4120  177.4600  144.8020 C   0  0  0  0  0  0  0  0  0  0  0  0
  184.2250  179.3700  144.9650 C   0  0  0  0  0  3  0  0  0  0  0  0
  186.5690  178.5880  139.9220 C   0  0  0  0  0  2  0  0  0  0  0  0
  188.0080  176.4770  143.8360 C   0  0  0  0  0  2  0  0  0  0  0  0
  187.9040  177.6190  146.1230 C   0  0  0  0  0  0  0  0  0  0  0  0
  189.5370  177.2550  147.8950 C   0  0  0  0  0  3  0  0  0  0  0  0
  190.4700  176.4720  143.2070 C   0  0  1  0  0  3  0  0  0  0  0  0
  189.2190  177.2470  146.5320 C   0  0  0  0  0  0  0  0  0  0  0  0
  187.0220  178.1730  147.0970 C   0  0  0  0  0  0  0  0  0  0  0  0
  188.7310  178.3160  141.3200 C   0  0  1  0  0  3  0  0  0  0  0  0
  187.4050  179.0570  141.1100 C   0  0  0  0  0  2  0  0  0  0  0  0
  185.8020  178.7470  146.7180 C   0  0  0  0  0  3  0  0  0  0  0  0
  190.4130  177.2780  145.6160 C   0  0  0  0  0  2  0  0  0  0  0  0
  183.8450  179.3370  143.6100 C   0  0  0  0  0  3  0  0  0  0  0  0
  189.1470  178.4710  142.7170 N   0  0  1  0  0  0  0  0  0  0  0  0
  190.8660  179.8620  143.7510 C   0  0  0  0  0  1  0  0  0  0  0  0
  187.3710  178.1640  148.4470 C   0  0  0  0  0  3  0  0  0  0  0  0
  185.4030  178.7290  145.3830 C   0  0  0  0  0  0  0  0  0  0  0  0
  185.2960  177.8380  140.3470 C   0  0  0  0  0  2  0  0  0  0  0  0
  184.3200  178.6760  141.2030 C   0  0  0  0  0  2  0  0  0  0  0  0
  188.6100  177.6740  148.8480 C   0  0  0  0  0  3  0  0  0  0  0  0
  186.1830  178.0340  144.4440 C   0  0  0  0  0  0  0  0  0  0  0  0
  190.6100  176.0750  144.6960 C   0  0  0  0  0  2  0  0  0  0  0  0
  188.6250  176.7990  141.4420 C   0  0  0  0  0  2  0  0  0  0  0  0
  189.0780  177.0130  142.8770 C   0  0  2  0  0  0  0  0  0  0  0  0
  190.5650  178.8400  142.6730 C   0  0  1  0  0  3  0  0  0  0  0  0
  192.1470  177.2750  141.5690 C   0  0  0  0  0  1  0  0  0  0  0  0
  184.6170  178.6240  142.6810 C   0  0  0  0  0  0  0  0  0  0  0  0
  185.7440  177.9520  143.1310 C   0  0  0  0  0  3  0  0  0  0  0  0
  191.4260  177.5960  142.8630 C   0  0  2  0  0  3  0  0  0  0  0  0
  1  5  1  0  0  0  0
  2 18  1  0  0  0  0
  3 19  1  0  0  0  0
  3 11  1  0  0  0  0
  4  1  1  0  0  0  0
  5  8  2  0  0  0  0
  5  9  1  0  0  0  0
  6 21  2  0  0  0  0
  7 23  1  1  0  0  0
  8  6  1  0  0  0  0
  9 17  2  0  0  0  0
 10 11  1  1  0  0  0
 10 24  1  0  0  0  0
 10 15  1  0  0  0  0
 12  9  1  0  0  0  0
 13  8  1  0  0  0  0
 14  2  2  0  0  0  0
 15 25  1  0  0  0  0
 17 21  1  0  0  0  0
 18 12  2  0  0  0  0
 19 20  1  0  0  0  0
 20 28  1  0  0  0  0
 22  1  2  0  0  0  0
 22 18  1  0  0  0  0
 23 13  1  0  0  0  0
 24 25  1  0  0  0  0
 25  7  1  0  0  0  0
 25  4  1  0  0  0  0
 26 15  1  0  0  0  0
 26 30  1  0  0  0  0
 26 16  1  0  0  0  0
 27 30  1  0  0  0  0
 28 29  2  0  0  0  0
 28 14  1  0  0  0  0
 29 22  1  0  0  0  0
 30  7  1  0  0  0  0
M  END
>  <MODEL>
1

>  <REMARK>
 VINA RESULT:     -11.0      0.000      0.000
  Name = 
  0 active torsions:
  status: ('A' for Active; 'I' for Inactive)
                            x       y       z     vdW  Elec       q    Type
                         _______ _______ _______ _____ _____    ______ ____

>  <TORSDO>
F 0

$$$$
=
 OpenBabel10262422003D

 30 36  0  0  1  0  0  0  0  0999 V2000
  184.9100  178.8210  141.0340 C   0  0  0  0  0  0  0  0  0  0  0  0
  187.9530  177.7040  142.8590 C   0  0  0  0  0  3  0  0  0  0  0  0
  187.9560  177.3210  137.2570 C   0  0  0  0  0  2  0  0  0  0  0  0
  184.6570  179.5200  139.7300 C   0  0  0  0  0  2  0  0  0  0  0  0
  183.9220  178.7190  142.0450 C   0  0  0  0  0  0  0  0  0  0  0  0
  181.6450  178.9250  142.8900 C   0  0  0  0  0  3  0  0  0  0  0  0
  182.7460  178.8990  138.1740 C   0  0  1  0  0  3  0  0  0  0  0  0
  182.5200  178.8360  141.8020 C   0  0  0  0  0  0  0  0  0  0  0  0
  184.3610  178.4990  143.3840 C   0  0  0  0  0  0  0  0  0  0  0  0
  185.3880  177.2730  137.5740 C   0  0  1  0  0  3  0  0  0  0  0  0
  186.7670  176.8260  138.0750 C   0  0  0  0  0  2  0  0  0  0  0  0
  185.6950  178.1700  143.6570 C   0  0  0  0  0  3  0  0  0  0  0  0
  181.8650  178.4270  140.5100 C   0  0  0  0  0  2  0  0  0  0  0  0
  188.8760  177.6540  141.7980 C   0  0  0  0  0  3  0  0  0  0  0  0
  184.4330  177.2010  138.6830 N   0  0  1  0  0  0  0  0  0  0  0  0
  182.6630  175.6000  139.1970 C   0  0  0  0  0  1  0  0  0  0  0  0
  183.4610  178.5950  144.4440 C   0  0  0  0  0  3  0  0  0  0  0  0
  186.6290  178.1130  142.6240 C   0  0  0  0  0  0  0  0  0  0  0  0
  188.7880  178.3810  137.9960 C   0  0  0  0  0  2  0  0  0  0  0  0
  189.4070  177.8940  139.3250 C   0  0  0  0  0  2  0  0  0  0  0  0
  182.1130  178.8420  144.2010 C   0  0  0  0  0  3  0  0  0  0  0  0
  186.2420  178.4960  141.3290 C   0  0  0  0  0  0  0  0  0  0  0  0
  181.9120  179.4340  139.3620 C   0  0  0  0  0  2  0  0  0  0  0  0
  185.2020  178.7780  137.4130 C   0  0  0  0  0  2  0  0  0  0  0  0
  184.2050  178.6460  138.5530 C   0  0  2  0  0  0  0  0  0  0  0  0
  183.2480  176.5230  138.1470 C   0  0  1  0  0  3  0  0  0  0  0  0
  182.0920  177.5480  136.2020 C   0  0  0  0  0  1  0  0  0  0  0  0
  188.4890  178.0580  140.5120 C   0  0  0  0  0  0  0  0  0  0  0  0
  187.1930  178.5120  140.3190 C   0  0  0  0  0  3  0  0  0  0  0  0
  182.2160  177.5570  137.7130 C   0  0  2  0  0  3  0  0  0  0  0  0
  1 22  2  0  0  0  0
  1  5  1  0  0  0  0
  3 19  1  0  0  0  0
  3 11  1  0  0  0  0
  4  1  1  0  0  0  0
  5  9  1  0  0  0  0
  6 21  2  0  0  0  0
  7 25  1  0  0  0  0
  7 23  1  1  0  0  0
  8  5  2  0  0  0  0
  8  6  1  0  0  0  0
  9 12  1  0  0  0  0
  9 17  2  0  0  0  0
 10 24  1  1  0  0  0
 10 11  1  0  0  0  0
 10 15  1  0  0  0  0
 13  8  1  0  0  0  0
 14  2  2  0  0  0  0
 18  2  1  0  0  0  0
 18 12  2  0  0  0  0
 19 20  1  0  0  0  0
 20 28  1  0  0  0  0
 21 17  1  0  0  0  0
 22 18  1  0  0  0  0
 23 13  1  0  0  0  0
 24 25  1  0  0  0  0
 25 15  1  0  0  0  0
 25  4  1  0  0  0  0
 26 15  1  0  0  0  0
 26 16  1  0  0  0  0
 27 30  1  0  0  0  0
 28 14  1  0  0  0  0
 29 28  2  0  0  0  0
 29 22  1  0  0  0  0
 30 26  1  0  0  0  0
 30  7  1  0  0  0  0
M  END
>  <MODEL>
2

>  <REMARK>
 VINA RESULT:      -8.5      2.994      6.912
  Name = 
  0 active torsions:
  status: ('A' for Active; 'I' for Inactive)
                            x       y       z     vdW  Elec       q    Type
                         _______ _______ _______ _____ _____    ______ ____

>  <TORSDO>
F 0

$$$$
