=
 OpenBabel10262419213D

 31 35  0  0  1  0  0  0  0  0999 V2000
  188.3460  178.4580  140.1910 C   0  0  0  0  0  0  0  0  0  0  0  0
  185.7690  178.1190  143.0380 C   0  0  0  0  0  0  0  0  0  0  0  0
  184.4690  178.5300  142.6570 C   0  0  0  0  0  0  0  0  0  0  0  0
  182.9270  177.6500  140.9320 C   0  0  0  0  0  3  0  0  0  0  0  0
  186.7640  177.6690  141.9820 C   0  0  1  0  0  3  0  0  0  0  0  0
  188.9990  177.1060  140.3100 C   0  0  0  0  0  2  0  0  0  0  0  0
  184.0860  178.5470  141.2080 C   0  0  0  0  0  2  0  0  0  0  0  0
  187.5140  177.6810  144.8420 C   0  0  1  0  0  3  0  0  0  0  0  0
  188.7060  179.2270  139.3150 O   0  0  0  0  0  0  0  0  0  0  0  0
  183.9840  179.1200  144.9590 C   0  0  0  0  0  3  0  0  0  0  0  0
  181.7150  177.8650  141.4390 C   0  0  0  0  0  3  0  0  0  0  0  0
  188.0040  176.5210  143.9780 C   0  0  0  0  0  2  0  0  0  0  0  0
  186.1400  178.1540  144.4050 C   0  0  0  0  0  0  0  0  0  0  0  0
  187.2350  178.8590  141.1290 C   0  0  0  0  0  2  0  0  0  0  0  0
  181.3800  178.9420  142.3900 C   0  0  0  0  0  3  0  0  0  0  0  0
  187.9570  176.9190  142.5410 C   0  0  0  0  0  0  0  0  0  0  0  0
  189.0060  176.6610  141.7480 C   0  0  0  0  0  3  0  0  0  0  0  0
  185.2520  178.6960  145.3430 C   0  0  0  0  0  3  0  0  0  0  0  0
  183.5680  179.0130  143.6320 C   0  0  0  0  0  0  0  0  0  0  0  0
  182.1860  179.4410  143.3340 C   0  0  0  0  0  3  0  0  0  0  0  0
  187.6120  177.3170  146.3270 C   0  0  0  0  0  2  0  0  0  0  0  0
  188.8150  176.4270  146.6250 C   0  0  0  0  0  2  0  0  0  0  0  0
  189.8010  178.5140  147.8780 C   0  0  0  0  0  1  0  0  0  0  0  0
  191.9430  175.8270  147.9320 O   0  0  0  0  0  0  0  0  0  0  0  0
  191.1990  176.5820  147.2560 C   0  0  0  0  0  0  0  0  0  0  0  0
  190.9260  177.4480  146.0180 N   0  0  0  0  0  0  0  0  0  0  0  0
  190.0110  177.2610  147.0490 C   0  0  1  0  0  0  0  0  0  0  0  0
  191.3310  178.0120  144.7420 C   0  0  0  0  0  0  0  0  0  0  0  0
  192.5200  178.7210  144.9050 O   0  0  0  0  0  1  0  0  0  0  0  0
  190.2520  178.9460  144.2370 C   0  0  0  0  0  1  0  0  0  0  0  0
  191.5440  176.9000  143.7350 C   0  0  0  0  0  1  0  0  0  0  0  0
  1  6  1  0  0  0  0
  1 14  1  0  0  0  0
  2 13  1  0  0  0  0
  3  2  2  0  0  0  0
  3 19  1  0  0  0  0
  4  7  1  0  0  0  0
  4 11  2  0  0  0  0
  5 14  1  1  0  0  0
  5 16  1  0  0  0  0
  5  2  1  0  0  0  0
  6 17  1  0  0  0  0
  7  3  1  0  0  0  0
  8 21  1  1  0  0  0
  9  1  2  0  0  0  0
 10 18  1  0  0  0  0
 11 15  1  0  0  0  0
 12  8  1  0  0  0  0
 13  8  1  0  0  0  0
 13 18  2  0  0  0  0
 15 20  2  0  0  0  0
 16 12  1  0  0  0  0
 17 16  2  0  0  0  0
 19 10  2  0  0  0  0
 20 19  1  0  0  0  0
 21 22  1  0  0  0  0
 22 27  1  0  0  0  0
 25 24  2  0  0  0  0
 26 27  1  0  0  0  0
 26 25  1  0  0  0  0
 27 25  1  0  0  0  0
 27 23  1  1  0  0  0
 28 29  1  0  0  0  0
 28 26  1  0  0  0  0
 30 28  1  0  0  0  0
 31 28  1  0  0  0  0
M  END
>  <MODEL>
1

>  <REMARK>
 VINA RESULT:      -8.9      0.000      0.000
  Name = 
  4 active torsions:
  status: ('A' for Active; 'I' for Inactive)
    1  A    between atoms: C_1  and  N_19
    2  A    between atoms: C_9  and  C_22
    3  A    between atoms: C_9  and  C_23
    4  A    between atoms: C_15  and  C_23
                            x       y       z     vdW  Elec       q    Type
                         _______ _______ _______ _____ _____    ______ ____

>  <TORSDO>
F 4

$$$$
=
 OpenBabel10262419213D

 31 35  0  0  1  0  0  0  0  0999 V2000
  190.1230  176.5710  139.8630 C   0  0  0  0  0  0  0  0  0  0  0  0
  188.2990  177.6710  143.0770 C   0  0  0  0  0  0  0  0  0  0  0  0
  188.9900  177.3010  144.2570 C   0  0  0  0  0  0  0  0  0  0  0  0
  191.2230  177.9490  145.1040 C   0  0  0  0  0  3  0  0  0  0  0  0
  189.0570  177.8220  141.7690 C   0  0  1  0  0  3  0  0  0  0  0  0
  190.0300  177.8620  139.0940 C   0  0  0  0  0  2  0  0  0  0  0  0
  190.4630  177.0310  144.2070 C   0  0  0  0  0  2  0  0  0  0  0  0
  186.1440  178.3090  141.8810 C   0  0  1  0  0  3  0  0  0  0  0  0
  190.7100  175.6190  139.3770 O   0  0  0  0  0  0  0  0  0  0  0  0
  186.8840  177.2140  145.4580 C   0  0  0  0  0  3  0  0  0  0  0  0
  191.0850  177.9370  146.4280 C   0  0  0  0  0  3  0  0  0  0  0  0
  186.9910  179.2330  141.0100 C   0  0  0  0  0  2  0  0  0  0  0  0
  186.8980  177.8740  143.1230 C   0  0  0  0  0  0  0  0  0  0  0  0
  189.5200  176.4530  141.2410 C   0  0  0  0  0  2  0  0  0  0  0  0
  190.1220  177.0990  147.1660 C   0  0  0  0  0  3  0  0  0  0  0  0
  188.2890  178.5670  140.6960 C   0  0  0  0  0  0  0  0  0  0  0  0
  188.7520  178.5790  139.4380 C   0  0  0  0  0  3  0  0  0  0  0  0
  186.2030  177.6000  144.3080 C   0  0  0  0  0  3  0  0  0  0  0  0
  188.2730  177.0930  145.4570 C   0  0  0  0  0  0  0  0  0  0  0  0
  188.9080  176.7290  146.7410 C   0  0  0  0  0  3  0  0  0  0  0  0
  184.7790  178.9470  142.1640 C   0  0  0  0  0  2  0  0  0  0  0  0
  183.6220  178.0440  141.7460 C   0  0  0  0  0  2  0  0  0  0  0  0
  181.4460  179.2440  140.8940 C   0  0  0  0  0  1  0  0  0  0  0  0
  184.2470  180.2480  139.1750 O   0  0  0  0  0  0  0  0  0  0  0  0
  183.5530  179.2970  139.6170 C   0  0  0  0  0  0  0  0  0  0  0  0
  182.8740  177.9310  139.4450 N   0  0  0  0  0  0  0  0  0  0  0  0
  182.8250  178.6770  140.6180 C   0  0  1  0  0  0  0  0  0  0  0  0
  182.5510  176.7590  138.6490 C   0  0  0  0  0  0  0  0  0  0  0  0
  183.7280  176.1660  138.1970 O   0  0  0  0  0  1  0  0  0  0  0  0
  181.7060  177.1720  137.4620 C   0  0  0  0  0  1  0  0  0  0  0  0
  181.7800  175.7640  139.4930 C   0  0  0  0  0  1  0  0  0  0  0  0
  1 14  1  0  0  0  0
  2 13  2  0  0  0  0
  2  3  1  0  0  0  0
  3 19  2  0  0  0  0
  4 11  2  0  0  0  0
  5 14  1  6  0  0  0
  5  2  1  0  0  0  0
  6 17  1  0  0  0  0
  6  1  1  0  0  0  0
  7  3  1  0  0  0  0
  7  4  1  0  0  0  0
  8 21  1  1  0  0  0
  8 13  1  0  0  0  0
  9  1  2  0  0  0  0
 11 15  1  0  0  0  0
 12  8  1  0  0  0  0
 13 18  1  0  0  0  0
 16 12  1  0  0  0  0
 16  5  1  0  0  0  0
 17 16  2  0  0  0  0
 18 10  2  0  0  0  0
 19 10  1  0  0  0  0
 19 20  1  0  0  0  0
 20 15  2  0  0  0  0
 22 21  1  0  0  0  0
 24 25  2  0  0  0  0
 25 27  1  0  0  0  0
 26 25  1  0  0  0  0
 26 27  1  0  0  0  0
 27 23  1  1  0  0  0
 27 22  1  0  0  0  0
 28 26  1  0  0  0  0
 28 31  1  0  0  0  0
 29 28  1  0  0  0  0
 30 28  1  0  0  0  0
M  END
>  <MODEL>
2

>  <REMARK>
 VINA RESULT:      -8.4      3.058      7.508
  Name = 
  4 active torsions:
  status: ('A' for Active; 'I' for Inactive)
    1  A    between atoms: C_1  and  N_19
    2  A    between atoms: C_9  and  C_22
    3  A    between atoms: C_9  and  C_23
    4  A    between atoms: C_15  and  C_23
                            x       y       z     vdW  Elec       q    Type
                         _______ _______ _______ _____ _____    ______ ____

>  <TORSDO>
F 4

$$$$
=
 OpenBabel10262419213D

 31 35  0  0  1  0  0  0  0  0999 V2000
  186.8360  178.1040  137.9920 C   0  0  0  0  0  0  0  0  0  0  0  0
  189.8160  177.1700  140.2520 C   0  0  0  0  0  0  0  0  0  0  0  0
  189.6040  177.5080  141.6110 C   0  0  0  0  0  0  0  0  0  0  0  0
  187.9110  176.7230  143.2370 C   0  0  0  0  0  3  0  0  0  0  0  0
  188.6280  176.9520  139.3300 C   0  0  1  0  0  3  0  0  0  0  0  0
  186.7140  176.8120  137.2270 C   0  0  0  0  0  2  0  0  0  0  0  0
  188.2090  177.6780  142.1300 C   0  0  0  0  0  2  0  0  0  0  0  0
  191.3900  176.6620  138.3160 C   0  0  1  0  0  3  0  0  0  0  0  0
  186.0450  179.0080  137.7780 O   0  0  0  0  0  0  0  0  0  0  0  0
  191.9980  177.7510  141.9200 C   0  0  0  0  0  3  0  0  0  0  0  0
  188.5430  176.7620  144.4080 C   0  0  0  0  0  3  0  0  0  0  0  0
  190.3380  175.6720  137.8210 C   0  0  0  0  0  2  0  0  0  0  0  0
  191.1390  177.0620  139.7570 C   0  0  0  0  0  0  0  0  0  0  0  0
  187.9090  178.2790  139.0370 C   0  0  0  0  0  2  0  0  0  0  0  0
  189.6560  177.6720  144.7340 C   0  0  0  0  0  3  0  0  0  0  0  0
  188.9770  176.2460  138.0350 C   0  0  0  0  0  0  0  0  0  0  0  0
  188.0720  176.1870  137.0490 C   0  0  0  0  0  3  0  0  0  0  0  0
  192.2130  177.3970  140.5920 C   0  0  0  0  0  3  0  0  0  0  0  0
  190.7090  177.7790  142.4500 C   0  0  0  0  0  0  0  0  0  0  0  0
  190.5890  178.1160  143.8830 C   0  0  0  0  0  3  0  0  0  0  0  0
  192.7980  176.1200  138.0490 C   0  0  0  0  0  2  0  0  0  0  0  0
  192.7770  174.6740  137.5630 C   0  0  0  0  0  2  0  0  0  0  0  0
  193.8410  173.3730  135.5440 C   0  0  0  0  0  1  0  0  0  0  0  0
  195.1480  176.5330  135.8950 O   0  0  0  0  0  0  0  0  0  0  0  0
  194.8390  175.4410  136.4390 C   0  0  0  0  0  0  0  0  0  0  0  0
  195.1570  174.2640  137.3720 N   0  0  0  0  0  0  0  0  0  0  0  0
  193.9670  174.3900  136.6620 C   0  0  1  0  0  0  0  0  0  0  0  0
  196.0380  173.5700  138.2950 C   0  0  0  0  0  0  0  0  0  0  0  0
  195.4070  172.4190  138.7630 O   0  0  0  0  0  1  0  0  0  0  0  0
  196.3620  174.4780  139.4630 C   0  0  0  0  0  1  0  0  0  0  0  0
  197.3220  173.1870  137.5870 C   0  0  0  0  0  1  0  0  0  0  0  0
  1 14  1  0  0  0  0
  2  3  1  0  0  0  0
  3  7  1  0  0  0  0
  3 19  2  0  0  0  0
  4 11  2  0  0  0  0
  5 14  1  6  0  0  0
  5  2  1  0  0  0  0
  6  1  1  0  0  0  0
  7  4  1  0  0  0  0
  8 21  1  1  0  0  0
  8 13  1  0  0  0  0
  9  1  2  0  0  0  0
 10 19  1  0  0  0  0
 11 15  1  0  0  0  0
 12 16  1  0  0  0  0
 12  8  1  0  0  0  0
 13  2  2  0  0  0  0
 13 18  1  0  0  0  0
 16  5  1  0  0  0  0
 17  6  1  0  0  0  0
 17 16  2  0  0  0  0
 18 10  2  0  0  0  0
 19 20  1  0  0  0  0
 20 15  2  0  0  0  0
 22 21  1  0  0  0  0
 24 25  2  0  0  0  0
 25 27  1  0  0  0  0
 25 26  1  0  0  0  0
 26 28  1  0  0  0  0
 27 23  1  6  0  0  0
 27 26  1  0  0  0  0
 27 22  1  0  0  0  0
 28 29  1  0  0  0  0
 28 30  1  0  0  0  0
 31 28  1  0  0  0  0
M  END
>  <MODEL>
3

>  <REMARK>
 VINA RESULT:      -8.3      4.916      8.036
  Name = 
  4 active torsions:
  status: ('A' for Active; 'I' for Inactive)
    1  A    between atoms: C_1  and  N_19
    2  A    between atoms: C_9  and  C_22
    3  A    between atoms: C_9  and  C_23
    4  A    between atoms: C_15  and  C_23
                            x       y       z     vdW  Elec       q    Type
                         _______ _______ _______ _____ _____    ______ ____

>  <TORSDO>
F 4

$$$$
=
 OpenBabel10262419213D

 31 35  0  0  1  0  0  0  0  0999 V2000
  190.0490  176.5840  139.8740 C   0  0  0  0  0  0  0  0  0  0  0  0
  188.3410  177.6780  143.1520 C   0  0  0  0  0  0  0  0  0  0  0  0
  189.0640  177.2910  144.3060 C   0  0  0  0  0  0  0  0  0  0  0  0
  191.3300  177.9060  145.0870 C   0  0  0  0  0  3  0  0  0  0  0  0
  189.0590  177.8310  141.8220 C   0  0  1  0  0  3  0  0  0  0  0  0
  189.9480  177.8820  139.1170 C   0  0  0  0  0  2  0  0  0  0  0  0
  190.5320  177.0050  144.2070 C   0  0  0  0  0  2  0  0  0  0  0  0
  186.1570  178.3510  142.0290 C   0  0  1  0  0  3  0  0  0  0  0  0
  190.6090  175.6290  139.3610 O   0  0  0  0  0  0  0  0  0  0  0  0
  186.9960  177.2190  145.5720 C   0  0  0  0  0  3  0  0  0  0  0  0
  191.2340  177.8850  146.4150 C   0  0  0  0  0  3  0  0  0  0  0  0
  186.9870  179.2730  141.1390 C   0  0  0  0  0  2  0  0  0  0  0  0
  186.9440  177.8980  143.2430 C   0  0  0  0  0  0  0  0  0  0  0  0
  189.4880  176.4620  141.2690 C   0  0  0  0  0  2  0  0  0  0  0  0
  190.2850  177.0520  147.1760 C   0  0  0  0  0  3  0  0  0  0  0  0
  188.2660  178.5940  140.7790 C   0  0  0  0  0  0  0  0  0  0  0  0
  188.6900  178.6110  139.5080 C   0  0  0  0  0  3  0  0  0  0  0  0
  186.2840  177.6220  144.4480 C   0  0  0  0  0  3  0  0  0  0  0  0
  188.3830  177.0820  145.5270 C   0  0  0  0  0  0  0  0  0  0  0  0
  189.0530  176.7000  146.7870 C   0  0  0  0  0  3  0  0  0  0  0  0
  184.8100  179.0040  142.3600 C   0  0  0  0  0  2  0  0  0  0  0  0
  183.6350  178.0650  142.1010 C   0  0  0  0  0  2  0  0  0  0  0  0
  183.5920  179.3950  139.8360 C   0  0  0  0  0  1  0  0  0  0  0  0
  182.0210  176.3480  139.5900 O   0  0  0  0  0  0  0  0  0  0  0  0
  182.1610  177.4260  140.2230 C   0  0  0  0  0  0  0  0  0  0  0  0
  181.5800  178.6430  140.9560 N   0  0  0  0  0  0  0  0  0  0  0  0
  182.9430  178.4140  140.7950 C   0  0  1  0  0  0  0  0  0  0  0  0
  180.4540  179.4200  141.4440 C   0  0  0  0  0  0  0  0  0  0  0  0
  180.8130  180.0670  142.6240 O   0  0  0  0  0  1  0  0  0  0  0  0
  179.2830  178.4980  141.7110 C   0  0  0  0  0  1  0  0  0  0  0  0
  180.0550  180.4500  140.4070 C   0  0  0  0  0  1  0  0  0  0  0  0
  1 14  1  0  0  0  0
  2 13  2  0  0  0  0
  2  3  1  0  0  0  0
  3 19  2  0  0  0  0
  4 11  2  0  0  0  0
  5 14  1  6  0  0  0
  5  2  1  0  0  0  0
  6 17  1  0  0  0  0
  6  1  1  0  0  0  0
  7  3  1  0  0  0  0
  7  4  1  0  0  0  0
  8 21  1  1  0  0  0
  8 13  1  0  0  0  0
  9  1  2  0  0  0  0
 11 15  1  0  0  0  0
 12  8  1  0  0  0  0
 13 18  1  0  0  0  0
 16 12  1  0  0  0  0
 16  5  1  0  0  0  0
 17 16  2  0  0  0  0
 18 10  2  0  0  0  0
 19 10  1  0  0  0  0
 19 20  1  0  0  0  0
 20 15  2  0  0  0  0
 22 21  1  0  0  0  0
 24 25  2  0  0  0  0
 25 27  1  0  0  0  0
 25 26  1  0  0  0  0
 26 28  1  0  0  0  0
 27 23  1  6  0  0  0
 27 26  1  0  0  0  0
 27 22  1  0  0  0  0
 28 30  1  0  0  0  0
 28 29  1  0  0  0  0
 31 28  1  0  0  0  0
M  END
>  <MODEL>
4

>  <REMARK>
 VINA RESULT:      -8.1      3.103      7.697
  Name = 
  4 active torsions:
  status: ('A' for Active; 'I' for Inactive)
    1  A    between atoms: C_1  and  N_19
    2  A    between atoms: C_9  and  C_22
    3  A    between atoms: C_9  and  C_23
    4  A    between atoms: C_15  and  C_23
                            x       y       z     vdW  Elec       q    Type
                         _______ _______ _______ _____ _____    ______ ____

>  <TORSDO>
F 4

$$$$
=
 OpenBabel10262419213D

 31 35  0  0  1  0  0  0  0  0999 V2000
  189.8510  175.8440  142.6260 C   0  0  0  0  0  0  0  0  0  0  0  0
  186.7560  177.9900  143.4470 C   0  0  0  0  0  0  0  0  0  0  0  0
  186.4230  177.9740  144.8230 C   0  0  0  0  0  0  0  0  0  0  0  0
  187.6860  178.7380  146.8100 C   0  0  0  0  0  3  0  0  0  0  0  0
  188.1770  177.6830  143.0060 C   0  0  1  0  0  3  0  0  0  0  0  0
  190.5930  176.8310  141.7640 C   0  0  0  0  0  2  0  0  0  0  0  0
  187.4670  177.6260  145.8400 C   0  0  0  0  0  2  0  0  0  0  0  0
  186.0930  178.3320  141.0120 C   0  0  1  0  0  3  0  0  0  0  0  0
  190.3510  174.7570  142.8670 O   0  0  0  0  0  0  0  0  0  0  0  0
  184.0980  178.3790  144.2620 C   0  0  0  0  0  3  0  0  0  0  0  0
  186.7430  179.1490  147.6560 C   0  0  0  0  0  3  0  0  0  0  0  0
  187.4960  178.8900  140.7880 C   0  0  0  0  0  2  0  0  0  0  0  0
  185.7510  178.2700  142.4890 C   0  0  0  0  0  0  0  0  0  0  0  0
  188.5080  176.1960  143.2150 C   0  0  0  0  0  2  0  0  0  0  0  0
  185.3610  178.6360  147.6900 C   0  0  0  0  0  3  0  0  0  0  0  0
  188.4790  178.0930  141.5780 C   0  0  0  0  0  0  0  0  0  0  0  0
  189.6170  177.6850  141.0000 C   0  0  0  0  0  3  0  0  0  0  0  0
  184.4230  178.4180  142.9100 C   0  0  0  0  0  3  0  0  0  0  0  0
  185.0860  178.1910  145.2270 C   0  0  0  0  0  0  0  0  0  0  0  0
  184.6480  178.2160  146.6380 C   0  0  0  0  0  3  0  0  0  0  0  0
  185.0730  179.0970  140.1610 C   0  0  0  0  0  2  0  0  0  0  0  0
  185.0650  178.6270  138.7100 C   0  0  0  0  0  2  0  0  0  0  0  0
  183.5060  177.4210  136.9730 C   0  0  0  0  0  1  0  0  0  0  0  0
  182.7060  176.6230  140.2190 O   0  0  0  0  0  0  0  0  0  0  0  0
  182.9580  177.5200  139.3730 C   0  0  0  0  0  0  0  0  0  0  0  0
  182.6550  178.8730  138.7140 N   0  0  0  0  0  0  0  0  0  0  0  0
  183.7110  178.0480  138.3390 C   0  0  1  0  0  0  0  0  0  0  0  0
  181.8630  180.0850  138.5960 C   0  0  0  0  0  0  0  0  0  0  0  0
  182.6960  181.1970  138.7130 O   0  0  0  0  0  1  0  0  0  0  0  0
  180.8230  180.1190  139.6960 C   0  0  0  0  0  1  0  0  0  0  0  0
  181.1700  180.1160  137.2490 C   0  0  0  0  0  1  0  0  0  0  0  0
  1  9  2  0  0  0  0
  1 14  1  0  0  0  0
  2  3  1  0  0  0  0
  3 19  2  0  0  0  0
  3  7  1  0  0  0  0
  4 11  2  0  0  0  0
  5 14  1  6  0  0  0
  5  2  1  0  0  0  0
  6  1  1  0  0  0  0
  7  4  1  0  0  0  0
  8 21  1  6  0  0  0
  8 13  1  0  0  0  0
 10 19  1  0  0  0  0
 11 15  1  0  0  0  0
 12  8  1  0  0  0  0
 12 16  1  0  0  0  0
 13 18  1  0  0  0  0
 13  2  2  0  0  0  0
 16  5  1  0  0  0  0
 17 16  2  0  0  0  0
 17  6  1  0  0  0  0
 18 10  2  0  0  0  0
 19 20  1  0  0  0  0
 20 15  2  0  0  0  0
 22 21  1  0  0  0  0
 25 24  2  0  0  0  0
 26 25  1  0  0  0  0
 27 23  1  6  0  0  0
 27 22  1  0  0  0  0
 27 26  1  0  0  0  0
 27 25  1  0  0  0  0
 28 29  1  0  0  0  0
 28 26  1  0  0  0  0
 28 30  1  0  0  0  0
 31 28  1  0  0  0  0
M  END
>  <MODEL>
5

>  <REMARK>
 VINA RESULT:      -8.1      3.327      7.416
  Name = 
  4 active torsions:
  status: ('A' for Active; 'I' for Inactive)
    1  A    between atoms: C_1  and  N_19
    2  A    between atoms: C_9  and  C_22
    3  A    between atoms: C_9  and  C_23
    4  A    between atoms: C_15  and  C_23
                            x       y       z     vdW  Elec       q    Type
                         _______ _______ _______ _____ _____    ______ ____

>  <TORSDO>
F 4

$$$$
=
 OpenBabel10262419213D

 31 35  0  0  1  0  0  0  0  0999 V2000
  190.1730  176.2190  142.1940 C   0  0  0  0  0  0  0  0  0  0  0  0
  187.5000  177.8450  144.4460 C   0  0  0  0  0  0  0  0  0  0  0  0
  187.7700  177.6850  145.8260 C   0  0  0  0  0  0  0  0  0  0  0  0
  189.6590  178.4750  147.2160 C   0  0  0  0  0  3  0  0  0  0  0  0
  188.6330  177.7740  143.4370 C   0  0  1  0  0  3  0  0  0  0  0  0
  190.3900  177.3600  141.2350 C   0  0  0  0  0  2  0  0  0  0  0  0
  189.1700  177.4150  146.2870 C   0  0  0  0  0  2  0  0  0  0  0  0
  185.8580  178.2630  142.5440 C   0  0  1  0  0  3  0  0  0  0  0  0
  190.8330  175.1990  142.0790 O   0  0  0  0  0  0  0  0  0  0  0  0
  185.3940  177.7980  146.3010 C   0  0  0  0  0  3  0  0  0  0  0  0
  189.1160  178.6890  148.4120 C   0  0  0  0  0  3  0  0  0  0  0  0
  186.9800  179.0280  141.8460 C   0  0  0  0  0  2  0  0  0  0  0  0
  186.1660  178.0490  144.0140 C   0  0  0  0  0  0  0  0  0  0  0  0
  189.1670  176.3370  143.3110 C   0  0  0  0  0  2  0  0  0  0  0  0
  187.9300  177.9860  148.9360 C   0  0  0  0  0  3  0  0  0  0  0  0
  188.2750  178.3220  142.0700 C   0  0  0  0  0  0  0  0  0  0  0  0
  189.1060  178.1200  141.0380 C   0  0  0  0  0  3  0  0  0  0  0  0
  185.1240  177.9790  144.9480 C   0  0  0  0  0  3  0  0  0  0  0  0
  186.7060  177.6820  146.7570 C   0  0  0  0  0  0  0  0  0  0  0  0
  186.8910  177.5450  148.2160 C   0  0  0  0  0  3  0  0  0  0  0  0
  184.5080  178.9370  142.2750 C   0  0  0  0  0  2  0  0  0  0  0  0
  183.5180  177.9940  141.5970 C   0  0  0  0  0  2  0  0  0  0  0  0
  181.5170  179.1960  140.3920 C   0  0  0  0  0  1  0  0  0  0  0  0
  184.5700  180.2270  139.1970 O   0  0  0  0  0  0  0  0  0  0  0  0
  183.8130  179.2690  139.5020 C   0  0  0  0  0  0  0  0  0  0  0  0
  183.1820  177.9030  139.2000 N   0  0  0  0  0  0  0  0  0  0  0  0
  182.9260  178.6360  140.3550 C   0  0  1  0  0  0  0  0  0  0  0  0
  183.0070  176.7390  138.3480 C   0  0  0  0  0  0  0  0  0  0  0  0
  182.7830  175.6150  139.1400 O   0  0  0  0  0  1  0  0  0  0  0  0
  184.2550  176.5290  137.5170 C   0  0  0  0  0  1  0  0  0  0  0  0
  181.8210  176.9510  137.4290 C   0  0  0  0  0  1  0  0  0  0  0  0
  1 14  1  0  0  0  0
  2  3  1  0  0  0  0
  3  7  1  0  0  0  0
  3 19  2  0  0  0  0
  4 11  2  0  0  0  0
  5 14  1  6  0  0  0
  5  2  1  0  0  0  0
  6  1  1  0  0  0  0
  7  4  1  0  0  0  0
  8 21  1  1  0  0  0
  8 13  1  0  0  0  0
  9  1  2  0  0  0  0
 10 19  1  0  0  0  0
 11 15  1  0  0  0  0
 12 16  1  0  0  0  0
 12  8  1  0  0  0  0
 13  2  2  0  0  0  0
 13 18  1  0  0  0  0
 16  5  1  0  0  0  0
 17  6  1  0  0  0  0
 17 16  2  0  0  0  0
 18 10  2  0  0  0  0
 19 20  1  0  0  0  0
 20 15  2  0  0  0  0
 22 21  1  0  0  0  0
 24 25  2  0  0  0  0
 25 27  1  0  0  0  0
 26 25  1  0  0  0  0
 26 27  1  0  0  0  0
 27 23  1  1  0  0  0
 27 22  1  0  0  0  0
 28 29  1  0  0  0  0
 28 26  1  0  0  0  0
 30 28  1  0  0  0  0
 31 28  1  0  0  0  0
M  END
>  <MODEL>
6

>  <REMARK>
 VINA RESULT:      -8.1      2.950      7.358
  Name = 
  4 active torsions:
  status: ('A' for Active; 'I' for Inactive)
    1  A    between atoms: C_1  and  N_19
    2  A    between atoms: C_9  and  C_22
    3  A    between atoms: C_9  and  C_23
    4  A    between atoms: C_15  and  C_23
                            x       y       z     vdW  Elec       q    Type
                         _______ _______ _______ _____ _____    ______ ____

>  <TORSDO>
F 4

$$$$
=
 OpenBabel10262419213D

 31 35  0  0  1  0  0  0  0  0999 V2000
  187.0530  178.0650  137.8190 C   0  0  0  0  0  0  0  0  0  0  0  0
  189.8970  177.1600  140.2600 C   0  0  0  0  0  0  0  0  0  0  0  0
  189.6070  177.5150  141.6000 C   0  0  0  0  0  0  0  0  0  0  0  0
  187.8220  176.7510  143.1350 C   0  0  0  0  0  3  0  0  0  0  0  0
  188.7640  176.9300  139.2740 C   0  0  1  0  0  3  0  0  0  0  0  0
  186.9750  176.7640  137.0660 C   0  0  0  0  0  2  0  0  0  0  0  0
  188.1840  177.6920  142.0350 C   0  0  0  0  0  2  0  0  0  0  0  0
  191.5800  176.6270  138.4250 C   0  0  1  0  0  3  0  0  0  0  0  0
  186.2780  178.9680  137.5490 O   0  0  0  0  0  0  0  0  0  0  0  0
  191.9790  177.7610  142.0440 C   0  0  0  0  0  3  0  0  0  0  0  0
  188.3840  176.8040  144.3400 C   0  0  0  0  0  3  0  0  0  0  0  0
  190.5580  175.6310  137.8830 C   0  0  0  0  0  2  0  0  0  0  0  0
  191.2460  177.0450  139.8450 C   0  0  0  0  0  0  0  0  0  0  0  0
  188.0650  178.2540  138.9230 C   0  0  0  0  0  2  0  0  0  0  0  0
  189.4780  177.7180  144.7190 C   0  0  0  0  0  3  0  0  0  0  0  0
  189.1870  176.2080  138.0100 C   0  0  0  0  0  0  0  0  0  0  0  0
  188.3400  176.1370  136.9740 C   0  0  0  0  0  3  0  0  0  0  0  0
  192.2700  177.3900  140.7350 C   0  0  0  0  0  3  0  0  0  0  0  0
  190.6610  177.7960  142.4980 C   0  0  0  0  0  0  0  0  0  0  0  0
  190.4590  178.1510  143.9180 C   0  0  0  0  0  3  0  0  0  0  0  0
  193.0010  176.0810  138.2470 C   0  0  0  0  0  2  0  0  0  0  0  0
  193.0110  174.7030  137.5910 C   0  0  0  0  0  2  0  0  0  0  0  0
  195.2340  175.1100  136.2520 C   0  0  0  0  0  1  0  0  0  0  0  0
  195.8000  173.6270  139.3010 O   0  0  0  0  0  0  0  0  0  0  0  0
  195.1480  173.6360  138.2250 C   0  0  0  0  0  0  0  0  0  0  0  0
  194.5420  172.9170  137.0120 N   0  0  0  0  0  0  0  0  0  0  0  0
  194.4280  174.2860  137.2370 C   0  0  1  0  0  0  0  0  0  0  0  0
  194.2860  171.7140  136.2390 C   0  0  0  0  0  0  0  0  0  0  0  0
  194.3650  170.6010  137.0750 O   0  0  0  0  0  1  0  0  0  0  0  0
  195.3190  171.5910  135.1380 C   0  0  0  0  0  1  0  0  0  0  0  0
  192.9030  171.7840  135.6250 C   0  0  0  0  0  1  0  0  0  0  0  0
  1 14  1  0  0  0  0
  2  3  1  0  0  0  0
  3  7  1  0  0  0  0
  3 19  2  0  0  0  0
  4 11  2  0  0  0  0
  5 14  1  6  0  0  0
  5  2  1  0  0  0  0
  6  1  1  0  0  0  0
  7  4  1  0  0  0  0
  8 21  1  1  0  0  0
  8 13  1  0  0  0  0
  9  1  2  0  0  0  0
 10 19  1  0  0  0  0
 11 15  1  0  0  0  0
 12 16  1  0  0  0  0
 12  8  1  0  0  0  0
 13  2  2  0  0  0  0
 13 18  1  0  0  0  0
 16  5  1  0  0  0  0
 17  6  1  0  0  0  0
 17 16  2  0  0  0  0
 18 10  2  0  0  0  0
 19 20  1  0  0  0  0
 20 15  2  0  0  0  0
 22 21  1  0  0  0  0
 25 24  2  0  0  0  0
 26 27  1  0  0  0  0
 26 25  1  0  0  0  0
 27 23  1  6  0  0  0
 27 22  1  0  0  0  0
 27 25  1  0  0  0  0
 28 26  1  0  0  0  0
 28 29  1  0  0  0  0
 30 28  1  0  0  0  0
 31 28  1  0  0  0  0
M  END
>  <MODEL>
7

>  <REMARK>
 VINA RESULT:      -8.0      5.216      8.165
  Name = 
  4 active torsions:
  status: ('A' for Active; 'I' for Inactive)
    1  A    between atoms: C_1  and  N_19
    2  A    between atoms: C_9  and  C_22
    3  A    between atoms: C_9  and  C_23
    4  A    between atoms: C_15  and  C_23
                            x       y       z     vdW  Elec       q    Type
                         _______ _______ _______ _____ _____    ______ ____

>  <TORSDO>
F 4

$$$$
=
 OpenBabel10262419213D

 31 35  0  0  1  0  0  0  0  0999 V2000
  189.8990  175.7900  142.6820 C   0  0  0  0  0  0  0  0  0  0  0  0
  186.8010  177.9600  143.4270 C   0  0  0  0  0  0  0  0  0  0  0  0
  186.4460  177.9620  144.7980 C   0  0  0  0  0  0  0  0  0  0  0  0
  187.6800  178.7440  146.7950 C   0  0  0  0  0  3  0  0  0  0  0  0
  188.2270  177.6420  143.0120 C   0  0  1  0  0  3  0  0  0  0  0  0
  190.6590  176.7640  141.8200 C   0  0  0  0  0  2  0  0  0  0  0  0
  187.4720  177.6210  145.8350 C   0  0  0  0  0  2  0  0  0  0  0  0
  186.1780  178.2760  140.9770 C   0  0  1  0  0  3  0  0  0  0  0  0
  190.3900  174.7040  142.9440 O   0  0  0  0  0  0  0  0  0  0  0  0
  184.1320  178.3710  144.1940 C   0  0  0  0  0  3  0  0  0  0  0  0
  186.7260  179.1700  147.6210 C   0  0  0  0  0  3  0  0  0  0  0  0
  187.5870  178.8250  140.7700 C   0  0  0  0  0  2  0  0  0  0  0  0
  185.8130  178.2330  142.4490 C   0  0  0  0  0  0  0  0  0  0  0  0
  188.5480  176.1560  143.2450 C   0  0  0  0  0  2  0  0  0  0  0  0
  185.3410  178.6640  147.6390 C   0  0  0  0  0  3  0  0  0  0  0  0
  188.5540  178.0330  141.5850 C   0  0  0  0  0  0  0  0  0  0  0  0
  189.7000  177.6130  141.0300 C   0  0  0  0  0  3  0  0  0  0  0  0
  184.4790  178.3930  142.8480 C   0  0  0  0  0  3  0  0  0  0  0  0
  185.1040  178.1900  145.1780 C   0  0  0  0  0  0  0  0  0  0  0  0
  184.6430  178.2340  146.5810 C   0  0  0  0  0  3  0  0  0  0  0  0
  185.1760  179.0360  140.1010 C   0  0  0  0  0  2  0  0  0  0  0  0
  184.2980  178.0950  139.2820 C   0  0  0  0  0  2  0  0  0  0  0  0
  183.0410  180.3500  138.7960 C   0  0  0  0  0  1  0  0  0  0  0  0
  182.4460  177.9790  136.3810 O   0  0  0  0  0  0  0  0  0  0  0  0
  182.4910  178.2650  137.6050 C   0  0  0  0  0  0  0  0  0  0  0  0
  181.8930  178.2290  139.0190 N   0  0  0  0  0  0  0  0  0  0  0  0
  183.1050  178.8380  138.7050 C   0  0  1  0  0  0  0  0  0  0  0  0
  180.8520  177.8400  139.9530 C   0  0  0  0  0  0  0  0  0  0  0  0
  179.6350  178.3810  139.5440 O   0  0  0  0  0  1  0  0  0  0  0  0
  181.1930  178.3580  141.3350 C   0  0  0  0  0  1  0  0  0  0  0  0
  180.7410  176.3300  139.9970 C   0  0  0  0  0  1  0  0  0  0  0  0
  1  9  2  0  0  0  0
  1 14  1  0  0  0  0
  2  3  1  0  0  0  0
  3 19  2  0  0  0  0
  3  7  1  0  0  0  0
  4 11  2  0  0  0  0
  5 14  1  6  0  0  0
  5  2  1  0  0  0  0
  6  1  1  0  0  0  0
  7  4  1  0  0  0  0
  8 21  1  6  0  0  0
  8 13  1  0  0  0  0
 10 19  1  0  0  0  0
 11 15  1  0  0  0  0
 12  8  1  0  0  0  0
 12 16  1  0  0  0  0
 13 18  1  0  0  0  0
 13  2  2  0  0  0  0
 16  5  1  0  0  0  0
 17 16  2  0  0  0  0
 17  6  1  0  0  0  0
 18 10  2  0  0  0  0
 19 20  1  0  0  0  0
 20 15  2  0  0  0  0
 22 21  1  0  0  0  0
 24 25  2  0  0  0  0
 25 27  1  0  0  0  0
 25 26  1  0  0  0  0
 26 28  1  0  0  0  0
 27 23  1  1  0  0  0
 27 26  1  0  0  0  0
 27 22  1  0  0  0  0
 28 31  1  0  0  0  0
 28 30  1  0  0  0  0
 29 28  1  0  0  0  0
M  END
>  <MODEL>
8

>  <REMARK>
 VINA RESULT:      -8.0      3.422      7.650
  Name = 
  4 active torsions:
  status: ('A' for Active; 'I' for Inactive)
    1  A    between atoms: C_1  and  N_19
    2  A    between atoms: C_9  and  C_22
    3  A    between atoms: C_9  and  C_23
    4  A    between atoms: C_15  and  C_23
                            x       y       z     vdW  Elec       q    Type
                         _______ _______ _______ _____ _____    ______ ____

>  <TORSDO>
F 4

$$$$
=
 OpenBabel10262419213D

 31 35  0  0  1  0  0  0  0  0999 V2000
  191.1460  175.7530  143.5860 C   0  0  0  0  0  0  0  0  0  0  0  0
  187.8420  177.7280  143.3720 C   0  0  0  0  0  0  0  0  0  0  0  0
  187.1230  177.7340  144.5920 C   0  0  0  0  0  0  0  0  0  0  0  0
  187.7110  178.6350  146.8200 C   0  0  0  0  0  3  0  0  0  0  0  0
  189.3440  177.4960  143.3760 C   0  0  1  0  0  3  0  0  0  0  0  0
  192.0570  176.7570  142.9300 C   0  0  0  0  0  2  0  0  0  0  0  0
  187.8410  177.4820  145.8830 C   0  0  0  0  0  2  0  0  0  0  0  0
  187.9030  177.9520  140.8360 C   0  0  1  0  0  3  0  0  0  0  0  0
  191.6080  174.7070  144.0130 O   0  0  0  0  0  0  0  0  0  0  0  0
  185.0460  177.9760  143.3620 C   0  0  0  0  0  3  0  0  0  0  0  0
  186.5430  179.0130  147.3360 C   0  0  0  0  0  3  0  0  0  0  0  0
  189.2800  178.5900  141.0020 C   0  0  0  0  0  2  0  0  0  0  0  0
  187.1480  177.9150  142.1510 C   0  0  0  0  0  0  0  0  0  0  0  0
  189.6740  176.0390  143.7430 C   0  0  0  0  0  2  0  0  0  0  0  0
  185.2390  178.4180  146.9930 C   0  0  0  0  0  3  0  0  0  0  0  0
  190.0290  177.8790  142.0790 C   0  0  0  0  0  0  0  0  0  0  0  0
  191.3050  177.5250  141.8760 C   0  0  0  0  0  3  0  0  0  0  0  0
  185.7490  177.9940  142.1630 C   0  0  0  0  0  3  0  0  0  0  0  0
  185.7180  177.8800  144.5800 C   0  0  0  0  0  0  0  0  0  0  0  0
  184.8860  177.9220  145.8010 C   0  0  0  0  0  3  0  0  0  0  0  0
  187.1390  178.6270  139.6910 C   0  0  0  0  0  2  0  0  0  0  0  0
  186.8030  177.6500  138.5680 C   0  0  0  0  0  2  0  0  0  0  0  0
  186.9160  177.9290  135.9580 C   0  0  0  0  0  1  0  0  0  0  0  0
  189.0560  180.0650  137.5930 O   0  0  0  0  0  0  0  0  0  0  0  0
  188.6240  178.8920  137.4510 C   0  0  0  0  0  0  0  0  0  0  0  0
  188.8530  177.3810  137.3050 N   0  0  0  0  0  0  0  0  0  0  0  0
  187.5950  177.9760  137.3140 C   0  0  1  0  0  0  0  0  0  0  0  0
  189.7300  176.2260  137.2290 C   0  0  0  0  0  0  0  0  0  0  0  0
  190.6410  176.4040  136.1890 O   0  0  0  0  0  1  0  0  0  0  0  0
  188.9060  174.9820  136.9690 C   0  0  0  0  0  1  0  0  0  0  0  0
  190.4820  176.0660  138.5340 C   0  0  0  0  0  1  0  0  0  0  0  0
  1 14  1  0  0  0  0
  1  9  2  0  0  0  0
  2  5  1  0  0  0  0
  2  3  1  0  0  0  0
  3  7  1  0  0  0  0
  4 11  2  0  0  0  0
  5 14  1  6  0  0  0
  6  1  1  0  0  0  0
  7  4  1  0  0  0  0
  8 21  1  6  0  0  0
  8 12  1  0  0  0  0
  8 13  1  0  0  0  0
 10 19  1  0  0  0  0
 12 16  1  0  0  0  0
 13 18  1  0  0  0  0
 13  2  2  0  0  0  0
 15 11  1  0  0  0  0
 16  5  1  0  0  0  0
 17 16  2  0  0  0  0
 17  6  1  0  0  0  0
 18 10  2  0  0  0  0
 19  3  2  0  0  0  0
 19 20  1  0  0  0  0
 20 15  2  0  0  0  0
 22 21  1  0  0  0  0
 25 24  2  0  0  0  0
 26 27  1  0  0  0  0
 26 25  1  0  0  0  0
 27 23  1  6  0  0  0
 27 25  1  0  0  0  0
 27 22  1  0  0  0  0
 28 26  1  0  0  0  0
 28 31  1  0  0  0  0
 29 28  1  0  0  0  0
 30 28  1  0  0  0  0
M  END
>  <MODEL>
9

>  <REMARK>
 VINA RESULT:      -7.8      2.734      6.608
  Name = 
  4 active torsions:
  status: ('A' for Active; 'I' for Inactive)
    1  A    between atoms: C_1  and  N_19
    2  A    between atoms: C_9  and  C_22
    3  A    between atoms: C_9  and  C_23
    4  A    between atoms: C_15  and  C_23
                            x       y       z     vdW  Elec       q    Type
                         _______ _______ _______ _____ _____    ______ ____

>  <TORSDO>
F 4

$$$$
