=
 OpenBabel10262420543D

 28 31  0  0  1  0  0  0  0  0999 V2000
  188.5510  176.9660  144.2400 C   0  0  0  0  0  0  0  0  0  0  0  0
  185.3320  178.8840  140.6500 C   0  0  0  0  0  2  0  0  0  0  0  0
  185.2650  179.2670  146.9200 O   0  0  0  0  0  1  0  0  0  0  0  0
  183.4540  178.3220  142.2430 C   0  0  2  0  0  3  0  0  0  0  0  0
  185.6980  179.0370  143.1750 C   0  0  2  0  0  3  0  0  0  0  0  0
  183.0200  178.4930  139.8140 C   0  0  0  0  0  0  0  0  0  0  0  0
  184.7070  179.1870  142.0150 C   0  0  1  0  0  3  0  0  0  0  0  0
  183.5170  179.6060  144.4560 C   0  0  0  0  0  2  0  0  0  0  0  0
  182.4020  178.6130  141.1760 C   0  0  0  0  0  2  0  0  0  0  0  0
  186.8180  177.9810  145.6210 C   0  0  0  0  0  0  0  0  0  0  0  0
  186.3450  177.6460  143.1960 C   0  0  0  0  0  2  0  0  0  0  0  0
  182.8600  178.4810  143.6510 C   0  0  0  0  0  2  0  0  0  0  0  0
  188.9100  177.2710  146.6230 C   0  0  0  0  0  3  0  0  0  0  0  0
  185.4210  178.5400  145.7370 C   0  0  2  0  0  3  0  0  0  0  0  0
  187.6400  177.8360  146.7470 C   0  0  0  0  0  3  0  0  0  0  0  0
  182.4320  177.9010  138.9240 O   0  0  0  0  0  0  0  0  0  0  0  0
  184.3270  179.1730  139.5330 C   0  0  0  0  0  2  0  0  0  0  0  0
  185.0420  179.4290  144.5370 C   0  0  1  0  0  3  0  0  0  0  0  0
  189.3640  176.8380  145.3760 C   0  0  0  0  0  3  0  0  0  0  0  0
  187.2680  177.5290  144.3690 C   0  0  0  0  0  0  0  0  0  0  0  0
  189.0440  176.4820  142.9060 C   0  0  2  0  0  3  0  0  0  0  0  0
  190.1050  175.5940  143.0880 O   0  0  0  0  0  1  0  0  0  0  0  0
  189.4840  177.6280  141.9950 C   0  0  0  0  0  2  0  0  0  0  0  0
  188.7760  178.4570  139.6990 C   0  0  0  0  0  1  0  0  0  0  0  0
  189.3840  177.3120  140.5000 C   0  0  1  0  0  3  0  0  0  0  0  0
  190.6730  176.8070  139.9240 C   0  0  0  0  0  0  0  0  0  0  0  0
  191.8650  177.4260  140.2750 O   0  0  0  0  0  1  0  0  0  0  0  0
  190.6890  175.8480  139.1080 O   0  0  0  0  0  0  0  0  0  0  0  0
  1 20  2  0  0  0  0
  1 19  1  0  0  0  0
  4  9  1  6  0  0  0
  4 12  1  0  0  0  0
  5 11  1  1  0  0  0
  5 18  1  0  0  0  0
  6  9  1  0  0  0  0
  7  2  1  6  0  0  0
  7  4  1  0  0  0  0
  7  5  1  0  0  0  0
 10 14  1  0  0  0  0
 10 15  2  0  0  0  0
 11 20  1  0  0  0  0
 12  8  1  0  0  0  0
 13 15  1  0  0  0  0
 14  3  1  1  0  0  0
 16  6  2  0  0  0  0
 17  6  1  0  0  0  0
 17  2  1  0  0  0  0
 18  8  1  6  0  0  0
 18 14  1  0  0  0  0
 19 13  2  0  0  0  0
 20 10  1  0  0  0  0
 21 22  1  1  0  0  0
 21  1  1  0  0  0  0
 23 21  1  0  0  0  0
 25 24  1  6  0  0  0
 25 23  1  0  0  0  0
 26 27  1  0  0  0  0
 26 25  1  0  0  0  0
 28 26  2  0  0  0  0
M  END
>  <MODEL>
1

>  <REMARK>
 VINA RESULT:     -10.3      0.000      0.000
  Name = 
  4 active torsions:
  status: ('A' for Active; 'I' for Inactive)
    1  A    between atoms: C_1  and  C_2
    2  A    between atoms: C_2  and  C_3
    3  A    between atoms: C_3  and  C_11
    4  A    between atoms: C_6  and  C_11
                            x       y       z     vdW  Elec       q    Type
                         _______ _______ _______ _____ _____    ______ ____

>  <TORSDO>
F 4

$$$$
=
 OpenBabel10262420543D

 28 31  0  0  1  0  0  0  0  0999 V2000
  184.1490  178.5750  142.3990 C   0  0  0  0  0  0  0  0  0  0  0  0
  188.7800  176.2620  142.7760 C   0  0  0  0  0  2  0  0  0  0  0  0
  184.8280  178.3890  147.1720 O   0  0  0  0  0  1  0  0  0  0  0  0
  189.2520  177.8440  144.6870 C   0  0  2  0  0  3  0  0  0  0  0  0
  186.8850  177.0230  144.3140 C   0  0  2  0  0  3  0  0  0  0  0  0
  191.1160  176.8500  143.4010 C   0  0  0  0  0  0  0  0  0  0  0  0
  188.3740  176.6800  144.1920 C   0  0  1  0  0  3  0  0  0  0  0  0
  187.7140  177.5550  146.7130 C   0  0  0  0  0  2  0  0  0  0  0  0
  190.7200  177.4280  144.7280 C   0  0  0  0  0  2  0  0  0  0  0  0
  184.5410  178.6400  144.8040 C   0  0  0  0  0  0  0  0  0  0  0  0
  186.4650  178.1070  143.3120 C   0  0  0  0  0  2  0  0  0  0  0  0
  188.8050  178.4000  146.0480 C   0  0  0  0  0  2  0  0  0  0  0  0
  182.3400  179.1480  143.9160 C   0  0  0  0  0  3  0  0  0  0  0  0
  185.5060  178.5330  145.9590 C   0  0  2  0  0  3  0  0  0  0  0  0
  183.2030  179.0070  145.0050 C   0  0  0  0  0  3  0  0  0  0  0  0
  192.1730  177.1730  142.8830 O   0  0  0  0  0  0  0  0  0  0  0  0
  190.2430  175.8160  142.7540 C   0  0  0  0  0  2  0  0  0  0  0  0
  186.5010  177.3680  145.7880 C   0  0  1  0  0  3  0  0  0  0  0  0
  182.8100  178.9330  142.6190 C   0  0  0  0  0  3  0  0  0  0  0  0
  185.0180  178.4410  143.4970 C   0  0  0  0  0  0  0  0  0  0  0  0
  184.6480  178.3630  140.9980 C   0  0  2  0  0  3  0  0  0  0  0  0
  185.1310  179.5650  140.4810 O   0  0  0  0  0  1  0  0  0  0  0  0
  183.5670  177.8040  140.0710 C   0  0  0  0  0  2  0  0  0  0  0  0
  183.2850  177.7600  137.5460 C   0  0  0  0  0  1  0  0  0  0  0  0
  183.3500  178.6270  138.7980 C   0  0  1  0  0  3  0  0  0  0  0  0
  182.2030  179.5860  138.9140 C   0  0  0  0  0  0  0  0  0  0  0  0
  182.3860  180.9140  138.5520 O   0  0  0  0  0  0  0  0  0  0  0  0
  181.0860  179.2120  139.3580 O   0  0  0  0  0  1  0  0  0  0  0  0
  1 19  2  0  0  0  0
  1 20  1  0  0  0  0
  4  9  1  1  0  0  0
  4 12  1  0  0  0  0
  5 11  1  6  0  0  0
  5 18  1  0  0  0  0
  6  9  1  0  0  0  0
  7  2  1  6  0  0  0
  7  5  1  0  0  0  0
  7  4  1  0  0  0  0
 10 15  1  0  0  0  0
 10 14  1  0  0  0  0
 11 20  1  0  0  0  0
 12  8  1  0  0  0  0
 13 15  2  0  0  0  0
 14  3  1  1  0  0  0
 16  6  2  0  0  0  0
 17  2  1  0  0  0  0
 17  6  1  0  0  0  0
 18 14  1  0  0  0  0
 18  8  1  1  0  0  0
 19 13  1  0  0  0  0
 20 10  2  0  0  0  0
 21 22  1  6  0  0  0
 21  1  1  0  0  0  0
 23 21  1  0  0  0  0
 25 24  1  6  0  0  0
 25 26  1  0  0  0  0
 25 23  1  0  0  0  0
 26 28  1  0  0  0  0
 27 26  2  0  0  0  0
M  END
>  <MODEL>
2

>  <REMARK>
 VINA RESULT:     -10.2      1.743      6.417
  Name = 
  4 active torsions:
  status: ('A' for Active; 'I' for Inactive)
    1  A    between atoms: C_1  and  C_2
    2  A    between atoms: C_2  and  C_3
    3  A    between atoms: C_3  and  C_11
    4  A    between atoms: C_6  and  C_11
                            x       y       z     vdW  Elec       q    Type
                         _______ _______ _______ _____ _____    ______ ____

>  <TORSDO>
F 4

$$$$
=
 OpenBabel10262420543D

 28 31  0  0  1  0  0  0  0  0999 V2000
  184.4770  178.4710  142.9330 C   0  0  0  0  0  0  0  0  0  0  0  0
  189.1340  176.5910  141.6230 C   0  0  0  0  0  2  0  0  0  0  0  0
  186.6560  178.0240  147.2150 O   0  0  0  0  0  1  0  0  0  0  0  0
  190.0820  178.0770  143.4330 C   0  0  2  0  0  3  0  0  0  0  0  0
  187.7820  177.0600  143.7410 C   0  0  2  0  0  3  0  0  0  0  0  0
  191.5020  177.3560  141.5400 C   0  0  0  0  0  0  0  0  0  0  0  0
  189.1740  176.8710  143.1270 C   0  0  1  0  0  3  0  0  0  0  0  0
  189.2950  177.5030  145.8000 C   0  0  0  0  0  2  0  0  0  0  0  0
  191.5110  177.8010  142.9730 C   0  0  0  0  0  2  0  0  0  0  0  0
  185.6110  178.4080  145.0900 C   0  0  0  0  0  0  0  0  0  0  0  0
  186.9910  178.1650  143.0280 C   0  0  0  0  0  2  0  0  0  0  0  0
  190.0560  178.4920  144.9120 C   0  0  0  0  0  2  0  0  0  0  0  0
  183.2130  178.7620  144.9870 C   0  0  0  0  0  3  0  0  0  0  0  0
  186.9000  178.3140  145.8700 C   0  0  2  0  0  3  0  0  0  0  0  0
  184.3860  178.6300  145.7330 C   0  0  0  0  0  3  0  0  0  0  0  0
  192.3130  177.8130  140.7510 O   0  0  0  0  0  0  0  0  0  0  0  0
  190.5410  176.2900  141.1030 C   0  0  0  0  0  2  0  0  0  0  0  0
  187.8650  177.2650  145.2870 C   0  0  1  0  0  3  0  0  0  0  0  0
  183.2580  178.6830  143.5940 C   0  0  0  0  0  3  0  0  0  0  0  0
  185.6590  178.3460  143.6880 C   0  0  0  0  0  0  0  0  0  0  0  0
  184.5170  178.4040  141.4330 C   0  0  2  0  0  3  0  0  0  0  0  0
  184.9740  179.6170  140.9170 O   0  0  0  0  0  1  0  0  0  0  0  0
  183.1520  178.0720  140.8270 C   0  0  0  0  0  2  0  0  0  0  0  0
  182.2910  176.0330  139.5780 C   0  0  0  0  0  1  0  0  0  0  0  0
  183.2240  177.2380  139.5450 C   0  0  1  0  0  3  0  0  0  0  0  0
  183.0760  178.0660  138.3040 C   0  0  0  0  0  0  0  0  0  0  0  0
  183.2980  177.4820  137.0640 O   0  0  0  0  0  0  0  0  0  0  0  0
  182.7800  179.2890  138.3690 O   0  0  0  0  0  1  0  0  0  0  0  0
  1 19  2  0  0  0  0
  1 20  1  0  0  0  0
  4  9  1  1  0  0  0
  4 12  1  0  0  0  0
  5 11  1  6  0  0  0
  5 18  1  0  0  0  0
  6  9  1  0  0  0  0
  7  2  1  6  0  0  0
  7  4  1  0  0  0  0
  7  5  1  0  0  0  0
 10 15  1  0  0  0  0
 10 14  1  0  0  0  0
 11 20  1  0  0  0  0
 12  8  1  0  0  0  0
 13 15  2  0  0  0  0
 14  3  1  1  0  0  0
 16  6  2  0  0  0  0
 17  6  1  0  0  0  0
 17  2  1  0  0  0  0
 18  8  1  6  0  0  0
 18 14  1  0  0  0  0
 19 13  1  0  0  0  0
 20 10  2  0  0  0  0
 21 22  1  6  0  0  0
 21  1  1  0  0  0  0
 23 21  1  0  0  0  0
 25 24  1  1  0  0  0
 25 23  1  0  0  0  0
 26 28  1  0  0  0  0
 26 25  1  0  0  0  0
 27 26  2  0  0  0  0
M  END
>  <MODEL>
3

>  <REMARK>
 VINA RESULT:      -9.5      1.508      6.181
  Name = 
  4 active torsions:
  status: ('A' for Active; 'I' for Inactive)
    1  A    between atoms: C_1  and  C_2
    2  A    between atoms: C_2  and  C_3
    3  A    between atoms: C_3  and  C_11
    4  A    between atoms: C_6  and  C_11
                            x       y       z     vdW  Elec       q    Type
                         _______ _______ _______ _____ _____    ______ ____

>  <TORSDO>
F 4

$$$$
=
 OpenBabel10262420543D

 28 31  0  0  1  0  0  0  0  0999 V2000
  188.5920  177.0080  144.7480 C   0  0  0  0  0  0  0  0  0  0  0  0
  185.5620  178.9940  141.0320 C   0  0  0  0  0  2  0  0  0  0  0  0
  185.0010  178.9900  147.2890 O   0  0  0  0  0  1  0  0  0  0  0  0
  183.5990  178.2520  142.4380 C   0  0  2  0  0  3  0  0  0  0  0  0
  185.7280  179.0090  143.5830 C   0  0  2  0  0  3  0  0  0  0  0  0
  183.3420  178.5510  139.9960 C   0  0  0  0  0  0  0  0  0  0  0  0
  184.8220  179.1850  142.3590 C   0  0  1  0  0  3  0  0  0  0  0  0
  183.4310  179.4000  144.7190 C   0  0  0  0  0  2  0  0  0  0  0  0
  182.6180  178.5590  141.3100 C   0  0  0  0  0  2  0  0  0  0  0  0
  186.7110  177.8580  146.0440 C   0  0  0  0  0  0  0  0  0  0  0  0
  186.4400  177.6500  143.5750 C   0  0  0  0  0  2  0  0  0  0  0  0
  182.8930  178.2980  143.8020 C   0  0  0  0  0  2  0  0  0  0  0  0
  188.7540  177.1830  147.1660 C   0  0  0  0  0  3  0  0  0  0  0  0
  185.2830  178.3450  146.0820 C   0  0  2  0  0  3  0  0  0  0  0  0
  187.4510  177.6820  147.2210 C   0  0  0  0  0  3  0  0  0  0  0  0
  182.8530  177.9880  139.0310 O   0  0  0  0  0  0  0  0  0  0  0  0
  184.6320  179.3050  139.8580 C   0  0  0  0  0  2  0  0  0  0  0  0
  184.9520  179.2880  144.9090 C   0  0  1  0  0  3  0  0  0  0  0  0
  189.3220  176.8480  145.9360 C   0  0  0  0  0  3  0  0  0  0  0  0
  187.2770  177.5040  144.8080 C   0  0  0  0  0  0  0  0  0  0  0  0
  189.2070  176.6290  143.4320 C   0  0  2  0  0  3  0  0  0  0  0  0
  188.5030  175.5630  142.8700 O   0  0  0  0  0  1  0  0  0  0  0  0
  190.6840  176.2540  143.5640 C   0  0  0  0  0  2  0  0  0  0  0  0
  191.4860  177.5020  141.5000 C   0  0  0  0  0  1  0  0  0  0  0  0
  191.6480  177.3030  143.0030 C   0  0  1  0  0  3  0  0  0  0  0  0
  191.6220  178.5880  143.7760 C   0  0  0  0  0  0  0  0  0  0  0  0
  190.7100  179.5750  143.4270 O   0  0  0  0  0  0  0  0  0  0  0  0
  192.4310  178.7960  144.7180 O   0  0  0  0  0  1  0  0  0  0  0  0
  1 20  2  0  0  0  0
  1 19  1  0  0  0  0
  4  9  1  6  0  0  0
  4 12  1  0  0  0  0
  5 11  1  1  0  0  0
  5 18  1  0  0  0  0
  6  9  1  0  0  0  0
  7  2  1  6  0  0  0
  7  4  1  0  0  0  0
  7  5  1  0  0  0  0
 10 14  1  0  0  0  0
 10 15  2  0  0  0  0
 11 20  1  0  0  0  0
 12  8  1  0  0  0  0
 13 15  1  0  0  0  0
 14  3  1  1  0  0  0
 16  6  2  0  0  0  0
 17  6  1  0  0  0  0
 17  2  1  0  0  0  0
 18  8  1  6  0  0  0
 18 14  1  0  0  0  0
 19 13  2  0  0  0  0
 20 10  1  0  0  0  0
 21 22  1  1  0  0  0
 21 23  1  0  0  0  0
 21  1  1  0  0  0  0
 25 24  1  6  0  0  0
 25 23  1  0  0  0  0
 25 26  1  0  0  0  0
 26 28  1  0  0  0  0
 27 26  2  0  0  0  0
M  END
>  <MODEL>
4

>  <REMARK>
 VINA RESULT:      -9.3      1.527      2.012
  Name = 
  4 active torsions:
  status: ('A' for Active; 'I' for Inactive)
    1  A    between atoms: C_1  and  C_2
    2  A    between atoms: C_2  and  C_3
    3  A    between atoms: C_3  and  C_11
    4  A    between atoms: C_6  and  C_11
                            x       y       z     vdW  Elec       q    Type
                         _______ _______ _______ _____ _____    ______ ____

>  <TORSDO>
F 4

$$$$
=
 OpenBabel10262420543D

 28 31  0  0  1  0  0  0  0  0999 V2000
  186.8260  178.5850  141.3730 C   0  0  0  0  0  0  0  0  0  0  0  0
  188.6660  176.9850  145.9540 C   0  0  0  0  0  2  0  0  0  0  0  0
  182.8880  178.6770  144.1590 O   0  0  0  0  0  1  0  0  0  0  0  0
  187.1250  178.6890  147.0040 C   0  0  2  0  0  3  0  0  0  0  0  0
  186.4120  177.5190  144.8740 C   0  0  2  0  0  3  0  0  0  0  0  0
  189.1490  177.9300  148.2060 C   0  0  0  0  0  0  0  0  0  0  0  0
  187.2070  177.3920  146.1780 C   0  0  1  0  0  3  0  0  0  0  0  0
  184.6330  178.2540  146.6110 C   0  0  0  0  0  2  0  0  0  0  0  0
  187.7680  178.4930  148.3740 C   0  0  0  0  0  2  0  0  0  0  0  0
  184.8590  178.7950  142.7970 C   0  0  0  0  0  0  0  0  0  0  0  0
  187.0780  178.4920  143.8920 C   0  0  0  0  0  2  0  0  0  0  0  0
  185.6920  179.2240  147.1470 C   0  0  0  0  0  2  0  0  0  0  0  0
  184.6360  178.9450  140.3860 C   0  0  0  0  0  3  0  0  0  0  0  0
  184.2720  178.8730  144.1850 C   0  0  2  0  0  3  0  0  0  0  0  0
  184.0620  178.9710  141.6580 C   0  0  0  0  0  3  0  0  0  0  0  0
  190.0780  178.3830  148.8540 O   0  0  0  0  0  0  0  0  0  0  0  0
  189.3630  176.7560  147.2970 C   0  0  0  0  0  2  0  0  0  0  0  0
  184.9130  177.8600  145.1520 C   0  0  1  0  0  3  0  0  0  0  0  0
  186.0110  178.7530  140.2430 C   0  0  0  0  0  3  0  0  0  0  0  0
  186.2460  178.6200  142.6540 C   0  0  0  0  0  0  0  0  0  0  0  0
  188.3070  178.3960  141.2080 C   0  0  2  0  0  3  0  0  0  0  0  0
  188.6280  178.3280  139.8520 O   0  0  0  0  0  1  0  0  0  0  0  0
  188.8180  177.1410  141.9180 C   0  0  0  0  0  2  0  0  0  0  0  0
  190.5280  178.5350  143.1780 C   0  0  0  0  0  1  0  0  0  0  0  0
  190.2640  177.2460  142.4100 C   0  0  1  0  0  3  0  0  0  0  0  0
  190.7210  176.0190  143.1400 C   0  0  0  0  0  0  0  0  0  0  0  0
  191.6770  176.1360  144.1390 O   0  0  0  0  0  1  0  0  0  0  0  0
  190.2700  174.8800  142.8430 O   0  0  0  0  0  0  0  0  0  0  0  0
  1 20  1  0  0  0  0
  2 17  1  0  0  0  0
  4 12  1  1  0  0  0
  4  9  1  0  0  0  0
  5 11  1  6  0  0  0
  5 18  1  0  0  0  0
  5  7  1  0  0  0  0
  6  9  1  0  0  0  0
  6 16  2  0  0  0  0
  7  2  1  6  0  0  0
  7  4  1  0  0  0  0
  8 12  1  0  0  0  0
 10 14  1  0  0  0  0
 13 15  2  0  0  0  0
 14  3  1  6  0  0  0
 14 18  1  0  0  0  0
 15 10  1  0  0  0  0
 17  6  1  0  0  0  0
 18  8  1  1  0  0  0
 19 13  1  0  0  0  0
 19  1  2  0  0  0  0
 20 10  2  0  0  0  0
 20 11  1  0  0  0  0
 21 22  1  6  0  0  0
 21  1  1  0  0  0  0
 21 23  1  0  0  0  0
 23 25  1  0  0  0  0
 25 26  1  0  0  0  0
 25 24  1  1  0  0  0
 26 27  1  0  0  0  0
 28 26  2  0  0  0  0
M  END
>  <MODEL>
5

>  <REMARK>
 VINA RESULT:      -9.1      1.912      5.551
  Name = 
  4 active torsions:
  status: ('A' for Active; 'I' for Inactive)
    1  A    between atoms: C_1  and  C_2
    2  A    between atoms: C_2  and  C_3
    3  A    between atoms: C_3  and  C_11
    4  A    between atoms: C_6  and  C_11
                            x       y       z     vdW  Elec       q    Type
                         _______ _______ _______ _____ _____    ______ ____

>  <TORSDO>
F 4

$$$$
=
 OpenBabel10262420543D

 28 31  0  0  1  0  0  0  0  0999 V2000
  187.7350  177.3250  144.0730 C   0  0  0  0  0  0  0  0  0  0  0  0
  184.9490  179.0160  140.0340 C   0  0  0  0  0  2  0  0  0  0  0  0
  183.8130  179.1470  146.2120 O   0  0  0  0  0  1  0  0  0  0  0  0
  182.9120  178.1910  141.2800 C   0  0  2  0  0  3  0  0  0  0  0  0
  184.8770  179.1110  142.5880 C   0  0  2  0  0  3  0  0  0  0  0  0
  182.8650  178.4070  138.8170 C   0  0  0  0  0  0  0  0  0  0  0  0
  184.0790  179.1960  141.2810 C   0  0  1  0  0  3  0  0  0  0  0  0
  182.4650  179.3880  143.4980 C   0  0  0  0  0  2  0  0  0  0  0  0
  182.0230  178.4060  140.0590 C   0  0  0  0  0  2  0  0  0  0  0  0
  185.6950  178.0910  145.1650 C   0  0  0  0  0  0  0  0  0  0  0  0
  185.6670  177.7990  142.6890 C   0  0  0  0  0  2  0  0  0  0  0  0
  182.0820  178.2300  142.5720 C   0  0  0  0  0  2  0  0  0  0  0  0
  187.6620  177.5750  146.4880 C   0  0  0  0  0  3  0  0  0  0  0  0
  184.2430  178.4880  145.0570 C   0  0  2  0  0  3  0  0  0  0  0  0
  186.3320  177.9930  146.4090 C   0  0  0  0  0  3  0  0  0  0  0  0
  182.5020  177.7890  137.8300 O   0  0  0  0  0  0  0  0  0  0  0  0
  184.1150  179.2360  138.7710 C   0  0  0  0  0  2  0  0  0  0  0  0
  183.9670  179.3760  143.8280 C   0  0  1  0  0  3  0  0  0  0  0  0
  188.3610  177.2430  145.3270 C   0  0  0  0  0  3  0  0  0  0  0  0
  186.3930  177.7390  143.9980 C   0  0  0  0  0  0  0  0  0  0  0  0
  188.4910  176.9490  142.8310 C   0  0  2  0  0  3  0  0  0  0  0  0
  188.7980  175.5880  142.8580 O   0  0  0  0  0  1  0  0  0  0  0  0
  189.7770  177.7600  142.6620 C   0  0  0  0  0  2  0  0  0  0  0  0
  192.0390  177.4690  141.5400 C   0  0  0  0  0  1  0  0  0  0  0  0
  191.0440  176.9070  142.5490 C   0  0  1  0  0  3  0  0  0  0  0  0
  191.6600  176.6030  143.8810 C   0  0  0  0  0  0  0  0  0  0  0  0
  192.0540  175.3030  144.1700 O   0  0  0  0  0  0  0  0  0  0  0  0
  191.8020  177.5020  144.7520 O   0  0  0  0  0  1  0  0  0  0  0  0
  1 19  1  0  0  0  0
  4  9  1  6  0  0  0
  4  7  1  0  0  0  0
  4 12  1  0  0  0  0
  5 11  1  1  0  0  0
  5 18  1  0  0  0  0
  6  9  1  0  0  0  0
  7  2  1  6  0  0  0
  7  5  1  0  0  0  0
 10 15  2  0  0  0  0
 11 20  1  0  0  0  0
 12  8  1  0  0  0  0
 14 10  1  0  0  0  0
 14  3  1  1  0  0  0
 15 13  1  0  0  0  0
 16  6  2  0  0  0  0
 17  6  1  0  0  0  0
 17  2  1  0  0  0  0
 18  8  1  6  0  0  0
 18 14  1  0  0  0  0
 19 13  2  0  0  0  0
 20  1  2  0  0  0  0
 20 10  1  0  0  0  0
 21 22  1  1  0  0  0
 21  1  1  0  0  0  0
 23 21  1  0  0  0  0
 25 24  1  6  0  0  0
 25 23  1  0  0  0  0
 25 26  1  0  0  0  0
 26 27  2  0  0  0  0
 26 28  1  0  0  0  0
M  END
>  <MODEL>
6

>  <REMARK>
 VINA RESULT:      -8.8      1.678      2.104
  Name = 
  4 active torsions:
  status: ('A' for Active; 'I' for Inactive)
    1  A    between atoms: C_1  and  C_2
    2  A    between atoms: C_2  and  C_3
    3  A    between atoms: C_3  and  C_11
    4  A    between atoms: C_6  and  C_11
                            x       y       z     vdW  Elec       q    Type
                         _______ _______ _______ _____ _____    ______ ____

>  <TORSDO>
F 4

$$$$
=
 OpenBabel10262420543D

 28 31  0  0  1  0  0  0  0  0999 V2000
  189.9080  176.5650  144.4930 C   0  0  0  0  0  0  0  0  0  0  0  0
  185.5220  178.9800  143.1270 C   0  0  0  0  0  2  0  0  0  0  0  0
  188.3940  178.4120  148.6850 O   0  0  0  0  0  1  0  0  0  0  0  0
  184.5650  178.1710  145.3200 C   0  0  2  0  0  3  0  0  0  0  0  0
  187.0260  178.7530  145.1810 C   0  0  2  0  0  3  0  0  0  0  0  0
  183.0670  178.7030  143.4260 C   0  0  0  0  0  0  0  0  0  0  0  0
  185.6230  179.0690  144.6520 C   0  0  1  0  0  3  0  0  0  0  0  0
  185.7300  179.1070  147.3980 C   0  0  0  0  0  2  0  0  0  0  0  0
  183.1600  178.6120  144.9210 C   0  0  0  0  0  2  0  0  0  0  0  0
  189.0820  177.3480  146.6480 C   0  0  0  0  0  0  0  0  0  0  0  0
  187.5180  177.3790  144.7070 C   0  0  0  0  0  2  0  0  0  0  0  0
  184.7030  178.1120  146.8490 C   0  0  0  0  0  2  0  0  0  0  0  0
  191.3500  176.5090  146.4480 C   0  0  0  0  0  3  0  0  0  0  0  0
  187.9370  177.8730  147.4800 C   0  0  2  0  0  3  0  0  0  0  0  0
  190.3210  177.0400  147.2270 C   0  0  0  0  0  3  0  0  0  0  0  0
  182.0960  178.2480  142.8430 O   0  0  0  0  0  0  0  0  0  0  0  0
  184.1350  179.4270  142.6610 C   0  0  0  0  0  2  0  0  0  0  0  0
  187.1030  178.9300  146.7310 C   0  0  1  0  0  3  0  0  0  0  0  0
  191.1450  176.2720  145.0870 C   0  0  0  0  0  3  0  0  0  0  0  0
  188.8710  177.0930  145.2830 C   0  0  0  0  0  0  0  0  0  0  0  0
  189.6940  176.2900  143.0320 C   0  0  2  0  0  3  0  0  0  0  0  0
  190.5200  175.2440  142.6210 O   0  0  0  0  0  1  0  0  0  0  0  0
  189.9550  177.5210  142.1620 C   0  0  0  0  0  2  0  0  0  0  0  0
  188.0620  178.7140  140.9580 C   0  0  0  0  0  1  0  0  0  0  0  0
  189.0900  177.5900  140.9010 C   0  0  1  0  0  3  0  0  0  0  0  0
  189.9000  177.5920  139.6390 C   0  0  0  0  0  0  0  0  0  0  0  0
  190.9810  176.7290  139.5210 O   0  0  0  0  0  1  0  0  0  0  0  0
  189.6320  178.3820  138.6960 O   0  0  0  0  0  0  0  0  0  0  0  0
  1 19  2  0  0  0  0
  1 20  1  0  0  0  0
  4  9  1  1  0  0  0
  4 12  1  0  0  0  0
  5 11  1  1  0  0  0
  5 18  1  0  0  0  0
  6  9  1  0  0  0  0
  7  2  1  6  0  0  0
  7  5  1  0  0  0  0
  7  4  1  0  0  0  0
 10 15  1  0  0  0  0
 10 14  1  0  0  0  0
 11 20  1  0  0  0  0
 12  8  1  0  0  0  0
 13 15  2  0  0  0  0
 14  3  1  1  0  0  0
 16  6  2  0  0  0  0
 17  2  1  0  0  0  0
 17  6  1  0  0  0  0
 18  8  1  1  0  0  0
 18 14  1  0  0  0  0
 19 13  1  0  0  0  0
 20 10  2  0  0  0  0
 21 22  1  6  0  0  0
 21  1  1  0  0  0  0
 23 21  1  0  0  0  0
 25 24  1  1  0  0  0
 25 23  1  0  0  0  0
 26 25  1  0  0  0  0
 27 26  1  0  0  0  0
 28 26  2  0  0  0  0
M  END
>  <MODEL>
7

>  <REMARK>
 VINA RESULT:      -8.6      1.686      2.624
  Name = 
  4 active torsions:
  status: ('A' for Active; 'I' for Inactive)
    1  A    between atoms: C_1  and  C_2
    2  A    between atoms: C_2  and  C_3
    3  A    between atoms: C_3  and  C_11
    4  A    between atoms: C_6  and  C_11
                            x       y       z     vdW  Elec       q    Type
                         _______ _______ _______ _____ _____    ______ ____

>  <TORSDO>
F 4

$$$$
=
 OpenBabel10262420543D

 28 31  0  0  1  0  0  0  0  0999 V2000
  186.7900  177.9740  144.6230 C   0  0  0  0  0  0  0  0  0  0  0  0
  185.9050  178.5390  139.5400 C   0  0  0  0  0  2  0  0  0  0  0  0
  182.1420  179.2650  144.5180 O   0  0  0  0  0  1  0  0  0  0  0  0
  183.6400  177.5060  139.9670 C   0  0  2  0  0  3  0  0  0  0  0  0
  184.6980  178.9560  141.7550 C   0  0  2  0  0  3  0  0  0  0  0  0
  184.6650  177.3790  137.7200 C   0  0  0  0  0  0  0  0  0  0  0  0
  184.5590  178.7090  140.2480 C   0  0  1  0  0  3  0  0  0  0  0  0
  182.1190  178.8770  141.5030 C   0  0  0  0  0  2  0  0  0  0  0  0
  183.3660  177.3790  138.4720 C   0  0  0  0  0  2  0  0  0  0  0  0
  184.4030  178.4650  144.5870 C   0  0  0  0  0  0  0  0  0  0  0  0
  185.5090  177.8480  142.4410 C   0  0  0  0  0  2  0  0  0  0  0  0
  182.3250  177.5530  140.7600 C   0  0  0  0  0  2  0  0  0  0  0  0
  185.6250  178.5230  146.6830 C   0  0  0  0  0  3  0  0  0  0  0  0
  183.1140  178.5550  143.8070 C   0  0  2  0  0  3  0  0  0  0  0  0
  184.4290  178.6590  145.9750 C   0  0  0  0  0  3  0  0  0  0  0  0
  184.8530  176.5770  136.8210 O   0  0  0  0  0  0  0  0  0  0  0  0
  185.6980  178.4230  138.0290 C   0  0  0  0  0  2  0  0  0  0  0  0
  183.3080  179.2010  142.4220 C   0  0  1  0  0  3  0  0  0  0  0  0
  186.7990  178.1820  146.0110 C   0  0  0  0  0  3  0  0  0  0  0  0
  185.5820  178.1050  143.9140 C   0  0  0  0  0  0  0  0  0  0  0  0
  188.0560  177.5910  143.9130 C   0  0  2  0  0  3  0  0  0  0  0  0
  188.1170  176.2040  143.7680 O   0  0  0  0  0  1  0  0  0  0  0  0
  189.3070  178.0840  144.6420 C   0  0  0  0  0  2  0  0  0  0  0  0
  191.5700  177.1200  144.0000 C   0  0  0  0  0  1  0  0  0  0  0  0
  190.3490  176.9920  144.9040 C   0  0  1  0  0  3  0  0  0  0  0  0
  190.7000  176.8600  146.3560 C   0  0  0  0  0  0  0  0  0  0  0  0
  192.0320  176.7430  146.7270 O   0  0  0  0  0  0  0  0  0  0  0  0
  189.8040  176.8260  147.2400 O   0  0  0  0  0  1  0  0  0  0  0  0
  1 19  1  0  0  0  0
  4  9  1  6  0  0  0
  4  7  1  0  0  0  0
  4 12  1  0  0  0  0
  5 18  1  0  0  0  0
  5 11  1  1  0  0  0
  6 17  1  0  0  0  0
  6  9  1  0  0  0  0
  7  2  1  1  0  0  0
  7  5  1  0  0  0  0
 10 15  2  0  0  0  0
 11 20  1  0  0  0  0
 12  8  1  0  0  0  0
 14  3  1  1  0  0  0
 14 10  1  0  0  0  0
 15 13  1  0  0  0  0
 16  6  2  0  0  0  0
 17  2  1  0  0  0  0
 18  8  1  6  0  0  0
 18 14  1  0  0  0  0
 19 13  2  0  0  0  0
 20 10  1  0  0  0  0
 20  1  2  0  0  0  0
 21 22  1  1  0  0  0
 21  1  1  0  0  0  0
 21 23  1  0  0  0  0
 23 25  1  0  0  0  0
 25 24  1  6  0  0  0
 25 26  1  0  0  0  0
 26 27  2  0  0  0  0
 26 28  1  0  0  0  0
M  END
>  <MODEL>
8

>  <REMARK>
 VINA RESULT:      -8.5      2.354      3.613
  Name = 
  4 active torsions:
  status: ('A' for Active; 'I' for Inactive)
    1  A    between atoms: C_1  and  C_2
    2  A    between atoms: C_2  and  C_3
    3  A    between atoms: C_3  and  C_11
    4  A    between atoms: C_6  and  C_11
                            x       y       z     vdW  Elec       q    Type
                         _______ _______ _______ _____ _____    ______ ____

>  <TORSDO>
F 4

$$$$
=
 OpenBabel10262420543D

 28 31  0  0  1  0  0  0  0  0999 V2000
  187.9780  178.2500  140.1560 C   0  0  0  0  0  0  0  0  0  0  0  0
  187.5470  177.2440  145.2290 C   0  0  0  0  0  2  0  0  0  0  0  0
  183.2230  178.6210  140.8840 O   0  0  0  0  0  1  0  0  0  0  0  0
  185.7710  179.0390  145.2860 C   0  0  2  0  0  3  0  0  0  0  0  0
  186.0220  177.6100  143.2100 C   0  0  2  0  0  3  0  0  0  0  0  0
  187.0270  178.4610  147.3370 C   0  0  0  0  0  0  0  0  0  0  0  0
  186.1560  177.6540  144.7360 C   0  0  1  0  0  3  0  0  0  0  0  0
  183.6920  178.5240  143.8860 C   0  0  0  0  0  2  0  0  0  0  0  0
  185.7370  179.0200  146.8110 C   0  0  0  0  0  2  0  0  0  0  0  0
  185.5960  178.6030  140.5300 C   0  0  0  0  0  0  0  0  0  0  0  0
  187.0920  178.4670  142.5190 C   0  0  0  0  0  2  0  0  0  0  0  0
  184.4440  179.5660  144.7180 C   0  0  0  0  0  2  0  0  0  0  0  0
  186.4630  178.4560  138.2680 C   0  0  0  0  0  3  0  0  0  0  0  0
  184.4600  178.8380  141.4960 C   0  0  2  0  0  3  0  0  0  0  0  0
  185.3890  178.6280  139.1440 C   0  0  0  0  0  3  0  0  0  0  0  0
  187.5930  179.0030  148.2720 O   0  0  0  0  0  0  0  0  0  0  0  0
  187.5720  177.1890  146.7570 C   0  0  0  0  0  2  0  0  0  0  0  0
  184.5690  177.9590  142.7570 C   0  0  1  0  0  3  0  0  0  0  0  0
  187.7510  178.2680  138.7710 C   0  0  0  0  0  3  0  0  0  0  0  0
  186.8950  178.4310  141.0350 C   0  0  0  0  0  0  0  0  0  0  0  0
  189.3710  178.0650  140.6860 C   0  0  2  0  0  3  0  0  0  0  0  0
  190.1980  177.5640  139.6790 O   0  0  0  0  0  1  0  0  0  0  0  0
  189.4160  177.1300  141.8960 C   0  0  0  0  0  2  0  0  0  0  0  0
  190.5620  178.6350  143.5940 C   0  0  0  0  0  1  0  0  0  0  0  0
  190.6350  177.3360  142.8000 C   0  0  1  0  0  3  0  0  0  0  0  0
  190.9370  176.1390  143.6500 C   0  0  0  0  0  0  0  0  0  0  0  0
  190.5550  174.8780  143.2130 O   0  0  0  0  0  0  0  0  0  0  0  0
  191.5070  176.2620  144.7670 O   0  0  0  0  0  1  0  0  0  0  0  0
  1 21  1  0  0  0  0
  1 20  1  0  0  0  0
  2 17  1  0  0  0  0
  4 12  1  6  0  0  0
  4  9  1  0  0  0  0
  5 11  1  6  0  0  0
  5  7  1  0  0  0  0
  6 16  2  0  0  0  0
  7  2  1  6  0  0  0
  7  4  1  0  0  0  0
  8 12  1  0  0  0  0
  9  6  1  0  0  0  0
 10 20  2  0  0  0  0
 10 14  1  0  0  0  0
 13 19  1  0  0  0  0
 13 15  2  0  0  0  0
 14  3  1  6  0  0  0
 14 18  1  0  0  0  0
 15 10  1  0  0  0  0
 17  6  1  0  0  0  0
 18  5  1  0  0  0  0
 18  8  1  1  0  0  0
 19  1  2  0  0  0  0
 20 11  1  0  0  0  0
 21 22  1  6  0  0  0
 21 23  1  0  0  0  0
 23 25  1  0  0  0  0
 25 24  1  1  0  0  0
 25 26  1  0  0  0  0
 26 28  1  0  0  0  0
 27 26  2  0  0  0  0
M  END
>  <MODEL>
9

>  <REMARK>
 VINA RESULT:      -8.4      1.442      5.309
  Name = 
  4 active torsions:
  status: ('A' for Active; 'I' for Inactive)
    1  A    between atoms: C_1  and  C_2
    2  A    between atoms: C_2  and  C_3
    3  A    between atoms: C_3  and  C_11
    4  A    between atoms: C_6  and  C_11
                            x       y       z     vdW  Elec       q    Type
                         _______ _______ _______ _____ _____    ______ ____

>  <TORSDO>
F 4

$$$$
