=
 OpenBabel10262423133D

 34 39  0  0  1  0  0  0  0  0999 V2000
  188.9120  177.1120  145.4730 C   0  0  0  0  0  0  0  0  0  0  0  0
  185.5150  178.1760  146.8900 C   0  0  0  0  0  2  0  0  0  0  0  0
  187.8000  178.1170  147.8760 C   0  0  0  0  0  3  0  0  0  0  0  0
  191.1590  177.1290  146.8370 C   0  0  1  0  0  3  0  0  0  0  0  0
  191.4650  177.6920  148.1620 N   0  0  0  0  0  0  0  0  0  0  0  0
  191.4560  175.7050  146.8490 N   0  0  0  0  0  1  0  0  0  0  0  0
  189.1580  177.8430  147.7650 C   0  0  0  0  0  0  0  0  0  0  0  0
  189.7040  177.3390  146.6230 C   0  0  0  0  0  0  0  0  0  0  0  0
  190.1890  178.0530  148.7940 C   0  0  0  0  0  3  0  0  0  0  0  0
  185.1880  179.2200  146.0160 O   0  0  0  0  0  0  0  0  0  0  0  0
  184.7110  178.6030  144.8510 C   0  0  2  0  0  3  0  0  0  0  0  0
  185.8730  178.3000  143.9050 C   0  0  0  0  0  2  0  0  0  0  0  0
  186.9730  177.8650  146.7760 C   0  0  0  0  0  0  0  0  0  0  0  0
  186.6410  177.0720  144.3820 C   0  0  0  0  0  2  0  0  0  0  0  0
  187.5250  177.3740  145.5630 C   0  0  0  0  0  0  0  0  0  0  0  0
  183.7260  179.5260  144.1590 C   0  0  0  0  0  3  0  0  0  0  0  0
  182.3480  178.8960  144.1670 C   0  0  0  0  0  2  0  0  0  0  0  0
  183.1940  178.8480  142.9130 C   0  0  0  0  0  2  0  0  0  0  0  0
  190.2040  177.3600  143.4300 C   0  0  0  0  0  3  0  0  0  0  0  0
  189.4500  176.6630  144.2180 N   0  0  0  0  0  0  0  0  0  0  0  0
  190.6710  176.7780  142.1390 C   0  0  0  0  0  2  0  0  0  0  0  0
  187.8160  178.2710  140.3010 C   0  0  0  0  0  2  0  0  0  0  0  0
  190.2180  176.6530  139.8310 C   0  0  0  0  0  2  0  0  0  0  0  0
  187.3560  177.2480  136.6670 C   0  0  0  0  0  0  0  0  0  0  0  0
  187.1630  177.8550  137.9180 C   0  0  0  0  0  3  0  0  0  0  0  0
  188.0830  177.6590  138.9530 C   0  0  0  0  0  0  0  0  0  0  0  0
  189.4010  176.2280  137.4990 C   0  0  0  0  0  3  0  0  0  0  0  0
  189.1980  176.8240  138.7450 C   0  0  0  0  0  0  0  0  0  0  0  0
  188.4820  176.4350  136.4660 C   0  0  0  0  0  3  0  0  0  0  0  0
  189.6060  176.8350  141.1500 N   0  0  0  0  0  0  0  0  0  0  0  0
  189.0470  178.1840  141.2050 C   0  0  0  0  0  2  0  0  0  0  0  0
  186.3840  177.4530  135.5760 C   0  0  0  0  0  0  0  0  0  0  0  0
  185.1350  176.7660  135.5880 N   0  0  0  0  0  1  0  0  0  0  0  0
  186.6560  178.2510  134.5950 N   0  0  0  0  0  2  0  0  0  0  0  0
  1 15  2  0  0  0  0
  1  8  1  0  0  0  0
  4  6  1  1  0  0  0
  4  5  1  0  0  0  0
  5  9  2  0  0  0  0
  7  3  1  0  0  0  0
  7  9  1  0  0  0  0
  8  4  1  0  0  0  0
  8  7  2  0  0  0  0
 10  2  1  0  0  0  0
 11 16  1  6  0  0  0
 11 10  1  0  0  0  0
 12 14  1  0  0  0  0
 12 11  1  0  0  0  0
 13  2  1  0  0  0  0
 13  3  2  0  0  0  0
 14 15  1  0  0  0  0
 15 13  1  0  0  0  0
 16 17  1  0  0  0  0
 18 16  1  0  0  0  0
 18 17  1  0  0  0  0
 19 20  2  0  0  0  0
 20  1  1  0  0  0  0
 21 19  1  0  0  0  0
 22 31  1  0  0  0  0
 23 30  1  0  0  0  0
 24 25  1  0  0  0  0
 25 26  2  0  0  0  0
 26 22  1  0  0  0  0
 27 28  2  0  0  0  0
 28 26  1  0  0  0  0
 28 23  1  0  0  0  0
 29 24  2  0  0  0  0
 29 27  1  0  0  0  0
 30 31  1  0  0  0  0
 30 21  1  0  0  0  0
 32 33  1  0  0  0  0
 32 24  1  0  0  0  0
 34 32  2  0  0  0  0
M  END
>  <MODEL>
1

>  <REMARK>
 VINA RESULT:      -9.8      0.000      0.000
  Name = 
  5 active torsions:
  status: ('A' for Active; 'I' for Inactive)
    1  A    between atoms: C_1  and  N_9
    2  A    between atoms: C_3  and  C_25
    3  A    between atoms: C_7  and  C_11
    4  A    between atoms: C_8  and  C_18
    5  A    between atoms: C_18  and  N_30
                            x       y       z     vdW  Elec       q    Type
                         _______ _______ _______ _____ _____    ______ ____

>  <TORSDO>
F 5

$$$$
=
 OpenBabel10262423133D

 34 39  0  0  1  0  0  0  0  0999 V2000
  189.3380  176.9100  144.6050 C   0  0  0  0  0  0  0  0  0  0  0  0
  185.9920  177.6830  146.3060 C   0  0  0  0  0  2  0  0  0  0  0  0
  188.3150  177.4880  147.1820 C   0  0  0  0  0  3  0  0  0  0  0  0
  191.6360  176.7260  145.8680 C   0  0  1  0  0  3  0  0  0  0  0  0
  191.9900  177.0640  147.2560 N   0  0  0  0  0  0  0  0  0  0  0  0
  191.9400  175.3230  145.6310 N   0  0  0  0  0  1  0  0  0  0  0  0
  189.6690  177.2520  146.9760 C   0  0  0  0  0  0  0  0  0  0  0  0
  190.1730  176.9520  145.7460 C   0  0  0  0  0  0  0  0  0  0  0  0
  190.7380  177.3000  147.9860 C   0  0  0  0  0  3  0  0  0  0  0  0
  185.6270  178.8550  145.6300 O   0  0  0  0  0  0  0  0  0  0  0  0
  185.1080  178.4340  144.3980 C   0  0  2  0  0  3  0  0  0  0  0  0
  186.2330  178.3060  143.3720 C   0  0  0  0  0  2  0  0  0  0  0  0
  187.4470  177.4130  146.0870 C   0  0  0  0  0  0  0  0  0  0  0  0
  187.0260  177.0250  143.6080 C   0  0  0  0  0  2  0  0  0  0  0  0
  187.9530  177.1370  144.7890 C   0  0  0  0  0  0  0  0  0  0  0  0
  184.0920  179.4480  143.9060 C   0  0  0  0  0  3  0  0  0  0  0  0
  182.6910  178.9300  144.1660 C   0  0  0  0  0  2  0  0  0  0  0  0
  183.2850  178.8420  142.7770 C   0  0  0  0  0  2  0  0  0  0  0  0
  190.3780  177.5720  142.5120 C   0  0  0  0  0  3  0  0  0  0  0  0
  189.8280  176.6810  143.2730 N   0  0  0  0  0  0  0  0  0  0  0  0
  190.8190  177.2050  141.1360 C   0  0  0  0  0  2  0  0  0  0  0  0
  187.6280  178.0490  139.4450 C   0  0  0  0  0  2  0  0  0  0  0  0
  190.1590  176.6520  138.9430 C   0  0  0  0  0  2  0  0  0  0  0  0
  186.9430  176.3970  136.0880 C   0  0  0  0  0  0  0  0  0  0  0  0
  186.7990  177.1770  137.2470 C   0  0  0  0  0  3  0  0  0  0  0  0
  187.8350  177.2570  138.1830 C   0  0  0  0  0  0  0  0  0  0  0  0
  189.1750  175.7610  136.8160 C   0  0  0  0  0  3  0  0  0  0  0  0
  189.0220  176.5280  137.9730 C   0  0  0  0  0  0  0  0  0  0  0  0
  188.1380  175.6920  135.8800 C   0  0  0  0  0  3  0  0  0  0  0  0
  189.6630  176.9790  140.2830 N   0  0  0  0  0  0  0  0  0  0  0  0
  188.9440  178.2490  140.1990 C   0  0  0  0  0  2  0  0  0  0  0  0
  185.8490  176.3120  135.1020 C   0  0  0  0  0  0  0  0  0  0  0  0
  185.3550  175.0420  134.6850 N   0  0  0  0  0  1  0  0  0  0  0  0
  185.3320  177.3860  134.5990 N   0  0  0  0  0  2  0  0  0  0  0  0
  1 15  2  0  0  0  0
  1  8  1  0  0  0  0
  4  6  1  1  0  0  0
  4  5  1  0  0  0  0
  5  9  2  0  0  0  0
  7  3  1  0  0  0  0
  7  9  1  0  0  0  0
  8  4  1  0  0  0  0
  8  7  2  0  0  0  0
 10  2  1  0  0  0  0
 11 16  1  6  0  0  0
 11 10  1  0  0  0  0
 12 14  1  0  0  0  0
 12 11  1  0  0  0  0
 13  2  1  0  0  0  0
 13  3  2  0  0  0  0
 14 15  1  0  0  0  0
 15 13  1  0  0  0  0
 16 17  1  0  0  0  0
 18 16  1  0  0  0  0
 18 17  1  0  0  0  0
 19 20  2  0  0  0  0
 20  1  1  0  0  0  0
 21 19  1  0  0  0  0
 22 31  1  0  0  0  0
 23 30  1  0  0  0  0
 24 25  1  0  0  0  0
 25 26  2  0  0  0  0
 26 22  1  0  0  0  0
 27 28  2  0  0  0  0
 28 26  1  0  0  0  0
 28 23  1  0  0  0  0
 29 24  2  0  0  0  0
 29 27  1  0  0  0  0
 30 21  1  0  0  0  0
 31 30  1  0  0  0  0
 32 24  1  0  0  0  0
 33 32  1  0  0  0  0
 34 32  2  0  0  0  0
M  END
>  <MODEL>
2

>  <REMARK>
 VINA RESULT:      -9.7      0.972      1.028
  Name = 
  5 active torsions:
  status: ('A' for Active; 'I' for Inactive)
    1  A    between atoms: C_1  and  N_9
    2  A    between atoms: C_3  and  C_25
    3  A    between atoms: C_7  and  C_11
    4  A    between atoms: C_8  and  C_18
    5  A    between atoms: C_18  and  N_30
                            x       y       z     vdW  Elec       q    Type
                         _______ _______ _______ _____ _____    ______ ____

>  <TORSDO>
F 5

$$$$
=
 OpenBabel10262423133D

 34 39  0  0  1  0  0  0  0  0999 V2000
  189.2590  177.7320  144.8970 C   0  0  0  0  0  0  0  0  0  0  0  0
  191.4110  177.4060  141.7430 C   0  0  0  0  0  2  0  0  0  0  0  0
  191.7450  176.6410  144.0890 C   0  0  0  0  0  3  0  0  0  0  0  0
  189.9560  176.8360  147.2680 C   0  0  1  0  0  3  0  0  0  0  0  0
  191.0780  175.9700  147.6670 N   0  0  0  0  0  0  0  0  0  0  0  0
  190.0480  178.0920  147.9940 N   0  0  0  0  0  1  0  0  0  0  0  0
  191.3030  176.5430  145.4030 C   0  0  0  0  0  0  0  0  0  0  0  0
  190.1200  177.0820  145.8120 C   0  0  0  0  0  0  0  0  0  0  0  0
  191.9860  175.8650  146.5170 C   0  0  0  0  0  3  0  0  0  0  0  0
  190.5460  176.6780  140.9170 O   0  0  0  0  0  0  0  0  0  0  0  0
  189.6290  177.6120  140.4130 C   0  0  2  0  0  3  0  0  0  0  0  0
  188.4460  177.7530  141.3690 C   0  0  0  0  0  2  0  0  0  0  0  0
  190.9430  177.3150  143.1610 C   0  0  0  0  0  0  0  0  0  0  0  0
  188.8320  178.6060  142.5720 C   0  0  0  0  0  2  0  0  0  0  0  0
  189.6900  177.8540  143.5550 C   0  0  0  0  0  0  0  0  0  0  0  0
  189.1290  177.1460  139.0580 C   0  0  0  0  0  3  0  0  0  0  0  0
  189.2660  178.2720  138.0530 C   0  0  0  0  0  2  0  0  0  0  0  0
  187.9160  177.9630  138.6640 C   0  0  0  0  0  2  0  0  0  0  0  0
  186.8750  177.5480  145.3290 C   0  0  0  0  0  3  0  0  0  0  0  0
  187.9640  178.2430  145.2560 N   0  0  0  0  0  0  0  0  0  0  0  0
  185.5900  178.2120  145.6870 C   0  0  0  0  0  2  0  0  0  0  0  0
  182.4100  178.7890  143.8670 C   0  0  0  0  0  2  0  0  0  0  0  0
  185.3020  178.6550  143.3910 C   0  0  0  0  0  2  0  0  0  0  0  0
  182.5710  178.9090  140.0690 C   0  0  0  0  0  0  0  0  0  0  0  0
  182.0850  178.9250  141.3870 C   0  0  0  0  0  3  0  0  0  0  0  0
  182.9640  178.8340  142.4700 C   0  0  0  0  0  0  0  0  0  0  0  0
  184.8360  178.6940  140.9280 C   0  0  0  0  0  3  0  0  0  0  0  0
  184.3470  178.6980  142.2360 C   0  0  0  0  0  0  0  0  0  0  0  0
  183.9520  178.7950  139.8490 C   0  0  0  0  0  3  0  0  0  0  0  0
  184.6480  178.1080  144.5830 N   0  0  0  0  0  0  0  0  0  0  0  0
  183.5140  178.9700  144.9110 C   0  0  0  0  0  2  0  0  0  0  0  0
  181.6420  179.0040  138.9270 C   0  0  0  0  0  0  0  0  0  0  0  0
  180.2990  179.4360  139.1270 N   0  0  0  0  0  1  0  0  0  0  0  0
  182.0320  178.6870  137.7350 N   0  0  0  0  0  2  0  0  0  0  0  0
  1 20  1  0  0  0  0
  1  8  1  0  0  0  0
  2 13  1  0  0  0  0
  3  7  1  0  0  0  0
  4  5  1  0  0  0  0
  4  6  1  1  0  0  0
  7  8  2  0  0  0  0
  7  9  1  0  0  0  0
  8  4  1  0  0  0  0
  9  5  2  0  0  0  0
 10  2  1  0  0  0  0
 11 16  1  6  0  0  0
 11 10  1  0  0  0  0
 11 12  1  0  0  0  0
 12 14  1  0  0  0  0
 13 15  1  0  0  0  0
 13  3  2  0  0  0  0
 14 15  1  0  0  0  0
 15  1  2  0  0  0  0
 17 18  1  0  0  0  0
 17 16  1  0  0  0  0
 18 16  1  0  0  0  0
 19 21  1  0  0  0  0
 20 19  2  0  0  0  0
 22 31  1  0  0  0  0
 23 30  1  0  0  0  0
 24 25  1  0  0  0  0
 25 26  2  0  0  0  0
 26 22  1  0  0  0  0
 27 28  2  0  0  0  0
 28 26  1  0  0  0  0
 28 23  1  0  0  0  0
 29 24  2  0  0  0  0
 29 27  1  0  0  0  0
 30 31  1  0  0  0  0
 30 21  1  0  0  0  0
 32 33  1  0  0  0  0
 32 24  1  0  0  0  0
 34 32  2  0  0  0  0
M  END
>  <MODEL>
3

>  <REMARK>
 VINA RESULT:      -9.6      2.594      5.582
  Name = 
  5 active torsions:
  status: ('A' for Active; 'I' for Inactive)
    1  A    between atoms: C_1  and  N_9
    2  A    between atoms: C_3  and  C_25
    3  A    between atoms: C_7  and  C_11
    4  A    between atoms: C_8  and  C_18
    5  A    between atoms: C_18  and  N_30
                            x       y       z     vdW  Elec       q    Type
                         _______ _______ _______ _____ _____    ______ ____

>  <TORSDO>
F 5

$$$$
=
 OpenBabel10262423133D

 34 39  0  0  1  0  0  0  0  0999 V2000
  183.4940  178.5020  142.0110 C   0  0  0  0  0  0  0  0  0  0  0  0
  185.3560  179.0180  145.3200 C   0  0  0  0  0  2  0  0  0  0  0  0
  182.9330  178.9630  144.7480 C   0  0  0  0  0  3  0  0  0  0  0  0
  180.8790  178.5580  141.7560 C   0  0  1  0  0  3  0  0  0  0  0  0
  179.8220  178.5860  142.7810 N   0  0  0  0  0  0  0  0  0  0  0  0
  180.7350  179.7240  140.8980 N   0  0  0  0  0  1  0  0  0  0  0  0
  181.9150  178.8280  143.8130 C   0  0  0  0  0  0  0  0  0  0  0  0
  182.1690  178.6270  142.4890 C   0  0  0  0  0  0  0  0  0  0  0  0
  180.4660  178.8570  144.0730 C   0  0  0  0  0  3  0  0  0  0  0  0
  186.0510  177.8050  145.4140 O   0  0  0  0  0  0  0  0  0  0  0  0
  187.1580  177.9360  144.5640 C   0  0  2  0  0  3  0  0  0  0  0  0
  186.7840  177.5020  143.1470 C   0  0  0  0  0  2  0  0  0  0  0  0
  184.2610  178.8890  144.3100 C   0  0  0  0  0  0  0  0  0  0  0  0
  185.9740  178.5920  142.4530 C   0  0  0  0  0  2  0  0  0  0  0  0
  184.5500  178.6450  142.9420 C   0  0  0  0  0  0  0  0  0  0  0  0
  188.2900  177.0650  145.0740 C   0  0  0  0  0  3  0  0  0  0  0  0
  189.5010  177.9280  145.3680 C   0  0  0  0  0  2  0  0  0  0  0  0
  189.4430  177.1170  144.0930 C   0  0  0  0  0  2  0  0  0  0  0  0
  184.0360  179.0830  139.7150 C   0  0  0  0  0  3  0  0  0  0  0  0
  183.8170  178.2060  140.6410 N   0  0  0  0  0  0  0  0  0  0  0  0
  184.3350  178.6370  138.3240 C   0  0  0  0  0  2  0  0  0  0  0  0
  186.8980  176.3990  136.8490 C   0  0  0  0  0  2  0  0  0  0  0  0
  186.6480  178.6040  138.7670 C   0  0  0  0  0  2  0  0  0  0  0  0
  190.3770  176.4820  138.3840 C   0  0  0  0  0  0  0  0  0  0  0  0
  189.2850  176.1450  137.5680 C   0  0  0  0  0  3  0  0  0  0  0  0
  188.0690  176.8230  137.6930 C   0  0  0  0  0  0  0  0  0  0  0  0
  189.0180  178.1820  139.4690 C   0  0  0  0  0  3  0  0  0  0  0  0
  187.9310  177.8350  138.6630 C   0  0  0  0  0  0  0  0  0  0  0  0
  190.2340  177.5050  139.3330 C   0  0  0  0  0  3  0  0  0  0  0  0
  185.5180  177.7900  138.3130 N   0  0  0  0  0  0  0  0  0  0  0  0
  185.7600  177.4190  136.9200 C   0  0  0  0  0  2  0  0  0  0  0  0
  191.6600  175.7640  138.2530 C   0  0  0  0  0  0  0  0  0  0  0  0
  192.8920  176.4570  138.4310 N   0  0  0  0  0  1  0  0  0  0  0  0
  191.6810  174.5030  137.9660 N   0  0  0  0  0  2  0  0  0  0  0  0
  1  8  2  0  0  0  0
  1 15  1  0  0  0  0
  2 10  1  0  0  0  0
  4  6  1  6  0  0  0
  4  8  1  0  0  0  0
  4  5  1  0  0  0  0
  5  9  2  0  0  0  0
  7  9  1  0  0  0  0
  7  3  2  0  0  0  0
  8  7  1  0  0  0  0
 11 16  1  1  0  0  0
 11 10  1  0  0  0  0
 12 11  1  0  0  0  0
 13  3  1  0  0  0  0
 13  2  1  0  0  0  0
 14 15  1  0  0  0  0
 14 12  1  0  0  0  0
 15 13  2  0  0  0  0
 16 17  1  0  0  0  0
 18 16  1  0  0  0  0
 18 17  1  0  0  0  0
 19 20  2  0  0  0  0
 20  1  1  0  0  0  0
 21 19  1  0  0  0  0
 22 31  1  0  0  0  0
 22 26  1  0  0  0  0
 24 29  1  0  0  0  0
 25 26  1  0  0  0  0
 25 24  2  0  0  0  0
 26 28  2  0  0  0  0
 28 23  1  0  0  0  0
 28 27  1  0  0  0  0
 29 27  2  0  0  0  0
 30 21  1  0  0  0  0
 30 23  1  0  0  0  0
 31 30  1  0  0  0  0
 32 24  1  0  0  0  0
 32 33  1  0  0  0  0
 34 32  2  0  0  0  0
M  END
>  <MODEL>
4

>  <REMARK>
 VINA RESULT:      -9.4      3.131      6.495
  Name = 
  5 active torsions:
  status: ('A' for Active; 'I' for Inactive)
    1  A    between atoms: C_1  and  N_9
    2  A    between atoms: C_3  and  C_25
    3  A    between atoms: C_7  and  C_11
    4  A    between atoms: C_8  and  C_18
    5  A    between atoms: C_18  and  N_30
                            x       y       z     vdW  Elec       q    Type
                         _______ _______ _______ _____ _____    ______ ____

>  <TORSDO>
F 5

$$$$
=
 OpenBabel10262423133D

 34 39  0  0  1  0  0  0  0  0999 V2000
  186.2300  178.0760  138.4030 C   0  0  0  0  0  0  0  0  0  0  0  0
  182.9310  178.8370  140.1980 C   0  0  0  0  0  2  0  0  0  0  0  0
  183.4400  177.9070  137.9450 C   0  0  0  0  0  3  0  0  0  0  0  0
  186.4040  177.1290  135.9570 C   0  0  1  0  0  3  0  0  0  0  0  0
  185.3600  176.6000  135.0640 N   0  0  0  0  0  0  0  0  0  0  0  0
  187.0640  178.2470  135.3020 N   0  0  0  0  0  1  0  0  0  0  0  0
  184.3590  177.5070  136.9810 C   0  0  0  0  0  0  0  0  0  0  0  0
  185.7030  177.6030  137.1780 C   0  0  0  0  0  0  0  0  0  0  0  0
  184.0590  176.9270  135.6620 C   0  0  0  0  0  3  0  0  0  0  0  0
  183.0470  177.9960  141.3120 O   0  0  0  0  0  0  0  0  0  0  0  0
  183.8950  178.6650  142.2050 C   0  0  2  0  0  3  0  0  0  0  0  0
  185.3520  178.3140  141.9070 C   0  0  0  0  0  2  0  0  0  0  0  0
  183.9200  178.4220  139.1550 C   0  0  0  0  0  0  0  0  0  0  0  0
  185.8440  179.0780  140.6830 C   0  0  0  0  0  2  0  0  0  0  0  0
  185.3170  178.4980  139.3980 C   0  0  0  0  0  0  0  0  0  0  0  0
  183.5580  178.2530  143.6260 C   0  0  0  0  0  3  0  0  0  0  0  0
  183.4340  179.4870  144.4970 C   0  0  0  0  0  2  0  0  0  0  0  0
  184.6940  178.6510  144.5460 C   0  0  0  0  0  2  0  0  0  0  0  0
  188.3590  177.1090  139.0630 C   0  0  0  0  0  3  0  0  0  0  0  0
  187.6370  178.1190  138.6950 N   0  0  0  0  0  0  0  0  0  0  0  0
  189.8070  177.3000  139.3630 C   0  0  0  0  0  2  0  0  0  0  0  0
  191.8140  177.0820  142.4740 C   0  0  0  0  0  2  0  0  0  0  0  0
  189.0860  177.6740  141.5740 C   0  0  0  0  0  2  0  0  0  0  0  0
  189.9370  177.2670  145.7770 C   0  0  0  0  0  0  0  0  0  0  0  0
  190.9690  177.1510  144.8320 C   0  0  0  0  0  3  0  0  0  0  0  0
  190.6990  177.2730  143.4660 C   0  0  0  0  0  0  0  0  0  0  0  0
  188.3480  177.6150  143.9690 C   0  0  0  0  0  3  0  0  0  0  0  0
  189.3760  177.4880  143.0330 C   0  0  0  0  0  0  0  0  0  0  0  0
  188.6260  177.5010  145.3350 C   0  0  0  0  0  3  0  0  0  0  0  0
  190.0780  176.9730  140.7540 N   0  0  0  0  0  0  0  0  0  0  0  0
  191.3940  177.5230  141.0710 C   0  0  0  0  0  2  0  0  0  0  0  0
  190.2230  177.1360  147.2190 C   0  0  0  0  0  0  0  0  0  0  0  0
  191.5260  176.7660  147.6620 N   0  0  0  0  0  2  0  0  0  0  0  0
  189.2940  177.3460  148.0940 N   0  0  0  0  0  1  0  0  0  0  0  0
  1 20  1  0  0  0  0
  1 15  1  0  0  0  0
  2 10  1  0  0  0  0
  3 13  1  0  0  0  0
  4  6  1  6  0  0  0
  4  8  1  0  0  0  0
  5  9  2  0  0  0  0
  5  4  1  0  0  0  0
  7  8  1  0  0  0  0
  7  3  2  0  0  0  0
  8  1  2  0  0  0  0
  9  7  1  0  0  0  0
 10 11  1  0  0  0  0
 11 16  1  1  0  0  0
 12 11  1  0  0  0  0
 13 15  2  0  0  0  0
 13  2  1  0  0  0  0
 14 12  1  0  0  0  0
 15 14  1  0  0  0  0
 16 17  1  0  0  0  0
 16 18  1  0  0  0  0
 17 18  1  0  0  0  0
 19 21  1  0  0  0  0
 20 19  2  0  0  0  0
 21 30  1  0  0  0  0
 22 26  1  0  0  0  0
 23 28  1  0  0  0  0
 24 32  1  0  0  0  0
 25 24  2  0  0  0  0
 26 25  1  0  0  0  0
 27 29  2  0  0  0  0
 28 26  2  0  0  0  0
 28 27  1  0  0  0  0
 29 24  1  0  0  0  0
 30 31  1  0  0  0  0
 30 23  1  0  0  0  0
 31 22  1  0  0  0  0
 32 33  2  0  0  0  0
 32 34  1  0  0  0  0
M  END
>  <MODEL>
5

>  <REMARK>
 VINA RESULT:      -9.4      1.937      8.268
  Name = 
  5 active torsions:
  status: ('A' for Active; 'I' for Inactive)
    1  A    between atoms: C_1  and  N_9
    2  A    between atoms: C_3  and  C_25
    3  A    between atoms: C_7  and  C_11
    4  A    between atoms: C_8  and  C_18
    5  A    between atoms: C_18  and  N_30
                            x       y       z     vdW  Elec       q    Type
                         _______ _______ _______ _____ _____    ______ ____

>  <TORSDO>
F 5

$$$$
=
 OpenBabel10262423133D

 34 39  0  0  1  0  0  0  0  0999 V2000
  188.8920  177.6040  143.6970 C   0  0  0  0  0  0  0  0  0  0  0  0
  185.6610  177.3690  145.7430 C   0  0  0  0  0  2  0  0  0  0  0  0
  188.0640  177.2250  146.3780 C   0  0  0  0  0  3  0  0  0  0  0  0
  191.3070  177.3500  144.7030 C   0  0  1  0  0  3  0  0  0  0  0  0
  191.7540  177.2910  146.1050 N   0  0  0  0  0  0  0  0  0  0  0  0
  191.7380  176.1400  144.0200 N   0  0  0  0  0  1  0  0  0  0  0  0
  189.4100  177.2450  146.0320 C   0  0  0  0  0  0  0  0  0  0  0  0
  189.8230  177.4050  144.7430 C   0  0  0  0  0  0  0  0  0  0  0  0
  190.5600  177.1240  146.9430 C   0  0  0  0  0  3  0  0  0  0  0  0
  185.1080  178.6310  145.4930 O   0  0  0  0  0  0  0  0  0  0  0  0
  184.5220  178.5430  144.2230 C   0  0  2  0  0  3  0  0  0  0  0  0
  185.5510  178.8850  143.1460 C   0  0  0  0  0  2  0  0  0  0  0  0
  187.1090  177.3740  145.3670 C   0  0  0  0  0  0  0  0  0  0  0  0
  186.4970  177.7110  142.9210 C   0  0  0  0  0  2  0  0  0  0  0  0
  187.5150  177.5780  144.0220 C   0  0  0  0  0  0  0  0  0  0  0  0
  183.3600  179.5140  144.1350 C   0  0  0  0  0  3  0  0  0  0  0  0
  182.0530  178.7510  144.2230 C   0  0  0  0  0  2  0  0  0  0  0  0
  182.5610  179.2280  142.8800 C   0  0  0  0  0  2  0  0  0  0  0  0
  189.4500  176.9630  141.4210 C   0  0  0  0  0  3  0  0  0  0  0  0
  189.2750  177.8620  142.3350 N   0  0  0  0  0  0  0  0  0  0  0  0
  189.8760  177.3670  140.0500 C   0  0  0  0  0  2  0  0  0  0  0  0
  189.7940  174.8030  137.3720 C   0  0  0  0  0  2  0  0  0  0  0  0
  191.6970  176.4790  138.8480 C   0  0  0  0  0  2  0  0  0  0  0  0
  193.1290  173.3940  136.2050 C   0  0  0  0  0  0  0  0  0  0  0  0
  191.7500  173.6260  136.3390 C   0  0  0  0  0  3  0  0  0  0  0  0
  191.2770  174.6200  137.2020 C   0  0  0  0  0  0  0  0  0  0  0  0
  193.5640  175.1560  137.8230 C   0  0  0  0  0  3  0  0  0  0  0  0
  192.1920  175.3750  137.9620 C   0  0  0  0  0  0  0  0  0  0  0  0
  194.0300  174.1660  136.9520 C   0  0  0  0  0  3  0  0  0  0  0  0
  190.3310  176.2050  139.3040 N   0  0  0  0  0  0  0  0  0  0  0  0
  189.4750  176.0960  138.1240 C   0  0  0  0  0  2  0  0  0  0  0  0
  193.6260  172.3440  135.2950 C   0  0  0  0  0  0  0  0  0  0  0  0
  192.9380  171.1000  135.1880 N   0  0  0  0  0  1  0  0  0  0  0  0
  194.6960  172.5350  134.5940 N   0  0  0  0  0  2  0  0  0  0  0  0
  1 15  2  0  0  0  0
  1  8  1  0  0  0  0
  4  6  1  6  0  0  0
  4  8  1  0  0  0  0
  4  5  1  0  0  0  0
  5  9  2  0  0  0  0
  7  3  1  0  0  0  0
  7  9  1  0  0  0  0
  8  7  2  0  0  0  0
 10  2  1  0  0  0  0
 11 16  1  1  0  0  0
 11 10  1  0  0  0  0
 12 11  1  0  0  0  0
 13  2  1  0  0  0  0
 13  3  2  0  0  0  0
 14 12  1  0  0  0  0
 14 15  1  0  0  0  0
 15 13  1  0  0  0  0
 16 17  1  0  0  0  0
 18 16  1  0  0  0  0
 18 17  1  0  0  0  0
 19 20  2  0  0  0  0
 20  1  1  0  0  0  0
 21 19  1  0  0  0  0
 22 31  1  0  0  0  0
 23 30  1  0  0  0  0
 24 25  2  0  0  0  0
 24 29  1  0  0  0  0
 25 26  1  0  0  0  0
 26 22  1  0  0  0  0
 26 28  2  0  0  0  0
 27 28  1  0  0  0  0
 28 23  1  0  0  0  0
 29 27  2  0  0  0  0
 30 21  1  0  0  0  0
 31 30  1  0  0  0  0
 32 24  1  0  0  0  0
 33 32  1  0  0  0  0
 34 32  2  0  0  0  0
M  END
>  <MODEL>
6

>  <REMARK>
 VINA RESULT:      -9.1      3.162      4.045
  Name = 
  5 active torsions:
  status: ('A' for Active; 'I' for Inactive)
    1  A    between atoms: C_1  and  N_9
    2  A    between atoms: C_3  and  C_25
    3  A    between atoms: C_7  and  C_11
    4  A    between atoms: C_8  and  C_18
    5  A    between atoms: C_18  and  N_30
                            x       y       z     vdW  Elec       q    Type
                         _______ _______ _______ _____ _____    ______ ____

>  <TORSDO>
F 5

$$$$
=
 OpenBabel10262423133D

 34 39  0  0  1  0  0  0  0  0999 V2000
  188.8070  177.3450  143.5290 C   0  0  0  0  0  0  0  0  0  0  0  0
  185.7860  177.5400  145.8790 C   0  0  0  0  0  2  0  0  0  0  0  0
  188.2360  177.4020  146.3020 C   0  0  0  0  0  3  0  0  0  0  0  0
  191.3020  177.1530  144.3330 C   0  0  1  0  0  3  0  0  0  0  0  0
  191.8820  177.2880  145.6790 N   0  0  0  0  0  0  0  0  0  0  0  0
  191.6360  175.8400  143.8050 N   0  0  0  0  0  1  0  0  0  0  0  0
  189.5420  177.3200  145.8330 C   0  0  0  0  0  0  0  0  0  0  0  0
  189.8310  177.2700  144.5020 C   0  0  0  0  0  0  0  0  0  0  0  0
  190.7720  177.2930  146.6410 C   0  0  0  0  0  3  0  0  0  0  0  0
  185.2410  178.7700  145.4920 O   0  0  0  0  0  0  0  0  0  0  0  0
  184.5320  178.5150  144.3100 C   0  0  2  0  0  3  0  0  0  0  0  0
  185.4580  178.6540  143.1030 C   0  0  0  0  0  2  0  0  0  0  0  0
  187.1900  177.4350  145.3730 C   0  0  0  0  0  0  0  0  0  0  0  0
  186.3500  177.4240  142.9720 C   0  0  0  0  0  2  0  0  0  0  0  0
  187.4680  177.4190  143.9810 C   0  0  0  0  0  0  0  0  0  0  0  0
  183.3890  179.5050  144.1840 C   0  0  0  0  0  3  0  0  0  0  0  0
  182.0720  178.7920  144.4150 C   0  0  0  0  0  2  0  0  0  0  0  0
  182.5180  179.1180  143.0060 C   0  0  0  0  0  2  0  0  0  0  0  0
  188.6580  178.3040  141.3020 C   0  0  0  0  0  3  0  0  0  0  0  0
  189.0610  177.3810  142.1140 N   0  0  0  0  0  0  0  0  0  0  0  0
  188.9690  178.2040  139.8470 C   0  0  0  0  0  2  0  0  0  0  0  0
  186.3710  177.2470  137.3790 C   0  0  0  0  0  2  0  0  0  0  0  0
  186.6420  178.5340  140.0020 C   0  0  0  0  0  2  0  0  0  0  0  0
  182.8450  178.5470  137.9670 C   0  0  0  0  0  0  0  0  0  0  0  0
  183.9510  177.8970  137.3950 C   0  0  0  0  0  3  0  0  0  0  0  0
  185.1890  177.8970  138.0450 C   0  0  0  0  0  0  0  0  0  0  0  0
  184.2330  179.2140  139.8490 C   0  0  0  0  0  3  0  0  0  0  0  0
  185.3330  178.5760  139.2710 C   0  0  0  0  0  0  0  0  0  0  0  0
  182.9960  179.2030  139.1970 C   0  0  0  0  0  3  0  0  0  0  0  0
  187.7540  178.3600  139.0630 N   0  0  0  0  0  0  0  0  0  0  0  0
  187.5460  177.1020  138.3480 C   0  0  0  0  0  2  0  0  0  0  0  0
  181.5400  178.5490  137.2780 C   0  0  0  0  0  0  0  0  0  0  0  0
  181.0120  179.7590  136.7420 N   0  0  0  0  0  2  0  0  0  0  0  0
  180.8570  177.4560  137.1630 N   0  0  0  0  0  1  0  0  0  0  0  0
  1 15  2  0  0  0  0
  1  8  1  0  0  0  0
  4  6  1  1  0  0  0
  4  8  1  0  0  0  0
  4  5  1  0  0  0  0
  5  9  2  0  0  0  0
  7  3  1  0  0  0  0
  7  9  1  0  0  0  0
  8  7  2  0  0  0  0
 10  2  1  0  0  0  0
 11 16  1  6  0  0  0
 11 10  1  0  0  0  0
 12 11  1  0  0  0  0
 13  2  1  0  0  0  0
 13  3  2  0  0  0  0
 14 12  1  0  0  0  0
 14 15  1  0  0  0  0
 15 13  1  0  0  0  0
 16 17  1  0  0  0  0
 18 16  1  0  0  0  0
 18 17  1  0  0  0  0
 19 20  2  0  0  0  0
 20  1  1  0  0  0  0
 21 19  1  0  0  0  0
 22 26  1  0  0  0  0
 22 31  1  0  0  0  0
 24 29  1  0  0  0  0
 25 24  2  0  0  0  0
 25 26  1  0  0  0  0
 26 28  2  0  0  0  0
 28 27  1  0  0  0  0
 28 23  1  0  0  0  0
 29 27  2  0  0  0  0
 30 21  1  0  0  0  0
 30 23  1  0  0  0  0
 31 30  1  0  0  0  0
 32 24  1  0  0  0  0
 33 32  2  0  0  0  0
 34 32  1  0  0  0  0
M  END
>  <MODEL>
7

>  <REMARK>
 VINA RESULT:      -9.0      2.300      3.304
  Name = 
  5 active torsions:
  status: ('A' for Active; 'I' for Inactive)
    1  A    between atoms: C_1  and  N_9
    2  A    between atoms: C_3  and  C_25
    3  A    between atoms: C_7  and  C_11
    4  A    between atoms: C_8  and  C_18
    5  A    between atoms: C_18  and  N_30
                            x       y       z     vdW  Elec       q    Type
                         _______ _______ _______ _____ _____    ______ ____

>  <TORSDO>
F 5

$$$$
=
 OpenBabel10262423133D

 34 39  0  0  1  0  0  0  0  0999 V2000
  184.2780  178.9030  140.8490 C   0  0  0  0  0  0  0  0  0  0  0  0
  185.2950  178.6760  144.5360 C   0  0  0  0  0  2  0  0  0  0  0  0
  183.0790  178.6420  143.4010 C   0  0  0  0  0  3  0  0  0  0  0  0
  181.7940  178.8880  139.9910 C   0  0  1  0  0  3  0  0  0  0  0  0
  180.5400  178.6070  140.7100 N   0  0  0  0  0  0  0  0  0  0  0  0
  181.7190  180.2200  139.4150 N   0  0  0  0  0  1  0  0  0  0  0  0
  182.3130  178.6910  142.2420 C   0  0  0  0  0  0  0  0  0  0  0  0
  182.8740  178.8380  141.0090 C   0  0  0  0  0  0  0  0  0  0  0  0
  180.8490  178.5820  142.1450 C   0  0  0  0  0  3  0  0  0  0  0  0
  186.0770  177.5150  144.5150 O   0  0  0  0  0  0  0  0  0  0  0  0
  187.3240  177.9080  144.0090 C   0  0  2  0  0  3  0  0  0  0  0  0
  187.3220  177.8210  142.4840 C   0  0  0  0  0  2  0  0  0  0  0  0
  184.4700  178.7460  143.2910 C   0  0  0  0  0  0  0  0  0  0  0  0
  186.5740  179.0060  141.8840 C   0  0  0  0  0  2  0  0  0  0  0  0
  185.0800  178.8640  142.0140 C   0  0  0  0  0  0  0  0  0  0  0  0
  188.4030  176.9960  144.5640 C   0  0  0  0  0  3  0  0  0  0  0  0
  189.0810  177.6700  145.7400 C   0  0  0  0  0  2  0  0  0  0  0  0
  189.7560  177.6550  144.3860 C   0  0  0  0  0  2  0  0  0  0  0  0
  185.2690  177.9570  138.8420 C   0  0  0  0  0  3  0  0  0  0  0  0
  184.9260  178.9730  139.5670 N   0  0  0  0  0  0  0  0  0  0  0  0
  185.9620  178.1720  137.5390 C   0  0  0  0  0  2  0  0  0  0  0  0
  189.2550  177.1360  136.1840 C   0  0  0  0  0  2  0  0  0  0  0  0
  188.0280  178.1010  138.6680 C   0  0  0  0  0  2  0  0  0  0  0  0
  192.1090  176.7210  138.6640 C   0  0  0  0  0  0  0  0  0  0  0  0
  191.3690  176.7440  137.4710 C   0  0  0  0  0  3  0  0  0  0  0  0
  190.0410  177.1820  137.4660 C   0  0  0  0  0  0  0  0  0  0  0  0
  190.1690  177.5680  139.8610 C   0  0  0  0  0  3  0  0  0  0  0  0
  189.4340  177.5780  138.6730 C   0  0  0  0  0  0  0  0  0  0  0  0
  191.4990  177.1370  139.8570 C   0  0  0  0  0  3  0  0  0  0  0  0
  187.2670  177.5300  137.5540 N   0  0  0  0  0  0  0  0  0  0  0  0
  187.9380  177.9030  136.3110 C   0  0  0  0  0  2  0  0  0  0  0  0
  193.5090  176.2560  138.6690 C   0  0  0  0  0  0  0  0  0  0  0  0
  194.3000  176.3700  139.8490 N   0  0  0  0  0  1  0  0  0  0  0  0
  194.0370  175.7500  137.6020 N   0  0  0  0  0  2  0  0  0  0  0  0
  1  8  2  0  0  0  0
  1 15  1  0  0  0  0
  4  6  1  1  0  0  0
  4  5  1  0  0  0  0
  4  8  1  0  0  0  0
  5  9  2  0  0  0  0
  7  3  2  0  0  0  0
  8  7  1  0  0  0  0
  9  7  1  0  0  0  0
 10  2  1  0  0  0  0
 11 10  1  0  0  0  0
 11 16  1  1  0  0  0
 12 11  1  0  0  0  0
 13  3  1  0  0  0  0
 13  2  1  0  0  0  0
 14 15  1  0  0  0  0
 14 12  1  0  0  0  0
 15 13  2  0  0  0  0
 16 17  1  0  0  0  0
 18 16  1  0  0  0  0
 18 17  1  0  0  0  0
 19 20  2  0  0  0  0
 20  1  1  0  0  0  0
 21 30  1  0  0  0  0
 21 19  1  0  0  0  0
 22 31  1  0  0  0  0
 22 26  1  0  0  0  0
 23 28  1  0  0  0  0
 24 32  1  0  0  0  0
 24 29  1  0  0  0  0
 25 24  2  0  0  0  0
 26 25  1  0  0  0  0
 26 28  2  0  0  0  0
 28 27  1  0  0  0  0
 29 27  2  0  0  0  0
 30 23  1  0  0  0  0
 31 30  1  0  0  0  0
 32 33  1  0  0  0  0
 34 32  2  0  0  0  0
M  END
>  <MODEL>
8

>  <REMARK>
 VINA RESULT:      -8.8      2.939      6.835
  Name = 
  5 active torsions:
  status: ('A' for Active; 'I' for Inactive)
    1  A    between atoms: C_1  and  N_9
    2  A    between atoms: C_3  and  C_25
    3  A    between atoms: C_7  and  C_11
    4  A    between atoms: C_8  and  C_18
    5  A    between atoms: C_18  and  N_30
                            x       y       z     vdW  Elec       q    Type
                         _______ _______ _______ _____ _____    ______ ____

>  <TORSDO>
F 5

$$$$
=
 OpenBabel10262423133D

 34 39  0  0  1  0  0  0  0  0999 V2000
  189.0230  177.2320  141.5360 C   0  0  0  0  0  0  0  0  0  0  0  0
  189.2660  176.9820  145.3520 C   0  0  0  0  0  2  0  0  0  0  0  0
  190.9950  177.1410  143.5670 C   0  0  0  0  0  3  0  0  0  0  0  0
  191.0940  177.3330  139.9210 C   0  0  1  0  0  3  0  0  0  0  0  0
  192.5260  177.5030  140.2170 N   0  0  0  0  0  0  0  0  0  0  0  0
  190.9070  176.0870  139.1950 N   0  0  0  0  0  1  0  0  0  0  0  0
  191.3410  177.2370  142.2240 C   0  0  0  0  0  0  0  0  0  0  0  0
  190.4040  177.2600  141.2340 C   0  0  0  0  0  0  0  0  0  0  0  0
  192.6990  177.3420  141.6670 C   0  0  0  0  0  3  0  0  0  0  0  0
  188.5820  178.1440  145.7290 O   0  0  0  0  0  0  0  0  0  0  0  0
  187.2190  177.8350  145.6160 C   0  0  2  0  0  3  0  0  0  0  0  0
  186.7330  178.1220  144.1960 C   0  0  0  0  0  2  0  0  0  0  0  0
  189.6390  177.0680  143.9060 C   0  0  0  0  0  0  0  0  0  0  0  0
  187.1830  177.0180  143.2450 C   0  0  0  0  0  2  0  0  0  0  0  0
  188.6430  177.1260  142.8950 C   0  0  0  0  0  0  0  0  0  0  0  0
  186.4280  178.6770  146.5990 C   0  0  0  0  0  3  0  0  0  0  0  0
  185.0110  178.1470  146.6950 C   0  0  0  0  0  2  0  0  0  0  0  0
  185.3030  179.3790  145.8650 C   0  0  0  0  0  2  0  0  0  0  0  0
  187.4160  178.4370  140.1680 C   0  0  0  0  0  3  0  0  0  0  0  0
  187.9920  177.3390  140.5380 N   0  0  0  0  0  0  0  0  0  0  0  0
  186.3380  178.4010  139.1380 C   0  0  0  0  0  2  0  0  0  0  0  0
  182.6820  179.0070  139.2840 C   0  0  0  0  0  2  0  0  0  0  0  0
  184.9300  178.2740  141.0220 C   0  0  0  0  0  2  0  0  0  0  0  0
  181.0800  179.1780  142.7290 C   0  0  0  0  0  0  0  0  0  0  0  0
  181.2580  179.1980  141.3360 C   0  0  0  0  0  3  0  0  0  0  0  0
  182.5060  178.9150  140.7750 C   0  0  0  0  0  0  0  0  0  0  0  0
  183.4260  178.5990  143.0020 C   0  0  0  0  0  3  0  0  0  0  0  0
  183.6010  178.6330  141.6160 C   0  0  0  0  0  0  0  0  0  0  0  0
  182.1720  178.8750  143.5550 C   0  0  0  0  0  3  0  0  0  0  0  0
  185.0900  178.8900  139.7020 N   0  0  0  0  0  0  0  0  0  0  0  0
  184.0150  178.4000  138.8420 C   0  0  0  0  0  2  0  0  0  0  0  0
  179.7610  179.4790  143.3200 C   0  0  0  0  0  0  0  0  0  0  0  0
  179.2250  178.6440  144.3430 N   0  0  0  0  0  1  0  0  0  0  0  0
  179.0750  180.4960  142.9120 N   0  0  0  0  0  2  0  0  0  0  0  0
  1 15  1  0  0  0  0
  2 10  1  0  0  0  0
  3 13  1  0  0  0  0
  4  6  1  1  0  0  0
  4  5  1  0  0  0  0
  4  8  1  0  0  0  0
  5  9  2  0  0  0  0
  7  3  2  0  0  0  0
  8  1  2  0  0  0  0
  8  7  1  0  0  0  0
  9  7  1  0  0  0  0
 11 10  1  0  0  0  0
 11 16  1  1  0  0  0
 12 11  1  0  0  0  0
 13  2  1  0  0  0  0
 14 12  1  0  0  0  0
 15 14  1  0  0  0  0
 15 13  2  0  0  0  0
 16 17  1  0  0  0  0
 18 16  1  0  0  0  0
 18 17  1  0  0  0  0
 19 20  2  0  0  0  0
 20  1  1  0  0  0  0
 21 30  1  0  0  0  0
 21 19  1  0  0  0  0
 22 26  1  0  0  0  0
 23 28  1  0  0  0  0
 24 32  1  0  0  0  0
 24 29  1  0  0  0  0
 25 24  2  0  0  0  0
 26 25  1  0  0  0  0
 26 28  2  0  0  0  0
 27 29  2  0  0  0  0
 28 27  1  0  0  0  0
 30 23  1  0  0  0  0
 31 22  1  0  0  0  0
 31 30  1  0  0  0  0
 32 33  1  0  0  0  0
 34 32  2  0  0  0  0
M  END
>  <MODEL>
9

>  <REMARK>
 VINA RESULT:      -8.7      3.183      6.322
  Name = 
  5 active torsions:
  status: ('A' for Active; 'I' for Inactive)
    1  A    between atoms: C_1  and  N_9
    2  A    between atoms: C_3  and  C_25
    3  A    between atoms: C_7  and  C_11
    4  A    between atoms: C_8  and  C_18
    5  A    between atoms: C_18  and  N_30
                            x       y       z     vdW  Elec       q    Type
                         _______ _______ _______ _____ _____    ______ ____

>  <TORSDO>
F 5

$$$$
