=
 OpenBabel10262421103D

 32 37  0  0  0  0  0  0  0  0999 V2000
  186.6350  178.2330  143.4490 C   0  0  0  0  0  0  0  0  0  0  0  0
  186.4010  178.5980  141.1740 N   0  0  0  0  0  0  0  0  0  0  0  0
  185.9170  177.9790  144.7590 C   0  0  0  0  0  2  0  0  0  0  0  0
  185.9010  178.5680  142.3940 C   0  0  0  0  0  0  0  0  0  0  0  0
  185.4070  178.7190  140.2890 C   0  0  0  0  0  0  0  0  0  0  0  0
  189.6640  177.7360  137.7270 C   0  0  0  0  0  3  0  0  0  0  0  0
  187.7130  178.2340  140.8850 N   0  0  0  0  0  0  0  0  0  0  0  0
  187.3490  178.2240  137.1750 C   0  0  0  0  0  3  0  0  0  0  0  0
  187.0430  178.3240  138.5340 C   0  0  0  0  0  0  0  0  0  0  0  0
  184.5430  178.7470  142.3590 C   0  0  0  0  0  0  0  0  0  0  0  0
  185.6430  178.5980  138.9760 C   0  0  0  0  0  3  0  0  0  0  0  0
  183.6920  178.5490  143.5750 C   0  0  0  0  0  2  0  0  0  0  0  0
  188.5520  177.8880  141.9680 N   0  0  0  0  0  0  0  0  0  0  0  0
  188.0830  177.8980  143.1980 C   0  0  0  0  0  0  0  0  0  0  0  0
  188.0660  178.1220  139.5000 C   0  0  0  0  0  0  0  0  0  0  0  0
  184.2040  178.8400  141.0010 C   0  0  0  0  0  0  0  0  0  0  0  0
  184.5640  178.7340  144.8390 C   0  0  0  0  0  2  0  0  0  0  0  0
  188.6580  177.9340  136.7730 C   0  0  0  0  0  3  0  0  0  0  0  0
  189.3700  177.8280  139.0910 C   0  0  0  0  0  3  0  0  0  0  0  0
  190.9610  176.4240  145.1940 C   0  0  0  0  0  0  0  0  0  0  0  0
  192.0880  175.6910  145.0170 F   0  0  0  0  0  0  0  0  0  0  0  0
  188.9740  177.5140  144.3060 C   0  0  0  0  0  0  0  0  0  0  0  0
  190.6150  176.8430  146.4810 C   0  0  0  0  0  3  0  0  0  0  0  0
  188.6340  177.9150  145.6050 C   0  0  0  0  0  3  0  0  0  0  0  0
  190.1430  176.7480  144.1000 C   0  0  0  0  0  0  0  0  0  0  0  0
  190.5670  176.1200  142.5090 Cl  0  0  0  0  0  0  0  0  0  0  0  0
  189.4480  177.5810  146.6890 C   0  0  0  0  0  0  0  0  0  0  0  0
  187.5990  178.3100  148.1480 C   0  0  0  0  0  1  0  0  0  0  0  0
  189.0870  178.0340  148.0620 C   0  0  0  0  0  2  0  0  0  0  0  0
  182.8720  178.8780  140.4820 N   0  0  0  0  0  2  0  0  0  0  0  0
  181.9730  177.7380  140.5210 C   0  0  0  0  0  2  0  0  0  0  0  0
  182.5660  176.6010  139.7180 C   0  0  0  0  0  1  0  0  0  0  0  0
  1  3  1  0  0  0  0
  2  4  1  0  0  0  0
  3 17  1  0  0  0  0
  4  1  2  0  0  0  0
  5 16  1  0  0  0  0
  5  2  1  0  0  0  0
  6 19  1  0  0  0  0
  7  2  1  0  0  0  0
  7 13  1  0  0  0  0
  8  9  2  0  0  0  0
  9 11  1  0  0  0  0
  9 15  1  0  0  0  0
 10  4  1  0  0  0  0
 10 12  1  0  0  0  0
 11  5  2  0  0  0  0
 12 17  1  0  0  0  0
 13 14  2  0  0  0  0
 14  1  1  0  0  0  0
 14 22  1  0  0  0  0
 15  7  1  0  0  0  0
 16 10  2  0  0  0  0
 18  8  1  0  0  0  0
 18  6  2  0  0  0  0
 19 15  2  0  0  0  0
 20 23  1  0  0  0  0
 21 20  1  0  0  0  0
 22 24  2  0  0  0  0
 23 27  2  0  0  0  0
 24 27  1  0  0  0  0
 25 22  1  0  0  0  0
 25 20  2  0  0  0  0
 26 25  1  0  0  0  0
 27 29  1  0  0  0  0
 29 28  1  0  0  0  0
 30 31  1  0  0  0  0
 30 16  1  0  0  0  0
 32 31  1  0  0  0  0
M  END
>  <MODEL>
1

>  <REMARK>
 VINA RESULT:     -10.7      0.000      0.000
  Name = 
  4 active torsions:
  status: ('A' for Active; 'I' for Inactive)
    1  A    between atoms: C_13  and  N_18
    2  A    between atoms: C_15  and  C_26
    3  A    between atoms: C_16  and  C_27
    4  A    between atoms: N_18  and  C_29
                            x       y       z     vdW  Elec       q    Type
                         _______ _______ _______ _____ _____    ______ ____

>  <TORSDO>
F 4

$$$$
=
 OpenBabel10262421103D

 32 37  0  0  0  0  0  0  0  0999 V2000
  189.4380  177.4190  142.1620 C   0  0  0  0  0  0  0  0  0  0  0  0
  187.8660  177.9580  143.7750 N   0  0  0  0  0  0  0  0  0  0  0  0
  190.7500  176.7180  141.8740 C   0  0  0  0  0  2  0  0  0  0  0  0
  189.0760  177.5620  143.4320 C   0  0  0  0  0  0  0  0  0  0  0  0
  187.6960  177.7800  145.0880 C   0  0  0  0  0  0  0  0  0  0  0  0
  183.2030  178.9820  143.0820 C   0  0  0  0  0  3  0  0  0  0  0  0
  186.8590  178.2060  142.8460 N   0  0  0  0  0  0  0  0  0  0  0  0
  184.0800  178.5500  145.3050 C   0  0  0  0  0  3  0  0  0  0  0  0
  185.3490  178.3310  144.7660 C   0  0  0  0  0  0  0  0  0  0  0  0
  189.7840  177.1720  144.5380 C   0  0  0  0  0  0  0  0  0  0  0  0
  186.4900  177.9450  145.6480 C   0  0  0  0  0  3  0  0  0  0  0  0
  191.1060  176.4810  144.4230 C   0  0  0  0  0  2  0  0  0  0  0  0
  187.1870  178.0920  141.4760 N   0  0  0  0  0  0  0  0  0  0  0  0
  188.4040  177.7430  141.1140 C   0  0  0  0  0  0  0  0  0  0  0  0
  185.5420  178.4370  143.3620 C   0  0  0  0  0  0  0  0  0  0  0  0
  188.9010  177.3010  145.6210 C   0  0  0  0  0  0  0  0  0  0  0  0
  191.7450  176.8350  143.0590 C   0  0  0  0  0  2  0  0  0  0  0  0
  183.0100  178.8780  144.4650 C   0  0  0  0  0  3  0  0  0  0  0  0
  184.4680  178.7610  142.5270 C   0  0  0  0  0  3  0  0  0  0  0  0
  188.1320  177.8110  137.3240 C   0  0  0  0  0  0  0  0  0  0  0  0
  187.2480  178.1250  136.3460 F   0  0  0  0  0  0  0  0  0  0  0  0
  188.7130  177.6120  139.6800 C   0  0  0  0  0  0  0  0  0  0  0  0
  189.3990  177.3390  136.9730 C   0  0  0  0  0  3  0  0  0  0  0  0
  189.9750  177.1280  139.3110 C   0  0  0  0  0  3  0  0  0  0  0  0
  187.7770  177.9440  138.6760 C   0  0  0  0  0  0  0  0  0  0  0  0
  186.1370  178.4530  139.0740 Cl  0  0  0  0  0  0  0  0  0  0  0  0
  190.3180  176.9890  137.9650 C   0  0  0  0  0  0  0  0  0  0  0  0
  192.6600  176.7720  138.7030 C   0  0  0  0  0  1  0  0  0  0  0  0
  191.6720  176.4960  137.5860 C   0  0  0  0  0  2  0  0  0  0  0  0
  189.1610  176.8600  146.9560 N   0  0  0  0  0  2  0  0  0  0  0  0
  189.4920  177.7670  148.0410 C   0  0  0  0  0  2  0  0  0  0  0  0
  188.2350  178.1150  148.8080 C   0  0  0  0  0  1  0  0  0  0  0  0
  1  4  2  0  0  0  0
  2  5  1  0  0  0  0
  3  1  1  0  0  0  0
  3 17  1  0  0  0  0
  4  2  1  0  0  0  0
  4 10  1  0  0  0  0
  5 16  1  0  0  0  0
  5 11  2  0  0  0  0
  6 18  1  0  0  0  0
  7 15  1  0  0  0  0
  7  2  1  0  0  0  0
  9  8  1  0  0  0  0
  9 11  1  0  0  0  0
 10 16  2  0  0  0  0
 12 10  1  0  0  0  0
 13  7  1  0  0  0  0
 14 13  2  0  0  0  0
 14  1  1  0  0  0  0
 15  9  2  0  0  0  0
 16 30  1  0  0  0  0
 17 12  1  0  0  0  0
 18  8  2  0  0  0  0
 19  6  2  0  0  0  0
 19 15  1  0  0  0  0
 20 25  1  0  0  0  0
 21 20  1  0  0  0  0
 22 14  1  0  0  0  0
 23 20  2  0  0  0  0
 23 27  1  0  0  0  0
 24 22  1  0  0  0  0
 25 26  1  0  0  0  0
 25 22  2  0  0  0  0
 27 24  2  0  0  0  0
 29 27  1  0  0  0  0
 29 28  1  0  0  0  0
 30 31  1  0  0  0  0
 31 32  1  0  0  0  0
M  END
>  <MODEL>
2

>  <REMARK>
 VINA RESULT:     -10.5      2.640      7.341
  Name = 
  4 active torsions:
  status: ('A' for Active; 'I' for Inactive)
    1  A    between atoms: C_13  and  N_18
    2  A    between atoms: C_15  and  C_26
    3  A    between atoms: C_16  and  C_27
    4  A    between atoms: N_18  and  C_29
                            x       y       z     vdW  Elec       q    Type
                         _______ _______ _______ _____ _____    ______ ____

>  <TORSDO>
F 4

$$$$
=
 OpenBabel10262421103D

 32 37  0  0  0  0  0  0  0  0999 V2000
  185.4250  178.2300  144.1460 C   0  0  0  0  0  0  0  0  0  0  0  0
  187.6270  177.6410  143.7340 N   0  0  0  0  0  0  0  0  0  0  0  0
  184.4400  178.7680  145.1630 C   0  0  0  0  0  2  0  0  0  0  0  0
  186.6430  177.9090  144.5700 C   0  0  0  0  0  0  0  0  0  0  0  0
  188.7810  177.5950  144.4060 C   0  0  0  0  0  0  0  0  0  0  0  0
  189.8540  177.4700  139.4580 C   0  0  0  0  0  3  0  0  0  0  0  0
  187.4890  177.7220  142.3510 N   0  0  0  0  0  0  0  0  0  0  0  0
  191.1070  177.3470  141.5350 C   0  0  0  0  0  3  0  0  0  0  0  0
  189.9200  177.4700  142.2620 C   0  0  0  0  0  0  0  0  0  0  0  0
  187.1110  177.9770  145.8550 C   0  0  0  0  0  0  0  0  0  0  0  0
  189.9480  177.5110  143.7550 C   0  0  0  0  0  3  0  0  0  0  0  0
  186.2550  178.4730  146.9790 C   0  0  0  0  0  2  0  0  0  0  0  0
  186.2120  178.0390  141.8360 N   0  0  0  0  0  0  0  0  0  0  0  0
  185.2050  178.2640  142.6550 C   0  0  0  0  0  0  0  0  0  0  0  0
  188.6850  177.5990  141.5710 C   0  0  0  0  0  0  0  0  0  0  0  0
  188.4970  177.7820  145.7670 C   0  0  0  0  0  0  0  0  0  0  0  0
  184.7670  178.2870  146.6020 C   0  0  0  0  0  2  0  0  0  0  0  0
  191.0730  177.3440  140.1360 C   0  0  0  0  0  3  0  0  0  0  0  0
  188.6590  177.5990  140.1730 C   0  0  0  0  0  3  0  0  0  0  0  0
  182.4020  179.0800  140.2230 C   0  0  0  0  0  0  0  0  0  0  0  0
  182.1830  179.2260  138.8930 F   0  0  0  0  0  0  0  0  0  0  0  0
  183.8890  178.6110  142.0910 C   0  0  0  0  0  0  0  0  0  0  0  0
  181.3420  179.2630  141.1130 C   0  0  0  0  0  3  0  0  0  0  0  0
  182.8190  178.8120  142.9730 C   0  0  0  0  0  3  0  0  0  0  0  0
  183.6820  178.7610  140.7030 C   0  0  0  0  0  0  0  0  0  0  0  0
  185.0100  178.6300  139.5510 Cl  0  0  0  0  0  0  0  0  0  0  0  0
  181.5510  179.1380  142.4890 C   0  0  0  0  0  0  0  0  0  0  0  0
  179.9900  177.9890  144.0120 C   0  0  0  0  0  1  0  0  0  0  0  0
  180.4150  179.3250  143.4350 C   0  0  0  0  0  2  0  0  0  0  0  0
  189.4220  177.9240  146.8490 N   0  0  0  0  0  2  0  0  0  0  0  0
  190.0490  176.7930  147.5090 C   0  0  0  0  0  2  0  0  0  0  0  0
  191.4420  176.5930  146.9520 C   0  0  0  0  0  1  0  0  0  0  0  0
  1  4  2  0  0  0  0
  1  3  1  0  0  0  0
  2  5  1  0  0  0  0
  2  4  1  0  0  0  0
  3 17  1  0  0  0  0
  4 10  1  0  0  0  0
  5 16  1  0  0  0  0
  6 18  2  0  0  0  0
  6 19  1  0  0  0  0
  7  2  1  0  0  0  0
  8  9  2  0  0  0  0
  9 11  1  0  0  0  0
 10 12  1  0  0  0  0
 11  5  2  0  0  0  0
 13  7  1  0  0  0  0
 13 14  2  0  0  0  0
 14  1  1  0  0  0  0
 15  9  1  0  0  0  0
 15  7  1  0  0  0  0
 16 10  2  0  0  0  0
 16 30  1  0  0  0  0
 17 12  1  0  0  0  0
 18  8  1  0  0  0  0
 19 15  2  0  0  0  0
 20 25  2  0  0  0  0
 20 23  1  0  0  0  0
 21 20  1  0  0  0  0
 22 14  1  0  0  0  0
 22 24  2  0  0  0  0
 23 27  2  0  0  0  0
 25 22  1  0  0  0  0
 26 25  1  0  0  0  0
 27 24  1  0  0  0  0
 27 29  1  0  0  0  0
 29 28  1  0  0  0  0
 30 31  1  0  0  0  0
 32 31  1  0  0  0  0
M  END
>  <MODEL>
3

>  <REMARK>
 VINA RESULT:     -10.4      3.054      6.644
  Name = 
  4 active torsions:
  status: ('A' for Active; 'I' for Inactive)
    1  A    between atoms: C_13  and  N_18
    2  A    between atoms: C_15  and  C_26
    3  A    between atoms: C_16  and  C_27
    4  A    between atoms: N_18  and  C_29
                            x       y       z     vdW  Elec       q    Type
                         _______ _______ _______ _____ _____    ______ ____

>  <TORSDO>
F 4

$$$$
=
 OpenBabel10262421103D

 32 37  0  0  0  0  0  0  0  0999 V2000
  187.3340  177.9930  141.5600 C   0  0  0  0  0  0  0  0  0  0  0  0
  186.7440  177.9430  143.7990 N   0  0  0  0  0  0  0  0  0  0  0  0
  186.9620  178.4830  140.1750 C   0  0  0  0  0  2  0  0  0  0  0  0
  186.4390  178.1370  142.5310 C   0  0  0  0  0  0  0  0  0  0  0  0
  185.7480  178.3890  144.5690 C   0  0  0  0  0  0  0  0  0  0  0  0
  189.6740  177.2970  147.5770 C   0  0  0  0  0  3  0  0  0  0  0  0
  188.0300  177.6260  144.2280 N   0  0  0  0  0  0  0  0  0  0  0  0
  187.3860  178.0580  147.8740 C   0  0  0  0  0  3  0  0  0  0  0  0
  187.1960  178.0350  146.4900 C   0  0  0  0  0  0  0  0  0  0  0  0
  185.1770  178.6580  142.4160 C   0  0  0  0  0  0  0  0  0  0  0  0
  185.8930  178.4640  145.8980 C   0  0  0  0  0  3  0  0  0  0  0  0
  184.6540  179.1720  141.1110 C   0  0  0  0  0  2  0  0  0  0  0  0
  189.0240  177.4380  143.2410 N   0  0  0  0  0  0  0  0  0  0  0  0
  188.7260  177.5810  141.9660 C   0  0  0  0  0  0  0  0  0  0  0  0
  188.2650  177.6390  145.6420 C   0  0  0  0  0  0  0  0  0  0  0  0
  184.7160  178.8340  143.7290 C   0  0  0  0  0  0  0  0  0  0  0  0
  185.4260  178.4950  139.9540 C   0  0  0  0  0  2  0  0  0  0  0  0
  188.6220  177.6870  148.4150 C   0  0  0  0  0  3  0  0  0  0  0  0
  189.4980  177.2730  146.1900 C   0  0  0  0  0  3  0  0  0  0  0  0
  192.1220  177.2350  140.2970 C   0  0  0  0  0  0  0  0  0  0  0  0
  193.4430  177.2590  140.6010 F   0  0  0  0  0  0  0  0  0  0  0  0
  189.7860  177.3970  140.9600 C   0  0  0  0  0  0  0  0  0  0  0  0
  191.7300  177.0280  138.9720 C   0  0  0  0  0  3  0  0  0  0  0  0
  189.4100  177.2020  139.6240 C   0  0  0  0  0  3  0  0  0  0  0  0
  191.1560  177.4280  141.2970 C   0  0  0  0  0  0  0  0  0  0  0  0
  191.6960  177.7790  142.9380 Cl  0  0  0  0  0  0  0  0  0  0  0  0
  190.3760  177.0200  138.6330 C   0  0  0  0  0  0  0  0  0  0  0  0
  189.1480  177.9630  136.7140 C   0  0  0  0  0  1  0  0  0  0  0  0
  189.9620  176.7890  137.2200 C   0  0  0  0  0  2  0  0  0  0  0  0
  183.5030  179.4970  144.0970 N   0  0  0  0  0  2  0  0  0  0  0  0
  182.2230  178.8170  144.1830 C   0  0  0  0  0  2  0  0  0  0  0  0
  181.4000  179.1320  142.9530 C   0  0  0  0  0  1  0  0  0  0  0  0
  1 14  1  0  0  0  0
  1  4  2  0  0  0  0
  2  7  1  0  0  0  0
  2  5  1  0  0  0  0
  3  1  1  0  0  0  0
  4  2  1  0  0  0  0
  5 11  2  0  0  0  0
  6 18  1  0  0  0  0
  7 15  1  0  0  0  0
  8 18  2  0  0  0  0
  9  8  1  0  0  0  0
 10  4  1  0  0  0  0
 10 16  2  0  0  0  0
 11  9  1  0  0  0  0
 12 10  1  0  0  0  0
 13  7  1  0  0  0  0
 14 13  2  0  0  0  0
 15 19  1  0  0  0  0
 15  9  2  0  0  0  0
 16 30  1  0  0  0  0
 16  5  1  0  0  0  0
 17  3  1  0  0  0  0
 17 12  1  0  0  0  0
 19  6  2  0  0  0  0
 20 21  1  0  0  0  0
 20 25  1  0  0  0  0
 22 25  2  0  0  0  0
 22 14  1  0  0  0  0
 23 20  2  0  0  0  0
 24 22  1  0  0  0  0
 25 26  1  0  0  0  0
 27 23  1  0  0  0  0
 27 24  2  0  0  0  0
 28 29  1  0  0  0  0
 29 27  1  0  0  0  0
 30 31  1  0  0  0  0
 32 31  1  0  0  0  0
M  END
>  <MODEL>
4

>  <REMARK>
 VINA RESULT:     -10.3      1.875      6.103
  Name = 
  4 active torsions:
  status: ('A' for Active; 'I' for Inactive)
    1  A    between atoms: C_13  and  N_18
    2  A    between atoms: C_15  and  C_26
    3  A    between atoms: C_16  and  C_27
    4  A    between atoms: N_18  and  C_29
                            x       y       z     vdW  Elec       q    Type
                         _______ _______ _______ _____ _____    ______ ____

>  <TORSDO>
F 4

$$$$
=
 OpenBabel10262421103D

 32 37  0  0  0  0  0  0  0  0999 V2000
  187.6950  177.9000  142.8700 C   0  0  0  0  0  0  0  0  0  0  0  0
  185.5840  178.1760  141.9600 N   0  0  0  0  0  0  0  0  0  0  0  0
  189.1880  178.0060  142.6310 C   0  0  0  0  0  2  0  0  0  0  0  0
  186.8880  178.0370  141.8240 C   0  0  0  0  0  0  0  0  0  0  0  0
  185.0510  178.5370  140.7890 C   0  0  0  0  0  0  0  0  0  0  0  0
  181.4600  178.9700  144.3350 C   0  0  0  0  0  3  0  0  0  0  0  0
  184.9550  178.2440  143.2000 N   0  0  0  0  0  0  0  0  0  0  0  0
  181.6000  179.2510  141.9260 C   0  0  0  0  0  3  0  0  0  0  0  0
  182.9530  178.9070  141.9610 C   0  0  0  0  0  0  0  0  0  0  0  0
  187.2570  178.2320  140.5190 C   0  0  0  0  0  0  0  0  0  0  0  0
  183.7670  178.9090  140.7090 C   0  0  0  0  0  3  0  0  0  0  0  0
  188.6950  178.3430  140.1170 C   0  0  0  0  0  2  0  0  0  0  0  0
  185.7570  178.0850  144.3520 N   0  0  0  0  0  0  0  0  0  0  0  0
  187.0550  177.8970  144.2350 C   0  0  0  0  0  0  0  0  0  0  0  0
  183.5650  178.5940  143.2050 C   0  0  0  0  0  0  0  0  0  0  0  0
  186.0790  178.5640  139.8350 C   0  0  0  0  0  0  0  0  0  0  0  0
  189.5730  177.6340  141.1750 C   0  0  0  0  0  2  0  0  0  0  0  0
  180.8550  179.2800  143.1100 C   0  0  0  0  0  3  0  0  0  0  0  0
  182.8160  178.6280  144.3850 C   0  0  0  0  0  3  0  0  0  0  0  0
  188.1720  177.8510  147.8660 C   0  0  0  0  0  0  0  0  0  0  0  0
  187.6930  178.0990  149.1100 F   0  0  0  0  0  0  0  0  0  0  0  0
  187.8700  177.7530  145.4530 C   0  0  0  0  0  0  0  0  0  0  0  0
  189.4980  177.4390  147.7160 C   0  0  0  0  0  3  0  0  0  0  0  0
  189.2060  177.3540  145.3180 C   0  0  0  0  0  3  0  0  0  0  0  0
  187.3510  178.0180  146.7400 C   0  0  0  0  0  0  0  0  0  0  0  0
  185.7140  178.6290  146.9680 Cl  0  0  0  0  0  0  0  0  0  0  0  0
  190.0190  177.1990  146.4430 C   0  0  0  0  0  0  0  0  0  0  0  0
  191.7730  175.7220  147.3480 C   0  0  0  0  0  1  0  0  0  0  0  0
  191.4310  176.7500  146.2870 C   0  0  0  0  0  2  0  0  0  0  0  0
  186.0090  179.0020  138.4750 N   0  0  0  0  0  2  0  0  0  0  0  0
  186.2570  178.1240  137.3450 C   0  0  0  0  0  2  0  0  0  0  0  0
  187.4570  178.6250  136.5720 C   0  0  0  0  0  1  0  0  0  0  0  0
  1 14  1  0  0  0  0
  2  7  1  0  0  0  0
  3  1  1  0  0  0  0
  4  2  1  0  0  0  0
  4  1  2  0  0  0  0
  5  2  1  0  0  0  0
  6 19  1  0  0  0  0
  7 15  1  0  0  0  0
  7 13  1  0  0  0  0
  8  9  2  0  0  0  0
  8 18  1  0  0  0  0
  9 15  1  0  0  0  0
 10  4  1  0  0  0  0
 11  5  2  0  0  0  0
 11  9  1  0  0  0  0
 12 10  1  0  0  0  0
 12 17  1  0  0  0  0
 14 13  2  0  0  0  0
 14 22  1  0  0  0  0
 15 19  2  0  0  0  0
 16 10  2  0  0  0  0
 16  5  1  0  0  0  0
 17  3  1  0  0  0  0
 18  6  2  0  0  0  0
 20 21  1  0  0  0  0
 22 25  1  0  0  0  0
 23 20  1  0  0  0  0
 24 22  2  0  0  0  0
 24 27  1  0  0  0  0
 25 26  1  0  0  0  0
 25 20  2  0  0  0  0
 27 23  2  0  0  0  0
 29 27  1  0  0  0  0
 29 28  1  0  0  0  0
 30 16  1  0  0  0  0
 31 30  1  0  0  0  0
 32 31  1  0  0  0  0
M  END
>  <MODEL>
5

>  <REMARK>
 VINA RESULT:     -10.2      2.267      5.007
  Name = 
  4 active torsions:
  status: ('A' for Active; 'I' for Inactive)
    1  A    between atoms: C_13  and  N_18
    2  A    between atoms: C_15  and  C_26
    3  A    between atoms: C_16  and  C_27
    4  A    between atoms: N_18  and  C_29
                            x       y       z     vdW  Elec       q    Type
                         _______ _______ _______ _____ _____    ______ ____

>  <TORSDO>
F 4

$$$$
=
 OpenBabel10262421103D

 32 37  0  0  0  0  0  0  0  0999 V2000
  187.9020  177.7460  141.4730 C   0  0  0  0  0  0  0  0  0  0  0  0
  188.1040  177.4390  143.7590 N   0  0  0  0  0  0  0  0  0  0  0  0
  187.1500  178.4530  140.3640 C   0  0  0  0  0  2  0  0  0  0  0  0
  187.4150  177.8310  142.7060 C   0  0  0  0  0  0  0  0  0  0  0  0
  187.4920  177.8580  144.8710 C   0  0  0  0  0  0  0  0  0  0  0  0
  192.0290  176.0270  146.1820 C   0  0  0  0  0  3  0  0  0  0  0  0
  189.4070  176.9560  143.6750 N   0  0  0  0  0  0  0  0  0  0  0  0
  190.0950  176.9340  147.3380 C   0  0  0  0  0  3  0  0  0  0  0  0
  189.4470  177.1190  146.1150 C   0  0  0  0  0  0  0  0  0  0  0  0
  186.2670  178.4700  143.0950 C   0  0  0  0  0  0  0  0  0  0  0  0
  188.0880  177.7360  146.0650 C   0  0  0  0  0  3  0  0  0  0  0  0
  185.4040  179.2020  142.1150 C   0  0  0  0  0  2  0  0  0  0  0  0
  189.9750  176.8210  142.3880 N   0  0  0  0  0  0  0  0  0  0  0  0
  189.2840  177.1640  141.3210 C   0  0  0  0  0  0  0  0  0  0  0  0
  190.1050  176.7530  144.9100 C   0  0  0  0  0  0  0  0  0  0  0  0
  186.3040  178.5020  144.4960 C   0  0  0  0  0  0  0  0  0  0  0  0
  185.6450  178.6280  140.6990 C   0  0  0  0  0  2  0  0  0  0  0  0
  191.3830  176.3870  147.3710 C   0  0  0  0  0  3  0  0  0  0  0  0
  191.3930  176.2100  144.9500 C   0  0  0  0  0  3  0  0  0  0  0  0
  191.8430  176.9780  138.5170 C   0  0  0  0  0  0  0  0  0  0  0  0
  193.1810  177.0650  138.3170 F   0  0  0  0  0  0  0  0  0  0  0  0
  189.9080  177.0310  139.9930 C   0  0  0  0  0  0  0  0  0  0  0  0
  191.0020  176.7530  137.4250 C   0  0  0  0  0  3  0  0  0  0  0  0
  189.0770  176.8180  138.8840 C   0  0  0  0  0  3  0  0  0  0  0  0
  191.3040  177.1260  139.8050 C   0  0  0  0  0  0  0  0  0  0  0  0
  192.3910  177.5030  141.1400 Cl  0  0  0  0  0  0  0  0  0  0  0  0
  189.6190  176.6810  137.6050 C   0  0  0  0  0  0  0  0  0  0  0  0
  187.2740  176.5510  136.8560 C   0  0  0  0  0  1  0  0  0  0  0  0
  188.7270  176.4300  136.4390 C   0  0  0  0  0  2  0  0  0  0  0  0
  185.3830  179.2090  145.3310 N   0  0  0  0  0  2  0  0  0  0  0  0
  184.1090  178.6550  145.7530 C   0  0  0  0  0  2  0  0  0  0  0  0
  183.0460  179.0030  144.7340 C   0  0  0  0  0  1  0  0  0  0  0  0
  1  4  2  0  0  0  0
  2  5  1  0  0  0  0
  3 17  1  0  0  0  0
  3  1  1  0  0  0  0
  4 10  1  0  0  0  0
  4  2  1  0  0  0  0
  5 11  2  0  0  0  0
  6 18  1  0  0  0  0
  7  2  1  0  0  0  0
  7 15  1  0  0  0  0
  8 18  2  0  0  0  0
  9  8  1  0  0  0  0
 10 16  2  0  0  0  0
 11  9  1  0  0  0  0
 12 10  1  0  0  0  0
 13  7  1  0  0  0  0
 14  1  1  0  0  0  0
 14 13  2  0  0  0  0
 15 19  1  0  0  0  0
 15  9  2  0  0  0  0
 16  5  1  0  0  0  0
 16 30  1  0  0  0  0
 17 12  1  0  0  0  0
 19  6  2  0  0  0  0
 20 25  1  0  0  0  0
 21 20  1  0  0  0  0
 22 14  1  0  0  0  0
 23 27  1  0  0  0  0
 23 20  2  0  0  0  0
 24 22  1  0  0  0  0
 25 22  2  0  0  0  0
 25 26  1  0  0  0  0
 27 24  2  0  0  0  0
 29 28  1  0  0  0  0
 29 27  1  0  0  0  0
 30 31  1  0  0  0  0
 32 31  1  0  0  0  0
M  END
>  <MODEL>
6

>  <REMARK>
 VINA RESULT:      -9.9      2.334      6.518
  Name = 
  4 active torsions:
  status: ('A' for Active; 'I' for Inactive)
    1  A    between atoms: C_13  and  N_18
    2  A    between atoms: C_15  and  C_26
    3  A    between atoms: C_16  and  C_27
    4  A    between atoms: N_18  and  C_29
                            x       y       z     vdW  Elec       q    Type
                         _______ _______ _______ _____ _____    ______ ____

>  <TORSDO>
F 4

$$$$
=
 OpenBabel10262421103D

 32 37  0  0  0  0  0  0  0  0999 V2000
  185.8430  178.5100  139.5090 C   0  0  0  0  0  0  0  0  0  0  0  0
  186.8040  178.3620  141.6110 N   0  0  0  0  0  0  0  0  0  0  0  0
  185.9820  178.1680  138.0390 C   0  0  0  0  0  2  0  0  0  0  0  0
  186.8930  178.3010  140.2970 C   0  0  0  0  0  0  0  0  0  0  0  0
  187.9240  177.8760  142.1540 C   0  0  0  0  0  0  0  0  0  0  0  0
  184.5500  178.5450  145.8720 C   0  0  0  0  0  3  0  0  0  0  0  0
  185.6050  178.5940  142.2790 N   0  0  0  0  0  0  0  0  0  0  0  0
  186.8660  177.8330  145.7030 C   0  0  0  0  0  3  0  0  0  0  0  0
  186.8180  177.9960  144.3170 C   0  0  0  0  0  0  0  0  0  0  0  0
  188.1250  177.8350  139.9210 C   0  0  0  0  0  0  0  0  0  0  0  0
  188.0080  177.6690  143.4750 C   0  0  0  0  0  3  0  0  0  0  0  0
  188.4260  177.4660  138.5010 C   0  0  0  0  0  2  0  0  0  0  0  0
  184.4560  178.8440  141.4970 N   0  0  0  0  0  0  0  0  0  0  0  0
  184.5350  178.8350  140.1820 C   0  0  0  0  0  0  0  0  0  0  0  0
  185.6150  178.4380  143.7040 C   0  0  0  0  0  0  0  0  0  0  0  0
  188.8040  177.5470  141.1130 C   0  0  0  0  0  0  0  0  0  0  0  0
  187.4580  178.2260  137.5640 C   0  0  0  0  0  2  0  0  0  0  0  0
  185.7340  178.1100  146.4790 C   0  0  0  0  0  3  0  0  0  0  0  0
  184.4870  178.7090  144.4840 C   0  0  0  0  0  3  0  0  0  0  0  0
  181.3270  178.3260  138.2100 C   0  0  0  0  0  0  0  0  0  0  0  0
  180.5130  177.3310  137.7780 F   0  0  0  0  0  0  0  0  0  0  0  0
  183.3170  179.0800  139.3910 C   0  0  0  0  0  0  0  0  0  0  0  0
  181.0110  179.6500  137.8970 C   0  0  0  0  0  3  0  0  0  0  0  0
  182.9930  180.4030  139.0580 C   0  0  0  0  0  3  0  0  0  0  0  0
  182.4820  178.0300  138.9500 C   0  0  0  0  0  0  0  0  0  0  0  0
  182.8930  176.3410  139.2400 Cl  0  0  0  0  0  0  0  0  0  0  0  0
  181.8470  180.6880  138.3130 C   0  0  0  0  0  0  0  0  0  0  0  0
  180.5410  182.1470  136.8150 C   0  0  0  0  0  1  0  0  0  0  0  0
  181.5010  182.1000  137.9870 C   0  0  0  0  0  2  0  0  0  0  0  0
  190.0720  176.8920  141.2040 N   0  0  0  0  0  2  0  0  0  0  0  0
  191.2860  177.5690  141.6230 C   0  0  0  0  0  2  0  0  0  0  0  0
  191.6530  177.1270  143.0230 C   0  0  0  0  0  1  0  0  0  0  0  0
  1 14  1  0  0  0  0
  1  4  2  0  0  0  0
  2  5  1  0  0  0  0
  2  7  1  0  0  0  0
  3  1  1  0  0  0  0
  4  2  1  0  0  0  0
  5 11  2  0  0  0  0
  6 18  1  0  0  0  0
  7 15  1  0  0  0  0
  8 18  2  0  0  0  0
  9  8  1  0  0  0  0
 10  4  1  0  0  0  0
 10 16  2  0  0  0  0
 11  9  1  0  0  0  0
 12 10  1  0  0  0  0
 13  7  1  0  0  0  0
 14 13  2  0  0  0  0
 15  9  2  0  0  0  0
 15 19  1  0  0  0  0
 16 30  1  0  0  0  0
 16  5  1  0  0  0  0
 17  3  1  0  0  0  0
 17 12  1  0  0  0  0
 19  6  2  0  0  0  0
 20 25  1  0  0  0  0
 21 20  1  0  0  0  0
 22 14  1  0  0  0  0
 23 20  2  0  0  0  0
 23 27  1  0  0  0  0
 24 22  1  0  0  0  0
 25 26  1  0  0  0  0
 25 22  2  0  0  0  0
 27 24  2  0  0  0  0
 28 29  1  0  0  0  0
 29 27  1  0  0  0  0
 30 31  1  0  0  0  0
 31 32  1  0  0  0  0
M  END
>  <MODEL>
7

>  <REMARK>
 VINA RESULT:      -9.8      3.557      8.354
  Name = 
  4 active torsions:
  status: ('A' for Active; 'I' for Inactive)
    1  A    between atoms: C_13  and  N_18
    2  A    between atoms: C_15  and  C_26
    3  A    between atoms: C_16  and  C_27
    4  A    between atoms: N_18  and  C_29
                            x       y       z     vdW  Elec       q    Type
                         _______ _______ _______ _____ _____    ______ ____

>  <TORSDO>
F 4

$$$$
=
 OpenBabel10262421103D

 32 37  0  0  0  0  0  0  0  0999 V2000
  187.6500  178.0850  141.5410 C   0  0  0  0  0  0  0  0  0  0  0  0
  189.5730  177.6710  142.7640 N   0  0  0  0  0  0  0  0  0  0  0  0
  186.9950  178.0260  140.1760 C   0  0  0  0  0  2  0  0  0  0  0  0
  188.9570  177.8550  141.6130 C   0  0  0  0  0  0  0  0  0  0  0  0
  190.8110  177.2220  142.5390 C   0  0  0  0  0  0  0  0  0  0  0  0
  189.8970  176.8480  147.5070 C   0  0  0  0  0  3  0  0  0  0  0  0
  188.9040  177.6490  143.9850 N   0  0  0  0  0  0  0  0  0  0  0  0
  191.7770  176.4340  146.0260 C   0  0  0  0  0  3  0  0  0  0  0  0
  191.0080  176.8350  144.9310 C   0  0  0  0  0  0  0  0  0  0  0  0
  189.8060  177.6000  140.5690 C   0  0  0  0  0  0  0  0  0  0  0  0
  191.5760  176.7940  143.5510 C   0  0  0  0  0  3  0  0  0  0  0  0
  189.3160  177.5250  139.1560 C   0  0  0  0  0  2  0  0  0  0  0  0
  187.5150  177.9080  143.9780 N   0  0  0  0  0  0  0  0  0  0  0  0
  186.8910  178.1410  142.8420 C   0  0  0  0  0  0  0  0  0  0  0  0
  189.6620  177.2440  145.1330 C   0  0  0  0  0  0  0  0  0  0  0  0
  191.0120  177.1810  141.1510 C   0  0  0  0  0  0  0  0  0  0  0  0
  188.0010  178.3290  139.0330 C   0  0  0  0  0  2  0  0  0  0  0  0
  191.2230  176.4440  147.3110 C   0  0  0  0  0  3  0  0  0  0  0  0
  189.1140  177.2480  146.4190 C   0  0  0  0  0  3  0  0  0  0  0  0
  183.3460  178.8330  144.0210 C   0  0  0  0  0  0  0  0  0  0  0  0
  182.6450  179.0300  145.1640 F   0  0  0  0  0  0  0  0  0  0  0  0
  185.4390  178.3880  142.8620 C   0  0  0  0  0  0  0  0  0  0  0  0
  182.6750  178.8630  142.7960 C   0  0  0  0  0  3  0  0  0  0  0  0
  184.7500  178.4080  141.6420 C   0  0  0  0  0  3  0  0  0  0  0  0
  184.7270  178.5890  144.0650 C   0  0  0  0  0  0  0  0  0  0  0  0
  185.5160  178.4670  145.6360 Cl  0  0  0  0  0  0  0  0  0  0  0  0
  183.3740  178.6420  141.6070 C   0  0  0  0  0  0  0  0  0  0  0  0
  183.5400  179.3100  139.2400 C   0  0  0  0  0  1  0  0  0  0  0  0
  182.6570  178.6850  140.3020 C   0  0  0  0  0  2  0  0  0  0  0  0
  192.1380  176.6630  140.4380 N   0  0  0  0  0  2  0  0  0  0  0  0
  192.8990  177.4450  139.4810 C   0  0  0  0  0  2  0  0  0  0  0  0
  193.0790  176.6480  138.2070 C   0  0  0  0  0  1  0  0  0  0  0  0
  1  4  2  0  0  0  0
  1 14  1  0  0  0  0
  2  7  1  0  0  0  0
  3  1  1  0  0  0  0
  4  2  1  0  0  0  0
  5  2  1  0  0  0  0
  5 11  2  0  0  0  0
  7 15  1  0  0  0  0
  8 18  2  0  0  0  0
  9 15  2  0  0  0  0
  9  8  1  0  0  0  0
 10 16  2  0  0  0  0
 10  4  1  0  0  0  0
 11  9  1  0  0  0  0
 12 10  1  0  0  0  0
 13  7  1  0  0  0  0
 14 22  1  0  0  0  0
 14 13  2  0  0  0  0
 15 19  1  0  0  0  0
 16  5  1  0  0  0  0
 17 12  1  0  0  0  0
 17  3  1  0  0  0  0
 18  6  1  0  0  0  0
 19  6  2  0  0  0  0
 20 25  1  0  0  0  0
 20 21  1  0  0  0  0
 22 25  2  0  0  0  0
 23 20  2  0  0  0  0
 24 22  1  0  0  0  0
 25 26  1  0  0  0  0
 27 24  2  0  0  0  0
 27 23  1  0  0  0  0
 28 29  1  0  0  0  0
 29 27  1  0  0  0  0
 30 16  1  0  0  0  0
 31 30  1  0  0  0  0
 32 31  1  0  0  0  0
M  END
>  <MODEL>
8

>  <REMARK>
 VINA RESULT:      -9.5      2.749      7.421
  Name = 
  4 active torsions:
  status: ('A' for Active; 'I' for Inactive)
    1  A    between atoms: C_13  and  N_18
    2  A    between atoms: C_15  and  C_26
    3  A    between atoms: C_16  and  C_27
    4  A    between atoms: N_18  and  C_29
                            x       y       z     vdW  Elec       q    Type
                         _______ _______ _______ _____ _____    ______ ____

>  <TORSDO>
F 4

$$$$
=
 OpenBabel10262421103D

 32 37  0  0  0  0  0  0  0  0999 V2000
  189.0990  177.5990  143.2830 C   0  0  0  0  0  0  0  0  0  0  0  0
  189.1610  177.4790  140.9710 N   0  0  0  0  0  0  0  0  0  0  0  0
  189.9100  177.7690  144.5520 C   0  0  0  0  0  2  0  0  0  0  0  0
  189.7600  177.4200  142.1440 C   0  0  0  0  0  0  0  0  0  0  0  0
  190.0810  177.5120  140.0030 C   0  0  0  0  0  0  0  0  0  0  0  0
  185.5720  178.4610  137.8990 C   0  0  0  0  0  3  0  0  0  0  0  0
  187.8100  177.7820  140.8250 N   0  0  0  0  0  0  0  0  0  0  0  0
  187.8560  178.1840  137.1200 C   0  0  0  0  0  3  0  0  0  0  0  0
  188.2820  177.9700  138.4330 C   0  0  0  0  0  0  0  0  0  0  0  0
  191.1180  177.3360  141.9840 C   0  0  0  0  0  0  0  0  0  0  0  0
  189.7280  177.7470  138.7330 C   0  0  0  0  0  3  0  0  0  0  0  0
  192.0550  177.4680  143.1440 C   0  0  0  0  0  2  0  0  0  0  0  0
  187.0470  177.9620  142.0010 N   0  0  0  0  0  0  0  0  0  0  0  0
  187.6190  177.8610  143.1830 C   0  0  0  0  0  0  0  0  0  0  0  0
  187.3350  178.0070  139.4910 C   0  0  0  0  0  0  0  0  0  0  0  0
  191.3450  177.4010  140.6020 C   0  0  0  0  0  0  0  0  0  0  0  0
  191.3060  177.1010  144.4460 C   0  0  0  0  0  2  0  0  0  0  0  0
  186.5040  178.4250  136.8540 C   0  0  0  0  0  3  0  0  0  0  0  0
  185.9860  178.2530  139.2190 C   0  0  0  0  0  3  0  0  0  0  0  0
  184.7150  178.6280  145.5110 C   0  0  0  0  0  0  0  0  0  0  0  0
  183.4100  178.9930  145.4680 F   0  0  0  0  0  0  0  0  0  0  0  0
  186.8030  178.0720  144.3910 C   0  0  0  0  0  0  0  0  0  0  0  0
  185.3310  178.4410  146.7510 C   0  0  0  0  0  3  0  0  0  0  0  0
  187.4100  177.9020  145.6430 C   0  0  0  0  0  3  0  0  0  0  0  0
  185.4460  178.4530  144.3250 C   0  0  0  0  0  0  0  0  0  0  0  0
  184.6550  178.7910  142.7860 Cl  0  0  0  0  0  0  0  0  0  0  0  0
  186.6800  178.0870  146.8180 C   0  0  0  0  0  0  0  0  0  0  0  0
  188.8390  177.8780  147.9900 C   0  0  0  0  0  1  0  0  0  0  0  0
  187.3310  177.8780  148.1420 C   0  0  0  0  0  2  0  0  0  0  0  0
  192.6280  177.5030  139.9790 N   0  0  0  0  0  2  0  0  0  0  0  0
  193.2240  176.4240  139.2110 C   0  0  0  0  0  2  0  0  0  0  0  0
  193.1240  176.7410  137.7340 C   0  0  0  0  0  1  0  0  0  0  0  0
  1  3  1  0  0  0  0
  2  4  1  0  0  0  0
  4  1  2  0  0  0  0
  5 16  1  0  0  0  0
  5  2  1  0  0  0  0
  6 19  1  0  0  0  0
  7  2  1  0  0  0  0
  7 13  1  0  0  0  0
  8  9  2  0  0  0  0
  9 11  1  0  0  0  0
  9 15  1  0  0  0  0
 10  4  1  0  0  0  0
 10 12  1  0  0  0  0
 11  5  2  0  0  0  0
 12 17  1  0  0  0  0
 13 14  2  0  0  0  0
 14  1  1  0  0  0  0
 14 22  1  0  0  0  0
 15  7  1  0  0  0  0
 16 10  2  0  0  0  0
 17  3  1  0  0  0  0
 18  8  1  0  0  0  0
 18  6  2  0  0  0  0
 19 15  2  0  0  0  0
 20 23  1  0  0  0  0
 21 20  1  0  0  0  0
 22 24  2  0  0  0  0
 23 27  2  0  0  0  0
 24 27  1  0  0  0  0
 25 22  1  0  0  0  0
 25 20  2  0  0  0  0
 26 25  1  0  0  0  0
 27 29  1  0  0  0  0
 28 29  1  0  0  0  0
 30 16  1  0  0  0  0
 31 30  1  0  0  0  0
 32 31  1  0  0  0  0
M  END
>  <MODEL>
9

>  <REMARK>
 VINA RESULT:      -9.5      2.649      5.408
  Name = 
  4 active torsions:
  status: ('A' for Active; 'I' for Inactive)
    1  A    between atoms: C_13  and  N_18
    2  A    between atoms: C_15  and  C_26
    3  A    between atoms: C_16  and  C_27
    4  A    between atoms: N_18  and  C_29
                            x       y       z     vdW  Elec       q    Type
                         _______ _______ _______ _____ _____    ______ ____

>  <TORSDO>
F 4

$$$$
