=
 OpenBabel10262419103D

 34 40  0  0  1  0  0  0  0  0999 V2000
  189.1060  177.1250  146.3900 C   0  0  0  0  0  0  0  0  0  0  0  0
  190.8900  177.2390  144.7510 C   0  0  0  0  0  0  0  0  0  0  0  0
  188.5980  177.5660  144.0740 C   0  0  0  0  0  0  0  0  0  0  0  0
  188.2440  178.0040  141.8000 C   0  0  0  0  0  0  0  0  0  0  0  0
  191.3660  176.8080  147.0290 C   0  0  0  0  0  3  0  0  0  0  0  0
  191.7860  176.9880  145.7420 N   0  0  0  0  0  0  0  0  0  0  0  0
  190.3180  177.6740  142.4780 N   0  0  0  0  0  0  0  0  0  0  0  0
  189.5250  177.3080  145.0720 C   0  0  0  0  0  0  0  0  0  0  0  0
  189.0230  178.1660  140.5380 C   0  0  0  0  0  2  0  0  0  0  0  0
  190.0390  176.8760  147.3470 N   0  0  0  0  0  0  0  0  0  0  0  0
  187.2270  177.6580  144.3410 C   0  0  0  0  0  0  0  0  0  0  0  0
  187.7360  177.2070  146.6920 C   0  0  0  0  0  3  0  0  0  0  0  0
  191.2890  177.4330  143.4120 C   0  0  0  0  0  3  0  0  0  0  0  0
  186.9000  178.1110  141.9850 N   0  0  0  0  0  0  0  0  0  0  0  0
  186.3650  177.9400  143.2400 C   0  0  0  0  0  0  0  0  0  0  0  0
  190.4810  177.9220  141.0460 C   0  0  2  0  0  3  0  0  0  0  0  0
  189.0470  177.7370  142.8180 N   0  0  0  0  0  0  0  0  0  0  0  0
  186.7980  177.4730  145.6710 C   0  0  0  0  0  3  0  0  0  0  0  0
  182.7430  178.6740  142.2810 C   0  0  0  0  0  0  0  0  0  0  0  0
  182.2890  179.5050  143.4410 C   0  0  0  0  0  2  0  0  0  0  0  0
  184.8770  178.0630  143.3910 C   0  0  2  0  0  3  0  0  0  0  0  0
  182.9890  179.0410  144.7180 C   0  0  0  0  0  2  0  0  0  0  0  0
  184.2100  178.4520  142.0690 C   0  0  0  0  0  2  0  0  0  0  0  0
  184.5040  179.0210  144.5270 C   0  0  0  0  0  2  0  0  0  0  0  0
  181.9320  178.2330  141.4850 O   0  0  0  0  0  0  0  0  0  0  0  0
  191.0660  176.6930  140.3690 C   0  0  0  0  0  2  0  0  0  0  0  0
  190.3190  176.3980  139.0800 C   0  0  0  0  0  2  0  0  0  0  0  0
  190.4240  173.9890  137.0540 C   0  0  0  0  0  1  0  0  0  0  0  0
  191.2570  176.0810  138.0120 N   0  0  0  0  0  0  0  0  0  0  0  0
  190.7520  175.4470  136.7860 C   0  0  1  0  0  3  0  0  0  0  0  0
  193.0020  175.9120  135.8300 C   0  0  0  0  0  3  0  0  0  0  0  0
  193.4880  176.3210  137.1540 C   0  0  0  0  0  3  0  0  0  0  0  0
  192.6450  176.4070  138.1800 C   0  0  0  0  0  3  0  0  0  0  0  0
  191.7360  175.5320  135.6480 C   0  0  0  0  0  3  0  0  0  0  0  0
  1 12  1  0  0  0  0
  1 10  2  0  0  0  0
  2  8  1  0  0  0  0
  2  6  1  0  0  0  0
  3 11  1  0  0  0  0
  3  8  2  0  0  0  0
  4 14  2  0  0  0  0
  4 17  1  0  0  0  0
  5 10  1  0  0  0  0
  6  5  2  0  0  0  0
  7 17  1  0  0  0  0
  7 13  1  0  0  0  0
  8  1  1  0  0  0  0
  9 16  1  0  0  0  0
  9  4  1  0  0  0  0
 11 18  1  0  0  0  0
 13  2  2  0  0  0  0
 14 15  1  0  0  0  0
 15 11  2  0  0  0  0
 16 26  1  6  0  0  0
 16  7  1  0  0  0  0
 17  3  1  0  0  0  0
 18 12  2  0  0  0  0
 19 20  1  0  0  0  0
 20 22  1  0  0  0  0
 21 15  1  6  0  0  0
 21 24  1  0  0  0  0
 23 19  1  0  0  0  0
 23 21  1  0  0  0  0
 24 22  1  0  0  0  0
 25 19  2  0  0  0  0
 27 26  1  0  0  0  0
 29 33  1  0  0  0  0
 29 27  1  0  0  0  0
 30 28  1  1  0  0  0
 30 29  1  0  0  0  0
 31 32  1  0  0  0  0
 32 33  2  0  0  0  0
 34 31  2  0  0  0  0
 34 30  1  0  0  0  0
M  END
>  <MODEL>
1

>  <REMARK>
 VINA RESULT:     -10.6      0.000      0.000
  Name = 
  4 active torsions:
  status: ('A' for Active; 'I' for Inactive)
    1  A    between atoms: C_3  and  N_13
    2  A    between atoms: C_3  and  C_17
    3  A    between atoms: C_12  and  C_28
    4  A    between atoms: C_17  and  C_29
                            x       y       z     vdW  Elec       q    Type
                         _______ _______ _______ _____ _____    ______ ____

>  <TORSDO>
F 4

$$$$
=
 OpenBabel10262419103D

 34 40  0  0  1  0  0  0  0  0999 V2000
  184.1440  178.6420  145.1860 C   0  0  0  0  0  0  0  0  0  0  0  0
  186.5380  178.2780  145.0520 C   0  0  0  0  0  0  0  0  0  0  0  0
  185.2390  178.5560  143.0390 C   0  0  0  0  0  0  0  0  0  0  0  0
  186.4280  178.4680  141.0210 C   0  0  0  0  0  0  0  0  0  0  0  0
  185.4430  178.3670  147.1490 C   0  0  0  0  0  3  0  0  0  0  0  0
  186.5820  178.2200  146.4090 N   0  0  0  0  0  0  0  0  0  0  0  0
  187.5570  178.2000  142.8990 N   0  0  0  0  0  0  0  0  0  0  0  0
  185.3020  178.4910  144.4220 C   0  0  0  0  0  0  0  0  0  0  0  0
  187.8250  178.2910  140.5310 C   0  0  0  0  0  2  0  0  0  0  0  0
  184.2370  178.5760  146.5400 N   0  0  0  0  0  0  0  0  0  0  0  0
  184.0350  178.7780  142.3600 C   0  0  0  0  0  0  0  0  0  0  0  0
  182.9170  178.8630  144.5360 C   0  0  0  0  0  3  0  0  0  0  0  0
  187.6950  178.1340  144.2580 C   0  0  0  0  0  3  0  0  0  0  0  0
  185.2970  178.6850  140.2950 N   0  0  0  0  0  0  0  0  0  0  0  0
  184.0900  178.8400  140.9350 C   0  0  0  0  0  0  0  0  0  0  0  0
  188.5980  178.0980  141.8760 C   0  0  2  0  0  3  0  0  0  0  0  0
  186.3800  178.4060  142.3420 N   0  0  0  0  0  0  0  0  0  0  0  0
  182.8610  178.9310  143.1260 C   0  0  0  0  0  3  0  0  0  0  0  0
  181.0910  178.0140  138.7220 C   0  0  0  0  0  0  0  0  0  0  0  0
  181.2730  178.9860  137.5970 C   0  0  0  0  0  2  0  0  0  0  0  0
  182.8710  179.0710  140.0900 C   0  0  2  0  0  3  0  0  0  0  0  0
  181.8950  180.2780  138.1230 C   0  0  0  0  0  2  0  0  0  0  0  0
  182.2350  177.7480  139.6530 C   0  0  0  0  0  2  0  0  0  0  0  0
  183.1780  179.9830  138.8990 C   0  0  0  0  0  2  0  0  0  0  0  0
  180.0440  177.4020  138.8440 O   0  0  0  0  0  0  0  0  0  0  0  0
  189.2310  176.7160  141.9160 C   0  0  0  0  0  2  0  0  0  0  0  0
  190.7420  176.8340  142.0210 C   0  0  0  0  0  2  0  0  0  0  0  0
  191.8340  178.9970  144.0330 C   0  0  0  0  0  1  0  0  0  0  0  0
  191.1620  176.7270  143.4110 N   0  0  0  0  0  0  0  0  0  0  0  0
  190.8880  177.8460  144.3250 C   0  0  1  0  0  3  0  0  0  0  0  0
  191.5730  176.2940  146.1460 C   0  0  0  0  0  3  0  0  0  0  0  0
  192.0320  175.3160  145.1500 C   0  0  0  0  0  3  0  0  0  0  0  0
  191.8200  175.5310  143.8540 C   0  0  0  0  0  3  0  0  0  0  0  0
  191.0230  177.4510  145.7730 C   0  0  0  0  0  3  0  0  0  0  0  0
  1 10  2  0  0  0  0
  2  6  1  0  0  0  0
  3  8  2  0  0  0  0
  4 17  1  0  0  0  0
  6  5  2  0  0  0  0
  7 13  1  0  0  0  0
  8  2  1  0  0  0  0
  8  1  1  0  0  0  0
  9  4  1  0  0  0  0
  9 16  1  0  0  0  0
 10  5  1  0  0  0  0
 11  3  1  0  0  0  0
 11 18  1  0  0  0  0
 12  1  1  0  0  0  0
 13  2  2  0  0  0  0
 14 15  1  0  0  0  0
 14  4  2  0  0  0  0
 15 11  2  0  0  0  0
 16 26  1  6  0  0  0
 16  7  1  0  0  0  0
 17  7  1  0  0  0  0
 17  3  1  0  0  0  0
 18 12  2  0  0  0  0
 19 25  2  0  0  0  0
 19 23  1  0  0  0  0
 20 22  1  0  0  0  0
 20 19  1  0  0  0  0
 21 15  1  6  0  0  0
 22 24  1  0  0  0  0
 23 21  1  0  0  0  0
 24 21  1  0  0  0  0
 26 27  1  0  0  0  0
 27 29  1  0  0  0  0
 29 33  1  0  0  0  0
 29 30  1  0  0  0  0
 30 28  1  6  0  0  0
 30 34  1  0  0  0  0
 32 31  1  0  0  0  0
 33 32  2  0  0  0  0
 34 31  2  0  0  0  0
M  END
>  <MODEL>
2

>  <REMARK>
 VINA RESULT:     -10.0      2.992      5.369
  Name = 
  4 active torsions:
  status: ('A' for Active; 'I' for Inactive)
    1  A    between atoms: C_3  and  N_13
    2  A    between atoms: C_3  and  C_17
    3  A    between atoms: C_12  and  C_28
    4  A    between atoms: C_17  and  C_29
                            x       y       z     vdW  Elec       q    Type
                         _______ _______ _______ _____ _____    ______ ____

>  <TORSDO>
F 4

$$$$
=
 OpenBabel10262419103D

 34 40  0  0  1  0  0  0  0  0999 V2000
  186.8710  177.8700  144.9230 C   0  0  0  0  0  0  0  0  0  0  0  0
  189.0970  177.6070  143.9960 C   0  0  0  0  0  0  0  0  0  0  0  0
  187.2300  178.0930  142.5480 C   0  0  0  0  0  0  0  0  0  0  0  0
  187.7190  178.3020  140.2660 C   0  0  0  0  0  0  0  0  0  0  0  0
  188.7220  177.3930  146.3240 C   0  0  0  0  0  3  0  0  0  0  0  0
  189.5680  177.3800  145.2500 N   0  0  0  0  0  0  0  0  0  0  0  0
  189.3820  177.8370  141.6410 N   0  0  0  0  0  0  0  0  0  0  0  0
  187.7270  177.8560  143.8200 C   0  0  0  0  0  0  0  0  0  0  0  0
  188.8880  178.2360  139.3420 C   0  0  0  0  0  2  0  0  0  0  0  0
  187.3880  177.6360  146.1580 N   0  0  0  0  0  0  0  0  0  0  0  0
  185.8750  178.3580  142.3180 C   0  0  0  0  0  0  0  0  0  0  0  0
  185.5030  178.1280  144.7260 C   0  0  0  0  0  3  0  0  0  0  0  0
  189.9430  177.6040  142.8670 C   0  0  0  0  0  3  0  0  0  0  0  0
  186.4180  178.5700  139.9680 N   0  0  0  0  0  0  0  0  0  0  0  0
  185.4770  178.6020  140.9690 C   0  0  0  0  0  0  0  0  0  0  0  0
  190.0450  177.9010  140.3380 C   0  0  2  0  0  3  0  0  0  0  0  0
  188.0920  178.0720  141.5150 N   0  0  0  0  0  0  0  0  0  0  0  0
  185.0060  178.3730  143.4280 C   0  0  0  0  0  3  0  0  0  0  0  0
  181.8170  177.9370  140.1130 C   0  0  0  0  0  0  0  0  0  0  0  0
  181.6480  178.7510  138.8680 C   0  0  0  0  0  2  0  0  0  0  0  0
  184.0560  178.8960  140.5890 C   0  0  2  0  0  3  0  0  0  0  0  0
  182.5230  180.0010  138.9420 C   0  0  0  0  0  2  0  0  0  0  0  0
  183.1980  177.6270  140.6050 C   0  0  0  0  0  2  0  0  0  0  0  0
  183.9730  179.6290  139.2460 C   0  0  0  0  0  2  0  0  0  0  0  0
  180.8430  177.4810  140.6880 O   0  0  0  0  0  0  0  0  0  0  0  0
  190.6480  176.5480  139.9960 C   0  0  0  0  0  2  0  0  0  0  0  0
  191.6800  176.6970  138.8910 C   0  0  0  0  0  2  0  0  0  0  0  0
  193.3840  175.9580  136.3480 C   0  0  0  0  0  1  0  0  0  0  0  0
  191.5230  175.6380  137.9050 N   0  0  0  0  0  0  0  0  0  0  0  0
  192.7250  175.0120  137.3360 C   0  0  1  0  0  3  0  0  0  0  0  0
  191.1740  173.3220  136.3730 C   0  0  0  0  0  3  0  0  0  0  0  0
  190.0210  174.1330  136.7880 C   0  0  0  0  0  3  0  0  0  0  0  0
  190.2020  175.2260  137.5240 C   0  0  0  0  0  3  0  0  0  0  0  0
  192.4210  173.7090  136.6440 C   0  0  0  0  0  3  0  0  0  0  0  0
  1 10  2  0  0  0  0
  2  6  1  0  0  0  0
  3  8  2  0  0  0  0
  4 17  1  0  0  0  0
  6  5  2  0  0  0  0
  7 13  1  0  0  0  0
  8  2  1  0  0  0  0
  8  1  1  0  0  0  0
  9  4  1  0  0  0  0
  9 16  1  0  0  0  0
 10  5  1  0  0  0  0
 11  3  1  0  0  0  0
 11 18  1  0  0  0  0
 12  1  1  0  0  0  0
 13  2  2  0  0  0  0
 14  4  2  0  0  0  0
 14 15  1  0  0  0  0
 15 11  2  0  0  0  0
 16 26  1  6  0  0  0
 16  7  1  0  0  0  0
 17  7  1  0  0  0  0
 17  3  1  0  0  0  0
 18 12  2  0  0  0  0
 19 23  1  0  0  0  0
 19 25  2  0  0  0  0
 20 22  1  0  0  0  0
 20 19  1  0  0  0  0
 21 23  1  0  0  0  0
 21 15  1  6  0  0  0
 22 24  1  0  0  0  0
 24 21  1  0  0  0  0
 27 26  1  0  0  0  0
 29 27  1  0  0  0  0
 30 28  1  6  0  0  0
 30 29  1  0  0  0  0
 31 34  2  0  0  0  0
 31 32  1  0  0  0  0
 32 33  2  0  0  0  0
 33 29  1  0  0  0  0
 34 30  1  0  0  0  0
M  END
>  <MODEL>
3

>  <REMARK>
 VINA RESULT:      -9.6      1.699      2.751
  Name = 
  4 active torsions:
  status: ('A' for Active; 'I' for Inactive)
    1  A    between atoms: C_3  and  N_13
    2  A    between atoms: C_3  and  C_17
    3  A    between atoms: C_12  and  C_28
    4  A    between atoms: C_17  and  C_29
                            x       y       z     vdW  Elec       q    Type
                         _______ _______ _______ _____ _____    ______ ____

>  <TORSDO>
F 4

$$$$
=
 OpenBabel10262419103D

 34 40  0  0  1  0  0  0  0  0999 V2000
  189.4850  177.6090  140.7000 C   0  0  0  0  0  0  0  0  0  0  0  0
  187.3870  178.2920  139.6940 C   0  0  0  0  0  0  0  0  0  0  0  0
  187.5290  177.9290  142.0750 C   0  0  0  0  0  0  0  0  0  0  0  0
  185.5630  178.2920  143.2950 C   0  0  0  0  0  0  0  0  0  0  0  0
  189.3190  177.9720  138.3640 C   0  0  0  0  0  3  0  0  0  0  0  0
  187.9970  178.3000  138.4810 N   0  0  0  0  0  0  0  0  0  0  0  0
  185.4920  178.5870  141.1090 N   0  0  0  0  0  0  0  0  0  0  0  0
  188.1360  177.9390  140.8280 C   0  0  0  0  0  0  0  0  0  0  0  0
  184.1480  178.7100  143.0750 C   0  0  0  0  0  2  0  0  0  0  0  0
  190.0520  177.6300  139.4650 N   0  0  0  0  0  0  0  0  0  0  0  0
  188.2330  177.5980  143.2390 C   0  0  0  0  0  0  0  0  0  0  0  0
  190.2200  177.2670  141.8490 C   0  0  0  0  0  3  0  0  0  0  0  0
  186.0250  178.6280  139.8500 C   0  0  0  0  0  3  0  0  0  0  0  0
  186.1820  177.9850  144.4680 N   0  0  0  0  0  0  0  0  0  0  0  0
  187.5110  177.6330  144.4700 C   0  0  0  0  0  0  0  0  0  0  0  0
  184.1250  178.9050  141.5240 C   0  0  2  0  0  3  0  0  0  0  0  0
  186.2270  178.2570  142.1510 N   0  0  0  0  0  0  0  0  0  0  0  0
  189.5960  177.2620  143.1160 C   0  0  0  0  0  3  0  0  0  0  0  0
  188.1760  177.7490  148.2270 C   0  0  0  0  0  0  0  0  0  0  0  0
  189.6680  177.8780  148.2630 C   0  0  0  0  0  2  0  0  0  0  0  0
  188.1470  177.2980  145.7870 C   0  0  2  0  0  3  0  0  0  0  0  0
  190.2830  177.1210  147.0870 C   0  0  0  0  0  2  0  0  0  0  0  0
  187.4480  178.0160  146.9450 C   0  0  0  0  0  2  0  0  0  0  0  0
  189.6550  177.5690  145.7690 C   0  0  0  0  0  2  0  0  0  0  0  0
  187.5550  177.4880  149.2430 O   0  0  0  0  0  0  0  0  0  0  0  0
  183.1490  177.9250  140.8940 C   0  0  0  0  0  2  0  0  0  0  0  0
  182.1790  178.6620  139.9850 C   0  0  0  0  0  2  0  0  0  0  0  0
  179.6950  177.0080  140.9890 C   0  0  0  0  0  1  0  0  0  0  0  0
  180.9950  179.0650  140.7300 N   0  0  0  0  0  0  0  0  0  0  0  0
  180.4190  178.1320  141.7090 C   0  0  1  0  0  3  0  0  0  0  0  0
  179.0150  180.0500  142.4460 C   0  0  0  0  0  3  0  0  0  0  0  0
  179.4810  180.8410  141.3000 C   0  0  0  0  0  3  0  0  0  0  0  0
  180.4300  180.3640  140.4980 C   0  0  0  0  0  3  0  0  0  0  0  0
  179.4620  178.8100  142.6550 C   0  0  0  0  0  3  0  0  0  0  0  0
  1  8  1  0  0  0  0
  1 12  1  0  0  0  0
  2 13  2  0  0  0  0
  2  8  1  0  0  0  0
  3 17  1  0  0  0  0
  3 11  1  0  0  0  0
  4 14  2  0  0  0  0
  5  6  2  0  0  0  0
  5 10  1  0  0  0  0
  6  2  1  0  0  0  0
  7 16  1  0  0  0  0
  7 17  1  0  0  0  0
  8  3  2  0  0  0  0
  9  4  1  0  0  0  0
 10  1  2  0  0  0  0
 11 15  2  0  0  0  0
 12 18  2  0  0  0  0
 13  7  1  0  0  0  0
 14 15  1  0  0  0  0
 16 26  1  6  0  0  0
 16  9  1  0  0  0  0
 17  4  1  0  0  0  0
 18 11  1  0  0  0  0
 19 20  1  0  0  0  0
 19 25  2  0  0  0  0
 21 15  1  6  0  0  0
 21 23  1  0  0  0  0
 22 20  1  0  0  0  0
 23 19  1  0  0  0  0
 24 21  1  0  0  0  0
 24 22  1  0  0  0  0
 27 29  1  0  0  0  0
 27 26  1  0  0  0  0
 29 30  1  0  0  0  0
 30 28  1  6  0  0  0
 30 34  1  0  0  0  0
 31 34  2  0  0  0  0
 32 31  1  0  0  0  0
 33 29  1  0  0  0  0
 33 32  2  0  0  0  0
M  END
>  <MODEL>
4

>  <REMARK>
 VINA RESULT:      -9.5      3.067      8.248
  Name = 
  4 active torsions:
  status: ('A' for Active; 'I' for Inactive)
    1  A    between atoms: C_3  and  N_13
    2  A    between atoms: C_3  and  C_17
    3  A    between atoms: C_12  and  C_28
    4  A    between atoms: C_17  and  C_29
                            x       y       z     vdW  Elec       q    Type
                         _______ _______ _______ _____ _____    ______ ____

>  <TORSDO>
F 4

$$$$
=
 OpenBabel10262419103D

 34 40  0  0  1  0  0  0  0  0999 V2000
  189.3790  177.7500  140.6030 C   0  0  0  0  0  0  0  0  0  0  0  0
  187.2470  178.4100  139.6530 C   0  0  0  0  0  0  0  0  0  0  0  0
  187.4420  177.9930  142.0210 C   0  0  0  0  0  0  0  0  0  0  0  0
  185.4920  178.2820  143.2860 C   0  0  0  0  0  0  0  0  0  0  0  0
  189.1600  178.1660  138.2800 C   0  0  0  0  0  3  0  0  0  0  0  0
  187.8340  178.4610  138.4290 N   0  0  0  0  0  0  0  0  0  0  0  0
  185.3730  178.6280  141.1100 N   0  0  0  0  0  0  0  0  0  0  0  0
  188.0250  178.0470  140.7640 C   0  0  0  0  0  0  0  0  0  0  0  0
  184.0650  178.6740  143.1030 C   0  0  0  0  0  2  0  0  0  0  0  0
  189.9220  177.8140  139.3590 N   0  0  0  0  0  0  0  0  0  0  0  0
  188.1750  177.6490  143.1640 C   0  0  0  0  0  0  0  0  0  0  0  0
  190.1420  177.3970  141.7300 C   0  0  0  0  0  3  0  0  0  0  0  0
  185.8820  178.7120  139.8430 C   0  0  0  0  0  3  0  0  0  0  0  0
  186.1400  177.9610  144.4390 N   0  0  0  0  0  0  0  0  0  0  0  0
  187.4760  177.6380  144.4080 C   0  0  0  0  0  0  0  0  0  0  0  0
  184.0080  178.9050  141.5570 C   0  0  2  0  0  3  0  0  0  0  0  0
  186.1350  178.2890  142.1300 N   0  0  0  0  0  0  0  0  0  0  0  0
  189.5430  177.3470  143.0070 C   0  0  0  0  0  3  0  0  0  0  0  0
  188.2010  177.6690  148.1560 C   0  0  0  0  0  0  0  0  0  0  0  0
  189.6890  177.8420  148.1710 C   0  0  0  0  0  2  0  0  0  0  0  0
  188.1440  177.2860  145.7050 C   0  0  2  0  0  3  0  0  0  0  0  0
  190.3060  177.1370  146.9640 C   0  0  0  0  0  2  0  0  0  0  0  0
  187.4440  177.9500  146.8940 C   0  0  0  0  0  2  0  0  0  0  0  0
  189.6430  177.6030  145.6690 C   0  0  0  0  0  2  0  0  0  0  0  0
  187.6060  177.3610  149.1740 O   0  0  0  0  0  0  0  0  0  0  0  0
  183.0420  177.9190  140.9210 C   0  0  0  0  0  2  0  0  0  0  0  0
  181.6120  178.4080  141.0790 C   0  0  0  0  0  2  0  0  0  0  0  0
  178.9580  179.9850  140.4570 C   0  0  0  0  0  1  0  0  0  0  0  0
  181.2370  179.2480  139.9510 N   0  0  0  0  0  0  0  0  0  0  0  0
  180.3870  180.4230  140.1910 C   0  0  1  0  0  3  0  0  0  0  0  0
  180.9220  181.0670  137.8480 C   0  0  0  0  0  3  0  0  0  0  0  0
  181.5630  179.7640  137.6280 C   0  0  0  0  0  3  0  0  0  0  0  0
  181.7140  178.9130  138.6390 C   0  0  0  0  0  3  0  0  0  0  0  0
  180.4010  181.3880  139.0330 C   0  0  0  0  0  3  0  0  0  0  0  0
  1  8  1  0  0  0  0
  1 12  1  0  0  0  0
  2 13  2  0  0  0  0
  2  8  1  0  0  0  0
  3 17  1  0  0  0  0
  3 11  1  0  0  0  0
  4 14  2  0  0  0  0
  5  6  2  0  0  0  0
  5 10  1  0  0  0  0
  6  2  1  0  0  0  0
  7 16  1  0  0  0  0
  7 17  1  0  0  0  0
  8  3  2  0  0  0  0
  9  4  1  0  0  0  0
 10  1  2  0  0  0  0
 11 15  2  0  0  0  0
 12 18  2  0  0  0  0
 13  7  1  0  0  0  0
 15 14  1  0  0  0  0
 16 26  1  6  0  0  0
 16  9  1  0  0  0  0
 17  4  1  0  0  0  0
 18 11  1  0  0  0  0
 19 20  1  0  0  0  0
 19 25  2  0  0  0  0
 21 15  1  6  0  0  0
 21 23  1  0  0  0  0
 22 20  1  0  0  0  0
 23 19  1  0  0  0  0
 24 21  1  0  0  0  0
 24 22  1  0  0  0  0
 26 27  1  0  0  0  0
 29 30  1  0  0  0  0
 29 27  1  0  0  0  0
 30 28  1  6  0  0  0
 31 34  2  0  0  0  0
 32 31  1  0  0  0  0
 32 33  2  0  0  0  0
 33 29  1  0  0  0  0
 34 30  1  0  0  0  0
M  END
>  <MODEL>
5

>  <REMARK>
 VINA RESULT:      -9.4      3.124      7.934
  Name = 
  4 active torsions:
  status: ('A' for Active; 'I' for Inactive)
    1  A    between atoms: C_3  and  N_13
    2  A    between atoms: C_3  and  C_17
    3  A    between atoms: C_12  and  C_28
    4  A    between atoms: C_17  and  C_29
                            x       y       z     vdW  Elec       q    Type
                         _______ _______ _______ _____ _____    ______ ____

>  <TORSDO>
F 4

$$$$
=
 OpenBabel10262419103D

 34 40  0  0  1  0  0  0  0  0999 V2000
  188.7310  177.3960  145.3820 C   0  0  0  0  0  0  0  0  0  0  0  0
  190.3080  177.4450  143.5410 C   0  0  0  0  0  0  0  0  0  0  0  0
  187.9530  177.7580  143.1280 C   0  0  0  0  0  0  0  0  0  0  0  0
  187.3320  178.1180  140.8970 C   0  0  0  0  0  0  0  0  0  0  0  0
  191.0510  177.0920  145.7600 C   0  0  0  0  0  3  0  0  0  0  0  0
  191.3150  177.2250  144.4260 N   0  0  0  0  0  0  0  0  0  0  0  0
  189.4720  177.8030  141.3370 N   0  0  0  0  0  0  0  0  0  0  0  0
  188.9910  177.5310  144.0180 C   0  0  0  0  0  0  0  0  0  0  0  0
  187.9560  178.2330  139.5470 C   0  0  0  0  0  2  0  0  0  0  0  0
  189.7700  177.1760  146.2300 N   0  0  0  0  0  0  0  0  0  0  0  0
  186.6220  177.8650  143.5520 C   0  0  0  0  0  0  0  0  0  0  0  0
  187.4060  177.4940  145.8410 C   0  0  0  0  0  3  0  0  0  0  0  0
  190.5460  177.5900  142.1570 C   0  0  0  0  0  3  0  0  0  0  0  0
  186.0190  178.2370  141.2360 N   0  0  0  0  0  0  0  0  0  0  0  0
  185.6360  178.1130  142.5510 C   0  0  0  0  0  0  0  0  0  0  0  0
  189.4640  178.0000  139.8880 C   0  0  2  0  0  3  0  0  0  0  0  0
  188.2500  177.8840  141.8220 N   0  0  0  0  0  0  0  0  0  0  0  0
  186.3530  177.7290  144.9290 C   0  0  0  0  0  3  0  0  0  0  0  0
  181.9110  178.7180  141.9760 C   0  0  0  0  0  0  0  0  0  0  0  0
  181.5900  179.6770  143.0810 C   0  0  0  0  0  2  0  0  0  0  0  0
  184.1770  178.2470  142.8730 C   0  0  2  0  0  3  0  0  0  0  0  0
  182.4510  179.3660  144.3040 C   0  0  0  0  0  2  0  0  0  0  0  0
  183.3430  178.4770  141.6080 C   0  0  0  0  0  2  0  0  0  0  0  0
  183.9310  179.3300  143.9280 C   0  0  0  0  0  2  0  0  0  0  0  0
  181.0160  178.1840  141.3440 O   0  0  0  0  0  0  0  0  0  0  0  0
  189.9650  176.7450  139.1900 C   0  0  0  0  0  2  0  0  0  0  0  0
  191.4080  176.9300  138.7510 C   0  0  0  0  0  2  0  0  0  0  0  0
  193.8680  176.5600  136.8200 C   0  0  0  0  0  1  0  0  0  0  0  0
  191.8460  175.7880  137.9620 N   0  0  0  0  0  0  0  0  0  0  0  0
  193.2870  175.5510  137.7940 C   0  0  1  0  0  3  0  0  0  0  0  0
  192.6330  173.3490  136.8350 C   0  0  0  0  0  3  0  0  0  0  0  0
  191.2230  173.7610  136.8330 C   0  0  0  0  0  3  0  0  0  0  0  0
  190.8620  174.9180  137.3820 C   0  0  0  0  0  3  0  0  0  0  0  0
  193.5860  174.1590  137.2990 C   0  0  0  0  0  3  0  0  0  0  0  0
  1 12  1  0  0  0  0
  1 10  2  0  0  0  0
  2  8  1  0  0  0  0
  2  6  1  0  0  0  0
  3 11  1  0  0  0  0
  3  8  2  0  0  0  0
  4 14  2  0  0  0  0
  4 17  1  0  0  0  0
  5 10  1  0  0  0  0
  6  5  2  0  0  0  0
  7 17  1  0  0  0  0
  7 13  1  0  0  0  0
  8  1  1  0  0  0  0
  9 16  1  0  0  0  0
  9  4  1  0  0  0  0
 11 18  1  0  0  0  0
 13  2  2  0  0  0  0
 14 15  1  0  0  0  0
 15 11  2  0  0  0  0
 16 26  1  6  0  0  0
 16  7  1  0  0  0  0
 17  3  1  0  0  0  0
 18 12  2  0  0  0  0
 19 20  1  0  0  0  0
 20 22  1  0  0  0  0
 21 15  1  6  0  0  0
 21 24  1  0  0  0  0
 23 19  1  0  0  0  0
 23 21  1  0  0  0  0
 24 22  1  0  0  0  0
 25 19  2  0  0  0  0
 27 26  1  0  0  0  0
 29 27  1  0  0  0  0
 30 28  1  6  0  0  0
 30 29  1  0  0  0  0
 31 34  2  0  0  0  0
 32 31  1  0  0  0  0
 32 33  2  0  0  0  0
 33 29  1  0  0  0  0
 34 30  1  0  0  0  0
M  END
>  <MODEL>
6

>  <REMARK>
 VINA RESULT:      -9.3      1.101      1.696
  Name = 
  4 active torsions:
  status: ('A' for Active; 'I' for Inactive)
    1  A    between atoms: C_3  and  N_13
    2  A    between atoms: C_3  and  C_17
    3  A    between atoms: C_12  and  C_28
    4  A    between atoms: C_17  and  C_29
                            x       y       z     vdW  Elec       q    Type
                         _______ _______ _______ _____ _____    ______ ____

>  <TORSDO>
F 4

$$$$
=
 OpenBabel10262419103D

 34 40  0  0  1  0  0  0  0  0999 V2000
  190.1990  177.0920  140.7030 C   0  0  0  0  0  0  0  0  0  0  0  0
  188.2620  177.9280  139.5070 C   0  0  0  0  0  0  0  0  0  0  0  0
  188.2030  177.7070  141.9080 C   0  0  0  0  0  0  0  0  0  0  0  0
  186.2110  178.3560  142.9580 C   0  0  0  0  0  0  0  0  0  0  0  0
  190.2310  177.3190  138.3440 C   0  0  0  0  0  3  0  0  0  0  0  0
  188.9500  177.7930  138.3440 N   0  0  0  0  0  0  0  0  0  0  0  0
  186.3200  178.5150  140.7590 N   0  0  0  0  0  0  0  0  0  0  0  0
  188.8890  177.5720  140.7120 C   0  0  0  0  0  0  0  0  0  0  0  0
  184.8700  178.9080  142.6110 C   0  0  0  0  0  2  0  0  0  0  0  0
  190.8470  176.9730  139.5130 N   0  0  0  0  0  0  0  0  0  0  0  0
  188.7860  177.3790  143.1390 C   0  0  0  0  0  0  0  0  0  0  0  0
  190.8120  176.7490  141.9200 C   0  0  0  0  0  3  0  0  0  0  0  0
  186.9390  178.4180  139.5430 C   0  0  0  0  0  3  0  0  0  0  0  0
  186.7130  178.0610  144.1890 N   0  0  0  0  0  0  0  0  0  0  0  0
  187.9910  177.5700  144.3090 C   0  0  0  0  0  0  0  0  0  0  0  0
  184.9730  179.0030  141.0540 C   0  0  2  0  0  3  0  0  0  0  0  0
  186.9430  178.1760  141.8700 N   0  0  0  0  0  0  0  0  0  0  0  0
  190.1080  176.8920  143.1360 C   0  0  0  0  0  3  0  0  0  0  0  0
  188.2690  177.7220  148.1130 C   0  0  0  0  0  0  0  0  0  0  0  0
  189.7470  177.8780  148.2990 C   0  0  0  0  0  2  0  0  0  0  0  0
  188.4960  177.2550  145.6860 C   0  0  2  0  0  3  0  0  0  0  0  0
  190.4910  177.1250  147.1970 C   0  0  0  0  0  2  0  0  0  0  0  0
  187.6710  177.9680  146.7620 C   0  0  0  0  0  2  0  0  0  0  0  0
  189.9930  177.5530  145.8180 C   0  0  0  0  0  2  0  0  0  0  0  0
  187.5540  177.4560  149.0630 O   0  0  0  0  0  0  0  0  0  0  0  0
  183.9390  178.0940  140.4090 C   0  0  0  0  0  2  0  0  0  0  0  0
  182.6640  178.8700  140.1220 C   0  0  0  0  0  2  0  0  0  0  0  0
  180.7860  178.6450  142.6400 C   0  0  0  0  0  1  0  0  0  0  0  0
  181.4970  178.0380  140.3780 N   0  0  0  0  0  0  0  0  0  0  0  0
  180.3920  178.5890  141.1750 C   0  0  1  0  0  3  0  0  0  0  0  0
  179.1080  176.5820  140.4570 C   0  0  0  0  0  3  0  0  0  0  0  0
  180.3260  176.0010  139.8770 C   0  0  0  0  0  3  0  0  0  0  0  0
  181.4520  176.7090  139.8370 C   0  0  0  0  0  3  0  0  0  0  0  0
  179.1250  177.7850  141.0340 C   0  0  0  0  0  3  0  0  0  0  0  0
  1  8  1  0  0  0  0
  1 12  1  0  0  0  0
  2 13  2  0  0  0  0
  2  8  1  0  0  0  0
  3 11  1  0  0  0  0
  4 14  2  0  0  0  0
  5  6  2  0  0  0  0
  5 10  1  0  0  0  0
  6  2  1  0  0  0  0
  7 16  1  0  0  0  0
  7 17  1  0  0  0  0
  8  3  2  0  0  0  0
  9  4  1  0  0  0  0
 10  1  2  0  0  0  0
 11 15  2  0  0  0  0
 12 18  2  0  0  0  0
 13  7  1  0  0  0  0
 14 15  1  0  0  0  0
 16 26  1  6  0  0  0
 16  9  1  0  0  0  0
 17  3  1  0  0  0  0
 17  4  1  0  0  0  0
 18 11  1  0  0  0  0
 19 20  1  0  0  0  0
 19 25  2  0  0  0  0
 21 15  1  6  0  0  0
 21 24  1  0  0  0  0
 21 23  1  0  0  0  0
 22 20  1  0  0  0  0
 23 19  1  0  0  0  0
 24 22  1  0  0  0  0
 27 29  1  0  0  0  0
 27 26  1  0  0  0  0
 29 30  1  0  0  0  0
 30 28  1  1  0  0  0
 31 34  2  0  0  0  0
 32 31  1  0  0  0  0
 33 32  2  0  0  0  0
 33 29  1  0  0  0  0
 34 30  1  0  0  0  0
M  END
>  <MODEL>
7

>  <REMARK>
 VINA RESULT:      -9.3      2.782      7.840
  Name = 
  4 active torsions:
  status: ('A' for Active; 'I' for Inactive)
    1  A    between atoms: C_3  and  N_13
    2  A    between atoms: C_3  and  C_17
    3  A    between atoms: C_12  and  C_28
    4  A    between atoms: C_17  and  C_29
                            x       y       z     vdW  Elec       q    Type
                         _______ _______ _______ _____ _____    ______ ____

>  <TORSDO>
F 4

$$$$
=
 OpenBabel10262419103D

 34 40  0  0  1  0  0  0  0  0999 V2000
  182.1200  178.7460  140.9740 C   0  0  0  0  0  0  0  0  0  0  0  0
  183.4790  178.8140  142.9820 C   0  0  0  0  0  0  0  0  0  0  0  0
  184.5190  178.5510  140.8210 C   0  0  0  0  0  0  0  0  0  0  0  0
  186.8570  178.3910  140.8120 C   0  0  0  0  0  0  0  0  0  0  0  0
  181.1230  179.0040  143.1090 C   0  0  0  0  0  3  0  0  0  0  0  0
  182.3460  178.9630  143.7160 N   0  0  0  0  0  0  0  0  0  0  0  0
  185.8440  178.6120  142.7600 N   0  0  0  0  0  0  0  0  0  0  0  0
  183.3730  178.7010  141.5860 C   0  0  0  0  0  0  0  0  0  0  0  0
  188.0020  178.4050  141.7670 C   0  0  0  0  0  2  0  0  0  0  0  0
  181.0140  178.8960  141.7510 N   0  0  0  0  0  0  0  0  0  0  0  0
  184.4710  178.4470  139.4260 C   0  0  0  0  0  0  0  0  0  0  0  0
  182.0360  178.6400  139.5750 C   0  0  0  0  0  3  0  0  0  0  0  0
  184.7580  178.7710  143.5770 C   0  0  0  0  0  3  0  0  0  0  0  0
  186.8870  178.2880  139.4540 N   0  0  0  0  0  0  0  0  0  0  0  0
  185.7140  178.3090  138.7380 C   0  0  0  0  0  0  0  0  0  0  0  0
  187.2570  178.5550  143.1340 C   0  0  2  0  0  3  0  0  0  0  0  0
  185.7060  178.5150  141.4540 N   0  0  0  0  0  0  0  0  0  0  0  0
  183.2080  178.4910  138.8020 C   0  0  0  0  0  3  0  0  0  0  0  0
  185.5600  176.6740  135.2920 C   0  0  0  0  0  0  0  0  0  0  0  0
  186.8580  177.1180  134.6920 C   0  0  0  0  0  2  0  0  0  0  0  0
  185.8000  178.1860  137.2450 C   0  0  2  0  0  3  0  0  0  0  0  0
  187.2170  178.5120  135.2040 C   0  0  0  0  0  2  0  0  0  0  0  0
  185.3550  176.8000  136.7710 C   0  0  0  0  0  2  0  0  0  0  0  0
  187.1970  178.5490  136.7310 C   0  0  0  0  0  2  0  0  0  0  0  0
  184.7010  176.1630  134.5940 O   0  0  0  0  0  0  0  0  0  0  0  0
  187.5170  177.3350  144.0020 C   0  0  0  0  0  2  0  0  0  0  0  0
  187.7110  177.7530  145.4500 C   0  0  0  0  0  2  0  0  0  0  0  0
  189.1320  178.1160  148.2370 C   0  0  0  0  0  1  0  0  0  0  0  0
  189.0840  177.5070  145.8670 N   0  0  0  0  0  0  0  0  0  0  0  0
  189.3350  177.0030  147.2240 C   0  0  1  0  0  3  0  0  0  0  0  0
  191.6740  176.6260  146.4610 C   0  0  0  0  0  3  0  0  0  0  0  0
  191.3900  177.3480  145.2130 C   0  0  0  0  0  3  0  0  0  0  0  0
  190.1520  177.7520  144.9390 C   0  0  0  0  0  3  0  0  0  0  0  0
  190.7250  176.4420  147.3810 C   0  0  0  0  0  3  0  0  0  0  0  0
  1  8  1  0  0  0  0
  1 10  2  0  0  0  0
  2 13  2  0  0  0  0
  2  6  1  0  0  0  0
  3 17  1  0  0  0  0
  3  8  2  0  0  0  0
  4 17  1  0  0  0  0
  4  9  1  0  0  0  0
  5  6  2  0  0  0  0
  7 16  1  0  0  0  0
  7 13  1  0  0  0  0
  8  2  1  0  0  0  0
  9 16  1  0  0  0  0
 10  5  1  0  0  0  0
 11  3  1  0  0  0  0
 12  1  1  0  0  0  0
 14  4  2  0  0  0  0
 15 11  2  0  0  0  0
 15 14  1  0  0  0  0
 16 26  1  1  0  0  0
 17  7  1  0  0  0  0
 18 11  1  0  0  0  0
 18 12  2  0  0  0  0
 19 23  1  0  0  0  0
 20 22  1  0  0  0  0
 20 19  1  0  0  0  0
 21 15  1  1  0  0  0
 22 24  1  0  0  0  0
 23 21  1  0  0  0  0
 24 21  1  0  0  0  0
 25 19  2  0  0  0  0
 26 27  1  0  0  0  0
 27 29  1  0  0  0  0
 29 30  1  0  0  0  0
 30 34  1  0  0  0  0
 30 28  1  1  0  0  0
 31 34  2  0  0  0  0
 32 31  1  0  0  0  0
 33 32  2  0  0  0  0
 33 29  1  0  0  0  0
M  END
>  <MODEL>
8

>  <REMARK>
 VINA RESULT:      -9.2      3.344      7.891
  Name = 
  4 active torsions:
  status: ('A' for Active; 'I' for Inactive)
    1  A    between atoms: C_3  and  N_13
    2  A    between atoms: C_3  and  C_17
    3  A    between atoms: C_12  and  C_28
    4  A    between atoms: C_17  and  C_29
                            x       y       z     vdW  Elec       q    Type
                         _______ _______ _______ _____ _____    ______ ____

>  <TORSDO>
F 4

$$$$
=
 OpenBabel10262419103D

 34 40  0  0  1  0  0  0  0  0999 V2000
  189.4440  177.7520  145.4570 C   0  0  0  0  0  0  0  0  0  0  0  0
  187.0870  177.8550  146.0180 C   0  0  0  0  0  0  0  0  0  0  0  0
  187.7910  177.9750  143.7150 C   0  0  0  0  0  0  0  0  0  0  0  0
  186.0850  178.1710  142.1200 C   0  0  0  0  0  0  0  0  0  0  0  0
  188.7260  177.6370  147.7130 C   0  0  0  0  0  3  0  0  0  0  0  0
  187.4180  177.7420  147.3310 N   0  0  0  0  0  0  0  0  0  0  0  0
  185.5060  178.0780  144.2480 N   0  0  0  0  0  0  0  0  0  0  0  0
  188.1110  177.8630  145.0590 C   0  0  0  0  0  0  0  0  0  0  0  0
  184.5980  178.2460  142.0500 C   0  0  0  0  0  2  0  0  0  0  0  0
  189.7270  177.6430  146.7820 N   0  0  0  0  0  0  0  0  0  0  0  0
  188.7730  177.9750  142.7160 C   0  0  0  0  0  0  0  0  0  0  0  0
  190.4550  177.7540  144.4800 C   0  0  0  0  0  3  0  0  0  0  0  0
  185.7470  177.9620  145.5900 C   0  0  0  0  0  3  0  0  0  0  0  0
  186.9830  178.1750  141.0970 N   0  0  0  0  0  0  0  0  0  0  0  0
  188.3280  178.0810  141.3640 C   0  0  0  0  0  0  0  0  0  0  0  0
  184.2170  178.1850  143.5650 C   0  0  2  0  0  3  0  0  0  0  0  0
  186.4940  178.0770  143.3760 N   0  0  0  0  0  0  0  0  0  0  0  0
  190.1210  177.8640  143.1120 C   0  0  0  0  0  3  0  0  0  0  0  0
  189.4980  178.1710  137.7310 C   0  0  0  0  0  0  0  0  0  0  0  0
  190.4920  177.0510  137.7090 C   0  0  0  0  0  2  0  0  0  0  0  0
  189.2770  178.0950  140.2020 C   0  0  2  0  0  3  0  0  0  0  0  0
  191.1960  176.9550  139.0620 C   0  0  0  0  0  2  0  0  0  0  0  0
  188.5350  178.2740  138.8740 C   0  0  0  0  0  2  0  0  0  0  0  0
  190.1770  176.8550  140.1950 C   0  0  0  0  0  2  0  0  0  0  0  0
  189.4340  178.9560  136.8010 O   0  0  0  0  0  0  0  0  0  0  0  0
  183.5160  179.4700  143.9750 C   0  0  0  0  0  2  0  0  0  0  0  0
  182.0710  179.1850  144.3460 C   0  0  0  0  0  2  0  0  0  0  0  0
  178.9360  179.3560  144.1020 C   0  0  0  0  0  1  0  0  0  0  0  0
  181.2070  179.3680  143.1890 N   0  0  0  0  0  0  0  0  0  0  0  0
  179.9760  180.1570  143.3390 C   0  0  1  0  0  3  0  0  0  0  0  0
  179.8270  180.0690  140.8560 C   0  0  0  0  0  3  0  0  0  0  0  0
  180.9310  179.1010  140.8180 C   0  0  0  0  0  3  0  0  0  0  0  0
  181.5840  178.7850  141.9330 C   0  0  0  0  0  3  0  0  0  0  0  0
  179.3980  180.5790  142.0120 C   0  0  0  0  0  3  0  0  0  0  0  0
  1 10  2  0  0  0  0
  2  6  1  0  0  0  0
  3  8  2  0  0  0  0
  4 17  1  0  0  0  0
  6  5  2  0  0  0  0
  7 13  1  0  0  0  0
  8  1  1  0  0  0  0
  8  2  1  0  0  0  0
  9  4  1  0  0  0  0
  9 16  1  0  0  0  0
 10  5  1  0  0  0  0
 11 18  1  0  0  0  0
 11  3  1  0  0  0  0
 12  1  1  0  0  0  0
 13  2  2  0  0  0  0
 14 15  1  0  0  0  0
 14  4  2  0  0  0  0
 15 11  2  0  0  0  0
 16 26  1  1  0  0  0
 16  7  1  0  0  0  0
 17  3  1  0  0  0  0
 17  7  1  0  0  0  0
 18 12  2  0  0  0  0
 19 23  1  0  0  0  0
 20 19  1  0  0  0  0
 20 22  1  0  0  0  0
 21 15  1  1  0  0  0
 22 24  1  0  0  0  0
 23 21  1  0  0  0  0
 24 21  1  0  0  0  0
 25 19  2  0  0  0  0
 26 27  1  0  0  0  0
 29 30  1  0  0  0  0
 29 27  1  0  0  0  0
 30 28  1  6  0  0  0
 31 34  2  0  0  0  0
 32 31  1  0  0  0  0
 32 33  2  0  0  0  0
 33 29  1  0  0  0  0
 34 30  1  0  0  0  0
M  END
>  <MODEL>
9

>  <REMARK>
 VINA RESULT:      -9.2      2.481      7.996
  Name = 
  4 active torsions:
  status: ('A' for Active; 'I' for Inactive)
    1  A    between atoms: C_3  and  N_13
    2  A    between atoms: C_3  and  C_17
    3  A    between atoms: C_12  and  C_28
    4  A    between atoms: C_17  and  C_29
                            x       y       z     vdW  Elec       q    Type
                         _______ _______ _______ _____ _____    ______ ____

>  <TORSDO>
F 4

$$$$
