=
 OpenBabel10262419433D

 25 29  0  0  1  0  0  0  0  0999 V2000
  189.0490  177.1170  143.8100 C   0  0  0  0  0  0  0  0  0  0  0  0
  188.1890  177.4730  144.8540 C   0  0  0  0  0  0  0  0  0  0  0  0
  190.9240  176.8730  145.3130 C   0  0  0  0  0  3  0  0  0  0  0  0
  188.7680  176.8750  142.3700 C   0  0  2  0  0  3  0  0  0  0  0  0
  189.7760  177.5050  139.7460 C   0  0  0  0  0  3  0  0  0  0  0  0
  190.0900  177.2470  146.3780 C   0  0  0  0  0  3  0  0  0  0  0  0
  190.1590  176.5270  141.9020 C   0  0  0  0  0  0  0  0  0  0  0  0
  190.5030  176.6560  140.4840 C   0  0  0  0  0  3  0  0  0  0  0  0
  187.8310  177.9450  147.2590 C   0  0  0  0  0  0  0  0  0  0  0  0
  188.3550  178.0260  148.8090 S   0  0  0  0  0  0  0  0  0  0  0  0
  186.7270  177.7120  144.5910 C   0  0  0  0  0  2  0  0  0  0  0  0
  188.6960  178.3210  140.3640 C   0  0  0  0  0  3  0  0  0  0  0  0
  190.3670  176.8040  144.0400 C   0  0  0  0  0  0  0  0  0  0  0  0
  191.0520  176.4800  142.8410 N   0  0  0  0  0  0  0  0  0  0  0  0
  186.4840  178.3270  146.9640 N   0  0  0  0  0  0  0  0  0  0  0  0
  188.2630  178.0750  141.6110 C   0  0  0  0  0  3  0  0  0  0  0  0
  185.9700  178.2670  145.7700 C   0  0  0  0  0  0  0  0  0  0  0  0
  188.7250  177.5440  146.1580 C   0  0  0  0  0  0  0  0  0  0  0  0
  184.5540  178.6790  145.5640 C   0  0  0  0  0  2  0  0  0  0  0  0
  184.1040  178.3390  144.1560 C   0  0  2  0  0  3  0  0  0  0  0  0
  184.4850  179.4780  143.2280 C   0  0  2  0  0  3  0  0  0  0  0  0
  183.0530  179.3320  143.7090 C   0  0  0  0  0  2  0  0  0  0  0  0
  184.6100  178.9680  141.8300 C   0  0  0  0  0  0  0  0  0  0  0  0
  184.1130  177.7140  141.4960 O   0  0  0  0  0  1  0  0  0  0  0  0
  185.2050  179.6550  140.9590 O   0  0  0  0  0  0  0  0  0  0  0  0
  1 13  2  0  0  0  0
  1  2  1  0  0  0  0
  2 18  2  0  0  0  0
  3  6  2  0  0  0  0
  4 16  1  6  0  0  0
  4  1  1  0  0  0  0
  5 12  1  0  0  0  0
  5  8  2  0  0  0  0
  7  4  1  0  0  0  0
  7 14  2  0  0  0  0
  8  7  1  0  0  0  0
  9 10  2  0  0  0  0
 11  2  1  0  0  0  0
 11 17  1  0  0  0  0
 12 16  2  0  0  0  0
 13  3  1  0  0  0  0
 14 13  1  0  0  0  0
 15  9  1  0  0  0  0
 17 15  2  0  0  0  0
 18  6  1  0  0  0  0
 18  9  1  0  0  0  0
 19 17  1  0  0  0  0
 20 19  1  1  0  0  0
 21 23  1  6  0  0  0
 21 22  1  0  0  0  0
 21 20  1  0  0  0  0
 22 20  1  0  0  0  0
 24 23  1  0  0  0  0
 25 23  2  0  0  0  0
M  END
>  <MODEL>
1

>  <REMARK>
 VINA RESULT:     -10.4      0.000      0.000
  Name = 
  3 active torsions:
  status: ('A' for Active; 'I' for Inactive)
    1  A    between atoms: C_2  and  C_21
    2  A    between atoms: C_6  and  C_15
    3  A    between atoms: C_6  and  C_23
                            x       y       z     vdW  Elec       q    Type
                         _______ _______ _______ _____ _____    ______ ____

>  <TORSDO>
F 3

$$$$
=
 OpenBabel10262419433D

 25 29  0  0  1  0  0  0  0  0999 V2000
  187.7490  177.9920  145.6700 C   0  0  0  0  0  0  0  0  0  0  0  0
  189.0570  177.5380  145.4690 C   0  0  0  0  0  0  0  0  0  0  0  0
  187.8360  177.4840  148.0300 C   0  0  0  0  0  3  0  0  0  0  0  0
  186.8030  178.6520  144.7320 C   0  0  2  0  0  3  0  0  0  0  0  0
  184.0540  178.5600  143.8780 C   0  0  0  0  0  3  0  0  0  0  0  0
  189.1440  177.0030  147.8550 C   0  0  0  0  0  3  0  0  0  0  0  0
  185.6320  178.8500  145.6600 C   0  0  0  0  0  0  0  0  0  0  0  0
  184.2880  179.0370  145.1070 C   0  0  0  0  0  3  0  0  0  0  0  0
  191.1280  176.5240  146.3730 C   0  0  0  0  0  0  0  0  0  0  0  0
  192.0320  175.9430  147.6100 S   0  0  0  0  0  0  0  0  0  0  0  0
  189.7040  177.6480  144.1150 C   0  0  0  0  0  2  0  0  0  0  0  0
  185.1080  177.8230  143.1310 C   0  0  0  0  0  3  0  0  0  0  0  0
  187.1700  177.9860  146.9160 C   0  0  0  0  0  0  0  0  0  0  0  0
  185.8420  178.4830  146.8860 N   0  0  0  0  0  0  0  0  0  0  0  0
  191.6650  176.4870  145.0480 N   0  0  0  0  0  0  0  0  0  0  0  0
  186.3820  177.8070  143.5570 C   0  0  0  0  0  3  0  0  0  0  0  0
  191.0360  176.9510  144.0080 C   0  0  0  0  0  0  0  0  0  0  0  0
  189.7590  177.0300  146.5830 C   0  0  0  0  0  0  0  0  0  0  0  0
  191.6820  176.8750  142.6690 C   0  0  0  0  0  2  0  0  0  0  0  0
  190.9040  177.6970  141.6590 C   0  0  2  0  0  3  0  0  0  0  0  0
  190.2020  176.7590  140.6960 C   0  0  2  0  0  3  0  0  0  0  0  0
  191.4760  177.4690  140.2770 C   0  0  0  0  0  2  0  0  0  0  0  0
  189.0150  177.4430  140.1010 C   0  0  0  0  0  0  0  0  0  0  0  0
  188.4040  178.4940  140.7740 O   0  0  0  0  0  1  0  0  0  0  0  0
  188.5370  177.0410  139.0080 O   0  0  0  0  0  0  0  0  0  0  0  0
  1 13  1  0  0  0  0
  2  1  2  0  0  0  0
  2 18  1  0  0  0  0
  4 16  1  6  0  0  0
  4  7  1  0  0  0  0
  4  1  1  0  0  0  0
  5  8  2  0  0  0  0
  6  3  1  0  0  0  0
  7 14  2  0  0  0  0
  8  7  1  0  0  0  0
  9 18  1  0  0  0  0
  9 10  2  0  0  0  0
 11  2  1  0  0  0  0
 12 16  2  0  0  0  0
 12  5  1  0  0  0  0
 13  3  2  0  0  0  0
 14 13  1  0  0  0  0
 15  9  1  0  0  0  0
 17 11  1  0  0  0  0
 17 15  2  0  0  0  0
 18  6  2  0  0  0  0
 19 17  1  0  0  0  0
 20 19  1  1  0  0  0
 21 23  1  6  0  0  0
 21 20  1  0  0  0  0
 22 21  1  0  0  0  0
 22 20  1  0  0  0  0
 23 24  1  0  0  0  0
 25 23  2  0  0  0  0
M  END
>  <MODEL>
2

>  <REMARK>
 VINA RESULT:     -10.3      1.794      5.345
  Name = 
  3 active torsions:
  status: ('A' for Active; 'I' for Inactive)
    1  A    between atoms: C_2  and  C_21
    2  A    between atoms: C_6  and  C_15
    3  A    between atoms: C_6  and  C_23
                            x       y       z     vdW  Elec       q    Type
                         _______ _______ _______ _____ _____    ______ ____

>  <TORSDO>
F 3

$$$$
=
 OpenBabel10262419433D

 25 29  0  0  1  0  0  0  0  0999 V2000
  187.3560  177.7710  143.1310 C   0  0  0  0  0  0  0  0  0  0  0  0
  188.7120  177.4320  143.0660 C   0  0  0  0  0  0  0  0  0  0  0  0
  187.3280  178.4880  140.8250 C   0  0  0  0  0  3  0  0  0  0  0  0
  186.3680  177.5840  144.2260 C   0  0  2  0  0  3  0  0  0  0  0  0
  184.2930  178.9900  145.6460 C   0  0  0  0  0  3  0  0  0  0  0  0
  188.6940  178.1760  140.7350 C   0  0  0  0  0  3  0  0  0  0  0  0
  185.1480  178.1690  143.5610 C   0  0  0  0  0  0  0  0  0  0  0  0
  184.0290  178.6430  144.3800 C   0  0  0  0  0  3  0  0  0  0  0  0
  190.8240  177.3170  141.7780 C   0  0  0  0  0  0  0  0  0  0  0  0
  191.6870  177.5030  140.3970 S   0  0  0  0  0  0  0  0  0  0  0  0
  189.4000  176.8040  144.2480 C   0  0  0  0  0  2  0  0  0  0  0  0
  185.6820  178.9430  146.1760 C   0  0  0  0  0  3  0  0  0  0  0  0
  186.6840  178.2600  142.0370 C   0  0  0  0  0  0  0  0  0  0  0  0
  185.3250  178.5410  142.3310 N   0  0  0  0  0  0  0  0  0  0  0  0
  191.4980  176.8750  142.9590 N   0  0  0  0  0  0  0  0  0  0  0  0
  186.6710  178.3450  145.4910 C   0  0  0  0  0  3  0  0  0  0  0  0
  190.8930  176.6690  144.0920 C   0  0  0  0  0  0  0  0  0  0  0  0
  189.3890  177.6460  141.8450 C   0  0  0  0  0  0  0  0  0  0  0  0
  191.6800  176.2000  145.2660 C   0  0  0  0  0  2  0  0  0  0  0  0
  190.7960  176.1140  146.4960 C   0  0  2  0  0  3  0  0  0  0  0  0
  190.6350  177.5030  147.0850 C   0  0  2  0  0  3  0  0  0  0  0  0
  191.5930  176.5120  147.7190 C   0  0  0  0  0  2  0  0  0  0  0  0
  189.3710  177.5700  147.8770 C   0  0  0  0  0  0  0  0  0  0  0  0
  188.4340  176.5470  147.7880 O   0  0  0  0  0  0  0  0  0  0  0  0
  189.1290  178.5750  148.5960 O   0  0  0  0  0  1  0  0  0  0  0  0
  1  4  1  0  0  0  0
  2  1  1  0  0  0  0
  2 11  1  0  0  0  0
  3 13  1  0  0  0  0
  4 16  1  1  0  0  0
  5 12  1  0  0  0  0
  6  3  2  0  0  0  0
  6 18  1  0  0  0  0
  7  4  1  0  0  0  0
  7  8  1  0  0  0  0
  8  5  2  0  0  0  0
  9 18  1  0  0  0  0
  9 15  1  0  0  0  0
 10  9  2  0  0  0  0
 13 14  1  0  0  0  0
 13  1  2  0  0  0  0
 14  7  2  0  0  0  0
 15 17  2  0  0  0  0
 16 12  2  0  0  0  0
 17 11  1  0  0  0  0
 17 19  1  0  0  0  0
 18  2  2  0  0  0  0
 20 19  1  6  0  0  0
 20 21  1  0  0  0  0
 20 22  1  0  0  0  0
 21 22  1  0  0  0  0
 21 23  1  1  0  0  0
 23 25  1  0  0  0  0
 24 23  2  0  0  0  0
M  END
>  <MODEL>
3

>  <REMARK>
 VINA RESULT:      -9.5      3.257      6.471
  Name = 
  3 active torsions:
  status: ('A' for Active; 'I' for Inactive)
    1  A    between atoms: C_2  and  C_21
    2  A    between atoms: C_6  and  C_15
    3  A    between atoms: C_6  and  C_23
                            x       y       z     vdW  Elec       q    Type
                         _______ _______ _______ _____ _____    ______ ____

>  <TORSDO>
F 3

$$$$
=
 OpenBabel10262419433D

 25 29  0  0  1  0  0  0  0  0999 V2000
  186.6220  178.4670  141.9370 C   0  0  0  0  0  0  0  0  0  0  0  0
  185.7890  178.5500  143.0580 C   0  0  0  0  0  0  0  0  0  0  0  0
  184.7590  178.7140  140.4180 C   0  0  0  0  0  3  0  0  0  0  0  0
  188.1040  178.3960  141.8400 C   0  0  2  0  0  3  0  0  0  0  0  0
  190.2020  176.9590  140.4880 C   0  0  0  0  0  3  0  0  0  0  0  0
  183.8960  178.7800  141.5240 C   0  0  0  0  0  3  0  0  0  0  0  0
  188.2520  178.3480  140.3410 C   0  0  0  0  0  0  0  0  0  0  0  0
  189.4790  177.8100  139.7480 C   0  0  0  0  0  3  0  0  0  0  0  0
  183.5150  178.7620  144.0180 C   0  0  0  0  0  0  0  0  0  0  0  0
  181.8970  178.9670  143.8670 S   0  0  0  0  0  0  0  0  0  0  0  0
  186.3720  178.5350  144.4450 C   0  0  0  0  0  2  0  0  0  0  0  0
  189.7410  176.5410  141.8390 C   0  0  0  0  0  3  0  0  0  0  0  0
  186.1220  178.5720  140.6610 C   0  0  0  0  0  0  0  0  0  0  0  0
  187.1410  178.4540  139.6810 N   0  0  0  0  0  0  0  0  0  0  0  0
  184.0710  178.5820  145.3240 N   0  0  0  0  0  0  0  0  0  0  0  0
  188.7210  177.1650  142.4520 C   0  0  0  0  0  3  0  0  0  0  0  0
  185.3450  178.4420  145.5450 C   0  0  0  0  0  0  0  0  0  0  0  0
  184.4020  178.7020  142.8410 C   0  0  0  0  0  0  0  0  0  0  0  0
  185.8290  178.2680  146.9430 C   0  0  0  0  0  2  0  0  0  0  0  0
  187.3280  178.4880  147.0140 C   0  0  2  0  0  3  0  0  0  0  0  0
  188.0060  177.1680  147.3270 C   0  0  2  0  0  3  0  0  0  0  0  0
  187.8130  178.2040  148.4190 C   0  0  0  0  0  2  0  0  0  0  0  0
  189.4170  177.1970  146.8380 C   0  0  0  0  0  0  0  0  0  0  0  0
  189.7670  178.0040  145.7620 O   0  0  0  0  0  0  0  0  0  0  0  0
  190.2850  176.4580  147.3710 O   0  0  0  0  0  1  0  0  0  0  0  0
  1  2  1  0  0  0  0
  2 11  1  0  0  0  0
  3 13  1  0  0  0  0
  3  6  2  0  0  0  0
  4  1  1  0  0  0  0
  4 16  1  1  0  0  0
  5 12  1  0  0  0  0
  6 18  1  0  0  0  0
  7  4  1  0  0  0  0
  8  7  1  0  0  0  0
  8  5  2  0  0  0  0
  9 15  1  0  0  0  0
 10  9  2  0  0  0  0
 11 17  1  0  0  0  0
 12 16  2  0  0  0  0
 13  1  2  0  0  0  0
 14  7  2  0  0  0  0
 14 13  1  0  0  0  0
 15 17  2  0  0  0  0
 17 19  1  0  0  0  0
 18  2  2  0  0  0  0
 18  9  1  0  0  0  0
 20 19  1  1  0  0  0
 20 21  1  0  0  0  0
 20 22  1  0  0  0  0
 21 23  1  6  0  0  0
 21 22  1  0  0  0  0
 23 25  1  0  0  0  0
 24 23  2  0  0  0  0
M  END
>  <MODEL>
4

>  <REMARK>
 VINA RESULT:      -9.5      3.137      5.125
  Name = 
  3 active torsions:
  status: ('A' for Active; 'I' for Inactive)
    1  A    between atoms: C_2  and  C_21
    2  A    between atoms: C_6  and  C_15
    3  A    between atoms: C_6  and  C_23
                            x       y       z     vdW  Elec       q    Type
                         _______ _______ _______ _____ _____    ______ ____

>  <TORSDO>
F 3

$$$$
=
 OpenBabel10262419433D

 25 29  0  0  1  0  0  0  0  0999 V2000
  186.8760  178.2070  144.1200 C   0  0  0  0  0  0  0  0  0  0  0  0
  188.0610  177.8140  143.4880 C   0  0  0  0  0  0  0  0  0  0  0  0
  187.6770  177.4790  146.2790 C   0  0  0  0  0  3  0  0  0  0  0  0
  185.6910  178.9250  143.5830 C   0  0  2  0  0  3  0  0  0  0  0  0
  182.8110  178.8340  143.5960 C   0  0  0  0  0  3  0  0  0  0  0  0
  188.8680  177.0560  145.6700 C   0  0  0  0  0  3  0  0  0  0  0  0
  184.8570  178.9990  144.8370 C   0  0  0  0  0  0  0  0  0  0  0  0
  183.4090  179.1980  144.7380 C   0  0  0  0  0  3  0  0  0  0  0  0
  190.3080  176.7800  143.6160 C   0  0  0  0  0  0  0  0  0  0  0  0
  191.5450  176.1100  144.4580 S   0  0  0  0  0  0  0  0  0  0  0  0
  188.2650  178.0720  142.0190 C   0  0  0  0  0  2  0  0  0  0  0  0
  183.5880  178.2030  142.4960 C   0  0  0  0  0  3  0  0  0  0  0  0
  186.7040  178.0660  145.4750 C   0  0  0  0  0  0  0  0  0  0  0  0
  185.4300  178.5230  145.8990 N   0  0  0  0  0  0  0  0  0  0  0  0
  190.4170  176.8850  142.1940 N   0  0  0  0  0  0  0  0  0  0  0  0
  184.9320  178.1850  142.5120 C   0  0  0  0  0  3  0  0  0  0  0  0
  189.5010  177.4280  141.4460 C   0  0  0  0  0  0  0  0  0  0  0  0
  189.0680  177.2220  144.2800 C   0  0  0  0  0  0  0  0  0  0  0  0
  189.7100  177.4990  139.9730 C   0  0  0  0  0  2  0  0  0  0  0  0
  188.6180  178.3290  139.3240 C   0  0  2  0  0  3  0  0  0  0  0  0
  188.0030  177.5330  138.1880 C   0  0  2  0  0  3  0  0  0  0  0  0
  189.0020  178.6360  137.8930 C   0  0  0  0  0  2  0  0  0  0  0  0
  186.6140  178.0170  137.9290 C   0  0  0  0  0  0  0  0  0  0  0  0
  185.9240  178.7190  138.9090 O   0  0  0  0  0  1  0  0  0  0  0  0
  186.0480  177.7530  136.8360 O   0  0  0  0  0  0  0  0  0  0  0  0
  1 13  1  0  0  0  0
  2  1  2  0  0  0  0
  2 18  1  0  0  0  0
  4 16  1  6  0  0  0
  4  1  1  0  0  0  0
  4  7  1  0  0  0  0
  5  8  2  0  0  0  0
  6  3  1  0  0  0  0
  7 14  2  0  0  0  0
  8  7  1  0  0  0  0
  9 18  1  0  0  0  0
  9 10  2  0  0  0  0
 11  2  1  0  0  0  0
 12 16  2  0  0  0  0
 12  5  1  0  0  0  0
 13 14  1  0  0  0  0
 13  3  2  0  0  0  0
 15  9  1  0  0  0  0
 17 11  1  0  0  0  0
 17 15  2  0  0  0  0
 18  6  2  0  0  0  0
 19 17  1  0  0  0  0
 20 19  1  1  0  0  0
 21 23  1  6  0  0  0
 21 20  1  0  0  0  0
 22 21  1  0  0  0  0
 22 20  1  0  0  0  0
 23 24  1  0  0  0  0
 25 23  2  0  0  0  0
M  END
>  <MODEL>
5

>  <REMARK>
 VINA RESULT:      -9.4      1.991      5.403
  Name = 
  3 active torsions:
  status: ('A' for Active; 'I' for Inactive)
    1  A    between atoms: C_2  and  C_21
    2  A    between atoms: C_6  and  C_15
    3  A    between atoms: C_6  and  C_23
                            x       y       z     vdW  Elec       q    Type
                         _______ _______ _______ _____ _____    ______ ____

>  <TORSDO>
F 3

$$$$
=
 OpenBabel10262419433D

 25 29  0  0  1  0  0  0  0  0999 V2000
  185.3210  178.5660  143.9450 C   0  0  0  0  0  0  0  0  0  0  0  0
  186.6550  178.1890  143.7560 C   0  0  0  0  0  0  0  0  0  0  0  0
  185.4650  178.2200  146.3320 C   0  0  0  0  0  3  0  0  0  0  0  0
  184.3230  179.0990  142.9800 C   0  0  2  0  0  3  0  0  0  0  0  0
  181.5790  178.7660  142.1710 C   0  0  0  0  0  3  0  0  0  0  0  0
  186.8000  177.8170  146.1700 C   0  0  0  0  0  3  0  0  0  0  0  0
  183.1500  179.2770  143.9100 C   0  0  0  0  0  0  0  0  0  0  0  0
  181.7920  179.3370  143.3640 C   0  0  0  0  0  3  0  0  0  0  0  0
  188.7980  177.3780  144.6940 C   0  0  0  0  0  0  0  0  0  0  0  0
  189.7510  176.9410  145.9540 S   0  0  0  0  0  0  0  0  0  0  0  0
  187.2800  178.2550  142.3880 C   0  0  0  0  0  2  0  0  0  0  0  0
  182.6740  178.0550  141.4590 C   0  0  0  0  0  3  0  0  0  0  0  0
  184.7560  178.6030  145.1970 C   0  0  0  0  0  0  0  0  0  0  0  0
  183.3970  179.0060  145.1540 N   0  0  0  0  0  0  0  0  0  0  0  0
  189.3250  177.2910  143.3670 N   0  0  0  0  0  0  0  0  0  0  0  0
  183.9500  178.1530  141.8680 C   0  0  0  0  0  3  0  0  0  0  0  0
  188.6550  177.6430  142.3090 C   0  0  0  0  0  0  0  0  0  0  0  0
  187.4010  177.8030  144.8910 C   0  0  0  0  0  0  0  0  0  0  0  0
  189.2930  177.5240  140.9680 C   0  0  0  0  0  2  0  0  0  0  0  0
  188.5250  178.3380  139.9440 C   0  0  2  0  0  3  0  0  0  0  0  0
  188.1580  177.4420  138.7760 C   0  0  2  0  0  3  0  0  0  0  0  0
  189.3210  178.4100  138.6590 C   0  0  0  0  0  2  0  0  0  0  0  0
  186.9600  177.9930  138.0750 C   0  0  0  0  0  0  0  0  0  0  0  0
  186.0040  178.7110  138.7830 O   0  0  0  0  0  1  0  0  0  0  0  0
  186.7910  177.7730  136.8470 O   0  0  0  0  0  0  0  0  0  0  0  0
  1 13  1  0  0  0  0
  2  1  2  0  0  0  0
  2 18  1  0  0  0  0
  4 16  1  6  0  0  0
  4  7  1  0  0  0  0
  4  1  1  0  0  0  0
  5  8  2  0  0  0  0
  6  3  1  0  0  0  0
  7 14  2  0  0  0  0
  8  7  1  0  0  0  0
  9 18  1  0  0  0  0
  9 10  2  0  0  0  0
 11  2  1  0  0  0  0
 12 16  2  0  0  0  0
 12  5  1  0  0  0  0
 13  3  2  0  0  0  0
 14 13  1  0  0  0  0
 15  9  1  0  0  0  0
 17 11  1  0  0  0  0
 17 15  2  0  0  0  0
 18  6  2  0  0  0  0
 19 17  1  0  0  0  0
 20 19  1  1  0  0  0
 21 23  1  6  0  0  0
 21 20  1  0  0  0  0
 22 21  1  0  0  0  0
 22 20  1  0  0  0  0
 23 24  1  0  0  0  0
 25 23  2  0  0  0  0
M  END
>  <MODEL>
6

>  <REMARK>
 VINA RESULT:      -9.4      1.934      5.617
  Name = 
  3 active torsions:
  status: ('A' for Active; 'I' for Inactive)
    1  A    between atoms: C_2  and  C_21
    2  A    between atoms: C_6  and  C_15
    3  A    between atoms: C_6  and  C_23
                            x       y       z     vdW  Elec       q    Type
                         _______ _______ _______ _____ _____    ______ ____

>  <TORSDO>
F 3

$$$$
=
 OpenBabel10262419433D

 25 29  0  0  1  0  0  0  0  0999 V2000
  187.7790  177.5350  145.3990 C   0  0  0  0  0  0  0  0  0  0  0  0
  186.9520  177.9650  144.3560 C   0  0  0  0  0  0  0  0  0  0  0  0
  186.1500  178.1560  147.0720 C   0  0  0  0  0  3  0  0  0  0  0  0
  189.0930  176.8390  145.3640 C   0  0  2  0  0  3  0  0  0  0  0  0
  191.7100  176.9170  146.5640 C   0  0  0  0  0  3  0  0  0  0  0  0
  185.3070  178.6150  146.0470 C   0  0  0  0  0  3  0  0  0  0  0  0
  189.3390  176.6990  146.8450 C   0  0  0  0  0  0  0  0  0  0  0  0
  190.7030  176.4980  147.3400 C   0  0  0  0  0  3  0  0  0  0  0  0
  184.8340  179.0020  143.5990 C   0  0  0  0  0  0  0  0  0  0  0  0
  183.3500  179.6330  143.8880 S   0  0  0  0  0  0  0  0  0  0  0  0
  187.3740  177.7820  142.9230 C   0  0  0  0  0  2  0  0  0  0  0  0
  191.4440  177.6060  145.2730 C   0  0  0  0  0  3  0  0  0  0  0  0
  187.3770  177.6070  146.7110 C   0  0  0  0  0  0  0  0  0  0  0  0
  188.3720  177.1230  147.5980 N   0  0  0  0  0  0  0  0  0  0  0  0
  185.3210  178.9690  142.2540 N   0  0  0  0  0  0  0  0  0  0  0  0
  190.2120  177.6300  144.7360 C   0  0  0  0  0  3  0  0  0  0  0  0
  186.4720  178.4600  141.9240 C   0  0  0  0  0  0  0  0  0  0  0  0
  185.6980  178.5200  144.6920 C   0  0  0  0  0  0  0  0  0  0  0  0
  186.8880  178.4640  140.4930 C   0  0  0  0  0  2  0  0  0  0  0  0
  187.9820  177.4400  140.2590 C   0  0  2  0  0  3  0  0  0  0  0  0
  189.2970  178.1650  140.0420 C   0  0  2  0  0  3  0  0  0  0  0  0
  188.5310  177.6020  138.8580 C   0  0  0  0  0  2  0  0  0  0  0  0
  190.4340  177.2620  140.3920 C   0  0  0  0  0  0  0  0  0  0  0  0
  190.2660  176.2640  141.3440 O   0  0  0  0  0  1  0  0  0  0  0  0
  191.5610  177.4290  139.8570 O   0  0  0  0  0  0  0  0  0  0  0  0
  1 13  1  0  0  0  0
  2 18  1  0  0  0  0
  2  1  2  0  0  0  0
  4 16  1  1  0  0  0
  4  1  1  0  0  0  0
  4  7  1  0  0  0  0
  5  8  2  0  0  0  0
  6  3  1  0  0  0  0
  7  8  1  0  0  0  0
  7 14  2  0  0  0  0
  9 10  2  0  0  0  0
  9 18  1  0  0  0  0
 11  2  1  0  0  0  0
 12  5  1  0  0  0  0
 13  3  2  0  0  0  0
 13 14  1  0  0  0  0
 15  9  1  0  0  0  0
 16 12  2  0  0  0  0
 17 15  2  0  0  0  0
 17 11  1  0  0  0  0
 18  6  2  0  0  0  0
 19 17  1  0  0  0  0
 20 19  1  6  0  0  0
 21 20  1  0  0  0  0
 21 23  1  1  0  0  0
 22 21  1  0  0  0  0
 22 20  1  0  0  0  0
 23 24  1  0  0  0  0
 25 23  2  0  0  0  0
M  END
>  <MODEL>
7

>  <REMARK>
 VINA RESULT:      -9.4      2.776      5.263
  Name = 
  3 active torsions:
  status: ('A' for Active; 'I' for Inactive)
    1  A    between atoms: C_2  and  C_21
    2  A    between atoms: C_6  and  C_15
    3  A    between atoms: C_6  and  C_23
                            x       y       z     vdW  Elec       q    Type
                         _______ _______ _______ _____ _____    ______ ____

>  <TORSDO>
F 3

$$$$
=
 OpenBabel10262419433D

 25 29  0  0  1  0  0  0  0  0999 V2000
  189.6420  177.9150  142.6830 C   0  0  0  0  0  0  0  0  0  0  0  0
  188.5540  178.1630  141.8380 C   0  0  0  0  0  0  0  0  0  0  0  0
  191.0530  177.2690  140.8310 C   0  0  0  0  0  3  0  0  0  0  0  0
  189.7970  178.1370  144.1440 C   0  0  2  0  0  3  0  0  0  0  0  0
  190.7600  176.8350  146.5260 C   0  0  0  0  0  3  0  0  0  0  0  0
  189.9730  177.4900  139.9610 C   0  0  0  0  0  3  0  0  0  0  0  0
  191.2150  177.6560  144.3190 C   0  0  0  0  0  0  0  0  0  0  0  0
  191.6830  177.2360  145.6420 C   0  0  0  0  0  3  0  0  0  0  0  0
  187.5770  178.1710  139.5620 C   0  0  0  0  0  0  0  0  0  0  0  0
  187.6900  177.9670  137.9400 S   0  0  0  0  0  0  0  0  0  0  0  0
  187.2660  178.7080  142.3920 C   0  0  0  0  0  2  0  0  0  0  0  0
  189.3220  176.7710  146.1520 C   0  0  0  0  0  3  0  0  0  0  0  0
  190.8570  177.5050  142.1890 C   0  0  0  0  0  0  0  0  0  0  0  0
  191.8100  177.3090  143.2200 N   0  0  0  0  0  0  0  0  0  0  0  0
  186.3130  178.5320  140.1270 N   0  0  0  0  0  0  0  0  0  0  0  0
  188.8730  177.3210  145.0120 C   0  0  0  0  0  3  0  0  0  0  0  0
  186.1340  178.7450  141.3980 C   0  0  0  0  0  0  0  0  0  0  0  0
  188.7270  177.9390  140.4550 C   0  0  0  0  0  0  0  0  0  0  0  0
  184.7800  179.1250  141.8900 C   0  0  0  0  0  2  0  0  0  0  0  0
  184.8560  179.6010  143.3280 C   0  0  2  0  0  3  0  0  0  0  0  0
  184.4060  178.4780  144.2440 C   0  0  2  0  0  3  0  0  0  0  0  0
  183.4660  179.6260  143.9250 C   0  0  0  0  0  2  0  0  0  0  0  0
  185.0010  178.6660  145.6010 C   0  0  0  0  0  0  0  0  0  0  0  0
  184.2560  178.3730  146.7370 O   0  0  0  0  0  1  0  0  0  0  0  0
  186.1640  179.1330  145.7220 O   0  0  0  0  0  0  0  0  0  0  0  0
  1  4  1  0  0  0  0
  2 11  1  0  0  0  0
  2  1  2  0  0  0  0
  3 13  2  0  0  0  0
  4  7  1  0  0  0  0
  4 16  1  1  0  0  0
  6 18  2  0  0  0  0
  6  3  1  0  0  0  0
  7  8  1  0  0  0  0
  8  5  2  0  0  0  0
  9 15  1  0  0  0  0
  9 18  1  0  0  0  0
 10  9  2  0  0  0  0
 12  5  1  0  0  0  0
 13  1  1  0  0  0  0
 13 14  1  0  0  0  0
 14  7  2  0  0  0  0
 15 17  2  0  0  0  0
 16 12  2  0  0  0  0
 17 19  1  0  0  0  0
 17 11  1  0  0  0  0
 18  2  1  0  0  0  0
 20 19  1  6  0  0  0
 20 22  1  0  0  0  0
 20 21  1  0  0  0  0
 21 23  1  1  0  0  0
 22 21  1  0  0  0  0
 23 25  2  0  0  0  0
 23 24  1  0  0  0  0
M  END
>  <MODEL>
8

>  <REMARK>
 VINA RESULT:      -9.4      3.057      4.840
  Name = 
  3 active torsions:
  status: ('A' for Active; 'I' for Inactive)
    1  A    between atoms: C_2  and  C_21
    2  A    between atoms: C_6  and  C_15
    3  A    between atoms: C_6  and  C_23
                            x       y       z     vdW  Elec       q    Type
                         _______ _______ _______ _____ _____    ______ ____

>  <TORSDO>
F 3

$$$$
=
 OpenBabel10262419433D

 25 29  0  0  1  0  0  0  0  0999 V2000
  186.7090  177.8520  143.9500 C   0  0  0  0  0  0  0  0  0  0  0  0
  186.6540  178.0600  142.5670 C   0  0  0  0  0  0  0  0  0  0  0  0
  184.4440  178.6340  144.2530 C   0  0  0  0  0  3  0  0  0  0  0  0
  187.7720  177.2400  144.7900 C   0  0  2  0  0  3  0  0  0  0  0  0
  189.2220  177.6650  147.2430 C   0  0  0  0  0  3  0  0  0  0  0  0
  184.3650  178.8720  142.8710 C   0  0  0  0  0  3  0  0  0  0  0  0
  187.1140  177.3530  146.1420 C   0  0  0  0  0  0  0  0  0  0  0  0
  187.9330  177.3160  147.3560 C   0  0  0  0  0  3  0  0  0  0  0  0
  185.4050  178.8340  140.5730 C   0  0  0  0  0  0  0  0  0  0  0  0
  184.0540  179.4130  139.8490 S   0  0  0  0  0  0  0  0  0  0  0  0
  187.8150  177.6770  141.6900 C   0  0  0  0  0  2  0  0  0  0  0  0
  189.7770  178.1220  145.9410 C   0  0  0  0  0  3  0  0  0  0  0  0
  185.6290  178.1080  144.7590 C   0  0  0  0  0  0  0  0  0  0  0  0
  185.9090  177.8320  146.1210 N   0  0  0  0  0  0  0  0  0  0  0  0
  186.5760  178.6160  139.7800 N   0  0  0  0  0  0  0  0  0  0  0  0
  189.0810  177.9860  144.8000 C   0  0  0  0  0  3  0  0  0  0  0  0
  187.6830  178.1310  140.2590 C   0  0  0  0  0  0  0  0  0  0  0  0
  185.4610  178.5860  142.0250 C   0  0  0  0  0  0  0  0  0  0  0  0
  188.8470  177.9320  139.3510 C   0  0  0  0  0  2  0  0  0  0  0  0
  189.9640  177.2050  140.0750 C   0  0  2  0  0  3  0  0  0  0  0  0
  191.2890  177.5760  139.4360 C   0  0  2  0  0  3  0  0  0  0  0  0
  190.6380  176.2410  139.1220 C   0  0  0  0  0  2  0  0  0  0  0  0
  192.3940  177.3860  140.4220 C   0  0  0  0  0  0  0  0  0  0  0  0
  193.6960  177.1790  139.9820 O   0  0  0  0  0  0  0  0  0  0  0  0
  192.1430  177.3700  141.6560 O   0  0  0  0  0  1  0  0  0  0  0  0
  1 13  1  0  0  0  0
  1  4  1  0  0  0  0
  2  1  2  0  0  0  0
  3 13  2  0  0  0  0
  4 16  1  1  0  0  0
  4  7  1  0  0  0  0
  5  8  2  0  0  0  0
  6  3  1  0  0  0  0
  7  8  1  0  0  0  0
  9 18  1  0  0  0  0
 10  9  2  0  0  0  0
 11  2  1  0  0  0  0
 12  5  1  0  0  0  0
 13 14  1  0  0  0  0
 14  7  2  0  0  0  0
 15 17  2  0  0  0  0
 15  9  1  0  0  0  0
 16 12  2  0  0  0  0
 17 11  1  0  0  0  0
 18  2  1  0  0  0  0
 18  6  2  0  0  0  0
 19 17  1  0  0  0  0
 20 19  1  6  0  0  0
 21 20  1  0  0  0  0
 21 23  1  1  0  0  0
 22 21  1  0  0  0  0
 22 20  1  0  0  0  0
 23 25  1  0  0  0  0
 24 23  2  0  0  0  0
M  END
>  <MODEL>
9

>  <REMARK>
 VINA RESULT:      -9.3      3.439      6.668
  Name = 
  3 active torsions:
  status: ('A' for Active; 'I' for Inactive)
    1  A    between atoms: C_2  and  C_21
    2  A    between atoms: C_6  and  C_15
    3  A    between atoms: C_6  and  C_23
                            x       y       z     vdW  Elec       q    Type
                         _______ _______ _______ _____ _____    ______ ____

>  <TORSDO>
F 3

$$$$
