=
 OpenBabel10262423313D

 34 39  0  0  1  0  0  0  0  0999 V2000
  185.7150  177.8500  143.9290 C   0  0  0  0  0  0  0  0  0  0  0  0
  182.1880  178.9920  143.8670 C   0  0  0  0  0  3  0  0  0  0  0  0
  183.7890  179.1580  145.5070 N   0  0  0  0  0  0  0  0  0  0  0  0
  188.0720  177.1500  144.0010 C   0  0  0  0  0  0  0  0  0  0  0  0
  186.8550  177.3230  143.2760 C   0  0  0  0  0  3  0  0  0  0  0  0
  187.0100  178.0300  145.9670 C   0  0  0  0  0  0  0  0  0  0  0  0
  186.7950  178.6500  147.2410 N   0  0  0  0  0  0  0  0  0  0  0  0
  188.1670  177.5350  145.3670 C   0  0  0  0  0  3  0  0  0  0  0  0
  184.9970  178.7970  146.0020 C   0  0  0  0  0  0  0  0  0  0  0  0
  185.8760  178.1380  145.2560 C   0  0  0  0  0  0  0  0  0  0  0  0
  185.5940  179.1080  147.2640 N   0  0  0  0  0  0  0  0  0  0  0  0
  181.5290  178.4330  142.6530 C   0  0  0  0  0  2  0  0  0  0  0  0
  182.1070  178.9570  141.3860 C   0  0  0  0  0  0  0  0  0  0  0  0
  183.3860  178.7430  141.0890 C   0  0  0  0  0  3  0  0  0  0  0  0
  183.4690  178.8270  144.2080 C   0  0  0  0  0  0  0  0  0  0  0  0
  184.4150  178.1980  141.9930 C   0  0  0  0  0  3  0  0  0  0  0  0
  184.4780  178.2330  143.3380 C   0  0  0  0  0  0  0  0  0  0  0  0
  181.2410  179.5480  140.4070 N   0  0  0  0  0  0  0  0  0  0  0  0
  180.1710  180.0890  140.7560 O   0  0  0  0  0  0  0  0  0  0  0  0
  181.5890  179.5500  139.0750 O   0  0  0  0  0  0  0  0  0  0  0  0
  189.2630  176.5730  143.3110 C   0  0  0  0  0  2  0  0  0  0  0  0
  191.0410  176.7980  140.1050 C   0  0  0  0  0  3  0  0  0  0  0  0
  188.4040  177.7440  141.3580 C   0  0  0  0  0  3  0  0  0  0  0  0
  189.6690  177.3680  136.7140 C   0  0  2  0  0  3  0  0  0  0  0  0
  190.6620  176.7150  137.6820 C   0  0  0  0  0  2  0  0  0  0  0  0
  190.3510  177.2150  139.0440 C   0  0  0  0  0  0  0  0  0  0  0  0
  188.4060  178.4060  140.0380 C   0  0  0  0  0  3  0  0  0  0  0  0
  189.3050  178.2340  139.0630 C   0  0  0  0  0  0  0  0  0  0  0  0
  189.0120  178.9120  137.4480 S   0  0  0  0  0  0  0  0  0  0  0  0
  189.4610  177.2090  141.9750 C   0  0  0  0  0  0  0  0  0  0  0  0
  190.8580  177.3800  141.4660 C   0  0  0  0  0  2  0  0  0  0  0  0
  188.5570  176.4300  136.3700 C   0  0  0  0  0  0  0  0  0  0  0  0
  188.7990  175.2340  136.0550 O   0  0  0  0  0  0  0  0  0  0  0  0
  187.2130  176.8930  136.4000 N   0  0  0  0  0  1  0  0  0  0  0  0
  1 10  1  0  0  0  0
  2 15  2  0  0  0  0
  3  9  2  0  0  0  0
  4  8  2  0  0  0  0
  5  1  2  0  0  0  0
  5  4  1  0  0  0  0
  6  7  1  0  0  0  0
  7 11  2  0  0  0  0
  8  6  1  0  0  0  0
  9 11  1  0  0  0  0
 10  6  2  0  0  0  0
 10  9  1  0  0  0  0
 12  2  1  0  0  0  0
 13 12  1  0  0  0  0
 14 13  2  0  0  0  0
 14 16  1  0  0  0  0
 15  3  1  0  0  0  0
 16 17  2  0  0  0  0
 17  1  1  0  0  0  0
 17 15  1  0  0  0  0
 18 19  2  0  0  0  0
 18 13  1  0  0  0  0
 20 18  2  0  0  0  0
 21  4  1  0  0  0  0
 22 31  1  0  0  0  0
 23 30  2  0  0  0  0
 24 32  1  1  0  0  0
 24 29  1  0  0  0  0
 24 25  1  0  0  0  0
 25 26  1  0  0  0  0
 26 28  1  0  0  0  0
 26 22  2  0  0  0  0
 27 23  1  0  0  0  0
 28 27  2  0  0  0  0
 29 28  1  0  0  0  0
 30 21  1  0  0  0  0
 31 30  1  0  0  0  0
 32 34  1  0  0  0  0
 33 32  2  0  0  0  0
M  END
>  <MODEL>
1

>  <REMARK>
 VINA RESULT:     -11.1      0.000      0.000
  Name = 
  4 active torsions:
  status: ('A' for Active; 'I' for Inactive)
    1  A    between atoms: N_3  and  C_25
    2  A    between atoms: C_7  and  C_11
    3  A    between atoms: C_8  and  C_18
    4  A    between atoms: C_18  and  C_30
                            x       y       z     vdW  Elec       q    Type
                         _______ _______ _______ _____ _____    ______ ____

>  <TORSDO>
F 4

$$$$
=
 OpenBabel10262423313D

 34 39  0  0  1  0  0  0  0  0999 V2000
  186.5590  177.5550  144.5000 C   0  0  0  0  0  0  0  0  0  0  0  0
  183.1790  178.8930  145.2320 C   0  0  0  0  0  3  0  0  0  0  0  0
  185.1100  178.9320  146.4780 N   0  0  0  0  0  0  0  0  0  0  0  0
  188.8290  176.7230  144.0420 C   0  0  0  0  0  0  0  0  0  0  0  0
  187.4940  176.9810  143.6060 C   0  0  0  0  0  3  0  0  0  0  0  0
  188.2800  177.6160  146.2020 C   0  0  0  0  0  0  0  0  0  0  0  0
  188.3880  178.2190  147.4990 N   0  0  0  0  0  0  0  0  0  0  0  0
  189.2450  177.0720  145.3560 C   0  0  0  0  0  3  0  0  0  0  0  0
  186.3730  178.4940  146.6900 C   0  0  0  0  0  0  0  0  0  0  0  0
  187.0260  177.8040  145.7610 C   0  0  0  0  0  0  0  0  0  0  0  0
  187.2510  178.7420  147.7910 N   0  0  0  0  0  0  0  0  0  0  0  0
  182.2380  178.3980  144.1880 C   0  0  0  0  0  2  0  0  0  0  0  0
  182.5520  178.9180  142.8300 C   0  0  0  0  0  0  0  0  0  0  0  0
  183.7190  178.6400  142.2550 C   0  0  0  0  0  3  0  0  0  0  0  0
  184.4920  178.6490  145.2790 C   0  0  0  0  0  0  0  0  0  0  0  0
  184.8880  178.0190  142.9030 C   0  0  0  0  0  3  0  0  0  0  0  0
  185.2480  178.0190  144.2010 C   0  0  0  0  0  0  0  0  0  0  0  0
  181.5280  179.5780  142.0720 N   0  0  0  0  0  0  0  0  0  0  0  0
  180.6880  180.3030  142.6450 O   0  0  0  0  0  0  0  0  0  0  0  0
  181.4730  179.4430  140.7030 O   0  0  0  0  0  0  0  0  0  0  0  0
  189.8020  176.0970  143.1000 C   0  0  0  0  0  2  0  0  0  0  0  0
  191.3620  176.7730  139.8440 C   0  0  0  0  0  3  0  0  0  0  0  0
  188.6980  177.2810  141.2820 C   0  0  0  0  0  3  0  0  0  0  0  0
  189.7480  177.3970  136.5710 C   0  0  2  0  0  3  0  0  0  0  0  0
  190.8650  176.8110  137.4410 C   0  0  0  0  0  2  0  0  0  0  0  0
  190.5690  177.1700  138.8500 C   0  0  0  0  0  0  0  0  0  0  0  0
  188.5460  178.0280  140.0170 C   0  0  0  0  0  3  0  0  0  0  0  0
  189.4060  178.0420  138.9930 C   0  0  0  0  0  0  0  0  0  0  0  0
  188.9420  178.7880  137.4490 S   0  0  0  0  0  0  0  0  0  0  0  0
  189.8460  176.8450  141.8090 C   0  0  0  0  0  0  0  0  0  0  0  0
  191.1810  177.2300  141.2520 C   0  0  0  0  0  2  0  0  0  0  0  0
  188.7450  176.3490  136.2060 C   0  0  0  0  0  0  0  0  0  0  0  0
  189.0840  175.1390  136.1150 O   0  0  0  0  0  0  0  0  0  0  0  0
  187.3940  176.7240  135.9630 N   0  0  0  0  0  1  0  0  0  0  0  0
  1 10  1  0  0  0  0
  2 15  2  0  0  0  0
  3  9  2  0  0  0  0
  4  8  2  0  0  0  0
  5  4  1  0  0  0  0
  5  1  2  0  0  0  0
  6  7  1  0  0  0  0
  7 11  2  0  0  0  0
  8  6  1  0  0  0  0
  9 11  1  0  0  0  0
 10  6  2  0  0  0  0
 10  9  1  0  0  0  0
 12  2  1  0  0  0  0
 13 12  1  0  0  0  0
 14 13  2  0  0  0  0
 14 16  1  0  0  0  0
 15  3  1  0  0  0  0
 16 17  2  0  0  0  0
 17  1  1  0  0  0  0
 17 15  1  0  0  0  0
 18 19  2  0  0  0  0
 18 13  1  0  0  0  0
 20 18  2  0  0  0  0
 21  4  1  0  0  0  0
 22 31  1  0  0  0  0
 23 30  2  0  0  0  0
 24 32  1  1  0  0  0
 24 25  1  0  0  0  0
 24 29  1  0  0  0  0
 25 26  1  0  0  0  0
 26 28  1  0  0  0  0
 26 22  2  0  0  0  0
 27 23  1  0  0  0  0
 28 27  2  0  0  0  0
 29 28  1  0  0  0  0
 30 21  1  0  0  0  0
 31 30  1  0  0  0  0
 33 32  2  0  0  0  0
 34 32  1  0  0  0  0
M  END
>  <MODEL>
2

>  <REMARK>
 VINA RESULT:     -10.9      0.882      1.145
  Name = 
  4 active torsions:
  status: ('A' for Active; 'I' for Inactive)
    1  A    between atoms: N_3  and  C_25
    2  A    between atoms: C_7  and  C_11
    3  A    between atoms: C_8  and  C_18
    4  A    between atoms: C_18  and  C_30
                            x       y       z     vdW  Elec       q    Type
                         _______ _______ _______ _____ _____    ______ ____

>  <TORSDO>
F 4

$$$$
=
 OpenBabel10262423313D

 34 39  0  0  1  0  0  0  0  0999 V2000
  187.0110  177.9790  144.6930 C   0  0  0  0  0  0  0  0  0  0  0  0
  183.5980  178.7210  143.4480 C   0  0  0  0  0  3  0  0  0  0  0  0
  184.5160  178.9610  145.5410 N   0  0  0  0  0  0  0  0  0  0  0  0
  189.2730  177.5430  145.5550 C   0  0  0  0  0  0  0  0  0  0  0  0
  188.3620  177.6250  144.4600 C   0  0  0  0  0  3  0  0  0  0  0  0
  187.5070  178.1730  147.0540 C   0  0  0  0  0  0  0  0  0  0  0  0
  186.7970  178.6840  148.1910 N   0  0  0  0  0  0  0  0  0  0  0  0
  188.8510  177.8500  146.8780 C   0  0  0  0  0  3  0  0  0  0  0  0
  185.5200  178.7070  146.4130 C   0  0  0  0  0  0  0  0  0  0  0  0
  186.6760  178.1990  146.0000 C   0  0  0  0  0  0  0  0  0  0  0  0
  185.6110  179.0020  147.8090 N   0  0  0  0  0  0  0  0  0  0  0  0
  183.4650  178.1700  142.0710 C   0  0  0  0  0  2  0  0  0  0  0  0
  184.3660  178.8340  141.0900 C   0  0  0  0  0  0  0  0  0  0  0  0
  185.6860  178.7840  141.2460 C   0  0  0  0  0  3  0  0  0  0  0  0
  184.6980  178.6790  144.2040 C   0  0  0  0  0  0  0  0  0  0  0  0
  186.4090  178.3020  142.4360 C   0  0  0  0  0  3  0  0  0  0  0  0
  186.0090  178.2580  143.7220 C   0  0  0  0  0  0  0  0  0  0  0  0
  183.8140  179.3860  139.8860 N   0  0  0  0  0  0  0  0  0  0  0  0
  182.6310  179.1460  139.5670 O   0  0  0  0  0  0  0  0  0  0  0  0
  184.5730  180.2050  139.0800 O   0  0  0  0  0  0  0  0  0  0  0  0
  190.6900  177.1490  145.3030 C   0  0  0  0  0  2  0  0  0  0  0  0
  189.7070  175.7590  142.0480 C   0  0  0  0  0  3  0  0  0  0  0  0
  191.5870  177.9100  143.1730 C   0  0  0  0  0  3  0  0  0  0  0  0
  189.8620  177.3320  138.7000 C   0  0  2  0  0  3  0  0  0  0  0  0
  189.1960  176.4290  139.7430 C   0  0  0  0  0  2  0  0  0  0  0  0
  190.0500  176.4420  140.9570 C   0  0  0  0  0  0  0  0  0  0  0  0
  191.9140  177.8960  141.7320 C   0  0  0  0  0  3  0  0  0  0  0  0
  191.2920  177.1890  140.7820 C   0  0  0  0  0  0  0  0  0  0  0  0
  191.6500  177.4910  139.0690 S   0  0  0  0  0  0  0  0  0  0  0  0
  190.9360  176.9550  143.8440 C   0  0  0  0  0  0  0  0  0  0  0  0
  190.6040  175.6300  143.2340 C   0  0  0  0  0  2  0  0  0  0  0  0
  189.2090  178.6760  138.6570 C   0  0  0  0  0  0  0  0  0  0  0  0
  188.7260  179.1900  139.7010 O   0  0  0  0  0  0  0  0  0  0  0  0
  189.1360  179.3830  137.4240 N   0  0  0  0  0  1  0  0  0  0  0  0
  1 10  1  0  0  0  0
  2 15  2  0  0  0  0
  3  9  2  0  0  0  0
  4  8  2  0  0  0  0
  5  1  2  0  0  0  0
  5  4  1  0  0  0  0
  6  7  1  0  0  0  0
  8  6  1  0  0  0  0
  9 11  1  0  0  0  0
 10  9  1  0  0  0  0
 10  6  2  0  0  0  0
 11  7  2  0  0  0  0
 12  2  1  0  0  0  0
 13 14  2  0  0  0  0
 13 12  1  0  0  0  0
 14 16  1  0  0  0  0
 15  3  1  0  0  0  0
 16 17  2  0  0  0  0
 17 15  1  0  0  0  0
 17  1  1  0  0  0  0
 18 13  1  0  0  0  0
 19 18  2  0  0  0  0
 20 18  2  0  0  0  0
 21  4  1  0  0  0  0
 22 31  1  0  0  0  0
 23 30  2  0  0  0  0
 24 32  1  1  0  0  0
 24 29  1  0  0  0  0
 24 25  1  0  0  0  0
 25 26  1  0  0  0  0
 26 22  2  0  0  0  0
 27 23  1  0  0  0  0
 28 26  1  0  0  0  0
 28 27  2  0  0  0  0
 29 28  1  0  0  0  0
 30 21  1  0  0  0  0
 31 30  1  0  0  0  0
 32 33  2  0  0  0  0
 34 32  1  0  0  0  0
M  END
>  <MODEL>
3

>  <REMARK>
 VINA RESULT:     -10.9      1.846      2.464
  Name = 
  4 active torsions:
  status: ('A' for Active; 'I' for Inactive)
    1  A    between atoms: N_3  and  C_25
    2  A    between atoms: C_7  and  C_11
    3  A    between atoms: C_8  and  C_18
    4  A    between atoms: C_18  and  C_30
                            x       y       z     vdW  Elec       q    Type
                         _______ _______ _______ _____ _____    ______ ____

>  <TORSDO>
F 4

$$$$
=
 OpenBabel10262423313D

 34 39  0  0  1  0  0  0  0  0999 V2000
  187.8930  177.9980  144.6330 C   0  0  0  0  0  0  0  0  0  0  0  0
  191.1900  176.9810  143.2770 C   0  0  0  0  0  3  0  0  0  0  0  0
  190.2830  176.7140  145.3720 N   0  0  0  0  0  0  0  0  0  0  0  0
  185.7020  178.6150  145.5670 C   0  0  0  0  0  0  0  0  0  0  0  0
  186.5830  178.5030  144.4500 C   0  0  0  0  0  3  0  0  0  0  0  0
  187.4150  177.7170  146.9900 C   0  0  0  0  0  0  0  0  0  0  0  0
  188.0840  177.0690  148.0800 N   0  0  0  0  0  0  0  0  0  0  0  0
  186.1090  178.1880  146.8610 C   0  0  0  0  0  3  0  0  0  0  0  0
  189.3240  177.0190  146.2770 C   0  0  0  0  0  0  0  0  0  0  0  0
  188.2220  177.6680  145.9180 C   0  0  0  0  0  0  0  0  0  0  0  0
  189.2240  176.6530  147.6560 N   0  0  0  0  0  0  0  0  0  0  0  0
  191.3590  177.5970  141.9300 C   0  0  0  0  0  2  0  0  0  0  0  0
  190.3800  177.0890  140.9330 C   0  0  0  0  0  0  0  0  0  0  0  0
  189.0740  177.2660  141.1190 C   0  0  0  0  0  3  0  0  0  0  0  0
  190.1120  177.0920  144.0570 C   0  0  0  0  0  0  0  0  0  0  0  0
  188.4230  177.7490  142.3490 C   0  0  0  0  0  3  0  0  0  0  0  0
  188.8450  177.6760  143.6270 C   0  0  0  0  0  0  0  0  0  0  0  0
  190.8520  176.5550  139.6870 N   0  0  0  0  0  0  0  0  0  0  0  0
  190.1190  175.8130  139.0010 O   0  0  0  0  0  0  0  0  0  0  0  0
  192.1070  176.8740  139.2200 O   0  0  0  0  0  0  0  0  0  0  0  0
  184.3300  179.1680  145.3680 C   0  0  0  0  0  2  0  0  0  0  0  0
  181.5540  179.0290  142.9670 C   0  0  0  0  0  3  0  0  0  0  0  0
  184.5810  178.5210  143.0350 C   0  0  0  0  0  3  0  0  0  0  0  0
  181.6510  179.2880  139.2750 C   0  0  2  0  0  3  0  0  0  0  0  0
  180.9960  179.5520  140.6350 C   0  0  0  0  0  2  0  0  0  0  0  0
  181.8600  178.9380  141.6740 C   0  0  0  0  0  0  0  0  0  0  0  0
  184.1950  178.0780  141.6800 C   0  0  0  0  0  3  0  0  0  0  0  0
  182.9850  178.1880  141.1220 C   0  0  0  0  0  0  0  0  0  0  0  0
  182.7640  177.8380  139.3940 S   0  0  0  0  0  0  0  0  0  0  0  0
  183.7560  178.7090  144.0690 C   0  0  0  0  0  0  0  0  0  0  0  0
  182.3150  178.3070  144.0290 C   0  0  0  0  0  2  0  0  0  0  0  0
  182.3960  180.4910  138.7940 C   0  0  0  0  0  0  0  0  0  0  0  0
  183.6550  180.5300  138.8450 O   0  0  0  0  0  0  0  0  0  0  0  0
  181.6770  181.6010  138.2720 N   0  0  0  0  0  1  0  0  0  0  0  0
  1 10  1  0  0  0  0
  2 15  2  0  0  0  0
  3  9  2  0  0  0  0
  4  8  2  0  0  0  0
  5  1  2  0  0  0  0
  5  4  1  0  0  0  0
  6  7  1  0  0  0  0
  8  6  1  0  0  0  0
  9 11  1  0  0  0  0
 10  9  1  0  0  0  0
 10  6  2  0  0  0  0
 11  7  2  0  0  0  0
 12  2  1  0  0  0  0
 13 14  2  0  0  0  0
 13 12  1  0  0  0  0
 14 16  1  0  0  0  0
 15  3  1  0  0  0  0
 16 17  2  0  0  0  0
 17 15  1  0  0  0  0
 17  1  1  0  0  0  0
 18 13  1  0  0  0  0
 19 18  2  0  0  0  0
 20 18  2  0  0  0  0
 21  4  1  0  0  0  0
 22 31  1  0  0  0  0
 23 30  2  0  0  0  0
 24 32  1  1  0  0  0
 24 29  1  0  0  0  0
 24 25  1  0  0  0  0
 25 26  1  0  0  0  0
 26 22  2  0  0  0  0
 27 23  1  0  0  0  0
 28 26  1  0  0  0  0
 28 27  2  0  0  0  0
 29 28  1  0  0  0  0
 30 21  1  0  0  0  0
 31 30  1  0  0  0  0
 32 33  2  0  0  0  0
 34 32  1  0  0  0  0
M  END
>  <MODEL>
4

>  <REMARK>
 VINA RESULT:     -10.8      2.622      7.009
  Name = 
  4 active torsions:
  status: ('A' for Active; 'I' for Inactive)
    1  A    between atoms: N_3  and  C_25
    2  A    between atoms: C_7  and  C_11
    3  A    between atoms: C_8  and  C_18
    4  A    between atoms: C_18  and  C_30
                            x       y       z     vdW  Elec       q    Type
                         _______ _______ _______ _____ _____    ______ ____

>  <TORSDO>
F 4

$$$$
=
 OpenBabel10262423313D

 34 39  0  0  1  0  0  0  0  0999 V2000
  188.3620  177.6640  144.1780 C   0  0  0  0  0  0  0  0  0  0  0  0
  191.6780  177.1270  142.6080 C   0  0  0  0  0  3  0  0  0  0  0  0
  190.9940  176.8830  144.7890 N   0  0  0  0  0  0  0  0  0  0  0  0
  186.1720  177.9650  145.2580 C   0  0  0  0  0  0  0  0  0  0  0  0
  186.9730  177.9160  144.0770 C   0  0  0  0  0  3  0  0  0  0  0  0
  188.1210  177.5030  146.5820 C   0  0  0  0  0  0  0  0  0  0  0  0
  188.9760  177.0750  147.6500 N   0  0  0  0  0  0  0  0  0  0  0  0
  186.7450  177.7260  146.5370 C   0  0  0  0  0  3  0  0  0  0  0  0
  190.0660  177.0910  145.7530 C   0  0  0  0  0  0  0  0  0  0  0  0
  188.8410  177.5050  145.4490 C   0  0  0  0  0  0  0  0  0  0  0  0
  190.1370  176.8300  147.1570 N   0  0  0  0  0  0  0  0  0  0  0  0
  191.6310  177.6470  141.2130 C   0  0  0  0  0  2  0  0  0  0  0  0
  190.6870  176.8940  140.3440 C   0  0  0  0  0  0  0  0  0  0  0  0
  189.3890  176.8560  140.6320 C   0  0  0  0  0  3  0  0  0  0  0  0
  190.6580  177.1130  143.4710 C   0  0  0  0  0  0  0  0  0  0  0  0
  188.7560  177.3210  141.8790 C   0  0  0  0  0  3  0  0  0  0  0  0
  189.2790  177.4290  143.1160 C   0  0  0  0  0  0  0  0  0  0  0  0
  191.1530  176.3490  139.1010 N   0  0  0  0  0  0  0  0  0  0  0  0
  192.2220  176.7520  138.5970 O   0  0  0  0  0  0  0  0  0  0  0  0
  190.4440  175.3570  138.4620 O   0  0  0  0  0  0  0  0  0  0  0  0
  184.7120  178.2530  145.1440 C   0  0  0  0  0  2  0  0  0  0  0  0
  185.7170  179.2270  141.7480 C   0  0  0  0  0  3  0  0  0  0  0  0
  183.1960  178.3110  143.2410 C   0  0  0  0  0  3  0  0  0  0  0  0
  184.1600  178.3330  138.5100 C   0  0  2  0  0  3  0  0  0  0  0  0
  185.3770  178.6280  139.3920 C   0  0  0  0  0  2  0  0  0  0  0  0
  184.8770  178.9490  140.7520 C   0  0  0  0  0  0  0  0  0  0  0  0
  182.6870  178.6450  141.8950 C   0  0  0  0  0  3  0  0  0  0  0  0
  183.4200  179.0030  140.8340 C   0  0  0  0  0  0  0  0  0  0  0  0
  182.6680  179.1160  139.2290 S   0  0  0  0  0  0  0  0  0  0  0  0
  184.3650  178.6960  143.7610 C   0  0  0  0  0  0  0  0  0  0  0  0
  185.2530  179.6930  143.0870 C   0  0  0  0  0  2  0  0  0  0  0  0
  183.9580  176.8600  138.3470 C   0  0  0  0  0  0  0  0  0  0  0  0
  183.0580  176.2590  138.9940 O   0  0  0  0  0  0  0  0  0  0  0  0
  184.7880  176.1320  137.4510 N   0  0  0  0  0  1  0  0  0  0  0  0
  1 10  1  0  0  0  0
  2 15  2  0  0  0  0
  3  9  2  0  0  0  0
  4  8  2  0  0  0  0
  5  1  2  0  0  0  0
  5  4  1  0  0  0  0
  6  7  1  0  0  0  0
  8  6  1  0  0  0  0
  9 11  1  0  0  0  0
 10  9  1  0  0  0  0
 10  6  2  0  0  0  0
 11  7  2  0  0  0  0
 12  2  1  0  0  0  0
 13 14  2  0  0  0  0
 13 12  1  0  0  0  0
 14 16  1  0  0  0  0
 15  3  1  0  0  0  0
 16 17  2  0  0  0  0
 17 15  1  0  0  0  0
 17  1  1  0  0  0  0
 18 13  1  0  0  0  0
 19 18  2  0  0  0  0
 20 18  2  0  0  0  0
 21  4  1  0  0  0  0
 22 31  1  0  0  0  0
 23 30  2  0  0  0  0
 24 32  1  1  0  0  0
 24 29  1  0  0  0  0
 24 25  1  0  0  0  0
 25 26  1  0  0  0  0
 26 28  1  0  0  0  0
 26 22  2  0  0  0  0
 27 23  1  0  0  0  0
 28 27  2  0  0  0  0
 29 28  1  0  0  0  0
 30 21  1  0  0  0  0
 31 30  1  0  0  0  0
 32 33  2  0  0  0  0
 34 32  1  0  0  0  0
M  END
>  <MODEL>
5

>  <REMARK>
 VINA RESULT:     -10.7      2.752      6.409
  Name = 
  4 active torsions:
  status: ('A' for Active; 'I' for Inactive)
    1  A    between atoms: N_3  and  C_25
    2  A    between atoms: C_7  and  C_11
    3  A    between atoms: C_8  and  C_18
    4  A    between atoms: C_18  and  C_30
                            x       y       z     vdW  Elec       q    Type
                         _______ _______ _______ _____ _____    ______ ____

>  <TORSDO>
F 4

$$$$
=
 OpenBabel10262423313D

 34 39  0  0  1  0  0  0  0  0999 V2000
  187.4970  177.9910  142.4970 C   0  0  0  0  0  0  0  0  0  0  0  0
  191.0650  177.0470  142.1380 C   0  0  0  0  0  3  0  0  0  0  0  0
  189.6710  176.9760  143.9640 N   0  0  0  0  0  0  0  0  0  0  0  0
  185.1210  178.5630  142.7730 C   0  0  0  0  0  0  0  0  0  0  0  0
  186.2580  178.3780  141.9320 C   0  0  0  0  0  3  0  0  0  0  0  0
  186.4530  177.9680  144.6810 C   0  0  0  0  0  0  0  0  0  0  0  0
  186.8500  177.5070  145.9790 N   0  0  0  0  0  0  0  0  0  0  0  0
  185.2050  178.3280  144.1730 C   0  0  0  0  0  3  0  0  0  0  0  0
  188.5050  177.3220  144.5580 C   0  0  0  0  0  0  0  0  0  0  0  0
  187.5050  177.8440  143.8560 C   0  0  0  0  0  0  0  0  0  0  0  0
  188.0740  177.1220  145.9070 N   0  0  0  0  0  0  0  0  0  0  0  0
  191.5450  177.5030  140.8030 C   0  0  0  0  0  2  0  0  0  0  0  0
  190.8660  176.8100  139.6750 C   0  0  0  0  0  0  0  0  0  0  0  0
  189.5510  176.9170  139.5100 C   0  0  0  0  0  3  0  0  0  0  0  0
  189.8220  177.1770  142.6090 C   0  0  0  0  0  0  0  0  0  0  0  0
  188.5940  177.5020  140.4670 C   0  0  0  0  0  3  0  0  0  0  0  0
  188.6830  177.6140  141.8070 C   0  0  0  0  0  0  0  0  0  0  0  0
  191.6560  176.1620  138.6670 N   0  0  0  0  0  0  0  0  0  0  0  0
  192.6840  176.7130  138.2210 O   0  0  0  0  0  0  0  0  0  0  0  0
  191.3060  174.9160  138.1980 O   0  0  0  0  0  0  0  0  0  0  0  0
  183.8240  178.9920  142.1720 C   0  0  0  0  0  2  0  0  0  0  0  0
  185.0310  178.7580  138.7110 C   0  0  0  0  0  3  0  0  0  0  0  0
  183.1050  177.2850  140.5940 C   0  0  0  0  0  3  0  0  0  0  0  0
  185.1580  175.8040  136.4820 C   0  0  2  0  0  3  0  0  0  0  0  0
  185.7280  177.1210  137.0210 C   0  0  0  0  0  2  0  0  0  0  0  0
  184.7840  177.6300  138.0460 C   0  0  0  0  0  0  0  0  0  0  0  0
  182.8890  176.6110  139.2970 C   0  0  0  0  0  3  0  0  0  0  0  0
  183.5710  176.8260  138.1660 C   0  0  0  0  0  0  0  0  0  0  0  0
  183.3500  175.7460  136.7730 S   0  0  0  0  0  0  0  0  0  0  0  0
  183.6880  178.4720  140.7790 C   0  0  0  0  0  0  0  0  0  0  0  0
  184.0440  179.3780  139.6420 C   0  0  0  0  0  2  0  0  0  0  0  0
  185.8340  174.6280  137.1100 C   0  0  0  0  0  0  0  0  0  0  0  0
  187.0890  174.5900  137.2180 O   0  0  0  0  0  0  0  0  0  0  0  0
  185.0510  173.5430  137.5940 N   0  0  0  0  0  1  0  0  0  0  0  0
  1 10  1  0  0  0  0
  2 15  2  0  0  0  0
  3  9  2  0  0  0  0
  4  8  2  0  0  0  0
  5  1  2  0  0  0  0
  5  4  1  0  0  0  0
  6  7  1  0  0  0  0
  8  6  1  0  0  0  0
  9 11  1  0  0  0  0
 10  9  1  0  0  0  0
 10  6  2  0  0  0  0
 11  7  2  0  0  0  0
 12  2  1  0  0  0  0
 13 12  1  0  0  0  0
 14 13  2  0  0  0  0
 14 16  1  0  0  0  0
 15  3  1  0  0  0  0
 16 17  2  0  0  0  0
 17  1  1  0  0  0  0
 17 15  1  0  0  0  0
 18 13  1  0  0  0  0
 19 18  2  0  0  0  0
 20 18  2  0  0  0  0
 21  4  1  0  0  0  0
 22 31  1  0  0  0  0
 23 30  2  0  0  0  0
 24 29  1  0  0  0  0
 24 25  1  0  0  0  0
 24 32  1  1  0  0  0
 25 26  1  0  0  0  0
 26 28  1  0  0  0  0
 26 22  2  0  0  0  0
 27 23  1  0  0  0  0
 28 27  2  0  0  0  0
 29 28  1  0  0  0  0
 30 21  1  0  0  0  0
 31 30  1  0  0  0  0
 32 33  2  0  0  0  0
 32 34  1  0  0  0  0
M  END
>  <MODEL>
6

>  <REMARK>
 VINA RESULT:     -10.6      3.207      6.309
  Name = 
  4 active torsions:
  status: ('A' for Active; 'I' for Inactive)
    1  A    between atoms: N_3  and  C_25
    2  A    between atoms: C_7  and  C_11
    3  A    between atoms: C_8  and  C_18
    4  A    between atoms: C_18  and  C_30
                            x       y       z     vdW  Elec       q    Type
                         _______ _______ _______ _____ _____    ______ ____

>  <TORSDO>
F 4

$$$$
=
 OpenBabel10262423313D

 34 39  0  0  1  0  0  0  0  0999 V2000
  187.2170  178.2210  144.2190 C   0  0  0  0  0  0  0  0  0  0  0  0
  189.0460  177.5810  147.3800 C   0  0  0  0  0  3  0  0  0  0  0  0
  186.8150  177.9670  146.9910 N   0  0  0  0  0  0  0  0  0  0  0  0
  185.9530  178.6060  142.1440 C   0  0  0  0  0  0  0  0  0  0  0  0
  187.1730  178.2740  142.8050 C   0  0  0  0  0  3  0  0  0  0  0  0
  184.8680  178.8050  144.2770 C   0  0  0  0  0  0  0  0  0  0  0  0
  183.8660  178.8340  145.3020 N   0  0  0  0  0  0  0  0  0  0  0  0
  184.7660  178.8500  142.8870 C   0  0  0  0  0  3  0  0  0  0  0  0
  185.8260  178.3670  146.1570 C   0  0  0  0  0  0  0  0  0  0  0  0
  186.0470  178.5270  144.8570 C   0  0  0  0  0  0  0  0  0  0  0  0
  184.4370  178.5740  146.4240 N   0  0  0  0  0  0  0  0  0  0  0  0
  190.5090  177.6230  147.0990 C   0  0  0  0  0  2  0  0  0  0  0  0
  190.9570  176.5350  146.1890 C   0  0  0  0  0  0  0  0  0  0  0  0
  190.4740  176.4480  144.9520 C   0  0  0  0  0  3  0  0  0  0  0  0
  188.0720  177.7300  146.4780 C   0  0  0  0  0  0  0  0  0  0  0  0
  189.3400  177.2110  144.4000 C   0  0  0  0  0  3  0  0  0  0  0  0
  188.2880  177.7630  145.0360 C   0  0  0  0  0  0  0  0  0  0  0  0
  192.0360  175.6780  146.5900 N   0  0  0  0  0  0  0  0  0  0  0  0
  192.3970  174.7350  145.8560 O   0  0  0  0  0  0  0  0  0  0  0  0
  192.7020  175.8990  147.7740 O   0  0  0  0  0  0  0  0  0  0  0  0
  185.9210  178.6810  140.6540 C   0  0  0  0  0  2  0  0  0  0  0  0
  182.4270  177.5940  140.9750 C   0  0  0  0  0  3  0  0  0  0  0  0
  184.0630  179.7040  139.4600 C   0  0  0  0  0  3  0  0  0  0  0  0
  179.3230  179.5150  140.3580 C   0  0  2  0  0  3  0  0  0  0  0  0
  180.1420  178.4750  141.1300 C   0  0  0  0  0  2  0  0  0  0  0  0
  181.4830  178.4030  140.4980 C   0  0  0  0  0  0  0  0  0  0  0  0
  182.7080  179.8580  138.8940 C   0  0  0  0  0  3  0  0  0  0  0  0
  181.6010  179.2250  139.2970 C   0  0  0  0  0  0  0  0  0  0  0  0
  180.0130  179.7210  138.6740 S   0  0  0  0  0  0  0  0  0  0  0  0
  184.5160  178.6540  140.1510 C   0  0  0  0  0  0  0  0  0  0  0  0
  183.7340  177.3850  140.2860 C   0  0  0  0  0  2  0  0  0  0  0  0
  179.2930  180.8220  141.0820 C   0  0  0  0  0  0  0  0  0  0  0  0
  178.9310  181.8760  140.4920 O   0  0  0  0  0  0  0  0  0  0  0  0
  179.6750  180.8760  142.4510 N   0  0  0  0  0  1  0  0  0  0  0  0
  1 10  1  0  0  0  0
  1 17  1  0  0  0  0
  4  5  1  0  0  0  0
  4  8  2  0  0  0  0
  5  1  2  0  0  0  0
  6 10  2  0  0  0  0
  6  7  1  0  0  0  0
  7 11  2  0  0  0  0
  8  6  1  0  0  0  0
  9 11  1  0  0  0  0
  9  3  2  0  0  0  0
 10  9  1  0  0  0  0
 12  2  1  0  0  0  0
 13 18  1  0  0  0  0
 13 12  1  0  0  0  0
 14 13  2  0  0  0  0
 15  3  1  0  0  0  0
 15  2  2  0  0  0  0
 16 14  1  0  0  0  0
 16 17  2  0  0  0  0
 17 15  1  0  0  0  0
 18 20  2  0  0  0  0
 19 18  2  0  0  0  0
 21  4  1  0  0  0  0
 23 30  2  0  0  0  0
 24 32  1  1  0  0  0
 24 25  1  0  0  0  0
 26 22  2  0  0  0  0
 26 25  1  0  0  0  0
 27 28  2  0  0  0  0
 27 23  1  0  0  0  0
 28 26  1  0  0  0  0
 29 28  1  0  0  0  0
 29 24  1  0  0  0  0
 30 31  1  0  0  0  0
 30 21  1  0  0  0  0
 31 22  1  0  0  0  0
 32 34  1  0  0  0  0
 33 32  2  0  0  0  0
M  END
>  <MODEL>
7

>  <REMARK>
 VINA RESULT:     -10.5      3.946      8.024
  Name = 
  4 active torsions:
  status: ('A' for Active; 'I' for Inactive)
    1  A    between atoms: N_3  and  C_25
    2  A    between atoms: C_7  and  C_11
    3  A    between atoms: C_8  and  C_18
    4  A    between atoms: C_18  and  C_30
                            x       y       z     vdW  Elec       q    Type
                         _______ _______ _______ _____ _____    ______ ____

>  <TORSDO>
F 4

$$$$
=
 OpenBabel10262423313D

 34 39  0  0  1  0  0  0  0  0999 V2000
  184.5320  178.5030  142.2090 C   0  0  0  0  0  0  0  0  0  0  0  0
  184.2450  178.0870  138.5360 C   0  0  0  0  0  3  0  0  0  0  0  0
  182.6900  178.7380  140.0970 N   0  0  0  0  0  0  0  0  0  0  0  0
  184.6840  178.8350  144.6420 C   0  0  0  0  0  0  0  0  0  0  0  0
  185.3110  178.5610  143.3900 C   0  0  0  0  0  3  0  0  0  0  0  0
  182.5630  179.0010  143.5280 C   0  0  0  0  0  0  0  0  0  0  0  0
  181.2080  179.3500  143.2160 N   0  0  0  0  0  0  0  0  0  0  0  0
  183.2870  179.0900  144.7170 C   0  0  0  0  0  3  0  0  0  0  0  0
  182.3150  178.8620  141.3920 C   0  0  0  0  0  0  0  0  0  0  0  0
  183.1900  178.7010  142.3790 C   0  0  0  0  0  0  0  0  0  0  0  0
  181.0590  179.2660  141.9420 N   0  0  0  0  0  0  0  0  0  0  0  0
  185.4840  177.4270  138.0360 C   0  0  0  0  0  2  0  0  0  0  0  0
  186.7010  178.2640  138.2170 C   0  0  0  0  0  0  0  0  0  0  0  0
  187.0950  178.6280  139.4340 C   0  0  0  0  0  3  0  0  0  0  0  0
  184.0020  178.4330  139.8030 C   0  0  0  0  0  0  0  0  0  0  0  0
  186.3300  178.4710  140.6840 C   0  0  0  0  0  3  0  0  0  0  0  0
  184.9970  178.3970  140.8690 C   0  0  0  0  0  0  0  0  0  0  0  0
  187.5440  178.5380  137.0880 N   0  0  0  0  0  0  0  0  0  0  0  0
  187.2800  178.0480  135.9700 O   0  0  0  0  0  0  0  0  0  0  0  0
  188.6390  179.3620  137.2160 O   0  0  0  0  0  0  0  0  0  0  0  0
  185.5090  178.8720  145.8850 C   0  0  0  0  0  2  0  0  0  0  0  0
  187.5330  176.4670  143.9840 C   0  0  0  0  0  3  0  0  0  0  0  0
  187.8910  178.5200  146.2380 C   0  0  0  0  0  3  0  0  0  0  0  0
  191.1830  176.4740  143.3590 C   0  0  2  0  0  3  0  0  0  0  0  0
  189.7350  176.2110  142.9300 C   0  0  0  0  0  2  0  0  0  0  0  0
  188.8580  176.5700  144.0730 C   0  0  0  0  0  0  0  0  0  0  0  0
  189.2110  177.8600  146.1720 C   0  0  0  0  0  3  0  0  0  0  0  0
  189.5990  176.9480  145.2740 C   0  0  0  0  0  0  0  0  0  0  0  0
  191.3020  176.4510  145.1860 S   0  0  0  0  0  0  0  0  0  0  0  0
  186.7490  178.0570  145.7230 C   0  0  0  0  0  0  0  0  0  0  0  0
  186.6280  176.6800  145.1510 C   0  0  0  0  0  2  0  0  0  0  0  0
  191.6780  177.7740  142.8120 C   0  0  0  0  0  0  0  0  0  0  0  0
  192.0100  177.8780  141.6000 O   0  0  0  0  0  0  0  0  0  0  0  0
  191.7730  178.9060  143.6680 N   0  0  0  0  0  1  0  0  0  0  0  0
  1 10  2  0  0  0  0
  1  5  1  0  0  0  0
  2 15  2  0  0  0  0
  3  9  2  0  0  0  0
  4  8  1  0  0  0  0
  4 21  1  0  0  0  0
  5  4  2  0  0  0  0
  6  8  2  0  0  0  0
  7  6  1  0  0  0  0
  9 11  1  0  0  0  0
  9 10  1  0  0  0  0
 10  6  1  0  0  0  0
 11  7  2  0  0  0  0
 12 13  1  0  0  0  0
 12  2  1  0  0  0  0
 13 14  2  0  0  0  0
 14 16  1  0  0  0  0
 15  3  1  0  0  0  0
 15 17  1  0  0  0  0
 16 17  2  0  0  0  0
 17  1  1  0  0  0  0
 18 20  2  0  0  0  0
 18 13  1  0  0  0  0
 19 18  2  0  0  0  0
 22 26  2  0  0  0  0
 22 31  1  0  0  0  0
 24 32  1  1  0  0  0
 24 29  1  0  0  0  0
 25 24  1  0  0  0  0
 25 26  1  0  0  0  0
 26 28  1  0  0  0  0
 27 23  1  0  0  0  0
 28 27  2  0  0  0  0
 29 28  1  0  0  0  0
 30 21  1  0  0  0  0
 30 23  2  0  0  0  0
 31 30  1  0  0  0  0
 32 34  1  0  0  0  0
 33 32  2  0  0  0  0
M  END
>  <MODEL>
8

>  <REMARK>
 VINA RESULT:     -10.3      3.367      5.809
  Name = 
  4 active torsions:
  status: ('A' for Active; 'I' for Inactive)
    1  A    between atoms: N_3  and  C_25
    2  A    between atoms: C_7  and  C_11
    3  A    between atoms: C_8  and  C_18
    4  A    between atoms: C_18  and  C_30
                            x       y       z     vdW  Elec       q    Type
                         _______ _______ _______ _____ _____    ______ ____

>  <TORSDO>
F 4

$$$$
=
 OpenBabel10262423313D

 34 39  0  0  1  0  0  0  0  0999 V2000
  186.6280  178.0660  144.0810 C   0  0  0  0  0  0  0  0  0  0  0  0
  189.2580  177.5900  146.6500 C   0  0  0  0  0  3  0  0  0  0  0  0
  187.0150  178.0420  146.8660 N   0  0  0  0  0  0  0  0  0  0  0  0
  184.8400  178.3460  142.4140 C   0  0  0  0  0  0  0  0  0  0  0  0
  186.1900  178.0130  142.7360 C   0  0  0  0  0  3  0  0  0  0  0  0
  184.4020  178.7540  144.7400 C   0  0  0  0  0  0  0  0  0  0  0  0
  183.7290  178.9050  145.9970 N   0  0  0  0  0  0  0  0  0  0  0  0
  183.9140  178.6970  143.4350 C   0  0  0  0  0  3  0  0  0  0  0  0
  185.8400  178.4200  146.3090 C   0  0  0  0  0  0  0  0  0  0  0  0
  185.6900  178.4700  144.9900 C   0  0  0  0  0  0  0  0  0  0  0  0
  184.5860  178.7060  146.9340 N   0  0  0  0  0  0  0  0  0  0  0  0
  190.5830  177.5480  145.9700 C   0  0  0  0  0  2  0  0  0  0  0  0
  190.7350  176.3750  145.0680 C   0  0  0  0  0  0  0  0  0  0  0  0
  189.9230  176.2150  144.0270 C   0  0  0  0  0  3  0  0  0  0  0  0
  188.0730  177.7120  146.0460 C   0  0  0  0  0  0  0  0  0  0  0  0
  188.6960  176.9820  143.7490 C   0  0  0  0  0  3  0  0  0  0  0  0
  187.8760  177.6260  144.6030 C   0  0  0  0  0  0  0  0  0  0  0  0
  191.8660  175.5050  145.2250 N   0  0  0  0  0  0  0  0  0  0  0  0
  192.4420  175.4130  146.3290 O   0  0  0  0  0  0  0  0  0  0  0  0
  192.3150  174.7440  144.1690 O   0  0  0  0  0  0  0  0  0  0  0  0
  184.3920  178.3080  140.9910 C   0  0  0  0  0  2  0  0  0  0  0  0
  188.0110  178.2590  140.3640 C   0  0  0  0  0  3  0  0  0  0  0  0
  185.3870  178.1490  138.7760 C   0  0  0  0  0  3  0  0  0  0  0  0
  189.8570  176.8720  137.4700 C   0  0  2  0  0  3  0  0  0  0  0  0
  189.7090  177.1720  138.9660 C   0  0  0  0  0  2  0  0  0  0  0  0
  188.4230  177.8880  139.1530 C   0  0  0  0  0  0  0  0  0  0  0  0
  186.4170  178.2240  137.7200 C   0  0  0  0  0  3  0  0  0  0  0  0
  187.7420  178.1930  137.8980 C   0  0  0  0  0  0  0  0  0  0  0  0
  188.8270  178.0350  136.5000 S   0  0  0  0  0  0  0  0  0  0  0  0
  185.5540  178.4540  140.0650 C   0  0  0  0  0  0  0  0  0  0  0  0
  186.8000  179.1030  140.5810 C   0  0  0  0  0  2  0  0  0  0  0  0
  189.4850  175.4560  137.1660 C   0  0  0  0  0  0  0  0  0  0  0  0
  188.4630  175.1930  136.4770 O   0  0  0  0  0  0  0  0  0  0  0  0
  190.2960  174.3960  137.6580 N   0  0  0  0  0  1  0  0  0  0  0  0
  1 17  1  0  0  0  0
  1 10  1  0  0  0  0
  4  5  1  0  0  0  0
  4  8  2  0  0  0  0
  5  1  2  0  0  0  0
  6 10  2  0  0  0  0
  6  7  1  0  0  0  0
  7 11  2  0  0  0  0
  8  6  1  0  0  0  0
  9  3  2  0  0  0  0
  9 11  1  0  0  0  0
 10  9  1  0  0  0  0
 12  2  1  0  0  0  0
 13 18  1  0  0  0  0
 13 12  1  0  0  0  0
 14 13  2  0  0  0  0
 15  2  2  0  0  0  0
 15  3  1  0  0  0  0
 16 14  1  0  0  0  0
 16 17  2  0  0  0  0
 17 15  1  0  0  0  0
 18 19  2  0  0  0  0
 20 18  2  0  0  0  0
 21  4  1  0  0  0  0
 22 31  1  0  0  0  0
 23 30  2  0  0  0  0
 24 32  1  1  0  0  0
 24 25  1  0  0  0  0
 25 26  1  0  0  0  0
 26 22  2  0  0  0  0
 27 28  2  0  0  0  0
 27 23  1  0  0  0  0
 28 26  1  0  0  0  0
 29 24  1  0  0  0  0
 29 28  1  0  0  0  0
 30 31  1  0  0  0  0
 30 21  1  0  0  0  0
 32 34  1  0  0  0  0
 33 32  2  0  0  0  0
M  END
>  <MODEL>
9

>  <REMARK>
 VINA RESULT:     -10.2      3.058      5.705
  Name = 
  4 active torsions:
  status: ('A' for Active; 'I' for Inactive)
    1  A    between atoms: N_3  and  C_25
    2  A    between atoms: C_7  and  C_11
    3  A    between atoms: C_8  and  C_18
    4  A    between atoms: C_18  and  C_30
                            x       y       z     vdW  Elec       q    Type
                         _______ _______ _______ _____ _____    ______ ____

>  <TORSDO>
F 4

$$$$
