=
 OpenBabel10262420003D

 27 30  0  0  1  0  0  0  0  0999 V2000
  187.8290  177.7700  146.3570 O   0  0  0  0  0  1  0  0  0  0  0  0
  187.9420  178.5400  142.7470 N   0  0  0  0  0  2  0  0  0  0  0  0
  190.3530  178.2800  142.5690 N   0  0  0  0  0  2  0  0  0  0  0  0
  187.4770  177.8980  143.9720 C   0  0  1  0  0  3  0  0  0  0  0  0
  188.3100  178.3540  145.1830 C   0  0  2  0  0  3  0  0  0  0  0  0
  189.0340  177.7220  142.2350 C   0  0  2  0  0  3  0  0  0  0  0  0
  191.8300  179.3280  144.2060 C   0  0  0  0  0  1  0  0  0  0  0  0
  189.8150  178.0760  145.0330 C   0  0  2  0  0  3  0  0  0  0  0  0
  190.4040  178.9230  143.8900 C   0  0  2  0  0  3  0  0  0  0  0  0
  188.6960  177.1340  137.9820 C   0  0  0  0  0  3  0  0  0  0  0  0
  186.7800  178.5420  137.9300 F   0  0  0  0  0  0  0  0  0  0  0  0
  190.8540  176.0840  140.7790 O   0  0  0  0  0  1  0  0  0  0  0  0
  187.8690  178.1510  140.0220 C   0  0  0  0  0  0  0  0  0  0  0  0
  186.9400  178.9650  140.6620 O   0  0  0  0  0  1  0  0  0  0  0  0
  188.9030  177.5310  140.7530 C   0  0  0  0  0  0  0  0  0  0  0  0
  187.7710  177.9500  138.6390 C   0  0  0  0  0  0  0  0  0  0  0  0
  189.7200  176.5170  138.7020 C   0  0  0  0  0  3  0  0  0  0  0  0
  189.8260  176.7110  140.0830 C   0  0  0  0  0  0  0  0  0  0  0  0
  183.2870  178.7040  144.4840 C   0  0  0  0  0  3  0  0  0  0  0  0
  186.0200  178.1810  144.1650 C   0  0  0  0  0  0  0  0  0  0  0  0
  185.4990  178.4640  145.4370 C   0  0  0  0  0  3  0  0  0  0  0  0
  184.1350  178.7240  145.5940 C   0  0  0  0  0  3  0  0  0  0  0  0
  183.8030  178.4220  143.2150 C   0  0  0  0  0  3  0  0  0  0  0  0
  185.1670  178.1610  143.0560 C   0  0  0  0  0  3  0  0  0  0  0  0
  190.8270  176.1210  146.2080 C   0  0  0  0  0  2  0  0  0  0  0  0
  191.6510  176.3800  144.9660 C   0  0  0  0  0  2  0  0  0  0  0  0
  190.1470  176.5820  144.9320 C   0  0  0  0  0  3  0  0  0  0  0  0
  2  4  1  0  0  0  0
  3  9  1  0  0  0  0
  4 20  1  1  0  0  0
  4  5  1  0  0  0  0
  5  1  1  1  0  0  0
  6 15  1  6  0  0  0
  6  3  1  0  0  0  0
  6  2  1  0  0  0  0
  8 27  1  6  0  0  0
  8  5  1  0  0  0  0
  9  7  1  1  0  0  0
  9  8  1  0  0  0  0
 10 16  2  0  0  0  0
 10 17  1  0  0  0  0
 11 16  1  0  0  0  0
 13 14  1  0  0  0  0
 13 15  2  0  0  0  0
 16 13  1  0  0  0  0
 17 18  2  0  0  0  0
 18 15  1  0  0  0  0
 18 12  1  0  0  0  0
 19 22  1  0  0  0  0
 20 21  1  0  0  0  0
 21 22  2  0  0  0  0
 23 19  2  0  0  0  0
 24 23  1  0  0  0  0
 24 20  2  0  0  0  0
 26 25  1  0  0  0  0
 27 26  1  0  0  0  0
 27 25  1  0  0  0  0
M  END
>  <MODEL>
1

>  <REMARK>
 VINA RESULT:      -8.5      0.000      0.000
  Name = 
  3 active torsions:
  status: ('A' for Active; 'I' for Inactive)
    1  A    between atoms: C_9  and  C_15
    2  A    between atoms: C_14  and  C_19
    3  A    between atoms: C_22  and  C_24
                            x       y       z     vdW  Elec       q    Type
                         _______ _______ _______ _____ _____    ______ ____

>  <TORSDO>
F 3

$$$$
=
 OpenBabel10262420003D

 27 30  0  0  1  0  0  0  0  0999 V2000
  191.5820  176.5860  140.1930 O   0  0  0  0  0  1  0  0  0  0  0  0
  188.6190  178.4980  141.2920 N   0  0  0  0  0  2  0  0  0  0  0  0
  187.6350  178.6210  139.0710 N   0  0  0  0  0  2  0  0  0  0  0  0
  189.6210  177.4380  141.3160 C   0  0  1  0  0  3  0  0  0  0  0  0
  190.5990  177.5770  140.1360 C   0  0  2  0  0  3  0  0  0  0  0  0
  187.5460  178.0370  140.4180 C   0  0  2  0  0  3  0  0  0  0  0  0
  189.0000  179.2580  137.1510 C   0  0  0  0  0  1  0  0  0  0  0  0
  189.9100  177.5580  138.7620 C   0  0  2  0  0  3  0  0  0  0  0  0
  189.0140  178.8000  138.5960 C   0  0  2  0  0  3  0  0  0  0  0  0
  183.6790  178.8690  142.1220 C   0  0  0  0  0  3  0  0  0  0  0  0
  184.4570  178.1670  144.2570 F   0  0  0  0  0  0  0  0  0  0  0  0
  185.3840  179.0420  138.8600 O   0  0  0  0  0  1  0  0  0  0  0  0
  185.9620  178.1030  142.4000 C   0  0  0  0  0  0  0  0  0  0  0  0
  186.9680  177.6120  143.2280 O   0  0  0  0  0  1  0  0  0  0  0  0
  186.2060  178.3250  141.0290 C   0  0  0  0  0  0  0  0  0  0  0  0
  184.6990  178.3770  142.9400 C   0  0  0  0  0  0  0  0  0  0  0  0
  183.9160  179.0880  140.7640 C   0  0  0  0  0  3  0  0  0  0  0  0
  185.1730  178.8180  140.2160 C   0  0  0  0  0  0  0  0  0  0  0  0
  191.6790  177.5250  145.0870 C   0  0  0  0  0  3  0  0  0  0  0  0
  190.3360  177.4530  142.6310 C   0  0  0  0  0  0  0  0  0  0  0  0
  190.5720  176.2660  143.3410 C   0  0  0  0  0  3  0  0  0  0  0  0
  191.2420  176.3040  144.5670 C   0  0  0  0  0  3  0  0  0  0  0  0
  191.4450  178.7090  144.3820 C   0  0  0  0  0  3  0  0  0  0  0  0
  190.7750  178.6730  143.1560 C   0  0  0  0  0  3  0  0  0  0  0  0
  190.0830  175.3600  137.5930 C   0  0  0  0  0  2  0  0  0  0  0  0
  188.9290  176.1140  136.9720 C   0  0  0  0  0  2  0  0  0  0  0  0
  189.1970  176.2340  138.4600 C   0  0  0  0  0  3  0  0  0  0  0  0
  2  4  1  0  0  0  0
  3  6  1  0  0  0  0
  4 20  1  1  0  0  0
  5  1  1  6  0  0  0
  5  4  1  0  0  0  0
  6 15  1  1  0  0  0
  6  2  1  0  0  0  0
  8 27  1  1  0  0  0
  8  5  1  0  0  0  0
  9  7  1  6  0  0  0
  9  8  1  0  0  0  0
  9  3  1  0  0  0  0
 10 16  1  0  0  0  0
 12 18  1  0  0  0  0
 13 16  2  0  0  0  0
 13 14  1  0  0  0  0
 15 13  1  0  0  0  0
 16 11  1  0  0  0  0
 17 10  2  0  0  0  0
 18 17  1  0  0  0  0
 18 15  2  0  0  0  0
 20 24  2  0  0  0  0
 20 21  1  0  0  0  0
 21 22  2  0  0  0  0
 22 19  1  0  0  0  0
 23 19  2  0  0  0  0
 24 23  1  0  0  0  0
 25 27  1  0  0  0  0
 26 25  1  0  0  0  0
 26 27  1  0  0  0  0
M  END
>  <MODEL>
2

>  <REMARK>
 VINA RESULT:      -8.4      2.156      6.015
  Name = 
  3 active torsions:
  status: ('A' for Active; 'I' for Inactive)
    1  A    between atoms: C_9  and  C_15
    2  A    between atoms: C_14  and  C_19
    3  A    between atoms: C_22  and  C_24
                            x       y       z     vdW  Elec       q    Type
                         _______ _______ _______ _____ _____    ______ ____

>  <TORSDO>
F 3

$$$$
=
 OpenBabel10262420003D

 27 30  0  0  1  0  0  0  0  0999 V2000
  187.8100  177.7270  146.3820 O   0  0  0  0  0  1  0  0  0  0  0  0
  188.0100  178.5170  142.7790 N   0  0  0  0  0  2  0  0  0  0  0  0
  190.4280  178.2810  142.6630 N   0  0  0  0  0  2  0  0  0  0  0  0
  187.5200  177.8640  143.9880 C   0  0  1  0  0  3  0  0  0  0  0  0
  188.3160  178.3220  145.2230 C   0  0  2  0  0  3  0  0  0  0  0  0
  189.1230  177.7110  142.2920 C   0  0  2  0  0  3  0  0  0  0  0  0
  191.8510  179.3330  144.3430 C   0  0  0  0  0  1  0  0  0  0  0  0
  189.8270  178.0580  145.1110 C   0  0  2  0  0  3  0  0  0  0  0  0
  190.4380  178.9170  143.9880 C   0  0  2  0  0  3  0  0  0  0  0  0
  188.8260  177.2240  138.0240 C   0  0  0  0  0  3  0  0  0  0  0  0
  190.6810  175.7370  138.0540 F   0  0  0  0  0  0  0  0  0  0  0  0
  187.1390  179.0470  140.7460 O   0  0  0  0  0  1  0  0  0  0  0  0
  189.9310  176.6890  140.1140 C   0  0  0  0  0  0  0  0  0  0  0  0
  190.9290  176.0030  140.7990 O   0  0  0  0  0  1  0  0  0  0  0  0
  189.0330  177.5270  140.8060 C   0  0  0  0  0  0  0  0  0  0  0  0
  189.8220  176.5410  138.7260 C   0  0  0  0  0  0  0  0  0  0  0  0
  187.9360  178.0560  138.7040 C   0  0  0  0  0  3  0  0  0  0  0  0
  188.0360  178.2110  140.0900 C   0  0  0  0  0  0  0  0  0  0  0  0
  183.3110  178.6290  144.3940 C   0  0  0  0  0  3  0  0  0  0  0  0
  186.0550  178.1320  144.1450 C   0  0  0  0  0  0  0  0  0  0  0  0
  185.4950  178.3830  145.4070 C   0  0  0  0  0  3  0  0  0  0  0  0
  184.1250  178.6310  145.5300 C   0  0  0  0  0  3  0  0  0  0  0  0
  183.8650  178.3800  143.1360 C   0  0  0  0  0  3  0  0  0  0  0  0
  185.2350  178.1320  143.0110 C   0  0  0  0  0  3  0  0  0  0  0  0
  190.8290  176.1070  146.3010 C   0  0  0  0  0  2  0  0  0  0  0  0
  191.6800  176.3800  145.0810 C   0  0  0  0  0  2  0  0  0  0  0  0
  190.1760  176.5680  145.0110 C   0  0  0  0  0  3  0  0  0  0  0  0
  2  4  1  0  0  0  0
  3  9  1  0  0  0  0
  4 20  1  1  0  0  0
  4  5  1  0  0  0  0
  5  1  1  1  0  0  0
  6 15  1  6  0  0  0
  6  3  1  0  0  0  0
  6  2  1  0  0  0  0
  8 27  1  6  0  0  0
  8  5  1  0  0  0  0
  9  7  1  1  0  0  0
  9  8  1  0  0  0  0
 10 17  2  0  0  0  0
 10 16  1  0  0  0  0
 11 16  1  0  0  0  0
 13 14  1  0  0  0  0
 13 15  1  0  0  0  0
 16 13  2  0  0  0  0
 17 18  1  0  0  0  0
 18 12  1  0  0  0  0
 18 15  2  0  0  0  0
 19 22  1  0  0  0  0
 20 21  1  0  0  0  0
 21 22  2  0  0  0  0
 23 19  2  0  0  0  0
 24 23  1  0  0  0  0
 24 20  2  0  0  0  0
 26 25  1  0  0  0  0
 27 26  1  0  0  0  0
 27 25  1  0  0  0  0
M  END
>  <MODEL>
3

>  <REMARK>
 VINA RESULT:      -8.3      0.933      1.868
  Name = 
  3 active torsions:
  status: ('A' for Active; 'I' for Inactive)
    1  A    between atoms: C_9  and  C_15
    2  A    between atoms: C_14  and  C_19
    3  A    between atoms: C_22  and  C_24
                            x       y       z     vdW  Elec       q    Type
                         _______ _______ _______ _____ _____    ______ ____

>  <TORSDO>
F 3

$$$$
=
 OpenBabel10262420003D

 27 30  0  0  1  0  0  0  0  0999 V2000
  181.0040  179.8290  143.1440 O   0  0  0  0  0  1  0  0  0  0  0  0
  182.9970  177.6190  140.9560 N   0  0  0  0  0  2  0  0  0  0  0  0
  181.3760  177.6300  139.1430 N   0  0  0  0  0  2  0  0  0  0  0  0
  182.7280  178.7400  141.8490 C   0  0  1  0  0  3  0  0  0  0  0  0
  181.2430  178.7800  142.2530 C   0  0  2  0  0  3  0  0  0  0  0  0
  182.6970  178.0800  139.6060 C   0  0  2  0  0  3  0  0  0  0  0  0
  179.0070  177.2700  139.6050 C   0  0  0  0  0  1  0  0  0  0  0  0
  180.2840  178.8760  141.0550 C   0  0  2  0  0  3  0  0  0  0  0  0
  180.3610  177.5940  140.2050 C   0  0  2  0  0  3  0  0  0  0  0  0
  185.8000  176.8700  136.8740 C   0  0  0  0  0  3  0  0  0  0  0  0
  184.6710  174.8130  136.4870 F   0  0  0  0  0  0  0  0  0  0  0  0
  184.9430  179.7340  139.0290 O   0  0  0  0  0  1  0  0  0  0  0  0
  183.7060  176.3930  138.0000 C   0  0  0  0  0  0  0  0  0  0  0  0
  182.6410  175.5270  138.2300 O   0  0  0  0  0  1  0  0  0  0  0  0
  183.7680  177.6430  138.6480 C   0  0  0  0  0  0  0  0  0  0  0  0
  184.7230  176.0130  137.1150 C   0  0  0  0  0  0  0  0  0  0  0  0
  185.8650  178.1080  137.5160 C   0  0  0  0  0  3  0  0  0  0  0  0
  184.8560  178.4970  138.4010 C   0  0  0  0  0  0  0  0  0  0  0  0
  185.3340  178.4870  145.2570 C   0  0  0  0  0  3  0  0  0  0  0  0
  183.6240  178.6560  143.0460 C   0  0  0  0  0  0  0  0  0  0  0  0
  183.1320  178.8940  144.3380 C   0  0  0  0  0  3  0  0  0  0  0  0
  183.9860  178.8100  145.4400 C   0  0  0  0  0  3  0  0  0  0  0  0
  185.8270  178.2500  143.9710 C   0  0  0  0  0  3  0  0  0  0  0  0
  184.9730  178.3340  142.8670 C   0  0  0  0  0  3  0  0  0  0  0  0
  179.4200  181.1880  140.6870 C   0  0  0  0  0  2  0  0  0  0  0  0
  179.2180  180.4180  139.4010 C   0  0  0  0  0  2  0  0  0  0  0  0
  180.4530  180.1680  140.2460 C   0  0  0  0  0  3  0  0  0  0  0  0
  2  4  1  0  0  0  0
  3  6  1  0  0  0  0
  3  9  1  0  0  0  0
  4  5  1  0  0  0  0
  4 20  1  1  0  0  0
  5  1  1  1  0  0  0
  6 15  1  6  0  0  0
  6  2  1  0  0  0  0
  8 27  1  6  0  0  0
  8  5  1  0  0  0  0
  9  7  1  6  0  0  0
  9  8  1  0  0  0  0
 10 16  2  0  0  0  0
 10 17  1  0  0  0  0
 11 16  1  0  0  0  0
 13 14  1  0  0  0  0
 13 15  2  0  0  0  0
 16 13  1  0  0  0  0
 17 18  2  0  0  0  0
 18 15  1  0  0  0  0
 18 12  1  0  0  0  0
 19 22  1  0  0  0  0
 20 21  1  0  0  0  0
 21 22  2  0  0  0  0
 23 19  2  0  0  0  0
 24 20  2  0  0  0  0
 24 23  1  0  0  0  0
 26 27  1  0  0  0  0
 26 25  1  0  0  0  0
 27 25  1  0  0  0  0
M  END
>  <MODEL>
4

>  <REMARK>
 VINA RESULT:      -8.3      4.341      7.474
  Name = 
  3 active torsions:
  status: ('A' for Active; 'I' for Inactive)
    1  A    between atoms: C_9  and  C_15
    2  A    between atoms: C_14  and  C_19
    3  A    between atoms: C_22  and  C_24
                            x       y       z     vdW  Elec       q    Type
                         _______ _______ _______ _____ _____    ______ ____

>  <TORSDO>
F 3

$$$$
=
 OpenBabel10262420003D

 27 30  0  0  1  0  0  0  0  0999 V2000
  191.6350  176.6250  140.2350 O   0  0  0  0  0  1  0  0  0  0  0  0
  188.6380  178.4790  141.3410 N   0  0  0  0  0  2  0  0  0  0  0  0
  187.6700  178.6280  139.1150 N   0  0  0  0  0  2  0  0  0  0  0  0
  189.6540  177.4320  141.3560 C   0  0  1  0  0  3  0  0  0  0  0  0
  190.6400  177.6050  140.1870 C   0  0  2  0  0  3  0  0  0  0  0  0
  187.5790  178.0200  140.4510 C   0  0  2  0  0  3  0  0  0  0  0  0
  189.0430  179.3160  137.2180 C   0  0  0  0  0  1  0  0  0  0  0  0
  189.9620  177.6000  138.8070 C   0  0  2  0  0  3  0  0  0  0  0  0
  189.0510  178.8320  138.6540 C   0  0  2  0  0  3  0  0  0  0  0  0
  183.7300  178.7560  142.2390 C   0  0  0  0  0  3  0  0  0  0  0  0
  182.8780  179.4690  140.1360 F   0  0  0  0  0  0  0  0  0  0  0  0
  187.0760  177.5610  143.2170 O   0  0  0  0  0  1  0  0  0  0  0  0
  185.1580  178.7660  140.2800 C   0  0  0  0  0  0  0  0  0  0  0  0
  185.3250  179.0160  138.9210 O   0  0  0  0  0  1  0  0  0  0  0  0
  186.2300  178.2790  141.0560 C   0  0  0  0  0  0  0  0  0  0  0  0
  183.9130  179.0010  140.8760 C   0  0  0  0  0  0  0  0  0  0  0  0
  184.7880  178.2760  143.0110 C   0  0  0  0  0  3  0  0  0  0  0  0
  186.0360  178.0380  142.4270 C   0  0  0  0  0  0  0  0  0  0  0  0
  191.6810  177.4810  145.1450 C   0  0  0  0  0  3  0  0  0  0  0  0
  190.3580  177.4340  142.6770 C   0  0  0  0  0  0  0  0  0  0  0  0
  190.5820  176.2410  143.3810 C   0  0  0  0  0  3  0  0  0  0  0  0
  191.2420  176.2660  144.6120 C   0  0  0  0  0  3  0  0  0  0  0  0
  191.4590  178.6720  144.4470 C   0  0  0  0  0  3  0  0  0  0  0  0
  190.7990  178.6480  143.2140 C   0  0  0  0  0  3  0  0  0  0  0  0
  190.1630  175.4360  137.5800 C   0  0  0  0  0  2  0  0  0  0  0  0
  188.9900  176.1860  136.9880 C   0  0  0  0  0  2  0  0  0  0  0  0
  189.2680  176.2730  138.4770 C   0  0  0  0  0  3  0  0  0  0  0  0
  2  4  1  0  0  0  0
  3  6  1  0  0  0  0
  4 20  1  1  0  0  0
  5  1  1  6  0  0  0
  5  4  1  0  0  0  0
  6 15  1  1  0  0  0
  6  2  1  0  0  0  0
  8 27  1  1  0  0  0
  8  5  1  0  0  0  0
  9  7  1  6  0  0  0
  9  8  1  0  0  0  0
  9  3  1  0  0  0  0
 10 17  1  0  0  0  0
 11 16  1  0  0  0  0
 13 16  1  0  0  0  0
 13 15  2  0  0  0  0
 14 13  1  0  0  0  0
 15 18  1  0  0  0  0
 16 10  2  0  0  0  0
 18 17  2  0  0  0  0
 18 12  1  0  0  0  0
 20 24  2  0  0  0  0
 20 21  1  0  0  0  0
 21 22  2  0  0  0  0
 22 19  1  0  0  0  0
 23 19  2  0  0  0  0
 24 23  1  0  0  0  0
 25 27  1  0  0  0  0
 26 25  1  0  0  0  0
 26 27  1  0  0  0  0
M  END
>  <MODEL>
5

>  <REMARK>
 VINA RESULT:      -8.2      1.919      5.818
  Name = 
  3 active torsions:
  status: ('A' for Active; 'I' for Inactive)
    1  A    between atoms: C_9  and  C_15
    2  A    between atoms: C_14  and  C_19
    3  A    between atoms: C_22  and  C_24
                            x       y       z     vdW  Elec       q    Type
                         _______ _______ _______ _____ _____    ______ ____

>  <TORSDO>
F 3

$$$$
=
 OpenBabel10262420003D

 27 30  0  0  1  0  0  0  0  0999 V2000
  181.0790  179.8080  143.2180 O   0  0  0  0  0  1  0  0  0  0  0  0
  183.0180  177.5460  141.0350 N   0  0  0  0  0  2  0  0  0  0  0  0
  181.3400  177.4900  139.2760 N   0  0  0  0  0  2  0  0  0  0  0  0
  182.7690  178.6930  141.9020 C   0  0  1  0  0  3  0  0  0  0  0  0
  181.2970  178.7340  142.3520 C   0  0  2  0  0  3  0  0  0  0  0  0
  182.6720  177.9630  139.6820 C   0  0  2  0  0  3  0  0  0  0  0  0
  178.9890  177.1270  139.8250 C   0  0  0  0  0  1  0  0  0  0  0  0
  180.2990  178.7860  141.1840 C   0  0  2  0  0  3  0  0  0  0  0  0
  180.3590  177.4790  140.3710 C   0  0  2  0  0  3  0  0  0  0  0  0
  185.6320  176.6050  136.8640 C   0  0  0  0  0  3  0  0  0  0  0  0
  186.7970  178.6670  137.0780 F   0  0  0  0  0  0  0  0  0  0  0  0
  182.5410  175.3920  138.4630 O   0  0  0  0  0  1  0  0  0  0  0  0
  184.7980  178.3330  138.3460 C   0  0  0  0  0  0  0  0  0  0  0  0
  184.9310  179.6040  138.8970 O   0  0  0  0  0  1  0  0  0  0  0  0
  183.7140  177.5050  138.7040 C   0  0  0  0  0  0  0  0  0  0  0  0
  185.7520  177.8780  137.4280 C   0  0  0  0  0  0  0  0  0  0  0  0
  184.5600  175.7830  137.2150 C   0  0  0  0  0  3  0  0  0  0  0  0
  183.6020  176.2280  138.1300 C   0  0  0  0  0  0  0  0  0  0  0  0
  185.4830  178.5600  145.2300 C   0  0  0  0  0  3  0  0  0  0  0  0
  183.7030  178.6510  143.0710 C   0  0  0  0  0  0  0  0  0  0  0  0
  183.2690  179.0030  144.3590 C   0  0  0  0  0  3  0  0  0  0  0  0
  184.1590  178.9570  145.4350 C   0  0  0  0  0  3  0  0  0  0  0  0
  185.9190  178.2090  143.9500 C   0  0  0  0  0  3  0  0  0  0  0  0
  185.0300  178.2540  142.8710 C   0  0  0  0  0  3  0  0  0  0  0  0
  179.3610  181.0530  140.7280 C   0  0  0  0  0  2  0  0  0  0  0  0
  179.1960  180.2320  139.4680 C   0  0  0  0  0  2  0  0  0  0  0  0
  180.4320  180.0530  140.3310 C   0  0  0  0  0  3  0  0  0  0  0  0
  2  4  1  0  0  0  0
  3  6  1  0  0  0  0
  3  9  1  0  0  0  0
  4  5  1  0  0  0  0
  4 20  1  1  0  0  0
  5  1  1  1  0  0  0
  6 15  1  6  0  0  0
  6  2  1  0  0  0  0
  8 27  1  6  0  0  0
  8  5  1  0  0  0  0
  9  7  1  6  0  0  0
  9  8  1  0  0  0  0
 10 17  2  0  0  0  0
 10 16  1  0  0  0  0
 11 16  1  0  0  0  0
 13 15  1  0  0  0  0
 13 14  1  0  0  0  0
 16 13  2  0  0  0  0
 17 18  1  0  0  0  0
 18 12  1  0  0  0  0
 18 15  2  0  0  0  0
 19 22  1  0  0  0  0
 20 21  1  0  0  0  0
 21 22  2  0  0  0  0
 23 19  2  0  0  0  0
 24 20  2  0  0  0  0
 24 23  1  0  0  0  0
 26 27  1  0  0  0  0
 26 25  1  0  0  0  0
 27 25  1  0  0  0  0
M  END
>  <MODEL>
6

>  <REMARK>
 VINA RESULT:      -8.1      4.228      7.391
  Name = 
  3 active torsions:
  status: ('A' for Active; 'I' for Inactive)
    1  A    between atoms: C_9  and  C_15
    2  A    between atoms: C_14  and  C_19
    3  A    between atoms: C_22  and  C_24
                            x       y       z     vdW  Elec       q    Type
                         _______ _______ _______ _____ _____    ______ ____

>  <TORSDO>
F 3

$$$$
=
 OpenBabel10262420003D

 27 30  0  0  1  0  0  0  0  0999 V2000
  188.3340  178.6400  140.2280 O   0  0  0  0  0  1  0  0  0  0  0  0
  190.4720  175.7450  139.3980 N   0  0  0  0  0  2  0  0  0  0  0  0
  189.7420  175.6230  137.0820 N   0  0  0  0  0  2  0  0  0  0  0  0
  190.1340  177.0560  139.9410 C   0  0  1  0  0  3  0  0  0  0  0  0
  188.6610  177.4040  139.6650 C   0  0  2  0  0  3  0  0  0  0  0  0
  190.8400  175.9530  138.0030 C   0  0  2  0  0  3  0  0  0  0  0  0
  187.3670  175.7320  136.5310 C   0  0  0  0  0  1  0  0  0  0  0  0
  188.2970  177.3920  138.1710 C   0  0  2  0  0  3  0  0  0  0  0  0
  188.4110  175.9650  137.6040 C   0  0  2  0  0  3  0  0  0  0  0  0
  194.4050  173.7390  137.0400 C   0  0  0  0  0  3  0  0  0  0  0  0
  193.0810  171.9600  136.1810 F   0  0  0  0  0  0  0  0  0  0  0  0
  193.4470  176.9690  138.5330 O   0  0  0  0  0  1  0  0  0  0  0  0
  191.9860  173.8940  137.0610 C   0  0  0  0  0  0  0  0  0  0  0  0
  190.7480  173.3290  136.7720 O   0  0  0  0  0  1  0  0  0  0  0  0
  192.0710  175.1690  137.6570 C   0  0  0  0  0  0  0  0  0  0  0  0
  193.1550  173.1860  136.7540 C   0  0  0  0  0  0  0  0  0  0  0  0
  194.4940  175.0000  137.6320 C   0  0  0  0  0  3  0  0  0  0  0  0
  193.3340  175.7150  137.9420 C   0  0  0  0  0  0  0  0  0  0  0  0
  190.9850  177.1260  144.1530 C   0  0  0  0  0  3  0  0  0  0  0  0
  190.4440  177.0890  141.4060 C   0  0  0  0  0  0  0  0  0  0  0  0
  191.5800  177.7530  141.8920 C   0  0  0  0  0  3  0  0  0  0  0  0
  191.8490  177.7710  143.2630 C   0  0  0  0  0  3  0  0  0  0  0  0
  189.8530  176.4630  143.6720 C   0  0  0  0  0  3  0  0  0  0  0  0
  189.5820  176.4450  142.3000 C   0  0  0  0  0  3  0  0  0  0  0  0
  188.0790  179.4570  136.7870 C   0  0  0  0  0  2  0  0  0  0  0  0
  188.6420  178.3720  135.8970 C   0  0  0  0  0  2  0  0  0  0  0  0
  189.0570  178.4450  137.3540 C   0  0  0  0  0  3  0  0  0  0  0  0
  2  4  1  0  0  0  0
  3  9  1  0  0  0  0
  3  6  1  0  0  0  0
  4 20  1  1  0  0  0
  5  4  1  0  0  0  0
  5  1  1  6  0  0  0
  6 15  1  6  0  0  0
  6  2  1  0  0  0  0
  8 27  1  6  0  0  0
  8  5  1  0  0  0  0
  9  7  1  6  0  0  0
  9  8  1  0  0  0  0
 10 17  1  0  0  0  0
 11 16  1  0  0  0  0
 13 15  2  0  0  0  0
 14 13  1  0  0  0  0
 15 18  1  0  0  0  0
 16 10  2  0  0  0  0
 16 13  1  0  0  0  0
 17 18  2  0  0  0  0
 18 12  1  0  0  0  0
 20 21  2  0  0  0  0
 20 24  1  0  0  0  0
 21 22  1  0  0  0  0
 22 19  2  0  0  0  0
 23 19  1  0  0  0  0
 24 23  2  0  0  0  0
 25 27  1  0  0  0  0
 26 25  1  0  0  0  0
 26 27  1  0  0  0  0
M  END
>  <MODEL>
7

>  <REMARK>
 VINA RESULT:      -7.8      3.936      6.894
  Name = 
  3 active torsions:
  status: ('A' for Active; 'I' for Inactive)
    1  A    between atoms: C_9  and  C_15
    2  A    between atoms: C_14  and  C_19
    3  A    between atoms: C_22  and  C_24
                            x       y       z     vdW  Elec       q    Type
                         _______ _______ _______ _____ _____    ______ ____

>  <TORSDO>
F 3

$$$$
=
 OpenBabel10262420003D

 27 30  0  0  1  0  0  0  0  0999 V2000
  191.7720  177.7940  140.6530 O   0  0  0  0  0  1  0  0  0  0  0  0
  188.1670  177.2380  141.2300 N   0  0  0  0  0  2  0  0  0  0  0  0
  188.3410  177.3430  143.6540 N   0  0  0  0  0  2  0  0  0  0  0  0
  189.3580  177.8350  140.6360 C   0  0  1  0  0  3  0  0  0  0  0  0
  190.6370  177.2500  141.2600 C   0  0  2  0  0  3  0  0  0  0  0  0
  187.8690  178.0100  142.4310 C   0  0  2  0  0  3  0  0  0  0  0  0
  190.0880  176.0990  144.8190 C   0  0  0  0  0  1  0  0  0  0  0  0
  190.7160  177.4330  142.7840 C   0  0  2  0  0  3  0  0  0  0  0  0
  189.6080  176.6190  143.4780 C   0  0  2  0  0  3  0  0  0  0  0  0
  183.6490  178.8440  142.6390 C   0  0  0  0  0  3  0  0  0  0  0  0
  183.6400  178.2780  144.9490 F   0  0  0  0  0  0  0  0  0  0  0  0
  186.3790  178.8780  140.1640 O   0  0  0  0  0  1  0  0  0  0  0  0
  185.6960  178.1470  143.7350 C   0  0  0  0  0  0  0  0  0  0  0  0
  186.3530  177.7260  144.8870 O   0  0  0  0  0  1  0  0  0  0  0  0
  186.3990  178.2990  142.5230 C   0  0  0  0  0  0  0  0  0  0  0  0
  184.3230  178.4220  143.7870 C   0  0  0  0  0  0  0  0  0  0  0  0
  184.3410  178.9940  141.4360 C   0  0  0  0  0  3  0  0  0  0  0  0
  185.7110  178.7230  141.3740 C   0  0  0  0  0  0  0  0  0  0  0  0
  189.2670  177.3250  136.3700 C   0  0  0  0  0  3  0  0  0  0  0  0
  189.3290  177.6420  139.1520 C   0  0  0  0  0  0  0  0  0  0  0  0
  189.5410  176.3780  138.5800 C   0  0  0  0  0  3  0  0  0  0  0  0
  189.5100  176.2210  137.1920 C   0  0  0  0  0  3  0  0  0  0  0  0
  189.0550  178.5850  136.9350 C   0  0  0  0  0  3  0  0  0  0  0  0
  189.0860  178.7440  138.3240 C   0  0  0  0  0  3  0  0  0  0  0  0
  192.0560  179.1740  143.9690 C   0  0  0  0  0  2  0  0  0  0  0  0
  190.7600  179.0030  144.7300 C   0  0  0  0  0  2  0  0  0  0  0  0
  190.7660  178.9040  143.2160 C   0  0  0  0  0  3  0  0  0  0  0  0
  2  6  1  0  0  0  0
  4 20  1  6  0  0  0
  4  2  1  0  0  0  0
  4  5  1  0  0  0  0
  5  1  1  6  0  0  0
  5  8  1  0  0  0  0
  6 15  1  1  0  0  0
  6  3  1  0  0  0  0
  8 27  1  6  0  0  0
  8  9  1  0  0  0  0
  9  3  1  0  0  0  0
  9  7  1  1  0  0  0
 10 16  1  0  0  0  0
 12 18  1  0  0  0  0
 13 16  2  0  0  0  0
 13 14  1  0  0  0  0
 15 13  1  0  0  0  0
 16 11  1  0  0  0  0
 17 10  2  0  0  0  0
 18 17  1  0  0  0  0
 18 15  2  0  0  0  0
 19 23  2  0  0  0  0
 19 22  1  0  0  0  0
 21 20  1  0  0  0  0
 22 21  2  0  0  0  0
 23 24  1  0  0  0  0
 24 20  2  0  0  0  0
 25 26  1  0  0  0  0
 27 25  1  0  0  0  0
 27 26  1  0  0  0  0
M  END
>  <MODEL>
8

>  <REMARK>
 VINA RESULT:      -7.8      2.050      5.653
  Name = 
  3 active torsions:
  status: ('A' for Active; 'I' for Inactive)
    1  A    between atoms: C_9  and  C_15
    2  A    between atoms: C_14  and  C_19
    3  A    between atoms: C_22  and  C_24
                            x       y       z     vdW  Elec       q    Type
                         _______ _______ _______ _____ _____    ______ ____

>  <TORSDO>
F 3

$$$$
=
 OpenBabel10262420003D

 27 30  0  0  1  0  0  0  0  0999 V2000
  191.8680  177.7900  140.6750 O   0  0  0  0  0  1  0  0  0  0  0  0
  188.2550  177.2110  141.1790 N   0  0  0  0  0  2  0  0  0  0  0  0
  188.3760  177.3390  143.6050 N   0  0  0  0  0  2  0  0  0  0  0  0
  189.4540  177.8120  140.6050 C   0  0  1  0  0  3  0  0  0  0  0  0
  190.7240  177.2430  141.2620 C   0  0  2  0  0  3  0  0  0  0  0  0
  187.9250  177.9900  142.3660 C   0  0  2  0  0  3  0  0  0  0  0  0
  190.1070  176.1200  144.8190 C   0  0  0  0  0  1  0  0  0  0  0  0
  190.7680  177.4410  142.7860 C   0  0  2  0  0  3  0  0  0  0  0  0
  189.6520  176.6240  143.4640 C   0  0  2  0  0  3  0  0  0  0  0  0
  183.6980  178.7850  142.5850 C   0  0  0  0  0  3  0  0  0  0  0  0
  183.6700  179.3340  140.2710 F   0  0  0  0  0  0  0  0  0  0  0  0
  186.4520  177.7180  144.7880 O   0  0  0  0  0  1  0  0  0  0  0  0
  185.7380  178.6810  141.2790 C   0  0  0  0  0  0  0  0  0  0  0  0
  186.3870  178.8390  140.0580 O   0  0  0  0  0  1  0  0  0  0  0  0
  186.4510  178.2690  142.4230 C   0  0  0  0  0  0  0  0  0  0  0  0
  184.3630  178.9370  141.3660 C   0  0  0  0  0  0  0  0  0  0  0  0
  184.4010  178.3780  143.7200 C   0  0  0  0  0  3  0  0  0  0  0  0
  185.7720  178.1210  143.6440 C   0  0  0  0  0  0  0  0  0  0  0  0
  189.4570  177.2610  136.3430 C   0  0  0  0  0  3  0  0  0  0  0  0
  189.4590  177.6050  139.1220 C   0  0  0  0  0  0  0  0  0  0  0  0
  189.7540  176.3510  138.5660 C   0  0  0  0  0  3  0  0  0  0  0  0
  189.7530  176.1810  137.1790 C   0  0  0  0  0  3  0  0  0  0  0  0
  189.1630  178.5110  136.8940 C   0  0  0  0  0  3  0  0  0  0  0  0
  189.1640  178.6830  138.2810 C   0  0  0  0  0  3  0  0  0  0  0  0
  192.0550  179.1970  144.0050 C   0  0  0  0  0  2  0  0  0  0  0  0
  190.7310  179.0300  144.7170 C   0  0  0  0  0  2  0  0  0  0  0  0
  190.7970  178.9160  143.2050 C   0  0  0  0  0  3  0  0  0  0  0  0
  2  6  1  0  0  0  0
  4 20  1  6  0  0  0
  4  2  1  0  0  0  0
  4  5  1  0  0  0  0
  5  1  1  6  0  0  0
  5  8  1  0  0  0  0
  6 15  1  1  0  0  0
  6  3  1  0  0  0  0
  8 27  1  6  0  0  0
  8  9  1  0  0  0  0
  9  3  1  0  0  0  0
  9  7  1  1  0  0  0
 10 17  1  0  0  0  0
 11 16  1  0  0  0  0
 13 16  1  0  0  0  0
 13 15  2  0  0  0  0
 14 13  1  0  0  0  0
 15 18  1  0  0  0  0
 16 10  2  0  0  0  0
 18 17  2  0  0  0  0
 18 12  1  0  0  0  0
 19 23  2  0  0  0  0
 19 22  1  0  0  0  0
 21 20  1  0  0  0  0
 22 21  2  0  0  0  0
 23 24  1  0  0  0  0
 24 20  2  0  0  0  0
 25 26  1  0  0  0  0
 27 25  1  0  0  0  0
 27 26  1  0  0  0  0
M  END
>  <MODEL>
9

>  <REMARK>
 VINA RESULT:      -7.8      1.630      5.491
  Name = 
  3 active torsions:
  status: ('A' for Active; 'I' for Inactive)
    1  A    between atoms: C_9  and  C_15
    2  A    between atoms: C_14  and  C_19
    3  A    between atoms: C_22  and  C_24
                            x       y       z     vdW  Elec       q    Type
                         _______ _______ _______ _____ _____    ______ ____

>  <TORSDO>
F 3

$$$$
