=
 OpenBabel10262419093D

 34 40  0  0  1  0  0  0  0  0999 V2000
  188.9360  177.1510  146.3380 C   0  0  0  0  0  0  0  0  0  0  0  0
  190.7550  176.9760  144.6880 C   0  0  0  0  0  0  0  0  0  0  0  0
  188.4870  177.4550  143.9790 C   0  0  0  0  0  0  0  0  0  0  0  0
  188.2740  177.7390  141.6290 C   0  0  0  0  0  0  0  0  0  0  0  0
  191.2070  176.6780  147.0520 C   0  0  0  0  0  3  0  0  0  0  0  0
  191.6580  176.7190  145.7230 C   0  0  0  0  0  3  0  0  0  0  0  0
  190.2430  177.2920  142.4180 C   0  0  0  0  0  0  0  0  0  0  0  0
  189.3890  177.1910  145.0120 C   0  0  2  0  0  3  0  0  0  0  0  0
  189.1240  177.7180  140.5210 C   0  0  0  0  0  3  0  0  0  0  0  0
  189.8530  176.8930  147.3600 C   0  0  0  0  0  3  0  0  0  0  0  0
  187.1230  177.6880  144.2150 C   0  0  0  0  0  0  0  0  0  0  0  0
  187.5760  177.3760  146.6060 C   0  0  0  0  0  3  0  0  0  0  0  0
  191.1710  177.0310  143.3800 N   0  0  0  0  0  0  0  0  0  0  0  0
  186.7980  178.0050  141.7120 C   0  0  0  0  0  3  0  0  0  0  0  0
  186.2910  177.9510  143.1670 C   0  0  0  0  0  0  0  0  0  0  0  0
  190.3930  177.4180  141.0500 C   0  0  0  0  0  0  0  0  0  0  0  0
  188.9690  177.4920  142.7310 N   0  0  0  0  0  0  0  0  0  0  0  0
  186.6770  177.6430  145.5540 C   0  0  0  0  0  3  0  0  0  0  0  0
  182.6470  178.6870  142.2870 C   0  0  0  0  0  0  0  0  0  0  0  0
  182.3130  179.5010  143.3760 O   0  0  0  0  0  0  0  0  0  0  0  0
  184.8300  178.2020  143.4090 C   0  0  2  0  0  3  0  0  0  0  0  0
  183.1430  179.6130  144.5330 C   0  0  0  0  0  2  0  0  0  0  0  0
  184.0500  178.1940  142.0960 C   0  0  0  0  0  2  0  0  0  0  0  0
  184.6160  179.5090  144.1640 C   0  0  0  0  0  2  0  0  0  0  0  0
  181.7820  178.4470  141.4050 O   0  0  0  0  0  0  0  0  0  0  0  0
  191.6650  177.3250  140.2800 C   0  0  0  0  0  2  0  0  0  0  0  0
  191.3610  177.1560  138.8010 C   0  0  0  0  0  2  0  0  0  0  0  0
  190.1960  174.8420  137.1720 C   0  0  0  0  0  1  0  0  0  0  0  0
  192.0120  175.8910  138.2550 C   0  0  1  0  0  3  0  0  0  0  0  0
  191.4320  175.5710  136.9390 N   0  0  0  0  0  0  0  0  0  0  0  0
  193.6670  175.3220  135.9250 C   0  0  0  0  0  2  0  0  0  0  0  0
  193.9320  176.4530  136.8190 N   0  0  0  0  0  2  0  0  0  0  0  0
  193.5380  176.0910  138.1770 C   0  0  0  0  0  2  0  0  0  0  0  0
  192.3110  174.6610  136.2070 C   0  0  0  0  0  2  0  0  0  0  0  0
  1 12  1  0  0  0  0
  1 10  2  0  0  0  0
  2  8  1  0  0  0  0
  2  6  1  0  0  0  0
  3 11  2  0  0  0  0
  4 14  1  0  0  0  0
  4 17  1  0  0  0  0
  5 10  1  0  0  0  0
  6  5  2  0  0  0  0
  7 17  1  0  0  0  0
  7 13  1  0  0  0  0
  8  3  1  1  0  0  0
  8  1  1  0  0  0  0
  9 16  1  0  0  0  0
  9  4  2  0  0  0  0
 11 18  1  0  0  0  0
 13  2  2  0  0  0  0
 14 15  2  0  0  0  0
 15 11  1  0  0  0  0
 16  7  2  0  0  0  0
 17  3  1  0  0  0  0
 18 12  2  0  0  0  0
 19 20  1  0  0  0  0
 20 22  1  0  0  0  0
 21 15  1  6  0  0  0
 21 24  1  0  0  0  0
 23 19  1  0  0  0  0
 23 21  1  0  0  0  0
 24 22  1  0  0  0  0
 25 19  2  0  0  0  0
 26 16  1  0  0  0  0
 27 26  1  0  0  0  0
 29 27  1  6  0  0  0
 30 28  1  0  0  0  0
 30 29  1  0  0  0  0
 31 34  1  0  0  0  0
 31 32  1  0  0  0  0
 32 33  1  0  0  0  0
 33 29  1  0  0  0  0
 34 30  1  0  0  0  0
M  END
>  <MODEL>
1

>  <REMARK>
 VINA RESULT:     -11.0      0.000      0.000
  Name = 
  4 active torsions:
  status: ('A' for Active; 'I' for Inactive)
    1  A    between atoms: C_3  and  C_13
    2  A    between atoms: C_3  and  C_17
    3  A    between atoms: C_12  and  C_28
    4  A    between atoms: C_17  and  C_29
                            x       y       z     vdW  Elec       q    Type
                         _______ _______ _______ _____ _____    ______ ____

>  <TORSDO>
F 4

$$$$
=
 OpenBabel10262419093D

 34 40  0  0  1  0  0  0  0  0999 V2000
  185.3300  178.2380  143.4930 C   0  0  0  0  0  0  0  0  0  0  0  0
  185.7860  178.6120  141.1020 C   0  0  0  0  0  0  0  0  0  0  0  0
  187.5610  177.9270  142.6050 C   0  0  0  0  0  0  0  0  0  0  0  0
  189.6600  177.6580  141.5250 C   0  0  0  0  0  0  0  0  0  0  0  0
  183.5500  178.9180  141.9890 C   0  0  0  0  0  3  0  0  0  0  0  0
  184.4430  178.9390  140.9060 C   0  0  0  0  0  3  0  0  0  0  0  0
  187.9740  178.2810  140.3140 C   0  0  0  0  0  0  0  0  0  0  0  0
  186.2190  178.2610  142.4090 C   0  0  0  0  0  0  0  0  0  0  0  0
  190.1580  177.7770  140.2250 C   0  0  0  0  0  3  0  0  0  0  0  0
  183.9900  178.5690  143.2770 C   0  0  0  0  0  3  0  0  0  0  0  0
  188.0650  177.5590  143.8620 C   0  0  0  0  0  0  0  0  0  0  0  0
  185.8070  177.8780  144.7640 C   0  0  0  0  0  3  0  0  0  0  0  0
  186.6780  178.6170  140.0580 N   0  0  0  0  0  0  0  0  0  0  0  0
  190.3530  177.2490  142.7930 C   0  0  0  0  0  2  0  0  0  0  0  0
  189.3840  177.2320  143.9910 C   0  0  0  0  0  0  0  0  0  0  0  0
  189.0530  178.1910  139.4570 C   0  0  0  0  0  0  0  0  0  0  0  0
  188.3680  177.9550  141.5380 N   0  0  0  0  0  0  0  0  0  0  0  0
  187.1630  177.5410  144.9470 C   0  0  0  0  0  3  0  0  0  0  0  0
  190.1990  177.5780  147.7080 C   0  0  0  0  0  0  0  0  0  0  0  0
  191.4500  176.9490  147.7220 O   0  0  0  0  0  0  0  0  0  0  0  0
  189.9340  176.8380  145.3320 C   0  0  2  0  0  3  0  0  0  0  0  0
  191.9340  176.1760  146.6230 C   0  0  0  0  0  2  0  0  0  0  0  0
  189.4660  177.8030  146.4190 C   0  0  0  0  0  2  0  0  0  0  0  0
  191.4560  176.7510  145.2960 C   0  0  0  0  0  2  0  0  0  0  0  0
  189.7280  178.0460  148.7760 O   0  0  0  0  0  0  0  0  0  0  0  0
  189.0450  178.4170  137.9850 C   0  0  0  0  0  2  0  0  0  0  0  0
  189.0920  177.0840  137.2580 C   0  0  0  0  0  2  0  0  0  0  0  0
  188.6870  175.0620  134.9960 C   0  0  0  0  0  1  0  0  0  0  0  0
  188.0950  177.0600  136.1040 C   0  0  1  0  0  3  0  0  0  0  0  0
  187.6780  175.6710  135.8470 N   0  0  0  0  0  0  0  0  0  0  0  0
  185.2920  176.2960  135.8790 C   0  0  0  0  0  2  0  0  0  0  0  0
  185.7840  177.1680  136.9490 N   0  0  0  0  0  2  0  0  0  0  0  0
  186.8960  177.9660  136.4420 C   0  0  0  0  0  2  0  0  0  0  0  0
  186.4330  175.6500  135.0810 C   0  0  0  0  0  2  0  0  0  0  0  0
  1 12  1  0  0  0  0
  2  8  1  0  0  0  0
  3 11  1  0  0  0  0
  4 17  1  0  0  0  0
  4 14  1  0  0  0  0
  5 10  1  0  0  0  0
  6  2  1  0  0  0  0
  6  5  2  0  0  0  0
  7 17  1  0  0  0  0
  8  3  2  0  0  0  0
  8  1  1  0  0  0  0
  9  4  2  0  0  0  0
 10  1  2  0  0  0  0
 11 15  2  0  0  0  0
 11 18  1  0  0  0  0
 12 18  2  0  0  0  0
 13  7  1  0  0  0  0
 13  2  2  0  0  0  0
 14 15  1  0  0  0  0
 16  9  1  0  0  0  0
 16  7  2  0  0  0  0
 17  3  1  0  0  0  0
 19 20  1  0  0  0  0
 19 25  2  0  0  0  0
 21 15  1  6  0  0  0
 21 23  1  0  0  0  0
 22 20  1  0  0  0  0
 23 19  1  0  0  0  0
 24 21  1  0  0  0  0
 24 22  1  0  0  0  0
 26 16  1  0  0  0  0
 27 26  1  0  0  0  0
 28 30  1  0  0  0  0
 29 33  1  0  0  0  0
 29 27  1  1  0  0  0
 30 29  1  0  0  0  0
 31 32  1  0  0  0  0
 33 32  1  0  0  0  0
 34 30  1  0  0  0  0
 34 31  1  0  0  0  0
M  END
>  <MODEL>
2

>  <REMARK>
 VINA RESULT:     -10.6      3.336      6.009
  Name = 
  4 active torsions:
  status: ('A' for Active; 'I' for Inactive)
    1  A    between atoms: C_3  and  C_13
    2  A    between atoms: C_3  and  C_17
    3  A    between atoms: C_12  and  C_28
    4  A    between atoms: C_17  and  C_29
                            x       y       z     vdW  Elec       q    Type
                         _______ _______ _______ _____ _____    ______ ____

>  <TORSDO>
F 4

$$$$
=
 OpenBabel10262419093D

 34 40  0  0  1  0  0  0  0  0999 V2000
  189.9670  176.9980  145.8760 C   0  0  0  0  0  0  0  0  0  0  0  0
  187.6960  177.9090  146.1550 C   0  0  0  0  0  0  0  0  0  0  0  0
  188.6040  177.5110  143.9430 C   0  0  0  0  0  0  0  0  0  0  0  0
  187.0940  178.0600  142.1920 C   0  0  0  0  0  0  0  0  0  0  0  0
  189.0590  177.3900  148.0930 C   0  0  0  0  0  3  0  0  0  0  0  0
  187.8570  177.8630  147.5420 C   0  0  0  0  0  3  0  0  0  0  0  0
  186.4310  178.3740  144.2320 C   0  0  0  0  0  0  0  0  0  0  0  0
  188.7660  177.4710  145.3290 C   0  0  2  0  0  3  0  0  0  0  0  0
  185.7890  178.5490  142.0900 C   0  0  0  0  0  3  0  0  0  0  0  0
  190.1090  176.9590  147.2650 C   0  0  0  0  0  3  0  0  0  0  0  0
  189.6070  177.0870  143.0580 C   0  0  0  0  0  0  0  0  0  0  0  0
  190.9910  176.5710  145.0160 C   0  0  0  0  0  3  0  0  0  0  0  0
  186.5280  178.3590  145.5910 N   0  0  0  0  0  0  0  0  0  0  0  0
  188.0610  177.6500  141.1180 C   0  0  0  0  0  3  0  0  0  0  0  0
  189.3880  177.1390  141.7120 C   0  0  0  0  0  0  0  0  0  0  0  0
  185.3800  178.7550  143.4210 C   0  0  0  0  0  0  0  0  0  0  0  0
  187.4360  177.9620  143.4690 N   0  0  0  0  0  0  0  0  0  0  0  0
  190.8130  176.6140  143.6190 C   0  0  0  0  0  3  0  0  0  0  0  0
  192.7170  177.2440  139.8400 C   0  0  0  0  0  0  0  0  0  0  0  0
  192.2930  176.7450  138.6020 O   0  0  0  0  0  0  0  0  0  0  0  0
  190.4550  176.6880  140.7570 C   0  0  2  0  0  3  0  0  0  0  0  0
  191.0210  176.1220  138.4200 C   0  0  0  0  0  2  0  0  0  0  0  0
  191.7330  177.5040  140.9420 C   0  0  0  0  0  2  0  0  0  0  0  0
  189.9660  176.7580  139.3150 C   0  0  0  0  0  2  0  0  0  0  0  0
  193.9210  177.5680  139.9990 O   0  0  0  0  0  0  0  0  0  0  0  0
  184.0390  179.2290  143.8630 C   0  0  0  0  0  2  0  0  0  0  0  0
  182.9680  178.2620  143.3860 C   0  0  0  0  0  2  0  0  0  0  0  0
  182.6070  178.9530  140.4260 C   0  0  0  0  0  1  0  0  0  0  0  0
  181.8510  179.0060  142.6620 C   0  0  1  0  0  3  0  0  0  0  0  0
  181.6280  178.3890  141.3430 N   0  0  0  0  0  0  0  0  0  0  0  0
  179.1970  178.2430  141.7310 C   0  0  0  0  0  2  0  0  0  0  0  0
  179.6760  177.9280  143.0800 N   0  0  0  0  0  2  0  0  0  0  0  0
  180.5770  178.9870  143.5270 C   0  0  0  0  0  2  0  0  0  0  0  0
  180.3160  178.7690  140.8220 C   0  0  0  0  0  2  0  0  0  0  0  0
  1 10  2  0  0  0  0
  2  6  1  0  0  0  0
  4 17  1  0  0  0  0
  6  5  2  0  0  0  0
  7 13  1  0  0  0  0
  8  3  1  1  0  0  0
  8  1  1  0  0  0  0
  8  2  1  0  0  0  0
  9  4  2  0  0  0  0
  9 16  1  0  0  0  0
 10  5  1  0  0  0  0
 11 18  1  0  0  0  0
 11  3  2  0  0  0  0
 12  1  1  0  0  0  0
 13  2  2  0  0  0  0
 14 15  2  0  0  0  0
 14  4  1  0  0  0  0
 15 11  1  0  0  0  0
 16 26  1  0  0  0  0
 16  7  2  0  0  0  0
 17  3  1  0  0  0  0
 17  7  1  0  0  0  0
 18 12  2  0  0  0  0
 19 25  2  0  0  0  0
 19 23  1  0  0  0  0
 20 19  1  0  0  0  0
 21 23  1  0  0  0  0
 21 15  1  1  0  0  0
 22 20  1  0  0  0  0
 22 24  1  0  0  0  0
 24 21  1  0  0  0  0
 27 26  1  0  0  0  0
 28 30  1  0  0  0  0
 29 27  1  1  0  0  0
 29 33  1  0  0  0  0
 30 29  1  0  0  0  0
 31 32  1  0  0  0  0
 32 33  1  0  0  0  0
 34 30  1  0  0  0  0
 34 31  1  0  0  0  0
M  END
>  <MODEL>
3

>  <REMARK>
 VINA RESULT:     -10.4      3.768      8.138
  Name = 
  4 active torsions:
  status: ('A' for Active; 'I' for Inactive)
    1  A    between atoms: C_3  and  C_13
    2  A    between atoms: C_3  and  C_17
    3  A    between atoms: C_12  and  C_28
    4  A    between atoms: C_17  and  C_29
                            x       y       z     vdW  Elec       q    Type
                         _______ _______ _______ _____ _____    ______ ____

>  <TORSDO>
F 4

$$$$
=
 OpenBabel10262419093D

 34 40  0  0  1  0  0  0  0  0999 V2000
  185.1250  178.3480  143.5080 C   0  0  0  0  0  0  0  0  0  0  0  0
  185.6030  178.6270  141.1090 C   0  0  0  0  0  0  0  0  0  0  0  0
  187.3560  177.9680  142.6480 C   0  0  0  0  0  0  0  0  0  0  0  0
  189.4570  177.6240  141.5940 C   0  0  0  0  0  0  0  0  0  0  0  0
  183.3660  179.0030  141.9680 C   0  0  0  0  0  3  0  0  0  0  0  0
  184.2670  178.9700  140.8910 C   0  0  0  0  0  3  0  0  0  0  0  0
  187.7900  178.2320  140.3490 C   0  0  0  0  0  0  0  0  0  0  0  0
  186.0210  178.3170  142.4310 C   0  0  0  0  0  0  0  0  0  0  0  0
  189.9660  177.6890  140.2940 C   0  0  0  0  0  3  0  0  0  0  0  0
  183.7920  178.6930  143.2710 C   0  0  0  0  0  3  0  0  0  0  0  0
  187.8460  177.6370  143.9210 C   0  0  0  0  0  0  0  0  0  0  0  0
  185.5870  178.0260  144.7940 C   0  0  0  0  0  3  0  0  0  0  0  0
  186.5020  178.5800  140.0710 N   0  0  0  0  0  0  0  0  0  0  0  0
  190.1350  177.2500  142.8810 C   0  0  0  0  0  2  0  0  0  0  0  0
  189.1580  177.2930  144.0720 C   0  0  0  0  0  0  0  0  0  0  0  0
  188.8730  178.0930  139.5030 C   0  0  0  0  0  0  0  0  0  0  0  0
  188.1700  177.9430  141.5870 N   0  0  0  0  0  0  0  0  0  0  0  0
  186.9360  177.6730  144.9990 C   0  0  0  0  0  3  0  0  0  0  0  0
  189.9060  177.7350  147.7920 C   0  0  0  0  0  0  0  0  0  0  0  0
  191.1660  177.1280  147.8410 O   0  0  0  0  0  0  0  0  0  0  0  0
  189.6920  176.9380  145.4300 C   0  0  2  0  0  3  0  0  0  0  0  0
  191.6810  176.3390  146.7670 C   0  0  0  0  0  2  0  0  0  0  0  0
  189.1900  177.9190  146.4870 C   0  0  0  0  0  2  0  0  0  0  0  0
  191.2150  176.8750  145.4210 C   0  0  0  0  0  2  0  0  0  0  0  0
  189.4100  178.2190  148.8420 O   0  0  0  0  0  0  0  0  0  0  0  0
  188.8780  178.2660  138.0240 C   0  0  0  0  0  2  0  0  0  0  0  0
  187.9520  177.2470  137.3820 C   0  0  0  0  0  2  0  0  0  0  0  0
  189.4440  177.5030  134.7220 C   0  0  0  0  0  1  0  0  0  0  0  0
  188.7460  176.2230  136.5790 C   0  0  1  0  0  3  0  0  0  0  0  0
  189.9050  176.8840  135.9550 N   0  0  0  0  0  0  0  0  0  0  0  0
  191.4470  175.1500  136.7920 C   0  0  0  0  0  2  0  0  0  0  0  0
  190.5500  175.2540  137.9470 N   0  0  0  0  0  2  0  0  0  0  0  0
  189.1720  175.0660  137.5010 C   0  0  0  0  0  2  0  0  0  0  0  0
  190.9030  175.8900  135.5630 C   0  0  0  0  0  2  0  0  0  0  0  0
  1 12  1  0  0  0  0
  2  8  1  0  0  0  0
  3 11  1  0  0  0  0
  4 14  1  0  0  0  0
  5 10  1  0  0  0  0
  6  2  1  0  0  0  0
  6  5  2  0  0  0  0
  7 17  1  0  0  0  0
  8  3  2  0  0  0  0
  8  1  1  0  0  0  0
  9  4  2  0  0  0  0
 10  1  2  0  0  0  0
 11 15  2  0  0  0  0
 11 18  1  0  0  0  0
 12 18  2  0  0  0  0
 13  7  1  0  0  0  0
 13  2  2  0  0  0  0
 14 15  1  0  0  0  0
 16  9  1  0  0  0  0
 16  7  2  0  0  0  0
 17  4  1  0  0  0  0
 17  3  1  0  0  0  0
 19 20  1  0  0  0  0
 19 25  2  0  0  0  0
 21 15  1  6  0  0  0
 21 23  1  0  0  0  0
 22 20  1  0  0  0  0
 23 19  1  0  0  0  0
 24 21  1  0  0  0  0
 24 22  1  0  0  0  0
 26 16  1  0  0  0  0
 27 26  1  0  0  0  0
 28 30  1  0  0  0  0
 29 27  1  1  0  0  0
 29 33  1  0  0  0  0
 30 29  1  0  0  0  0
 31 32  1  0  0  0  0
 33 32  1  0  0  0  0
 34 30  1  0  0  0  0
 34 31  1  0  0  0  0
M  END
>  <MODEL>
4

>  <REMARK>
 VINA RESULT:     -10.3      2.830      5.502
  Name = 
  4 active torsions:
  status: ('A' for Active; 'I' for Inactive)
    1  A    between atoms: C_3  and  C_13
    2  A    between atoms: C_3  and  C_17
    3  A    between atoms: C_12  and  C_28
    4  A    between atoms: C_17  and  C_29
                            x       y       z     vdW  Elec       q    Type
                         _______ _______ _______ _____ _____    ______ ____

>  <TORSDO>
F 4

$$$$
=
 OpenBabel10262419093D

 34 40  0  0  1  0  0  0  0  0999 V2000
  186.1170  178.1250  146.4110 C   0  0  0  0  0  0  0  0  0  0  0  0
  188.0860  177.7210  144.9910 C   0  0  0  0  0  0  0  0  0  0  0  0
  185.9480  178.2910  144.0020 C   0  0  0  0  0  0  0  0  0  0  0  0
  186.0100  178.4230  141.6310 C   0  0  0  0  0  0  0  0  0  0  0  0
  188.2580  177.5610  147.4050 C   0  0  0  0  0  3  0  0  0  0  0  0
  188.8520  177.4810  146.1340 C   0  0  0  0  0  3  0  0  0  0  0  0
  187.8460  177.9090  142.6620 C   0  0  0  0  0  0  0  0  0  0  0  0
  186.7120  178.0440  145.1450 C   0  0  2  0  0  3  0  0  0  0  0  0
  186.9710  178.2700  140.6280 C   0  0  0  0  0  3  0  0  0  0  0  0
  186.8980  177.8820  147.5440 C   0  0  0  0  0  3  0  0  0  0  0  0
  184.5870  178.6260  144.0690 C   0  0  0  0  0  0  0  0  0  0  0  0
  184.7550  178.4540  146.5100 C   0  0  0  0  0  3  0  0  0  0  0  0
  188.6450  177.6570  143.7370 N   0  0  0  0  0  0  0  0  0  0  0  0
  184.5560  178.7870  141.5300 C   0  0  0  0  0  3  0  0  0  0  0  0
  183.8930  178.8670  142.9190 C   0  0  0  0  0  0  0  0  0  0  0  0
  188.1520  177.9280  141.3150 C   0  0  0  0  0  0  0  0  0  0  0  0
  186.5630  178.2100  142.8170 N   0  0  0  0  0  0  0  0  0  0  0  0
  183.9960  178.7030  145.3490 C   0  0  0  0  0  3  0  0  0  0  0  0
  180.1980  178.4700  143.8050 C   0  0  0  0  0  0  0  0  0  0  0  0
  179.6300  179.0210  142.6510 O   0  0  0  0  0  0  0  0  0  0  0  0
  182.4360  179.2260  142.9790 C   0  0  2  0  0  3  0  0  0  0  0  0
  180.3930  179.7630  141.6980 C   0  0  0  0  0  2  0  0  0  0  0  0
  181.6820  178.2910  143.9230 C   0  0  0  0  0  2  0  0  0  0  0  0
  181.8110  179.2200  141.5890 C   0  0  0  0  0  2  0  0  0  0  0  0
  179.4490  178.0300  144.7160 O   0  0  0  0  0  0  0  0  0  0  0  0
  189.4890  177.7020  140.7000 C   0  0  0  0  0  2  0  0  0  0  0  0
  189.4370  178.0290  139.2180 C   0  0  0  0  0  2  0  0  0  0  0  0
  187.5380  177.1790  136.9730 C   0  0  0  0  0  1  0  0  0  0  0  0
  189.3830  176.7540  138.3830 C   0  0  1  0  0  3  0  0  0  0  0  0
  188.9890  177.0900  137.0040 N   0  0  0  0  0  0  0  0  0  0  0  0
  190.8700  175.7980  136.0670 C   0  0  0  0  0  2  0  0  0  0  0  0
  191.5320  176.3690  137.2430 N   0  0  0  0  0  2  0  0  0  0  0  0
  190.7510  176.0480  138.4340 C   0  0  0  0  0  2  0  0  0  0  0  0
  189.3490  176.0010  136.0970 C   0  0  0  0  0  2  0  0  0  0  0  0
  1 12  1  0  0  0  0
  1 10  2  0  0  0  0
  2  8  1  0  0  0  0
  2  6  1  0  0  0  0
  3 11  2  0  0  0  0
  4 17  1  0  0  0  0
  5 10  1  0  0  0  0
  6  5  2  0  0  0  0
  7 17  1  0  0  0  0
  7 13  1  0  0  0  0
  8  3  1  1  0  0  0
  8  1  1  0  0  0  0
  9 16  1  0  0  0  0
  9  4  2  0  0  0  0
 11 18  1  0  0  0  0
 13  2  2  0  0  0  0
 14  4  1  0  0  0  0
 14 15  2  0  0  0  0
 15 11  1  0  0  0  0
 16  7  2  0  0  0  0
 17  3  1  0  0  0  0
 18 12  2  0  0  0  0
 19 23  1  0  0  0  0
 19 25  2  0  0  0  0
 20 19  1  0  0  0  0
 21 15  1  6  0  0  0
 21 23  1  0  0  0  0
 22 20  1  0  0  0  0
 24 22  1  0  0  0  0
 24 21  1  0  0  0  0
 26 16  1  0  0  0  0
 27 26  1  0  0  0  0
 28 30  1  0  0  0  0
 29 33  1  0  0  0  0
 29 27  1  1  0  0  0
 30 29  1  0  0  0  0
 31 34  1  0  0  0  0
 31 32  1  0  0  0  0
 32 33  1  0  0  0  0
 34 30  1  0  0  0  0
M  END
>  <MODEL>
5

>  <REMARK>
 VINA RESULT:     -10.1      1.740      2.879
  Name = 
  4 active torsions:
  status: ('A' for Active; 'I' for Inactive)
    1  A    between atoms: C_3  and  C_13
    2  A    between atoms: C_3  and  C_17
    3  A    between atoms: C_12  and  C_28
    4  A    between atoms: C_17  and  C_29
                            x       y       z     vdW  Elec       q    Type
                         _______ _______ _______ _____ _____    ______ ____

>  <TORSDO>
F 4

$$$$
=
 OpenBabel10262419093D

 34 40  0  0  1  0  0  0  0  0999 V2000
  189.8870  177.4680  140.2970 C   0  0  0  0  0  0  0  0  0  0  0  0
  187.8120  178.2460  139.2240 C   0  0  0  0  0  0  0  0  0  0  0  0
  187.8960  177.8620  141.6160 C   0  0  0  0  0  0  0  0  0  0  0  0
  185.8440  178.3320  142.7180 C   0  0  0  0  0  0  0  0  0  0  0  0
  189.8090  177.8570  137.9030 C   0  0  0  0  0  3  0  0  0  0  0  0
  188.4610  178.2440  137.9870 C   0  0  0  0  0  3  0  0  0  0  0  0
  185.9240  178.6150  140.5710 C   0  0  0  0  0  0  0  0  0  0  0  0
  188.5420  177.8530  140.3780 C   0  0  0  0  0  0  0  0  0  0  0  0
  184.5760  178.7930  142.3550 C   0  0  0  0  0  3  0  0  0  0  0  0
  190.5190  177.4710  139.0510 C   0  0  0  0  0  3  0  0  0  0  0  0
  188.5480  177.4980  142.8040 C   0  0  0  0  0  0  0  0  0  0  0  0
  190.5650  177.0940  141.4690 C   0  0  0  0  0  3  0  0  0  0  0  0
  186.4980  178.6280  139.3350 N   0  0  0  0  0  0  0  0  0  0  0  0
  186.3930  177.9720  144.0700 C   0  0  0  0  0  2  0  0  0  0  0  0
  187.8680  177.5360  143.9870 C   0  0  0  0  0  0  0  0  0  0  0  0
  184.6450  178.9620  140.9590 C   0  0  0  0  0  0  0  0  0  0  0  0
  186.6140  178.2460  141.6430 N   0  0  0  0  0  0  0  0  0  0  0  0
  189.9020  177.1090  142.7120 C   0  0  0  0  0  3  0  0  0  0  0  0
  188.5340  177.4520  147.7480 C   0  0  0  0  0  0  0  0  0  0  0  0
  189.9330  177.4020  147.7270 O   0  0  0  0  0  0  0  0  0  0  0  0
  188.5570  177.1480  145.2640 C   0  0  2  0  0  3  0  0  0  0  0  0
  190.6740  177.1270  146.5370 C   0  0  0  0  0  2  0  0  0  0  0  0
  187.7500  177.6030  146.4780 C   0  0  0  0  0  2  0  0  0  0  0  0
  189.9760  177.7010  145.3120 C   0  0  0  0  0  2  0  0  0  0  0  0
  187.9310  177.4680  148.8520 O   0  0  0  0  0  0  0  0  0  0  0  0
  183.5580  179.4840  140.0850 C   0  0  0  0  0  2  0  0  0  0  0  0
  182.6350  178.3490  139.6760 C   0  0  0  0  0  2  0  0  0  0  0  0
  180.8200  178.6290  142.1240 C   0  0  0  0  0  1  0  0  0  0  0  0
  181.1740  178.7690  139.7950 C   0  0  1  0  0  3  0  0  0  0  0  0
  180.9920  179.5620  141.0220 N   0  0  0  0  0  0  0  0  0  0  0  0
  179.8110  181.3450  139.7920 C   0  0  0  0  0  2  0  0  0  0  0  0
  180.8240  180.9910  138.7930 N   0  0  0  0  0  2  0  0  0  0  0  0
  180.7620  179.5550  138.5360 C   0  0  0  0  0  2  0  0  0  0  0  0
  179.7530  180.3350  140.9460 C   0  0  0  0  0  2  0  0  0  0  0  0
  1  8  1  0  0  0  0
  1 12  1  0  0  0  0
  2 13  2  0  0  0  0
  2  8  1  0  0  0  0
  3 17  1  0  0  0  0
  3 11  1  0  0  0  0
  4 14  1  0  0  0  0
  5  6  2  0  0  0  0
  5 10  1  0  0  0  0
  6  2  1  0  0  0  0
  7 16  2  0  0  0  0
  7 17  1  0  0  0  0
  8  3  2  0  0  0  0
  9  4  2  0  0  0  0
 10  1  2  0  0  0  0
 11 15  2  0  0  0  0
 12 18  2  0  0  0  0
 13  7  1  0  0  0  0
 15 14  1  0  0  0  0
 16  9  1  0  0  0  0
 17  4  1  0  0  0  0
 18 11  1  0  0  0  0
 19 25  2  0  0  0  0
 20 19  1  0  0  0  0
 21 15  1  6  0  0  0
 21 24  1  0  0  0  0
 21 23  1  0  0  0  0
 22 20  1  0  0  0  0
 23 19  1  0  0  0  0
 24 22  1  0  0  0  0
 26 16  1  0  0  0  0
 27 26  1  0  0  0  0
 29 27  1  6  0  0  0
 29 30  1  0  0  0  0
 30 28  1  0  0  0  0
 31 34  1  0  0  0  0
 32 31  1  0  0  0  0
 33 32  1  0  0  0  0
 33 29  1  0  0  0  0
 34 30  1  0  0  0  0
M  END
>  <MODEL>
6

>  <REMARK>
 VINA RESULT:      -9.7      3.620      8.241
  Name = 
  4 active torsions:
  status: ('A' for Active; 'I' for Inactive)
    1  A    between atoms: C_3  and  C_13
    2  A    between atoms: C_3  and  C_17
    3  A    between atoms: C_12  and  C_28
    4  A    between atoms: C_17  and  C_29
                            x       y       z     vdW  Elec       q    Type
                         _______ _______ _______ _____ _____    ______ ____

>  <TORSDO>
F 4

$$$$
=
 OpenBabel10262419093D

 34 40  0  0  1  0  0  0  0  0999 V2000
  190.0330  177.1920  140.3960 C   0  0  0  0  0  0  0  0  0  0  0  0
  188.0200  178.0310  139.2520 C   0  0  0  0  0  0  0  0  0  0  0  0
  188.0450  177.7480  141.6590 C   0  0  0  0  0  0  0  0  0  0  0  0
  186.0040  178.3740  142.7020 C   0  0  0  0  0  0  0  0  0  0  0  0
  190.0140  177.4790  137.9850 C   0  0  0  0  0  3  0  0  0  0  0  0
  188.6880  177.9400  138.0280 C   0  0  0  0  0  3  0  0  0  0  0  0
  186.1330  178.5580  140.5470 C   0  0  0  0  0  0  0  0  0  0  0  0
  188.7090  177.6510  140.4350 C   0  0  0  0  0  0  0  0  0  0  0  0
  184.7690  178.8860  142.2970 C   0  0  0  0  0  3  0  0  0  0  0  0
  190.6840  177.1070  139.1620 C   0  0  0  0  0  3  0  0  0  0  0  0
  188.6570  177.4030  142.8740 C   0  0  0  0  0  0  0  0  0  0  0  0
  190.6710  176.8350  141.5940 C   0  0  0  0  0  3  0  0  0  0  0  0
  186.7260  178.4870  139.3220 N   0  0  0  0  0  0  0  0  0  0  0  0
  186.5100  178.0460  144.0780 C   0  0  0  0  0  2  0  0  0  0  0  0
  187.9610  177.5290  144.0410 C   0  0  0  0  0  0  0  0  0  0  0  0
  184.8680  178.9890  140.8960 C   0  0  0  0  0  0  0  0  0  0  0  0
  186.7850  178.2010  141.6460 N   0  0  0  0  0  0  0  0  0  0  0  0
  189.9890  176.9400  142.8230 C   0  0  0  0  0  3  0  0  0  0  0  0
  188.4910  177.4890  147.8250 C   0  0  0  0  0  0  0  0  0  0  0  0
  189.8910  177.4560  147.8550 O   0  0  0  0  0  0  0  0  0  0  0  0
  188.6080  177.1620  145.3460 C   0  0  2  0  0  3  0  0  0  0  0  0
  190.6770  177.1790  146.6950 C   0  0  0  0  0  2  0  0  0  0  0  0
  187.7520  177.6190  146.5260 C   0  0  0  0  0  2  0  0  0  0  0  0
  190.0180  177.7330  145.4400 C   0  0  0  0  0  2  0  0  0  0  0  0
  187.8480  177.5080  148.9050 O   0  0  0  0  0  0  0  0  0  0  0  0
  183.8250  179.5300  139.9800 C   0  0  0  0  0  2  0  0  0  0  0  0
  182.4910  178.8640  140.2690 C   0  0  0  0  0  2  0  0  0  0  0  0
  181.1820  179.7590  137.6520 C   0  0  0  0  0  1  0  0  0  0  0  0
  182.0140  178.0610  139.0640 C   0  0  1  0  0  3  0  0  0  0  0  0
  182.2800  178.8230  137.8320 N   0  0  0  0  0  0  0  0  0  0  0  0
  183.3650  176.8810  136.7670 C   0  0  0  0  0  2  0  0  0  0  0  0
  183.8520  176.7080  138.1390 N   0  0  0  0  0  2  0  0  0  0  0  0
  182.7130  176.6880  139.0520 C   0  0  0  0  0  2  0  0  0  0  0  0
  182.2530  177.9350  136.6720 C   0  0  0  0  0  2  0  0  0  0  0  0
  1  8  1  0  0  0  0
  1 12  1  0  0  0  0
  2 13  2  0  0  0  0
  2  8  1  0  0  0  0
  3 11  1  0  0  0  0
  4 14  1  0  0  0  0
  5  6  2  0  0  0  0
  5 10  1  0  0  0  0
  6  2  1  0  0  0  0
  7 16  2  0  0  0  0
  7 17  1  0  0  0  0
  8  3  2  0  0  0  0
  9  4  2  0  0  0  0
 10  1  2  0  0  0  0
 11 15  2  0  0  0  0
 12 18  2  0  0  0  0
 13  7  1  0  0  0  0
 15 14  1  0  0  0  0
 16  9  1  0  0  0  0
 17  3  1  0  0  0  0
 17  4  1  0  0  0  0
 18 11  1  0  0  0  0
 19 20  1  0  0  0  0
 19 25  2  0  0  0  0
 21 15  1  6  0  0  0
 21 24  1  0  0  0  0
 21 23  1  0  0  0  0
 22 20  1  0  0  0  0
 23 19  1  0  0  0  0
 24 22  1  0  0  0  0
 26 27  1  0  0  0  0
 26 16  1  0  0  0  0
 28 30  1  0  0  0  0
 29 27  1  1  0  0  0
 30 29  1  0  0  0  0
 31 32  1  0  0  0  0
 32 33  1  0  0  0  0
 33 29  1  0  0  0  0
 34 31  1  0  0  0  0
 34 30  1  0  0  0  0
M  END
>  <MODEL>
7

>  <REMARK>
 VINA RESULT:      -9.7      3.595      7.309
  Name = 
  4 active torsions:
  status: ('A' for Active; 'I' for Inactive)
    1  A    between atoms: C_3  and  C_13
    2  A    between atoms: C_3  and  C_17
    3  A    between atoms: C_12  and  C_28
    4  A    between atoms: C_17  and  C_29
                            x       y       z     vdW  Elec       q    Type
                         _______ _______ _______ _____ _____    ______ ____

>  <TORSDO>
F 4

$$$$
=
 OpenBabel10262419093D

 34 40  0  0  1  0  0  0  0  0999 V2000
  184.1550  178.6500  144.0880 C   0  0  0  0  0  0  0  0  0  0  0  0
  184.3030  178.6810  141.6300 C   0  0  0  0  0  0  0  0  0  0  0  0
  186.2880  178.3500  142.9830 C   0  0  0  0  0  0  0  0  0  0  0  0
  188.2650  178.0530  141.6980 C   0  0  0  0  0  0  0  0  0  0  0  0
  182.1650  178.9760  142.7370 C   0  0  0  0  0  3  0  0  0  0  0  0
  182.9240  178.8890  141.5580 C   0  0  0  0  0  3  0  0  0  0  0  0
  186.4060  178.3750  140.6300 C   0  0  0  0  0  0  0  0  0  0  0  0
  184.9100  178.5630  142.9100 C   0  0  0  0  0  0  0  0  0  0  0  0
  188.6000  178.0040  140.3430 C   0  0  0  0  0  3  0  0  0  0  0  0
  182.7760  178.8570  143.9960 C   0  0  0  0  0  3  0  0  0  0  0  0
  186.9610  178.2120  144.2060 C   0  0  0  0  0  0  0  0  0  0  0  0
  184.8020  178.5200  145.3280 C   0  0  0  0  0  3  0  0  0  0  0  0
  185.0670  178.5840  140.4930 N   0  0  0  0  0  0  0  0  0  0  0  0
  189.1300  177.8890  142.9160 C   0  0  0  0  0  2  0  0  0  0  0  0
  188.3080  177.9940  144.2150 C   0  0  0  0  0  0  0  0  0  0  0  0
  187.3840  178.2240  139.6670 C   0  0  0  0  0  0  0  0  0  0  0  0
  186.9630  178.2660  141.8300 N   0  0  0  0  0  0  0  0  0  0  0  0
  186.1930  178.3030  145.3870 C   0  0  0  0  0  3  0  0  0  0  0  0
  191.0220  176.7870  146.6190 C   0  0  0  0  0  0  0  0  0  0  0  0
  190.2420  176.6130  147.7680 O   0  0  0  0  0  0  0  0  0  0  0  0
  189.0380  177.8450  145.5200 C   0  0  2  0  0  3  0  0  0  0  0  0
  188.9120  177.1230  147.8780 C   0  0  0  0  0  2  0  0  0  0  0  0
  190.3920  177.1700  145.3120 C   0  0  0  0  0  2  0  0  0  0  0  0
  188.1960  177.0820  146.5350 C   0  0  0  0  0  2  0  0  0  0  0  0
  192.2520  176.5250  146.6580 O   0  0  0  0  0  0  0  0  0  0  0  0
  187.1900  178.2210  138.1910 C   0  0  0  0  0  2  0  0  0  0  0  0
  188.5350  178.1160  137.4930 C   0  0  0  0  0  2  0  0  0  0  0  0
  189.3130  177.5210  134.5940 C   0  0  0  0  0  1  0  0  0  0  0  0
  188.6540  176.7950  136.7410 C   0  0  1  0  0  3  0  0  0  0  0  0
  189.7870  176.8670  135.8030 N   0  0  0  0  0  0  0  0  0  0  0  0
  190.7010  174.7250  136.6150 C   0  0  0  0  0  2  0  0  0  0  0  0
  190.2240  175.2810  137.8840 N   0  0  0  0  0  2  0  0  0  0  0  0
  188.8160  175.6420  137.7490 C   0  0  0  0  0  2  0  0  0  0  0  0
  190.2000  175.5230  135.4040 C   0  0  0  0  0  2  0  0  0  0  0  0
  1 12  1  0  0  0  0
  2  8  1  0  0  0  0
  3 11  1  0  0  0  0
  4 17  1  0  0  0  0
  4 14  1  0  0  0  0
  5 10  1  0  0  0  0
  6  2  1  0  0  0  0
  6  5  2  0  0  0  0
  7 17  1  0  0  0  0
  8  3  2  0  0  0  0
  8  1  1  0  0  0  0
  9  4  2  0  0  0  0
 10  1  2  0  0  0  0
 11 15  2  0  0  0  0
 11 18  1  0  0  0  0
 12 18  2  0  0  0  0
 13  7  1  0  0  0  0
 13  2  2  0  0  0  0
 14 15  1  0  0  0  0
 16  9  1  0  0  0  0
 16  7  2  0  0  0  0
 17  3  1  0  0  0  0
 19 25  2  0  0  0  0
 19 20  1  0  0  0  0
 20 22  1  0  0  0  0
 21 15  1  6  0  0  0
 21 24  1  0  0  0  0
 23 21  1  0  0  0  0
 23 19  1  0  0  0  0
 24 22  1  0  0  0  0
 26 16  1  0  0  0  0
 27 26  1  0  0  0  0
 28 30  1  0  0  0  0
 29 27  1  1  0  0  0
 29 33  1  0  0  0  0
 30 29  1  0  0  0  0
 31 32  1  0  0  0  0
 33 32  1  0  0  0  0
 34 30  1  0  0  0  0
 34 31  1  0  0  0  0
M  END
>  <MODEL>
8

>  <REMARK>
 VINA RESULT:      -9.6      3.070      5.668
  Name = 
  4 active torsions:
  status: ('A' for Active; 'I' for Inactive)
    1  A    between atoms: C_3  and  C_13
    2  A    between atoms: C_3  and  C_17
    3  A    between atoms: C_12  and  C_28
    4  A    between atoms: C_17  and  C_29
                            x       y       z     vdW  Elec       q    Type
                         _______ _______ _______ _____ _____    ______ ____

>  <TORSDO>
F 4

$$$$
=
 OpenBabel10262419093D

 34 40  0  0  1  0  0  0  0  0999 V2000
  189.0190  177.2040  145.7730 C   0  0  0  0  0  0  0  0  0  0  0  0
  190.8530  176.7360  144.1980 C   0  0  0  0  0  0  0  0  0  0  0  0
  188.7100  177.5350  143.3950 C   0  0  0  0  0  0  0  0  0  0  0  0
  188.6310  177.8110  141.0360 C   0  0  0  0  0  0  0  0  0  0  0  0
  191.1650  176.4090  146.5810 C   0  0  0  0  0  3  0  0  0  0  0  0
  191.6670  176.3630  145.2700 C   0  0  0  0  0  3  0  0  0  0  0  0
  190.4800  177.0890  141.9060 C   0  0  0  0  0  0  0  0  0  0  0  0
  189.5220  177.1560  144.4650 C   0  0  2  0  0  3  0  0  0  0  0  0
  189.5090  177.6470  139.9630 C   0  0  0  0  0  3  0  0  0  0  0  0
  189.8480  176.8280  146.8320 C   0  0  0  0  0  3  0  0  0  0  0  0
  187.3890  177.9720  143.5750 C   0  0  0  0  0  0  0  0  0  0  0  0
  187.6990  177.6330  145.9840 C   0  0  0  0  0  3  0  0  0  0  0  0
  191.3220  176.7070  142.9070 N   0  0  0  0  0  0  0  0  0  0  0  0
  187.2090  178.2950  141.0580 C   0  0  0  0  0  3  0  0  0  0  0  0
  186.6450  178.3400  142.4910 C   0  0  0  0  0  0  0  0  0  0  0  0
  190.6990  177.1700  140.5450 C   0  0  0  0  0  0  0  0  0  0  0  0
  189.2390  177.4810  142.1670 N   0  0  0  0  0  0  0  0  0  0  0  0
  186.8900  178.0140  144.8950 C   0  0  0  0  0  3  0  0  0  0  0  0
  183.3540  178.9900  144.3200 C   0  0  0  0  0  0  0  0  0  0  0  0
  182.4610  178.7430  143.2700 O   0  0  0  0  0  0  0  0  0  0  0  0
  185.2300  178.8090  142.6730 C   0  0  2  0  0  3  0  0  0  0  0  0
  182.8870  178.6280  141.9110 C   0  0  0  0  0  2  0  0  0  0  0  0
  184.8270  178.7690  144.1450 C   0  0  0  0  0  2  0  0  0  0  0  0
  184.2670  177.9910  141.8200 C   0  0  0  0  0  2  0  0  0  0  0  0
  182.9070  179.3090  145.4510 O   0  0  0  0  0  0  0  0  0  0  0  0
  191.9710  176.8770  139.8270 C   0  0  0  0  0  2  0  0  0  0  0  0
  191.7060  176.7610  138.3360 C   0  0  0  0  0  2  0  0  0  0  0  0
  189.4550  175.0160  137.2160 C   0  0  0  0  0  1  0  0  0  0  0  0
  191.6960  175.3000  137.8990 C   0  0  1  0  0  3  0  0  0  0  0  0
  190.8180  175.1460  136.7270 N   0  0  0  0  0  0  0  0  0  0  0  0
  192.5560  173.9130  135.4850 C   0  0  0  0  0  2  0  0  0  0  0  0
  193.4000  174.8990  136.1660 N   0  0  0  0  0  2  0  0  0  0  0  0
  193.1370  174.8440  137.6010 C   0  0  0  0  0  2  0  0  0  0  0  0
  191.1210  173.8980  136.0280 C   0  0  0  0  0  2  0  0  0  0  0  0
  1 12  1  0  0  0  0
  1 10  2  0  0  0  0
  2  8  1  0  0  0  0
  2  6  1  0  0  0  0
  3 11  2  0  0  0  0
  4 14  1  0  0  0  0
  4 17  1  0  0  0  0
  5 10  1  0  0  0  0
  6  5  2  0  0  0  0
  7 17  1  0  0  0  0
  7 13  1  0  0  0  0
  8  3  1  1  0  0  0
  8  1  1  0  0  0  0
  9 16  1  0  0  0  0
  9  4  2  0  0  0  0
 11 18  1  0  0  0  0
 13  2  2  0  0  0  0
 14 15  2  0  0  0  0
 15 11  1  0  0  0  0
 16  7  2  0  0  0  0
 17  3  1  0  0  0  0
 18 12  2  0  0  0  0
 19 25  2  0  0  0  0
 20 19  1  0  0  0  0
 21 15  1  1  0  0  0
 21 23  1  0  0  0  0
 22 20  1  0  0  0  0
 23 19  1  0  0  0  0
 24 22  1  0  0  0  0
 24 21  1  0  0  0  0
 26 16  1  0  0  0  0
 27 26  1  0  0  0  0
 29 27  1  6  0  0  0
 30 28  1  0  0  0  0
 30 29  1  0  0  0  0
 31 34  1  0  0  0  0
 31 32  1  0  0  0  0
 32 33  1  0  0  0  0
 33 29  1  0  0  0  0
 34 30  1  0  0  0  0
M  END
>  <MODEL>
9

>  <REMARK>
 VINA RESULT:      -9.4      0.893      1.403
  Name = 
  4 active torsions:
  status: ('A' for Active; 'I' for Inactive)
    1  A    between atoms: C_3  and  C_13
    2  A    between atoms: C_3  and  C_17
    3  A    between atoms: C_12  and  C_28
    4  A    between atoms: C_17  and  C_29
                            x       y       z     vdW  Elec       q    Type
                         _______ _______ _______ _____ _____    ______ ____

>  <TORSDO>
F 4

$$$$
