=
 OpenBabel10262421513D

 30 34  0  0  1  0  0  0  0  0999 V2000
  188.9230  177.4430  143.6310 C   0  0  0  0  0  3  0  0  0  0  0  0
  191.0480  176.7920  144.8230 C   0  0  2  0  0  3  0  0  0  0  0  0
  186.7010  177.9260  147.0440 N   0  0  0  0  0  2  0  0  0  0  0  0
  187.5620  177.7940  143.6030 C   0  0  0  0  0  0  0  0  0  0  0  0
  185.5500  178.2230  146.3890 C   0  0  0  0  0  0  0  0  0  0  0  0
  191.7130  176.7550  146.2030 C   0  0  0  0  0  2  0  0  0  0  0  0
  191.8380  177.6440  143.9470 N   0  0  0  0  0  1  0  0  0  0  0  0
  187.5560  177.7440  146.0210 C   0  0  0  0  0  0  0  0  0  0  0  0
  190.7570  176.2220  147.2600 C   0  0  0  0  0  2  0  0  0  0  0  0
  189.6090  177.2590  144.8540 C   0  0  0  0  0  0  0  0  0  0  0  0
  186.9110  177.9300  144.8320 C   0  0  0  0  0  0  0  0  0  0  0  0
  184.4680  178.4690  146.9850 O   0  0  0  0  0  0  0  0  0  0  0  0
  185.6590  178.2260  145.0740 O   0  0  0  0  0  0  0  0  0  0  0  0
  189.5830  177.1790  147.4000 C   0  0  0  0  0  2  0  0  0  0  0  0
  188.9030  177.3870  146.0800 C   0  0  0  0  0  0  0  0  0  0  0  0
  186.8560  177.9220  142.2840 C   0  0  1  0  0  3  0  0  0  0  0  0
  185.7830  180.0670  142.1230 O   0  0  0  0  0  1  0  0  0  0  0  0
  185.5300  178.7150  142.3840 C   0  0  1  0  0  3  0  0  0  0  0  0
  183.0750  178.4410  141.9510 C   0  0  0  0  0  2  0  0  0  0  0  0
  184.4830  178.8650  140.0570 C   0  0  0  0  0  2  0  0  0  0  0  0
  184.4660  178.1780  141.4120 C   0  0  0  0  0  3  0  0  0  0  0  0
  182.1730  178.4700  140.7350 C   0  0  0  0  0  2  0  0  0  0  0  0
  183.0470  178.8800  139.5630 C   0  0  0  0  0  2  0  0  0  0  0  0
  187.8080  178.4920  141.2320 C   0  0  0  0  0  2  0  0  0  0  0  0
  189.3260  177.8060  139.4020 C   0  0  1  0  0  3  0  0  0  0  0  0
  188.0440  178.3310  138.7870 C   0  0  0  0  0  2  0  0  0  0  0  0
  187.9930  177.5340  140.0730 C   0  0  2  0  0  3  0  0  0  0  0  0
  190.8260  175.9580  139.3330 O   0  0  0  0  0  1  0  0  0  0  0  0
  189.7720  176.5660  138.6520 C   0  0  2  0  0  3  0  0  0  0  0  0
  190.2320  176.9460  137.2620 C   0  0  0  0  0  1  0  0  0  0  0  0
  1 10  1  0  0  0  0
  2  7  1  6  0  0  0
  2 10  1  0  0  0  0
  2  6  1  0  0  0  0
  4  1  2  0  0  0  0
  4 11  1  0  0  0  0
  5 12  2  0  0  0  0
  5  3  1  0  0  0  0
  6  9  1  0  0  0  0
  8 15  1  0  0  0  0
  8  3  1  0  0  0  0
  9 14  1  0  0  0  0
 10 15  2  0  0  0  0
 11 13  1  0  0  0  0
 11  8  2  0  0  0  0
 13  5  1  0  0  0  0
 15 14  1  0  0  0  0
 16 24  1  6  0  0  0
 16 18  1  0  0  0  0
 16  4  1  0  0  0  0
 18 17  1  6  0  0  0
 20 21  1  0  0  0  0
 21 19  1  0  0  0  0
 21 18  1  0  0  0  0
 22 19  1  0  0  0  0
 23 20  1  0  0  0  0
 23 22  1  0  0  0  0
 25 29  1  6  0  0  0
 25 27  1  0  0  0  0
 26 25  1  0  0  0  0
 26 27  1  0  0  0  0
 27 24  1  1  0  0  0
 29 30  1  6  0  0  0
 29 28  1  0  0  0  0
M  END
>  <MODEL>
1

>  <REMARK>
 VINA RESULT:      -9.2      0.000      0.000
  Name = 
  6 active torsions:
  status: ('A' for Active; 'I' for Inactive)
    1  A    between atoms: C_4  and  C_13
    2  A    between atoms: C_7  and  C_15
    3  A    between atoms: C_8  and  C_12
    4  A    between atoms: C_8  and  C_13
    5  A    between atoms: C_13  and  C_27
    6  A    between atoms: C_27  and  C_30
                            x       y       z     vdW  Elec       q    Type
                         _______ _______ _______ _____ _____    ______ ____

>  <TORSDO>
F 6

$$$$
=
 OpenBabel10262421513D

 30 34  0  0  1  0  0  0  0  0999 V2000
  185.0940  178.0790  141.9230 C   0  0  0  0  0  3  0  0  0  0  0  0
  182.7830  178.3470  140.9510 C   0  0  2  0  0  3  0  0  0  0  0  0
  184.0110  179.0420  145.7600 N   0  0  0  0  0  2  0  0  0  0  0  0
  186.0210  178.1350  142.9790 C   0  0  0  0  0  0  0  0  0  0  0  0
  185.2690  178.9470  146.2610 C   0  0  0  0  0  0  0  0  0  0  0  0
  181.3070  178.5060  141.3320 C   0  0  0  0  0  2  0  0  0  0  0  0
  182.9340  177.1290  140.1700 N   0  0  0  0  0  1  0  0  0  0  0  0
  184.2100  178.7340  144.4650 C   0  0  0  0  0  0  0  0  0  0  0  0
  181.1350  179.5170  142.4570 C   0  0  0  0  0  2  0  0  0  0  0  0
  183.7190  178.3320  142.1390 C   0  0  0  0  0  0  0  0  0  0  0  0
  185.5310  178.4750  144.2430 C   0  0  0  0  0  0  0  0  0  0  0  0
  185.5410  179.1620  147.4700 O   0  0  0  0  0  0  0  0  0  0  0  0
  186.1830  178.6120  145.3690 O   0  0  0  0  0  0  0  0  0  0  0  0
  181.8250  178.9940  143.7080 C   0  0  0  0  0  2  0  0  0  0  0  0
  183.2680  178.6950  143.4360 C   0  0  0  0  0  0  0  0  0  0  0  0
  187.4800  177.9170  142.6970 C   0  0  1  0  0  3  0  0  0  0  0  0
  188.6730  175.9010  143.2300 O   0  0  0  0  0  1  0  0  0  0  0  0
  188.1890  177.0870  143.7940 C   0  0  1  0  0  3  0  0  0  0  0  0
  190.2600  176.9260  145.1990 C   0  0  0  0  0  2  0  0  0  0  0  0
  190.2430  178.5700  143.4540 C   0  0  0  0  0  2  0  0  0  0  0  0
  189.3390  177.8680  144.4530 C   0  0  0  0  0  3  0  0  0  0  0  0
  191.5970  177.6330  145.2540 C   0  0  0  0  0  2  0  0  0  0  0  0
  191.6360  178.5700  144.0600 C   0  0  0  0  0  2  0  0  0  0  0  0
  187.6620  177.3280  141.2980 C   0  0  0  0  0  2  0  0  0  0  0  0
  188.4600  177.6930  138.9840 C   0  0  1  0  0  3  0  0  0  0  0  0
  189.6600  177.7120  139.9110 C   0  0  0  0  0  2  0  0  0  0  0  0
  188.3450  178.3080  140.3660 C   0  0  2  0  0  3  0  0  0  0  0  0
  187.3480  179.1440  137.4570 O   0  0  0  0  0  1  0  0  0  0  0  0
  188.6040  178.7980  137.9550 C   0  0  2  0  0  3  0  0  0  0  0  0
  189.4760  178.3240  136.8140 C   0  0  0  0  0  1  0  0  0  0  0  0
  1 10  2  0  0  0  0
  1  4  1  0  0  0  0
  2  7  1  1  0  0  0
  2  6  1  0  0  0  0
  2 10  1  0  0  0  0
  3  5  1  0  0  0  0
  4 11  2  0  0  0  0
  5 12  2  0  0  0  0
  6  9  1  0  0  0  0
  8  3  1  0  0  0  0
  9 14  1  0  0  0  0
 10 15  1  0  0  0  0
 11  8  1  0  0  0  0
 11 13  1  0  0  0  0
 13  5  1  0  0  0  0
 15 14  1  0  0  0  0
 15  8  2  0  0  0  0
 16 24  1  6  0  0  0
 16  4  1  0  0  0  0
 16 18  1  0  0  0  0
 18 17  1  6  0  0  0
 18 21  1  0  0  0  0
 19 22  1  0  0  0  0
 20 23  1  0  0  0  0
 20 21  1  0  0  0  0
 21 19  1  0  0  0  0
 23 22  1  0  0  0  0
 25 29  1  6  0  0  0
 25 26  1  0  0  0  0
 25 27  1  0  0  0  0
 26 27  1  0  0  0  0
 27 24  1  1  0  0  0
 28 29  1  0  0  0  0
 29 30  1  6  0  0  0
M  END
>  <MODEL>
2

>  <REMARK>
 VINA RESULT:      -9.1      2.312      6.004
  Name = 
  6 active torsions:
  status: ('A' for Active; 'I' for Inactive)
    1  A    between atoms: C_4  and  C_13
    2  A    between atoms: C_7  and  C_15
    3  A    between atoms: C_8  and  C_12
    4  A    between atoms: C_8  and  C_13
    5  A    between atoms: C_13  and  C_27
    6  A    between atoms: C_27  and  C_30
                            x       y       z     vdW  Elec       q    Type
                         _______ _______ _______ _____ _____    ______ ____

>  <TORSDO>
F 6

$$$$
=
 OpenBabel10262421513D

 30 34  0  0  1  0  0  0  0  0999 V2000
  186.8870  178.2040  144.6060 C   0  0  0  0  0  3  0  0  0  0  0  0
  186.5620  178.5480  147.0830 C   0  0  2  0  0  3  0  0  0  0  0  0
  190.6070  176.5090  144.9390 N   0  0  0  0  0  2  0  0  0  0  0  0
  187.6380  177.8050  143.4870 C   0  0  0  0  0  0  0  0  0  0  0  0
  190.7920  176.3780  143.6010 C   0  0  0  0  0  0  0  0  0  0  0  0
  187.1310  178.1710  148.4550 C   0  0  0  0  0  2  0  0  0  0  0  0
  185.1890  178.0750  147.0020 N   0  0  0  0  0  1  0  0  0  0  0  0
  189.3820  177.0630  144.9900 C   0  0  0  0  0  0  0  0  0  0  0  0
  188.6500  178.2750  148.4680 C   0  0  0  0  0  2  0  0  0  0  0  0
  187.3730  178.0170  145.9220 C   0  0  0  0  0  0  0  0  0  0  0  0
  188.8930  177.2390  143.7280 C   0  0  0  0  0  0  0  0  0  0  0  0
  191.8390  175.8900  143.1000 O   0  0  0  0  0  0  0  0  0  0  0  0
  189.7820  176.8100  142.8690 O   0  0  0  0  0  0  0  0  0  0  0  0
  189.2280  177.2600  147.4930 C   0  0  0  0  0  2  0  0  0  0  0  0
  188.6630  177.4570  146.1190 C   0  0  0  0  0  0  0  0  0  0  0  0
  187.1130  178.0750  142.1060 C   0  0  1  0  0  3  0  0  0  0  0  0
  185.8550  179.6970  140.8580 O   0  0  0  0  0  1  0  0  0  0  0  0
  185.9130  179.0520  142.0990 C   0  0  1  0  0  3  0  0  0  0  0  0
  183.7940  179.0730  143.4410 C   0  0  0  0  0  2  0  0  0  0  0  0
  183.6540  178.2800  141.1820 C   0  0  0  0  0  2  0  0  0  0  0  0
  184.5830  178.3310  142.3830 C   0  0  0  0  0  3  0  0  0  0  0  0
  182.3480  178.6940  143.2010 C   0  0  0  0  0  2  0  0  0  0  0  0
  182.2390  178.3300  141.7310 C   0  0  0  0  0  2  0  0  0  0  0  0
  188.2500  178.5270  141.1910 C   0  0  0  0  0  2  0  0  0  0  0  0
  189.7080  177.6360  139.4000 C   0  0  1  0  0  3  0  0  0  0  0  0
  188.7440  178.6300  138.7810 C   0  0  0  0  0  2  0  0  0  0  0  0
  188.2800  177.7280  139.9040 C   0  0  2  0  0  3  0  0  0  0  0  0
  190.8370  175.5840  138.9710 O   0  0  0  0  0  1  0  0  0  0  0  0
  189.8410  176.4310  138.4880 C   0  0  2  0  0  3  0  0  0  0  0  0
  190.2080  176.8840  137.0920 C   0  0  0  0  0  1  0  0  0  0  0  0
  1 10  1  0  0  0  0
  2  7  1  6  0  0  0
  2  6  1  0  0  0  0
  3  8  1  0  0  0  0
  4 11  1  0  0  0  0
  4  1  2  0  0  0  0
  5  3  1  0  0  0  0
  6  9  1  0  0  0  0
  8 15  1  0  0  0  0
 10 15  2  0  0  0  0
 10  2  1  0  0  0  0
 11  8  2  0  0  0  0
 12  5  2  0  0  0  0
 13  5  1  0  0  0  0
 13 11  1  0  0  0  0
 14  9  1  0  0  0  0
 15 14  1  0  0  0  0
 16 24  1  6  0  0  0
 16  4  1  0  0  0  0
 18 17  1  6  0  0  0
 18 16  1  0  0  0  0
 18 21  1  0  0  0  0
 20 23  1  0  0  0  0
 20 21  1  0  0  0  0
 21 19  1  0  0  0  0
 22 19  1  0  0  0  0
 23 22  1  0  0  0  0
 25 29  1  6  0  0  0
 25 27  1  0  0  0  0
 26 25  1  0  0  0  0
 26 27  1  0  0  0  0
 27 24  1  1  0  0  0
 29 30  1  6  0  0  0
 29 28  1  0  0  0  0
M  END
>  <MODEL>
3

>  <REMARK>
 VINA RESULT:      -8.9      1.763      3.294
  Name = 
  6 active torsions:
  status: ('A' for Active; 'I' for Inactive)
    1  A    between atoms: C_4  and  C_13
    2  A    between atoms: C_7  and  C_15
    3  A    between atoms: C_8  and  C_12
    4  A    between atoms: C_8  and  C_13
    5  A    between atoms: C_13  and  C_27
    6  A    between atoms: C_27  and  C_30
                            x       y       z     vdW  Elec       q    Type
                         _______ _______ _______ _____ _____    ______ ____

>  <TORSDO>
F 6

$$$$
=
 OpenBabel10262421513D

 30 34  0  0  1  0  0  0  0  0999 V2000
  188.0290  177.6390  143.6390 C   0  0  0  0  0  3  0  0  0  0  0  0
  189.7410  177.0210  145.3850 C   0  0  2  0  0  3  0  0  0  0  0  0
  185.0780  178.6030  146.3190 N   0  0  0  0  0  2  0  0  0  0  0  0
  186.7470  178.0510  143.2350 C   0  0  0  0  0  0  0  0  0  0  0  0
  184.1490  178.8810  145.3690 C   0  0  0  0  0  0  0  0  0  0  0  0
  190.0410  177.1040  146.8850 C   0  0  0  0  0  2  0  0  0  0  0  0
  190.7840  177.7320  144.6610 N   0  0  0  0  0  1  0  0  0  0  0  0
  186.1420  178.2680  145.5670 C   0  0  0  0  0  0  0  0  0  0  0  0
  188.8170  176.7380  147.7120 C   0  0  0  0  0  2  0  0  0  0  0  0
  188.3770  177.5580  145.0080 C   0  0  0  0  0  0  0  0  0  0  0  0
  185.8260  178.3520  144.2420 C   0  0  0  0  0  0  0  0  0  0  0  0
  182.9760  179.2440  145.6460 O   0  0  0  0  0  0  0  0  0  0  0  0
  184.5790  178.7340  144.1300 O   0  0  0  0  0  0  0  0  0  0  0  0
  187.7200  177.7610  147.4590 C   0  0  0  0  0  2  0  0  0  0  0  0
  187.4030  177.8540  145.9970 C   0  0  0  0  0  0  0  0  0  0  0  0
  186.3990  178.0670  141.7740 C   0  0  1  0  0  3  0  0  0  0  0  0
  185.3120  179.7750  140.4800 O   0  0  0  0  0  1  0  0  0  0  0  0
  185.0800  178.8200  141.4770 C   0  0  1  0  0  3  0  0  0  0  0  0
  182.6030  178.4370  141.3990 C   0  0  0  0  0  2  0  0  0  0  0  0
  183.8930  177.6470  139.5400 C   0  0  0  0  0  2  0  0  0  0  0  0
  183.9570  177.8620  141.0420 C   0  0  0  0  0  3  0  0  0  0  0  0
  181.6290  177.7960  140.4330 C   0  0  0  0  0  2  0  0  0  0  0  0
  182.4300  177.4290  139.1970 C   0  0  0  0  0  2  0  0  0  0  0  0
  187.5790  178.5960  140.9590 C   0  0  0  0  0  2  0  0  0  0  0  0
  189.3540  178.0830  139.3120 C   0  0  1  0  0  3  0  0  0  0  0  0
  188.0120  177.9770  138.6150 C   0  0  0  0  0  2  0  0  0  0  0  0
  188.1530  177.5250  140.0530 C   0  0  2  0  0  3  0  0  0  0  0  0
  191.4850  177.0360  139.4910 O   0  0  0  0  0  1  0  0  0  0  0  0
  190.2430  176.9380  138.8650 C   0  0  2  0  0  3  0  0  0  0  0  0
  190.4360  176.9950  137.3660 C   0  0  0  0  0  1  0  0  0  0  0  0
  1 10  1  0  0  0  0
  2  7  1  6  0  0  0
  2  6  1  0  0  0  0
  4  1  2  0  0  0  0
  4 11  1  0  0  0  0
  5 12  2  0  0  0  0
  5  3  1  0  0  0  0
  6  9  1  0  0  0  0
  8 15  1  0  0  0  0
  8  3  1  0  0  0  0
 10  2  1  0  0  0  0
 10 15  2  0  0  0  0
 11  8  2  0  0  0  0
 13 11  1  0  0  0  0
 13  5  1  0  0  0  0
 14  9  1  0  0  0  0
 15 14  1  0  0  0  0
 16 24  1  6  0  0  0
 16  4  1  0  0  0  0
 18 17  1  6  0  0  0
 18 16  1  0  0  0  0
 20 21  1  0  0  0  0
 21 19  1  0  0  0  0
 21 18  1  0  0  0  0
 22 19  1  0  0  0  0
 23 20  1  0  0  0  0
 23 22  1  0  0  0  0
 25 29  1  6  0  0  0
 25 27  1  0  0  0  0
 26 25  1  0  0  0  0
 26 27  1  0  0  0  0
 27 24  1  1  0  0  0
 29 30  1  6  0  0  0
 29 28  1  0  0  0  0
M  END
>  <MODEL>
4

>  <REMARK>
 VINA RESULT:      -8.7      1.127      1.326
  Name = 
  6 active torsions:
  status: ('A' for Active; 'I' for Inactive)
    1  A    between atoms: C_4  and  C_13
    2  A    between atoms: C_7  and  C_15
    3  A    between atoms: C_8  and  C_12
    4  A    between atoms: C_8  and  C_13
    5  A    between atoms: C_13  and  C_27
    6  A    between atoms: C_27  and  C_30
                            x       y       z     vdW  Elec       q    Type
                         _______ _______ _______ _____ _____    ______ ____

>  <TORSDO>
F 6

$$$$
=
 OpenBabel10262421513D

 30 34  0  0  1  0  0  0  0  0999 V2000
  185.1260  177.9120  141.9490 C   0  0  0  0  0  3  0  0  0  0  0  0
  182.8260  178.2810  140.9840 C   0  0  2  0  0  3  0  0  0  0  0  0
  184.1100  178.9690  145.7800 N   0  0  0  0  0  2  0  0  0  0  0  0
  186.0600  177.9340  143.0000 C   0  0  0  0  0  0  0  0  0  0  0  0
  185.3640  178.8180  146.2760 C   0  0  0  0  0  0  0  0  0  0  0  0
  181.3620  178.5150  141.3700 C   0  0  0  0  0  2  0  0  0  0  0  0
  182.9140  177.0480  140.2160 N   0  0  0  0  0  1  0  0  0  0  0  0
  184.2880  178.6370  144.4880 C   0  0  0  0  0  0  0  0  0  0  0  0
  181.2440  179.5460  142.4840 C   0  0  0  0  0  2  0  0  0  0  0  0
  183.7660  178.2340  142.1680 C   0  0  0  0  0  0  0  0  0  0  0  0
  185.5940  178.3120  144.2620 C   0  0  0  0  0  0  0  0  0  0  0  0
  185.6530  179.0330  147.4820 O   0  0  0  0  0  0  0  0  0  0  0  0
  186.2570  178.4300  145.3840 O   0  0  0  0  0  0  0  0  0  0  0  0
  181.9140  179.0040  143.7380 C   0  0  0  0  0  2  0  0  0  0  0  0
  183.3400  178.6320  143.4630 C   0  0  0  0  0  0  0  0  0  0  0  0
  187.5050  177.6430  142.7140 C   0  0  1  0  0  3  0  0  0  0  0  0
  188.4050  179.3800  141.3180 O   0  0  0  0  0  1  0  0  0  0  0  0
  187.9340  178.0620  141.2870 C   0  0  1  0  0  3  0  0  0  0  0  0
  189.0030  177.1740  139.1990 C   0  0  0  0  0  2  0  0  0  0  0  0
  190.4260  177.5270  141.0960 C   0  0  0  0  0  2  0  0  0  0  0  0
  189.0120  177.1270  140.7130 C   0  0  0  0  0  3  0  0  0  0  0  0
  190.3990  176.7680  138.7780 C   0  0  0  0  0  2  0  0  0  0  0  0
  191.3170  177.1290  139.9320 C   0  0  0  0  0  2  0  0  0  0  0  0
  188.3890  178.2550  143.8000 C   0  0  0  0  0  2  0  0  0  0  0  0
  189.6570  177.8190  145.8810 C   0  0  1  0  0  3  0  0  0  0  0  0
  190.5460  177.4800  144.7010 C   0  0  0  0  0  2  0  0  0  0  0  0
  189.0630  177.1860  144.6370 C   0  0  2  0  0  3  0  0  0  0  0  0
  189.0690  177.1060  148.0760 O   0  0  0  0  0  1  0  0  0  0  0  0
  189.8210  176.7590  146.9530 C   0  0  2  0  0  3  0  0  0  0  0  0
  191.2770  176.6490  147.3460 C   0  0  0  0  0  1  0  0  0  0  0  0
  1 10  2  0  0  0  0
  1  4  1  0  0  0  0
  2  7  1  1  0  0  0
  2  6  1  0  0  0  0
  2 10  1  0  0  0  0
  3  5  1  0  0  0  0
  4 11  2  0  0  0  0
  5 12  2  0  0  0  0
  6  9  1  0  0  0  0
  8  3  1  0  0  0  0
  9 14  1  0  0  0  0
 10 15  1  0  0  0  0
 11  8  1  0  0  0  0
 11 13  1  0  0  0  0
 13  5  1  0  0  0  0
 15 14  1  0  0  0  0
 15  8  2  0  0  0  0
 16  4  1  0  0  0  0
 16 24  1  1  0  0  0
 18 17  1  1  0  0  0
 18 16  1  0  0  0  0
 19 21  1  0  0  0  0
 21 20  1  0  0  0  0
 21 18  1  0  0  0  0
 22 19  1  0  0  0  0
 22 23  1  0  0  0  0
 23 20  1  0  0  0  0
 25 29  1  1  0  0  0
 26 25  1  0  0  0  0
 27 24  1  6  0  0  0
 27 26  1  0  0  0  0
 27 25  1  0  0  0  0
 29 30  1  1  0  0  0
 29 28  1  0  0  0  0
M  END
>  <MODEL>
5

>  <REMARK>
 VINA RESULT:      -8.5      2.186      6.518
  Name = 
  6 active torsions:
  status: ('A' for Active; 'I' for Inactive)
    1  A    between atoms: C_4  and  C_13
    2  A    between atoms: C_7  and  C_15
    3  A    between atoms: C_8  and  C_12
    4  A    between atoms: C_8  and  C_13
    5  A    between atoms: C_13  and  C_27
    6  A    between atoms: C_27  and  C_30
                            x       y       z     vdW  Elec       q    Type
                         _______ _______ _______ _____ _____    ______ ____

>  <TORSDO>
F 6

$$$$
=
 OpenBabel10262421513D

 30 34  0  0  1  0  0  0  0  0999 V2000
  187.0970  177.9690  141.5540 C   0  0  0  0  0  3  0  0  0  0  0  0
  185.3600  178.7230  143.2200 C   0  0  2  0  0  3  0  0  0  0  0  0
  189.6440  176.3770  144.3470 N   0  0  0  0  0  2  0  0  0  0  0  0
  188.3320  177.3920  141.2080 C   0  0  0  0  0  0  0  0  0  0  0  0
  190.5950  176.0240  143.4450 C   0  0  0  0  0  0  0  0  0  0  0  0
  184.9300  178.5850  144.6830 C   0  0  0  0  0  2  0  0  0  0  0  0
  184.2860  178.2340  142.3690 N   0  0  0  0  0  1  0  0  0  0  0  0
  188.7060  176.9240  143.5520 C   0  0  0  0  0  0  0  0  0  0  0  0
  186.1240  178.6990  145.6210 C   0  0  0  0  0  2  0  0  0  0  0  0
  186.6550  178.0090  142.8970 C   0  0  0  0  0  0  0  0  0  0  0  0
  189.1130  176.8830  142.2490 C   0  0  0  0  0  0  0  0  0  0  0  0
  191.6740  175.4660  143.7730 O   0  0  0  0  0  0  0  0  0  0  0  0
  190.2940  176.3210  142.1950 O   0  0  0  0  0  0  0  0  0  0  0  0
  187.0730  177.5390  145.3640 C   0  0  0  0  0  2  0  0  0  0  0  0
  187.4900  177.4980  143.9250 C   0  0  0  0  0  0  0  0  0  0  0  0
  188.7910  177.4230  139.7790 C   0  0  1  0  0  3  0  0  0  0  0  0
  189.0550  179.3780  138.4080 O   0  0  0  0  0  1  0  0  0  0  0  0
  188.0880  178.5200  138.9430 C   0  0  1  0  0  3  0  0  0  0  0  0
  187.5810  178.5560  136.4870 C   0  0  0  0  0  2  0  0  0  0  0  0
  187.4660  176.4360  137.5990 C   0  0  0  0  0  2  0  0  0  0  0  0
  187.2290  177.9210  137.8160 C   0  0  0  0  0  3  0  0  0  0  0  0
  187.1920  177.5360  135.4400 C   0  0  0  0  0  2  0  0  0  0  0  0
  187.2610  176.1790  136.1170 C   0  0  0  0  0  2  0  0  0  0  0  0
  190.3150  177.5190  139.7190 C   0  0  0  0  0  2  0  0  0  0  0  0
  192.2010  176.8260  138.2730 C   0  0  1  0  0  3  0  0  0  0  0  0
  190.9200  176.7290  137.4670 C   0  0  0  0  0  2  0  0  0  0  0  0
  190.9160  176.3680  138.9370 C   0  0  2  0  0  3  0  0  0  0  0  0
  194.3110  175.7720  138.5980 O   0  0  0  0  0  1  0  0  0  0  0  0
  193.0700  175.6180  137.9800 C   0  0  2  0  0  3  0  0  0  0  0  0
  193.2730  175.4840  136.4870 C   0  0  0  0  0  1  0  0  0  0  0  0
  1 10  1  0  0  0  0
  2  7  1  6  0  0  0
  2  6  1  0  0  0  0
  4  1  2  0  0  0  0
  4 11  1  0  0  0  0
  5 12  2  0  0  0  0
  5  3  1  0  0  0  0
  6  9  1  0  0  0  0
  8 15  1  0  0  0  0
  8  3  1  0  0  0  0
 10  2  1  0  0  0  0
 10 15  2  0  0  0  0
 11  8  2  0  0  0  0
 13 11  1  0  0  0  0
 13  5  1  0  0  0  0
 14  9  1  0  0  0  0
 15 14  1  0  0  0  0
 16 24  1  1  0  0  0
 16  4  1  0  0  0  0
 18 17  1  6  0  0  0
 18 16  1  0  0  0  0
 19 21  1  0  0  0  0
 20 21  1  0  0  0  0
 21 18  1  0  0  0  0
 22 23  1  0  0  0  0
 22 19  1  0  0  0  0
 23 20  1  0  0  0  0
 25 29  1  6  0  0  0
 25 27  1  0  0  0  0
 26 25  1  0  0  0  0
 26 27  1  0  0  0  0
 27 24  1  1  0  0  0
 29 30  1  6  0  0  0
 29 28  1  0  0  0  0
M  END
>  <MODEL>
6

>  <REMARK>
 VINA RESULT:      -8.3      2.954      4.916
  Name = 
  6 active torsions:
  status: ('A' for Active; 'I' for Inactive)
    1  A    between atoms: C_4  and  C_13
    2  A    between atoms: C_7  and  C_15
    3  A    between atoms: C_8  and  C_12
    4  A    between atoms: C_8  and  C_13
    5  A    between atoms: C_13  and  C_27
    6  A    between atoms: C_27  and  C_30
                            x       y       z     vdW  Elec       q    Type
                         _______ _______ _______ _____ _____    ______ ____

>  <TORSDO>
F 6

$$$$
=
 OpenBabel10262421513D

 30 34  0  0  1  0  0  0  0  0999 V2000
  186.9190  177.9510  143.5130 C   0  0  0  0  0  3  0  0  0  0  0  0
  185.3300  178.2240  145.4520 C   0  0  2  0  0  3  0  0  0  0  0  0
  184.3030  179.3400  140.6750 N   0  0  0  0  0  2  0  0  0  0  0  0
  187.2470  178.0100  142.1470 C   0  0  0  0  0  0  0  0  0  0  0  0
  185.1490  179.1380  139.6330 C   0  0  0  0  0  0  0  0  0  0  0  0
  183.9970  178.8590  145.8600 C   0  0  0  0  0  2  0  0  0  0  0  0
  186.3860  178.7860  146.2810 N   0  0  0  0  0  1  0  0  0  0  0  0
  185.0500  178.9240  141.7150 C   0  0  0  0  0  0  0  0  0  0  0  0
  182.9290  178.6260  144.7990 C   0  0  0  0  0  2  0  0  0  0  0  0
  185.6620  178.3950  143.9860 C   0  0  0  0  0  0  0  0  0  0  0  0
  186.2710  178.5020  141.2760 C   0  0  0  0  0  0  0  0  0  0  0  0
  184.8400  179.4000  138.4410 O   0  0  0  0  0  0  0  0  0  0  0  0
  186.3220  178.6380  139.9750 O   0  0  0  0  0  0  0  0  0  0  0  0
  183.3400  179.3300  143.5150 C   0  0  0  0  0  2  0  0  0  0  0  0
  184.6930  178.8700  143.0630 C   0  0  0  0  0  0  0  0  0  0  0  0
  188.5690  177.4730  141.6780 C   0  0  1  0  0  3  0  0  0  0  0  0
  189.3380  178.9440  139.9410 O   0  0  0  0  0  1  0  0  0  0  0  0
  188.7960  177.6720  140.1600 C   0  0  1  0  0  3  0  0  0  0  0  0
  189.3600  176.3150  138.1280 C   0  0  0  0  0  2  0  0  0  0  0  0
  191.1820  177.0110  139.5220 C   0  0  0  0  0  2  0  0  0  0  0  0
  189.7220  176.5940  139.5720 C   0  0  0  0  0  3  0  0  0  0  0  0
  190.6240  175.7730  137.4950 C   0  0  0  0  0  2  0  0  0  0  0  0
  191.7810  176.3370  138.3010 C   0  0  0  0  0  2  0  0  0  0  0  0
  189.7010  178.0510  142.5270 C   0  0  0  0  0  2  0  0  0  0  0  0
  190.3810  177.7850  144.8920 C   0  0  1  0  0  3  0  0  0  0  0  0
  191.5690  177.4450  144.0120 C   0  0  0  0  0  2  0  0  0  0  0  0
  190.1720  177.0620  143.5740 C   0  0  2  0  0  3  0  0  0  0  0  0
  189.4010  177.2450  146.9940 O   0  0  0  0  0  1  0  0  0  0  0  0
  190.2980  176.7850  146.0300 C   0  0  2  0  0  3  0  0  0  0  0  0
  191.6610  176.6140  146.6610 C   0  0  0  0  0  1  0  0  0  0  0  0
  1 10  1  0  0  0  0
  2  6  1  0  0  0  0
  2  7  1  1  0  0  0
  3  8  1  0  0  0  0
  4  1  2  0  0  0  0
  5 13  1  0  0  0  0
  5  3  1  0  0  0  0
  8 15  1  0  0  0  0
  9  6  1  0  0  0  0
 10  2  1  0  0  0  0
 11  8  2  0  0  0  0
 11  4  1  0  0  0  0
 12  5  2  0  0  0  0
 13 11  1  0  0  0  0
 14  9  1  0  0  0  0
 15 14  1  0  0  0  0
 15 10  2  0  0  0  0
 16  4  1  0  0  0  0
 16 24  1  1  0  0  0
 18 17  1  1  0  0  0
 18 16  1  0  0  0  0
 19 21  1  0  0  0  0
 20 21  1  0  0  0  0
 21 18  1  0  0  0  0
 22 19  1  0  0  0  0
 22 23  1  0  0  0  0
 23 20  1  0  0  0  0
 25 29  1  1  0  0  0
 26 25  1  0  0  0  0
 27 24  1  6  0  0  0
 27 26  1  0  0  0  0
 27 25  1  0  0  0  0
 29 30  1  1  0  0  0
 29 28  1  0  0  0  0
M  END
>  <MODEL>
7

>  <REMARK>
 VINA RESULT:      -8.2      2.218      6.354
  Name = 
  6 active torsions:
  status: ('A' for Active; 'I' for Inactive)
    1  A    between atoms: C_4  and  C_13
    2  A    between atoms: C_7  and  C_15
    3  A    between atoms: C_8  and  C_12
    4  A    between atoms: C_8  and  C_13
    5  A    between atoms: C_13  and  C_27
    6  A    between atoms: C_27  and  C_30
                            x       y       z     vdW  Elec       q    Type
                         _______ _______ _______ _____ _____    ______ ____

>  <TORSDO>
F 6

$$$$
=
 OpenBabel10262421513D

 30 34  0  0  1  0  0  0  0  0999 V2000
  188.2050  177.5080  140.1580 C   0  0  0  0  0  3  0  0  0  0  0  0
  187.0310  177.6860  137.9330 C   0  0  2  0  0  3  0  0  0  0  0  0
  191.9880  177.3370  138.5830 N   0  0  0  0  0  2  0  0  0  0  0  0
  189.3510  177.3650  140.9600 C   0  0  0  0  0  0  0  0  0  0  0  0
  192.6040  177.1880  139.7830 C   0  0  0  0  0  0  0  0  0  0  0  0
  187.2710  177.9400  136.4420 C   0  0  0  0  0  2  0  0  0  0  0  0
  186.1460  178.7210  138.4460 N   0  0  0  0  0  1  0  0  0  0  0  0
  190.6960  177.4190  138.9500 C   0  0  0  0  0  0  0  0  0  0  0  0
  188.4720  177.1540  135.9360 C   0  0  0  0  0  2  0  0  0  0  0  0
  188.3020  177.6260  138.7520 C   0  0  0  0  0  0  0  0  0  0  0  0
  190.5860  177.3190  140.3070 C   0  0  0  0  0  0  0  0  0  0  0  0
  193.8520  177.0700  139.9010 O   0  0  0  0  0  0  0  0  0  0  0  0
  191.7830  177.1740  140.8170 O   0  0  0  0  0  0  0  0  0  0  0  0
  189.7260  177.6500  136.6400 C   0  0  0  0  0  2  0  0  0  0  0  0
  189.5760  177.5530  138.1290 C   0  0  0  0  0  0  0  0  0  0  0  0
  189.2020  177.1850  142.4430 C   0  0  1  0  0  3  0  0  0  0  0  0
  187.7090  175.6270  143.5010 O   0  0  0  0  0  1  0  0  0  0  0  0
  187.7460  176.8750  142.8680 C   0  0  1  0  0  3  0  0  0  0  0  0
  185.7870  178.3620  143.3590 C   0  0  0  0  0  2  0  0  0  0  0  0
  186.9990  177.4900  145.2350 C   0  0  0  0  0  2  0  0  0  0  0  0
  187.1780  177.9590  143.8010 C   0  0  0  0  0  3  0  0  0  0  0  0
  185.1120  178.9010  144.6020 C   0  0  0  0  0  2  0  0  0  0  0  0
  185.7930  178.2320  145.7830 C   0  0  0  0  0  2  0  0  0  0  0  0
  190.2000  176.1430  142.9480 C   0  0  0  0  0  2  0  0  0  0  0  0
  190.6280  176.5060  145.3590 C   0  0  1  0  0  3  0  0  0  0  0  0
  190.4610  177.8590  144.6960 C   0  0  0  0  0  2  0  0  0  0  0  0
  191.1610  176.7380  143.9580 C   0  0  2  0  0  3  0  0  0  0  0  0
  192.3380  175.3040  146.5010 O   0  0  0  0  0  1  0  0  0  0  0  0
  191.7760  176.5710  146.3480 C   0  0  2  0  0  3  0  0  0  0  0  0
  191.2690  177.0540  147.6890 C   0  0  0  0  0  1  0  0  0  0  0  0
  1  4  1  0  0  0  0
  2  7  1  1  0  0  0
  2 10  1  0  0  0  0
  3  8  1  0  0  0  0
  3  5  1  0  0  0  0
  4 16  1  0  0  0  0
  5 12  2  0  0  0  0
  5 13  1  0  0  0  0
  6  2  1  0  0  0  0
  8 11  1  0  0  0  0
  9  6  1  0  0  0  0
  9 14  1  0  0  0  0
 10  1  2  0  0  0  0
 11 13  1  0  0  0  0
 11  4  2  0  0  0  0
 14 15  1  0  0  0  0
 15 10  1  0  0  0  0
 15  8  2  0  0  0  0
 16 18  1  0  0  0  0
 16 24  1  6  0  0  0
 18 17  1  1  0  0  0
 18 21  1  0  0  0  0
 19 21  1  0  0  0  0
 19 22  1  0  0  0  0
 20 23  1  0  0  0  0
 21 20  1  0  0  0  0
 22 23  1  0  0  0  0
 25 29  1  1  0  0  0
 26 25  1  0  0  0  0
 27 24  1  6  0  0  0
 27 26  1  0  0  0  0
 27 25  1  0  0  0  0
 29 28  1  0  0  0  0
 29 30  1  1  0  0  0
M  END
>  <MODEL>
8

>  <REMARK>
 VINA RESULT:      -8.2      2.994      7.351
  Name = 
  6 active torsions:
  status: ('A' for Active; 'I' for Inactive)
    1  A    between atoms: C_4  and  C_13
    2  A    between atoms: C_7  and  C_15
    3  A    between atoms: C_8  and  C_12
    4  A    between atoms: C_8  and  C_13
    5  A    between atoms: C_13  and  C_27
    6  A    between atoms: C_27  and  C_30
                            x       y       z     vdW  Elec       q    Type
                         _______ _______ _______ _____ _____    ______ ____

>  <TORSDO>
F 6

$$$$
=
 OpenBabel10262421513D

 30 34  0  0  1  0  0  0  0  0999 V2000
  189.2070  177.4990  140.2280 C   0  0  0  0  0  3  0  0  0  0  0  0
  190.3930  176.8340  138.1040 C   0  0  2  0  0  3  0  0  0  0  0  0
  185.7640  178.7360  138.3730 N   0  0  0  0  0  2  0  0  0  0  0  0
  188.1180  178.0370  140.9370 C   0  0  0  0  0  0  0  0  0  0  0  0
  185.1570  179.1390  139.5180 C   0  0  0  0  0  0  0  0  0  0  0  0
  190.1730  176.5780  136.6100 C   0  0  0  0  0  2  0  0  0  0  0  0
  190.8800  175.6100  138.7210 N   0  0  0  0  0  1  0  0  0  0  0  0
  186.9420  178.2810  138.8370 C   0  0  0  0  0  0  0  0  0  0  0  0
  189.3080  177.6650  135.9870 C   0  0  0  0  0  2  0  0  0  0  0  0
  189.1590  177.3330  138.8240 C   0  0  0  0  0  0  0  0  0  0  0  0
  186.9990  178.4230  140.1930 C   0  0  0  0  0  0  0  0  0  0  0  0
  184.0040  179.6440  139.5390 O   0  0  0  0  0  0  0  0  0  0  0  0
  185.8800  178.9610  140.6080 O   0  0  0  0  0  0  0  0  0  0  0  0
  187.9230  177.6230  136.6160 C   0  0  0  0  0  2  0  0  0  0  0  0
  188.0100  177.7580  138.1070 C   0  0  0  0  0  0  0  0  0  0  0  0
  188.2300  178.2510  142.4190 C   0  0  1  0  0  3  0  0  0  0  0  0
  187.7640  176.2550  143.6730 O   0  0  0  0  0  1  0  0  0  0  0  0
  187.1830  177.4470  143.2260 C   0  0  1  0  0  3  0  0  0  0  0  0
  185.2200  178.7090  144.1450 C   0  0  0  0  0  2  0  0  0  0  0  0
  186.5320  177.4380  145.6980 C   0  0  0  0  0  2  0  0  0  0  0  0
  186.6370  178.2510  144.4190 C   0  0  0  0  0  3  0  0  0  0  0  0
  184.5920  178.9050  145.5090 C   0  0  0  0  0  2  0  0  0  0  0  0
  185.3380  177.9860  146.4600 C   0  0  0  0  0  2  0  0  0  0  0  0
  189.6630  177.9860  142.8800 C   0  0  0  0  0  2  0  0  0  0  0  0
  190.5500  177.6120  145.1610 C   0  0  1  0  0  3  0  0  0  0  0  0
  191.1260  176.5500  144.2450 C   0  0  0  0  0  2  0  0  0  0  0  0
  189.7020  177.0230  144.0500 C   0  0  2  0  0  3  0  0  0  0  0  0
  189.5310  177.9240  147.2900 O   0  0  0  0  0  1  0  0  0  0  0  0
  190.1590  176.9770  146.4810 C   0  0  2  0  0  3  0  0  0  0  0  0
  191.3920  176.4610  147.1870 C   0  0  0  0  0  1  0  0  0  0  0  0
  1  4  1  0  0  0  0
  2  7  1  1  0  0  0
  2 10  1  0  0  0  0
  3  8  1  0  0  0  0
  3  5  1  0  0  0  0
  4 16  1  0  0  0  0
  5 12  2  0  0  0  0
  5 13  1  0  0  0  0
  6  2  1  0  0  0  0
  8 11  1  0  0  0  0
  9  6  1  0  0  0  0
  9 14  1  0  0  0  0
 10  1  2  0  0  0  0
 11 13  1  0  0  0  0
 11  4  2  0  0  0  0
 14 15  1  0  0  0  0
 15 10  1  0  0  0  0
 15  8  2  0  0  0  0
 16 24  1  1  0  0  0
 16 18  1  0  0  0  0
 18 17  1  1  0  0  0
 18 21  1  0  0  0  0
 19 21  1  0  0  0  0
 19 22  1  0  0  0  0
 20 23  1  0  0  0  0
 21 20  1  0  0  0  0
 22 23  1  0  0  0  0
 25 29  1  1  0  0  0
 26 25  1  0  0  0  0
 27 24  1  6  0  0  0
 27 26  1  0  0  0  0
 27 25  1  0  0  0  0
 29 30  1  1  0  0  0
 29 28  1  0  0  0  0
M  END
>  <MODEL>
9

>  <REMARK>
 VINA RESULT:      -8.2      2.741      6.644
  Name = 
  6 active torsions:
  status: ('A' for Active; 'I' for Inactive)
    1  A    between atoms: C_4  and  C_13
    2  A    between atoms: C_7  and  C_15
    3  A    between atoms: C_8  and  C_12
    4  A    between atoms: C_8  and  C_13
    5  A    between atoms: C_13  and  C_27
    6  A    between atoms: C_27  and  C_30
                            x       y       z     vdW  Elec       q    Type
                         _______ _______ _______ _____ _____    ______ ____

>  <TORSDO>
F 6

$$$$
