=
 OpenBabel10262419183D

 34 38  0  0  1  0  0  0  0  0999 V2000
  190.1410  177.1170  146.6990 C   0  0  0  0  0  0  0  0  0  0  0  0
  191.5180  175.7600  145.2330 C   0  0  0  0  0  0  0  0  0  0  0  0
  189.5720  177.0880  144.3120 C   0  0  0  0  0  0  0  0  0  0  0  0
  188.9680  177.3610  141.9590 C   0  0  0  0  0  0  0  0  0  0  0  0
  191.0250  176.8710  147.7530 C   0  0  0  0  0  3  0  0  0  0  0  0
  192.3970  175.5300  146.2960 C   0  0  0  0  0  3  0  0  0  0  0  0
  191.4170  177.0960  142.5290 C   0  0  0  0  0  2  0  0  0  0  0  0
  190.4370  176.6750  145.3800 C   0  0  0  0  0  0  0  0  0  0  0  0
  191.6740  177.5650  141.1020 C   0  0  0  0  0  2  0  0  0  0  0  0
  189.2880  177.4080  140.4890 C   0  0  0  0  0  2  0  0  0  0  0  0
  192.1690  176.1070  147.5430 C   0  0  0  0  0  3  0  0  0  0  0  0
  188.2800  177.5870  144.6470 C   0  0  0  0  0  0  0  0  0  0  0  0
  188.9350  177.7450  146.9800 C   0  0  0  0  0  3  0  0  0  0  0  0
  191.6750  174.9830  144.0940 O   0  0  0  0  0  1  0  0  0  0  0  0
  187.7040  177.6740  142.3330 N   0  0  0  0  0  0  0  0  0  0  0  0
  187.3240  177.8080  143.6280 C   0  0  0  0  0  0  0  0  0  0  0  0
  190.6860  176.8900  140.1710 C   0  0  1  0  0  3  0  0  0  0  0  0
  189.9590  177.1320  142.9410 C   0  0  0  0  0  0  0  0  0  0  0  0
  188.0010  177.9390  145.9740 C   0  0  0  0  0  3  0  0  0  0  0  0
  183.6650  178.6020  143.0580 C   0  0  0  0  0  0  0  0  0  0  0  0
  183.2220  178.8640  144.3560 C   0  0  0  0  0  3  0  0  0  0  0  0
  185.9150  178.2040  143.8940 C   0  0  0  0  0  0  0  0  0  0  0  0
  184.1160  178.7890  145.4260 C   0  0  0  0  0  3  0  0  0  0  0  0
  185.0030  178.2690  142.8300 C   0  0  0  0  0  3  0  0  0  0  0  0
  185.4530  178.4550  145.1970 C   0  0  0  0  0  3  0  0  0  0  0  0
  182.7980  178.6690  142.0190 F   0  0  0  0  0  0  0  0  0  0  0  0
  191.0480  177.2090  138.7320 C   0  0  0  0  0  2  0  0  0  0  0  0
  190.6430  176.0660  137.8190 C   0  0  0  0  0  2  0  0  0  0  0  0
  191.5030  173.8670  137.5760 O   0  0  0  0  0  0  0  0  0  0  0  0
  195.4220  175.3300  137.7580 O   0  0  0  0  0  0  0  0  0  0  0  0
  194.2990  174.7680  137.6800 C   0  0  0  0  0  0  0  0  0  0  0  0
  193.1120  175.5660  137.7650 N   0  0  0  0  0  2  0  0  0  0  0  0
  191.7610  175.0930  137.7010 C   0  0  0  0  0  0  0  0  0  0  0  0
  194.2500  173.2880  137.5010 C   0  0  0  0  0  1  0  0  0  0  0  0
  1 13  1  0  0  0  0
  1  5  2  0  0  0  0
  2  8  2  0  0  0  0
  2  6  1  0  0  0  0
  3 12  1  0  0  0  0
  3  8  1  0  0  0  0
  4 15  2  0  0  0  0
  4 18  1  0  0  0  0
  6 11  2  0  0  0  0
  7 18  1  0  0  0  0
  8  1  1  0  0  0  0
  9  7  1  0  0  0  0
 10  4  1  0  0  0  0
 11  5  1  0  0  0  0
 12 19  1  0  0  0  0
 14  2  1  0  0  0  0
 15 16  1  0  0  0  0
 16 22  1  0  0  0  0
 16 12  2  0  0  0  0
 17 27  1  6  0  0  0
 17 10  1  0  0  0  0
 17  9  1  0  0  0  0
 18  3  2  0  0  0  0
 19 13  2  0  0  0  0
 20 21  1  0  0  0  0
 21 23  2  0  0  0  0
 22 25  2  0  0  0  0
 24 20  2  0  0  0  0
 24 22  1  0  0  0  0
 25 23  1  0  0  0  0
 26 20  1  0  0  0  0
 28 27  1  0  0  0  0
 29 33  2  0  0  0  0
 31 30  2  0  0  0  0
 31 32  1  0  0  0  0
 33 32  1  0  0  0  0
 33 28  1  0  0  0  0
 34 31  1  0  0  0  0
M  END
>  <MODEL>
1

>  <REMARK>
 VINA RESULT:     -11.8      0.000      0.000
  Name = 
  4 active torsions:
  status: ('A' for Active; 'I' for Inactive)
    1  A    between atoms: C_3  and  C_13
    2  A    between atoms: C_3  and  C_29
    3  A    between atoms: C_12  and  C_28
    4  A    between atoms: C_13  and  C_33
                            x       y       z     vdW  Elec       q    Type
                         _______ _______ _______ _____ _____    ______ ____

>  <TORSDO>
F 4

$$$$
=
 OpenBabel10262419183D

 34 38  0  0  1  0  0  0  0  0999 V2000
  190.1410  177.1120  146.6560 C   0  0  0  0  0  0  0  0  0  0  0  0
  191.5040  175.7460  145.1860 C   0  0  0  0  0  0  0  0  0  0  0  0
  189.5540  177.0740  144.2730 C   0  0  0  0  0  0  0  0  0  0  0  0
  188.9340  177.3410  141.9240 C   0  0  0  0  0  0  0  0  0  0  0  0
  191.0320  176.8680  147.7040 C   0  0  0  0  0  3  0  0  0  0  0  0
  192.3900  175.5170  146.2430 C   0  0  0  0  0  3  0  0  0  0  0  0
  191.3860  177.0720  142.4780 C   0  0  0  0  0  2  0  0  0  0  0  0
  190.4260  176.6640  145.3370 C   0  0  0  0  0  0  0  0  0  0  0  0
  191.6340  177.5340  141.0460 C   0  0  0  0  0  2  0  0  0  0  0  0
  189.2430  177.3810  140.4520 C   0  0  0  0  0  2  0  0  0  0  0  0
  192.1730  176.1000  147.4890 C   0  0  0  0  0  3  0  0  0  0  0  0
  188.2660  177.5780  144.6170 C   0  0  0  0  0  0  0  0  0  0  0  0
  188.9390  177.7430  146.9440 C   0  0  0  0  0  3  0  0  0  0  0  0
  191.6510  174.9640  144.0480 O   0  0  0  0  0  1  0  0  0  0  0  0
  187.6730  177.6580  142.3060 N   0  0  0  0  0  0  0  0  0  0  0  0
  187.3030  177.7980  143.6040 C   0  0  0  0  0  0  0  0  0  0  0  0
  190.6370  176.8580  140.1260 C   0  0  1  0  0  3  0  0  0  0  0  0
  189.9310  177.1130  142.9000 C   0  0  0  0  0  0  0  0  0  0  0  0
  187.9980  177.9360  145.9440 C   0  0  0  0  0  3  0  0  0  0  0  0
  183.6450  178.6090  143.0550 C   0  0  0  0  0  0  0  0  0  0  0  0
  183.2090  178.8670  144.3560 C   0  0  0  0  0  3  0  0  0  0  0  0
  185.8970  178.1980  143.8790 C   0  0  0  0  0  0  0  0  0  0  0  0
  184.1080  178.7830  145.4220 C   0  0  0  0  0  3  0  0  0  0  0  0
  184.9800  178.2710  142.8190 C   0  0  0  0  0  3  0  0  0  0  0  0
  185.4430  178.4450  145.1850 C   0  0  0  0  0  3  0  0  0  0  0  0
  182.7720  178.6830  142.0210 F   0  0  0  0  0  0  0  0  0  0  0  0
  190.9890  177.1710  138.6830 C   0  0  0  0  0  2  0  0  0  0  0  0
  191.4440  175.9130  137.9650 C   0  0  0  0  0  2  0  0  0  0  0  0
  190.3390  173.8460  137.5910 O   0  0  0  0  0  0  0  0  0  0  0  0
  186.8860  175.8640  136.3520 O   0  0  0  0  0  0  0  0  0  0  0  0
  187.8520  175.1430  136.7100 C   0  0  0  0  0  0  0  0  0  0  0  0
  189.0700  175.7680  137.1350 N   0  0  0  0  0  2  0  0  0  0  0  0
  190.2620  175.1030  137.5680 C   0  0  0  0  0  0  0  0  0  0  0  0
  187.6900  173.6610  136.6790 C   0  0  0  0  0  1  0  0  0  0  0  0
  1 13  1  0  0  0  0
  1  5  2  0  0  0  0
  2  8  2  0  0  0  0
  2  6  1  0  0  0  0
  3 12  1  0  0  0  0
  3  8  1  0  0  0  0
  4 15  2  0  0  0  0
  4 18  1  0  0  0  0
  6 11  2  0  0  0  0
  7 18  1  0  0  0  0
  8  1  1  0  0  0  0
  9  7  1  0  0  0  0
 10  4  1  0  0  0  0
 11  5  1  0  0  0  0
 12 19  1  0  0  0  0
 14  2  1  0  0  0  0
 15 16  1  0  0  0  0
 16 22  1  0  0  0  0
 16 12  2  0  0  0  0
 17 27  1  6  0  0  0
 17 10  1  0  0  0  0
 17  9  1  0  0  0  0
 18  3  2  0  0  0  0
 19 13  2  0  0  0  0
 20 21  1  0  0  0  0
 21 23  2  0  0  0  0
 22 25  2  0  0  0  0
 24 20  2  0  0  0  0
 24 22  1  0  0  0  0
 25 23  1  0  0  0  0
 26 20  1  0  0  0  0
 28 27  1  0  0  0  0
 30 31  2  0  0  0  0
 31 32  1  0  0  0  0
 32 33  1  0  0  0  0
 33 29  2  0  0  0  0
 33 28  1  0  0  0  0
 34 31  1  0  0  0  0
M  END
>  <MODEL>
2

>  <REMARK>
 VINA RESULT:     -11.7      1.460      2.319
  Name = 
  4 active torsions:
  status: ('A' for Active; 'I' for Inactive)
    1  A    between atoms: C_3  and  C_13
    2  A    between atoms: C_3  and  C_29
    3  A    between atoms: C_12  and  C_28
    4  A    between atoms: C_13  and  C_33
                            x       y       z     vdW  Elec       q    Type
                         _______ _______ _______ _____ _____    ______ ____

>  <TORSDO>
F 4

$$$$
=
 OpenBabel10262419183D

 34 38  0  0  1  0  0  0  0  0999 V2000
  191.2890  176.1020  145.0980 C   0  0  0  0  0  0  0  0  0  0  0  0
  190.0670  177.4400  146.7100 C   0  0  0  0  0  0  0  0  0  0  0  0
  189.2310  177.2000  144.3350 C   0  0  0  0  0  0  0  0  0  0  0  0
  187.1140  178.0290  143.4360 C   0  0  0  0  0  0  0  0  0  0  0  0
  192.1390  175.6570  146.1140 C   0  0  0  0  0  3  0  0  0  0  0  0
  190.9210  176.9800  147.7170 C   0  0  0  0  0  3  0  0  0  0  0  0
  187.1730  177.3220  145.8630 C   0  0  0  0  0  2  0  0  0  0  0  0
  190.1520  176.9020  145.3950 C   0  0  0  0  0  0  0  0  0  0  0  0
  185.6520  177.3750  145.7880 C   0  0  0  0  0  2  0  0  0  0  0  0
  185.6750  178.4490  143.5660 C   0  0  0  0  0  2  0  0  0  0  0  0
  191.9340  176.0690  147.4270 C   0  0  0  0  0  3  0  0  0  0  0  0
  189.6690  177.0160  142.9920 C   0  0  0  0  0  0  0  0  0  0  0  0
  191.6170  175.8010  143.7830 C   0  0  0  0  0  3  0  0  0  0  0  0
  189.2330  178.5060  147.0170 O   0  0  0  0  0  1  0  0  0  0  0  0
  187.6420  177.9870  142.1890 N   0  0  0  0  0  0  0  0  0  0  0  0
  188.8760  177.4910  141.9210 C   0  0  0  0  0  0  0  0  0  0  0  0
  185.2350  178.6110  145.0160 C   0  0  1  0  0  3  0  0  0  0  0  0
  187.8690  177.5650  144.5380 C   0  0  0  0  0  0  0  0  0  0  0  0
  190.8400  176.2880  142.7430 C   0  0  0  0  0  3  0  0  0  0  0  0
  189.1700  178.3840  138.2520 C   0  0  0  0  0  0  0  0  0  0  0  0
  190.1600  177.4990  137.8190 C   0  0  0  0  0  3  0  0  0  0  0  0
  189.3110  177.4600  140.4990 C   0  0  0  0  0  0  0  0  0  0  0  0
  190.7340  176.5990  138.7200 C   0  0  0  0  0  3  0  0  0  0  0  0
  188.7530  178.3680  139.5860 C   0  0  0  0  0  3  0  0  0  0  0  0
  190.3160  176.5850  140.0540 C   0  0  0  0  0  3  0  0  0  0  0  0
  188.6170  179.2610  137.3800 F   0  0  0  0  0  0  0  0  0  0  0  0
  183.7270  178.7690  145.0910 C   0  0  0  0  0  2  0  0  0  0  0  0
  183.2300  179.6440  143.9540 C   0  0  0  0  0  2  0  0  0  0  0  0
  181.0710  178.6620  144.0400 O   0  0  0  0  0  0  0  0  0  0  0  0
  181.1190  178.0840  139.8930 O   0  0  0  0  0  0  0  0  0  0  0  0
  180.9770  178.2090  141.1370 C   0  0  0  0  0  0  0  0  0  0  0  0
  182.0320  178.8050  141.9020 N   0  0  0  0  0  2  0  0  0  0  0  0
  182.0400  179.0190  143.3190 C   0  0  0  0  0  0  0  0  0  0  0  0
  179.7120  177.7310  141.7660 C   0  0  0  0  0  1  0  0  0  0  0  0
  1  8  1  0  0  0  0
  1  5  2  0  0  0  0
  2 14  1  0  0  0  0
  2  6  1  0  0  0  0
  3 18  1  0  0  0  0
  3  8  1  0  0  0  0
  4 10  1  0  0  0  0
  4 18  2  0  0  0  0
  5 11  1  0  0  0  0
  8  2  2  0  0  0  0
  9  7  1  0  0  0  0
 10 17  1  0  0  0  0
 11  6  2  0  0  0  0
 12  3  2  0  0  0  0
 13  1  1  0  0  0  0
 15  4  1  0  0  0  0
 16 15  2  0  0  0  0
 16 12  1  0  0  0  0
 17 27  1  6  0  0  0
 17  9  1  0  0  0  0
 18  7  1  0  0  0  0
 19 12  1  0  0  0  0
 19 13  2  0  0  0  0
 20 24  1  0  0  0  0
 21 20  2  0  0  0  0
 21 23  1  0  0  0  0
 22 16  1  0  0  0  0
 23 25  2  0  0  0  0
 24 22  2  0  0  0  0
 25 22  1  0  0  0  0
 26 20  1  0  0  0  0
 28 27  1  0  0  0  0
 30 31  2  0  0  0  0
 31 34  1  0  0  0  0
 31 32  1  0  0  0  0
 32 33  1  0  0  0  0
 33 28  1  0  0  0  0
 33 29  2  0  0  0  0
M  END
>  <MODEL>
3

>  <REMARK>
 VINA RESULT:     -11.3      3.635      7.701
  Name = 
  4 active torsions:
  status: ('A' for Active; 'I' for Inactive)
    1  A    between atoms: C_3  and  C_13
    2  A    between atoms: C_3  and  C_29
    3  A    between atoms: C_12  and  C_28
    4  A    between atoms: C_13  and  C_33
                            x       y       z     vdW  Elec       q    Type
                         _______ _______ _______ _____ _____    ______ ____

>  <TORSDO>
F 4

$$$$
=
 OpenBabel10262419183D

 34 38  0  0  1  0  0  0  0  0999 V2000
  187.0660  178.4340  147.0030 C   0  0  0  0  0  0  0  0  0  0  0  0
  188.9270  177.1240  146.1650 C   0  0  0  0  0  0  0  0  0  0  0  0
  187.1800  178.0420  144.5830 C   0  0  0  0  0  0  0  0  0  0  0  0
  187.2190  177.9460  142.1410 C   0  0  0  0  0  0  0  0  0  0  0  0
  187.6470  178.4430  148.2730 C   0  0  0  0  0  3  0  0  0  0  0  0
  189.5000  177.1490  147.4400 C   0  0  0  0  0  3  0  0  0  0  0  0
  189.4310  178.1030  143.3550 C   0  0  0  0  0  2  0  0  0  0  0  0
  187.7570  177.8860  145.8880 C   0  0  0  0  0  0  0  0  0  0  0  0
  190.0190  178.4310  141.9880 C   0  0  0  0  0  2  0  0  0  0  0  0
  187.9230  177.8640  140.8140 C   0  0  0  0  0  2  0  0  0  0  0  0
  188.8790  177.8300  148.4840 C   0  0  0  0  0  3  0  0  0  0  0  0
  185.8000  178.3880  144.4950 C   0  0  0  0  0  0  0  0  0  0  0  0
  185.7700  178.9120  146.8660 C   0  0  0  0  0  3  0  0  0  0  0  0
  189.4730  176.2480  145.2360 O   0  0  0  0  0  1  0  0  0  0  0  0
  185.8750  178.1180  142.1250 N   0  0  0  0  0  0  0  0  0  0  0  0
  185.1420  178.3480  143.2430 C   0  0  0  0  0  0  0  0  0  0  0  0
  189.4010  177.5170  140.9480 C   0  0  1  0  0  3  0  0  0  0  0  0
  187.9200  177.9790  143.3680 C   0  0  0  0  0  0  0  0  0  0  0  0
  185.1320  178.8510  145.6360 C   0  0  0  0  0  3  0  0  0  0  0  0
  181.7590  178.7830  141.5980 C   0  0  0  0  0  0  0  0  0  0  0  0
  180.9130  178.8950  142.7040 C   0  0  0  0  0  3  0  0  0  0  0  0
  183.6810  178.5670  143.0750 C   0  0  0  0  0  0  0  0  0  0  0  0
  181.4430  178.8350  143.9950 C   0  0  0  0  0  3  0  0  0  0  0  0
  183.1340  178.6150  141.7830 C   0  0  0  0  0  3  0  0  0  0  0  0
  182.8180  178.6660  144.1790 C   0  0  0  0  0  3  0  0  0  0  0  0
  181.2460  178.8350  140.3450 F   0  0  0  0  0  0  0  0  0  0  0  0
  190.1080  177.7120  139.6190 C   0  0  0  0  0  2  0  0  0  0  0  0
  189.5580  176.7500  138.5810 C   0  0  0  0  0  2  0  0  0  0  0  0
  190.3320  174.7300  137.6040 O   0  0  0  0  0  0  0  0  0  0  0  0
  194.3050  175.9510  138.1160 O   0  0  0  0  0  0  0  0  0  0  0  0
  193.1610  175.4750  137.8990 C   0  0  0  0  0  0  0  0  0  0  0  0
  192.0060  176.2320  138.2810 N   0  0  0  0  0  2  0  0  0  0  0  0
  190.6380  175.8410  138.1140 C   0  0  0  0  0  0  0  0  0  0  0  0
  193.0540  174.1370  137.2480 C   0  0  0  0  0  1  0  0  0  0  0  0
  1  5  2  0  0  0  0
  2  6  1  0  0  0  0
  3  8  1  0  0  0  0
  4 18  1  0  0  0  0
  5 11  1  0  0  0  0
  6 11  2  0  0  0  0
  7 18  1  0  0  0  0
  8  2  2  0  0  0  0
  8  1  1  0  0  0  0
  9  7  1  0  0  0  0
 10 17  1  0  0  0  0
 10  4  1  0  0  0  0
 12  3  1  0  0  0  0
 12 19  1  0  0  0  0
 13  1  1  0  0  0  0
 14  2  1  0  0  0  0
 15  4  2  0  0  0  0
 15 16  1  0  0  0  0
 16 12  2  0  0  0  0
 17 27  1  6  0  0  0
 17  9  1  0  0  0  0
 18  3  2  0  0  0  0
 19 13  2  0  0  0  0
 20 24  2  0  0  0  0
 20 21  1  0  0  0  0
 21 23  2  0  0  0  0
 22 16  1  0  0  0  0
 22 25  2  0  0  0  0
 23 25  1  0  0  0  0
 24 22  1  0  0  0  0
 26 20  1  0  0  0  0
 28 27  1  0  0  0  0
 29 33  2  0  0  0  0
 31 30  2  0  0  0  0
 31 32  1  0  0  0  0
 33 32  1  0  0  0  0
 33 28  1  0  0  0  0
 34 31  1  0  0  0  0
M  END
>  <MODEL>
4

>  <REMARK>
 VINA RESULT:     -11.0      1.597      2.470
  Name = 
  4 active torsions:
  status: ('A' for Active; 'I' for Inactive)
    1  A    between atoms: C_3  and  C_13
    2  A    between atoms: C_3  and  C_29
    3  A    between atoms: C_12  and  C_28
    4  A    between atoms: C_13  and  C_33
                            x       y       z     vdW  Elec       q    Type
                         _______ _______ _______ _____ _____    ______ ____

>  <TORSDO>
F 4

$$$$
=
 OpenBabel10262419183D

 34 38  0  0  1  0  0  0  0  0999 V2000
  187.0960  178.4690  147.1580 C   0  0  0  0  0  0  0  0  0  0  0  0
  189.0030  177.1090  146.5300 C   0  0  0  0  0  0  0  0  0  0  0  0
  187.4270  178.0100  144.7700 C   0  0  0  0  0  0  0  0  0  0  0  0
  187.6900  177.8480  142.3450 C   0  0  0  0  0  0  0  0  0  0  0  0
  187.5570  178.5040  148.4760 C   0  0  0  0  0  3  0  0  0  0  0  0
  189.4560  177.1590  147.8520 C   0  0  0  0  0  3  0  0  0  0  0  0
  189.7830  178.0040  143.7560 C   0  0  0  0  0  2  0  0  0  0  0  0
  187.8780  177.8800  146.1270 C   0  0  0  0  0  0  0  0  0  0  0  0
  190.5010  178.2870  142.4410 C   0  0  0  0  0  2  0  0  0  0  0  0
  188.5120  177.7200  141.0920 C   0  0  0  0  0  2  0  0  0  0  0  0
  188.7540  177.8780  148.8160 C   0  0  0  0  0  3  0  0  0  0  0  0
  186.0670  178.3740  144.5450 C   0  0  0  0  0  0  0  0  0  0  0  0
  185.8260  178.9620  146.8890 C   0  0  0  0  0  3  0  0  0  0  0  0
  189.6170  176.2000  145.6790 O   0  0  0  0  0  1  0  0  0  0  0  0
  186.3570  178.0390  142.2000 N   0  0  0  0  0  0  0  0  0  0  0  0
  185.5270  178.3100  143.2390 C   0  0  0  0  0  0  0  0  0  0  0  0
  189.9650  177.3540  141.3720 C   0  0  1  0  0  3  0  0  0  0  0  0
  188.2750  177.9030  143.6310 C   0  0  0  0  0  0  0  0  0  0  0  0
  185.3040  178.8770  145.6070 C   0  0  0  0  0  3  0  0  0  0  0  0
  182.2950  178.6250  141.2910 C   0  0  0  0  0  0  0  0  0  0  0  0
  181.3740  178.9010  142.3040 C   0  0  0  0  0  3  0  0  0  0  0  0
  184.0920  178.5470  142.9300 C   0  0  0  0  0  0  0  0  0  0  0  0
  181.8030  178.9920  143.6300 C   0  0  0  0  0  3  0  0  0  0  0  0
  183.6450  178.4430  141.6040 C   0  0  0  0  0  3  0  0  0  0  0  0
  183.1530  178.8100  143.9410 C   0  0  0  0  0  3  0  0  0  0  0  0
  181.8790  178.5300  140.0050 F   0  0  0  0  0  0  0  0  0  0  0  0
  190.7960  177.5030  140.1100 C   0  0  0  0  0  2  0  0  0  0  0  0
  190.5950  176.3040  139.2010 C   0  0  0  0  0  2  0  0  0  0  0  0
  190.3870  176.1660  136.8400 O   0  0  0  0  0  0  0  0  0  0  0  0
  187.6970  179.3750  136.8450 O   0  0  0  0  0  0  0  0  0  0  0  0
  188.4820  178.4020  136.7100 C   0  0  0  0  0  0  0  0  0  0  0  0
  189.1090  177.8440  137.8720 N   0  0  0  0  0  2  0  0  0  0  0  0
  190.0280  176.7460  137.8990 C   0  0  0  0  0  0  0  0  0  0  0  0
  188.7280  177.8640  135.3400 C   0  0  0  0  0  1  0  0  0  0  0  0
  1  5  2  0  0  0  0
  2  6  1  0  0  0  0
  3  8  1  0  0  0  0
  4 18  1  0  0  0  0
  5 11  1  0  0  0  0
  6 11  2  0  0  0  0
  8  2  2  0  0  0  0
  8  1  1  0  0  0  0
  9  7  1  0  0  0  0
 10 17  1  0  0  0  0
 10  4  1  0  0  0  0
 12  3  1  0  0  0  0
 12 19  1  0  0  0  0
 13  1  1  0  0  0  0
 14  2  1  0  0  0  0
 15  4  2  0  0  0  0
 15 16  1  0  0  0  0
 16 12  2  0  0  0  0
 17 27  1  6  0  0  0
 17  9  1  0  0  0  0
 18  7  1  0  0  0  0
 18  3  2  0  0  0  0
 19 13  2  0  0  0  0
 20 24  2  0  0  0  0
 20 21  1  0  0  0  0
 21 23  2  0  0  0  0
 22 16  1  0  0  0  0
 22 25  2  0  0  0  0
 23 25  1  0  0  0  0
 24 22  1  0  0  0  0
 26 20  1  0  0  0  0
 28 27  1  0  0  0  0
 29 33  2  0  0  0  0
 31 30  2  0  0  0  0
 31 32  1  0  0  0  0
 32 33  1  0  0  0  0
 33 28  1  0  0  0  0
 34 31  1  0  0  0  0
M  END
>  <MODEL>
5

>  <REMARK>
 VINA RESULT:     -11.0      2.272      3.418
  Name = 
  4 active torsions:
  status: ('A' for Active; 'I' for Inactive)
    1  A    between atoms: C_3  and  C_13
    2  A    between atoms: C_3  and  C_29
    3  A    between atoms: C_12  and  C_28
    4  A    between atoms: C_13  and  C_33
                            x       y       z     vdW  Elec       q    Type
                         _______ _______ _______ _____ _____    ______ ____

>  <TORSDO>
F 4

$$$$
=
 OpenBabel10262419183D

 34 38  0  0  1  0  0  0  0  0999 V2000
  187.0570  178.4530  147.1010 C   0  0  0  0  0  0  0  0  0  0  0  0
  189.0390  177.1520  146.5890 C   0  0  0  0  0  0  0  0  0  0  0  0
  187.5170  177.9660  144.7400 C   0  0  0  0  0  0  0  0  0  0  0  0
  187.9010  177.7730  142.3340 C   0  0  0  0  0  0  0  0  0  0  0  0
  187.4540  178.5270  148.4390 C   0  0  0  0  0  3  0  0  0  0  0  0
  189.4260  177.2410  147.9300 C   0  0  0  0  0  3  0  0  0  0  0  0
  189.9180  178.0280  143.8380 C   0  0  0  0  0  2  0  0  0  0  0  0
  187.9080  177.8760  146.1180 C   0  0  0  0  0  0  0  0  0  0  0  0
  190.6870  178.3140  142.5530 C   0  0  0  0  0  2  0  0  0  0  0  0
  188.7860  177.6530  141.1230 C   0  0  0  0  0  2  0  0  0  0  0  0
  188.6540  177.9510  148.8450 C   0  0  0  0  0  3  0  0  0  0  0  0
  186.1580  178.2770  144.4450 C   0  0  0  0  0  0  0  0  0  0  0  0
  185.7850  178.8960  146.7630 C   0  0  0  0  0  3  0  0  0  0  0  0
  189.7250  176.2520  145.7840 O   0  0  0  0  0  1  0  0  0  0  0  0
  186.5710  177.9130  142.1220 N   0  0  0  0  0  0  0  0  0  0  0  0
  185.6840  178.1720  143.1160 C   0  0  0  0  0  0  0  0  0  0  0  0
  190.2360  177.3450  141.4780 C   0  0  1  0  0  3  0  0  0  0  0  0
  188.4220  177.8710  143.6440 C   0  0  0  0  0  0  0  0  0  0  0  0
  185.3280  178.7700  145.4600 C   0  0  0  0  0  3  0  0  0  0  0  0
  181.9660  178.8370  143.3970 C   0  0  0  0  0  0  0  0  0  0  0  0
  181.5620  178.7830  142.0610 C   0  0  0  0  0  3  0  0  0  0  0  0
  184.2570  178.3510  142.7360 C   0  0  0  0  0  0  0  0  0  0  0  0
  182.5000  178.5240  141.0600 C   0  0  0  0  0  3  0  0  0  0  0  0
  183.3070  178.6280  143.7310 C   0  0  0  0  0  3  0  0  0  0  0  0
  183.8410  178.3150  141.3950 C   0  0  0  0  0  3  0  0  0  0  0  0
  181.0580  179.0950  144.3690 F   0  0  0  0  0  0  0  0  0  0  0  0
  191.1200  177.5020  140.2540 C   0  0  0  0  0  2  0  0  0  0  0  0
  190.3120  177.2850  138.9870 C   0  0  0  0  0  2  0  0  0  0  0  0
  190.6270  176.2370  136.8800 O   0  0  0  0  0  0  0  0  0  0  0  0
  194.6800  175.6280  137.7380 O   0  0  0  0  0  0  0  0  0  0  0  0
  193.4890  175.7580  137.3580 C   0  0  0  0  0  0  0  0  0  0  0  0
  192.5430  176.3930  138.2280 N   0  0  0  0  0  2  0  0  0  0  0  0
  191.1550  176.6180  137.9590 C   0  0  0  0  0  0  0  0  0  0  0  0
  193.1070  175.2470  136.0100 C   0  0  0  0  0  1  0  0  0  0  0  0
  1  5  2  0  0  0  0
  2  6  1  0  0  0  0
  3  8  1  0  0  0  0
  4 18  1  0  0  0  0
  5 11  1  0  0  0  0
  6 11  2  0  0  0  0
  8  2  2  0  0  0  0
  8  1  1  0  0  0  0
  9  7  1  0  0  0  0
 10 17  1  0  0  0  0
 10  4  1  0  0  0  0
 12  3  1  0  0  0  0
 12 19  1  0  0  0  0
 13  1  1  0  0  0  0
 14  2  1  0  0  0  0
 15  4  2  0  0  0  0
 15 16  1  0  0  0  0
 16 12  2  0  0  0  0
 17 27  1  6  0  0  0
 17  9  1  0  0  0  0
 18  7  1  0  0  0  0
 18  3  2  0  0  0  0
 19 13  2  0  0  0  0
 20 24  1  0  0  0  0
 20 26  1  0  0  0  0
 21 20  2  0  0  0  0
 22 16  1  0  0  0  0
 22 24  2  0  0  0  0
 23 25  2  0  0  0  0
 23 21  1  0  0  0  0
 25 22  1  0  0  0  0
 28 27  1  0  0  0  0
 29 33  2  0  0  0  0
 31 30  2  0  0  0  0
 31 32  1  0  0  0  0
 33 32  1  0  0  0  0
 33 28  1  0  0  0  0
 34 31  1  0  0  0  0
M  END
>  <MODEL>
6

>  <REMARK>
 VINA RESULT:     -10.9      1.660      2.593
  Name = 
  4 active torsions:
  status: ('A' for Active; 'I' for Inactive)
    1  A    between atoms: C_3  and  C_13
    2  A    between atoms: C_3  and  C_29
    3  A    between atoms: C_12  and  C_28
    4  A    between atoms: C_13  and  C_33
                            x       y       z     vdW  Elec       q    Type
                         _______ _______ _______ _____ _____    ______ ____

>  <TORSDO>
F 4

$$$$
=
 OpenBabel10262419183D

 34 38  0  0  1  0  0  0  0  0999 V2000
  188.5810  177.3710  146.3960 C   0  0  0  0  0  0  0  0  0  0  0  0
  186.8170  178.8380  147.1830 C   0  0  0  0  0  0  0  0  0  0  0  0
  186.9380  178.1560  144.7500 C   0  0  0  0  0  0  0  0  0  0  0  0
  185.2990  178.6490  143.0060 C   0  0  0  0  0  0  0  0  0  0  0  0
  188.9960  177.1670  147.7140 C   0  0  0  0  0  3  0  0  0  0  0  0
  187.2390  178.6170  148.4970 C   0  0  0  0  0  3  0  0  0  0  0  0
  184.4560  178.3420  145.3700 C   0  0  0  0  0  2  0  0  0  0  0  0
  187.4000  178.1080  146.1090 C   0  0  0  0  0  0  0  0  0  0  0  0
  183.0730  178.2530  144.7350 C   0  0  0  0  0  2  0  0  0  0  0  0
  183.9080  178.9610  142.5220 C   0  0  0  0  0  2  0  0  0  0  0  0
  188.3050  177.7620  148.7660 C   0  0  0  0  0  3  0  0  0  0  0  0
  187.8530  177.8010  143.7170 C   0  0  0  0  0  0  0  0  0  0  0  0
  189.3850  176.8960  145.3690 C   0  0  0  0  0  3  0  0  0  0  0  0
  185.9070  179.8650  146.9670 O   0  0  0  0  0  1  0  0  0  0  0  0
  186.2570  178.4560  142.0680 N   0  0  0  0  0  0  0  0  0  0  0  0
  187.5110  178.0310  142.3630 C   0  0  0  0  0  0  0  0  0  0  0  0
  182.9520  179.3120  143.6570 C   0  0  1  0  0  3  0  0  0  0  0  0
  185.5930  178.4310  144.3710 C   0  0  0  0  0  0  0  0  0  0  0  0
  189.0460  177.1440  144.0480 C   0  0  0  0  0  3  0  0  0  0  0  0
  189.1930  178.4110  138.9910 C   0  0  0  0  0  0  0  0  0  0  0  0
  190.2450  177.4990  139.0900 C   0  0  0  0  0  3  0  0  0  0  0  0
  188.4480  177.8130  141.2300 C   0  0  0  0  0  0  0  0  0  0  0  0
  190.4100  176.7490  140.2570 C   0  0  0  0  0  3  0  0  0  0  0  0
  188.3030  178.5710  140.0570 C   0  0  0  0  0  3  0  0  0  0  0  0
  189.5200  176.9100  141.3220 C   0  0  0  0  0  3  0  0  0  0  0  0
  189.0350  179.1440  137.8630 F   0  0  0  0  0  0  0  0  0  0  0  0
  181.5240  179.3500  143.1450 C   0  0  0  0  0  2  0  0  0  0  0  0
  181.4590  178.8320  141.7190 C   0  0  0  0  0  2  0  0  0  0  0  0
  180.0060  180.6630  141.3090 O   0  0  0  0  0  0  0  0  0  0  0  0
  181.1470  180.7260  137.2810 O   0  0  0  0  0  0  0  0  0  0  0  0
  180.7300  180.8180  138.4640 C   0  0  0  0  0  0  0  0  0  0  0  0
  181.2230  179.9030  139.4510 N   0  0  0  0  0  2  0  0  0  0  0  0
  180.8540  179.8620  140.8340 C   0  0  0  0  0  0  0  0  0  0  0  0
  179.7360  181.8800  138.7930 C   0  0  0  0  0  1  0  0  0  0  0  0
  1  5  2  0  0  0  0
  2  6  1  0  0  0  0
  3  8  1  0  0  0  0
  4 18  2  0  0  0  0
  5 11  1  0  0  0  0
  6 11  2  0  0  0  0
  8  1  1  0  0  0  0
  8  2  2  0  0  0  0
  9  7  1  0  0  0  0
 10  4  1  0  0  0  0
 10 17  1  0  0  0  0
 12 19  1  0  0  0  0
 12  3  2  0  0  0  0
 13  1  1  0  0  0  0
 14  2  1  0  0  0  0
 15 16  2  0  0  0  0
 15  4  1  0  0  0  0
 16 12  1  0  0  0  0
 17 27  1  6  0  0  0
 17  9  1  0  0  0  0
 18  3  1  0  0  0  0
 18  7  1  0  0  0  0
 19 13  2  0  0  0  0
 20 21  2  0  0  0  0
 20 24  1  0  0  0  0
 21 23  1  0  0  0  0
 22 25  1  0  0  0  0
 22 16  1  0  0  0  0
 23 25  2  0  0  0  0
 24 22  2  0  0  0  0
 26 20  1  0  0  0  0
 28 27  1  0  0  0  0
 30 31  2  0  0  0  0
 31 34  1  0  0  0  0
 31 32  1  0  0  0  0
 32 33  1  0  0  0  0
 33 29  2  0  0  0  0
 33 28  1  0  0  0  0
M  END
>  <MODEL>
7

>  <REMARK>
 VINA RESULT:     -10.7      4.464      8.205
  Name = 
  4 active torsions:
  status: ('A' for Active; 'I' for Inactive)
    1  A    between atoms: C_3  and  C_13
    2  A    between atoms: C_3  and  C_29
    3  A    between atoms: C_12  and  C_28
    4  A    between atoms: C_13  and  C_33
                            x       y       z     vdW  Elec       q    Type
                         _______ _______ _______ _____ _____    ______ ____

>  <TORSDO>
F 4

$$$$
=
 OpenBabel10262419183D

 34 38  0  0  1  0  0  0  0  0999 V2000
  182.4870  178.8360  141.3460 C   0  0  0  0  0  0  0  0  0  0  0  0
  183.4870  179.7790  139.3470 C   0  0  0  0  0  0  0  0  0  0  0  0
  184.9320  178.7470  141.1490 C   0  0  0  0  0  0  0  0  0  0  0  0
  187.3460  178.3720  141.0570 C   0  0  0  0  0  0  0  0  0  0  0  0
  181.2170  179.0130  140.7920 C   0  0  0  0  0  3  0  0  0  0  0  0
  182.2100  179.9420  138.8030 C   0  0  0  0  0  3  0  0  0  0  0  0
  186.0430  178.2390  138.8930 C   0  0  0  0  0  2  0  0  0  0  0  0
  183.6590  179.0930  140.5830 C   0  0  0  0  0  0  0  0  0  0  0  0
  187.3020  177.6010  138.3170 C   0  0  0  0  0  2  0  0  0  0  0  0
  188.6380  178.1320  140.3240 C   0  0  0  0  0  2  0  0  0  0  0  0
  181.0810  179.5340  139.5080 C   0  0  0  0  0  3  0  0  0  0  0  0
  185.0040  178.5240  142.5550 C   0  0  0  0  0  0  0  0  0  0  0  0
  182.5800  178.4660  142.6810 C   0  0  0  0  0  3  0  0  0  0  0  0
  184.5430  180.4050  138.6990 O   0  0  0  0  0  1  0  0  0  0  0  0
  187.3790  178.3300  142.4100 N   0  0  0  0  0  0  0  0  0  0  0  0
  186.2650  178.3880  143.1830 C   0  0  0  0  0  0  0  0  0  0  0  0
  188.5160  178.3560  138.8210 C   0  0  1  0  0  3  0  0  0  0  0  0
  186.1100  178.5070  140.3840 C   0  0  0  0  0  0  0  0  0  0  0  0
  183.8220  178.3530  143.2870 C   0  0  0  0  0  3  0  0  0  0  0  0
  187.7180  177.4370  146.5480 C   0  0  0  0  0  0  0  0  0  0  0  0
  186.8740  178.1160  147.4290 C   0  0  0  0  0  3  0  0  0  0  0  0
  186.4430  178.2810  144.6550 C   0  0  0  0  0  0  0  0  0  0  0  0
  185.8200  178.8850  146.9300 C   0  0  0  0  0  3  0  0  0  0  0  0
  187.5070  177.5240  145.1690 C   0  0  0  0  0  3  0  0  0  0  0  0
  185.6100  178.9720  145.5510 C   0  0  0  0  0  3  0  0  0  0  0  0
  188.7440  176.6950  147.0300 F   0  0  0  0  0  0  0  0  0  0  0  0
  189.7580  177.8440  138.1130 C   0  0  0  0  0  2  0  0  0  0  0  0
  190.7020  177.1910  139.1070 C   0  0  0  0  0  2  0  0  0  0  0  0
  190.8730  174.9780  138.2670 O   0  0  0  0  0  0  0  0  0  0  0  0
  194.8480  175.6640  137.1400 O   0  0  0  0  0  0  0  0  0  0  0  0
  193.6660  175.3350  137.4210 C   0  0  0  0  0  0  0  0  0  0  0  0
  192.8080  176.2920  138.0550 N   0  0  0  0  0  2  0  0  0  0  0  0
  191.4450  176.0860  138.4460 C   0  0  0  0  0  0  0  0  0  0  0  0
  193.2050  173.9580  137.0800 C   0  0  0  0  0  1  0  0  0  0  0  0
  1 13  1  0  0  0  0
  2  8  1  0  0  0  0
  3 12  1  0  0  0  0
  4 15  2  0  0  0  0
  5  1  1  0  0  0  0
  6  2  2  0  0  0  0
  6 11  1  0  0  0  0
  7 18  1  0  0  0  0
  8  3  1  0  0  0  0
  8  1  2  0  0  0  0
  9 17  1  0  0  0  0
  9  7  1  0  0  0  0
 10  4  1  0  0  0  0
 11  5  2  0  0  0  0
 12 16  2  0  0  0  0
 12 19  1  0  0  0  0
 13 19  2  0  0  0  0
 14  2  1  0  0  0  0
 15 16  1  0  0  0  0
 16 22  1  0  0  0  0
 17 27  1  6  0  0  0
 17 10  1  0  0  0  0
 18  4  1  0  0  0  0
 18  3  2  0  0  0  0
 20 26  1  0  0  0  0
 20 21  1  0  0  0  0
 22 24  1  0  0  0  0
 22 25  2  0  0  0  0
 23 21  2  0  0  0  0
 24 20  2  0  0  0  0
 25 23  1  0  0  0  0
 27 28  1  0  0  0  0
 29 33  2  0  0  0  0
 30 31  2  0  0  0  0
 31 32  1  0  0  0  0
 32 33  1  0  0  0  0
 33 28  1  0  0  0  0
 34 31  1  0  0  0  0
M  END
>  <MODEL>
8

>  <REMARK>
 VINA RESULT:     -10.5      2.975      6.211
  Name = 
  4 active torsions:
  status: ('A' for Active; 'I' for Inactive)
    1  A    between atoms: C_3  and  C_13
    2  A    between atoms: C_3  and  C_29
    3  A    between atoms: C_12  and  C_28
    4  A    between atoms: C_13  and  C_33
                            x       y       z     vdW  Elec       q    Type
                         _______ _______ _______ _____ _____    ______ ____

>  <TORSDO>
F 4

$$$$
=
 OpenBabel10262419183D

 34 38  0  0  1  0  0  0  0  0999 V2000
  185.9670  178.3930  145.9980 C   0  0  0  0  0  0  0  0  0  0  0  0
  187.7590  177.1850  144.8970 C   0  0  0  0  0  0  0  0  0  0  0  0
  185.8720  178.2010  143.5530 C   0  0  0  0  0  0  0  0  0  0  0  0
  185.6980  178.3050  141.1170 C   0  0  0  0  0  0  0  0  0  0  0  0
  186.6570  178.3080  147.2090 C   0  0  0  0  0  3  0  0  0  0  0  0
  188.4410  177.1160  146.1150 C   0  0  0  0  0  3  0  0  0  0  0  0
  188.0070  178.3980  142.1440 C   0  0  0  0  0  2  0  0  0  0  0  0
  186.5630  177.9490  144.7860 C   0  0  0  0  0  0  0  0  0  0  0  0
  188.4700  178.8460  140.7630 C   0  0  0  0  0  2  0  0  0  0  0  0
  186.2840  178.3430  139.7320 C   0  0  0  0  0  2  0  0  0  0  0  0
  187.9080  177.7000  147.2610 C   0  0  0  0  0  3  0  0  0  0  0  0
  184.4870  178.5310  143.6130 C   0  0  0  0  0  0  0  0  0  0  0  0
  184.6600  178.8600  146.0130 C   0  0  0  0  0  3  0  0  0  0  0  0
  188.2290  176.3970  143.8550 O   0  0  0  0  0  1  0  0  0  0  0  0
  184.3570  178.4550  141.2310 N   0  0  0  0  0  0  0  0  0  0  0  0
  183.7230  178.5820  142.4240 C   0  0  0  0  0  0  0  0  0  0  0  0
  187.7720  178.0090  139.7090 C   0  0  1  0  0  3  0  0  0  0  0  0
  186.5040  178.2490  142.2770 C   0  0  0  0  0  0  0  0  0  0  0  0
  183.9170  178.8880  144.8420 C   0  0  0  0  0  3  0  0  0  0  0  0
  180.1470  178.9580  143.6140 C   0  0  0  0  0  0  0  0  0  0  0  0
  179.4790  179.2620  142.4270 C   0  0  0  0  0  3  0  0  0  0  0  0
  182.2510  178.7910  142.4020 C   0  0  0  0  0  0  0  0  0  0  0  0
  180.1900  179.3410  141.2270 C   0  0  0  0  0  3  0  0  0  0  0  0
  181.5260  178.7290  143.6020 C   0  0  0  0  0  3  0  0  0  0  0  0
  181.5690  179.1130  141.2170 C   0  0  0  0  0  3  0  0  0  0  0  0
  179.4600  178.8870  144.7800 F   0  0  0  0  0  0  0  0  0  0  0  0
  188.3580  178.3230  138.3440 C   0  0  0  0  0  2  0  0  0  0  0  0
  189.7600  177.7520  138.2270 C   0  0  0  0  0  2  0  0  0  0  0  0
  190.4680  175.4960  138.4400 O   0  0  0  0  0  0  0  0  0  0  0  0
  187.7110  174.3070  135.5220 O   0  0  0  0  0  0  0  0  0  0  0  0
  188.5690  174.5320  136.4130 C   0  0  0  0  0  0  0  0  0  0  0  0
  188.7580  175.8750  136.8760 N   0  0  0  0  0  2  0  0  0  0  0  0
  189.6890  176.3090  137.8750 C   0  0  0  0  0  0  0  0  0  0  0  0
  189.3580  173.3880  136.9540 C   0  0  0  0  0  1  0  0  0  0  0  0
  1 13  1  0  0  0  0
  1  5  2  0  0  0  0
  2  6  1  0  0  0  0
  3 12  1  0  0  0  0
  3  8  1  0  0  0  0
  4 15  2  0  0  0  0
  4 18  1  0  0  0  0
  5 11  1  0  0  0  0
  6 11  2  0  0  0  0
  7 18  1  0  0  0  0
  8  2  2  0  0  0  0
  8  1  1  0  0  0  0
  9  7  1  0  0  0  0
 10  4  1  0  0  0  0
 12 19  1  0  0  0  0
 14  2  1  0  0  0  0
 15 16  1  0  0  0  0
 16 12  2  0  0  0  0
 17 27  1  6  0  0  0
 17 10  1  0  0  0  0
 17  9  1  0  0  0  0
 18  3  2  0  0  0  0
 19 13  2  0  0  0  0
 20 26  1  0  0  0  0
 21 20  2  0  0  0  0
 22 16  1  0  0  0  0
 22 24  2  0  0  0  0
 23 21  1  0  0  0  0
 24 20  1  0  0  0  0
 25 23  2  0  0  0  0
 25 22  1  0  0  0  0
 28 27  1  0  0  0  0
 30 31  2  0  0  0  0
 31 32  1  0  0  0  0
 31 34  1  0  0  0  0
 32 33  1  0  0  0  0
 33 28  1  0  0  0  0
 33 29  2  0  0  0  0
M  END
>  <MODEL>
9

>  <REMARK>
 VINA RESULT:     -10.4      2.817      4.229
  Name = 
  4 active torsions:
  status: ('A' for Active; 'I' for Inactive)
    1  A    between atoms: C_3  and  C_13
    2  A    between atoms: C_3  and  C_29
    3  A    between atoms: C_12  and  C_28
    4  A    between atoms: C_13  and  C_33
                            x       y       z     vdW  Elec       q    Type
                         _______ _______ _______ _____ _____    ______ ____

>  <TORSDO>
F 4

$$$$
