=
 OpenBabel10262423203D

 34 38  0  0  1  0  0  0  0  0999 V2000
  187.5760  178.4220  144.5520 N   0  0  2  0  0  0  0  0  0  0  0  0
  186.7560  177.7070  145.5520 C   0  0  2  0  0  3  0  0  0  0  0  0
  186.3210  177.7620  144.1320 C   0  0  1  0  0  3  0  0  0  0  0  0
  185.4970  179.2790  142.3200 C   0  0  0  0  0  2  0  0  0  0  0  0
  182.8930  179.0320  143.3470 O   0  0  0  0  0  0  0  0  0  0  0  0
  183.3220  178.8020  139.1250 C   0  0  1  0  0  3  0  0  0  0  0  0
  184.5880  179.0960  139.9590 C   0  0  0  0  0  2  0  0  0  0  0  0
  184.4520  178.6520  141.4120 C   0  0  2  0  0  3  0  0  0  0  0  0
  181.9740  178.1720  141.2400 C   0  0  0  0  0  2  0  0  0  0  0  0
  183.0510  179.0040  141.9340 C   0  0  1  0  0  3  0  0  0  0  0  0
  182.3630  177.7930  139.7960 C   0  0  0  0  0  2  0  0  0  0  0  0
  183.8730  178.2350  143.9780 C   0  0  0  0  0  2  0  0  0  0  0  0
  185.2810  178.8200  143.7700 C   0  0  1  0  0  3  0  0  0  0  0  0
  182.6310  180.0780  138.7350 C   0  0  0  0  0  0  0  0  0  0  0  0
  183.2480  181.1300  138.7530 O   0  0  0  0  0  0  0  0  0  0  0  0
  181.3290  180.0780  138.3420 F   0  0  0  0  0  0  0  0  0  0  0  0
  190.2130  178.6150  142.4260 C   0  0  0  0  0  2  0  0  0  0  0  0
  189.8110  177.2340  141.9630 C   0  0  1  0  0  3  0  0  0  0  0  0
  188.6120  175.4540  143.0380 O   0  0  0  0  0  1  0  0  0  0  0  0
  188.6500  176.8390  142.8490 C   0  0  1  0  0  3  0  0  0  0  0  0
  189.8990  178.6610  143.9080 C   0  0  0  0  0  2  0  0  0  0  0  0
  188.7840  177.6480  144.1740 C   0  0  1  0  0  0  0  0  0  0  0  0
  190.1520  176.5890  139.5690 O   0  0  0  0  0  0  0  0  0  0  0  0
  189.4010  177.2570  140.5290 C   0  0  0  0  0  0  0  0  0  0  0  0
  188.3680  177.8890  140.1870 O   0  0  0  0  0  1  0  0  0  0  0  0
  189.1410  176.7440  145.3860 C   0  0  0  0  0  2  0  0  0  0  0  0
  191.5420  175.9640  145.6230 C   0  0  0  0  0  3  0  0  0  0  0  0
  192.4460  175.7020  147.8520 C   0  0  0  0  0  2  0  0  0  0  0  0
  192.4280  175.4640  146.4190 N   0  0  0  0  0  0  0  0  0  0  0  0
  190.4010  177.0620  147.6130 C   0  0  0  0  0  2  0  0  0  0  0  0
  190.4920  176.9410  146.0940 C   0  0  2  0  0  3  0  0  0  0  0  0
  191.7970  177.0340  148.2120 C   0  0  0  0  0  2  0  0  0  0  0  0
  186.1240  178.6870  146.4510 C   0  0  0  0  0  0  0  0  0  0  0  0
  185.6260  179.4580  147.1570 N   0  0  0  0  0  0  0  0  0  0  0  0
  1 22  1  6  0  0  0
  1  2  1  0  0  0  0
  2 33  1  1  0  0  0
  3 13  1  1  0  0  0
  3  1  1  0  0  0  0
  3  2  1  0  0  0  0
  5 12  1  0  0  0  0
  6 14  1  1  0  0  0
  6 11  1  0  0  0  0
  6  7  1  0  0  0  0
  8  7  1  6  0  0  0
  8 10  1  0  0  0  0
  8  4  1  0  0  0  0
 10  9  1  6  0  0  0
 10  5  1  0  0  0  0
 11  9  1  0  0  0  0
 13  4  1  6  0  0  0
 13 12  1  0  0  0  0
 14 15  2  0  0  0  0
 16 14  1  0  0  0  0
 17 21  1  0  0  0  0
 18 24  1  6  0  0  0
 18 17  1  0  0  0  0
 18 20  1  0  0  0  0
 20 19  1  1  0  0  0
 20 22  1  0  0  0  0
 21 22  1  0  0  0  0
 22 26  1  1  0  0  0
 23 24  2  0  0  0  0
 25 24  1  0  0  0  0
 27 31  1  0  0  0  0
 27 29  2  0  0  0  0
 28 32  1  0  0  0  0
 29 28  1  0  0  0  0
 30 32  1  0  0  0  0
 31 26  1  1  0  0  0
 31 30  1  0  0  0  0
 33 34  3  0  0  0  0
M  END
>  <MODEL>
1

>  <REMARK>
 VINA RESULT:      -7.9      0.000      0.000
  Name = 
  7 active torsions:
  status: ('A' for Active; 'I' for Inactive)
    1  A    between atoms: C_1  and  C_20
    2  A    between atoms: C_1  and  C_34
    3  A    between atoms: N_5  and  C_34
    4  A    between atoms: C_7  and  C_11
    5  A    between atoms: C_8  and  C_18
    6  A    between atoms: C_13  and  C_23
    7  A    between atoms: C_31  and  C_33
                            x       y       z     vdW  Elec       q    Type
                         _______ _______ _______ _____ _____    ______ ____

>  <TORSDO>
F 7

$$$$
=
 OpenBabel10262423203D

 34 38  0  0  1  0  0  0  0  0999 V2000
  187.9800  178.3460  143.4080 N   0  0  2  0  0  0  0  0  0  0  0  0
  187.2940  177.3900  144.3020 C   0  0  2  0  0  3  0  0  0  0  0  0
  186.7440  177.6750  142.9520 C   0  0  1  0  0  3  0  0  0  0  0  0
  185.5740  179.3170  141.4670 C   0  0  0  0  0  2  0  0  0  0  0  0
  183.1760  178.7870  142.8330 O   0  0  0  0  0  0  0  0  0  0  0  0
  182.9590  179.0350  138.5950 C   0  0  1  0  0  3  0  0  0  0  0  0
  184.3220  179.3240  139.2610 C   0  0  0  0  0  2  0  0  0  0  0  0
  184.4350  178.7210  140.6580 C   0  0  2  0  0  3  0  0  0  0  0  0
  181.9870  178.0950  140.8000 C   0  0  0  0  0  2  0  0  0  0  0  0
  183.1150  178.9200  141.4180 C   0  0  1  0  0  3  0  0  0  0  0  0
  182.1680  177.8980  139.2810 C   0  0  0  0  0  2  0  0  0  0  0  0
  184.2800  177.9960  143.2160 C   0  0  0  0  0  2  0  0  0  0  0  0
  185.6080  178.6940  142.8700 C   0  0  1  0  0  3  0  0  0  0  0  0
  182.1520  180.2950  138.4610 C   0  0  0  0  0  0  0  0  0  0  0  0
  180.9640  180.2270  138.1950 O   0  0  0  0  0  0  0  0  0  0  0  0
  182.7220  181.5150  138.6520 F   0  0  0  0  0  0  0  0  0  0  0  0
  189.9220  175.5770  143.6760 C   0  0  0  0  0  2  0  0  0  0  0  0
  191.0810  176.5300  143.8490 C   0  0  1  0  0  3  0  0  0  0  0  0
  191.4290  178.7970  143.1390 O   0  0  0  0  0  1  0  0  0  0  0  0
  190.4900  177.9120  143.6780 C   0  0  1  0  0  3  0  0  0  0  0  0
  188.9740  176.2520  142.7060 C   0  0  0  0  0  2  0  0  0  0  0  0
  189.2050  177.7600  142.8090 C   0  0  1  0  0  0  0  0  0  0  0  0
  192.2230  175.1570  145.6030 O   0  0  0  0  0  0  0  0  0  0  0  0
  191.6930  176.3780  145.2010 C   0  0  0  0  0  0  0  0  0  0  0  0
  191.7260  177.3620  145.9840 O   0  0  0  0  0  1  0  0  0  0  0  0
  189.3660  178.3890  141.3980 C   0  0  0  0  0  2  0  0  0  0  0  0
  190.5390  177.1730  139.5070 C   0  0  0  0  0  3  0  0  0  0  0  0
  189.6050  177.3460  137.2820 C   0  0  0  0  0  2  0  0  0  0  0  0
  190.6730  177.0690  138.2270 N   0  0  0  0  0  0  0  0  0  0  0  0
  188.1390  177.9490  139.1730 C   0  0  0  0  0  2  0  0  0  0  0  0
  189.2140  177.4930  140.1580 C   0  0  2  0  0  3  0  0  0  0  0  0
  188.2290  177.1230  137.9010 C   0  0  0  0  0  2  0  0  0  0  0  0
  186.6710  178.1270  145.4130 C   0  0  0  0  0  0  0  0  0  0  0  0
  186.1810  178.7060  146.2880 N   0  0  0  0  0  0  0  0  0  0  0  0
  1 22  1  6  0  0  0
  1  2  1  0  0  0  0
  2 33  1  1  0  0  0
  3 13  1  1  0  0  0
  3  1  1  0  0  0  0
  3  2  1  0  0  0  0
  5 12  1  0  0  0  0
  6 14  1  1  0  0  0
  6  7  1  0  0  0  0
  6 11  1  0  0  0  0
  8  7  1  6  0  0  0
  8 10  1  0  0  0  0
  8  4  1  0  0  0  0
 10  9  1  6  0  0  0
 10  5  1  0  0  0  0
 11  9  1  0  0  0  0
 13  4  1  6  0  0  0
 13 12  1  0  0  0  0
 14 16  1  0  0  0  0
 15 14  2  0  0  0  0
 17 18  1  0  0  0  0
 18 24  1  1  0  0  0
 20 19  1  6  0  0  0
 20 18  1  0  0  0  0
 21 22  1  0  0  0  0
 21 17  1  0  0  0  0
 22 26  1  6  0  0  0
 22 20  1  0  0  0  0
 24 23  2  0  0  0  0
 24 25  1  0  0  0  0
 27 31  1  0  0  0  0
 28 32  1  0  0  0  0
 28 29  1  0  0  0  0
 29 27  2  0  0  0  0
 30 31  1  0  0  0  0
 31 26  1  1  0  0  0
 32 30  1  0  0  0  0
 33 34  3  0  0  0  0
M  END
>  <MODEL>
2

>  <REMARK>
 VINA RESULT:      -7.2      2.247      4.467
  Name = 
  7 active torsions:
  status: ('A' for Active; 'I' for Inactive)
    1  A    between atoms: C_1  and  C_20
    2  A    between atoms: C_1  and  C_34
    3  A    between atoms: N_5  and  C_34
    4  A    between atoms: C_7  and  C_11
    5  A    between atoms: C_8  and  C_18
    6  A    between atoms: C_13  and  C_23
    7  A    between atoms: C_31  and  C_33
                            x       y       z     vdW  Elec       q    Type
                         _______ _______ _______ _____ _____    ______ ____

>  <TORSDO>
F 7

$$$$
=
 OpenBabel10262423203D

 34 38  0  0  1  0  0  0  0  0999 V2000
  185.3950  178.8030  138.7740 N   0  0  2  0  0  0  0  0  0  0  0  0
  185.8770  177.8610  137.7430 C   0  0  2  0  0  3  0  0  0  0  0  0
  186.2970  177.6960  139.1580 C   0  0  1  0  0  3  0  0  0  0  0  0
  187.6560  178.6660  141.0230 C   0  0  0  0  0  2  0  0  0  0  0  0
  189.9600  177.5290  139.8860 O   0  0  0  0  0  0  0  0  0  0  0  0
  189.5310  177.1930  144.1020 C   0  0  1  0  0  3  0  0  0  0  0  0
  188.4590  177.9980  143.3340 C   0  0  0  0  0  2  0  0  0  0  0  0
  188.3980  177.6340  141.8540 C   0  0  2  0  0  3  0  0  0  0  0  0
  190.5140  176.2470  141.9050 C   0  0  0  0  0  2  0  0  0  0  0  0
  189.8220  177.4680  141.3000 C   0  0  1  0  0  3  0  0  0  0  0  0
  190.0290  175.9460  143.3380 C   0  0  0  0  0  2  0  0  0  0  0  0
  188.7440  177.2030  139.2480 C   0  0  0  0  0  2  0  0  0  0  0  0
  187.6640  178.2590  139.5420 C   0  0  1  0  0  3  0  0  0  0  0  0
  190.6570  178.0860  144.5380 C   0  0  0  0  0  0  0  0  0  0  0  0
  191.5720  177.6260  145.2010 O   0  0  0  0  0  0  0  0  0  0  0  0
  190.6850  179.4000  144.1890 F   0  0  0  0  0  0  0  0  0  0  0  0
  183.0010  176.4370  138.3400 C   0  0  0  0  0  2  0  0  0  0  0  0
  182.1280  177.5600  137.8310 C   0  0  1  0  0  3  0  0  0  0  0  0
  182.1350  179.9250  138.2360 O   0  0  0  0  0  1  0  0  0  0  0  0
  182.9530  178.8160  138.0000 C   0  0  1  0  0  3  0  0  0  0  0  0
  183.8610  177.0460  139.4290 C   0  0  0  0  0  2  0  0  0  0  0  0
  183.9800  178.5430  139.1400 C   0  0  1  0  0  0  0  0  0  0  0  0
  180.5800  176.7280  136.0480 O   0  0  0  0  0  1  0  0  0  0  0  0
  181.7750  177.3450  136.3970 C   0  0  0  0  0  0  0  0  0  0  0  0
  182.5700  177.7240  135.4970 O   0  0  0  0  0  0  0  0  0  0  0  0
  183.6820  179.3740  140.4180 C   0  0  0  0  0  2  0  0  0  0  0  0
  182.3210  178.7540  142.4660 C   0  0  0  0  0  3  0  0  0  0  0  0
  183.3300  179.0530  144.6440 C   0  0  0  0  0  2  0  0  0  0  0  0
  182.2020  178.8790  143.7460 N   0  0  0  0  0  0  0  0  0  0  0  0
  184.8410  179.0180  142.6940 C   0  0  0  0  0  2  0  0  0  0  0  0
  183.6660  178.6680  141.7830 C   0  0  2  0  0  3  0  0  0  0  0  0
  184.6050  178.4380  144.0770 C   0  0  0  0  0  2  0  0  0  0  0  0
  186.8390  178.5500  136.8680 C   0  0  0  0  0  0  0  0  0  0  0  0
  187.5960  179.0930  136.1800 N   0  0  0  0  0  0  0  0  0  0  0  0
  1 22  1  1  0  0  0
  1  3  1  0  0  0  0
  2 33  1  6  0  0  0
  2  1  1  0  0  0  0
  2  3  1  0  0  0  0
  3 13  1  6  0  0  0
  5 10  1  0  0  0  0
  6 14  1  6  0  0  0
  7  6  1  0  0  0  0
  8  4  1  6  0  0  0
  8  7  1  0  0  0  0
  9 11  1  0  0  0  0
 10  8  1  0  0  0  0
 10  9  1  6  0  0  0
 11  6  1  0  0  0  0
 12  5  1  0  0  0  0
 13 12  1  1  0  0  0
 13  4  1  0  0  0  0
 14 15  2  0  0  0  0
 16 14  1  0  0  0  0
 17 21  1  0  0  0  0
 18 24  1  6  0  0  0
 18 20  1  0  0  0  0
 18 17  1  0  0  0  0
 20 19  1  1  0  0  0
 20 22  1  0  0  0  0
 22 21  1  0  0  0  0
 22 26  1  1  0  0  0
 23 24  1  0  0  0  0
 25 24  2  0  0  0  0
 27 29  2  0  0  0  0
 29 28  1  0  0  0  0
 30 32  1  0  0  0  0
 31 26  1  6  0  0  0
 31 27  1  0  0  0  0
 31 30  1  0  0  0  0
 32 28  1  0  0  0  0
 34 33  3  0  0  0  0
M  END
>  <MODEL>
3

>  <REMARK>
 VINA RESULT:      -6.7      3.605      8.348
  Name = 
  7 active torsions:
  status: ('A' for Active; 'I' for Inactive)
    1  A    between atoms: C_1  and  C_20
    2  A    between atoms: C_1  and  C_34
    3  A    between atoms: N_5  and  C_34
    4  A    between atoms: C_7  and  C_11
    5  A    between atoms: C_8  and  C_18
    6  A    between atoms: C_13  and  C_23
    7  A    between atoms: C_31  and  C_33
                            x       y       z     vdW  Elec       q    Type
                         _______ _______ _______ _____ _____    ______ ____

>  <TORSDO>
F 7

$$$$
=
 OpenBabel10262423203D

 34 38  0  0  1  0  0  0  0  0999 V2000
  190.3190  176.7710  140.3940 N   0  0  2  0  0  0  0  0  0  0  0  0
  191.4010  177.7400  140.1280 C   0  0  2  0  0  3  0  0  0  0  0  0
  190.0960  177.8700  139.4300 C   0  0  1  0  0  3  0  0  0  0  0  0
  189.1070  176.0600  138.0120 C   0  0  0  0  0  2  0  0  0  0  0  0
  189.0690  177.8380  135.8360 O   0  0  0  0  0  0  0  0  0  0  0  0
  185.6120  175.4320  136.4140 C   0  0  1  0  0  3  0  0  0  0  0  0
  186.8120  175.2010  137.3580 C   0  0  0  0  0  2  0  0  0  0  0  0
  187.7490  176.4030  137.4240 C   0  0  2  0  0  3  0  0  0  0  0  0
  186.6470  177.6180  135.4970 C   0  0  0  0  0  2  0  0  0  0  0  0
  187.9400  176.9910  136.0180 C   0  0  1  0  0  3  0  0  0  0  0  0
  185.3900  176.9180  136.0530 C   0  0  0  0  0  2  0  0  0  0  0  0
  189.4840  178.3920  137.0650 C   0  0  0  0  0  2  0  0  0  0  0  0
  190.0110  177.3020  138.0150 C   0  0  1  0  0  3  0  0  0  0  0  0
  185.7140  174.5560  135.1980 C   0  0  0  0  0  0  0  0  0  0  0  0
  184.7000  174.2230  134.6050 O   0  0  0  0  0  0  0  0  0  0  0  0
  186.9220  174.1410  134.7320 F   0  0  0  0  0  0  0  0  0  0  0  0
  191.0550  178.0430  143.4520 C   0  0  0  0  0  2  0  0  0  0  0  0
  190.5210  176.7440  144.0090 C   0  0  1  0  0  3  0  0  0  0  0  0
  188.9430  175.1480  143.1590 O   0  0  0  0  0  1  0  0  0  0  0  0
  190.0150  175.9740  142.8100 C   0  0  1  0  0  3  0  0  0  0  0  0
  190.2100  178.3460  142.2310 C   0  0  0  0  0  2  0  0  0  0  0  0
  189.6670  177.0170  141.7050 C   0  0  1  0  0  0  0  0  0  0  0  0
  191.9890  176.3400  145.9970 O   0  0  0  0  0  1  0  0  0  0  0  0
  191.6010  175.9880  144.7090 C   0  0  0  0  0  0  0  0  0  0  0  0
  192.1650  175.0260  144.1260 O   0  0  0  0  0  0  0  0  0  0  0  0
  188.1400  177.1120  141.4410 C   0  0  0  0  0  2  0  0  0  0  0  0
  186.9370  177.6160  143.6160 C   0  0  0  0  0  3  0  0  0  0  0  0
  184.7280  178.5970  143.5030 C   0  0  0  0  0  2  0  0  0  0  0  0
  185.8010  177.8810  144.1710 N   0  0  0  0  0  0  0  0  0  0  0  0
  186.1290  178.7270  141.4750 C   0  0  0  0  0  2  0  0  0  0  0  0
  187.3040  178.1240  142.2430 C   0  0  2  0  0  3  0  0  0  0  0  0
  185.2600  179.5350  142.4240 C   0  0  0  0  0  2  0  0  0  0  0  0
  192.4700  177.0770  139.3640 C   0  0  0  0  0  0  0  0  0  0  0  0
  193.3110  176.5540  138.7630 N   0  0  0  0  0  0  0  0  0  0  0  0
  1 22  1  1  0  0  0
  2 33  1  6  0  0  0
  2  1  1  0  0  0  0
  3 13  1  6  0  0  0
  3  2  1  0  0  0  0
  3  1  1  0  0  0  0
  4 13  1  0  0  0  0
  5 10  1  0  0  0  0
  5 12  1  0  0  0  0
  6 14  1  6  0  0  0
  6  7  1  0  0  0  0
  8  7  1  6  0  0  0
  8  4  1  0  0  0  0
  9 11  1  0  0  0  0
 10  9  1  1  0  0  0
 10  8  1  0  0  0  0
 11  6  1  0  0  0  0
 13 12  1  6  0  0  0
 15 14  2  0  0  0  0
 16 14  1  0  0  0  0
 17 18  1  0  0  0  0
 18 24  1  6  0  0  0
 20 19  1  1  0  0  0
 20 18  1  0  0  0  0
 21 17  1  0  0  0  0
 22 26  1  6  0  0  0
 22 21  1  0  0  0  0
 22 20  1  0  0  0  0
 24 23  1  0  0  0  0
 25 24  2  0  0  0  0
 27 29  2  0  0  0  0
 28 29  1  0  0  0  0
 30 31  1  0  0  0  0
 30 32  1  0  0  0  0
 31 26  1  6  0  0  0
 31 27  1  0  0  0  0
 32 28  1  0  0  0  0
 34 33  3  0  0  0  0
M  END
>  <MODEL>
4

>  <REMARK>
 VINA RESULT:      -6.6      3.861      6.699
  Name = 
  7 active torsions:
  status: ('A' for Active; 'I' for Inactive)
    1  A    between atoms: C_1  and  C_20
    2  A    between atoms: C_1  and  C_34
    3  A    between atoms: N_5  and  C_34
    4  A    between atoms: C_7  and  C_11
    5  A    between atoms: C_8  and  C_18
    6  A    between atoms: C_13  and  C_23
    7  A    between atoms: C_31  and  C_33
                            x       y       z     vdW  Elec       q    Type
                         _______ _______ _______ _____ _____    ______ ____

>  <TORSDO>
F 7

$$$$
=
 OpenBabel10262423203D

 34 38  0  0  1  0  0  0  0  0999 V2000
  189.5780  177.5490  138.6070 N   0  0  2  0  0  0  0  0  0  0  0  0
  190.4390  176.5170  139.2200 C   0  0  2  0  0  3  0  0  0  0  0  0
  189.1500  176.8880  139.8590 C   0  0  1  0  0  3  0  0  0  0  0  0
  187.8240  178.4950  141.2460 C   0  0  0  0  0  2  0  0  0  0  0  0
  189.5010  177.9370  143.4300 O   0  0  0  0  0  0  0  0  0  0  0  0
  185.3280  178.1420  144.2140 C   0  0  1  0  0  3  0  0  0  0  0  0
  185.8040  178.4610  142.7800 C   0  0  0  0  0  2  0  0  0  0  0  0
  187.1780  177.8720  142.4710 C   0  0  2  0  0  3  0  0  0  0  0  0
  187.6490  177.2060  144.8660 C   0  0  0  0  0  2  0  0  0  0  0  0
  188.1060  178.0560  143.6810 C   0  0  1  0  0  3  0  0  0  0  0  0
  186.1210  176.9990  144.8860 C   0  0  0  0  0  2  0  0  0  0  0  0
  189.7380  177.1680  142.2710 C   0  0  0  0  0  2  0  0  0  0  0  0
  189.2140  177.8850  141.0140 C   0  0  1  0  0  3  0  0  0  0  0  0
  185.2950  179.3870  145.0540 C   0  0  0  0  0  0  0  0  0  0  0  0
  185.3340  179.2980  146.2710 O   0  0  0  0  0  0  0  0  0  0  0  0
  185.2410  180.6190  144.4800 F   0  0  0  0  0  0  0  0  0  0  0  0
  189.2490  174.6790  136.8270 C   0  0  0  0  0  2  0  0  0  0  0  0
  189.6120  175.5080  135.6170 C   0  0  1  0  0  3  0  0  0  0  0  0
  189.3930  177.8490  135.1360 O   0  0  0  0  0  1  0  0  0  0  0  0
  189.7380  176.9260  136.1280 C   0  0  1  0  0  3  0  0  0  0  0  0
  188.4460  175.5960  137.7280 C   0  0  0  0  0  2  0  0  0  0  0  0
  188.8630  177.0330  137.4130 C   0  0  1  0  0  0  0  0  0  0  0  0
  191.9910  175.8970  134.9410 O   0  0  0  0  0  1  0  0  0  0  0  0
  190.8990  175.0400  135.0240 C   0  0  0  0  0  0  0  0  0  0  0  0
  190.9940  173.8620  134.5940 O   0  0  0  0  0  0  0  0  0  0  0  0
  187.6150  177.9340  137.2070 C   0  0  0  0  0  2  0  0  0  0  0  0
  185.4290  176.9050  136.4380 C   0  0  0  0  0  3  0  0  0  0  0  0
  183.3660  177.7950  137.3370 C   0  0  0  0  0  2  0  0  0  0  0  0
  184.1480  177.0540  136.3620 N   0  0  0  0  0  0  0  0  0  0  0  0
  185.4490  178.3220  138.5510 C   0  0  0  0  0  2  0  0  0  0  0  0
  186.2320  177.4020  137.6170 C   0  0  2  0  0  3  0  0  0  0  0  0
  184.0310  177.8010  138.7090 C   0  0  0  0  0  2  0  0  0  0  0  0
  191.6380  177.1570  139.7840 C   0  0  0  0  0  0  0  0  0  0  0  0
  192.5810  177.6610  140.2290 N   0  0  0  0  0  0  0  0  0  0  0  0
  1 22  1  6  0  0  0
  1  2  1  0  0  0  0
  1  3  1  0  0  0  0
  2 33  1  1  0  0  0
  2  3  1  0  0  0  0
  3 13  1  1  0  0  0
  5 10  1  0  0  0  0
  6 11  1  0  0  0  0
  6 14  1  1  0  0  0
  7  6  1  0  0  0  0
  8  4  1  6  0  0  0
  8  7  1  0  0  0  0
  8 10  1  0  0  0  0
  9 11  1  0  0  0  0
 10  9  1  1  0  0  0
 12  5  1  0  0  0  0
 13  4  1  1  0  0  0
 13 12  1  0  0  0  0
 14 15  2  0  0  0  0
 16 14  1  0  0  0  0
 17 21  1  0  0  0  0
 18 24  1  1  0  0  0
 18 20  1  0  0  0  0
 18 17  1  0  0  0  0
 20 19  1  6  0  0  0
 20 22  1  0  0  0  0
 22 26  1  6  0  0  0
 22 21  1  0  0  0  0
 23 24  1  0  0  0  0
 25 24  2  0  0  0  0
 27 31  1  0  0  0  0
 28 32  1  0  0  0  0
 29 27  2  0  0  0  0
 29 28  1  0  0  0  0
 30 32  1  0  0  0  0
 31 26  1  6  0  0  0
 31 30  1  0  0  0  0
 33 34  3  0  0  0  0
M  END
>  <MODEL>
5

>  <REMARK>
 VINA RESULT:      -6.2      3.914      7.814
  Name = 
  7 active torsions:
  status: ('A' for Active; 'I' for Inactive)
    1  A    between atoms: C_1  and  C_20
    2  A    between atoms: C_1  and  C_34
    3  A    between atoms: N_5  and  C_34
    4  A    between atoms: C_7  and  C_11
    5  A    between atoms: C_8  and  C_18
    6  A    between atoms: C_13  and  C_23
    7  A    between atoms: C_31  and  C_33
                            x       y       z     vdW  Elec       q    Type
                         _______ _______ _______ _____ _____    ______ ____

>  <TORSDO>
F 7

$$$$
=
 OpenBabel10262423203D

 34 38  0  0  1  0  0  0  0  0999 V2000
  182.4270  179.2970  140.4390 N   0  0  2  0  0  0  0  0  0  0  0  0
  183.1280  178.1550  139.8180 C   0  0  2  0  0  3  0  0  0  0  0  0
  183.1410  178.3240  141.2940 C   0  0  1  0  0  3  0  0  0  0  0  0
  184.0770  179.3990  143.3510 C   0  0  0  0  0  2  0  0  0  0  0  0
  186.6190  178.4220  142.6600 O   0  0  0  0  0  0  0  0  0  0  0  0
  185.4740  178.0810  146.7390 C   0  0  1  0  0  3  0  0  0  0  0  0
  184.5020  178.8020  145.7800 C   0  0  0  0  0  2  0  0  0  0  0  0
  184.7300  178.4260  144.3180 C   0  0  2  0  0  3  0  0  0  0  0  0
  186.8940  177.1940  144.7670 C   0  0  0  0  0  2  0  0  0  0  0  0
  186.2370  178.3590  144.0280 C   0  0  1  0  0  3  0  0  0  0  0  0
  186.1850  176.8680  146.0980 C   0  0  0  0  0  2  0  0  0  0  0  0
  185.5610  178.0070  141.8230 C   0  0  0  0  0  2  0  0  0  0  0  0
  184.3760  178.9850  141.9030 C   0  0  1  0  0  3  0  0  0  0  0  0
  186.4410  179.0540  147.3500 C   0  0  0  0  0  0  0  0  0  0  0  0
  186.0570  180.1670  147.6720 O   0  0  0  0  0  0  0  0  0  0  0  0
  187.7380  178.7090  147.5710 F   0  0  0  0  0  0  0  0  0  0  0  0
  179.6660  180.5140  141.9910 C   0  0  0  0  0  2  0  0  0  0  0  0
  179.3460  179.0770  142.3290 C   0  0  1  0  0  3  0  0  0  0  0  0
  179.9400  177.0000  141.2830 O   0  0  0  0  0  1  0  0  0  0  0  0
  180.4230  178.2590  141.6520 C   0  0  1  0  0  3  0  0  0  0  0  0
  180.3210  180.4800  140.6250 C   0  0  0  0  0  2  0  0  0  0  0  0
  180.9560  179.1000  140.4520 C   0  0  1  0  0  0  0  0  0  0  0  0
  178.9960  179.8870  144.6720 O   0  0  0  0  0  1  0  0  0  0  0  0
  179.3680  178.8650  143.8060 C   0  0  0  0  0  0  0  0  0  0  0  0
  179.7300  177.7520  144.2700 O   0  0  0  0  0  0  0  0  0  0  0  0
  180.5680  178.4850  139.0800 C   0  0  0  0  0  2  0  0  0  0  0  0
  179.1580  178.7380  136.9870 C   0  0  0  0  0  3  0  0  0  0  0  0
  180.1400  179.8440  135.0720 C   0  0  0  0  0  2  0  0  0  0  0  0
  179.1650  178.9820  135.7190 N   0  0  0  0  0  0  0  0  0  0  0  0
  181.2340  180.1840  137.2580 C   0  0  0  0  0  2  0  0  0  0  0  0
  180.1070  179.4160  137.9460 C   0  0  2  0  0  3  0  0  0  0  0  0
  180.6900  180.8950  136.0300 C   0  0  0  0  0  2  0  0  0  0  0  0
  184.3220  178.6460  139.1100 C   0  0  0  0  0  0  0  0  0  0  0  0
  185.2610  179.0310  138.5520 N   0  0  0  0  0  0  0  0  0  0  0  0
  1 22  1  1  0  0  0
  1  3  1  0  0  0  0
  2 33  1  6  0  0  0
  2  1  1  0  0  0  0
  2  3  1  0  0  0  0
  3 13  1  6  0  0  0
  5 10  1  0  0  0  0
  6 14  1  6  0  0  0
  7  6  1  0  0  0  0
  8  4  1  6  0  0  0
  8  7  1  0  0  0  0
  9 11  1  0  0  0  0
 10  8  1  0  0  0  0
 10  9  1  6  0  0  0
 11  6  1  0  0  0  0
 12  5  1  0  0  0  0
 13 12  1  1  0  0  0
 13  4  1  0  0  0  0
 14 16  1  0  0  0  0
 14 15  2  0  0  0  0
 17 18  1  0  0  0  0
 18 24  1  1  0  0  0
 20 19  1  6  0  0  0
 20 18  1  0  0  0  0
 21 17  1  0  0  0  0
 22 26  1  6  0  0  0
 22 21  1  0  0  0  0
 22 20  1  0  0  0  0
 24 25  2  0  0  0  0
 24 23  1  0  0  0  0
 27 31  1  0  0  0  0
 28 29  1  0  0  0  0
 28 32  1  0  0  0  0
 29 27  2  0  0  0  0
 30 31  1  0  0  0  0
 31 26  1  1  0  0  0
 32 30  1  0  0  0  0
 34 33  3  0  0  0  0
M  END
>  <MODEL>
6

>  <REMARK>
 VINA RESULT:      -6.1      4.456      9.962
  Name = 
  7 active torsions:
  status: ('A' for Active; 'I' for Inactive)
    1  A    between atoms: C_1  and  C_20
    2  A    between atoms: C_1  and  C_34
    3  A    between atoms: N_5  and  C_34
    4  A    between atoms: C_7  and  C_11
    5  A    between atoms: C_8  and  C_18
    6  A    between atoms: C_13  and  C_23
    7  A    between atoms: C_31  and  C_33
                            x       y       z     vdW  Elec       q    Type
                         _______ _______ _______ _____ _____    ______ ____

>  <TORSDO>
F 7

$$$$
=
 OpenBabel10262423203D

 34 38  0  0  1  0  0  0  0  0999 V2000
  190.0100  177.3750  138.7320 N   0  0  2  0  0  0  0  0  0  0  0  0
  190.9050  176.4400  139.4430 C   0  0  2  0  0  3  0  0  0  0  0  0
  189.5700  176.7690  140.0080 C   0  0  1  0  0  3  0  0  0  0  0  0
  188.0850  178.3360  141.2730 C   0  0  0  0  0  2  0  0  0  0  0  0
  189.7670  178.0690  143.5070 O   0  0  0  0  0  0  0  0  0  0  0  0
  185.5800  177.9500  144.2310 C   0  0  1  0  0  3  0  0  0  0  0  0
  186.0500  178.2190  142.7840 C   0  0  0  0  0  2  0  0  0  0  0  0
  187.4750  177.7370  142.5290 C   0  0  2  0  0  3  0  0  0  0  0  0
  187.9640  177.2680  144.9670 C   0  0  0  0  0  2  0  0  0  0  0  0
  188.3630  178.0780  143.7350 C   0  0  1  0  0  3  0  0  0  0  0  0
  186.4590  176.9270  144.9840 C   0  0  0  0  0  2  0  0  0  0  0  0
  190.0910  177.2530  142.4030 C   0  0  0  0  0  2  0  0  0  0  0  0
  189.5270  177.8390  141.0960 C   0  0  1  0  0  3  0  0  0  0  0  0
  185.4230  179.2380  144.9880 C   0  0  0  0  0  0  0  0  0  0  0  0
  185.7030  179.2800  146.1750 O   0  0  0  0  0  0  0  0  0  0  0  0
  184.9890  180.3680  144.3680 F   0  0  0  0  0  0  0  0  0  0  0  0
  188.0970  178.2170  136.0590 C   0  0  0  0  0  2  0  0  0  0  0  0
  187.1650  177.1150  136.5070 C   0  0  1  0  0  3  0  0  0  0  0  0
  187.5240  175.1170  137.7880 O   0  0  0  0  0  1  0  0  0  0  0  0
  187.8480  176.4740  137.6950 C   0  0  1  0  0  3  0  0  0  0  0  0
  189.4950  177.7370  136.3930 C   0  0  0  0  0  2  0  0  0  0  0  0
  189.3770  176.7420  137.5490 C   0  0  1  0  0  0  0  0  0  0  0  0
  185.7350  178.6110  137.9150 O   0  0  0  0  0  1  0  0  0  0  0  0
  185.8370  177.6720  136.8950 C   0  0  0  0  0  0  0  0  0  0  0  0
  184.8000  177.2860  136.2960 O   0  0  0  0  0  0  0  0  0  0  0  0
  190.1790  175.4480  137.2440 C   0  0  0  0  0  2  0  0  0  0  0  0
  190.8840  174.1180  135.2030 C   0  0  0  0  0  3  0  0  0  0  0  0
  193.2430  173.9800  134.6850 C   0  0  0  0  0  2  0  0  0  0  0  0
  191.8630  173.5350  134.5950 N   0  0  0  0  0  0  0  0  0  0  0  0
  192.5260  175.7690  136.2260 C   0  0  0  0  0  2  0  0  0  0  0  0
  191.0650  175.3950  135.9880 C   0  0  2  0  0  3  0  0  0  0  0  0
  193.3380  175.4740  134.9760 C   0  0  0  0  0  2  0  0  0  0  0  0
  192.0390  177.1880  140.0090 C   0  0  0  0  0  0  0  0  0  0  0  0
  192.9300  177.7770  140.4550 N   0  0  0  0  0  0  0  0  0  0  0  0
  1 22  1  6  0  0  0
  1  2  1  0  0  0  0
  1  3  1  0  0  0  0
  2  3  1  0  0  0  0
  2 33  1  1  0  0  0
  3 13  1  1  0  0  0
  5 10  1  0  0  0  0
  6 11  1  0  0  0  0
  6 14  1  1  0  0  0
  7  6  1  0  0  0  0
  8  4  1  6  0  0  0
  8  7  1  0  0  0  0
  8 10  1  0  0  0  0
  9 11  1  0  0  0  0
 10  9  1  1  0  0  0
 12  5  1  0  0  0  0
 13  4  1  1  0  0  0
 13 12  1  0  0  0  0
 14 15  2  0  0  0  0
 16 14  1  0  0  0  0
 17 21  1  0  0  0  0
 17 18  1  0  0  0  0
 18 24  1  1  0  0  0
 18 20  1  0  0  0  0
 20 19  1  6  0  0  0
 21 22  1  0  0  0  0
 22 26  1  6  0  0  0
 22 20  1  0  0  0  0
 24 23  1  0  0  0  0
 25 24  2  0  0  0  0
 27 31  1  0  0  0  0
 28 32  1  0  0  0  0
 29 28  1  0  0  0  0
 29 27  2  0  0  0  0
 31 30  1  0  0  0  0
 31 26  1  1  0  0  0
 32 30  1  0  0  0  0
 33 34  3  0  0  0  0
M  END
>  <MODEL>
7

>  <REMARK>
 VINA RESULT:      -6.0      4.494      7.704
  Name = 
  7 active torsions:
  status: ('A' for Active; 'I' for Inactive)
    1  A    between atoms: C_1  and  C_20
    2  A    between atoms: C_1  and  C_34
    3  A    between atoms: N_5  and  C_34
    4  A    between atoms: C_7  and  C_11
    5  A    between atoms: C_8  and  C_18
    6  A    between atoms: C_13  and  C_23
    7  A    between atoms: C_31  and  C_33
                            x       y       z     vdW  Elec       q    Type
                         _______ _______ _______ _____ _____    ______ ____

>  <TORSDO>
F 7

$$$$
=
 OpenBabel10262423203D

 34 38  0  0  1  0  0  0  0  0999 V2000
  181.3280  178.3210  139.1740 N   0  0  2  0  0  0  0  0  0  0  0  0
  179.8840  178.4580  139.4540 C   0  0  2  0  0  3  0  0  0  0  0  0
  180.8810  179.0900  140.3550 C   0  0  1  0  0  3  0  0  0  0  0  0
  182.6670  177.7720  141.5120 C   0  0  0  0  0  2  0  0  0  0  0  0
  181.7290  178.7340  143.9790 O   0  0  0  0  0  0  0  0  0  0  0  0
  185.9420  178.6740  143.4160 C   0  0  1  0  0  3  0  0  0  0  0  0
  185.0600  178.0910  142.2900 C   0  0  0  0  0  2  0  0  0  0  0  0
  183.6270  178.6130  142.3350 C   0  0  2  0  0  3  0  0  0  0  0  0
  183.8910  179.7200  144.5950 C   0  0  0  0  0  2  0  0  0  0  0  0
  183.1370  178.6630  143.7890 C   0  0  1  0  0  3  0  0  0  0  0  0
  185.3340  179.9250  144.0890 C   0  0  0  0  0  2  0  0  0  0  0  0
  181.0950  179.2710  142.8380 C   0  0  0  0  0  2  0  0  0  0  0  0
  181.2410  178.3290  141.6290 C   0  0  1  0  0  3  0  0  0  0  0  0
  186.3100  177.6090  144.4100 C   0  0  0  0  0  0  0  0  0  0  0  0
  187.1490  176.7730  144.1190 O   0  0  0  0  0  0  0  0  0  0  0  0
  185.7350  177.5720  145.6420 F   0  0  0  0  0  0  0  0  0  0  0  0
  181.9850  181.5890  138.5390 C   0  0  0  0  0  2  0  0  0  0  0  0
  181.0140  181.4550  137.3890 C   0  0  1  0  0  3  0  0  0  0  0  0
  180.3060  179.5710  136.0810 O   0  0  0  0  0  1  0  0  0  0  0  0
  180.6060  179.9990  137.3780 C   0  0  1  0  0  3  0  0  0  0  0  0
  182.6900  180.2510  138.6390 C   0  0  0  0  0  2  0  0  0  0  0  0
  181.7570  179.1920  138.0510 C   0  0  1  0  0  0  0  0  0  0  0  0
  179.7070  183.5330  136.8950 O   0  0  0  0  0  0  0  0  0  0  0  0
  179.8280  182.3370  137.5940 C   0  0  0  0  0  0  0  0  0  0  0  0
  178.9330  181.9970  138.4100 O   0  0  0  0  0  1  0  0  0  0  0  0
  182.5170  178.2890  137.0420 C   0  0  0  0  0  2  0  0  0  0  0  0
  184.8730  177.4120  137.3770 C   0  0  0  0  0  3  0  0  0  0  0  0
  185.3200  175.0970  136.8360 C   0  0  0  0  0  2  0  0  0  0  0  0
  185.7120  176.4720  137.0940 N   0  0  0  0  0  0  0  0  0  0  0  0
  182.9610  175.7510  137.1420 C   0  0  0  0  0  2  0  0  0  0  0  0
  183.3990  177.1480  137.5750 C   0  0  2  0  0  3  0  0  0  0  0  0
  184.0180  174.7370  137.5440 C   0  0  0  0  0  2  0  0  0  0  0  0
  179.3510  177.1610  139.9020 C   0  0  0  0  0  0  0  0  0  0  0  0
  178.9310  176.1410  140.2540 N   0  0  0  0  0  0  0  0  0  0  0  0
  1 22  1  6  0  0  0
  1  2  1  0  0  0  0
  1  3  1  0  0  0  0
  2 33  1  1  0  0  0
  2  3  1  0  0  0  0
  3 13  1  1  0  0  0
  6 11  1  0  0  0  0
  6 14  1  1  0  0  0
  7  8  1  0  0  0  0
  7  6  1  0  0  0  0
  8  4  1  6  0  0  0
  8 10  1  0  0  0  0
 10  5  1  0  0  0  0
 10  9  1  6  0  0  0
 11  9  1  0  0  0  0
 12  5  1  0  0  0  0
 13  4  1  6  0  0  0
 13 12  1  0  0  0  0
 14 16  1  0  0  0  0
 15 14  2  0  0  0  0
 17 21  1  0  0  0  0
 18 24  1  1  0  0  0
 18 17  1  0  0  0  0
 20 19  1  6  0  0  0
 20 18  1  0  0  0  0
 20 22  1  0  0  0  0
 22 26  1  6  0  0  0
 22 21  1  0  0  0  0
 23 24  2  0  0  0  0
 24 25  1  0  0  0  0
 27 31  1  0  0  0  0
 28 29  1  0  0  0  0
 28 32  1  0  0  0  0
 29 27  2  0  0  0  0
 30 32  1  0  0  0  0
 30 31  1  0  0  0  0
 31 26  1  6  0  0  0
 33 34  3  0  0  0  0
M  END
>  <MODEL>
8

>  <REMARK>
 VINA RESULT:      -5.8      4.643      8.978
  Name = 
  7 active torsions:
  status: ('A' for Active; 'I' for Inactive)
    1  A    between atoms: C_1  and  C_20
    2  A    between atoms: C_1  and  C_34
    3  A    between atoms: N_5  and  C_34
    4  A    between atoms: C_7  and  C_11
    5  A    between atoms: C_8  and  C_18
    6  A    between atoms: C_13  and  C_23
    7  A    between atoms: C_31  and  C_33
                            x       y       z     vdW  Elec       q    Type
                         _______ _______ _______ _____ _____    ______ ____

>  <TORSDO>
F 7

$$$$
=
 OpenBabel10262423203D

 34 38  0  0  1  0  0  0  0  0999 V2000
  188.4850  178.1620  140.5480 N   0  0  2  0  0  0  0  0  0  0  0  0
  187.3520  177.4940  139.8750 C   0  0  2  0  0  3  0  0  0  0  0  0
  188.7280  176.9530  139.7320 C   0  0  1  0  0  3  0  0  0  0  0  0
  191.0010  177.3130  138.7470 C   0  0  0  0  0  2  0  0  0  0  0  0
  190.0190  176.4530  136.2590 O   0  0  0  0  0  0  0  0  0  0  0  0
  193.8230  174.9700  137.4390 C   0  0  1  0  0  3  0  0  0  0  0  0
  193.1350  175.9960  138.3660 C   0  0  0  0  0  2  0  0  0  0  0  0
  191.6260  176.0620  138.1520 C   0  0  2  0  0  3  0  0  0  0  0  0
  191.6600  174.6390  136.0610 C   0  0  0  0  0  2  0  0  0  0  0  0
  191.3110  176.0050  136.6500 C   0  0  1  0  0  3  0  0  0  0  0  0
  192.8410  173.9680  136.7930 C   0  0  0  0  0  2  0  0  0  0  0  0
  189.1090  176.3640  137.3340 C   0  0  0  0  0  2  0  0  0  0  0  0
  189.4920  177.3350  138.4650 C   0  0  1  0  0  3  0  0  0  0  0  0
  194.6860  175.6630  136.4230 C   0  0  0  0  0  0  0  0  0  0  0  0
  194.6130  176.8740  136.2930 O   0  0  0  0  0  0  0  0  0  0  0  0
  195.5650  174.9640  135.6570 F   0  0  0  0  0  0  0  0  0  0  0  0
  190.4860  178.6280  143.2490 C   0  0  0  0  0  2  0  0  0  0  0  0
  190.3410  177.1430  143.4850 C   0  0  1  0  0  3  0  0  0  0  0  0
  188.6350  175.5680  142.8760 O   0  0  0  0  0  1  0  0  0  0  0  0
  189.3780  176.6620  142.4220 C   0  0  1  0  0  3  0  0  0  0  0  0
  189.1560  179.0870  142.6840 C   0  0  0  0  0  2  0  0  0  0  0  0
  188.5020  177.8820  142.0060 C   0  0  1  0  0  0  0  0  0  0  0  0
  192.0440  175.4860  144.2750 O   0  0  0  0  0  1  0  0  0  0  0  0
  191.6600  176.4570  143.3570 C   0  0  0  0  0  0  0  0  0  0  0  0
  192.4310  176.7630  142.4110 O   0  0  0  0  0  0  0  0  0  0  0  0
  187.0240  177.7320  142.4570 C   0  0  0  0  0  2  0  0  0  0  0  0
  187.0180  177.8060  144.9920 C   0  0  0  0  0  3  0  0  0  0  0  0
  184.9240  178.2530  146.1190 C   0  0  0  0  0  2  0  0  0  0  0  0
  186.2910  177.7650  146.0590 N   0  0  0  0  0  0  0  0  0  0  0  0
  185.0650  178.8300  143.7240 C   0  0  0  0  0  2  0  0  0  0  0  0
  186.5490  178.4710  143.7200 C   0  0  2  0  0  3  0  0  0  0  0  0
  184.6710  179.3540  145.0940 C   0  0  0  0  0  2  0  0  0  0  0  0
  186.8810  178.3390  138.7650 C   0  0  0  0  0  0  0  0  0  0  0  0
  186.5090  179.0030  137.8920 N   0  0  0  0  0  0  0  0  0  0  0  0
  1 22  1  1  0  0  0
  2 33  1  6  0  0  0
  2  1  1  0  0  0  0
  3 13  1  6  0  0  0
  3  2  1  0  0  0  0
  3  1  1  0  0  0  0
  5 10  1  0  0  0  0
  5 12  1  0  0  0  0
  6 14  1  6  0  0  0
  6  7  1  0  0  0  0
  8  7  1  6  0  0  0
  8  4  1  0  0  0  0
  9 11  1  0  0  0  0
 10  9  1  1  0  0  0
 10  8  1  0  0  0  0
 11  6  1  0  0  0  0
 13 12  1  6  0  0  0
 13  4  1  0  0  0  0
 15 14  2  0  0  0  0
 16 14  1  0  0  0  0
 17 18  1  0  0  0  0
 18 24  1  6  0  0  0
 20 19  1  1  0  0  0
 20 18  1  0  0  0  0
 21 17  1  0  0  0  0
 22 20  1  0  0  0  0
 22 26  1  1  0  0  0
 22 21  1  0  0  0  0
 24 23  1  0  0  0  0
 25 24  2  0  0  0  0
 27 29  2  0  0  0  0
 29 28  1  0  0  0  0
 30 32  1  0  0  0  0
 31 26  1  6  0  0  0
 31 30  1  0  0  0  0
 31 27  1  0  0  0  0
 32 28  1  0  0  0  0
 34 33  3  0  0  0  0
M  END
>  <MODEL>
9

>  <REMARK>
 VINA RESULT:      -5.8      4.304      7.804
  Name = 
  7 active torsions:
  status: ('A' for Active; 'I' for Inactive)
    1  A    between atoms: C_1  and  C_20
    2  A    between atoms: C_1  and  C_34
    3  A    between atoms: N_5  and  C_34
    4  A    between atoms: C_7  and  C_11
    5  A    between atoms: C_8  and  C_18
    6  A    between atoms: C_13  and  C_23
    7  A    between atoms: C_31  and  C_33
                            x       y       z     vdW  Elec       q    Type
                         _______ _______ _______ _____ _____    ______ ____

>  <TORSDO>
F 7

$$$$
