=
 OpenBabel10262419303D

 31 35  0  0  1  0  0  0  0  0999 V2000
  186.7020  178.1720  146.9660 C   0  0  0  0  0  0  0  0  0  0  0  0
  187.3550  177.5620  143.2250 C   0  0  1  0  0  3  0  0  0  0  0  0
  188.8730  177.4340  143.1630 C   0  0  0  0  0  0  0  0  0  0  0  0
  182.4020  178.5440  141.7690 O   0  0  0  0  0  0  0  0  0  0  0  0
  183.1400  178.6730  140.7540 C   0  0  0  0  0  0  0  0  0  0  0  0
  190.9560  176.6070  144.0970 C   0  0  0  0  0  0  0  0  0  0  0  0
  186.7210  177.9760  144.5420 C   0  0  0  0  0  0  0  0  0  0  0  0
  185.3610  178.5610  146.9310 C   0  0  0  0  0  3  0  0  0  0  0  0
  189.5840  176.8240  144.2040 C   0  0  0  0  0  3  0  0  0  0  0  0
  185.2940  178.4660  142.1180 C   0  0  0  0  0  0  0  0  0  0  0  0
  187.3470  178.0740  148.1520 F   0  0  0  0  0  0  0  0  0  0  0  0
  188.8810  178.3300  140.7740 C   0  0  0  0  0  2  0  0  0  0  0  0
  191.6420  176.0400  145.1180 F   0  0  0  0  0  0  0  0  0  0  0  0
  184.6730  178.4850  143.2640 N   0  0  0  0  0  0  0  0  0  0  0  0
  186.8040  178.4510  142.0980 C   0  0  2  0  0  3  0  0  0  0  0  0
  184.5680  178.6240  140.8910 N   0  0  0  0  0  2  0  0  0  0  0  0
  187.3740  177.8680  145.7790 C   0  0  0  0  0  3  0  0  0  0  0  0
  191.6130  176.9680  142.9230 C   0  0  0  0  0  3  0  0  0  0  0  0
  185.3660  178.3690  144.5170 C   0  0  0  0  0  0  0  0  0  0  0  0
  184.6930  178.6570  145.7070 C   0  0  0  0  0  3  0  0  0  0  0  0
  187.3890  178.0210  140.7620 C   0  0  0  0  0  2  0  0  0  0  0  0
  189.5730  177.7300  141.9670 C   0  0  0  0  0  0  0  0  0  0  0  0
  190.9150  177.5140  141.8930 N   0  0  0  0  0  0  0  0  0  0  0  0
  181.3910  179.3420  136.8900 C   0  0  0  0  0  0  0  0  0  0  0  0
  182.0350  180.1350  139.0790 C   0  0  0  0  0  3  0  0  0  0  0  0
  182.9470  176.5580  138.7260 O   0  0  0  0  0  1  0  0  0  0  0  0
  180.8360  179.5700  135.6750 F   0  0  0  0  0  0  0  0  0  0  0  0
  181.4640  180.3720  137.8280 C   0  0  0  0  0  3  0  0  0  0  0  0
  182.4640  177.8320  138.4550 C   0  0  0  0  0  0  0  0  0  0  0  0
  182.5430  178.8690  139.4120 C   0  0  0  0  0  0  0  0  0  0  0  0
  181.8890  178.0770  137.2040 C   0  0  0  0  0  3  0  0  0  0  0  0
  1 11  1  0  0  0  0
  2  3  1  1  0  0  0
  2  7  1  0  0  0  0
  3  9  1  0  0  0  0
  5 16  1  0  0  0  0
  5  4  2  0  0  0  0
  6  9  2  0  0  0  0
  6 13  1  0  0  0  0
  7 17  1  0  0  0  0
  8  1  1  0  0  0  0
 10 14  2  0  0  0  0
 12 22  1  0  0  0  0
 14 19  1  0  0  0  0
 15 21  1  6  0  0  0
 15 10  1  0  0  0  0
 15  2  1  0  0  0  0
 16 10  1  0  0  0  0
 17  1  2  0  0  0  0
 18  6  1  0  0  0  0
 19  7  2  0  0  0  0
 19 20  1  0  0  0  0
 20  8  2  0  0  0  0
 21 12  1  0  0  0  0
 22  3  2  0  0  0  0
 23 22  1  0  0  0  0
 23 18  2  0  0  0  0
 24 31  2  0  0  0  0
 24 28  1  0  0  0  0
 25 30  1  0  0  0  0
 27 24  1  0  0  0  0
 28 25  2  0  0  0  0
 29 26  1  0  0  0  0
 29 30  2  0  0  0  0
 30  5  1  0  0  0  0
 31 29  1  0  0  0  0
M  END
>  <MODEL>
1

>  <REMARK>
 VINA RESULT:     -10.9      0.000      0.000
  Name = 
  1 active torsions:
  status: ('A' for Active; 'I' for Inactive)
    1  A    between atoms: C_9  and  C_22
                            x       y       z     vdW  Elec       q    Type
                         _______ _______ _______ _____ _____    ______ ____

>  <TORSDO>
F 1

$$$$
=
 OpenBabel10262419303D

 31 35  0  0  1  0  0  0  0  0999 V2000
  185.3940  179.1460  143.3810 C   0  0  0  0  0  0  0  0  0  0  0  0
  188.6680  177.1370  143.5760 C   0  0  1  0  0  3  0  0  0  0  0  0
  189.0570  177.2640  145.0440 C   0  0  0  0  0  0  0  0  0  0  0  0
  189.0900  176.5190  138.3740 O   0  0  0  0  0  0  0  0  0  0  0  0
  190.2300  176.3350  138.8830 C   0  0  0  0  0  0  0  0  0  0  0  0
  188.4370  177.2920  147.3920 C   0  0  0  0  0  0  0  0  0  0  0  0
  187.4880  177.9500  143.0700 C   0  0  0  0  0  0  0  0  0  0  0  0
  185.2340  179.2400  141.9970 C   0  0  0  0  0  3  0  0  0  0  0  0
  188.0770  177.2880  146.0460 C   0  0  0  0  0  3  0  0  0  0  0  0
  189.4760  177.1090  141.2020 C   0  0  0  0  0  0  0  0  0  0  0  0
  184.4600  179.6740  144.2080 F   0  0  0  0  0  0  0  0  0  0  0  0
  191.5270  177.0520  144.4400 C   0  0  0  0  0  2  0  0  0  0  0  0
  187.4850  177.3410  148.3550 F   0  0  0  0  0  0  0  0  0  0  0  0
  188.3050  177.5000  140.7860 N   0  0  0  0  0  0  0  0  0  0  0  0
  189.8680  177.3530  142.6400 C   0  0  2  0  0  3  0  0  0  0  0  0
  190.4480  176.6020  140.2760 N   0  0  0  0  0  2  0  0  0  0  0  0
  186.5080  178.4930  143.9150 C   0  0  0  0  0  3  0  0  0  0  0  0
  189.7850  177.2330  147.7370 C   0  0  0  0  0  3  0  0  0  0  0  0
  187.3170  178.0490  141.6730 C   0  0  0  0  0  0  0  0  0  0  0  0
  186.1940  178.6900  141.1440 C   0  0  0  0  0  3  0  0  0  0  0  0
  191.0460  176.5090  143.1000 C   0  0  0  0  0  2  0  0  0  0  0  0
  190.4110  177.1460  145.4450 C   0  0  0  0  0  0  0  0  0  0  0  0
  190.7330  177.1590  146.7670 N   0  0  0  0  0  0  0  0  0  0  0  0
  193.5300  174.9800  136.4930 C   0  0  0  0  0  0  0  0  0  0  0  0
  192.4790  176.6540  137.8810 C   0  0  0  0  0  3  0  0  0  0  0  0
  190.2400  173.7160  137.5540 O   0  0  0  0  0  1  0  0  0  0  0  0
  194.5790  174.5670  135.7420 F   0  0  0  0  0  0  0  0  0  0  0  0
  193.5610  176.2310  137.1090 C   0  0  0  0  0  3  0  0  0  0  0  0
  191.3280  174.5700  137.4240 C   0  0  0  0  0  0  0  0  0  0  0  0
  191.3510  175.8370  138.0520 C   0  0  0  0  0  0  0  0  0  0  0  0
  192.4160  174.1530  136.6500 C   0  0  0  0  0  3  0  0  0  0  0  0
  1 17  1  0  0  0  0
  1 11  1  0  0  0  0
  2  7  1  6  0  0  0
  2  3  1  0  0  0  0
  3 22  2  0  0  0  0
  3  9  1  0  0  0  0
  4  5  2  0  0  0  0
  5 16  1  0  0  0  0
  6 18  1  0  0  0  0
  6 13  1  0  0  0  0
  7 17  2  0  0  0  0
  8  1  2  0  0  0  0
  9  6  2  0  0  0  0
 10 15  1  0  0  0  0
 12 22  1  0  0  0  0
 14 10  2  0  0  0  0
 14 19  1  0  0  0  0
 15 21  1  1  0  0  0
 15  2  1  0  0  0  0
 16 10  1  0  0  0  0
 19  7  1  0  0  0  0
 20 19  2  0  0  0  0
 20  8  1  0  0  0  0
 21 12  1  0  0  0  0
 22 23  1  0  0  0  0
 23 18  2  0  0  0  0
 24 31  2  0  0  0  0
 24 28  1  0  0  0  0
 25 30  1  0  0  0  0
 27 24  1  0  0  0  0
 28 25  2  0  0  0  0
 29 26  1  0  0  0  0
 29 30  2  0  0  0  0
 30  5  1  0  0  0  0
 31 29  1  0  0  0  0
M  END
>  <MODEL>
2

>  <REMARK>
 VINA RESULT:     -10.7      4.046      7.002
  Name = 
  1 active torsions:
  status: ('A' for Active; 'I' for Inactive)
    1  A    between atoms: C_9  and  C_22
                            x       y       z     vdW  Elec       q    Type
                         _______ _______ _______ _____ _____    ______ ____

>  <TORSDO>
F 1

$$$$
=
 OpenBabel10262419303D

 31 35  0  0  1  0  0  0  0  0999 V2000
  188.0390  178.1480  147.6960 C   0  0  0  0  0  0  0  0  0  0  0  0
  187.4200  177.5020  143.9560 C   0  0  1  0  0  3  0  0  0  0  0  0
  188.8300  177.3260  143.4050 C   0  0  0  0  0  0  0  0  0  0  0  0
  182.2920  178.6270  144.1780 O   0  0  0  0  0  0  0  0  0  0  0  0
  182.6620  178.7290  142.9770 C   0  0  0  0  0  0  0  0  0  0  0  0
  191.0810  176.4400  143.6220 C   0  0  0  0  0  0  0  0  0  0  0  0
  187.2620  177.9400  145.4020 C   0  0  0  0  0  0  0  0  0  0  0  0
  186.7710  178.5780  148.0940 C   0  0  0  0  0  3  0  0  0  0  0  0
  189.8260  176.6990  144.1670 C   0  0  0  0  0  3  0  0  0  0  0  0
  185.1370  178.4630  143.5680 C   0  0  0  0  0  0  0  0  0  0  0  0
  189.0330  178.0360  148.6100 F   0  0  0  0  0  0  0  0  0  0  0  0
  188.0840  178.2110  141.1310 C   0  0  0  0  0  2  0  0  0  0  0  0
  192.0460  175.8580  144.3720 F   0  0  0  0  0  0  0  0  0  0  0  0
  184.9240  178.5060  144.8530 N   0  0  0  0  0  0  0  0  0  0  0  0
  186.5570  178.4020  143.0580 C   0  0  2  0  0  3  0  0  0  0  0  0
  184.0550  178.6370  142.6420 N   0  0  0  0  0  2  0  0  0  0  0  0
  188.2790  177.8190  146.3600 C   0  0  0  0  0  3  0  0  0  0  0  0
  191.3290  176.7760  142.2920 C   0  0  0  0  0  3  0  0  0  0  0  0
  185.9830  178.3740  145.8140 C   0  0  0  0  0  0  0  0  0  0  0  0
  185.7440  178.6880  147.1540 C   0  0  0  0  0  3  0  0  0  0  0  0
  186.6620  177.9480  141.6100 C   0  0  0  0  0  2  0  0  0  0  0  0
  189.1110  177.5960  142.0420 C   0  0  0  0  0  0  0  0  0  0  0  0
  190.3490  177.3380  141.5390 N   0  0  0  0  0  0  0  0  0  0  0  0
  179.8280  179.2680  139.7960 C   0  0  0  0  0  0  0  0  0  0  0  0
  181.8350  178.2570  140.6840 C   0  0  0  0  0  3  0  0  0  0  0  0
  180.3310  180.4960  143.2290 O   0  0  0  0  0  1  0  0  0  0  0  0
  178.9430  179.4270  138.7830 F   0  0  0  0  0  0  0  0  0  0  0  0
  180.9240  178.4190  139.6390 C   0  0  0  0  0  3  0  0  0  0  0  0
  180.5520  179.7950  142.0500 C   0  0  0  0  0  0  0  0  0  0  0  0
  181.6660  178.9370  141.9000 C   0  0  0  0  0  0  0  0  0  0  0  0
  179.6440  179.9530  140.9980 C   0  0  0  0  0  3  0  0  0  0  0  0
  1  8  1  0  0  0  0
  1 11  1  0  0  0  0
  2  3  1  6  0  0  0
  2  7  1  0  0  0  0
  3  9  1  0  0  0  0
  5  4  2  0  0  0  0
  6  9  2  0  0  0  0
  6 13  1  0  0  0  0
  7 19  2  0  0  0  0
  7 17  1  0  0  0  0
 10 14  2  0  0  0  0
 12 21  1  0  0  0  0
 12 22  1  0  0  0  0
 14 19  1  0  0  0  0
 15 21  1  6  0  0  0
 15 10  1  0  0  0  0
 15  2  1  0  0  0  0
 16  5  1  0  0  0  0
 16 10  1  0  0  0  0
 17  1  2  0  0  0  0
 18  6  1  0  0  0  0
 19 20  1  0  0  0  0
 20  8  2  0  0  0  0
 22  3  2  0  0  0  0
 23 22  1  0  0  0  0
 23 18  2  0  0  0  0
 24 31  1  0  0  0  0
 25 30  2  0  0  0  0
 27 24  1  0  0  0  0
 28 24  2  0  0  0  0
 28 25  1  0  0  0  0
 29 26  1  0  0  0  0
 30 29  1  0  0  0  0
 30  5  1  0  0  0  0
 31 29  2  0  0  0  0
M  END
>  <MODEL>
3

>  <REMARK>
 VINA RESULT:     -10.5      1.875      2.354
  Name = 
  1 active torsions:
  status: ('A' for Active; 'I' for Inactive)
    1  A    between atoms: C_9  and  C_22
                            x       y       z     vdW  Elec       q    Type
                         _______ _______ _______ _____ _____    ______ ____

>  <TORSDO>
F 1

$$$$
=
 OpenBabel10262419303D

 31 35  0  0  1  0  0  0  0  0999 V2000
  191.0720  176.4490  143.2510 C   0  0  0  0  0  0  0  0  0  0  0  0
  187.8460  178.0910  144.5490 C   0  0  1  0  0  3  0  0  0  0  0  0
  187.9640  177.9240  146.0590 C   0  0  0  0  0  0  0  0  0  0  0  0
  185.7140  178.6560  139.7790 O   0  0  0  0  0  0  0  0  0  0  0  0
  184.7860  178.7170  140.6310 C   0  0  0  0  0  0  0  0  0  0  0  0
  189.3040  177.9640  148.0840 C   0  0  0  0  0  0  0  0  0  0  0  0
  188.8780  177.4110  143.6660 C   0  0  0  0  0  0  0  0  0  0  0  0
  190.7870  176.3720  141.8860 C   0  0  0  0  0  3  0  0  0  0  0  0
  189.2100  178.0070  146.6950 C   0  0  0  0  0  3  0  0  0  0  0  0
  186.3190  178.0300  142.5600 C   0  0  0  0  0  0  0  0  0  0  0  0
  192.2710  176.0250  143.7170 F   0  0  0  0  0  0  0  0  0  0  0  0
  185.4230  177.8660  146.2830 C   0  0  0  0  0  2  0  0  0  0  0  0
  190.5140  178.0190  148.6900 F   0  0  0  0  0  0  0  0  0  0  0  0
  187.3290  177.7680  141.7790 N   0  0  0  0  0  0  0  0  0  0  0  0
  186.4370  177.7460  144.0380 C   0  0  2  0  0  3  0  0  0  0  0  0
  185.0550  178.4280  142.0110 N   0  0  0  0  0  2  0  0  0  0  0  0
  190.1280  176.9780  144.1340 C   0  0  0  0  0  3  0  0  0  0  0  0
  188.1400  177.8780  148.8440 C   0  0  0  0  0  3  0  0  0  0  0  0
  188.6000  177.3300  142.2840 C   0  0  0  0  0  0  0  0  0  0  0  0
  189.5530  176.8140  141.4030 C   0  0  0  0  0  3  0  0  0  0  0  0
  185.3890  178.4570  144.8790 C   0  0  0  0  0  2  0  0  0  0  0  0
  186.8050  177.8950  146.8750 C   0  0  0  0  0  0  0  0  0  0  0  0
  186.9280  177.8480  148.2300 N   0  0  0  0  0  0  0  0  0  0  0  0
  180.7680  179.7240  139.4990 C   0  0  0  0  0  0  0  0  0  0  0  0
  182.3290  178.3840  140.7660 C   0  0  0  0  0  3  0  0  0  0  0  0
  184.1800  180.8610  138.7180 O   0  0  0  0  0  1  0  0  0  0  0  0
  179.4940  180.0300  139.1520 F   0  0  0  0  0  0  0  0  0  0  0  0
  181.0160  178.6980  140.4100 C   0  0  0  0  0  3  0  0  0  0  0  0
  183.1500  180.1280  139.2950 C   0  0  0  0  0  0  0  0  0  0  0  0
  183.4120  179.0900  140.2180 C   0  0  0  0  0  0  0  0  0  0  0  0
  181.8320  180.4350  138.9440 C   0  0  0  0  0  3  0  0  0  0  0  0
  1 11  1  0  0  0  0
  1 17  1  0  0  0  0
  2  7  1  6  0  0  0
  2  3  1  0  0  0  0
  3  9  2  0  0  0  0
  3 22  1  0  0  0  0
  4  5  2  0  0  0  0
  5 16  1  0  0  0  0
  6 13  1  0  0  0  0
  6 18  2  0  0  0  0
  7 17  2  0  0  0  0
  8  1  2  0  0  0  0
  9  6  1  0  0  0  0
 10 15  1  0  0  0  0
 12 22  1  0  0  0  0
 14 19  1  0  0  0  0
 14 10  2  0  0  0  0
 15  2  1  0  0  0  0
 15 21  1  1  0  0  0
 16 10  1  0  0  0  0
 19  7  1  0  0  0  0
 20  8  1  0  0  0  0
 20 19  2  0  0  0  0
 21 12  1  0  0  0  0
 22 23  2  0  0  0  0
 23 18  1  0  0  0  0
 24 28  1  0  0  0  0
 26 29  1  0  0  0  0
 27 24  1  0  0  0  0
 28 25  2  0  0  0  0
 29 30  2  0  0  0  0
 30  5  1  0  0  0  0
 30 25  1  0  0  0  0
 31 29  1  0  0  0  0
 31 24  2  0  0  0  0
M  END
>  <MODEL>
4

>  <REMARK>
 VINA RESULT:     -10.2      2.098      4.357
  Name = 
  1 active torsions:
  status: ('A' for Active; 'I' for Inactive)
    1  A    between atoms: C_9  and  C_22
                            x       y       z     vdW  Elec       q    Type
                         _______ _______ _______ _____ _____    ______ ____

>  <TORSDO>
F 1

$$$$
=
 OpenBabel10262419303D

 31 35  0  0  1  0  0  0  0  0999 V2000
  184.4030  178.9940  145.0130 C   0  0  0  0  0  0  0  0  0  0  0  0
  187.7730  177.4540  143.9820 C   0  0  1  0  0  3  0  0  0  0  0  0
  188.5510  177.4340  145.2920 C   0  0  0  0  0  0  0  0  0  0  0  0
  186.7480  177.6150  138.8300 O   0  0  0  0  0  0  0  0  0  0  0  0
  187.9970  177.5240  138.9770 C   0  0  0  0  0  0  0  0  0  0  0  0
  188.6290  177.0550  147.6900 C   0  0  0  0  0  0  0  0  0  0  0  0
  186.4250  178.1550  143.9560 C   0  0  0  0  0  0  0  0  0  0  0  0
  183.8450  179.2520  143.7590 C   0  0  0  0  0  3  0  0  0  0  0  0
  187.9010  177.1840  146.5080 C   0  0  0  0  0  3  0  0  0  0  0  0
  187.8680  177.8620  141.5100 C   0  0  0  0  0  0  0  0  0  0  0  0
  183.6980  179.2690  146.1370 F   0  0  0  0  0  0  0  0  0  0  0  0
  190.7540  177.6530  144.0230 C   0  0  0  0  0  2  0  0  0  0  0  0
  187.9920  176.8400  148.8660 F   0  0  0  0  0  0  0  0  0  0  0  0
  186.5940  178.1390  141.4950 N   0  0  0  0  0  0  0  0  0  0  0  0
  188.6290  177.9620  142.8100 C   0  0  2  0  0  3  0  0  0  0  0  0
  188.5780  177.6270  140.2850 N   0  0  0  0  0  2  0  0  0  0  0  0
  185.6800  178.4360  145.1110 C   0  0  0  0  0  3  0  0  0  0  0  0
  190.0190  177.1380  147.6470 C   0  0  0  0  0  3  0  0  0  0  0  0
  185.8530  178.4190  142.6930 C   0  0  0  0  0  0  0  0  0  0  0  0
  184.5690  178.9620  142.6000 C   0  0  0  0  0  3  0  0  0  0  0  0
  189.9650  177.2360  142.7880 C   0  0  0  0  0  2  0  0  0  0  0  0
  189.9680  177.4520  145.2900 C   0  0  0  0  0  0  0  0  0  0  0  0
  190.6520  177.3300  146.4600 N   0  0  0  0  0  0  0  0  0  0  0  0
  190.6060  176.8300  135.6370 C   0  0  0  0  0  0  0  0  0  0  0  0
  190.0160  176.5000  137.9570 C   0  0  0  0  0  3  0  0  0  0  0  0
  187.5000  178.6820  136.3250 O   0  0  0  0  0  1  0  0  0  0  0  0
  191.4390  176.6020  134.5940 F   0  0  0  0  0  0  0  0  0  0  0  0
  190.8750  176.2630  136.8830 C   0  0  0  0  0  3  0  0  0  0  0  0
  188.6120  177.8760  136.5380 C   0  0  0  0  0  0  0  0  0  0  0  0
  188.8760  177.3050  137.8040 C   0  0  0  0  0  0  0  0  0  0  0  0
  189.4780  177.6340  135.4670 C   0  0  0  0  0  3  0  0  0  0  0  0
  1 17  1  0  0  0  0
  1 11  1  0  0  0  0
  2  7  1  1  0  0  0
  2  3  1  0  0  0  0
  3  9  1  0  0  0  0
  4  5  2  0  0  0  0
  5 16  1  0  0  0  0
  6 13  1  0  0  0  0
  7 17  2  0  0  0  0
  8  1  2  0  0  0  0
  9  6  2  0  0  0  0
 10 15  1  0  0  0  0
 12 22  1  0  0  0  0
 14 10  2  0  0  0  0
 14 19  1  0  0  0  0
 15 21  1  6  0  0  0
 15  2  1  0  0  0  0
 16 10  1  0  0  0  0
 18  6  1  0  0  0  0
 19  7  1  0  0  0  0
 20 19  2  0  0  0  0
 20  8  1  0  0  0  0
 21 12  1  0  0  0  0
 22  3  2  0  0  0  0
 22 23  1  0  0  0  0
 23 18  2  0  0  0  0
 24 28  1  0  0  0  0
 26 29  1  0  0  0  0
 27 24  1  0  0  0  0
 28 25  2  0  0  0  0
 29 30  2  0  0  0  0
 30 25  1  0  0  0  0
 30  5  1  0  0  0  0
 31 24  2  0  0  0  0
 31 29  1  0  0  0  0
M  END
>  <MODEL>
5

>  <REMARK>
 VINA RESULT:     -10.2      3.637      5.305
  Name = 
  1 active torsions:
  status: ('A' for Active; 'I' for Inactive)
    1  A    between atoms: C_9  and  C_22
                            x       y       z     vdW  Elec       q    Type
                         _______ _______ _______ _____ _____    ______ ____

>  <TORSDO>
F 1

$$$$
=
 OpenBabel10262419303D

 31 35  0  0  1  0  0  0  0  0999 V2000
  191.5240  175.8010  146.7910 C   0  0  0  0  0  0  0  0  0  0  0  0
  188.8570  177.6160  144.6980 C   0  0  1  0  0  3  0  0  0  0  0  0
  187.7510  177.8800  145.7130 C   0  0  0  0  0  0  0  0  0  0  0  0
  191.2650  176.7480  140.1070 O   0  0  0  0  0  0  0  0  0  0  0  0
  190.0530  177.0080  139.8700 C   0  0  0  0  0  0  0  0  0  0  0  0
  187.0550  178.5340  147.9460 C   0  0  0  0  0  0  0  0  0  0  0  0
  190.0350  176.7570  145.1230 C   0  0  0  0  0  0  0  0  0  0  0  0
  192.3690  175.3360  145.7800 C   0  0  0  0  0  3  0  0  0  0  0  0
  188.0590  178.1840  147.0460 C   0  0  0  0  0  3  0  0  0  0  0  0
  189.4070  176.9450  142.3450 C   0  0  0  0  0  0  0  0  0  0  0  0
  191.8320  175.5710  148.0900 F   0  0  0  0  0  0  0  0  0  0  0  0
  185.9920  177.7910  143.8670 C   0  0  0  0  0  2  0  0  0  0  0  0
  187.3570  178.8020  149.2380 F   0  0  0  0  0  0  0  0  0  0  0  0
  190.5750  176.5150  142.7280 N   0  0  0  0  0  0  0  0  0  0  0  0
  188.3020  177.0880  143.3640 C   0  0  2  0  0  3  0  0  0  0  0  0
  189.1170  177.1260  140.9510 N   0  0  0  0  0  2  0  0  0  0  0  0
  190.3710  176.5190  146.4650 C   0  0  0  0  0  3  0  0  0  0  0  0
  185.7380  178.6180  147.4980 C   0  0  0  0  0  3  0  0  0  0  0  0
  190.8950  176.2840  144.1090 C   0  0  0  0  0  0  0  0  0  0  0  0
  192.0560  175.5800  144.4410 C   0  0  0  0  0  3  0  0  0  0  0  0
  187.1520  177.9650  142.8950 C   0  0  0  0  0  2  0  0  0  0  0  0
  186.4070  178.0360  145.2920 C   0  0  0  0  0  0  0  0  0  0  0  0
  185.4460  178.3730  146.1950 N   0  0  0  0  0  0  0  0  0  0  0  0
  188.6730  177.6590  135.8560 C   0  0  0  0  0  0  0  0  0  0  0  0
  189.0550  178.4450  138.1080 C   0  0  0  0  0  3  0  0  0  0  0  0
  190.1680  174.9200  137.8090 O   0  0  0  0  0  1  0  0  0  0  0  0
  188.2340  177.8800  134.5940 F   0  0  0  0  0  0  0  0  0  0  0  0
  188.6020  178.6750  136.8080 C   0  0  0  0  0  3  0  0  0  0  0  0
  189.6540  176.1750  137.5040 C   0  0  0  0  0  0  0  0  0  0  0  0
  189.5860  177.1990  138.4770 C   0  0  0  0  0  0  0  0  0  0  0  0
  189.1970  176.4130  136.2040 C   0  0  0  0  0  3  0  0  0  0  0  0
  1 11  1  0  0  0  0
  2  7  1  1  0  0  0
  2  3  1  0  0  0  0
  3  9  1  0  0  0  0
  5  4  2  0  0  0  0
  5 16  1  0  0  0  0
  6 13  1  0  0  0  0
  7 17  2  0  0  0  0
  8  1  2  0  0  0  0
  9  6  2  0  0  0  0
 10 14  2  0  0  0  0
 10 15  1  0  0  0  0
 12 22  1  0  0  0  0
 14 19  1  0  0  0  0
 15 21  1  6  0  0  0
 15  2  1  0  0  0  0
 16 10  1  0  0  0  0
 17  1  1  0  0  0  0
 18  6  1  0  0  0  0
 19 20  2  0  0  0  0
 19  7  1  0  0  0  0
 20  8  1  0  0  0  0
 21 12  1  0  0  0  0
 22  3  2  0  0  0  0
 22 23  1  0  0  0  0
 23 18  2  0  0  0  0
 24 31  2  0  0  0  0
 24 28  1  0  0  0  0
 25 30  1  0  0  0  0
 27 24  1  0  0  0  0
 28 25  2  0  0  0  0
 29 26  1  0  0  0  0
 29 30  2  0  0  0  0
 30  5  1  0  0  0  0
 31 29  1  0  0  0  0
M  END
>  <MODEL>
6

>  <REMARK>
 VINA RESULT:     -10.1      4.247      6.120
  Name = 
  1 active torsions:
  status: ('A' for Active; 'I' for Inactive)
    1  A    between atoms: C_9  and  C_22
                            x       y       z     vdW  Elec       q    Type
                         _______ _______ _______ _____ _____    ______ ____

>  <TORSDO>
F 1

$$$$
=
 OpenBabel10262419303D

 31 35  0  0  1  0  0  0  0  0999 V2000
  191.1950  177.1900  140.3300 C   0  0  0  0  0  0  0  0  0  0  0  0
  188.2370  178.2560  142.5430 C   0  0  1  0  0  3  0  0  0  0  0  0
  188.6730  177.8060  143.9330 C   0  0  0  0  0  0  0  0  0  0  0  0
  185.1380  179.5590  138.5040 O   0  0  0  0  0  0  0  0  0  0  0  0
  184.4050  179.3690  139.5130 C   0  0  0  0  0  0  0  0  0  0  0  0
  190.4010  177.5650  145.6220 C   0  0  0  0  0  0  0  0  0  0  0  0
  189.0930  177.8560  141.3540 C   0  0  0  0  0  0  0  0  0  0  0  0
  190.6380  177.3580  139.0600 C   0  0  0  0  0  3  0  0  0  0  0  0
  190.0190  177.8710  144.3180 C   0  0  0  0  0  3  0  0  0  0  0  0
  186.3360  178.4540  140.9200 C   0  0  0  0  0  0  0  0  0  0  0  0
  192.4830  176.7900  140.4550 F   0  0  0  0  0  0  0  0  0  0  0  0
  186.2390  177.4830  144.6270 C   0  0  0  0  0  2  0  0  0  0  0  0
  191.7070  177.6050  145.9800 F   0  0  0  0  0  0  0  0  0  0  0  0
  187.1720  178.4400  139.9210 N   0  0  0  0  0  0  0  0  0  0  0  0
  186.7700  177.8950  142.2540 C   0  0  2  0  0  3  0  0  0  0  0  0
  184.9680  178.8400  140.7220 N   0  0  0  0  0  2  0  0  0  0  0  0
  190.4320  177.4500  141.4700 C   0  0  0  0  0  3  0  0  0  0  0  0
  189.4250  177.2290  146.5570 C   0  0  0  0  0  3  0  0  0  0  0  0
  188.5390  178.0240  140.0670 C   0  0  0  0  0  0  0  0  0  0  0  0
  189.3110  177.7770  138.9290 C   0  0  0  0  0  3  0  0  0  0  0  0
  185.8880  178.3330  143.4120 C   0  0  0  0  0  2  0  0  0  0  0  0
  187.7120  177.5160  144.9330 C   0  0  0  0  0  0  0  0  0  0  0  0
  188.1150  177.2140  146.1970 N   0  0  0  0  0  0  0  0  0  0  0  0
  180.2400  180.3970  139.3120 C   0  0  0  0  0  0  0  0  0  0  0  0
  182.5550  180.8660  138.8040 C   0  0  0  0  0  3  0  0  0  0  0  0
  182.3130  177.6980  140.7160 O   0  0  0  0  0  1  0  0  0  0  0  0
  178.9310  180.7350  139.2400 F   0  0  0  0  0  0  0  0  0  0  0  0
  181.2060  181.2160  138.7280 C   0  0  0  0  0  3  0  0  0  0  0  0
  181.9740  178.8700  140.0510 C   0  0  0  0  0  0  0  0  0  0  0  0
  182.9600  179.6940  139.4620 C   0  0  0  0  0  0  0  0  0  0  0  0
  180.6240  179.2280  139.9710 C   0  0  0  0  0  3  0  0  0  0  0  0
  1 11  1  0  0  0  0
  1 17  1  0  0  0  0
  2  7  1  6  0  0  0
  2  3  1  0  0  0  0
  3  9  2  0  0  0  0
  3 22  1  0  0  0  0
  4  5  2  0  0  0  0
  5 16  1  0  0  0  0
  6 13  1  0  0  0  0
  6 18  2  0  0  0  0
  7 17  2  0  0  0  0
  8  1  2  0  0  0  0
  9  6  1  0  0  0  0
 10 15  1  0  0  0  0
 12 22  1  0  0  0  0
 14 19  1  0  0  0  0
 14 10  2  0  0  0  0
 15  2  1  0  0  0  0
 15 21  1  1  0  0  0
 16 10  1  0  0  0  0
 19  7  1  0  0  0  0
 20  8  1  0  0  0  0
 20 19  2  0  0  0  0
 21 12  1  0  0  0  0
 22 23  2  0  0  0  0
 23 18  1  0  0  0  0
 24 31  1  0  0  0  0
 25 30  2  0  0  0  0
 27 24  1  0  0  0  0
 28 25  1  0  0  0  0
 28 24  2  0  0  0  0
 29 26  1  0  0  0  0
 30  5  1  0  0  0  0
 30 29  1  0  0  0  0
 31 29  2  0  0  0  0
M  END
>  <MODEL>
7

>  <REMARK>
 VINA RESULT:      -9.5      2.123      4.317
  Name = 
  1 active torsions:
  status: ('A' for Active; 'I' for Inactive)
    1  A    between atoms: C_9  and  C_22
                            x       y       z     vdW  Elec       q    Type
                         _______ _______ _______ _____ _____    ______ ____

>  <TORSDO>
F 1

$$$$
=
 OpenBabel10262419303D

 31 35  0  0  1  0  0  0  0  0999 V2000
  185.6120  179.2000  142.4170 C   0  0  0  0  0  0  0  0  0  0  0  0
  188.7410  177.0570  143.0540 C   0  0  1  0  0  3  0  0  0  0  0  0
  188.9750  177.2350  144.5500 C   0  0  0  0  0  0  0  0  0  0  0  0
  189.6890  176.1750  137.9610 O   0  0  0  0  0  0  0  0  0  0  0  0
  190.7570  175.9630  138.5990 C   0  0  0  0  0  0  0  0  0  0  0  0
  188.1090  177.4020  146.8120 C   0  0  0  0  0  0  0  0  0  0  0  0
  187.6650  177.8970  142.3890 C   0  0  0  0  0  0  0  0  0  0  0  0
  185.6070  179.2360  141.0210 C   0  0  0  0  0  3  0  0  0  0  0  0
  187.8960  177.3510  145.4360 C   0  0  0  0  0  3  0  0  0  0  0  0
  189.7980  176.8800  140.7870 C   0  0  0  0  0  0  0  0  0  0  0  0
  184.6230  179.8090  143.1130 F   0  0  0  0  0  0  0  0  0  0  0  0
  191.4820  176.8830  144.2300 C   0  0  0  0  0  2  0  0  0  0  0  0
  187.0630  177.5400  147.6610 F   0  0  0  0  0  0  0  0  0  0  0  0
  188.6990  177.3030  140.2290 N   0  0  0  0  0  0  0  0  0  0  0  0
  190.0440  177.1740  142.2470 C   0  0  2  0  0  3  0  0  0  0  0  0
  190.8370  176.2860  139.9950 N   0  0  0  0  0  2  0  0  0  0  0  0
  186.6280  178.5230  143.0970 C   0  0  0  0  0  3  0  0  0  0  0  0
  189.4070  177.2980  147.3060 C   0  0  0  0  0  3  0  0  0  0  0  0
  187.6510  177.9380  140.9780 C   0  0  0  0  0  0  0  0  0  0  0  0
  186.6240  178.6030  140.3020 C   0  0  0  0  0  3  0  0  0  0  0  0
  191.1220  176.3000  142.8690 C   0  0  0  0  0  2  0  0  0  0  0  0
  190.2710  177.0740  145.1010 C   0  0  0  0  0  0  0  0  0  0  0  0
  190.4490  177.1350  146.4490 N   0  0  0  0  0  0  0  0  0  0  0  0
  194.1180  174.1730  136.6140 C   0  0  0  0  0  0  0  0  0  0  0  0
  191.8660  174.0440  137.4810 C   0  0  0  0  0  3  0  0  0  0  0  0
  193.2520  177.4280  138.1010 O   0  0  0  0  0  1  0  0  0  0  0  0
  195.1690  173.5940  135.9860 F   0  0  0  0  0  0  0  0  0  0  0  0
  192.9480  173.4460  136.8330 C   0  0  0  0  0  3  0  0  0  0  0  0
  193.1240  176.1060  137.6910 C   0  0  0  0  0  0  0  0  0  0  0  0
  191.9340  175.3760  137.9180 C   0  0  0  0  0  0  0  0  0  0  0  0
  194.2040  175.4990  137.0420 C   0  0  0  0  0  3  0  0  0  0  0  0
  1 17  1  0  0  0  0
  1 11  1  0  0  0  0
  2  7  1  6  0  0  0
  2  3  1  0  0  0  0
  3 22  2  0  0  0  0
  3  9  1  0  0  0  0
  4  5  2  0  0  0  0
  5 16  1  0  0  0  0
  6 18  1  0  0  0  0
  6 13  1  0  0  0  0
  7 17  2  0  0  0  0
  8  1  2  0  0  0  0
  9  6  2  0  0  0  0
 10 15  1  0  0  0  0
 12 22  1  0  0  0  0
 14 10  2  0  0  0  0
 14 19  1  0  0  0  0
 15 21  1  1  0  0  0
 15  2  1  0  0  0  0
 16 10  1  0  0  0  0
 19  7  1  0  0  0  0
 20 19  2  0  0  0  0
 20  8  1  0  0  0  0
 21 12  1  0  0  0  0
 22 23  1  0  0  0  0
 23 18  2  0  0  0  0
 24 28  2  0  0  0  0
 24 31  1  0  0  0  0
 25 30  2  0  0  0  0
 27 24  1  0  0  0  0
 28 25  1  0  0  0  0
 29 30  1  0  0  0  0
 29 26  1  0  0  0  0
 30  5  1  0  0  0  0
 31 29  2  0  0  0  0
M  END
>  <MODEL>
8

>  <REMARK>
 VINA RESULT:      -9.4      4.414      7.613
  Name = 
  1 active torsions:
  status: ('A' for Active; 'I' for Inactive)
    1  A    between atoms: C_9  and  C_22
                            x       y       z     vdW  Elec       q    Type
                         _______ _______ _______ _____ _____    ______ ____

>  <TORSDO>
F 1

$$$$
=
 OpenBabel10262419303D

 31 35  0  0  1  0  0  0  0  0999 V2000
  187.7630  178.5160  136.6810 C   0  0  0  0  0  0  0  0  0  0  0  0
  185.4020  177.9600  139.6660 C   0  0  1  0  0  3  0  0  0  0  0  0
  184.0270  178.2200  139.0640 C   0  0  0  0  0  0  0  0  0  0  0  0
  189.2740  177.5930  143.2000 O   0  0  0  0  0  0  0  0  0  0  0  0
  188.2090  177.8690  143.8160 C   0  0  0  0  0  0  0  0  0  0  0  0
  182.4530  177.9850  137.2290 C   0  0  0  0  0  0  0  0  0  0  0  0
  186.6270  178.2440  138.8140 C   0  0  0  0  0  0  0  0  0  0  0  0
  188.9970  178.5490  137.3350 C   0  0  0  0  0  3  0  0  0  0  0  0
  183.7400  177.8490  137.7430 C   0  0  0  0  0  3  0  0  0  0  0  0
  186.8960  178.2680  141.6560 C   0  0  0  0  0  0  0  0  0  0  0  0
  187.7080  178.6280  135.3330 F   0  0  0  0  0  0  0  0  0  0  0  0
  183.1490  179.0030  141.3280 C   0  0  0  0  0  2  0  0  0  0  0  0
  182.1890  177.6490  135.9440 F   0  0  0  0  0  0  0  0  0  0  0  0
  187.9500  178.1690  140.8960 N   0  0  0  0  0  0  0  0  0  0  0  0
  185.5700  178.6380  141.0360 C   0  0  2  0  0  3  0  0  0  0  0  0
  187.0170  178.1910  143.0840 N   0  0  0  0  0  2  0  0  0  0  0  0
  186.5860  178.3520  137.4160 C   0  0  0  0  0  3  0  0  0  0  0  0
  181.4360  178.4600  138.0550 C   0  0  0  0  0  3  0  0  0  0  0  0
  187.8790  178.2780  139.4650 C   0  0  0  0  0  0  0  0  0  0  0  0
  189.0550  178.4270  138.7250 C   0  0  0  0  0  3  0  0  0  0  0  0
  184.3760  178.3230  141.9230 C   0  0  0  0  0  2  0  0  0  0  0  0
  182.9490  178.6420  139.8810 C   0  0  0  0  0  0  0  0  0  0  0  0
  181.7030  178.7720  139.3500 N   0  0  0  0  0  0  0  0  0  0  0  0
  188.0090  177.8720  148.1060 C   0  0  0  0  0  0  0  0  0  0  0  0
  186.9890  178.2400  145.9470 C   0  0  0  0  0  3  0  0  0  0  0  0
  190.4880  177.0960  145.4980 O   0  0  0  0  0  1  0  0  0  0  0  0
  187.9300  177.8780  149.4580 F   0  0  0  0  0  0  0  0  0  0  0  0
  186.9050  178.2460  147.3400 C   0  0  0  0  0  3  0  0  0  0  0  0
  189.2880  177.4810  146.0820 C   0  0  0  0  0  0  0  0  0  0  0  0
  188.1740  177.8590  145.2980 C   0  0  0  0  0  0  0  0  0  0  0  0
  189.1960  177.4910  147.4780 C   0  0  0  0  0  3  0  0  0  0  0  0
  1  8  2  0  0  0  0
  1 17  1  0  0  0  0
  2  7  1  6  0  0  0
  2 15  1  0  0  0  0
  3  2  1  0  0  0  0
  3 22  1  0  0  0  0
  4  5  2  0  0  0  0
  5 30  1  0  0  0  0
  6  9  1  0  0  0  0
  6 18  2  0  0  0  0
  7 19  1  0  0  0  0
  8 20  1  0  0  0  0
  9  3  2  0  0  0  0
 10 16  1  0  0  0  0
 11  1  1  0  0  0  0
 12 21  1  0  0  0  0
 13  6  1  0  0  0  0
 14 10  2  0  0  0  0
 15 10  1  0  0  0  0
 15 21  1  1  0  0  0
 16  5  1  0  0  0  0
 17  7  2  0  0  0  0
 18 23  1  0  0  0  0
 19 14  1  0  0  0  0
 20 19  2  0  0  0  0
 22 12  1  0  0  0  0
 23 22  2  0  0  0  0
 24 27  1  0  0  0  0
 25 28  1  0  0  0  0
 26 29  1  0  0  0  0
 28 24  2  0  0  0  0
 29 31  2  0  0  0  0
 30 25  2  0  0  0  0
 30 29  1  0  0  0  0
 31 24  1  0  0  0  0
M  END
>  <MODEL>
9

>  <REMARK>
 VINA RESULT:      -8.9      3.090      8.974
  Name = 
  1 active torsions:
  status: ('A' for Active; 'I' for Inactive)
    1  A    between atoms: C_9  and  C_22
                            x       y       z     vdW  Elec       q    Type
                         _______ _______ _______ _____ _____    ______ ____

>  <TORSDO>
F 1

$$$$
