=
 OpenBabel10262423273D

 34 39  0  0  1  0  0  0  0  0999 V2000
  183.2660  177.6270  138.5240 C   0  0  0  0  0  0  0  0  0  0  0  0
  185.7760  175.4910  136.9220 C   0  0  0  0  0  2  0  0  0  0  0  0
  183.3320  174.9960  137.4170 O   0  0  0  0  0  0  0  0  0  0  0  0
  180.8420  176.9190  138.9480 C   0  0  0  0  0  3  0  0  0  0  0  0
  180.2070  175.7500  138.6500 N   0  0  0  0  0  0  0  0  0  0  0  0
  182.2140  175.4850  137.9450 C   0  0  0  0  0  0  0  0  0  0  0  0
  182.1410  176.8010  138.5110 C   0  0  0  0  0  0  0  0  0  0  0  0
  181.0230  174.8860  138.0470 N   0  0  0  0  0  0  0  0  0  0  0  0
  186.5710  176.7050  137.2320 N   0  0  2  0  0  0  0  0  0  0  0  0
  184.4140  175.7820  137.4320 C   0  0  0  0  0  0  0  0  0  0  0  0
  185.6740  177.5830  137.8290 O   0  0  0  0  0  0  0  0  0  0  0  0
  184.4150  177.0480  137.9580 C   0  0  0  0  0  0  0  0  0  0  0  0
  188.4820  177.4610  135.8800 C   0  0  2  0  0  0  0  0  0  0  0  0
  189.0150  177.5060  134.5940 O   0  0  0  0  0  1  0  0  0  0  0  0
  189.5730  176.9340  137.2400 S   0  0  0  0  0  1  0  0  0  0  0  0
  186.9730  177.2950  135.9610 C   0  0  2  0  0  3  0  0  0  0  0  0
  187.6220  178.6570  136.2030 C   0  0  0  0  0  2  0  0  0  0  0  0
  183.2660  178.9910  139.1310 C   0  0  0  0  0  2  0  0  0  0  0  0
  184.1620  179.0270  140.3190 C   0  0  0  0  0  0  0  0  0  0  0  0
  185.2150  179.7180  140.2800 O   0  0  0  0  0  0  0  0  0  0  0  0
  183.7900  178.3030  141.5000 N   0  0  0  0  0  2  0  0  0  0  0  0
  184.5010  178.6880  145.1390 C   0  0  0  0  0  3  0  0  0  0  0  0
  185.8270  177.8190  142.8300 C   0  0  0  0  0  3  0  0  0  0  0  0
  187.8060  177.7740  146.5390 C   0  0  0  0  0  0  0  0  0  0  0  0
  186.4810  178.2240  146.4540 C   0  0  0  0  0  3  0  0  0  0  0  0
  185.8210  178.2400  145.2240 C   0  0  0  0  0  0  0  0  0  0  0  0
  187.8090  177.3540  144.1430 C   0  0  0  0  0  3  0  0  0  0  0  0
  186.4890  177.8020  144.0590 C   0  0  0  0  0  0  0  0  0  0  0  0
  188.4650  177.3400  145.3780 C   0  0  0  0  0  3  0  0  0  0  0  0
  184.5000  178.2680  142.7450 C   0  0  0  0  0  0  0  0  0  0  0  0
  183.8450  178.7010  143.9030 C   0  0  0  0  0  3  0  0  0  0  0  0
  188.4970  177.7590  147.8390 C   0  0  0  0  0  0  0  0  0  0  0  0
  187.8820  178.0720  148.8930 O   0  0  0  0  0  1  0  0  0  0  0  0
  189.8380  177.3980  147.9150 O   0  0  0  0  0  0  0  0  0  0  0  0
  1 18  1  0  0  0  0
  2 10  1  0  0  0  0
  3 10  1  0  0  0  0
  3  6  1  0  0  0  0
  5  4  2  0  0  0  0
  6  8  2  0  0  0  0
  6  7  1  0  0  0  0
  7  1  2  0  0  0  0
  7  4  1  0  0  0  0
  8  5  1  0  0  0  0
  9  2  1  6  0  0  0
  9 11  1  0  0  0  0
 10 12  2  0  0  0  0
 11 12  1  0  0  0  0
 12  1  1  0  0  0  0
 13 14  1  6  0  0  0
 13 16  1  0  0  0  0
 13 17  1  0  0  0  0
 13 15  1  0  0  0  0
 16 17  1  1  0  0  0
 16  9  1  0  0  0  0
 18 19  1  0  0  0  0
 19 21  1  0  0  0  0
 20 19  2  0  0  0  0
 21 30  1  0  0  0  0
 22 26  1  0  0  0  0
 23 28  1  0  0  0  0
 24 32  1  0  0  0  0
 25 24  1  0  0  0  0
 26 25  2  0  0  0  0
 27 29  1  0  0  0  0
 28 27  2  0  0  0  0
 28 26  1  0  0  0  0
 29 24  2  0  0  0  0
 30 23  2  0  0  0  0
 30 31  1  0  0  0  0
 31 22  2  0  0  0  0
 32 34  2  0  0  0  0
 32 33  1  0  0  0  0
M  END
>  <MODEL>
1

>  <REMARK>
 VINA RESULT:      -9.4      0.000      0.000
  Name = 
  5 active torsions:
  status: ('A' for Active; 'I' for Inactive)
    1  A    between atoms: C_1  and  C_9
    2  A    between atoms: C_7  and  C_11
    3  A    between atoms: C_8  and  C_9
    4  A    between atoms: N_18  and  C_30
    5  A    between atoms: N_23  and  C_25
                            x       y       z     vdW  Elec       q    Type
                         _______ _______ _______ _____ _____    ______ ____

>  <TORSDO>
F 5

$$$$
=
 OpenBabel10262423273D

 34 39  0  0  1  0  0  0  0  0999 V2000
  181.9880  178.1400  139.8230 C   0  0  0  0  0  0  0  0  0  0  0  0
  181.6100  174.6970  138.6280 C   0  0  0  0  0  2  0  0  0  0  0  0
  180.0930  176.0330  140.1700 O   0  0  0  0  0  0  0  0  0  0  0  0
  180.3380  179.2980  141.4030 C   0  0  0  0  0  3  0  0  0  0  0  0
  179.1850  178.8310  141.9600 N   0  0  0  0  0  0  0  0  0  0  0  0
  179.9260  177.2050  140.7750 C   0  0  0  0  0  0  0  0  0  0  0  0
  180.8560  178.2870  140.6270 C   0  0  0  0  0  0  0  0  0  0  0  0
  178.9310  177.5770  141.5860 N   0  0  0  0  0  0  0  0  0  0  0  0
  182.8950  175.0930  138.0000 N   0  0  2  0  0  0  0  0  0  0  0  0
  181.1790  175.8850  139.4040 C   0  0  0  0  0  0  0  0  0  0  0  0
  183.1000  176.4100  138.3920 O   0  0  0  0  0  0  0  0  0  0  0  0
  182.1080  176.8770  139.2190 C   0  0  0  0  0  0  0  0  0  0  0  0
  183.1930  173.8130  135.9200 C   0  0  2  0  0  0  0  0  0  0  0  0
  182.6060  173.4730  134.7030 O   0  0  0  0  0  1  0  0  0  0  0  0
  183.9260  172.4780  136.9190 S   0  0  0  0  0  1  0  0  0  0  0  0
  182.6870  175.0980  136.5560 C   0  0  2  0  0  3  0  0  0  0  0  0
  184.0350  175.0600  135.8380 C   0  0  0  0  0  2  0  0  0  0  0  0
  183.0110  179.2150  139.6570 C   0  0  0  0  0  2  0  0  0  0  0  0
  184.0510  179.1040  140.7170 C   0  0  0  0  0  0  0  0  0  0  0  0
  185.2180  179.5190  140.4850 O   0  0  0  0  0  0  0  0  0  0  0  0
  183.6940  178.5620  141.9950 N   0  0  0  0  0  2  0  0  0  0  0  0
  184.8530  178.7170  145.5350 C   0  0  0  0  0  3  0  0  0  0  0  0
  185.8520  177.9260  143.0400 C   0  0  0  0  0  3  0  0  0  0  0  0
  188.2580  177.6000  146.4730 C   0  0  0  0  0  0  0  0  0  0  0  0
  186.9550  178.1050  146.5730 C   0  0  0  0  0  3  0  0  0  0  0  0
  186.1520  178.2150  145.4350 C   0  0  0  0  0  0  0  0  0  0  0  0
  187.9550  177.3130  144.0760 C   0  0  0  0  0  3  0  0  0  0  0  0
  186.6560  177.8150  144.1770 C   0  0  0  0  0  0  0  0  0  0  0  0
  188.7520  177.2060  145.2190 C   0  0  0  0  0  3  0  0  0  0  0  0
  184.5460  178.4300  143.1410 C   0  0  0  0  0  0  0  0  0  0  0  0
  184.0550  178.8240  144.3910 C   0  0  0  0  0  3  0  0  0  0  0  0
  189.0990  177.4860  147.6760 C   0  0  0  0  0  0  0  0  0  0  0  0
  190.2350  176.9430  147.6120 O   0  0  0  0  0  0  0  0  0  0  0  0
  188.6480  177.9790  148.8950 O   0  0  0  0  0  1  0  0  0  0  0  0
  1  7  2  0  0  0  0
  2 10  1  0  0  0  0
  3  6  1  0  0  0  0
  4  5  2  0  0  0  0
  6  8  2  0  0  0  0
  7  6  1  0  0  0  0
  7  4  1  0  0  0  0
  8  5  1  0  0  0  0
  9 11  1  0  0  0  0
  9  2  1  1  0  0  0
 10  3  1  0  0  0  0
 11 12  1  0  0  0  0
 12 10  2  0  0  0  0
 12  1  1  0  0  0  0
 13 14  1  6  0  0  0
 13 16  1  0  0  0  0
 13 15  1  0  0  0  0
 16 17  1  6  0  0  0
 16  9  1  0  0  0  0
 17 13  1  0  0  0  0
 18  1  1  0  0  0  0
 18 19  1  0  0  0  0
 19 21  1  0  0  0  0
 20 19  2  0  0  0  0
 21 30  1  0  0  0  0
 23 30  2  0  0  0  0
 23 28  1  0  0  0  0
 24 25  1  0  0  0  0
 24 32  1  0  0  0  0
 26 22  1  0  0  0  0
 26 25  2  0  0  0  0
 27 28  2  0  0  0  0
 27 29  1  0  0  0  0
 28 26  1  0  0  0  0
 29 24  2  0  0  0  0
 30 31  1  0  0  0  0
 31 22  2  0  0  0  0
 32 34  1  0  0  0  0
 33 32  2  0  0  0  0
M  END
>  <MODEL>
2

>  <REMARK>
 VINA RESULT:      -9.4      2.610      3.371
  Name = 
  5 active torsions:
  status: ('A' for Active; 'I' for Inactive)
    1  A    between atoms: C_1  and  C_9
    2  A    between atoms: C_7  and  C_11
    3  A    between atoms: C_8  and  C_9
    4  A    between atoms: N_18  and  C_30
    5  A    between atoms: N_23  and  C_25
                            x       y       z     vdW  Elec       q    Type
                         _______ _______ _______ _____ _____    ______ ____

>  <TORSDO>
F 5

$$$$
=
 OpenBabel10262423273D

 34 39  0  0  1  0  0  0  0  0999 V2000
  188.2370  176.6050  137.4990 C   0  0  0  0  0  0  0  0  0  0  0  0
  184.5940  176.3320  137.2100 C   0  0  0  0  0  2  0  0  0  0  0  0
  186.3670  174.5430  136.8670 O   0  0  0  0  0  0  0  0  0  0  0  0
  189.8570  174.6650  137.0860 C   0  0  0  0  0  3  0  0  0  0  0  0
  189.6020  173.3710  136.7410 N   0  0  0  0  0  0  0  0  0  0  0  0
  187.6730  174.2970  136.8780 C   0  0  0  0  0  0  0  0  0  0  0  0
  188.6440  175.3060  137.1900 C   0  0  0  0  0  0  0  0  0  0  0  0
  188.2950  173.1420  136.6160 N   0  0  0  0  0  0  0  0  0  0  0  0
  184.7610  177.7670  137.5500 N   0  0  2  0  0  0  0  0  0  0  0  0
  185.9720  175.7870  137.1570 C   0  0  0  0  0  0  0  0  0  0  0  0
  186.1300  177.9470  137.6990 O   0  0  0  0  0  0  0  0  0  0  0  0
  186.8450  176.7990  137.4620 C   0  0  0  0  0  0  0  0  0  0  0  0
  182.6820  178.3460  138.7310 C   0  0  2  0  0  0  0  0  0  0  0  0
  181.8920  178.0610  139.8430 O   0  0  0  0  0  1  0  0  0  0  0  0
  181.8640  178.4630  137.1080 S   0  0  0  0  0  1  0  0  0  0  0  0
  184.1510  177.9750  138.8590 C   0  0  2  0  0  3  0  0  0  0  0  0
  183.6980  179.4280  138.9940 C   0  0  0  0  0  2  0  0  0  0  0  0
  189.1980  177.7080  137.7960 C   0  0  0  0  0  2  0  0  0  0  0  0
  189.1460  178.0620  139.2410 C   0  0  0  0  0  0  0  0  0  0  0  0
  188.6230  179.1530  139.5930 O   0  0  0  0  0  0  0  0  0  0  0  0
  189.6600  177.1370  140.2080 N   0  0  0  0  0  2  0  0  0  0  0  0
  190.8890  177.6540  143.6900 C   0  0  0  0  0  3  0  0  0  0  0  0
  188.4550  177.2160  142.3740 C   0  0  0  0  0  3  0  0  0  0  0  0
  188.5410  177.6610  146.5540 C   0  0  0  0  0  0  0  0  0  0  0  0
  189.7300  177.7310  145.8150 C   0  0  0  0  0  3  0  0  0  0  0  0
  189.7050  177.5840  144.4260 C   0  0  0  0  0  0  0  0  0  0  0  0
  187.2930  177.2920  144.4990 C   0  0  0  0  0  3  0  0  0  0  0  0
  188.4770  177.3630  143.7630 C   0  0  0  0  0  0  0  0  0  0  0  0
  187.3250  177.4410  145.8890 C   0  0  0  0  0  3  0  0  0  0  0  0
  189.6450  177.2870  141.6340 C   0  0  0  0  0  0  0  0  0  0  0  0
  190.8560  177.5060  142.2990 C   0  0  0  0  0  3  0  0  0  0  0  0
  188.5730  177.8180  148.0180 C   0  0  0  0  0  0  0  0  0  0  0  0
  187.5890  177.4630  148.7200 O   0  0  0  0  0  1  0  0  0  0  0  0
  189.6930  178.3590  148.6400 O   0  0  0  0  0  0  0  0  0  0  0  0
  1 18  1  0  0  0  0
  3  6  1  0  0  0  0
  3 10  1  0  0  0  0
  4  7  1  0  0  0  0
  5  4  2  0  0  0  0
  6  7  1  0  0  0  0
  7  1  2  0  0  0  0
  8  5  1  0  0  0  0
  8  6  2  0  0  0  0
  9  2  1  1  0  0  0
  9 11  1  0  0  0  0
  9 16  1  0  0  0  0
 10  2  1  0  0  0  0
 10 12  2  0  0  0  0
 12  1  1  0  0  0  0
 12 11  1  0  0  0  0
 13 15  1  6  0  0  0
 13 16  1  0  0  0  0
 13 17  1  0  0  0  0
 13 14  1  0  0  0  0
 16 17  1  6  0  0  0
 18 19  1  0  0  0  0
 19 20  2  0  0  0  0
 19 21  1  0  0  0  0
 21 30  1  0  0  0  0
 22 26  1  0  0  0  0
 23 28  1  0  0  0  0
 24 32  1  0  0  0  0
 25 24  2  0  0  0  0
 26 25  1  0  0  0  0
 27 29  2  0  0  0  0
 28 26  2  0  0  0  0
 28 27  1  0  0  0  0
 29 24  1  0  0  0  0
 30 31  1  0  0  0  0
 30 23  2  0  0  0  0
 31 22  2  0  0  0  0
 32 34  2  0  0  0  0
 32 33  1  0  0  0  0
M  END
>  <MODEL>
3

>  <REMARK>
 VINA RESULT:      -9.3      2.734      5.101
  Name = 
  5 active torsions:
  status: ('A' for Active; 'I' for Inactive)
    1  A    between atoms: C_1  and  C_9
    2  A    between atoms: C_7  and  C_11
    3  A    between atoms: C_8  and  C_9
    4  A    between atoms: N_18  and  C_30
    5  A    between atoms: N_23  and  C_25
                            x       y       z     vdW  Elec       q    Type
                         _______ _______ _______ _____ _____    ______ ____

>  <TORSDO>
F 5

$$$$
=
 OpenBabel10262423273D

 34 39  0  0  1  0  0  0  0  0999 V2000
  190.2100  176.1870  137.3140 C   0  0  0  0  0  0  0  0  0  0  0  0
  188.5350  173.0530  136.4200 C   0  0  0  0  0  2  0  0  0  0  0  0
  190.9760  173.4540  137.0100 O   0  0  0  0  0  0  0  0  0  0  0  0
  192.7060  176.3740  137.8570 C   0  0  0  0  0  3  0  0  0  0  0  0
  193.6680  175.4090  137.8940 N   0  0  0  0  0  0  0  0  0  0  0  0
  191.8690  174.3770  137.3530 C   0  0  0  0  0  0  0  0  0  0  0  0
  191.5240  175.7600  137.5140 C   0  0  0  0  0  0  0  0  0  0  0  0
  193.1730  174.2090  137.5930 N   0  0  0  0  0  0  0  0  0  0  0  0
  187.4210  174.0280  136.3170 N   0  0  2  0  0  0  0  0  0  0  0  0
  189.7170  173.8600  136.8110 C   0  0  0  0  0  0  0  0  0  0  0  0
  187.9770  175.2520  136.6670 O   0  0  0  0  0  0  0  0  0  0  0  0
  189.3190  175.1650  136.9470 C   0  0  0  0  0  0  0  0  0  0  0  0
  185.1950  173.0730  136.7430 C   0  0  2  0  0  0  0  0  0  0  0  0
  184.4550  172.2530  137.5930 O   0  0  0  0  0  1  0  0  0  0  0  0
  185.0280  172.8170  134.9480 S   0  0  0  0  0  1  0  0  0  0  0  0
  186.4490  173.6840  137.3480 C   0  0  2  0  0  3  0  0  0  0  0  0
  185.1830  174.5200  137.1670 C   0  0  0  0  0  2  0  0  0  0  0  0
  189.7950  177.6160  137.4310 C   0  0  0  0  0  2  0  0  0  0  0  0
  189.5930  177.9800  138.8610 C   0  0  0  0  0  0  0  0  0  0  0  0
  188.9510  179.0240  139.1500 O   0  0  0  0  0  0  0  0  0  0  0  0
  190.1030  177.1130  139.8830 N   0  0  0  0  0  2  0  0  0  0  0  0
  191.0100  177.6460  143.4590 C   0  0  0  0  0  3  0  0  0  0  0  0
  188.7030  177.2260  141.9260 C   0  0  0  0  0  3  0  0  0  0  0  0
  188.4050  177.7080  146.0930 C   0  0  0  0  0  0  0  0  0  0  0  0
  189.6580  177.7570  145.4670 C   0  0  0  0  0  3  0  0  0  0  0  0
  189.7610  177.5970  144.0830 C   0  0  0  0  0  0  0  0  0  0  0  0
  187.3490  177.3360  143.9330 C   0  0  0  0  0  3  0  0  0  0  0  0
  188.5980  177.3850  143.3100 C   0  0  0  0  0  0  0  0  0  0  0  0
  187.2540  177.4970  145.3180 C   0  0  0  0  0  3  0  0  0  0  0  0
  189.9570  177.2760  141.2990 C   0  0  0  0  0  0  0  0  0  0  0  0
  191.1050  177.4860  142.0730 C   0  0  0  0  0  3  0  0  0  0  0  0
  188.3030  177.8770  147.5520 C   0  0  0  0  0  0  0  0  0  0  0  0
  187.1770  178.0140  148.1010 O   0  0  0  0  0  0  0  0  0  0  0  0
  189.4500  177.8870  148.3380 O   0  0  0  0  0  1  0  0  0  0  0  0
  1 18  1  0  0  0  0
  1  7  2  0  0  0  0
  2 10  1  0  0  0  0
  3  6  1  0  0  0  0
  4  5  2  0  0  0  0
  6  7  1  0  0  0  0
  6  8  2  0  0  0  0
  7  4  1  0  0  0  0
  8  5  1  0  0  0  0
  9  2  1  1  0  0  0
  9 11  1  0  0  0  0
  9 16  1  0  0  0  0
 10 12  2  0  0  0  0
 10  3  1  0  0  0  0
 11 12  1  0  0  0  0
 12  1  1  0  0  0  0
 13 15  1  6  0  0  0
 13 17  1  0  0  0  0
 13 16  1  0  0  0  0
 13 14  1  0  0  0  0
 16 17  1  6  0  0  0
 18 19  1  0  0  0  0
 19 20  2  0  0  0  0
 19 21  1  0  0  0  0
 21 30  1  0  0  0  0
 22 26  1  0  0  0  0
 23 28  1  0  0  0  0
 24 32  1  0  0  0  0
 25 24  1  0  0  0  0
 26 25  2  0  0  0  0
 27 29  1  0  0  0  0
 28 27  2  0  0  0  0
 28 26  1  0  0  0  0
 29 24  2  0  0  0  0
 30 23  2  0  0  0  0
 30 31  1  0  0  0  0
 31 22  2  0  0  0  0
 32 33  2  0  0  0  0
 32 34  1  0  0  0  0
M  END
>  <MODEL>
4

>  <REMARK>
 VINA RESULT:      -9.1      3.640      6.323
  Name = 
  5 active torsions:
  status: ('A' for Active; 'I' for Inactive)
    1  A    between atoms: C_1  and  C_9
    2  A    between atoms: C_7  and  C_11
    3  A    between atoms: C_8  and  C_9
    4  A    between atoms: N_18  and  C_30
    5  A    between atoms: N_23  and  C_25
                            x       y       z     vdW  Elec       q    Type
                         _______ _______ _______ _____ _____    ______ ____

>  <TORSDO>
F 5

$$$$
=
 OpenBabel10262423273D

 34 39  0  0  1  0  0  0  0  0999 V2000
  189.4220  176.3280  137.2200 C   0  0  0  0  0  0  0  0  0  0  0  0
  191.8870  173.6480  136.8140 C   0  0  0  0  0  2  0  0  0  0  0  0
  189.3490  173.5010  136.8320 O   0  0  0  0  0  0  0  0  0  0  0  0
  186.8880  175.9560  137.2290 C   0  0  0  0  0  3  0  0  0  0  0  0
  186.1720  174.8050  137.0850 N   0  0  0  0  0  0  0  0  0  0  0  0
  188.2250  174.2010  136.9510 C   0  0  0  0  0  0  0  0  0  0  0  0
  188.2210  175.6220  137.1480 C   0  0  0  0  0  0  0  0  0  0  0  0
  186.9680  173.7490  136.9170 N   0  0  0  0  0  0  0  0  0  0  0  0
  192.7610  174.8330  136.9940 N   0  0  2  0  0  0  0  0  0  0  0  0
  190.5030  174.1720  136.9060 C   0  0  0  0  0  0  0  0  0  0  0  0
  191.8910  175.9070  137.1340 O   0  0  0  0  0  0  0  0  0  0  0  0
  190.5710  175.5290  137.0940 C   0  0  0  0  0  0  0  0  0  0  0  0
  194.9500  174.6250  135.8910 C   0  0  2  0  0  0  0  0  0  0  0  0
  195.5950  174.2690  134.7080 O   0  0  0  0  0  1  0  0  0  0  0  0
  195.6080  173.9680  137.4560 S   0  0  0  0  0  1  0  0  0  0  0  0
  193.4910  175.0270  135.7460 C   0  0  2  0  0  3  0  0  0  0  0  0
  194.5760  176.0850  135.9390 C   0  0  0  0  0  2  0  0  0  0  0  0
  189.4860  177.8010  137.4590 C   0  0  0  0  0  2  0  0  0  0  0  0
  189.3190  178.0950  138.9090 C   0  0  0  0  0  0  0  0  0  0  0  0
  188.5710  179.0440  139.2660 O   0  0  0  0  0  0  0  0  0  0  0  0
  189.9850  177.2690  139.8730 N   0  0  0  0  0  2  0  0  0  0  0  0
  191.0420  177.5820  143.4340 C   0  0  0  0  0  3  0  0  0  0  0  0
  188.6640  177.3600  141.9700 C   0  0  0  0  0  3  0  0  0  0  0  0
  188.5370  177.6580  146.1620 C   0  0  0  0  0  0  0  0  0  0  0  0
  189.7690  177.6690  145.4930 C   0  0  0  0  0  3  0  0  0  0  0  0
  189.8150  177.5700  144.1010 C   0  0  0  0  0  0  0  0  0  0  0  0
  187.3890  177.4470  144.0280 C   0  0  0  0  0  3  0  0  0  0  0  0
  188.6160  177.4590  143.3620 C   0  0  0  0  0  0  0  0  0  0  0  0
  187.3500  177.5470  145.4220 C   0  0  0  0  0  3  0  0  0  0  0  0
  189.8980  177.3720  141.3000 C   0  0  0  0  0  0  0  0  0  0  0  0
  191.0810  177.4830  142.0390 C   0  0  0  0  0  3  0  0  0  0  0  0
  188.4950  177.7630  147.6300 C   0  0  0  0  0  0  0  0  0  0  0  0
  187.4000  177.6600  148.2460 O   0  0  0  0  0  0  0  0  0  0  0  0
  189.6640  177.9760  148.3510 O   0  0  0  0  0  1  0  0  0  0  0  0
  1 18  1  0  0  0  0
  2 10  1  0  0  0  0
  3 10  1  0  0  0  0
  3  6  1  0  0  0  0
  5  4  2  0  0  0  0
  6  7  1  0  0  0  0
  7  1  2  0  0  0  0
  7  4  1  0  0  0  0
  8  6  2  0  0  0  0
  8  5  1  0  0  0  0
  9  2  1  6  0  0  0
  9 11  1  0  0  0  0
 10 12  2  0  0  0  0
 12 11  1  0  0  0  0
 12  1  1  0  0  0  0
 13 14  1  6  0  0  0
 13 17  1  0  0  0  0
 13 15  1  0  0  0  0
 16 13  1  0  0  0  0
 16 17  1  1  0  0  0
 16  9  1  0  0  0  0
 18 19  1  0  0  0  0
 19 20  2  0  0  0  0
 19 21  1  0  0  0  0
 21 30  1  0  0  0  0
 22 26  1  0  0  0  0
 23 28  1  0  0  0  0
 24 32  1  0  0  0  0
 25 24  1  0  0  0  0
 26 25  2  0  0  0  0
 27 29  1  0  0  0  0
 28 27  2  0  0  0  0
 28 26  1  0  0  0  0
 29 24  2  0  0  0  0
 30 23  2  0  0  0  0
 30 31  1  0  0  0  0
 31 22  2  0  0  0  0
 32 33  2  0  0  0  0
 32 34  1  0  0  0  0
M  END
>  <MODEL>
5

>  <REMARK>
 VINA RESULT:      -8.8      3.765      5.542
  Name = 
  5 active torsions:
  status: ('A' for Active; 'I' for Inactive)
    1  A    between atoms: C_1  and  C_9
    2  A    between atoms: C_7  and  C_11
    3  A    between atoms: C_8  and  C_9
    4  A    between atoms: N_18  and  C_30
    5  A    between atoms: N_23  and  C_25
                            x       y       z     vdW  Elec       q    Type
                         _______ _______ _______ _____ _____    ______ ____

>  <TORSDO>
F 5

$$$$
=
 OpenBabel10262423273D

 34 39  0  0  1  0  0  0  0  0999 V2000
  184.7640  177.4120  137.9820 C   0  0  0  0  0  0  0  0  0  0  0  0
  181.9890  175.0310  137.7370 C   0  0  0  0  0  2  0  0  0  0  0  0
  184.3280  174.8730  136.7520 O   0  0  0  0  0  0  0  0  0  0  0  0
  187.0520  177.0640  136.8860 C   0  0  0  0  0  3  0  0  0  0  0  0
  187.5130  176.0250  136.1330 N   0  0  0  0  0  0  0  0  0  0  0  0
  185.4980  175.4930  136.6380 C   0  0  0  0  0  0  0  0  0  0  0  0
  185.7560  176.7690  137.2390 C   0  0  0  0  0  0  0  0  0  0  0  0
  186.5870  175.0780  135.9810 N   0  0  0  0  0  0  0  0  0  0  0  0
  181.3780  176.1230  138.5350 N   0  0  2  0  0  0  0  0  0  0  0  0
  183.3730  175.4880  137.4580 C   0  0  0  0  0  0  0  0  0  0  0  0
  182.3860  177.0660  138.6920 O   0  0  0  0  0  0  0  0  0  0  0  0
  183.5500  176.7080  138.0580 C   0  0  0  0  0  0  0  0  0  0  0  0
  179.8490  174.6930  139.8270 C   0  0  2  0  0  0  0  0  0  0  0  0
  179.7710  173.7360  140.8380 O   0  0  0  0  0  1  0  0  0  0  0  0
  178.9330  174.3830  138.2840 S   0  0  0  0  0  1  0  0  0  0  0  0
  181.0840  175.5790  139.8560 C   0  0  2  0  0  3  0  0  0  0  0  0
  179.7340  176.1040  140.3440 C   0  0  0  0  0  2  0  0  0  0  0  0
  184.9570  178.7560  138.6020 C   0  0  0  0  0  2  0  0  0  0  0  0
  185.6400  178.6230  139.9190 C   0  0  0  0  0  0  0  0  0  0  0  0
  186.8970  178.6710  139.9720 O   0  0  0  0  0  0  0  0  0  0  0  0
  184.8490  178.4800  141.1060 N   0  0  0  0  0  2  0  0  0  0  0  0
  184.9220  178.7400  144.8250 C   0  0  0  0  0  3  0  0  0  0  0  0
  186.6170  177.9160  142.7520 C   0  0  0  0  0  3  0  0  0  0  0  0
  187.9220  177.7210  146.7440 C   0  0  0  0  0  0  0  0  0  0  0  0
  186.6380  178.1980  146.4470 C   0  0  0  0  0  3  0  0  0  0  0  0
  186.2010  178.2650  145.1220 C   0  0  0  0  0  0  0  0  0  0  0  0
  188.3350  177.3740  144.3720 C   0  0  0  0  0  3  0  0  0  0  0  0
  187.0560  177.8490  144.0760 C   0  0  0  0  0  0  0  0  0  0  0  0
  188.7660  177.3100  145.7010 C   0  0  0  0  0  3  0  0  0  0  0  0
  185.3310  178.3940  142.4540 C   0  0  0  0  0  0  0  0  0  0  0  0
  184.4910  178.8030  143.4950 C   0  0  0  0  0  3  0  0  0  0  0  0
  188.3760  177.6520  148.1430 C   0  0  0  0  0  0  0  0  0  0  0  0
  187.5660  177.3650  149.0650 O   0  0  0  0  0  1  0  0  0  0  0  0
  189.7070  177.9040  148.4600 O   0  0  0  0  0  0  0  0  0  0  0  0
  1 12  1  0  0  0  0
  1 18  1  0  0  0  0
  3 10  1  0  0  0  0
  4  7  1  0  0  0  0
  5  4  2  0  0  0  0
  6  3  1  0  0  0  0
  6  7  1  0  0  0  0
  7  1  2  0  0  0  0
  8  5  1  0  0  0  0
  8  6  2  0  0  0  0
  9  2  1  6  0  0  0
  9 11  1  0  0  0  0
  9 16  1  0  0  0  0
 10  2  1  0  0  0  0
 10 12  2  0  0  0  0
 12 11  1  0  0  0  0
 13 15  1  6  0  0  0
 13 16  1  0  0  0  0
 13 17  1  0  0  0  0
 13 14  1  0  0  0  0
 16 17  1  1  0  0  0
 18 19  1  0  0  0  0
 19 20  2  0  0  0  0
 19 21  1  0  0  0  0
 21 30  1  0  0  0  0
 22 26  1  0  0  0  0
 23 28  1  0  0  0  0
 24 32  1  0  0  0  0
 25 24  1  0  0  0  0
 26 25  2  0  0  0  0
 27 29  1  0  0  0  0
 28 27  2  0  0  0  0
 28 26  1  0  0  0  0
 29 24  2  0  0  0  0
 30 23  2  0  0  0  0
 30 31  1  0  0  0  0
 31 22  2  0  0  0  0
 32 34  2  0  0  0  0
 32 33  1  0  0  0  0
M  END
>  <MODEL>
6

>  <REMARK>
 VINA RESULT:      -8.6      2.426      4.662
  Name = 
  5 active torsions:
  status: ('A' for Active; 'I' for Inactive)
    1  A    between atoms: C_1  and  C_9
    2  A    between atoms: C_7  and  C_11
    3  A    between atoms: C_8  and  C_9
    4  A    between atoms: N_18  and  C_30
    5  A    between atoms: N_23  and  C_25
                            x       y       z     vdW  Elec       q    Type
                         _______ _______ _______ _____ _____    ______ ____

>  <TORSDO>
F 5

$$$$
=
 OpenBabel10262423273D

 34 39  0  0  1  0  0  0  0  0999 V2000
  185.8220  177.2310  137.1400 C   0  0  0  0  0  0  0  0  0  0  0  0
  182.2380  176.7820  137.7580 C   0  0  0  0  0  2  0  0  0  0  0  0
  183.8260  175.3260  136.4080 O   0  0  0  0  0  0  0  0  0  0  0  0
  187.2420  175.6420  135.7210 C   0  0  0  0  0  3  0  0  0  0  0  0
  186.8870  174.5000  135.0650 N   0  0  0  0  0  0  0  0  0  0  0  0
  185.0820  175.1890  135.9940 C   0  0  0  0  0  0  0  0  0  0  0  0
  186.1130  176.1260  136.3400 C   0  0  0  0  0  0  0  0  0  0  0  0
  185.5930  174.2220  135.2260 N   0  0  0  0  0  0  0  0  0  0  0  0
  182.5090  178.0520  138.4770 N   0  0  2  0  0  0  0  0  0  0  0  0
  183.5410  176.3870  137.1710 C   0  0  0  0  0  0  0  0  0  0  0  0
  183.8680  178.2820  138.3060 O   0  0  0  0  0  0  0  0  0  0  0  0
  184.4770  177.3200  137.5370 C   0  0  0  0  0  0  0  0  0  0  0  0
  180.8380  178.0560  140.2820 C   0  0  2  0  0  0  0  0  0  0  0  0
  180.3900  177.3800  141.4150 O   0  0  0  0  0  1  0  0  0  0  0  0
  179.6010  178.5800  139.0530 S   0  0  0  0  0  1  0  0  0  0  0  0
  182.2860  177.8010  139.8960 C   0  0  2  0  0  3  0  0  0  0  0  0
  181.8820  179.0980  140.5950 C   0  0  0  0  0  2  0  0  0  0  0  0
  186.8400  178.2600  137.5050 C   0  0  0  0  0  2  0  0  0  0  0  0
  187.4980  177.9020  138.7920 C   0  0  0  0  0  0  0  0  0  0  0  0
  188.5160  177.1600  138.7810 O   0  0  0  0  0  0  0  0  0  0  0  0
  186.9800  178.4390  140.0160 N   0  0  0  0  0  2  0  0  0  0  0  0
  189.4690  178.0050  142.7590 C   0  0  0  0  0  3  0  0  0  0  0  0
  186.6850  178.0990  142.4550 C   0  0  0  0  0  3  0  0  0  0  0  0
  188.3710  177.5240  146.2630 C   0  0  0  0  0  0  0  0  0  0  0  0
  189.2000  177.6690  145.1420 C   0  0  0  0  0  3  0  0  0  0  0  0
  188.6430  177.8600  143.8760 C   0  0  0  0  0  0  0  0  0  0  0  0
  186.4140  177.7620  144.8390 C   0  0  0  0  0  3  0  0  0  0  0  0
  187.2400  177.9070  143.7230 C   0  0  0  0  0  0  0  0  0  0  0  0
  186.9780  177.5710  146.1040 C   0  0  0  0  0  3  0  0  0  0  0  0
  187.5140  178.2450  141.3320 C   0  0  0  0  0  0  0  0  0  0  0  0
  188.9040  178.1970  141.4930 C   0  0  0  0  0  3  0  0  0  0  0  0
  188.9640  177.3230  147.5960 C   0  0  0  0  0  0  0  0  0  0  0  0
  190.1510  176.9160  147.7130 O   0  0  0  0  0  0  0  0  0  0  0  0
  188.2170  177.5810  148.7410 O   0  0  0  0  0  1  0  0  0  0  0  0
  1 18  1  0  0  0  0
  1 12  1  0  0  0  0
  3 10  1  0  0  0  0
  4  7  1  0  0  0  0
  5  8  1  0  0  0  0
  5  4  2  0  0  0  0
  6  7  1  0  0  0  0
  6  3  1  0  0  0  0
  7  1  2  0  0  0  0
  8  6  2  0  0  0  0
  9  2  1  6  0  0  0
  9 16  1  0  0  0  0
 10 12  2  0  0  0  0
 10  2  1  0  0  0  0
 11  9  1  0  0  0  0
 12 11  1  0  0  0  0
 13 15  1  6  0  0  0
 13 17  1  0  0  0  0
 13 14  1  0  0  0  0
 16 13  1  0  0  0  0
 16 17  1  1  0  0  0
 18 19  1  0  0  0  0
 19 21  1  0  0  0  0
 20 19  2  0  0  0  0
 21 30  1  0  0  0  0
 22 26  1  0  0  0  0
 23 28  1  0  0  0  0
 24 32  1  0  0  0  0
 25 24  2  0  0  0  0
 26 25  1  0  0  0  0
 27 29  2  0  0  0  0
 28 26  2  0  0  0  0
 28 27  1  0  0  0  0
 29 24  1  0  0  0  0
 30 31  1  0  0  0  0
 30 23  2  0  0  0  0
 31 22  2  0  0  0  0
 32 33  2  0  0  0  0
 32 34  1  0  0  0  0
M  END
>  <MODEL>
7

>  <REMARK>
 VINA RESULT:      -8.3      2.699      4.833
  Name = 
  5 active torsions:
  status: ('A' for Active; 'I' for Inactive)
    1  A    between atoms: C_1  and  C_9
    2  A    between atoms: C_7  and  C_11
    3  A    between atoms: C_8  and  C_9
    4  A    between atoms: N_18  and  C_30
    5  A    between atoms: N_23  and  C_25
                            x       y       z     vdW  Elec       q    Type
                         _______ _______ _______ _____ _____    ______ ____

>  <TORSDO>
F 5

$$$$
=
 OpenBabel10262423273D

 34 39  0  0  1  0  0  0  0  0999 V2000
  179.6880  179.6850  139.7730 C   0  0  0  0  0  0  0  0  0  0  0  0
  181.4490  178.3030  136.8730 C   0  0  0  0  0  2  0  0  0  0  0  0
  180.6330  180.6780  137.2690 O   0  0  0  0  0  0  0  0  0  0  0  0
  178.9310  182.1240  139.9620 C   0  0  0  0  0  3  0  0  0  0  0  0
  179.0780  183.1570  139.0840 N   0  0  0  0  0  0  0  0  0  0  0  0
  180.0040  181.4770  138.1250 C   0  0  0  0  0  0  0  0  0  0  0  0
  179.5140  181.0160  139.3920 C   0  0  0  0  0  0  0  0  0  0  0  0
  179.7220  182.7760  137.9800 N   0  0  0  0  0  0  0  0  0  0  0  0
  181.3120  177.1050  137.7380 N   0  0  2  0  0  0  0  0  0  0  0  0
  180.7970  179.4000  137.6280 C   0  0  0  0  0  0  0  0  0  0  0  0
  180.6660  177.5570  138.8820 O   0  0  0  0  0  0  0  0  0  0  0  0
  180.3530  178.8930  138.8220 C   0  0  0  0  0  0  0  0  0  0  0  0
  182.9120  175.2380  137.8040 C   0  0  2  0  0  0  0  0  0  0  0  0
  184.2500  174.8830  137.6400 O   0  0  0  0  0  1  0  0  0  0  0  0
  181.6480  174.2070  136.9950 S   0  0  0  0  0  1  0  0  0  0  0  0
  182.6570  176.7000  138.1320 C   0  0  2  0  0  3  0  0  0  0  0  0
  182.5780  175.6310  139.2200 C   0  0  0  0  0  2  0  0  0  0  0  0
  179.1690  179.1350  141.0610 C   0  0  0  0  0  2  0  0  0  0  0  0
  180.2960  178.6560  141.9080 C   0  0  0  0  0  0  0  0  0  0  0  0
  180.1170  177.6790  142.6820 O   0  0  0  0  0  0  0  0  0  0  0  0
  181.5750  179.2950  141.7990 N   0  0  0  0  0  2  0  0  0  0  0  0
  185.0470  178.0720  142.3900 C   0  0  0  0  0  3  0  0  0  0  0  0
  182.8950  179.0620  143.8860 C   0  0  0  0  0  3  0  0  0  0  0  0
  186.4690  177.9610  145.8090 C   0  0  0  0  0  0  0  0  0  0  0  0
  186.3500  177.8340  144.4180 C   0  0  0  0  0  3  0  0  0  0  0  0
  185.1650  178.1980  143.7760 C   0  0  0  0  0  0  0  0  0  0  0  0
  184.1970  178.8240  145.9160 C   0  0  0  0  0  3  0  0  0  0  0  0
  184.0800  178.6980  144.5300 C   0  0  0  0  0  0  0  0  0  0  0  0
  185.3860  178.4580  146.5520 C   0  0  0  0  0  3  0  0  0  0  0  0
  182.7770  178.9350  142.4930 C   0  0  0  0  0  0  0  0  0  0  0  0
  183.8560  178.4390  141.7540 C   0  0  0  0  0  3  0  0  0  0  0  0
  187.7210  177.5760  146.4800 C   0  0  0  0  0  0  0  0  0  0  0  0
  187.7830  177.5300  147.7380 O   0  0  0  0  0  1  0  0  0  0  0  0
  188.8480  177.2580  145.7310 O   0  0  0  0  0  0  0  0  0  0  0  0
  1 18  1  0  0  0  0
  2 10  1  0  0  0  0
  3 10  1  0  0  0  0
  3  6  1  0  0  0  0
  5  4  2  0  0  0  0
  6  7  1  0  0  0  0
  7  1  2  0  0  0  0
  7  4  1  0  0  0  0
  8  6  2  0  0  0  0
  8  5  1  0  0  0  0
  9  2  1  6  0  0  0
  9 16  1  0  0  0  0
  9 11  1  0  0  0  0
 10 12  2  0  0  0  0
 12 11  1  0  0  0  0
 12  1  1  0  0  0  0
 13 15  1  6  0  0  0
 13 16  1  0  0  0  0
 13 17  1  0  0  0  0
 14 13  1  0  0  0  0
 16 17  1  1  0  0  0
 18 19  1  0  0  0  0
 19 20  2  0  0  0  0
 21 19  1  0  0  0  0
 21 30  1  0  0  0  0
 22 26  1  0  0  0  0
 23 28  1  0  0  0  0
 24 32  1  0  0  0  0
 24 29  1  0  0  0  0
 25 24  2  0  0  0  0
 26 25  1  0  0  0  0
 26 28  2  0  0  0  0
 27 29  2  0  0  0  0
 28 27  1  0  0  0  0
 30 23  2  0  0  0  0
 31 22  2  0  0  0  0
 31 30  1  0  0  0  0
 32 33  1  0  0  0  0
 34 32  2  0  0  0  0
M  END
>  <MODEL>
8

>  <REMARK>
 VINA RESULT:      -8.2      3.438      4.804
  Name = 
  5 active torsions:
  status: ('A' for Active; 'I' for Inactive)
    1  A    between atoms: C_1  and  C_9
    2  A    between atoms: C_7  and  C_11
    3  A    between atoms: C_8  and  C_9
    4  A    between atoms: N_18  and  C_30
    5  A    between atoms: N_23  and  C_25
                            x       y       z     vdW  Elec       q    Type
                         _______ _______ _______ _____ _____    ______ ____

>  <TORSDO>
F 5

$$$$
=
 OpenBabel10262423273D

 34 39  0  0  1  0  0  0  0  0999 V2000
  180.8600  179.6110  140.0390 C   0  0  0  0  0  0  0  0  0  0  0  0
  179.1350  182.5770  138.7540 C   0  0  0  0  0  2  0  0  0  0  0  0
  178.9650  181.4920  141.0470 O   0  0  0  0  0  0  0  0  0  0  0  0
  180.5250  178.6660  142.3950 C   0  0  0  0  0  3  0  0  0  0  0  0
  179.7310  179.1100  143.4110 N   0  0  0  0  0  0  0  0  0  0  0  0
  179.3980  180.4900  141.8050 C   0  0  0  0  0  0  0  0  0  0  0  0
  180.3480  179.5240  141.3340 C   0  0  0  0  0  0  0  0  0  0  0  0
  179.0540  180.2040  143.0650 N   0  0  0  0  0  0  0  0  0  0  0  0
  179.9330  182.1610  137.5750 N   0  0  2  0  0  0  0  0  0  0  0  0
  179.4470  181.5760  139.8030 C   0  0  0  0  0  0  0  0  0  0  0  0
  180.6410  181.0410  137.9930 O   0  0  0  0  0  0  0  0  0  0  0  0
  180.3560  180.6870  139.2890 C   0  0  0  0  0  0  0  0  0  0  0  0
  180.4850  184.0790  136.1370 C   0  0  2  0  0  0  0  0  0  0  0  0
  181.0100  185.3700  136.1190 O   0  0  0  0  0  1  0  0  0  0  0  0
  178.9310  183.7750  135.2380 S   0  0  0  0  0  1  0  0  0  0  0  0
  180.9060  183.2170  137.3160 C   0  0  2  0  0  3  0  0  0  0  0  0
  181.5350  183.0160  135.9380 C   0  0  0  0  0  2  0  0  0  0  0  0
  181.8220  178.6170  139.4770 C   0  0  0  0  0  2  0  0  0  0  0  0
  182.7290  178.1170  140.5470 C   0  0  0  0  0  0  0  0  0  0  0  0
  182.8620  176.8750  140.7150 O   0  0  0  0  0  0  0  0  0  0  0  0
  183.4620  179.0590  141.3410 N   0  0  0  0  0  2  0  0  0  0  0  0
  186.6470  178.0080  142.9710 C   0  0  0  0  0  3  0  0  0  0  0  0
  184.0980  178.8870  143.7330 C   0  0  0  0  0  3  0  0  0  0  0  0
  186.9690  177.9620  146.6610 C   0  0  0  0  0  0  0  0  0  0  0  0
  187.2840  177.8320  145.3020 C   0  0  0  0  0  3  0  0  0  0  0  0
  186.3330  178.1380  144.3260 C   0  0  0  0  0  0  0  0  0  0  0  0
  184.7330  178.7110  146.0640 C   0  0  0  0  0  3  0  0  0  0  0  0
  185.0480  178.5810  144.7100 C   0  0  0  0  0  0  0  0  0  0  0  0
  185.6910  178.4030  147.0350 C   0  0  0  0  0  3  0  0  0  0  0  0
  184.4130  178.7580  142.3710 C   0  0  0  0  0  0  0  0  0  0  0  0
  185.6880  178.3170  142.0000 C   0  0  0  0  0  3  0  0  0  0  0  0
  187.9770  177.6380  147.6850 C   0  0  0  0  0  0  0  0  0  0  0  0
  187.8910  178.1290  148.8430 O   0  0  0  0  0  1  0  0  0  0  0  0
  189.0330  176.7860  147.3840 O   0  0  0  0  0  0  0  0  0  0  0  0
  1  7  2  0  0  0  0
  2 10  1  0  0  0  0
  3  6  1  0  0  0  0
  4  5  2  0  0  0  0
  6  8  2  0  0  0  0
  7  6  1  0  0  0  0
  7  4  1  0  0  0  0
  8  5  1  0  0  0  0
  9 11  1  0  0  0  0
  9  2  1  1  0  0  0
 10  3  1  0  0  0  0
 11 12  1  0  0  0  0
 12 10  2  0  0  0  0
 12  1  1  0  0  0  0
 13 15  1  6  0  0  0
 13 16  1  0  0  0  0
 14 13  1  0  0  0  0
 16 17  1  6  0  0  0
 16  9  1  0  0  0  0
 17 13  1  0  0  0  0
 18  1  1  0  0  0  0
 18 19  1  0  0  0  0
 19 20  2  0  0  0  0
 19 21  1  0  0  0  0
 21 30  1  0  0  0  0
 22 26  1  0  0  0  0
 23 28  1  0  0  0  0
 24 29  1  0  0  0  0
 24 32  1  0  0  0  0
 25 24  2  0  0  0  0
 26 28  2  0  0  0  0
 26 25  1  0  0  0  0
 27 29  2  0  0  0  0
 28 27  1  0  0  0  0
 30 23  2  0  0  0  0
 31 30  1  0  0  0  0
 31 22  2  0  0  0  0
 32 33  1  0  0  0  0
 34 32  2  0  0  0  0
M  END
>  <MODEL>
9

>  <REMARK>
 VINA RESULT:      -8.1      4.337      5.869
  Name = 
  5 active torsions:
  status: ('A' for Active; 'I' for Inactive)
    1  A    between atoms: C_1  and  C_9
    2  A    between atoms: C_7  and  C_11
    3  A    between atoms: C_8  and  C_9
    4  A    between atoms: N_18  and  C_30
    5  A    between atoms: N_23  and  C_25
                            x       y       z     vdW  Elec       q    Type
                         _______ _______ _______ _____ _____    ______ ____

>  <TORSDO>
F 5

$$$$
