=
 OpenBabel10262419273D

 31 36  0  0  1  0  0  0  0  0999 V2000
  183.5380  178.5140  143.5440 C   0  0  0  0  0  0  0  0  0  0  0  0
  187.1850  177.7320  144.0220 C   0  0  0  0  0  0  0  0  0  0  0  0
  187.3670  177.5800  145.4270 C   0  0  0  0  0  0  0  0  0  0  0  0
  186.5070  178.9140  147.3260 C   0  0  0  0  0  3  0  0  0  0  0  0
  185.8950  178.1770  143.4060 C   0  0  0  0  0  0  0  0  0  0  0  0
  183.4950  178.9580  142.2230 C   0  0  0  0  0  3  0  0  0  0  0  0
  186.2330  177.7930  146.3820 C   0  0  0  0  0  2  0  0  0  0  0  0
  188.0920  177.5530  141.6520 C   0  0  2  0  0  3  0  0  0  0  0  0
  182.4000  178.4600  144.2760 F   0  0  0  0  0  0  0  0  0  0  0  0
  189.6430  176.8200  145.0440 C   0  0  0  0  0  3  0  0  0  0  0  0
  187.4760  178.8600  148.2360 C   0  0  0  0  0  3  0  0  0  0  0  0
  187.1480  178.6950  141.2820 C   0  0  0  0  0  2  0  0  0  0  0  0
  188.2710  177.4560  143.1530 C   0  0  0  0  0  0  0  0  0  0  0  0
  184.7210  178.1370  144.0990 N   0  0  0  0  0  0  0  0  0  0  0  0
  188.4370  177.7490  148.3690 C   0  0  0  0  0  3  0  0  0  0  0  0
  185.8780  178.6020  142.0630 C   0  0  0  0  0  0  0  0  0  0  0  0
  184.6760  179.0030  141.4820 C   0  0  0  0  0  3  0  0  0  0  0  0
  189.4720  176.9670  143.6740 C   0  0  0  0  0  3  0  0  0  0  0  0
  188.6170  177.1470  145.9300 C   0  0  0  0  0  0  0  0  0  0  0  0
  188.9230  177.0040  147.3690 C   0  0  0  0  0  3  0  0  0  0  0  0
  189.3710  177.7470  140.9790 N   0  0  0  0  0  2  0  0  0  0  0  0
  193.1740  176.4020  137.7160 C   0  0  0  0  0  0  0  0  0  0  0  0
  192.1210  177.2030  139.8070 C   0  0  0  0  0  3  0  0  0  0  0  0
  189.4150  176.4890  137.4690 C   0  0  0  0  0  3  0  0  0  0  0  0
  188.5720  176.9440  138.6320 C   0  0  0  0  0  2  0  0  0  0  0  0
  194.2540  176.1390  137.1270 O   0  0  0  0  0  0  0  0  0  0  0  0
  189.6190  177.2670  139.6550 C   0  0  0  0  0  0  0  0  0  0  0  0
  193.2260  176.9020  139.1150 C   0  0  0  0  0  3  0  0  0  0  0  0
  190.6910  176.5560  137.8170 C   0  0  0  0  0  0  0  0  0  0  0  0
  190.8190  177.0340  139.1650 C   0  0  0  0  0  0  0  0  0  0  0  0
  191.8720  176.1980  136.9700 C   0  0  0  0  0  2  0  0  0  0  0  0
  1 14  1  0  0  0  0
  1  9  1  0  0  0  0
  2  3  1  0  0  0  0
  3 19  2  0  0  0  0
  3  7  1  0  0  0  0
  4 11  2  0  0  0  0
  5  2  1  0  0  0  0
  5 14  2  0  0  0  0
  6  1  2  0  0  0  0
  7  4  1  0  0  0  0
  8 21  1  6  0  0  0
  8 13  1  0  0  0  0
 10 19  1  0  0  0  0
 11 15  1  0  0  0  0
 12  8  1  0  0  0  0
 12 16  1  0  0  0  0
 13 18  1  0  0  0  0
 13  2  2  0  0  0  0
 16  5  1  0  0  0  0
 17 16  2  0  0  0  0
 17  6  1  0  0  0  0
 18 10  2  0  0  0  0
 19 20  1  0  0  0  0
 20 15  2  0  0  0  0
 22 28  1  0  0  0  0
 24 29  2  0  0  0  0
 24 25  1  0  0  0  0
 25 27  1  0  0  0  0
 26 22  2  0  0  0  0
 27 21  1  0  0  0  0
 28 23  2  0  0  0  0
 29 30  1  0  0  0  0
 30 27  2  0  0  0  0
 30 23  1  0  0  0  0
 31 22  1  0  0  0  0
 31 29  1  0  0  0  0
M  END
>  <MODEL>
1

>  <REMARK>
 VINA RESULT:     -11.7      0.000      0.000
  Name = 
  2 active torsions:
  status: ('A' for Active; 'I' for Inactive)
    1  A    between atoms: C_9  and  N_23
    2  A    between atoms: C_15  and  N_23
                            x       y       z     vdW  Elec       q    Type
                         _______ _______ _______ _____ _____    ______ ____

>  <TORSDO>
F 2

$$$$
=
 OpenBabel10262419273D

 31 36  0  0  1  0  0  0  0  0999 V2000
  183.7920  178.3930  143.6070 C   0  0  0  0  0  0  0  0  0  0  0  0
  187.4790  177.7400  143.9470 C   0  0  0  0  0  0  0  0  0  0  0  0
  187.7040  177.5080  145.3350 C   0  0  0  0  0  0  0  0  0  0  0  0
  186.8400  178.6810  147.3350 C   0  0  0  0  0  3  0  0  0  0  0  0
  186.1560  178.1670  143.3920 C   0  0  0  0  0  0  0  0  0  0  0  0
  183.6960  178.9160  142.3180 C   0  0  0  0  0  3  0  0  0  0  0  0
  186.5880  177.6110  146.3280 C   0  0  0  0  0  2  0  0  0  0  0  0
  188.3300  177.7490  141.5500 C   0  0  2  0  0  3  0  0  0  0  0  0
  182.6760  178.2430  144.3610 F   0  0  0  0  0  0  0  0  0  0  0  0
  189.9990  176.8730  144.8510 C   0  0  0  0  0  3  0  0  0  0  0  0
  187.8350  178.6120  148.2170 C   0  0  0  0  0  3  0  0  0  0  0  0
  187.3300  178.8710  141.2760 C   0  0  0  0  0  2  0  0  0  0  0  0
  188.5520  177.5670  143.0370 C   0  0  0  0  0  0  0  0  0  0  0  0
  185.0030  178.0330  144.1080 N   0  0  0  0  0  0  0  0  0  0  0  0
  188.8440  177.5370  148.2560 C   0  0  0  0  0  3  0  0  0  0  0  0
  186.0860  178.6740  142.0800 C   0  0  0  0  0  0  0  0  0  0  0  0
  184.8530  179.0590  141.5540 C   0  0  0  0  0  3  0  0  0  0  0  0
  189.7860  177.0980  143.4970 C   0  0  0  0  0  3  0  0  0  0  0  0
  188.9840  177.0990  145.7790 C   0  0  0  0  0  0  0  0  0  0  0  0
  189.3340  176.8780  147.1990 C   0  0  0  0  0  3  0  0  0  0  0  0
  189.5820  178.0400  140.8600 N   0  0  0  0  0  2  0  0  0  0  0  0
  188.6180  177.6210  135.7800 C   0  0  0  0  0  0  0  0  0  0  0  0
  188.3800  178.4480  138.1000 C   0  0  0  0  0  3  0  0  0  0  0  0
  191.0390  175.9520  138.1370 C   0  0  0  0  0  3  0  0  0  0  0  0
  191.0660  176.3090  139.6000 C   0  0  0  0  0  2  0  0  0  0  0  0
  188.2030  177.7050  134.5950 O   0  0  0  0  0  0  0  0  0  0  0  0
  189.9840  177.3440  139.6780 C   0  0  0  0  0  0  0  0  0  0  0  0
  187.9930  178.4800  136.8190 C   0  0  0  0  0  3  0  0  0  0  0  0
  190.1040  176.6760  137.5400 C   0  0  0  0  0  0  0  0  0  0  0  0
  189.4530  177.5360  138.4890 C   0  0  0  0  0  0  0  0  0  0  0  0
  189.7350  176.6460  136.0900 C   0  0  0  0  0  2  0  0  0  0  0  0
  1 14  1  0  0  0  0
  1  9  1  0  0  0  0
  2  3  1  0  0  0  0
  3 19  2  0  0  0  0
  3  7  1  0  0  0  0
  4 11  2  0  0  0  0
  5  2  1  0  0  0  0
  5 14  2  0  0  0  0
  6  1  2  0  0  0  0
  7  4  1  0  0  0  0
  8 21  1  6  0  0  0
  8 13  1  0  0  0  0
 10 19  1  0  0  0  0
 11 15  1  0  0  0  0
 12  8  1  0  0  0  0
 12 16  1  0  0  0  0
 13 18  1  0  0  0  0
 13  2  2  0  0  0  0
 16  5  1  0  0  0  0
 17 16  2  0  0  0  0
 17  6  1  0  0  0  0
 18 10  2  0  0  0  0
 19 20  1  0  0  0  0
 20 15  2  0  0  0  0
 22 31  1  0  0  0  0
 22 28  1  0  0  0  0
 23 30  1  0  0  0  0
 24 25  1  0  0  0  0
 25 27  1  0  0  0  0
 26 22  2  0  0  0  0
 27 21  1  0  0  0  0
 28 23  2  0  0  0  0
 29 24  2  0  0  0  0
 29 30  1  0  0  0  0
 30 27  2  0  0  0  0
 31 29  1  0  0  0  0
M  END
>  <MODEL>
2

>  <REMARK>
 VINA RESULT:     -11.4      1.465      2.180
  Name = 
  2 active torsions:
  status: ('A' for Active; 'I' for Inactive)
    1  A    between atoms: C_9  and  N_23
    2  A    between atoms: C_15  and  N_23
                            x       y       z     vdW  Elec       q    Type
                         _______ _______ _______ _____ _____    ______ ____

>  <TORSDO>
F 2

$$$$
=
 OpenBabel10262419273D

 31 36  0  0  1  0  0  0  0  0999 V2000
  184.7340  178.2100  145.8320 C   0  0  0  0  0  0  0  0  0  0  0  0
  188.1330  177.5610  144.3590 C   0  0  0  0  0  0  0  0  0  0  0  0
  188.9580  177.1650  145.4500 C   0  0  0  0  0  0  0  0  0  0  0  0
  189.1630  178.0780  147.7410 C   0  0  0  0  0  3  0  0  0  0  0  0
  186.7230  178.0370  144.5280 C   0  0  0  0  0  0  0  0  0  0  0  0
  184.0820  178.8840  144.8010 C   0  0  0  0  0  3  0  0  0  0  0  0
  188.4270  177.1350  146.8510 C   0  0  0  0  0  2  0  0  0  0  0  0
  187.7890  177.8700  141.8570 C   0  0  2  0  0  3  0  0  0  0  0  0
  184.0830  177.9580  146.9930 F   0  0  0  0  0  0  0  0  0  0  0  0
  190.7430  176.6180  143.8960 C   0  0  0  0  0  3  0  0  0  0  0  0
  190.4460  177.9130  148.0520 C   0  0  0  0  0  3  0  0  0  0  0  0
  186.8270  179.0050  142.2030 C   0  0  0  0  0  2  0  0  0  0  0  0
  188.6590  177.5100  143.0430 C   0  0  0  0  0  0  0  0  0  0  0  0
  186.0230  177.8050  145.6750 N   0  0  0  0  0  0  0  0  0  0  0  0
  191.3100  176.8520  147.5000 C   0  0  0  0  0  3  0  0  0  0  0  0
  186.0830  178.6990  143.4620 C   0  0  0  0  0  0  0  0  0  0  0  0
  184.7650  179.1320  143.6110 C   0  0  0  0  0  3  0  0  0  0  0  0
  189.9430  177.0030  142.8280 C   0  0  0  0  0  3  0  0  0  0  0  0
  190.2790  176.7190  145.2060 C   0  0  0  0  0  0  0  0  0  0  0  0
  191.2300  176.3320  146.2700 C   0  0  0  0  0  3  0  0  0  0  0  0
  188.5960  178.2560  140.7060 N   0  0  0  0  0  2  0  0  0  0  0  0
  190.6480  175.3200  136.9530 C   0  0  0  0  0  0  0  0  0  0  0  0
  190.4940  176.4780  139.1340 C   0  0  0  0  0  3  0  0  0  0  0  0
  187.4160  177.2230  137.3240 C   0  0  0  0  0  3  0  0  0  0  0  0
  187.1140  177.9990  138.5790 C   0  0  0  0  0  2  0  0  0  0  0  0
  191.3470  174.5820  136.2110 O   0  0  0  0  0  0  0  0  0  0  0  0
  188.3480  177.7490  139.3920 C   0  0  0  0  0  0  0  0  0  0  0  0
  191.1770  175.6970  138.2890 C   0  0  0  0  0  3  0  0  0  0  0  0
  188.6050  176.6550  137.4510 C   0  0  0  0  0  0  0  0  0  0  0  0
  189.1810  176.9770  138.7270 C   0  0  0  0  0  0  0  0  0  0  0  0
  189.3000  175.7910  136.4460 C   0  0  0  0  0  2  0  0  0  0  0  0
  1  9  1  0  0  0  0
  2  5  1  0  0  0  0
  2  3  1  0  0  0  0
  3  7  1  0  0  0  0
  4 11  2  0  0  0  0
  5 14  2  0  0  0  0
  6  1  2  0  0  0  0
  7  4  1  0  0  0  0
  8 21  1  6  0  0  0
  8 12  1  0  0  0  0
  8 13  1  0  0  0  0
 10 19  1  0  0  0  0
 12 16  1  0  0  0  0
 13  2  2  0  0  0  0
 14  1  1  0  0  0  0
 15 11  1  0  0  0  0
 16 17  2  0  0  0  0
 16  5  1  0  0  0  0
 17  6  1  0  0  0  0
 18 13  1  0  0  0  0
 18 10  2  0  0  0  0
 19  3  2  0  0  0  0
 19 20  1  0  0  0  0
 20 15  2  0  0  0  0
 22 28  1  0  0  0  0
 24 29  2  0  0  0  0
 24 25  1  0  0  0  0
 25 27  1  0  0  0  0
 26 22  2  0  0  0  0
 27 21  1  0  0  0  0
 28 23  2  0  0  0  0
 29 30  1  0  0  0  0
 30 23  1  0  0  0  0
 30 27  2  0  0  0  0
 31 22  1  0  0  0  0
 31 29  1  0  0  0  0
M  END
>  <MODEL>
3

>  <REMARK>
 VINA RESULT:     -10.6      1.593      2.156
  Name = 
  2 active torsions:
  status: ('A' for Active; 'I' for Inactive)
    1  A    between atoms: C_9  and  N_23
    2  A    between atoms: C_15  and  N_23
                            x       y       z     vdW  Elec       q    Type
                         _______ _______ _______ _____ _____    ______ ____

>  <TORSDO>
F 2

$$$$
=
 OpenBabel10262419273D

 31 36  0  0  1  0  0  0  0  0999 V2000
  189.2440  176.6640  147.1800 C   0  0  0  0  0  0  0  0  0  0  0  0
  188.0770  177.6110  143.7330 C   0  0  0  0  0  0  0  0  0  0  0  0
  189.1520  177.2860  142.8580 C   0  0  0  0  0  0  0  0  0  0  0  0
  191.5900  177.6500  143.0810 C   0  0  0  0  0  3  0  0  0  0  0  0
  188.1740  177.5100  145.2240 C   0  0  0  0  0  0  0  0  0  0  0  0
  188.3040  177.2880  147.9990 C   0  0  0  0  0  3  0  0  0  0  0  0
  190.4450  176.7450  143.3870 C   0  0  0  0  0  2  0  0  0  0  0  0
  185.6680  178.3560  144.0820 C   0  0  2  0  0  3  0  0  0  0  0  0
  190.2440  175.9360  147.7320 F   0  0  0  0  0  0  0  0  0  0  0  0
  187.7370  177.7790  140.9450 C   0  0  0  0  0  3  0  0  0  0  0  0
  192.0070  177.8780  141.8380 C   0  0  0  0  0  3  0  0  0  0  0  0
  186.1260  178.9680  145.4050 C   0  0  0  0  0  2  0  0  0  0  0  0
  186.8490  178.0580  143.1810 C   0  0  0  0  0  0  0  0  0  0  0  0
  189.1580  176.7850  145.8280 N   0  0  0  0  0  0  0  0  0  0  0  0
  191.3550  177.3480  140.6260 C   0  0  0  0  0  3  0  0  0  0  0  0
  187.1990  178.1350  146.0260 C   0  0  0  0  0  0  0  0  0  0  0  0
  187.2780  178.0300  147.4150 C   0  0  0  0  0  3  0  0  0  0  0  0
  186.6860  178.0980  141.7930 C   0  0  0  0  0  3  0  0  0  0  0  0
  188.9770  177.4020  141.4580 C   0  0  0  0  0  0  0  0  0  0  0  0
  190.0430  177.1350  140.4680 C   0  0  0  0  0  3  0  0  0  0  0  0
  184.7240  179.2580  143.4340 N   0  0  0  0  0  2  0  0  0  0  0  0
  180.7910  178.1070  140.2530 C   0  0  0  0  0  0  0  0  0  0  0  0
  183.1110  178.6270  140.9380 C   0  0  0  0  0  3  0  0  0  0  0  0
  181.0820  178.6660  143.9680 C   0  0  0  0  0  3  0  0  0  0  0  0
  182.4090  178.9940  144.6010 C   0  0  0  0  0  2  0  0  0  0  0  0
  180.0230  177.8340  139.2940 O   0  0  0  0  0  0  0  0  0  0  0  0
  183.3170  179.0030  143.4080 C   0  0  0  0  0  0  0  0  0  0  0  0
  182.2320  178.3340  139.9720 C   0  0  0  0  0  3  0  0  0  0  0  0
  181.2560  178.5220  142.6630 C   0  0  0  0  0  0  0  0  0  0  0  0
  182.6350  178.7280  142.3160 C   0  0  0  0  0  0  0  0  0  0  0  0
  180.2080  178.1920  141.6480 C   0  0  0  0  0  2  0  0  0  0  0  0
  1  9  1  0  0  0  0
  1  6  1  0  0  0  0
  2  5  1  0  0  0  0
  3  7  1  0  0  0  0
  3  2  2  0  0  0  0
  4  7  1  0  0  0  0
  5 14  1  0  0  0  0
  5 16  2  0  0  0  0
  8 21  1  6  0  0  0
  8 12  1  0  0  0  0
 10 19  2  0  0  0  0
 10 18  1  0  0  0  0
 11  4  2  0  0  0  0
 12 16  1  0  0  0  0
 13  2  1  0  0  0  0
 13  8  1  0  0  0  0
 14  1  2  0  0  0  0
 15 11  1  0  0  0  0
 16 17  1  0  0  0  0
 17  6  2  0  0  0  0
 18 13  2  0  0  0  0
 19  3  1  0  0  0  0
 20 15  2  0  0  0  0
 20 19  1  0  0  0  0
 22 31  1  0  0  0  0
 23 30  1  0  0  0  0
 24 25  1  0  0  0  0
 26 22  2  0  0  0  0
 27 21  1  0  0  0  0
 27 25  1  0  0  0  0
 28 22  1  0  0  0  0
 28 23  2  0  0  0  0
 29 24  2  0  0  0  0
 30 29  1  0  0  0  0
 30 27  2  0  0  0  0
 31 29  1  0  0  0  0
M  END
>  <MODEL>
4

>  <REMARK>
 VINA RESULT:     -10.5      3.571      7.732
  Name = 
  2 active torsions:
  status: ('A' for Active; 'I' for Inactive)
    1  A    between atoms: C_9  and  N_23
    2  A    between atoms: C_15  and  N_23
                            x       y       z     vdW  Elec       q    Type
                         _______ _______ _______ _____ _____    ______ ____

>  <TORSDO>
F 2

$$$$
=
 OpenBabel10262419273D

 31 36  0  0  1  0  0  0  0  0999 V2000
  186.1520  177.8240  146.5330 C   0  0  0  0  0  0  0  0  0  0  0  0
  187.4330  178.1420  143.0120 C   0  0  0  0  0  0  0  0  0  0  0  0
  188.8160  177.8070  143.0720 C   0  0  0  0  0  0  0  0  0  0  0  0
  190.5700  178.4460  144.6960 C   0  0  0  0  0  3  0  0  0  0  0  0
  186.5660  178.2660  144.2260 C   0  0  0  0  0  0  0  0  0  0  0  0
  184.9130  178.4610  146.4620 C   0  0  0  0  0  3  0  0  0  0  0  0
  189.4780  177.4820  144.3760 C   0  0  0  0  0  2  0  0  0  0  0  0
  185.3540  178.6790  141.6460 C   0  0  2  0  0  3  0  0  0  0  0  0
  186.5710  177.2890  147.7040 F   0  0  0  0  0  0  0  0  0  0  0  0
  188.9310  177.8720  140.6450 C   0  0  0  0  0  3  0  0  0  0  0  0
  191.6800  178.5340  143.9680 C   0  0  0  0  0  3  0  0  0  0  0  0
  184.8810  179.5180  142.8320 C   0  0  0  0  0  2  0  0  0  0  0  0
  186.8350  178.3770  141.7470 C   0  0  0  0  0  0  0  0  0  0  0  0
  186.9400  177.7410  145.4280 N   0  0  0  0  0  0  0  0  0  0  0  0
  191.9330  177.7720  142.7320 C   0  0  0  0  0  3  0  0  0  0  0  0
  185.3110  178.8970  144.1210 C   0  0  0  0  0  0  0  0  0  0  0  0
  184.4950  179.0020  145.2470 C   0  0  0  0  0  3  0  0  0  0  0  0
  187.5840  178.2010  140.5810 C   0  0  0  0  0  3  0  0  0  0  0  0
  189.5650  177.7010  141.8750 C   0  0  0  0  0  0  0  0  0  0  0  0
  191.0130  177.4050  141.8310 C   0  0  0  0  0  3  0  0  0  0  0  0
  185.0400  179.3780  140.4050 N   0  0  0  0  0  2  0  0  0  0  0  0
  184.4530  176.8320  135.9230 C   0  0  0  0  0  0  0  0  0  0  0  0
  185.6330  177.8780  137.8300 C   0  0  0  0  0  3  0  0  0  0  0  0
  182.0630  178.3620  138.4040 C   0  0  0  0  0  3  0  0  0  0  0  0
  182.5700  179.0510  139.6440 C   0  0  0  0  0  2  0  0  0  0  0  0
  184.5750  176.2030  134.8400 O   0  0  0  0  0  0  0  0  0  0  0  0
  184.0530  178.9010  139.4870 C   0  0  0  0  0  0  0  0  0  0  0  0
  185.6800  177.2090  136.6720 C   0  0  0  0  0  3  0  0  0  0  0  0
  183.1010  177.9200  137.7090 C   0  0  0  0  0  0  0  0  0  0  0  0
  184.3290  178.2500  138.3770 C   0  0  0  0  0  0  0  0  0  0  0  0
  183.0610  177.1760  136.4110 C   0  0  0  0  0  2  0  0  0  0  0  0
  1  9  1  0  0  0  0
  2  3  1  0  0  0  0
  2  5  1  0  0  0  0
  3  7  1  0  0  0  0
  5 14  1  0  0  0  0
  6  1  1  0  0  0  0
  7  4  1  0  0  0  0
  8 21  1  6  0  0  0
  8 13  1  0  0  0  0
  8 12  1  0  0  0  0
 10 19  1  0  0  0  0
 11  4  2  0  0  0  0
 12 16  1  0  0  0  0
 13  2  2  0  0  0  0
 14  1  2  0  0  0  0
 15 11  1  0  0  0  0
 16  5  2  0  0  0  0
 16 17  1  0  0  0  0
 17  6  2  0  0  0  0
 18 10  2  0  0  0  0
 18 13  1  0  0  0  0
 19  3  2  0  0  0  0
 20 19  1  0  0  0  0
 20 15  2  0  0  0  0
 22 31  1  0  0  0  0
 22 28  1  0  0  0  0
 23 30  1  0  0  0  0
 24 25  1  0  0  0  0
 26 22  2  0  0  0  0
 27 25  1  0  0  0  0
 27 21  1  0  0  0  0
 28 23  2  0  0  0  0
 29 30  1  0  0  0  0
 29 24  2  0  0  0  0
 30 27  2  0  0  0  0
 31 29  1  0  0  0  0
M  END
>  <MODEL>
5

>  <REMARK>
 VINA RESULT:     -10.3      3.260      5.557
  Name = 
  2 active torsions:
  status: ('A' for Active; 'I' for Inactive)
    1  A    between atoms: C_9  and  N_23
    2  A    between atoms: C_15  and  N_23
                            x       y       z     vdW  Elec       q    Type
                         _______ _______ _______ _____ _____    ______ ____

>  <TORSDO>
F 2

$$$$
=
 OpenBabel10262419273D

 31 36  0  0  1  0  0  0  0  0999 V2000
  189.1820  177.8780  147.5790 C   0  0  0  0  0  0  0  0  0  0  0  0
  187.6000  178.0960  144.1750 C   0  0  0  0  0  0  0  0  0  0  0  0
  186.2960  178.6270  144.3890 C   0  0  0  0  0  0  0  0  0  0  0  0
  184.5940  178.1040  146.1070 C   0  0  0  0  0  3  0  0  0  0  0  0
  188.5280  177.7270  145.2910 C   0  0  0  0  0  0  0  0  0  0  0  0
  190.2970  177.0730  147.3430 C   0  0  0  0  0  3  0  0  0  0  0  0
  185.7950  178.9190  145.7700 C   0  0  0  0  0  2  0  0  0  0  0  0
  189.4580  177.3890  142.5860 C   0  0  2  0  0  3  0  0  0  0  0  0
  188.9440  178.3540  148.8250 F   0  0  0  0  0  0  0  0  0  0  0  0
  185.9850  178.8140  141.9860 C   0  0  0  0  0  3  0  0  0  0  0  0
  183.4300  178.2530  145.4790 C   0  0  0  0  0  3  0  0  0  0  0  0
  189.8830  176.3780  143.6500 C   0  0  0  0  0  2  0  0  0  0  0  0
  188.0550  177.8980  142.8470 C   0  0  0  0  0  0  0  0  0  0  0  0
  188.3350  178.1840  146.5620 N   0  0  0  0  0  0  0  0  0  0  0  0
  183.2060  179.1600  144.3380 C   0  0  0  0  0  3  0  0  0  0  0  0
  189.6560  176.9290  145.0200 C   0  0  0  0  0  0  0  0  0  0  0  0
  190.5300  176.5950  146.0540 C   0  0  0  0  0  3  0  0  0  0  0  0
  187.2550  178.2950  141.7720 C   0  0  0  0  0  3  0  0  0  0  0  0
  185.4830  178.9580  143.2780 C   0  0  0  0  0  0  0  0  0  0  0  0
  184.1000  179.4700  143.3910 C   0  0  0  0  0  3  0  0  0  0  0  0
  189.5610  176.7740  141.2680 N   0  0  0  0  0  2  0  0  0  0  0  0
  191.4310  175.8810  136.5120 C   0  0  0  0  0  0  0  0  0  0  0  0
  189.7700  175.9770  138.3440 C   0  0  0  0  0  3  0  0  0  0  0  0
  192.9230  177.1970  139.7130 C   0  0  0  0  0  3  0  0  0  0  0  0
  192.0850  177.3400  140.9570 C   0  0  0  0  0  2  0  0  0  0  0  0
  191.6380  175.5870  135.3060 O   0  0  0  0  0  0  0  0  0  0  0  0
  190.7520  176.8490  140.4800 C   0  0  0  0  0  0  0  0  0  0  0  0
  190.0680  175.6870  137.0720 C   0  0  0  0  0  3  0  0  0  0  0  0
  192.1630  176.7160  138.7410 C   0  0  0  0  0  0  0  0  0  0  0  0
  190.8230  176.5020  139.2120 C   0  0  0  0  0  0  0  0  0  0  0  0
  192.5830  176.4180  137.3370 C   0  0  0  0  0  2  0  0  0  0  0  0
  1  9  1  0  0  0  0
  2  3  1  0  0  0  0
  2  5  1  0  0  0  0
  3  7  1  0  0  0  0
  5 14  1  0  0  0  0
  6  1  1  0  0  0  0
  7  4  1  0  0  0  0
  8 21  1  6  0  0  0
  8 13  1  0  0  0  0
  8 12  1  0  0  0  0
 10 19  1  0  0  0  0
 11  4  2  0  0  0  0
 12 16  1  0  0  0  0
 13  2  2  0  0  0  0
 14  1  2  0  0  0  0
 15 11  1  0  0  0  0
 16  5  2  0  0  0  0
 16 17  1  0  0  0  0
 17  6  2  0  0  0  0
 18 10  2  0  0  0  0
 18 13  1  0  0  0  0
 19 20  1  0  0  0  0
 19  3  2  0  0  0  0
 20 15  2  0  0  0  0
 22 28  1  0  0  0  0
 22 31  1  0  0  0  0
 23 30  1  0  0  0  0
 24 25  1  0  0  0  0
 26 22  2  0  0  0  0
 27 25  1  0  0  0  0
 27 21  1  0  0  0  0
 28 23  2  0  0  0  0
 29 30  1  0  0  0  0
 29 24  2  0  0  0  0
 30 27  2  0  0  0  0
 31 29  1  0  0  0  0
M  END
>  <MODEL>
6

>  <REMARK>
 VINA RESULT:     -10.2      2.016      4.373
  Name = 
  2 active torsions:
  status: ('A' for Active; 'I' for Inactive)
    1  A    between atoms: C_9  and  N_23
    2  A    between atoms: C_15  and  N_23
                            x       y       z     vdW  Elec       q    Type
                         _______ _______ _______ _____ _____    ______ ____

>  <TORSDO>
F 2

$$$$
=
 OpenBabel10262419273D

 31 36  0  0  1  0  0  0  0  0999 V2000
  184.9680  178.2220  145.7000 C   0  0  0  0  0  0  0  0  0  0  0  0
  187.8080  177.5870  143.3190 C   0  0  0  0  0  0  0  0  0  0  0  0
  188.8640  177.0510  144.1100 C   0  0  0  0  0  0  0  0  0  0  0  0
  189.7250  177.7200  146.3310 C   0  0  0  0  0  3  0  0  0  0  0  0
  186.5280  178.1010  143.9000 C   0  0  0  0  0  0  0  0  0  0  0  0
  184.1130  179.0230  144.9430 C   0  0  0  0  0  3  0  0  0  0  0  0
  188.7200  176.9020  145.5940 C   0  0  0  0  0  2  0  0  0  0  0  0
  186.8380  178.1580  141.0370 C   0  0  2  0  0  3  0  0  0  0  0  0
  184.6310  177.8820  146.9670 F   0  0  0  0  0  0  0  0  0  0  0  0
  190.1360  176.5900  142.0920 C   0  0  0  0  0  3  0  0  0  0  0  0
  191.0310  177.4730  146.2700 C   0  0  0  0  0  3  0  0  0  0  0  0
  186.0790  179.2920  141.7250 C   0  0  0  0  0  2  0  0  0  0  0  0
  187.9650  177.6470  141.9100 C   0  0  0  0  0  0  0  0  0  0  0  0
  186.1400  177.7830  145.1680 N   0  0  0  0  0  0  0  0  0  0  0  0
  191.6470  176.4390  145.4190 C   0  0  0  0  0  3  0  0  0  0  0  0
  185.6740  178.8910  143.1060 C   0  0  0  0  0  0  0  0  0  0  0  0
  184.4740  179.3600  143.6390 C   0  0  0  0  0  3  0  0  0  0  0  0
  189.1110  177.1120  141.3150 C   0  0  0  0  0  3  0  0  0  0  0  0
  190.0410  176.5780  143.4830 C   0  0  0  0  0  0  0  0  0  0  0  0
  191.2110  176.0480  144.2150 C   0  0  0  0  0  3  0  0  0  0  0  0
  187.3380  178.6250  139.7490 N   0  0  0  0  0  2  0  0  0  0  0  0
  183.2690  177.4620  136.7480 C   0  0  0  0  0  0  0  0  0  0  0  0
  184.5000  178.3640  138.6950 C   0  0  0  0  0  3  0  0  0  0  0  0
  186.9850  176.9070  136.4580 C   0  0  0  0  0  3  0  0  0  0  0  0
  187.9260  177.3810  137.5360 C   0  0  0  0  0  2  0  0  0  0  0  0
  182.1430  177.2990  136.2100 O   0  0  0  0  0  0  0  0  0  0  0  0
  186.9740  178.0000  138.5150 C   0  0  0  0  0  0  0  0  0  0  0  0
  183.3410  178.1530  138.0610 C   0  0  0  0  0  3  0  0  0  0  0  0
  185.7470  177.2240  136.8050 C   0  0  0  0  0  0  0  0  0  0  0  0
  185.7380  177.8990  138.0730 C   0  0  0  0  0  0  0  0  0  0  0  0
  184.4980  176.9450  136.0290 C   0  0  0  0  0  2  0  0  0  0  0  0
  1  9  1  0  0  0  0
  2  5  1  0  0  0  0
  2  3  1  0  0  0  0
  3  7  1  0  0  0  0
  5 14  2  0  0  0  0
  6  1  2  0  0  0  0
  7  4  1  0  0  0  0
  8 21  1  6  0  0  0
  8 12  1  0  0  0  0
  8 13  1  0  0  0  0
 10 19  1  0  0  0  0
 11  4  2  0  0  0  0
 12 16  1  0  0  0  0
 13  2  2  0  0  0  0
 14  1  1  0  0  0  0
 15 11  1  0  0  0  0
 16 17  2  0  0  0  0
 16  5  1  0  0  0  0
 17  6  1  0  0  0  0
 18 13  1  0  0  0  0
 18 10  2  0  0  0  0
 19  3  2  0  0  0  0
 19 20  1  0  0  0  0
 20 15  2  0  0  0  0
 22 28  1  0  0  0  0
 24 29  2  0  0  0  0
 24 25  1  0  0  0  0
 25 27  1  0  0  0  0
 26 22  2  0  0  0  0
 27 21  1  0  0  0  0
 28 23  2  0  0  0  0
 29 30  1  0  0  0  0
 30 27  2  0  0  0  0
 30 23  1  0  0  0  0
 31 22  1  0  0  0  0
 31 29  1  0  0  0  0
M  END
>  <MODEL>
7

>  <REMARK>
 VINA RESULT:     -10.1      3.153      4.719
  Name = 
  2 active torsions:
  status: ('A' for Active; 'I' for Inactive)
    1  A    between atoms: C_9  and  N_23
    2  A    between atoms: C_15  and  N_23
                            x       y       z     vdW  Elec       q    Type
                         _______ _______ _______ _____ _____    ______ ____

>  <TORSDO>
F 2

$$$$
=
 OpenBabel10262419273D

 31 36  0  0  1  0  0  0  0  0999 V2000
  185.1290  178.1180  146.3920 C   0  0  0  0  0  0  0  0  0  0  0  0
  187.5470  177.6480  143.5500 C   0  0  0  0  0  0  0  0  0  0  0  0
  188.7180  177.0810  144.1290 C   0  0  0  0  0  0  0  0  0  0  0  0
  189.9260  177.6370  146.2160 C   0  0  0  0  0  3  0  0  0  0  0  0
  186.3760  178.1140  144.3590 C   0  0  0  0  0  0  0  0  0  0  0  0
  184.1600  178.9490  145.8300 C   0  0  0  0  0  3  0  0  0  0  0  0
  188.8170  176.8490  145.6060 C   0  0  0  0  0  2  0  0  0  0  0  0
  186.2180  178.3340  141.4910 C   0  0  2  0  0  3  0  0  0  0  0  0
  185.0020  177.7040  147.6750 F   0  0  0  0  0  0  0  0  0  0  0  0
  189.6470  176.7480  141.9090 C   0  0  0  0  0  3  0  0  0  0  0  0
  191.2050  177.4080  145.9310 C   0  0  0  0  0  3  0  0  0  0  0  0
  185.5770  179.4190  142.3560 C   0  0  0  0  0  2  0  0  0  0  0  0
  187.4730  177.7880  142.1410 C   0  0  0  0  0  0  0  0  0  0  0  0
  186.2000  177.7230  145.6540 N   0  0  0  0  0  0  0  0  0  0  0  0
  191.6780  176.4310  144.9330 C   0  0  0  0  0  3  0  0  0  0  0  0
  185.4030  178.9380  143.7590 C   0  0  0  0  0  0  0  0  0  0  0  0
  184.3040  179.3620  144.5060 C   0  0  0  0  0  3  0  0  0  0  0  0
  188.5080  177.3010  141.3390 C   0  0  0  0  0  3  0  0  0  0  0  0
  189.7790  176.6580  143.2940 C   0  0  0  0  0  0  0  0  0  0  0  0
  191.0540  176.1020  143.7960 C   0  0  0  0  0  3  0  0  0  0  0  0
  186.5010  178.8770  140.1680 N   0  0  0  0  0  2  0  0  0  0  0  0
  187.7000  176.6580  135.6340 C   0  0  0  0  0  0  0  0  0  0  0  0
  188.0710  177.7080  137.8440 C   0  0  0  0  0  3  0  0  0  0  0  0
  184.4620  177.5870  137.3250 C   0  0  0  0  0  3  0  0  0  0  0  0
  184.4570  178.2390  138.6840 C   0  0  0  0  0  2  0  0  0  0  0  0
  188.2390  176.1490  134.6180 O   0  0  0  0  0  0  0  0  0  0  0  0
  185.9240  178.3330  138.9780 C   0  0  0  0  0  0  0  0  0  0  0  0
  188.5690  177.1550  136.7320 C   0  0  0  0  0  3  0  0  0  0  0  0
  185.7180  177.3700  136.9630 C   0  0  0  0  0  0  0  0  0  0  0  0
  186.6200  177.8280  137.9820 C   0  0  0  0  0  0  0  0  0  0  0  0
  186.1880  176.7410  135.6900 C   0  0  0  0  0  2  0  0  0  0  0  0
  1  9  1  0  0  0  0
  2  3  1  0  0  0  0
  2  5  1  0  0  0  0
  3  7  1  0  0  0  0
  5 14  1  0  0  0  0
  6  1  1  0  0  0  0
  7  4  1  0  0  0  0
  8 21  1  6  0  0  0
  8 13  1  0  0  0  0
  8 12  1  0  0  0  0
 10 19  1  0  0  0  0
 11  4  2  0  0  0  0
 12 16  1  0  0  0  0
 13  2  2  0  0  0  0
 14  1  2  0  0  0  0
 15 11  1  0  0  0  0
 16  5  2  0  0  0  0
 16 17  1  0  0  0  0
 17  6  2  0  0  0  0
 18 10  2  0  0  0  0
 18 13  1  0  0  0  0
 19 20  1  0  0  0  0
 19  3  2  0  0  0  0
 20 15  2  0  0  0  0
 22 31  1  0  0  0  0
 22 28  1  0  0  0  0
 23 30  1  0  0  0  0
 24 25  1  0  0  0  0
 25 27  1  0  0  0  0
 26 22  2  0  0  0  0
 27 21  1  0  0  0  0
 28 23  2  0  0  0  0
 29 24  2  0  0  0  0
 29 30  1  0  0  0  0
 30 27  2  0  0  0  0
 31 29  1  0  0  0  0
M  END
>  <MODEL>
8

>  <REMARK>
 VINA RESULT:     -10.1      2.570      3.859
  Name = 
  2 active torsions:
  status: ('A' for Active; 'I' for Inactive)
    1  A    between atoms: C_9  and  N_23
    2  A    between atoms: C_15  and  N_23
                            x       y       z     vdW  Elec       q    Type
                         _______ _______ _______ _____ _____    ______ ____

>  <TORSDO>
F 2

$$$$
=
 OpenBabel10262419273D

 31 36  0  0  1  0  0  0  0  0999 V2000
  186.3680  177.7920  146.7930 C   0  0  0  0  0  0  0  0  0  0  0  0
  187.4350  178.0880  143.1990 C   0  0  0  0  0  0  0  0  0  0  0  0
  188.8120  177.7250  143.1740 C   0  0  0  0  0  0  0  0  0  0  0  0
  190.6750  178.3270  144.6870 C   0  0  0  0  0  3  0  0  0  0  0  0
  186.6480  178.2280  144.4650 C   0  0  0  0  0  0  0  0  0  0  0  0
  185.1400  178.4530  146.7990 C   0  0  0  0  0  3  0  0  0  0  0  0
  189.5470  177.3860  144.4350 C   0  0  0  0  0  2  0  0  0  0  0  0
  185.2870  178.6680  141.9650 C   0  0  2  0  0  3  0  0  0  0  0  0
  186.8470  177.2470  147.9360 F   0  0  0  0  0  0  0  0  0  0  0  0
  188.7800  177.7920  140.7460 C   0  0  0  0  0  3  0  0  0  0  0  0
  191.7410  178.3940  143.8930 C   0  0  0  0  0  3  0  0  0  0  0  0
  184.9050  179.5150  143.1770 C   0  0  0  0  0  2  0  0  0  0  0  0
  186.7650  178.3370  141.9750 C   0  0  0  0  0  0  0  0  0  0  0  0
  187.0840  177.6940  145.6420 N   0  0  0  0  0  0  0  0  0  0  0  0
  191.9010  177.6290  142.6430 C   0  0  0  0  0  3  0  0  0  0  0  0
  185.4020  178.8840  144.4370 C   0  0  0  0  0  0  0  0  0  0  0  0
  184.6590  179.0040  145.6120 C   0  0  0  0  0  3  0  0  0  0  0  0
  187.4380  178.1470  140.7640 C   0  0  0  0  0  3  0  0  0  0  0  0
  189.4840  177.6060  141.9340 C   0  0  0  0  0  0  0  0  0  0  0  0
  190.9210  177.2820  141.8010 C   0  0  0  0  0  3  0  0  0  0  0  0
  184.9120  179.3740  140.7450 N   0  0  0  0  0  2  0  0  0  0  0  0
  180.1380  177.6020  139.7530 C   0  0  0  0  0  0  0  0  0  0  0  0
  181.9880  178.6080  141.0520 C   0  0  0  0  0  3  0  0  0  0  0  0
  183.3190  177.8400  137.7440 C   0  0  0  0  0  3  0  0  0  0  0  0
  184.5710  178.4250  138.3430 C   0  0  0  0  0  3  0  0  0  0  0  0
  178.9310  177.2470  139.7600 O   0  0  0  0  0  0  0  0  0  0  0  0
  184.1110  178.7700  139.7270 C   0  0  0  0  0  0  0  0  0  0  0  0
  180.7140  178.2060  140.9820 C   0  0  0  0  0  3  0  0  0  0  0  0
  182.3570  177.8730  138.6540 C   0  0  0  0  0  0  0  0  0  0  0  0
  182.8430  178.4480  139.8780 C   0  0  0  0  0  0  0  0  0  0  0  0
  180.9480  177.3960  138.4890 C   0  0  0  0  0  3  0  0  0  0  0  0
  1  6  1  0  0  0  0
  1  9  1  0  0  0  0
  2  5  1  0  0  0  0
  3  2  1  0  0  0  0
  3  7  1  0  0  0  0
  5 14  1  0  0  0  0
  7  4  1  0  0  0  0
  8 21  1  6  0  0  0
  8 13  1  0  0  0  0
  8 12  1  0  0  0  0
 10 18  2  0  0  0  0
 10 19  1  0  0  0  0
 11  4  2  0  0  0  0
 12 16  1  0  0  0  0
 13  2  2  0  0  0  0
 14  1  2  0  0  0  0
 15 11  1  0  0  0  0
 16  5  2  0  0  0  0
 16 17  1  0  0  0  0
 17  6  2  0  0  0  0
 18 13  1  0  0  0  0
 19  3  2  0  0  0  0
 20 19  1  0  0  0  0
 20 15  2  0  0  0  0
 22 26  2  0  0  0  0
 22 28  1  0  0  0  0
 24 25  2  0  0  0  0
 24 29  1  0  0  0  0
 25 27  1  0  0  0  0
 27 30  2  0  0  0  0
 27 21  1  0  0  0  0
 28 23  2  0  0  0  0
 29 30  1  0  0  0  0
 30 23  1  0  0  0  0
 31 29  2  0  0  0  0
 31 22  1  0  0  0  0
M  END
>  <MODEL>
9

>  <REMARK>
 VINA RESULT:     -10.1      3.829      6.743
  Name = 
  2 active torsions:
  status: ('A' for Active; 'I' for Inactive)
    1  A    between atoms: C_9  and  N_23
    2  A    between atoms: C_15  and  N_23
                            x       y       z     vdW  Elec       q    Type
                         _______ _______ _______ _____ _____    ______ ____

>  <TORSDO>
F 2

$$$$
