=
 OpenBabel10262422543D

 37 42  0  0  1  0  0  0  0  0999 V2000
  178.9310  180.5880  139.1880 C   0  0  0  0  0  2  0  0  0  0  0  0
  182.9810  179.2350  140.7560 C   0  0  0  0  0  0  0  0  0  0  0  0
  186.3890  178.4930  139.6830 N   0  0  0  0  0  2  0  0  0  0  0  0
  180.5310  178.9420  140.1240 C   0  0  0  0  0  0  0  0  0  0  0  0
  184.2190  179.3850  140.3080 C   0  0  0  0  0  3  0  0  0  0  0  0
  181.8710  179.5710  139.7620 C   0  0  0  0  0  0  0  0  0  0  0  0
  185.5030  178.8420  140.7600 C   0  0  0  0  0  0  0  0  0  0  0  0
  180.3360  178.3630  141.3100 C   0  0  0  0  0  3  0  0  0  0  0  0
  182.3160  179.3060  138.2870 C   0  0  2  0  0  3  0  0  0  0  0  0
  180.9160  181.5750  137.5260 S   0  0  0  0  0  0  0  0  0  0  0  0
  183.5760  178.6340  143.2020 C   0  0  0  0  0  3  0  0  0  0  0  0
  181.4050  178.2470  142.3100 C   0  0  0  0  0  3  0  0  0  0  0  0
  181.3720  179.8410  137.2140 C   0  0  0  0  0  2  0  0  0  0  0  0
  186.5120  177.4490  137.5980 C   0  0  1  0  0  3  0  0  0  0  0  0
  185.9360  178.5680  138.3530 N   0  0  1  0  0  0  0  0  0  0  0  0
  182.6550  178.6330  142.0630 C   0  0  1  0  0  3  0  0  0  0  0  0
  182.6540  177.8400  138.0190 C   0  0  0  0  0  2  0  0  0  0  0  0
  179.3350  179.1230  139.2470 C   0  0  0  0  0  2  0  0  0  0  0  0
  185.8360  178.5490  142.0340 C   0  0  0  0  0  0  0  0  0  0  0  0
  179.1620  181.1550  137.7940 C   0  0  0  0  0  2  0  0  0  0  0  0
  185.1300  177.3510  138.1210 C   0  0  1  0  0  3  0  0  0  0  0  0
  183.9400  177.6890  137.2010 C   0  0  1  0  0  3  0  0  0  0  0  0
  184.9080  178.6260  143.1830 C   0  0  0  0  0  3  0  0  0  0  0  0
  188.2020  178.3440  141.4820 C   0  0  0  0  0  3  0  0  0  0  0  0
  187.2170  178.1140  142.3650 C   0  0  0  0  0  0  0  0  0  0  0  0
  187.5100  177.4990  143.7180 C   0  0  0  0  0  2  0  0  0  0  0  0
  189.1950  176.5830  145.1230 F   0  0  0  0  0  0  0  0  0  0  0  0
  189.9350  177.7350  143.1830 C   0  0  0  0  0  2  0  0  0  0  0  0
  188.8810  176.8290  143.8000 C   0  0  2  0  0  3  0  0  0  0  0  0
  189.6220  177.9030  141.7010 C   0  0  0  0  0  2  0  0  0  0  0  0
  186.6260  177.8460  136.1320 C   0  0  0  0  0  2  0  0  0  0  0  0
  188.0830  177.8390  135.7180 C   0  0  0  0  0  1  0  0  0  0  0  0
  183.7590  176.6690  136.0600 C   0  0  0  0  0  2  0  0  0  0  0  0
  183.2580  175.2660  136.4440 C   0  0  1  0  0  3  0  0  0  0  0  0
  182.2040  174.8540  135.6290 O   0  0  0  0  0  1  0  0  0  0  0  0
  184.7150  173.6500  137.5910 C   0  0  0  0  0  2  0  0  0  0  0  0
  184.3410  174.2340  136.4550 C   0  0  0  0  0  3  0  0  0  0  0  0
  1 18  1  0  0  0  0
  2 16  1  0  0  0  0
  3  7  1  0  0  0  0
  4  8  1  0  0  0  0
  5  2  2  0  0  0  0
  5  7  1  0  0  0  0
  6  4  2  0  0  0  0
  6  2  1  0  0  0  0
  7 19  2  0  0  0  0
  8 12  2  0  0  0  0
  9 13  1  6  0  0  0
  9  6  1  0  0  0  0
 10 20  1  0  0  0  0
 13 10  1  0  0  0  0
 14 31  1  6  0  0  0
 14 21  1  0  0  0  0
 14 15  1  0  0  0  0
 15  3  1  1  0  0  0
 16 12  1  1  0  0  0
 16 11  1  0  0  0  0
 17  9  1  0  0  0  0
 18  4  1  0  0  0  0
 19 25  1  0  0  0  0
 19 23  1  0  0  0  0
 20  1  1  0  0  0  0
 21 15  1  0  0  0  0
 22 17  1  0  0  0  0
 22 21  1  0  0  0  0
 23 11  2  0  0  0  0
 24 30  1  0  0  0  0
 24 25  2  0  0  0  0
 25 26  1  0  0  0  0
 26 29  1  0  0  0  0
 28 29  1  0  0  0  0
 29 27  1  0  0  0  0
 30 28  1  0  0  0  0
 32 31  1  0  0  0  0
 33 34  1  0  0  0  0
 33 22  1  0  0  0  0
 34 37  1  0  0  0  0
 35 34  1  0  0  0  0
 37 36  2  0  0  0  0
M  END
>  <MODEL>
1

>  <REMARK>
 VINA RESULT:      -7.7      0.000      0.000
  Name = 
  5 active torsions:
  status: ('A' for Active; 'I' for Inactive)
    1  A    between atoms: C_1  and  C_5
    2  A    between atoms: C_1  and  C_36
    3  A    between atoms: C_5  and  C_23
    4  A    between atoms: C_6  and  C_31
    5  A    between atoms: C_11  and  C_26
                            x       y       z     vdW  Elec       q    Type
                         _______ _______ _______ _____ _____    ______ ____

>  <TORSDO>
F 5

$$$$
=
 OpenBabel10262422543D

 37 42  0  0  1  0  0  0  0  0999 V2000
  180.3120  180.1550  143.0340 C   0  0  0  0  0  2  0  0  0  0  0  0
  184.0870  178.8740  140.8440 C   0  0  0  0  0  0  0  0  0  0  0  0
  185.2640  177.5460  137.6550 N   0  0  0  0  0  2  0  0  0  0  0  0
  182.2430  178.6650  142.5870 C   0  0  0  0  0  0  0  0  0  0  0  0
  184.3990  178.7780  139.5600 C   0  0  0  0  0  3  0  0  0  0  0  0
  182.6020  179.0430  141.1560 C   0  0  0  0  0  0  0  0  0  0  0  0
  185.5780  178.2510  138.8680 C   0  0  0  0  0  0  0  0  0  0  0  0
  183.1870  178.4400  143.5020 C   0  0  0  0  0  3  0  0  0  0  0  0
  181.7030  178.3570  140.0760 C   0  0  2  0  0  3  0  0  0  0  0  0
  179.9250  180.4720  140.3090 S   0  0  0  0  0  0  0  0  0  0  0  0
  186.5010  178.8810  141.7780 C   0  0  0  0  0  3  0  0  0  0  0  0
  184.6190  178.4870  143.1780 C   0  0  0  0  0  3  0  0  0  0  0  0
  180.2140  178.6800  140.1650 C   0  0  0  0  0  2  0  0  0  0  0  0
  183.8170  175.9840  136.6960 C   0  0  1  0  0  3  0  0  0  0  0  0
  183.9200  177.3130  137.3110 N   0  0  1  0  0  0  0  0  0  0  0  0
  185.0610  178.6710  141.9350 C   0  0  1  0  0  3  0  0  0  0  0  0
  181.9180  176.8460  139.9920 C   0  0  0  0  0  2  0  0  0  0  0  0
  180.8280  178.7240  143.0670 C   0  0  0  0  0  2  0  0  0  0  0  0
  186.8460  178.2730  139.3310 C   0  0  0  0  0  0  0  0  0  0  0  0
  179.2210  180.3100  141.9830 C   0  0  0  0  0  2  0  0  0  0  0  0
  183.4770  176.1620  138.1260 C   0  0  1  0  0  3  0  0  0  0  0  0
  182.0060  176.3610  138.5410 C   0  0  1  0  0  3  0  0  0  0  0  0
  187.2390  178.7390  140.6790 C   0  0  0  0  0  3  0  0  0  0  0  0
  188.9810  177.1340  139.0340 C   0  0  0  0  0  3  0  0  0  0  0  0
  187.9630  177.8070  138.4720 C   0  0  0  0  0  0  0  0  0  0  0  0
  187.9020  178.0190  136.9730 C   0  0  0  0  0  2  0  0  0  0  0  0
  189.0210  177.6750  134.9040 F   0  0  0  0  0  0  0  0  0  0  0  0
  189.8600  176.4860  136.7810 C   0  0  0  0  0  2  0  0  0  0  0  0
  189.2340  177.7720  136.2660 C   0  0  2  0  0  3  0  0  0  0  0  0
  190.1800  176.6610  138.2600 C   0  0  0  0  0  2  0  0  0  0  0  0
  182.6310  175.9680  135.7420 C   0  0  0  0  0  2  0  0  0  0  0  0
  182.6980  174.7300  134.8720 C   0  0  0  0  0  1  0  0  0  0  0  0
  181.1490  175.1000  138.3220 C   0  0  0  0  0  2  0  0  0  0  0  0
  179.6310  175.2350  138.5370 C   0  0  1  0  0  3  0  0  0  0  0  0
  178.9310  175.1590  137.3320 O   0  0  0  0  0  1  0  0  0  0  0  0
  179.6140  174.1300  140.7340 C   0  0  0  0  0  2  0  0  0  0  0  0
  179.0820  174.2500  139.5190 C   0  0  0  0  0  3  0  0  0  0  0  0
  1 18  1  0  0  0  0
  2  6  1  0  0  0  0
  2 16  1  0  0  0  0
  3  7  1  0  0  0  0
  4 18  1  0  0  0  0
  4  8  1  0  0  0  0
  5  2  2  0  0  0  0
  6  4  2  0  0  0  0
  7 19  2  0  0  0  0
  7  5  1  0  0  0  0
  9 17  1  1  0  0  0
  9 13  1  0  0  0  0
  9  6  1  0  0  0  0
 10 20  1  0  0  0  0
 12  8  2  0  0  0  0
 13 10  1  0  0  0  0
 14 31  1  6  0  0  0
 14 15  1  0  0  0  0
 14 21  1  0  0  0  0
 15  3  1  1  0  0  0
 15 21  1  0  0  0  0
 16 11  1  1  0  0  0
 16 12  1  0  0  0  0
 19 23  1  0  0  0  0
 20  1  1  0  0  0  0
 21 22  1  0  0  0  0
 22 17  1  0  0  0  0
 23 11  2  0  0  0  0
 25 24  2  0  0  0  0
 25 19  1  0  0  0  0
 26 25  1  0  0  0  0
 27 29  1  0  0  0  0
 28 30  1  0  0  0  0
 29 28  1  0  0  0  0
 29 26  1  0  0  0  0
 30 24  1  0  0  0  0
 32 31  1  0  0  0  0
 33 34  1  0  0  0  0
 33 22  1  0  0  0  0
 34 37  1  0  0  0  0
 35 34  1  0  0  0  0
 37 36  2  0  0  0  0
M  END
>  <MODEL>
2

>  <REMARK>
 VINA RESULT:      -7.1      2.735      4.236
  Name = 
  5 active torsions:
  status: ('A' for Active; 'I' for Inactive)
    1  A    between atoms: C_1  and  C_5
    2  A    between atoms: C_1  and  C_36
    3  A    between atoms: C_5  and  C_23
    4  A    between atoms: C_6  and  C_31
    5  A    between atoms: C_11  and  C_26
                            x       y       z     vdW  Elec       q    Type
                         _______ _______ _______ _____ _____    ______ ____

>  <TORSDO>
F 5

$$$$
=
 OpenBabel10262422543D

 37 42  0  0  1  0  0  0  0  0999 V2000
  190.8460  175.6930  136.8810 C   0  0  0  0  0  2  0  0  0  0  0  0
  189.9810  176.6920  141.2340 C   0  0  0  0  0  0  0  0  0  0  0  0
  187.2390  177.2780  143.5700 N   0  0  0  0  0  2  0  0  0  0  0  0
  190.7860  177.1760  138.8670 C   0  0  0  0  0  0  0  0  0  0  0  0
  188.9300  176.4910  142.0160 C   0  0  0  0  0  3  0  0  0  0  0  0
  189.7440  176.4860  139.7390 C   0  0  2  0  0  3  0  0  0  0  0  0
  188.6190  176.9240  143.3800 C   0  0  0  0  0  0  0  0  0  0  0  0
  191.8960  177.6970  139.3930 C   0  0  0  0  0  3  0  0  0  0  0  0
  188.2680  176.8080  139.3370 C   0  0  2  0  0  3  0  0  0  0  0  0
  188.3580  174.6800  137.5610 S   0  0  0  0  0  0  0  0  0  0  0  0
  191.7190  177.1110  143.1060 C   0  0  0  0  0  3  0  0  0  0  0  0
  192.1560  177.6870  140.8390 C   0  0  0  0  0  3  0  0  0  0  0  0
  187.8740  176.3970  137.9220 C   0  0  0  0  0  2  0  0  0  0  0  0
  185.4370  178.4310  142.6350 C   0  0  1  0  0  3  0  0  0  0  0  0
  186.3680  177.3090  142.4660 N   0  0  1  0  0  0  0  0  0  0  0  0
  191.2640  177.2370  141.7190 C   0  0  0  0  0  0  0  0  0  0  0  0
  187.8820  178.2630  139.6000 C   0  0  0  0  0  2  0  0  0  0  0  0
  190.6970  177.1240  137.3760 C   0  0  0  0  0  2  0  0  0  0  0  0
  189.5120  177.1200  144.3740 C   0  0  0  0  0  0  0  0  0  0  0  0
  189.5420  175.1950  136.2740 C   0  0  0  0  0  2  0  0  0  0  0  0
  186.6290  178.5860  141.7690 C   0  0  1  0  0  3  0  0  0  0  0  0
  186.4980  178.3790  140.2470 C   0  0  1  0  0  3  0  0  0  0  0  0
  190.9800  177.0360  144.2110 C   0  0  0  0  0  3  0  0  0  0  0  0
  189.9040  177.3270  146.7710 C   0  0  0  0  0  3  0  0  0  0  0  0
  189.0460  177.4460  145.7450 C   0  0  0  0  0  0  0  0  0  0  0  0
  187.6470  177.9880  145.9570 C   0  0  0  0  0  2  0  0  0  0  0  0
  186.0790  178.7710  147.5630 F   0  0  0  0  0  0  0  0  0  0  0  0
  188.3250  178.5310  148.2950 C   0  0  0  0  0  2  0  0  0  0  0  0
  187.2070  177.9860  147.4210 C   0  0  2  0  0  3  0  0  0  0  0  0
  189.5190  177.5890  148.2000 C   0  0  0  0  0  2  0  0  0  0  0  0
  184.1390  178.1150  141.9050 C   0  0  0  0  0  2  0  0  0  0  0  0
  182.9810  178.7730  142.6240 C   0  0  0  0  0  1  0  0  0  0  0  0
  185.6530  179.4730  139.5660 C   0  0  0  0  0  2  0  0  0  0  0  0
  184.6080  179.0140  138.5340 C   0  0  1  0  0  3  0  0  0  0  0  0
  184.5550  177.6230  138.4370 O   0  0  0  0  0  1  0  0  0  0  0  0
  182.1600  178.8100  138.6480 C   0  0  0  0  0  2  0  0  0  0  0  0
  183.2440  179.5710  138.7860 C   0  0  0  0  0  3  0  0  0  0  0  0
  1 18  1  0  0  0  0
  2 16  1  0  0  0  0
  2  5  2  0  0  0  0
  4  8  2  0  0  0  0
  5  7  1  0  0  0  0
  6  4  1  6  0  0  0
  6  2  1  0  0  0  0
  7  3  1  0  0  0  0
  7 19  2  0  0  0  0
  8 12  1  0  0  0  0
  9 13  1  6  0  0  0
  9 17  1  0  0  0  0
  9  6  1  0  0  0  0
 10 13  1  0  0  0  0
 11 23  2  0  0  0  0
 12 16  2  0  0  0  0
 14 31  1  6  0  0  0
 15 14  1  0  0  0  0
 15  3  1  1  0  0  0
 16 11  1  0  0  0  0
 17 22  1  0  0  0  0
 18  4  1  0  0  0  0
 19 25  1  0  0  0  0
 20  1  1  0  0  0  0
 20 10  1  0  0  0  0
 21 15  1  0  0  0  0
 21 14  1  0  0  0  0
 22 21  1  0  0  0  0
 23 19  1  0  0  0  0
 24 30  1  0  0  0  0
 25 26  1  0  0  0  0
 25 24  2  0  0  0  0
 26 29  1  0  0  0  0
 29 27  1  0  0  0  0
 29 28  1  0  0  0  0
 30 28  1  0  0  0  0
 31 32  1  0  0  0  0
 33 22  1  0  0  0  0
 34 37  1  0  0  0  0
 34 33  1  0  0  0  0
 35 34  1  0  0  0  0
 36 37  2  0  0  0  0
M  END
>  <MODEL>
3

>  <REMARK>
 VINA RESULT:      -7.0      3.094      7.248
  Name = 
  5 active torsions:
  status: ('A' for Active; 'I' for Inactive)
    1  A    between atoms: C_1  and  C_5
    2  A    between atoms: C_1  and  C_36
    3  A    between atoms: C_5  and  C_23
    4  A    between atoms: C_6  and  C_31
    5  A    between atoms: C_11  and  C_26
                            x       y       z     vdW  Elec       q    Type
                         _______ _______ _______ _____ _____    ______ ____

>  <TORSDO>
F 5

$$$$
=
 OpenBabel10262422543D

 37 42  0  0  1  0  0  0  0  0999 V2000
  179.3570  180.7040  140.9470 C   0  0  0  0  0  2  0  0  0  0  0  0
  183.6650  179.2430  140.8820 C   0  0  0  0  0  0  0  0  0  0  0  0
  186.2770  178.0600  138.6250 N   0  0  0  0  0  2  0  0  0  0  0  0
  181.1750  179.0770  141.3900 C   0  0  0  0  0  0  0  0  0  0  0  0
  184.5960  179.2180  139.9400 C   0  0  0  0  0  3  0  0  0  0  0  0
  182.2430  179.5280  140.4020 C   0  0  0  0  0  0  0  0  0  0  0  0
  185.9400  178.6360  139.8980 C   0  0  0  0  0  0  0  0  0  0  0  0
  181.4930  178.6930  142.6270 C   0  0  0  0  0  3  0  0  0  0  0  0
  182.0120  179.0160  138.9430 C   0  0  2  0  0  3  0  0  0  0  0  0
  180.4620  181.2650  138.4690 S   0  0  0  0  0  0  0  0  0  0  0  0
  185.2350  178.9500  142.9190 C   0  0  0  0  0  3  0  0  0  0  0  0
  182.8840  178.6290  143.0940 C   0  0  0  0  0  3  0  0  0  0  0  0
  180.7110  179.4710  138.2900 C   0  0  0  0  0  2  0  0  0  0  0  0
  185.4810  176.7210  136.8860 C   0  0  1  0  0  3  0  0  0  0  0  0
  185.3010  177.9830  137.6140 N   0  0  1  0  0  0  0  0  0  0  0  0
  183.9170  178.8650  142.2870 C   0  0  1  0  0  3  0  0  0  0  0  0
  182.1780  177.5020  138.8080 C   0  0  0  0  0  2  0  0  0  0  0  0
  179.7220  179.2330  141.0760 C   0  0  0  0  0  2  0  0  0  0  0  0
  186.7800  178.5020  140.9460 C   0  0  0  0  0  0  0  0  0  0  0  0
  178.9830  181.0420  139.5110 C   0  0  0  0  0  2  0  0  0  0  0  0
  184.4520  176.8200  137.9470 C   0  0  1  0  0  3  0  0  0  0  0  0
  182.9900  177.1240  137.5650 C   0  0  1  0  0  3  0  0  0  0  0  0
  186.4310  178.8230  142.3480 C   0  0  0  0  0  3  0  0  0  0  0  0
  188.7520  178.1900  139.5460 C   0  0  0  0  0  3  0  0  0  0  0  0
  188.1620  178.0000  140.7380 C   0  0  0  0  0  0  0  0  0  0  0  0
  188.9150  177.3630  141.8880 C   0  0  0  0  0  2  0  0  0  0  0  0
  190.9600  176.3590  142.5660 F   0  0  0  0  0  0  0  0  0  0  0  0
  190.9670  177.4890  140.4770 C   0  0  0  0  0  2  0  0  0  0  0  0
  190.1830  176.6290  141.4550 C   0  0  2  0  0  3  0  0  0  0  0  0
  190.1280  177.6810  139.2200 C   0  0  0  0  0  2  0  0  0  0  0  0
  184.9660  176.8910  135.4630 C   0  0  0  0  0  2  0  0  0  0  0  0
  186.0600  177.4790  134.5960 C   0  0  0  0  0  1  0  0  0  0  0  0
  182.3220  175.9710  136.7920 C   0  0  0  0  0  2  0  0  0  0  0  0
  182.2510  174.6030  137.4930 C   0  0  1  0  0  3  0  0  0  0  0  0
  180.9330  174.1910  137.6880 O   0  0  0  0  0  1  0  0  0  0  0  0
  183.2600  173.6100  135.4820 C   0  0  0  0  0  2  0  0  0  0  0  0
  183.0300  173.5370  136.7910 C   0  0  0  0  0  3  0  0  0  0  0  0
  1 18  1  0  0  0  0
  2 16  1  0  0  0  0
  3  7  1  0  0  0  0
  4  8  1  0  0  0  0
  5  2  2  0  0  0  0
  6  2  1  0  0  0  0
  6  4  2  0  0  0  0
  7  5  1  0  0  0  0
  7 19  2  0  0  0  0
  8 12  2  0  0  0  0
  9 13  1  1  0  0  0
  9  6  1  0  0  0  0
 10 20  1  0  0  0  0
 13 10  1  0  0  0  0
 14 31  1  6  0  0  0
 14 15  1  0  0  0  0
 14 21  1  0  0  0  0
 15 21  1  0  0  0  0
 15  3  1  1  0  0  0
 16 11  1  1  0  0  0
 16 12  1  0  0  0  0
 17  9  1  0  0  0  0
 18  4  1  0  0  0  0
 19 23  1  0  0  0  0
 20  1  1  0  0  0  0
 22 21  1  0  0  0  0
 22 17  1  0  0  0  0
 23 11  2  0  0  0  0
 24 25  2  0  0  0  0
 25 19  1  0  0  0  0
 25 26  1  0  0  0  0
 28 29  1  0  0  0  0
 29 26  1  0  0  0  0
 29 27  1  0  0  0  0
 30 24  1  0  0  0  0
 30 28  1  0  0  0  0
 32 31  1  0  0  0  0
 33 34  1  0  0  0  0
 33 22  1  0  0  0  0
 34 35  1  0  0  0  0
 36 37  2  0  0  0  0
 37 34  1  0  0  0  0
M  END
>  <MODEL>
4

>  <REMARK>
 VINA RESULT:      -7.0      1.396      1.775
  Name = 
  5 active torsions:
  status: ('A' for Active; 'I' for Inactive)
    1  A    between atoms: C_1  and  C_5
    2  A    between atoms: C_1  and  C_36
    3  A    between atoms: C_5  and  C_23
    4  A    between atoms: C_6  and  C_31
    5  A    between atoms: C_11  and  C_26
                            x       y       z     vdW  Elec       q    Type
                         _______ _______ _______ _____ _____    ______ ____

>  <TORSDO>
F 5

$$$$
=
 OpenBabel10262422543D

 37 42  0  0  1  0  0  0  0  0999 V2000
  186.2630  176.1610  134.6030 C   0  0  0  0  0  2  0  0  0  0  0  0
  188.4030  177.0370  138.5200 C   0  0  0  0  0  0  0  0  0  0  0  0
  187.8110  177.5050  142.0900 N   0  0  0  0  0  2  0  0  0  0  0  0
  187.4930  177.5960  136.2080 C   0  0  0  0  0  0  0  0  0  0  0  0
  188.1040  176.7940  139.7880 C   0  0  0  0  0  3  0  0  0  0  0  0
  187.2600  176.8610  137.5230 C   0  0  2  0  0  3  0  0  0  0  0  0
  188.7450  177.1870  141.0450 C   0  0  0  0  0  0  0  0  0  0  0  0
  188.6800  178.1290  135.9130 C   0  0  0  0  0  3  0  0  0  0  0  0
  185.8710  177.1590  138.1760 C   0  0  2  0  0  3  0  0  0  0  0  0
  184.8010  175.0770  136.6920 S   0  0  0  0  0  0  0  0  0  0  0  0
  190.9380  177.4520  138.8450 C   0  0  0  0  0  3  0  0  0  0  0  0
  189.8110  178.0900  136.8500 C   0  0  0  0  0  3  0  0  0  0  0  0
  184.6590  176.7730  137.3350 C   0  0  0  0  0  2  0  0  0  0  0  0
  185.8270  178.6390  142.5730 C   0  0  1  0  0  3  0  0  0  0  0  0
  186.4330  177.5430  141.8080 N   0  0  1  0  0  0  0  0  0  0  0  0
  189.6960  177.6000  138.0820 C   0  0  0  0  0  0  0  0  0  0  0  0
  185.7420  178.5980  138.6740 C   0  0  0  0  0  2  0  0  0  0  0  0
  186.4650  177.5760  135.1240 C   0  0  0  0  0  2  0  0  0  0  0  0
  190.0670  177.3800  141.2360 C   0  0  0  0  0  0  0  0  0  0  0  0
  184.8750  175.6480  134.9620 C   0  0  0  0  0  2  0  0  0  0  0  0
  186.1810  178.8420  141.1490 C   0  0  1  0  0  3  0  0  0  0  0  0
  185.1000  178.6670  140.0640 C   0  0  1  0  0  3  0  0  0  0  0  0
  191.0850  177.3330  140.1630 C   0  0  0  0  0  3  0  0  0  0  0  0
  190.7470  178.9410  142.9810 C   0  0  0  0  0  3  0  0  0  0  0  0
  190.5930  177.6640  142.5950 C   0  0  0  0  0  0  0  0  0  0  0  0
  190.8680  176.5210  143.5510 C   0  0  0  0  0  2  0  0  0  0  0  0
  191.6140  175.9350  145.7300 F   0  0  0  0  0  0  0  0  0  0  0  0
  191.1300  178.2280  145.3500 C   0  0  0  0  0  2  0  0  0  0  0  0
  191.6810  176.9330  144.7770 C   0  0  2  0  0  3  0  0  0  0  0  0
  191.3130  179.3330  144.3170 C   0  0  0  0  0  2  0  0  0  0  0  0
  184.3650  178.3100  142.8410 C   0  0  0  0  0  2  0  0  0  0  0  0
  183.8410  179.1990  143.9490 C   0  0  0  0  0  1  0  0  0  0  0  0
  184.0130  179.7570  140.1220 C   0  0  0  0  0  2  0  0  0  0  0  0
  182.6150  179.3860  139.5990 C   0  0  1  0  0  3  0  0  0  0  0  0
  182.4880  179.6500  138.2350 O   0  0  0  0  0  1  0  0  0  0  0  0
  181.2210  177.6940  140.7130 C   0  0  0  0  0  2  0  0  0  0  0  0
  182.2310  177.9700  139.8920 C   0  0  0  0  0  3  0  0  0  0  0  0
  1 20  1  0  0  0  0
  1 18  1  0  0  0  0
  2  5  2  0  0  0  0
  5  7  1  0  0  0  0
  6  4  1  6  0  0  0
  6  9  1  0  0  0  0
  6  2  1  0  0  0  0
  7 19  2  0  0  0  0
  7  3  1  0  0  0  0
  8  4  2  0  0  0  0
  8 12  1  0  0  0  0
  9 13  1  6  0  0  0
  9 17  1  0  0  0  0
 10 13  1  0  0  0  0
 11 23  2  0  0  0  0
 12 16  2  0  0  0  0
 14 31  1  6  0  0  0
 15  3  1  1  0  0  0
 15 14  1  0  0  0  0
 16  2  1  0  0  0  0
 16 11  1  0  0  0  0
 17 22  1  0  0  0  0
 18  4  1  0  0  0  0
 19 25  1  0  0  0  0
 20 10  1  0  0  0  0
 21 15  1  0  0  0  0
 21 14  1  0  0  0  0
 22 33  1  0  0  0  0
 22 21  1  0  0  0  0
 23 19  1  0  0  0  0
 24 30  1  0  0  0  0
 25 24  2  0  0  0  0
 25 26  1  0  0  0  0
 26 29  1  0  0  0  0
 29 28  1  0  0  0  0
 29 27  1  0  0  0  0
 30 28  1  0  0  0  0
 31 32  1  0  0  0  0
 34 37  1  0  0  0  0
 34 33  1  0  0  0  0
 35 34  1  0  0  0  0
 37 36  2  0  0  0  0
M  END
>  <MODEL>
5

>  <REMARK>
 VINA RESULT:      -6.5      2.457      6.064
  Name = 
  5 active torsions:
  status: ('A' for Active; 'I' for Inactive)
    1  A    between atoms: C_1  and  C_5
    2  A    between atoms: C_1  and  C_36
    3  A    between atoms: C_5  and  C_23
    4  A    between atoms: C_6  and  C_31
    5  A    between atoms: C_11  and  C_26
                            x       y       z     vdW  Elec       q    Type
                         _______ _______ _______ _____ _____    ______ ____

>  <TORSDO>
F 5

$$$$
=
 OpenBabel10262422543D

 37 42  0  0  1  0  0  0  0  0999 V2000
  186.4660  178.6890  146.4340 C   0  0  0  0  0  2  0  0  0  0  0  0
  187.4760  178.0020  142.0520 C   0  0  0  0  0  0  0  0  0  0  0  0
  186.2450  178.6300  138.6740 N   0  0  0  0  0  2  0  0  0  0  0  0
  186.7520  177.3100  144.3940 C   0  0  0  0  0  0  0  0  0  0  0  0
  187.1280  178.6260  140.9360 C   0  0  0  0  0  3  0  0  0  0  0  0
  186.6610  178.3600  143.2930 C   0  0  0  0  0  0  0  0  0  0  0  0
  187.3650  178.3220  139.5230 C   0  0  0  0  0  0  0  0  0  0  0  0
  187.6410  176.3170  144.3320 C   0  0  0  0  0  3  0  0  0  0  0  0
  185.1970  178.7670  142.9270 C   0  0  2  0  0  3  0  0  0  0  0  0
  185.3050  180.6950  144.9160 S   0  0  0  0  0  0  0  0  0  0  0  0
  189.5380  176.7510  141.1120 C   0  0  0  0  0  3  0  0  0  0  0  0
  188.5410  176.1420  143.1850 C   0  0  0  0  0  3  0  0  0  0  0  0
  184.3840  179.3750  144.0660 C   0  0  0  0  0  2  0  0  0  0  0  0
  183.9240  178.4710  138.4750 C   0  0  1  0  0  3  0  0  0  0  0  0
  185.0300  179.0500  139.2470 N   0  0  1  0  0  0  0  0  0  0  0  0
  188.4670  176.9090  142.0990 C   0  0  1  0  0  3  0  0  0  0  0  0
  184.4150  177.6390  142.2540 C   0  0  0  0  0  2  0  0  0  0  0  0
  185.9880  177.4640  145.6690 C   0  0  0  0  0  2  0  0  0  0  0  0
  188.4470  177.6950  139.0150 C   0  0  0  0  0  0  0  0  0  0  0  0
  185.3800  179.7550  146.4760 C   0  0  0  0  0  2  0  0  0  0  0  0
  184.3590  177.8280  139.7360 C   0  0  1  0  0  3  0  0  0  0  0  0
  183.6130  178.1400  141.0480 C   0  0  1  0  0  3  0  0  0  0  0  0
  189.5330  177.1060  139.8290 C   0  0  0  0  0  3  0  0  0  0  0  0
  189.0970  178.5930  136.8440 C   0  0  0  0  0  3  0  0  0  0  0  0
  188.6110  177.5570  137.5460 C   0  0  0  0  0  0  0  0  0  0  0  0
  188.3120  176.2320  136.8750 C   0  0  0  0  0  2  0  0  0  0  0  0
  188.2740  175.0520  134.8120 F   0  0  0  0  0  0  0  0  0  0  0  0
  189.3920  177.1470  134.8220 C   0  0  0  0  0  2  0  0  0  0  0  0
  188.2300  176.3230  135.3520 C   0  0  2  0  0  3  0  0  0  0  0  0
  189.2580  178.5700  135.3500 C   0  0  0  0  0  2  0  0  0  0  0  0
  182.7070  179.3780  138.5930 C   0  0  0  0  0  2  0  0  0  0  0  0
  181.6640  178.9600  137.5780 C   0  0  0  0  0  1  0  0  0  0  0  0
  182.1760  177.5850  141.0650 C   0  0  0  0  0  2  0  0  0  0  0  0
  181.0630  178.5270  141.5580 C   0  0  1  0  0  3  0  0  0  0  0  0
  179.8050  178.1110  141.1230 O   0  0  0  0  0  1  0  0  0  0  0  0
  180.0650  178.2540  143.7890 C   0  0  0  0  0  2  0  0  0  0  0  0
  181.0640  178.7170  143.0410 C   0  0  0  0  0  3  0  0  0  0  0  0
  1 20  1  0  0  0  0
  2 16  1  0  0  0  0
  2  6  1  0  0  0  0
  3  7  1  0  0  0  0
  4 18  1  0  0  0  0
  5  2  2  0  0  0  0
  6  4  2  0  0  0  0
  7  5  1  0  0  0  0
  8  4  1  0  0  0  0
  9 17  1  1  0  0  0
  9  6  1  0  0  0  0
  9 13  1  0  0  0  0
 10 20  1  0  0  0  0
 12  8  2  0  0  0  0
 13 10  1  0  0  0  0
 14 31  1  1  0  0  0
 14 15  1  0  0  0  0
 14 21  1  0  0  0  0
 15  3  1  6  0  0  0
 15 21  1  0  0  0  0
 16 11  1  1  0  0  0
 16 12  1  0  0  0  0
 18  1  1  0  0  0  0
 19  7  2  0  0  0  0
 19 23  1  0  0  0  0
 21 22  1  0  0  0  0
 22 33  1  0  0  0  0
 22 17  1  0  0  0  0
 23 11  2  0  0  0  0
 24 25  2  0  0  0  0
 25 19  1  0  0  0  0
 26 25  1  0  0  0  0
 27 29  1  0  0  0  0
 28 30  1  0  0  0  0
 28 29  1  0  0  0  0
 29 26  1  0  0  0  0
 30 24  1  0  0  0  0
 32 31  1  0  0  0  0
 33 34  1  0  0  0  0
 34 37  1  0  0  0  0
 35 34  1  0  0  0  0
 37 36  2  0  0  0  0
M  END
>  <MODEL>
6

>  <REMARK>
 VINA RESULT:      -6.0      3.187      6.678
  Name = 
  5 active torsions:
  status: ('A' for Active; 'I' for Inactive)
    1  A    between atoms: C_1  and  C_5
    2  A    between atoms: C_1  and  C_36
    3  A    between atoms: C_5  and  C_23
    4  A    between atoms: C_6  and  C_31
    5  A    between atoms: C_11  and  C_26
                            x       y       z     vdW  Elec       q    Type
                         _______ _______ _______ _____ _____    ______ ____

>  <TORSDO>
F 5

$$$$
=
 OpenBabel10262422543D

 37 42  0  0  1  0  0  0  0  0999 V2000
  191.1740  176.2230  145.3830 C   0  0  0  0  0  2  0  0  0  0  0  0
  186.9300  177.6040  144.5010 C   0  0  0  0  0  0  0  0  0  0  0  0
  184.5260  177.9860  141.7820 N   0  0  0  0  0  2  0  0  0  0  0  0
  189.3810  177.9160  145.1180 C   0  0  0  0  0  0  0  0  0  0  0  0
  186.0700  177.3210  143.5340 C   0  0  0  0  0  3  0  0  0  0  0  0
  188.3730  177.1680  144.2550 C   0  0  0  0  0  0  0  0  0  0  0  0
  184.7520  177.8630  143.1970 C   0  0  0  0  0  0  0  0  0  0  0  0
  188.9870  178.6900  146.1310 C   0  0  0  0  0  3  0  0  0  0  0  0
  188.7240  177.1650  142.7310 C   0  0  2  0  0  3  0  0  0  0  0  0
  190.2330  174.8770  143.1510 S   0  0  0  0  0  0  0  0  0  0  0  0
  185.2270  178.5670  146.1960 C   0  0  0  0  0  3  0  0  0  0  0  0
  187.5680  178.9140  146.4390 C   0  0  0  0  0  3  0  0  0  0  0  0
  190.0540  176.5110  142.3700 C   0  0  0  0  0  2  0  0  0  0  0  0
  185.4870  178.6660  139.7660 C   0  0  1  0  0  3  0  0  0  0  0  0
  185.5730  177.7170  140.8820 N   0  0  1  0  0  0  0  0  0  0  0  0
  186.5900  178.4290  145.6770 C   0  0  1  0  0  3  0  0  0  0  0  0
  188.6160  178.5490  142.0910 C   0  0  0  0  0  2  0  0  0  0  0  0
  190.8470  177.6560  144.9890 C   0  0  0  0  0  2  0  0  0  0  0  0
  183.8430  178.3430  144.0720 C   0  0  0  0  0  0  0  0  0  0  0  0
  191.6400  175.4250  144.1730 C   0  0  0  0  0  2  0  0  0  0  0  0
  186.4330  178.9200  140.8770 C   0  0  1  0  0  3  0  0  0  0  0  0
  187.9080  178.4970  140.7330 C   0  0  1  0  0  3  0  0  0  0  0  0
  184.0800  178.5030  145.5240 C   0  0  0  0  0  3  0  0  0  0  0  0
  181.4620  178.7010  144.4580 C   0  0  0  0  0  3  0  0  0  0  0  0
  182.4960  178.7550  143.6020 C   0  0  0  0  0  0  0  0  0  0  0  0
  182.3220  179.3080  142.2030 C   0  0  0  0  0  2  0  0  0  0  0  0
  180.7730  180.1900  140.6300 F   0  0  0  0  0  0  0  0  0  0  0  0
  180.0210  179.9980  142.8740 C   0  0  0  0  0  2  0  0  0  0  0  0
  180.8630  179.3980  141.7590 C   0  0  2  0  0  3  0  0  0  0  0  0
  180.0540  179.0520  144.0680 C   0  0  0  0  0  2  0  0  0  0  0  0
  186.0970  178.0310  138.5240 C   0  0  0  0  0  2  0  0  0  0  0  0
  184.9960  177.6660  137.5500 C   0  0  0  0  0  1  0  0  0  0  0  0
  188.6660  179.3250  139.6770 C   0  0  0  0  0  2  0  0  0  0  0  0
  189.4990  178.5500  138.6420 C   0  0  1  0  0  3  0  0  0  0  0  0
  189.4600  177.1740  138.8730 O   0  0  0  0  0  1  0  0  0  0  0  0
  189.1360  177.8990  136.2980 C   0  0  0  0  0  2  0  0  0  0  0  0
  189.1150  178.8510  137.2280 C   0  0  0  0  0  3  0  0  0  0  0  0
  2 16  1  0  0  0  0
  3  7  1  0  0  0  0
  4  8  1  0  0  0  0
  5  2  2  0  0  0  0
  6  2  1  0  0  0  0
  6  4  2  0  0  0  0
  7  5  1  0  0  0  0
  7 19  2  0  0  0  0
  8 12  2  0  0  0  0
  9 17  1  1  0  0  0
  9  6  1  0  0  0  0
 10 20  1  0  0  0  0
 13  9  1  0  0  0  0
 13 10  1  0  0  0  0
 14 31  1  6  0  0  0
 14 21  1  0  0  0  0
 14 15  1  0  0  0  0
 15  3  1  1  0  0  0
 16 11  1  1  0  0  0
 16 12  1  0  0  0  0
 18  4  1  0  0  0  0
 18  1  1  0  0  0  0
 19 23  1  0  0  0  0
 20  1  1  0  0  0  0
 21 15  1  0  0  0  0
 22 21  1  0  0  0  0
 22 17  1  0  0  0  0
 23 11  2  0  0  0  0
 25 19  1  0  0  0  0
 25 24  2  0  0  0  0
 26 25  1  0  0  0  0
 27 29  1  0  0  0  0
 28 30  1  0  0  0  0
 29 26  1  0  0  0  0
 29 28  1  0  0  0  0
 30 24  1  0  0  0  0
 32 31  1  0  0  0  0
 33 22  1  0  0  0  0
 34 35  1  0  0  0  0
 34 33  1  0  0  0  0
 36 37  2  0  0  0  0
 37 34  1  0  0  0  0
M  END
>  <MODEL>
7

>  <REMARK>
 VINA RESULT:      -6.0      3.694      7.821
  Name = 
  5 active torsions:
  status: ('A' for Active; 'I' for Inactive)
    1  A    between atoms: C_1  and  C_5
    2  A    between atoms: C_1  and  C_36
    3  A    between atoms: C_5  and  C_23
    4  A    between atoms: C_6  and  C_31
    5  A    between atoms: C_11  and  C_26
                            x       y       z     vdW  Elec       q    Type
                         _______ _______ _______ _____ _____    ______ ____

>  <TORSDO>
F 5

$$$$
=
 OpenBabel10262422543D

 37 42  0  0  1  0  0  0  0  0999 V2000
  191.7890  176.1110  148.4750 C   0  0  0  0  0  2  0  0  0  0  0  0
  188.0740  177.3850  146.1800 C   0  0  0  0  0  0  0  0  0  0  0  0
  186.6560  177.4970  142.8190 N   0  0  0  0  0  2  0  0  0  0  0  0
  190.2140  177.7630  147.5070 C   0  0  0  0  0  0  0  0  0  0  0  0
  187.5540  177.0070  145.0210 C   0  0  0  0  0  3  0  0  0  0  0  0
  189.5090  176.9330  146.4410 C   0  0  0  0  0  0  0  0  0  0  0  0
  186.4230  177.5100  144.2380 C   0  0  0  0  0  0  0  0  0  0  0  0
  189.5410  178.6280  148.2690 C   0  0  0  0  0  3  0  0  0  0  0  0
  190.3210  176.7890  145.1130 C   0  0  2  0  0  3  0  0  0  0  0  0
  191.5630  174.5570  146.1930 S   0  0  0  0  0  0  0  0  0  0  0  0
  185.9490  178.4940  147.1570 C   0  0  0  0  0  3  0  0  0  0  0  0
  188.1040  178.8730  148.0930 C   0  0  0  0  0  3  0  0  0  0  0  0
  191.6810  176.1100  145.2510 C   0  0  0  0  0  2  0  0  0  0  0  0
  188.2190  177.9900  141.1550 C   0  0  1  0  0  3  0  0  0  0  0  0
  187.9260  177.1500  142.3230 N   0  0  1  0  0  0  0  0  0  0  0  0
  187.4020  178.3140  147.1090 C   0  0  1  0  0  3  0  0  0  0  0  0
  190.4550  178.1060  144.3490 C   0  0  0  0  0  2  0  0  0  0  0  0
  191.6390  177.4990  147.8700 C   0  0  0  0  0  2  0  0  0  0  0  0
  185.2980  178.0660  144.7350 C   0  0  0  0  0  0  0  0  0  0  0  0
  192.5910  175.2050  147.5520 C   0  0  0  0  0  2  0  0  0  0  0  0
  188.7740  178.3510  142.4800 C   0  0  1  0  0  3  0  0  0  0  0  0
  190.2090  177.9230  142.8480 C   0  0  1  0  0  3  0  0  0  0  0  0
  185.0700  178.3630  146.1660 C   0  0  0  0  0  3  0  0  0  0  0  0
  184.4040  178.4910  142.5070 C   0  0  0  0  0  3  0  0  0  0  0  0
  184.1770  178.4250  143.8290 C   0  0  0  0  0  0  0  0  0  0  0  0
  182.7860  178.6280  144.3930 C   0  0  0  0  0  2  0  0  0  0  0  0
  180.5250  179.1430  143.8740 F   0  0  0  0  0  0  0  0  0  0  0  0
  181.9480  178.6280  142.0440 C   0  0  0  0  0  2  0  0  0  0  0  0
  181.8180  179.2840  143.4090 C   0  0  2  0  0  3  0  0  0  0  0  0
  183.3510  178.8900  141.5120 C   0  0  0  0  0  2  0  0  0  0  0  0
  189.1710  177.2430  140.2330 C   0  0  0  0  0  2  0  0  0  0  0  0
  189.1380  177.8720  138.8550 C   0  0  0  0  0  1  0  0  0  0  0  0
  191.2800  178.6510  142.0140 C   0  0  0  0  0  2  0  0  0  0  0  0
  192.4710  177.8140  141.5140 C   0  0  1  0  0  3  0  0  0  0  0  0
  192.3810  176.4870  141.9350 O   0  0  0  0  0  1  0  0  0  0  0  0
  192.7810  176.7650  139.3110 C   0  0  0  0  0  2  0  0  0  0  0  0
  192.6580  177.8780  140.0320 C   0  0  0  0  0  3  0  0  0  0  0  0
  2  6  1  0  0  0  0
  2 16  1  0  0  0  0
  3  7  1  0  0  0  0
  4 18  1  0  0  0  0
  4  8  1  0  0  0  0
  5  2  2  0  0  0  0
  6  4  2  0  0  0  0
  7 19  2  0  0  0  0
  7  5  1  0  0  0  0
  9 17  1  1  0  0  0
  9 13  1  0  0  0  0
  9  6  1  0  0  0  0
 10 20  1  0  0  0  0
 12  8  2  0  0  0  0
 13 10  1  0  0  0  0
 14 31  1  6  0  0  0
 14 15  1  0  0  0  0
 14 21  1  0  0  0  0
 15 21  1  0  0  0  0
 15  3  1  1  0  0  0
 16 11  1  1  0  0  0
 16 12  1  0  0  0  0
 18  1  1  0  0  0  0
 19 23  1  0  0  0  0
 20  1  1  0  0  0  0
 21 22  1  0  0  0  0
 22 17  1  0  0  0  0
 23 11  2  0  0  0  0
 24 25  2  0  0  0  0
 25 26  1  0  0  0  0
 25 19  1  0  0  0  0
 28 29  1  0  0  0  0
 29 27  1  0  0  0  0
 29 26  1  0  0  0  0
 30 28  1  0  0  0  0
 30 24  1  0  0  0  0
 32 31  1  0  0  0  0
 33 22  1  0  0  0  0
 34 35  1  0  0  0  0
 34 33  1  0  0  0  0
 36 37  2  0  0  0  0
 37 34  1  0  0  0  0
M  END
>  <MODEL>
8

>  <REMARK>
 VINA RESULT:      -5.9      4.872      9.209
  Name = 
  5 active torsions:
  status: ('A' for Active; 'I' for Inactive)
    1  A    between atoms: C_1  and  C_5
    2  A    between atoms: C_1  and  C_36
    3  A    between atoms: C_5  and  C_23
    4  A    between atoms: C_6  and  C_31
    5  A    between atoms: C_11  and  C_26
                            x       y       z     vdW  Elec       q    Type
                         _______ _______ _______ _____ _____    ______ ____

>  <TORSDO>
F 5

$$$$
=
 OpenBabel10262422543D

 37 42  0  0  1  0  0  0  0  0999 V2000
  192.4300  177.8900  142.5980 C   0  0  0  0  0  2  0  0  0  0  0  0
  188.3220  178.2520  140.6780 C   0  0  0  0  0  0  0  0  0  0  0  0
  184.8640  179.1560  141.4120 N   0  0  0  0  0  2  0  0  0  0  0  0
  190.3450  177.0030  141.5920 C   0  0  0  0  0  0  0  0  0  0  0  0
  187.2450  178.9620  140.9770 C   0  0  0  0  0  3  0  0  0  0  0  0
  189.3920  178.1790  141.7660 C   0  0  2  0  0  3  0  0  0  0  0  0
  185.8900  178.9790  140.4210 C   0  0  0  0  0  0  0  0  0  0  0  0
  190.3540  176.2790  140.4720 C   0  0  0  0  0  3  0  0  0  0  0  0
  188.7690  178.2820  143.1970 C   0  0  2  0  0  3  0  0  0  0  0  0
  190.9600  179.7960  143.9690 S   0  0  0  0  0  0  0  0  0  0  0  0
  187.7040  177.7180  138.2220 C   0  0  0  0  0  3  0  0  0  0  0  0
  189.4180  176.5300  139.3690 C   0  0  0  0  0  3  0  0  0  0  0  0
  189.7710  178.4670  144.3320 C   0  0  0  0  0  2  0  0  0  0  0  0
  184.1460  178.4840  143.5300 C   0  0  1  0  0  3  0  0  0  0  0  0
  185.2060  179.1650  142.7770 N   0  0  1  0  0  0  0  0  0  0  0  0
  188.4470  177.4380  139.4530 C   0  0  0  0  0  0  0  0  0  0  0  0
  187.8070  177.1380  143.5130 C   0  0  0  0  0  2  0  0  0  0  0  0
  191.4330  176.7410  142.5830 C   0  0  0  0  0  2  0  0  0  0  0  0
  185.5560  178.7300  139.1370 C   0  0  0  0  0  0  0  0  0  0  0  0
  192.3680  178.6400  143.9210 C   0  0  0  0  0  2  0  0  0  0  0  0
  185.3810  177.7500  143.1690 C   0  0  1  0  0  3  0  0  0  0  0  0
  186.5280  177.6370  144.1930 C   0  0  1  0  0  3  0  0  0  0  0  0
  186.5060  178.2830  138.0940 C   0  0  0  0  0  3  0  0  0  0  0  0
  183.5700  177.9080  137.9850 C   0  0  0  0  0  3  0  0  0  0  0  0
  184.1520  178.8970  138.6830 C   0  0  0  0  0  0  0  0  0  0  0  0
  183.3720  180.1330  139.0820 C   0  0  0  0  0  2  0  0  0  0  0  0
  181.2830  181.2580  138.9320 F   0  0  0  0  0  0  0  0  0  0  0  0
  181.3250  178.9890  138.2320 C   0  0  0  0  0  2  0  0  0  0  0  0
  182.0700  180.3120  138.3020 C   0  0  2  0  0  3  0  0  0  0  0  0
  182.1710  177.9980  137.4420 C   0  0  0  0  0  2  0  0  0  0  0  0
  184.1100  179.0380  144.9480 C   0  0  0  0  0  2  0  0  0  0  0  0
  182.6880  179.0030  145.4690 C   0  0  0  0  0  1  0  0  0  0  0  0
  186.1610  176.7610  145.4050 C   0  0  0  0  0  2  0  0  0  0  0  0
  186.8770  177.0630  146.7340 C   0  0  1  0  0  3  0  0  0  0  0  0
  188.2280  176.7220  146.6810 O   0  0  0  0  0  1  0  0  0  0  0  0
  187.5280  179.0020  148.1000 C   0  0  0  0  0  2  0  0  0  0  0  0
  186.7160  178.4810  147.1830 C   0  0  0  0  0  3  0  0  0  0  0  0
  1 20  1  0  0  0  0
  2  5  2  0  0  0  0
  4  6  1  0  0  0  0
  4 18  1  0  0  0  0
  6  2  1  6  0  0  0
  6  9  1  0  0  0  0
  7  5  1  0  0  0  0
  7  3  1  0  0  0  0
  8  4  2  0  0  0  0
  9 17  1  1  0  0  0
  9 13  1  0  0  0  0
 10 13  1  0  0  0  0
 11 16  1  0  0  0  0
 12 16  2  0  0  0  0
 12  8  1  0  0  0  0
 14 31  1  1  0  0  0
 15  3  1  6  0  0  0
 15 21  1  0  0  0  0
 15 14  1  0  0  0  0
 16  2  1  0  0  0  0
 17 22  1  0  0  0  0
 18  1  1  0  0  0  0
 19  7  2  0  0  0  0
 20 10  1  0  0  0  0
 21 14  1  0  0  0  0
 21 22  1  0  0  0  0
 22 33  1  0  0  0  0
 23 11  2  0  0  0  0
 23 19  1  0  0  0  0
 24 25  2  0  0  0  0
 25 26  1  0  0  0  0
 25 19  1  0  0  0  0
 28 29  1  0  0  0  0
 29 27  1  0  0  0  0
 29 26  1  0  0  0  0
 30 24  1  0  0  0  0
 30 28  1  0  0  0  0
 31 32  1  0  0  0  0
 33 34  1  0  0  0  0
 34 37  1  0  0  0  0
 35 34  1  0  0  0  0
 37 36  2  0  0  0  0
M  END
>  <MODEL>
9

>  <REMARK>
 VINA RESULT:      -5.7      3.985      8.996
  Name = 
  5 active torsions:
  status: ('A' for Active; 'I' for Inactive)
    1  A    between atoms: C_1  and  C_5
    2  A    between atoms: C_1  and  C_36
    3  A    between atoms: C_5  and  C_23
    4  A    between atoms: C_6  and  C_31
    5  A    between atoms: C_11  and  C_26
                            x       y       z     vdW  Elec       q    Type
                         _______ _______ _______ _____ _____    ______ ____

>  <TORSDO>
F 5

$$$$
