=
 OpenBabel10262421233D

 32 37  0  0  1  0  0  0  0  0999 V2000
  188.8200  176.7790  137.0740 C   0  0  0  0  0  2  0  0  0  0  0  0
  188.6120  177.5640  142.2520 C   0  0  0  0  0  0  0  0  0  0  0  0
  183.8570  178.7450  142.6990 C   0  0  0  0  0  3  0  0  0  0  0  0
  183.9400  178.7620  143.9940 N   0  0  0  0  0  0  0  0  0  0  0  0
  189.9330  177.2100  144.3150 C   0  0  0  0  0  0  0  0  0  0  0  0
  189.9140  177.2200  145.7060 C   0  0  0  0  0  0  0  0  0  0  0  0
  189.7210  177.7750  140.0770 N   0  0  2  0  0  0  0  0  0  0  0  0
  187.3340  178.2410  140.1710 C   0  0  0  0  0  2  0  0  0  0  0  0
  189.0520  177.4820  147.7040 N   0  0  0  0  0  0  0  0  0  0  0  0
  188.4140  177.9500  137.9610 C   0  0  0  0  0  2  0  0  0  0  0  0
  185.0350  178.4880  141.8640 C   0  0  0  0  0  3  0  0  0  0  0  0
  187.3740  177.9460  141.6090 N   0  0  0  0  0  0  0  0  0  0  0  0
  186.2240  178.2250  142.4150 C   0  0  2  0  0  3  0  0  0  0  0  0
  187.5530  177.8770  144.4290 C   0  0  0  0  0  0  0  0  0  0  0  0
  190.3550  177.1240  147.7900 C   0  0  0  0  0  3  0  0  0  0  0  0
  190.6790  176.1030  138.4390 C   0  0  0  0  0  2  0  0  0  0  0  0
  188.4320  177.5040  139.4180 C   0  0  1  0  0  3  0  0  0  0  0  0
  190.9210  176.9530  146.5640 N   0  0  0  0  0  0  0  0  0  0  0  0
  190.9130  177.3150  139.3420 C   0  0  0  0  0  2  0  0  0  0  0  0
  190.2670  176.5640  137.1140 N   0  0  0  0  0  0  0  0  0  0  0  0
  185.1820  178.5640  144.7490 C   0  0  0  0  0  3  0  0  0  0  0  0
  186.3640  178.1930  143.8770 C   0  0  0  0  0  0  0  0  0  0  0  0
  187.6390  177.8630  145.7960 N   0  0  0  0  0  0  0  0  0  0  0  0
  189.7160  177.0660  141.3530 C   0  0  0  0  0  2  0  0  0  0  0  0
  191.2410  176.8950  143.6590 C   0  0  0  0  0  1  0  0  0  0  0  0
  188.1420  177.7520  148.8020 C   0  0  0  0  0  1  0  0  0  0  0  0
  188.7120  177.5450  143.6210 C   0  0  0  0  0  0  0  0  0  0  0  0
  188.8010  177.5360  146.3940 C   0  0  0  0  0  0  0  0  0  0  0  0
  190.6520  175.5740  136.0990 C   0  0  0  0  0  2  0  0  0  0  0  0
  192.1090  175.2070  136.1270 C   0  0  0  0  0  0  0  0  0  0  0  0
  192.4950  173.9150  136.4580 O   0  0  0  0  0  1  0  0  0  0  0  0
  192.9810  176.0660  135.8370 O   0  0  0  0  0  0  0  0  0  0  0  0
  1 20  1  0  0  0  0
  1 10  1  0  0  0  0
  2 27  2  0  0  0  0
  3  4  1  0  0  0  0
  4 21  2  0  0  0  0
  5  6  2  0  0  0  0
  6 28  1  0  0  0  0
  6 18  1  0  0  0  0
  7 19  1  6  0  0  0
  7 24  1  0  0  0  0
  8 12  1  0  0  0  0
  9 15  1  0  0  0  0
  9 26  1  0  0  0  0
 11  3  2  0  0  0  0
 12  2  1  0  0  0  0
 12 13  1  0  0  0  0
 13 11  1  1  0  0  0
 13 22  1  0  0  0  0
 14 23  1  0  0  0  0
 16 19  1  0  0  0  0
 17 10  1  6  0  0  0
 17  7  1  0  0  0  0
 17  8  1  0  0  0  0
 18 15  2  0  0  0  0
 20 16  1  0  0  0  0
 22 14  2  0  0  0  0
 22 21  1  0  0  0  0
 23 28  2  0  0  0  0
 24  2  1  0  0  0  0
 25  5  1  0  0  0  0
 27  5  1  0  0  0  0
 27 14  1  0  0  0  0
 28  9  1  0  0  0  0
 29 30  1  0  0  0  0
 29 20  1  0  0  0  0
 30 31  1  0  0  0  0
 32 30  2  0  0  0  0
M  END
>  <MODEL>
1

>  <REMARK>
 VINA RESULT:      -9.9      0.000      0.000
  Name = 
  2 active torsions:
  status: ('A' for Active; 'I' for Inactive)
    1  A    between atoms: C_1  and  C_10
    2  A    between atoms: C_10  and  N_24
                            x       y       z     vdW  Elec       q    Type
                         _______ _______ _______ _____ _____    ______ ____

>  <TORSDO>
F 2

$$$$
=
 OpenBabel10262421233D

 32 37  0  0  1  0  0  0  0  0999 V2000
  191.6820  176.5990  144.4310 C   0  0  0  0  0  2  0  0  0  0  0  0
  186.8940  178.1370  142.9550 C   0  0  0  0  0  0  0  0  0  0  0  0
  187.5520  178.2580  138.0800 C   0  0  0  0  0  3  0  0  0  0  0  0
  186.2940  178.5020  137.8750 N   0  0  0  0  0  0  0  0  0  0  0  0
  184.6010  178.4310  143.8380 C   0  0  0  0  0  0  0  0  0  0  0  0
  183.2670  178.6600  143.5150 C   0  0  0  0  0  0  0  0  0  0  0  0
  188.8330  178.2430  144.4490 N   0  0  2  0  0  0  0  0  0  0  0  0
  189.2640  178.1610  142.0560 C   0  0  0  0  0  2  0  0  0  0  0  0
  181.5510  179.0350  142.2050 N   0  0  0  0  0  0  0  0  0  0  0  0
  191.1390  177.7720  143.6260 C   0  0  0  0  0  2  0  0  0  0  0  0
  188.0930  178.1460  139.4400 C   0  0  0  0  0  3  0  0  0  0  0  0
  187.8120  178.1190  141.8370 N   0  0  0  0  0  0  0  0  0  0  0  0
  187.2970  178.2530  140.5070 C   0  0  0  0  0  0  0  0  0  0  0  0
  185.0510  178.5460  141.4070 C   0  0  0  0  0  0  0  0  0  0  0  0
  181.1620  179.0030  143.5020 C   0  0  0  0  0  3  0  0  0  0  0  0
  189.8990  176.5930  146.0420 C   0  0  0  0  0  2  0  0  0  0  0  0
  189.6420  177.5830  143.4110 C   0  0  1  0  0  3  0  0  0  0  0  0
  182.2070  178.7710  144.3440 N   0  0  0  0  0  0  0  0  0  0  0  0
  189.2350  177.9550  145.8380 C   0  0  0  0  0  2  0  0  0  0  0  0
  191.3420  176.7290  145.8490 N   0  0  0  0  0  0  0  0  0  0  0  0
  185.3060  178.7160  138.9370 C   0  0  0  0  0  2  0  0  0  0  0  0
  185.8590  178.4900  140.3300 C   0  0  0  0  0  0  0  0  0  0  0  0
  183.7170  178.7720  141.1950 N   0  0  0  0  0  0  0  0  0  0  0  0
  187.4620  177.7660  144.3030 C   0  0  0  0  0  2  0  0  0  0  0  0
  184.9350  178.3210  145.2930 C   0  0  0  0  0  1  0  0  0  0  0  0
  180.7100  179.2640  141.0430 C   0  0  0  0  0  1  0  0  0  0  0  0
  185.5550  178.3620  142.7570 C   0  0  0  0  0  0  0  0  0  0  0  0
  182.8680  178.8200  142.2400 C   0  0  0  0  0  0  0  0  0  0  0  0
  192.0490  175.7030  146.6260 C   0  0  0  0  0  2  0  0  0  0  0  0
  192.4310  176.1430  148.0110 C   0  0  0  0  0  0  0  0  0  0  0  0
  192.0560  177.3990  148.4710 O   0  0  0  0  0  0  0  0  0  0  0  0
  193.0790  175.3700  148.7630 O   0  0  0  0  0  1  0  0  0  0  0  0
  1 20  1  0  0  0  0
  2 24  1  0  0  0  0
  3 11  1  0  0  0  0
  4  3  2  0  0  0  0
  4 21  1  0  0  0  0
  5 25  1  0  0  0  0
  6  5  2  0  0  0  0
  6 18  1  0  0  0  0
  7 24  1  1  0  0  0
  7 19  1  0  0  0  0
  9 28  1  0  0  0  0
  9 15  1  0  0  0  0
 10  1  1  0  0  0  0
 11 13  2  0  0  0  0
 12  8  1  0  0  0  0
 12  2  1  0  0  0  0
 13 12  1  0  0  0  0
 14 27  1  0  0  0  0
 15 18  2  0  0  0  0
 17  8  1  6  0  0  0
 17 10  1  0  0  0  0
 17  7  1  0  0  0  0
 19 16  1  0  0  0  0
 20 16  1  0  0  0  0
 20 29  1  0  0  0  0
 21 22  1  0  0  0  0
 22 13  1  0  0  0  0
 22 14  2  0  0  0  0
 23 14  1  0  0  0  0
 23 28  2  0  0  0  0
 26  9  1  0  0  0  0
 27  2  2  0  0  0  0
 27  5  1  0  0  0  0
 28  6  1  0  0  0  0
 29 30  1  0  0  0  0
 30 31  2  0  0  0  0
 30 32  1  0  0  0  0
M  END
>  <MODEL>
2

>  <REMARK>
 VINA RESULT:      -9.7      3.812      7.316
  Name = 
  2 active torsions:
  status: ('A' for Active; 'I' for Inactive)
    1  A    between atoms: C_1  and  C_10
    2  A    between atoms: C_10  and  N_24
                            x       y       z     vdW  Elec       q    Type
                         _______ _______ _______ _____ _____    ______ ____

>  <TORSDO>
F 2

$$$$
=
 OpenBabel10262421233D

 32 37  0  0  1  0  0  0  0  0999 V2000
  186.9930  177.3300  137.1440 C   0  0  0  0  0  2  0  0  0  0  0  0
  187.5790  177.8620  142.3260 C   0  0  0  0  0  0  0  0  0  0  0  0
  182.9550  179.0190  143.5460 C   0  0  0  0  0  3  0  0  0  0  0  0
  183.2340  178.9740  144.8130 N   0  0  0  0  0  0  0  0  0  0  0  0
  189.1950  177.4090  144.1450 C   0  0  0  0  0  0  0  0  0  0  0  0
  189.3880  177.3510  145.5220 C   0  0  0  0  0  0  0  0  0  0  0  0
  188.3460  178.1790  140.0200 N   0  0  2  0  0  0  0  0  0  0  0  0
  186.0050  178.6390  140.4980 C   0  0  0  0  0  2  0  0  0  0  0  0
  188.8410  177.5160  147.6370 N   0  0  0  0  0  0  0  0  0  0  0  0
  186.7350  178.4560  138.1380 C   0  0  0  0  0  2  0  0  0  0  0  0
  183.9920  178.8030  142.5310 C   0  0  0  0  0  3  0  0  0  0  0  0
  186.2610  178.2750  141.8970 N   0  0  0  0  0  0  0  0  0  0  0  0
  185.2480  178.5130  142.8820 C   0  0  2  0  0  3  0  0  0  0  0  0
  186.8650  178.0690  144.6510 C   0  0  0  0  0  0  0  0  0  0  0  0
  190.1390  177.1540  147.5070 C   0  0  0  0  0  3  0  0  0  0  0  0
  189.0320  176.5880  138.1770 C   0  0  0  0  0  2  0  0  0  0  0  0
  186.9710  177.9400  139.5520 C   0  0  1  0  0  3  0  0  0  0  0  0
  190.5120  177.0440  146.2020 N   0  0  0  0  0  0  0  0  0  0  0  0
  189.4090  177.7560  139.0920 C   0  0  0  0  0  2  0  0  0  0  0  0
  188.4280  177.1130  136.9540 N   0  0  0  0  0  0  0  0  0  0  0  0
  184.5750  178.7390  145.3600 C   0  0  0  0  0  3  0  0  0  0  0  0
  185.6090  178.4110  144.3020 C   0  0  0  0  0  0  0  0  0  0  0  0
  187.1570  177.9890  145.9870 N   0  0  0  0  0  0  0  0  0  0  0  0
  188.5300  177.4090  141.2460 C   0  0  0  0  0  2  0  0  0  0  0  0
  190.3870  177.1260  143.2830 C   0  0  0  0  0  1  0  0  0  0  0  0
  188.1100  177.7320  148.8730 C   0  0  0  0  0  1  0  0  0  0  0  0
  187.8860  177.7760  143.6610 C   0  0  0  0  0  0  0  0  0  0  0  0
  188.3950  177.6340  146.3840 C   0  0  0  0  0  0  0  0  0  0  0  0
  188.6470  176.1740  135.8460 C   0  0  0  0  0  2  0  0  0  0  0  0
  190.0580  175.6680  135.7450 C   0  0  0  0  0  0  0  0  0  0  0  0
  190.3450  174.3410  136.0360 O   0  0  0  0  0  1  0  0  0  0  0  0
  190.9810  176.4430  135.3840 O   0  0  0  0  0  0  0  0  0  0  0  0
  1 10  1  0  0  0  0
  2 27  2  0  0  0  0
  3  4  1  0  0  0  0
  4 21  2  0  0  0  0
  5  6  2  0  0  0  0
  6 18  1  0  0  0  0
  6 28  1  0  0  0  0
  7 19  1  6  0  0  0
  7 24  1  0  0  0  0
  8 12  1  0  0  0  0
  9 26  1  0  0  0  0
 11  3  2  0  0  0  0
 12  2  1  0  0  0  0
 12 13  1  0  0  0  0
 13 11  1  6  0  0  0
 13 22  1  0  0  0  0
 14 23  1  0  0  0  0
 15  9  1  0  0  0  0
 16 19  1  0  0  0  0
 17 10  1  6  0  0  0
 17  7  1  0  0  0  0
 17  8  1  0  0  0  0
 18 15  2  0  0  0  0
 20  1  1  0  0  0  0
 20 16  1  0  0  0  0
 22 14  2  0  0  0  0
 22 21  1  0  0  0  0
 23 28  2  0  0  0  0
 24  2  1  0  0  0  0
 25  5  1  0  0  0  0
 27  5  1  0  0  0  0
 27 14  1  0  0  0  0
 28  9  1  0  0  0  0
 29 20  1  0  0  0  0
 30 29  1  0  0  0  0
 30 31  1  0  0  0  0
 32 30  2  0  0  0  0
M  END
>  <MODEL>
3

>  <REMARK>
 VINA RESULT:      -9.7      1.169      1.326
  Name = 
  2 active torsions:
  status: ('A' for Active; 'I' for Inactive)
    1  A    between atoms: C_1  and  C_10
    2  A    between atoms: C_10  and  N_24
                            x       y       z     vdW  Elec       q    Type
                         _______ _______ _______ _____ _____    ______ ____

>  <TORSDO>
F 2

$$$$
=
 OpenBabel10262421233D

 32 37  0  0  1  0  0  0  0  0999 V2000
  184.8520  177.8940  137.5850 C   0  0  0  0  0  2  0  0  0  0  0  0
  187.3600  177.9100  142.1880 C   0  0  0  0  0  0  0  0  0  0  0  0
  183.5610  178.8430  145.1730 C   0  0  0  0  0  3  0  0  0  0  0  0
  184.2960  178.6750  146.2290 N   0  0  0  0  0  0  0  0  0  0  0  0
  189.5330  177.3070  143.2070 C   0  0  0  0  0  0  0  0  0  0  0  0
  190.2290  177.1130  144.3960 C   0  0  0  0  0  0  0  0  0  0  0  0
  187.2070  178.4740  139.8090 N   0  0  2  0  0  0  0  0  0  0  0  0
  185.2270  178.8360  141.1770 C   0  0  0  0  0  2  0  0  0  0  0  0
  190.5240  177.0510  146.5660 N   0  0  0  0  0  0  0  0  0  0  0  0
  185.0100  178.9080  138.7110 C   0  0  0  0  0  2  0  0  0  0  0  0
  184.1330  178.7520  143.8250 C   0  0  0  0  0  3  0  0  0  0  0  0
  185.9850  178.3370  142.3330 N   0  0  0  0  0  0  0  0  0  0  0  0
  185.4230  178.4540  143.6450 C   0  0  2  0  0  3  0  0  0  0  0  0
  187.5790  177.8650  144.6190 C   0  0  0  0  0  0  0  0  0  0  0  0
  191.6700  176.7310  145.9210 C   0  0  0  0  0  3  0  0  0  0  0  0
  187.1150  177.0930  137.6910 C   0  0  0  0  0  2  0  0  0  0  0  0
  185.7510  178.2560  139.8720 C   0  0  1  0  0  3  0  0  0  0  0  0
  191.5200  176.7610  144.5670 N   0  0  0  0  0  0  0  0  0  0  0  0
  187.8320  178.1690  138.5100 C   0  0  0  0  0  2  0  0  0  0  0  0
  186.1050  177.7270  136.8470 N   0  0  0  0  0  0  0  0  0  0  0  0
  185.7390  178.4130  146.2030 C   0  0  0  0  0  3  0  0  0  0  0  0
  186.2910  178.2160  144.8060 C   0  0  0  0  0  0  0  0  0  0  0  0
  188.3510  177.6550  145.7300 N   0  0  0  0  0  0  0  0  0  0  0  0
  187.8240  177.5870  140.7890 C   0  0  0  0  0  2  0  0  0  0  0  0
  190.3050  177.1370  141.9360 C   0  0  0  0  0  1  0  0  0  0  0  0
  190.3170  177.1260  148.0020 C   0  0  0  0  0  1  0  0  0  0  0  0
  188.1450  177.6950  143.2930 C   0  0  0  0  0  0  0  0  0  0  0  0
  189.6400  177.2870  145.5930 C   0  0  0  0  0  0  0  0  0  0  0  0
  185.8710  176.9100  135.6490 C   0  0  0  0  0  2  0  0  0  0  0  0
  187.1180  176.2950  135.0770 C   0  0  0  0  0  0  0  0  0  0  0  0
  188.1890  177.1010  134.7150 O   0  0  0  0  0  0  0  0  0  0  0  0
  187.1990  175.0470  134.9380 O   0  0  0  0  0  1  0  0  0  0  0  0
  1 10  1  0  0  0  0
  2 12  1  0  0  0  0
  2 27  2  0  0  0  0
  3  4  1  0  0  0  0
  5 27  1  0  0  0  0
  5  6  2  0  0  0  0
  6 18  1  0  0  0  0
  6 28  1  0  0  0  0
  7 19  1  6  0  0  0
  7 17  1  0  0  0  0
  7 24  1  0  0  0  0
  8 12  1  0  0  0  0
  9 26  1  0  0  0  0
 11  3  2  0  0  0  0
 12 13  1  0  0  0  0
 13 11  1  6  0  0  0
 13 22  1  0  0  0  0
 14 22  2  0  0  0  0
 14 23  1  0  0  0  0
 15  9  1  0  0  0  0
 16 19  1  0  0  0  0
 17 10  1  6  0  0  0
 17  8  1  0  0  0  0
 18 15  2  0  0  0  0
 20  1  1  0  0  0  0
 20 16  1  0  0  0  0
 21  4  2  0  0  0  0
 22 21  1  0  0  0  0
 24  2  1  0  0  0  0
 25  5  1  0  0  0  0
 27 14  1  0  0  0  0
 28 23  2  0  0  0  0
 28  9  1  0  0  0  0
 29 20  1  0  0  0  0
 30 29  1  0  0  0  0
 31 30  2  0  0  0  0
 32 30  1  0  0  0  0
M  END
>  <MODEL>
4

>  <REMARK>
 VINA RESULT:      -9.4      2.367      2.919
  Name = 
  2 active torsions:
  status: ('A' for Active; 'I' for Inactive)
    1  A    between atoms: C_1  and  C_10
    2  A    between atoms: C_10  and  N_24
                            x       y       z     vdW  Elec       q    Type
                         _______ _______ _______ _____ _____    ______ ____

>  <TORSDO>
F 2

$$$$
=
 OpenBabel10262421233D

 32 37  0  0  1  0  0  0  0  0999 V2000
  190.4860  176.6190  136.7030 C   0  0  0  0  0  2  0  0  0  0  0  0
  188.2940  177.6940  141.3420 C   0  0  0  0  0  0  0  0  0  0  0  0
  183.7800  178.9430  139.8310 C   0  0  0  0  0  3  0  0  0  0  0  0
  183.3510  179.0320  141.0530 N   0  0  0  0  0  0  0  0  0  0  0  0
  188.6910  177.4440  143.7710 C   0  0  0  0  0  0  0  0  0  0  0  0
  188.1300  177.5320  145.0420 C   0  0  0  0  0  0  0  0  0  0  0  0
  190.1700  177.7720  139.7680 N   0  0  2  0  0  0  0  0  0  0  0  0
  187.9520  178.2650  138.8960 C   0  0  0  0  0  2  0  0  0  0  0  0
  186.5640  177.9130  146.5260 N   0  0  0  0  0  0  0  0  0  0  0  0
  189.8010  177.8410  137.3030 C   0  0  0  0  0  2  0  0  0  0  0  0
  185.1830  178.6280  139.5380 C   0  0  0  0  0  3  0  0  0  0  0  0
  187.4180  178.0510  140.2470 N   0  0  0  0  0  0  0  0  0  0  0  0
  186.0530  178.3850  140.5230 C   0  0  2  0  0  3  0  0  0  0  0  0
  186.4780  178.1380  142.9110 C   0  0  0  0  0  0  0  0  0  0  0  0
  187.7180  177.5480  147.1340 C   0  0  0  0  0  3  0  0  0  0  0  0
  191.6410  176.0020  138.7180 C   0  0  0  0  0  2  0  0  0  0  0  0
  189.2340  177.4770  138.6700 C   0  0  1  0  0  3  0  0  0  0  0  0
  188.7130  177.3040  146.2370 N   0  0  0  0  0  0  0  0  0  0  0  0
  191.5400  177.2610  139.5820 C   0  0  0  0  0  2  0  0  0  0  0  0
  191.7940  176.3930  137.3180 N   0  0  0  0  0  0  0  0  0  0  0  0
  184.1920  178.8640  142.2430 C   0  0  0  0  0  3  0  0  0  0  0  0
  185.6100  178.4340  141.9230 C   0  0  0  0  0  0  0  0  0  0  0  0
  186.0210  178.2000  144.2010 N   0  0  0  0  0  0  0  0  0  0  0  0
  189.6460  177.1360  140.9720 C   0  0  0  0  0  2  0  0  0  0  0  0
  190.1410  177.0800  143.6970 C   0  0  0  0  0  1  0  0  0  0  0  0
  185.3060  178.2530  147.1660 C   0  0  0  0  0  1  0  0  0  0  0  0
  187.8500  177.7500  142.6390 C   0  0  0  0  0  0  0  0  0  0  0  0
  186.8480  177.8970  145.2220 C   0  0  0  0  0  0  0  0  0  0  0  0
  192.5140  175.3440  136.5840 C   0  0  0  0  0  2  0  0  0  0  0  0
  194.0100  175.4910  136.6210 C   0  0  0  0  0  0  0  0  0  0  0  0
  194.8130  174.3830  136.8580 O   0  0  0  0  0  1  0  0  0  0  0  0
  194.5380  176.6160  136.4250 O   0  0  0  0  0  0  0  0  0  0  0  0
  1 10  1  0  0  0  0
  1 20  1  0  0  0  0
  2 27  2  0  0  0  0
  3  4  1  0  0  0  0
  4 21  2  0  0  0  0
  5  6  2  0  0  0  0
  6 28  1  0  0  0  0
  6 18  1  0  0  0  0
  7 19  1  6  0  0  0
  7 24  1  0  0  0  0
  8 12  1  0  0  0  0
  9 15  1  0  0  0  0
  9 26  1  0  0  0  0
 11  3  2  0  0  0  0
 12 13  1  0  0  0  0
 12  2  1  0  0  0  0
 13 11  1  6  0  0  0
 13 22  1  0  0  0  0
 14 23  1  0  0  0  0
 16 19  1  0  0  0  0
 17 10  1  6  0  0  0
 17  8  1  0  0  0  0
 17  7  1  0  0  0  0
 18 15  2  0  0  0  0
 20 16  1  0  0  0  0
 22 21  1  0  0  0  0
 22 14  2  0  0  0  0
 23 28  2  0  0  0  0
 24  2  1  0  0  0  0
 25  5  1  0  0  0  0
 27 14  1  0  0  0  0
 27  5  1  0  0  0  0
 28  9  1  0  0  0  0
 29 30  1  0  0  0  0
 29 20  1  0  0  0  0
 30 31  1  0  0  0  0
 32 30  2  0  0  0  0
M  END
>  <MODEL>
5

>  <REMARK>
 VINA RESULT:      -9.0      1.458      1.973
  Name = 
  2 active torsions:
  status: ('A' for Active; 'I' for Inactive)
    1  A    between atoms: C_1  and  C_10
    2  A    between atoms: C_10  and  N_24
                            x       y       z     vdW  Elec       q    Type
                         _______ _______ _______ _____ _____    ______ ____

>  <TORSDO>
F 2

$$$$
=
 OpenBabel10262421233D

 32 37  0  0  1  0  0  0  0  0999 V2000
  183.2530  178.6140  145.0670 C   0  0  0  0  0  2  0  0  0  0  0  0
  187.6730  177.9460  142.3310 C   0  0  0  0  0  0  0  0  0  0  0  0
  190.7180  176.7320  146.0010 C   0  0  0  0  0  3  0  0  0  0  0  0
  191.6820  176.4710  145.1700 N   0  0  0  0  0  0  0  0  0  0  0  0
  188.4930  177.7310  140.0060 C   0  0  0  0  0  0  0  0  0  0  0  0
  189.5730  177.3950  139.1950 C   0  0  0  0  0  0  0  0  0  0  0  0
  185.5950  179.1470  142.8190 N   0  0  2  0  0  0  0  0  0  0  0  0
  186.9650  178.4610  144.7090 C   0  0  0  0  0  2  0  0  0  0  0  0
  191.6160  176.7530  138.7320 N   0  0  0  0  0  0  0  0  0  0  0  0
  184.6470  179.2270  145.1240 C   0  0  0  0  0  2  0  0  0  0  0  0
  189.4240  177.2380  145.5300 C   0  0  0  0  0  3  0  0  0  0  0  0
  187.9170  177.8780  143.7550 N   0  0  0  0  0  0  0  0  0  0  0  0
  189.1860  177.4090  144.2260 C   0  0  0  0  0  0  0  0  0  0  0  0
  189.9670  177.2160  141.9250 C   0  0  0  0  0  0  0  0  0  0  0  0
  190.9270  177.0050  137.5950 C   0  0  0  0  0  3  0  0  0  0  0  0
  183.1470  178.5310  142.6680 C   0  0  0  0  0  2  0  0  0  0  0  0
  185.5550  178.4980  144.1410 C   0  0  1  0  0  3  0  0  0  0  0  0
  189.6510  177.4080  137.8480 N   0  0  0  0  0  0  0  0  0  0  0  0
  184.2800  179.4610  142.2320 C   0  0  0  0  0  2  0  0  0  0  0  0
  182.5270  179.0650  143.8790 N   0  0  0  0  0  0  0  0  0  0  0  0
  191.6040  176.6720  143.7200 C   0  0  0  0  0  2  0  0  0  0  0  0
  190.2290  177.0920  143.2420 C   0  0  0  0  0  0  0  0  0  0  0  0
  190.9700  176.9120  141.0430 N   0  0  0  0  0  0  0  0  0  0  0  0
  186.2550  178.2260  141.9000 C   0  0  0  0  0  2  0  0  0  0  0  0
  187.2510  178.2020  139.3150 C   0  0  0  0  0  1  0  0  0  0  0  0
  192.9960  176.3140  138.8430 C   0  0  0  0  0  1  0  0  0  0  0  0
  188.6690  177.6420  141.4360 C   0  0  0  0  0  0  0  0  0  0  0  0
  190.7500  177.0050  139.7170 C   0  0  0  0  0  0  0  0  0  0  0  0
  181.1260  178.6290  143.9570 C   0  0  0  0  0  2  0  0  0  0  0  0
  180.2360  179.2500  142.9180 C   0  0  0  0  0  0  0  0  0  0  0  0
  179.5110  178.4450  142.0500 O   0  0  0  0  0  0  0  0  0  0  0  0
  180.1340  180.5020  142.8430 O   0  0  0  0  0  1  0  0  0  0  0  0
  1 10  1  0  0  0  0
  2 12  1  0  0  0  0
  4  3  2  0  0  0  0
  5 27  1  0  0  0  0
  6 28  1  0  0  0  0
  6  5  2  0  0  0  0
  7 24  1  6  0  0  0
  7 17  1  0  0  0  0
  9 26  1  0  0  0  0
  9 28  1  0  0  0  0
 11  3  1  0  0  0  0
 12 13  1  0  0  0  0
 12  8  1  0  0  0  0
 13 11  2  0  0  0  0
 14 22  2  0  0  0  0
 15 18  2  0  0  0  0
 15  9  1  0  0  0  0
 16 20  1  0  0  0  0
 17  8  1  1  0  0  0
 17 10  1  0  0  0  0
 18  6  1  0  0  0  0
 19 16  1  0  0  0  0
 19  7  1  0  0  0  0
 20 29  1  0  0  0  0
 20  1  1  0  0  0  0
 21  4  1  0  0  0  0
 22 21  1  0  0  0  0
 22 13  1  0  0  0  0
 23 14  1  0  0  0  0
 24  2  1  0  0  0  0
 25  5  1  0  0  0  0
 27 14  1  0  0  0  0
 27  2  2  0  0  0  0
 28 23  2  0  0  0  0
 30 29  1  0  0  0  0
 31 30  2  0  0  0  0
 32 30  1  0  0  0  0
M  END
>  <MODEL>
6

>  <REMARK>
 VINA RESULT:      -8.8      4.054      8.226
  Name = 
  2 active torsions:
  status: ('A' for Active; 'I' for Inactive)
    1  A    between atoms: C_1  and  C_10
    2  A    between atoms: C_10  and  N_24
                            x       y       z     vdW  Elec       q    Type
                         _______ _______ _______ _____ _____    ______ ____

>  <TORSDO>
F 2

$$$$
=
 OpenBabel10262421233D

 32 37  0  0  1  0  0  0  0  0999 V2000
  191.5150  176.6380  145.3090 C   0  0  0  0  0  2  0  0  0  0  0  0
  187.5010  178.0560  142.2520 C   0  0  0  0  0  0  0  0  0  0  0  0
  189.7020  177.7980  137.8590 C   0  0  0  0  0  3  0  0  0  0  0  0
  188.5840  178.0250  137.2390 N   0  0  0  0  0  0  0  0  0  0  0  0
  185.0530  178.4160  142.3190 C   0  0  0  0  0  0  0  0  0  0  0  0
  183.9010  178.6190  141.5650 C   0  0  0  0  0  0  0  0  0  0  0  0
  188.8550  178.2780  144.2820 N   0  0  2  0  0  0  0  0  0  0  0  0
  190.0340  178.0100  142.1700 C   0  0  0  0  0  2  0  0  0  0  0  0
  182.7110  178.8920  139.7460 N   0  0  0  0  0  0  0  0  0  0  0  0
  191.2910  177.7450  144.2870 C   0  0  0  0  0  2  0  0  0  0  0  0
  189.7720  177.7920  139.3240 C   0  0  0  0  0  3  0  0  0  0  0  0
  188.7300  177.9510  141.4960 N   0  0  0  0  0  0  0  0  0  0  0  0
  188.6770  177.9810  140.0650 C   0  0  0  0  0  0  0  0  0  0  0  0
  186.2680  178.3430  140.1640 C   0  0  0  0  0  0  0  0  0  0  0  0
  181.9240  178.9590  140.8450 C   0  0  0  0  0  3  0  0  0  0  0  0
  189.3080  176.7560  146.2510 C   0  0  0  0  0  2  0  0  0  0  0  0
  189.9400  177.5390  143.6130 C   0  0  1  0  0  3  0  0  0  0  0  0
  182.6340  178.7940  141.9950 N   0  0  0  0  0  0  0  0  0  0  0  0
  188.7790  178.0990  145.7420 C   0  0  0  0  0  2  0  0  0  0  0  0
  190.7380  176.8770  146.5260 N   0  0  0  0  0  0  0  0  0  0  0  0
  187.3110  178.3210  137.9050 C   0  0  0  0  0  2  0  0  0  0  0  0
  187.3790  178.2030  139.4140 C   0  0  0  0  0  0  0  0  0  0  0  0
  185.0800  178.5510  139.5150 N   0  0  0  0  0  0  0  0  0  0  0  0
  187.5930  177.7910  143.7340 C   0  0  0  0  0  2  0  0  0  0  0  0
  184.8960  178.4200  143.8080 C   0  0  0  0  0  1  0  0  0  0  0  0
  182.2970  179.0290  138.3610 C   0  0  0  0  0  1  0  0  0  0  0  0
  186.3030  178.2640  141.6140 C   0  0  0  0  0  0  0  0  0  0  0  0
  183.9400  178.6800  140.2220 C   0  0  0  0  0  0  0  0  0  0  0  0
  191.1300  175.9150  147.5640 C   0  0  0  0  0  2  0  0  0  0  0  0
  192.5110  176.1410  148.1140 C   0  0  0  0  0  0  0  0  0  0  0  0
  192.7530  177.2040  148.9730 O   0  0  0  0  0  1  0  0  0  0  0  0
  193.4470  175.3580  147.8070 O   0  0  0  0  0  0  0  0  0  0  0  0
  1 20  1  0  0  0  0
  2 24  1  0  0  0  0
  3 11  1  0  0  0  0
  4  3  2  0  0  0  0
  4 21  1  0  0  0  0
  5 25  1  0  0  0  0
  6 18  1  0  0  0  0
  6  5  2  0  0  0  0
  7 24  1  6  0  0  0
  7 19  1  0  0  0  0
  9 28  1  0  0  0  0
  9 15  1  0  0  0  0
 10  1  1  0  0  0  0
 11 13  2  0  0  0  0
 12  8  1  0  0  0  0
 12  2  1  0  0  0  0
 13 12  1  0  0  0  0
 14 27  1  0  0  0  0
 15 18  2  0  0  0  0
 16 20  1  0  0  0  0
 17  8  1  6  0  0  0
 17  7  1  0  0  0  0
 17 10  1  0  0  0  0
 19 16  1  0  0  0  0
 20 29  1  0  0  0  0
 21 22  1  0  0  0  0
 22 13  1  0  0  0  0
 22 14  2  0  0  0  0
 23 14  1  0  0  0  0
 23 28  2  0  0  0  0
 26  9  1  0  0  0  0
 27  2  2  0  0  0  0
 27  5  1  0  0  0  0
 28  6  1  0  0  0  0
 29 30  1  0  0  0  0
 30 31  1  0  0  0  0
 32 30  2  0  0  0  0
M  END
>  <MODEL>
7

>  <REMARK>
 VINA RESULT:      -8.8      3.555      7.799
  Name = 
  2 active torsions:
  status: ('A' for Active; 'I' for Inactive)
    1  A    between atoms: C_1  and  C_10
    2  A    between atoms: C_10  and  N_24
                            x       y       z     vdW  Elec       q    Type
                         _______ _______ _______ _____ _____    ______ ____

>  <TORSDO>
F 2

$$$$
=
 OpenBabel10262421233D

 32 37  0  0  1  0  0  0  0  0999 V2000
  191.7460  177.2980  141.8680 C   0  0  0  0  0  2  0  0  0  0  0  0
  186.5750  177.9930  142.3700 C   0  0  0  0  0  0  0  0  0  0  0  0
  186.2890  178.4160  147.2640 C   0  0  0  0  0  3  0  0  0  0  0  0
  185.0270  178.7150  147.2070 N   0  0  0  0  0  0  0  0  0  0  0  0
  184.5500  178.4730  141.0310 C   0  0  0  0  0  0  0  0  0  0  0  0
  183.2070  178.8340  141.0690 C   0  0  0  0  0  0  0  0  0  0  0  0
  188.5200  176.9060  141.3530 N   0  0  2  0  0  0  0  0  0  0  0  0
  188.5340  177.2000  143.7690 C   0  0  0  0  0  2  0  0  0  0  0  0
  181.2940  179.3680  141.9940 N   0  0  0  0  0  0  0  0  0  0  0  0
  190.6400  176.5730  142.6250 C   0  0  0  0  0  2  0  0  0  0  0  0
  187.0500  178.0890  146.0530 C   0  0  0  0  0  3  0  0  0  0  0  0
  187.2150  177.8360  143.6580 N   0  0  0  0  0  0  0  0  0  0  0  0
  186.4740  178.1280  144.8480 C   0  0  2  0  0  3  0  0  0  0  0  0
  184.4940  178.5860  143.5020 C   0  0  0  0  0  0  0  0  0  0  0  0
  181.1790  179.3390  140.6450 C   0  0  0  0  0  3  0  0  0  0  0  0
  190.4240  177.7340  139.9090 C   0  0  0  0  0  2  0  0  0  0  0  0
  189.3410  177.3590  142.4890 C   0  0  1  0  0  3  0  0  0  0  0  0
  182.3530  179.0090  140.0390 N   0  0  0  0  0  0  0  0  0  0  0  0
  189.2330  176.7870  140.0690 C   0  0  0  0  0  2  0  0  0  0  0  0
  191.6270  177.0830  140.4250 N   0  0  0  0  0  0  0  0  0  0  0  0
  184.2340  178.7320  145.9730 C   0  0  0  0  0  3  0  0  0  0  0  0
  185.0580  178.4980  144.7230 C   0  0  0  0  0  0  0  0  0  0  0  0
  183.1710  178.9320  143.4330 N   0  0  0  0  0  0  0  0  0  0  0  0
  187.4640  177.8930  141.1560 C   0  0  0  0  0  2  0  0  0  0  0  0
  185.1410  178.2080  139.6810 C   0  0  0  0  0  1  0  0  0  0  0  0
  180.2510  179.6740  142.9570 C   0  0  0  0  0  1  0  0  0  0  0  0
  185.2500  178.3410  142.2860 C   0  0  0  0  0  0  0  0  0  0  0  0
  182.5680  179.0480  142.2330 C   0  0  0  0  0  0  0  0  0  0  0  0
  192.8150  177.6150  139.7440 C   0  0  0  0  0  2  0  0  0  0  0  0
  193.3480  176.7200  138.6610 C   0  0  0  0  0  0  0  0  0  0  0  0
  192.7240  176.6790  137.4210 O   0  0  0  0  0  0  0  0  0  0  0  0
  194.3690  176.0150  138.8710 O   0  0  0  0  0  1  0  0  0  0  0  0
  1 10  1  0  0  0  0
  2 12  1  0  0  0  0
  4  3  1  0  0  0  0
  5  6  2  0  0  0  0
  5 27  1  0  0  0  0
  6 28  1  0  0  0  0
  7 19  1  6  0  0  0
  7 17  1  0  0  0  0
  9 28  1  0  0  0  0
  9 26  1  0  0  0  0
 11  3  2  0  0  0  0
 12  8  1  0  0  0  0
 12 13  1  0  0  0  0
 13 11  1  6  0  0  0
 14 22  2  0  0  0  0
 15  9  1  0  0  0  0
 16 19  1  0  0  0  0
 16 20  1  0  0  0  0
 17 10  1  1  0  0  0
 17  8  1  0  0  0  0
 18 15  2  0  0  0  0
 18  6  1  0  0  0  0
 20  1  1  0  0  0  0
 21  4  2  0  0  0  0
 22 13  1  0  0  0  0
 22 21  1  0  0  0  0
 23 14  1  0  0  0  0
 24  7  1  0  0  0  0
 24  2  1  0  0  0  0
 25  5  1  0  0  0  0
 27  2  2  0  0  0  0
 27 14  1  0  0  0  0
 28 23  2  0  0  0  0
 29 20  1  0  0  0  0
 30 32  1  0  0  0  0
 30 29  1  0  0  0  0
 31 30  2  0  0  0  0
M  END
>  <MODEL>
8

>  <REMARK>
 VINA RESULT:      -8.6      2.285      5.538
  Name = 
  2 active torsions:
  status: ('A' for Active; 'I' for Inactive)
    1  A    between atoms: C_1  and  C_10
    2  A    between atoms: C_10  and  N_24
                            x       y       z     vdW  Elec       q    Type
                         _______ _______ _______ _____ _____    ______ ____

>  <TORSDO>
F 2

$$$$
=
 OpenBabel10262421233D

 32 37  0  0  1  0  0  0  0  0999 V2000
  189.4670  177.4890  147.7230 C   0  0  0  0  0  2  0  0  0  0  0  0
  188.3380  177.6720  142.6080 C   0  0  0  0  0  0  0  0  0  0  0  0
  183.6110  179.0130  142.8720 C   0  0  0  0  0  3  0  0  0  0  0  0
  183.5350  179.1480  141.5830 N   0  0  0  0  0  0  0  0  0  0  0  0
  189.4280  177.6430  140.3860 C   0  0  0  0  0  0  0  0  0  0  0  0
  189.2570  177.8480  139.0200 C   0  0  0  0  0  0  0  0  0  0  0  0
  189.4210  176.6360  144.5460 N   0  0  2  0  0  0  0  0  0  0  0  0
  187.1260  177.3990  144.8170 C   0  0  0  0  0  2  0  0  0  0  0  0
  188.1700  178.3310  137.1810 N   0  0  0  0  0  0  0  0  0  0  0  0
  188.4380  176.8040  146.8320 C   0  0  0  0  0  2  0  0  0  0  0  0
  184.8440  178.5440  143.5160 C   0  0  0  0  0  3  0  0  0  0  0  0
  187.1520  177.8450  143.4180 N   0  0  0  0  0  0  0  0  0  0  0  0
  185.9370  178.2780  142.7960 C   0  0  0  0  0  0  0  0  0  0  0  0
  187.0360  178.2330  140.6200 C   0  0  0  0  0  0  0  0  0  0  0  0
  189.4590  178.0240  136.9050 C   0  0  0  0  0  3  0  0  0  0  0  0
  191.2550  177.3760  146.1220 C   0  0  0  0  0  2  0  0  0  0  0  0
  188.5190  177.3940  145.4290 C   0  0  1  0  0  3  0  0  0  0  0  0
  190.1640  177.7180  138.0300 N   0  0  0  0  0  0  0  0  0  0  0  0
  190.7540  176.3490  145.1050 C   0  0  0  0  0  2  0  0  0  0  0  0
  190.8140  176.9820  147.4590 N   0  0  0  0  0  0  0  0  0  0  0  0
  184.6200  178.8310  140.6490 C   0  0  0  0  0  2  0  0  0  0  0  0
  185.9160  178.4520  141.3380 C   0  0  0  0  0  0  0  0  0  0  0  0
  186.9700  178.4040  139.2630 N   0  0  0  0  0  0  0  0  0  0  0  0
  189.6330  177.4370  143.3460 C   0  0  0  0  0  2  0  0  0  0  0  0
  190.7810  177.1870  140.8370 C   0  0  0  0  0  1  0  0  0  0  0  0
  187.1340  178.6990  136.2320 C   0  0  0  0  0  1  0  0  0  0  0  0
  188.2860  177.8410  141.2470 C   0  0  0  0  0  0  0  0  0  0  0  0
  188.0680  178.2130  138.5060 C   0  0  0  0  0  0  0  0  0  0  0  0
  191.7480  177.5020  148.4660 C   0  0  0  0  0  2  0  0  0  0  0  0
  192.8540  176.5480  148.8230 C   0  0  0  0  0  0  0  0  0  0  0  0
  193.9140  176.9740  149.6110 O   0  0  0  0  0  1  0  0  0  0  0  0
  192.8130  175.3580  148.4180 O   0  0  0  0  0  0  0  0  0  0  0  0
  2 24  1  0  0  0  0
  2 12  1  0  0  0  0
  3 11  1  0  0  0  0
  4  3  2  0  0  0  0
  5 25  1  0  0  0  0
  5 27  1  0  0  0  0
  6  5  2  0  0  0  0
  7 24  1  6  0  0  0
  7 19  1  0  0  0  0
  7 17  1  0  0  0  0
  9 28  1  0  0  0  0
 10  1  1  0  0  0  0
 12  8  1  0  0  0  0
 13 12  1  0  0  0  0
 13 11  2  0  0  0  0
 14 27  1  0  0  0  0
 14 22  2  0  0  0  0
 15  9  1  0  0  0  0
 15 18  2  0  0  0  0
 16 20  1  0  0  0  0
 17  8  1  6  0  0  0
 17 10  1  0  0  0  0
 18  6  1  0  0  0  0
 19 16  1  0  0  0  0
 20  1  1  0  0  0  0
 20 29  1  0  0  0  0
 21 22  1  0  0  0  0
 21  4  1  0  0  0  0
 22 13  1  0  0  0  0
 23 14  1  0  0  0  0
 26  9  1  0  0  0  0
 27  2  2  0  0  0  0
 28  6  1  0  0  0  0
 28 23  2  0  0  0  0
 29 30  1  0  0  0  0
 30 31  1  0  0  0  0
 32 30  2  0  0  0  0
M  END
>  <MODEL>
9

>  <REMARK>
 VINA RESULT:      -8.5      3.526      7.594
  Name = 
  2 active torsions:
  status: ('A' for Active; 'I' for Inactive)
    1  A    between atoms: C_1  and  C_10
    2  A    between atoms: C_10  and  N_24
                            x       y       z     vdW  Elec       q    Type
                         _______ _______ _______ _____ _____    ______ ____

>  <TORSDO>
F 2

$$$$
