=
 OpenBabel10262421333D

 32 36  0  0  1  0  0  0  0  0999 V2000
  188.1340  177.1220  145.7180 C   0  0  1  0  0  3  0  0  0  0  0  0
  184.9530  178.3810  141.9130 C   0  0  0  0  0  0  0  0  0  0  0  0
  180.6450  178.9130  144.1200 C   0  0  0  0  0  3  0  0  0  0  0  0
  180.0140  178.9470  142.8750 C   0  0  0  0  0  3  0  0  0  0  0  0
  187.0170  178.4550  143.3290 C   0  0  1  0  0  3  0  0  0  0  0  0
  184.9190  178.5030  144.4320 C   0  0  0  0  0  2  0  0  0  0  0  0
  186.8450  177.9530  145.6540 C   0  0  0  0  0  2  0  0  0  0  0  0
  182.0310  178.7580  144.1970 C   0  0  0  0  0  3  0  0  0  0  0  0
  184.2010  178.4760  143.1030 C   0  0  0  0  0  0  0  0  0  0  0  0
  182.8030  178.6360  143.0310 C   0  0  0  0  0  0  0  0  0  0  0  0
  182.9270  178.5610  140.5890 C   0  0  0  0  0  0  0  0  0  0  0  0
  188.7180  176.8470  144.3260 C   0  0  0  0  0  2  0  0  0  0  0  0
  186.1940  177.7930  144.3560 N   0  0  2  0  0  0  0  0  0  0  0  0
  188.4930  178.0240  143.3780 C   0  0  0  0  0  2  0  0  0  0  0  0
  180.7670  178.8290  141.7050 C   0  0  0  0  0  3  0  0  0  0  0  0
  182.1610  178.6730  141.7660 C   0  0  0  0  0  0  0  0  0  0  0  0
  186.4400  178.1610  141.9470 C   0  0  0  0  0  2  0  0  0  0  0  0
  184.3120  178.4080  140.6750 C   0  0  0  0  0  3  0  0  0  0  0  0
  189.1680  177.8250  146.5820 C   0  0  0  0  0  2  0  0  0  0  0  0
  191.3090  176.5510  146.9490 C   0  0  0  0  0  0  0  0  0  0  0  0
  189.9600  176.8440  147.3070 N   0  0  0  0  0  2  0  0  0  0  0  0
  192.0370  175.5750  147.6840 N   0  0  0  0  0  1  0  0  0  0  0  0
  191.8610  177.1460  145.9850 O   0  0  0  0  0  0  0  0  0  0  0  0
  182.2960  178.5580  139.2320 C   0  0  0  0  0  2  0  0  0  0  0  0
  182.2350  177.1950  138.7150 N   0  0  0  0  0  0  0  0  0  0  0  0
  183.5580  176.0560  136.9390 C   0  0  1  0  0  3  0  0  0  0  0  0
  183.8570  175.2540  138.0450 O   0  0  0  0  0  1  0  0  0  0  0  0
  182.6180  177.2110  137.3010 C   0  0  2  0  0  3  0  0  0  0  0  0
  184.1130  177.4440  137.1650 C   0  0  0  0  0  2  0  0  0  0  0  0
  180.8630  176.6860  138.8560 C   0  0  0  0  0  2  0  0  0  0  0  0
  180.7400  175.5310  139.8490 C   0  0  0  0  0  2  0  0  0  0  0  0
  179.4380  175.6570  140.6100 C   0  0  0  0  0  1  0  0  0  0  0  0
  1 19  1  1  0  0  0
  2 17  1  0  0  0  0
  2  9  1  0  0  0  0
  3  8  2  0  0  0  0
  4  3  1  0  0  0  0
  5 17  1  6  0  0  0
  5 14  1  0  0  0  0
  5 13  1  0  0  0  0
  7  1  1  0  0  0  0
  9  6  1  0  0  0  0
 10  9  2  0  0  0  0
 10  8  1  0  0  0  0
 11 18  1  0  0  0  0
 11 16  2  0  0  0  0
 12  1  1  0  0  0  0
 13  6  1  1  0  0  0
 13  7  1  0  0  0  0
 14 12  1  0  0  0  0
 15 16  1  0  0  0  0
 15  4  2  0  0  0  0
 16 10  1  0  0  0  0
 18  2  2  0  0  0  0
 19 21  1  0  0  0  0
 20 21  1  0  0  0  0
 20 22  1  0  0  0  0
 23 20  2  0  0  0  0
 24 11  1  0  0  0  0
 25 30  1  0  0  0  0
 25 24  1  0  0  0  0
 26 29  1  0  0  0  0
 26 28  1  0  0  0  0
 26 27  1  1  0  0  0
 28 25  1  1  0  0  0
 29 28  1  0  0  0  0
 30 31  1  0  0  0  0
 31 32  1  0  0  0  0
M  END
>  <MODEL>
1

>  <REMARK>
 VINA RESULT:      -7.7      0.000      0.000
  Name = 
  7 active torsions:
  status: ('A' for Active; 'I' for Inactive)
    1  A    between atoms: C_2  and  C_24
    2  A    between atoms: C_6  and  C_7
    3  A    between atoms: C_7  and  N_32
    4  A    between atoms: N_10  and  C_24
    5  A    between atoms: C_16  and  C_27
    6  A    between atoms: C_22  and  N_32
    7  A    between atoms: C_27  and  N_32
                            x       y       z     vdW  Elec       q    Type
                         _______ _______ _______ _____ _____    ______ ____

>  <TORSDO>
F 7

$$$$
=
 OpenBabel10262421333D

 32 36  0  0  1  0  0  0  0  0999 V2000
  188.9110  177.8970  146.7160 C   0  0  1  0  0  3  0  0  0  0  0  0
  186.0170  178.2280  142.5100 C   0  0  0  0  0  0  0  0  0  0  0  0
  189.2170  177.8610  138.8580 C   0  0  0  0  0  3  0  0  0  0  0  0
  188.2290  178.2600  137.9550 C   0  0  0  0  0  3  0  0  0  0  0  0
  186.7270  177.4430  144.7790 C   0  0  1  0  0  3  0  0  0  0  0  0
  188.3550  177.4570  143.0560 C   0  0  0  0  0  2  0  0  0  0  0  0
  189.0520  177.3380  145.2930 C   0  0  0  0  0  2  0  0  0  0  0  0
  188.9190  177.7580  140.2190 C   0  0  0  0  0  3  0  0  0  0  0  0
  187.3270  177.9510  142.0650 C   0  0  0  0  0  0  0  0  0  0  0  0
  187.6310  178.0510  140.6930 C   0  0  0  0  0  0  0  0  0  0  0  0
  185.3300  178.7420  140.2390 C   0  0  0  0  0  0  0  0  0  0  0  0
  187.4990  178.4260  146.9940 C   0  0  0  0  0  2  0  0  0  0  0  0
  188.0620  177.9400  144.4040 N   0  0  2  0  0  0  0  0  0  0  0  0
  186.4340  177.5930  146.2810 C   0  0  0  0  0  2  0  0  0  0  0  0
  186.9430  178.5540  138.4110 C   0  0  0  0  0  3  0  0  0  0  0  0
  186.6280  178.4540  139.7750 C   0  0  0  0  0  0  0  0  0  0  0  0
  185.6630  178.1810  143.9700 C   0  0  0  0  0  2  0  0  0  0  0  0
  185.0400  178.6340  141.6010 C   0  0  0  0  0  3  0  0  0  0  0  0
  189.2740  176.8300  147.7360 C   0  0  0  0  0  2  0  0  0  0  0  0
  191.7010  176.2000  147.5040 C   0  0  0  0  0  0  0  0  0  0  0  0
  190.3240  175.9740  147.2070 N   0  0  0  0  0  2  0  0  0  0  0  0
  192.6900  175.3390  146.9530 N   0  0  0  0  0  1  0  0  0  0  0  0
  192.0490  177.1570  148.2460 O   0  0  0  0  0  0  0  0  0  0  0  0
  184.2450  179.2060  139.3190 C   0  0  0  0  0  2  0  0  0  0  0  0
  183.0600  178.3700  139.4850 N   0  0  0  0  0  0  0  0  0  0  0  0
  182.5050  176.3150  138.1930 C   0  0  1  0  0  3  0  0  0  0  0  0
  182.7800  175.7680  139.4500 O   0  0  0  0  0  1  0  0  0  0  0  0
  182.6720  177.8380  138.1760 C   0  0  2  0  0  3  0  0  0  0  0  0
  183.7650  176.9350  137.6320 C   0  0  0  0  0  2  0  0  0  0  0  0
  181.9680  179.1840  140.0390 C   0  0  0  0  0  2  0  0  0  0  0  0
  181.1360  178.4540  141.0930 C   0  0  0  0  0  2  0  0  0  0  0  0
  181.5070  178.9630  142.4690 C   0  0  0  0  0  1  0  0  0  0  0  0
  1 12  1  0  0  0  0
  1 19  1  1  0  0  0
  2 17  1  0  0  0  0
  3  8  2  0  0  0  0
  4 15  2  0  0  0  0
  4  3  1  0  0  0  0
  5 17  1  6  0  0  0
  5 14  1  0  0  0  0
  7  1  1  0  0  0  0
  8 10  1  0  0  0  0
  9  2  1  0  0  0  0
  9  6  1  0  0  0  0
 10  9  2  0  0  0  0
 11 18  1  0  0  0  0
 13  6  1  6  0  0  0
 13  5  1  0  0  0  0
 13  7  1  0  0  0  0
 14 12  1  0  0  0  0
 15 16  1  0  0  0  0
 16 11  2  0  0  0  0
 16 10  1  0  0  0  0
 18  2  2  0  0  0  0
 20 23  2  0  0  0  0
 21 20  1  0  0  0  0
 21 19  1  0  0  0  0
 22 20  1  0  0  0  0
 24 25  1  0  0  0  0
 24 11  1  0  0  0  0
 25 30  1  0  0  0  0
 26 27  1  1  0  0  0
 28 26  1  0  0  0  0
 28 25  1  1  0  0  0
 29 28  1  0  0  0  0
 29 26  1  0  0  0  0
 30 31  1  0  0  0  0
 31 32  1  0  0  0  0
M  END
>  <MODEL>
2

>  <REMARK>
 VINA RESULT:      -7.6      1.779      3.957
  Name = 
  7 active torsions:
  status: ('A' for Active; 'I' for Inactive)
    1  A    between atoms: C_2  and  C_24
    2  A    between atoms: C_6  and  C_7
    3  A    between atoms: C_7  and  N_32
    4  A    between atoms: N_10  and  C_24
    5  A    between atoms: C_16  and  C_27
    6  A    between atoms: C_22  and  N_32
    7  A    between atoms: C_27  and  N_32
                            x       y       z     vdW  Elec       q    Type
                         _______ _______ _______ _____ _____    ______ ____

>  <TORSDO>
F 7

$$$$
=
 OpenBabel10262421333D

 32 36  0  0  1  0  0  0  0  0999 V2000
  187.5750  177.1010  144.2450 C   0  0  1  0  0  3  0  0  0  0  0  0
  183.7580  178.7390  141.2590 C   0  0  0  0  0  0  0  0  0  0  0  0
  179.9120  178.8720  144.2440 C   0  0  0  0  0  3  0  0  0  0  0  0
  179.0680  179.0440  143.1450 C   0  0  0  0  0  3  0  0  0  0  0  0
  186.0410  178.6920  142.2840 C   0  0  1  0  0  3  0  0  0  0  0  0
  184.1750  178.5440  143.7380 C   0  0  0  0  0  2  0  0  0  0  0  0
  186.2910  177.8980  144.5180 C   0  0  0  0  0  2  0  0  0  0  0  0
  181.2900  178.7460  144.0530 C   0  0  0  0  0  3  0  0  0  0  0  0
  183.2300  178.6640  142.5650 C   0  0  0  0  0  0  0  0  0  0  0  0
  181.8410  178.7930  142.7630 C   0  0  0  0  0  0  0  0  0  0  0  0
  181.5250  179.0280  140.3490 C   0  0  0  0  0  0  0  0  0  0  0  0
  187.9000  177.0190  142.7490 C   0  0  0  0  0  2  0  0  0  0  0  0
  185.4190  177.8840  143.3470 N   0  0  2  0  0  0  0  0  0  0  0  0
  187.5040  178.2990  142.0140 C   0  0  0  0  0  2  0  0  0  0  0  0
  179.6000  179.0940  141.8550 C   0  0  0  0  0  3  0  0  0  0  0  0
  180.9830  178.9710  141.6470 C   0  0  0  0  0  0  0  0  0  0  0  0
  185.2270  178.5580  140.9990 C   0  0  0  0  0  2  0  0  0  0  0  0
  182.9040  178.9040  140.1680 C   0  0  0  0  0  3  0  0  0  0  0  0
  188.7430  177.7180  144.9960 C   0  0  0  0  0  2  0  0  0  0  0  0
  188.9070  177.5470  147.5030 C   0  0  0  0  0  0  0  0  0  0  0  0
  188.3240  178.1140  146.3310 N   0  0  0  0  0  2  0  0  0  0  0  0
  188.4530  177.9620  148.7860 N   0  0  0  0  0  1  0  0  0  0  0  0
  189.8180  176.6820  147.4120 O   0  0  0  0  0  0  0  0  0  0  0  0
  180.6620  179.1780  139.1370 C   0  0  0  0  0  2  0  0  0  0  0  0
  180.7280  177.9670  138.3250 N   0  0  0  0  0  0  0  0  0  0  0  0
  181.6440  178.2010  136.0220 C   0  0  1  0  0  3  0  0  0  0  0  0
  182.7900  177.8120  136.7210 O   0  0  0  0  0  1  0  0  0  0  0  0
  180.4190  178.3140  136.9360 C   0  0  2  0  0  3  0  0  0  0  0  0
  181.1900  179.5550  136.5210 C   0  0  0  0  0  2  0  0  0  0  0  0
  179.7480  176.9940  138.8280 C   0  0  0  0  0  2  0  0  0  0  0  0
  180.3720  175.8650  139.6470 C   0  0  0  0  0  2  0  0  0  0  0  0
  181.7540  175.5570  139.1110 C   0  0  0  0  0  1  0  0  0  0  0  0
  1  7  1  0  0  0  0
  1 19  1  1  0  0  0
  2  9  1  0  0  0  0
  4  3  1  0  0  0  0
  5 17  1  6  0  0  0
  5 13  1  0  0  0  0
  8  3  2  0  0  0  0
  9 10  2  0  0  0  0
  9  6  1  0  0  0  0
 10  8  1  0  0  0  0
 11 16  2  0  0  0  0
 12  1  1  0  0  0  0
 13  6  1  1  0  0  0
 13  7  1  0  0  0  0
 14  5  1  0  0  0  0
 14 12  1  0  0  0  0
 15  4  2  0  0  0  0
 16 15  1  0  0  0  0
 16 10  1  0  0  0  0
 17  2  1  0  0  0  0
 18 11  1  0  0  0  0
 18  2  2  0  0  0  0
 19 21  1  0  0  0  0
 20 22  1  0  0  0  0
 21 20  1  0  0  0  0
 23 20  2  0  0  0  0
 24 11  1  0  0  0  0
 25 30  1  0  0  0  0
 25 24  1  0  0  0  0
 26 29  1  0  0  0  0
 26 27  1  1  0  0  0
 26 28  1  0  0  0  0
 28 25  1  1  0  0  0
 29 28  1  0  0  0  0
 30 31  1  0  0  0  0
 32 31  1  0  0  0  0
M  END
>  <MODEL>
3

>  <REMARK>
 VINA RESULT:      -7.5      1.710      1.986
  Name = 
  7 active torsions:
  status: ('A' for Active; 'I' for Inactive)
    1  A    between atoms: C_2  and  C_24
    2  A    between atoms: C_6  and  C_7
    3  A    between atoms: C_7  and  N_32
    4  A    between atoms: N_10  and  C_24
    5  A    between atoms: C_16  and  C_27
    6  A    between atoms: C_22  and  N_32
    7  A    between atoms: C_27  and  N_32
                            x       y       z     vdW  Elec       q    Type
                         _______ _______ _______ _____ _____    ______ ____

>  <TORSDO>
F 7

$$$$
=
 OpenBabel10262421333D

 32 36  0  0  1  0  0  0  0  0999 V2000
  187.6170  178.9890  136.8410 C   0  0  1  0  0  3  0  0  0  0  0  0
  188.2190  177.4560  141.6850 C   0  0  0  0  0  0  0  0  0  0  0  0
  184.1900  179.0350  143.9200 C   0  0  0  0  0  3  0  0  0  0  0  0
  184.7670  178.7480  145.1580 C   0  0  0  0  0  3  0  0  0  0  0  0
  188.1890  177.2870  139.1880 C   0  0  1  0  0  3  0  0  0  0  0  0
  186.3040  178.2520  140.2520 C   0  0  0  0  0  2  0  0  0  0  0  0
  186.6330  178.6080  137.9560 C   0  0  0  0  0  2  0  0  0  0  0  0
  184.9040  178.7920  142.7430 C   0  0  0  0  0  3  0  0  0  0  0  0
  186.9260  178.0160  141.6080 C   0  0  0  0  0  0  0  0  0  0  0  0
  186.2010  178.2600  142.7910 C   0  0  0  0  0  0  0  0  0  0  0  0
  188.0840  177.4230  144.1090 C   0  0  0  0  0  0  0  0  0  0  0  0
  189.0560  178.5680  137.1680 C   0  0  0  0  0  2  0  0  0  0  0  0
  187.3270  178.4820  139.2340 N   0  0  2  0  0  0  0  0  0  0  0  0
  189.0950  177.2530  137.9450 C   0  0  0  0  0  2  0  0  0  0  0  0
  186.0560  178.2160  145.2230 C   0  0  0  0  0  3  0  0  0  0  0  0
  186.7860  177.9660  144.0500 C   0  0  0  0  0  0  0  0  0  0  0  0
  189.0440  177.2270  140.4510 C   0  0  0  0  0  2  0  0  0  0  0  0
  188.7890  177.1820  142.9280 C   0  0  0  0  0  3  0  0  0  0  0  0
  187.1830  178.3690  135.5240 C   0  0  0  0  0  2  0  0  0  0  0  0
  186.5480  175.9320  135.5280 C   0  0  0  0  0  0  0  0  0  0  0  0
  186.2270  177.3010  135.7690 N   0  0  0  0  0  2  0  0  0  0  0  0
  185.5720  174.9270  135.7730 N   0  0  0  0  0  1  0  0  0  0  0  0
  187.6860  175.6070  135.0960 O   0  0  0  0  0  0  0  0  0  0  0  0
  188.7600  177.1290  145.4110 C   0  0  0  0  0  2  0  0  0  0  0  0
  190.1810  177.4470  145.3170 N   0  0  0  0  0  0  0  0  0  0  0  0
  191.8580  176.3770  146.8150 C   0  0  1  0  0  3  0  0  0  0  0  0
  192.0550  175.6490  145.6380 O   0  0  0  0  0  1  0  0  0  0  0  0
  190.7570  177.4320  146.6640 C   0  0  2  0  0  3  0  0  0  0  0  0
  190.4680  176.1050  147.3440 C   0  0  0  0  0  2  0  0  0  0  0  0
  190.3400  178.7810  144.7190 C   0  0  0  0  0  2  0  0  0  0  0  0
  191.6800  178.9780  144.0120 C   0  0  0  0  0  2  0  0  0  0  0  0
  191.8840  177.8710  143.0000 C   0  0  0  0  0  1  0  0  0  0  0  0
  1 19  1  6  0  0  0
  1 12  1  0  0  0  0
  1  7  1  0  0  0  0
  2 18  1  0  0  0  0
  3  4  1  0  0  0  0
  4 15  2  0  0  0  0
  5 14  1  6  0  0  0
  5 13  1  0  0  0  0
  5 17  1  0  0  0  0
  6  9  1  0  0  0  0
  8 10  1  0  0  0  0
  8  3  2  0  0  0  0
  9  2  2  0  0  0  0
  9 10  1  0  0  0  0
 10 16  2  0  0  0  0
 11 24  1  0  0  0  0
 12 14  1  0  0  0  0
 13  7  1  6  0  0  0
 13  6  1  0  0  0  0
 16 11  1  0  0  0  0
 16 15  1  0  0  0  0
 17  2  1  0  0  0  0
 18 11  2  0  0  0  0
 19 21  1  0  0  0  0
 20 21  1  0  0  0  0
 20 22  1  0  0  0  0
 23 20  2  0  0  0  0
 25 24  1  0  0  0  0
 26 27  1  6  0  0  0
 26 29  1  0  0  0  0
 28 25  1  6  0  0  0
 28 26  1  0  0  0  0
 28 29  1  0  0  0  0
 30 25  1  0  0  0  0
 31 30  1  0  0  0  0
 32 31  1  0  0  0  0
M  END
>  <MODEL>
4

>  <REMARK>
 VINA RESULT:      -7.4      3.258      8.832
  Name = 
  7 active torsions:
  status: ('A' for Active; 'I' for Inactive)
    1  A    between atoms: C_2  and  C_24
    2  A    between atoms: C_6  and  C_7
    3  A    between atoms: C_7  and  N_32
    4  A    between atoms: N_10  and  C_24
    5  A    between atoms: C_16  and  C_27
    6  A    between atoms: C_22  and  N_32
    7  A    between atoms: C_27  and  N_32
                            x       y       z     vdW  Elec       q    Type
                         _______ _______ _______ _____ _____    ______ ____

>  <TORSDO>
F 7

$$$$
=
 OpenBabel10262421333D

 32 36  0  0  1  0  0  0  0  0999 V2000
  190.2770  176.5720  139.8690 C   0  0  1  0  0  3  0  0  0  0  0  0
  185.9200  178.6420  141.5740 C   0  0  0  0  0  0  0  0  0  0  0  0
  186.0680  177.8830  146.3820 C   0  0  0  0  0  3  0  0  0  0  0  0
  184.7260  178.2570  146.4800 C   0  0  0  0  0  3  0  0  0  0  0  0
  188.0640  178.4840  140.2920 C   0  0  1  0  0  3  0  0  0  0  0  0
  188.1070  177.9080  142.5910 C   0  0  0  0  0  2  0  0  0  0  0  0
  189.8660  177.2150  141.2020 C   0  0  0  0  0  2  0  0  0  0  0  0
  186.7030  177.8780  145.1380 C   0  0  0  0  0  3  0  0  0  0  0  0
  186.6400  178.2420  142.7200 C   0  0  0  0  0  0  0  0  0  0  0  0
  186.0050  178.2480  143.9780 C   0  0  0  0  0  0  0  0  0  0  0  0
  183.9350  179.0110  142.9220 C   0  0  0  0  0  0  0  0  0  0  0  0
  189.2620  176.8510  138.7530 C   0  0  0  0  0  2  0  0  0  0  0  0
  188.4220  177.4220  141.2490 N   0  0  2  0  0  0  0  0  0  0  0  0
  188.6440  178.2420  138.8880 C   0  0  0  0  0  2  0  0  0  0  0  0
  184.0180  178.6290  145.3360 C   0  0  0  0  0  3  0  0  0  0  0  0
  184.6420  178.6300  144.0790 C   0  0  0  0  0  0  0  0  0  0  0  0
  186.5440  178.6030  140.2080 C   0  0  0  0  0  2  0  0  0  0  0  0
  184.5770  179.0050  141.6830 C   0  0  0  0  0  3  0  0  0  0  0  0
  191.6530  177.0620  139.4530 C   0  0  0  0  0  2  0  0  0  0  0  0
  193.1320  176.2230  137.5950 C   0  0  0  0  0  0  0  0  0  0  0  0
  191.8880  176.7530  138.0510 N   0  0  0  0  0  2  0  0  0  0  0  0
  193.3150  175.9480  136.2120 N   0  0  0  0  0  1  0  0  0  0  0  0
  194.0710  176.0010  138.4050 O   0  0  0  0  0  0  0  0  0  0  0  0
  182.4870  179.3880  142.9680 C   0  0  0  0  0  2  0  0  0  0  0  0
  181.6990  178.4310  142.1980 N   0  0  0  0  0  0  0  0  0  0  0  0
  180.9850  178.2980  139.8160 C   0  0  1  0  0  3  0  0  0  0  0  0
  181.5870  177.0460  139.9800 O   0  0  0  0  0  1  0  0  0  0  0  0
  181.0450  179.1390  141.0950 C   0  0  2  0  0  3  0  0  0  0  0  0
  182.0320  179.3790  139.9660 C   0  0  0  0  0  2  0  0  0  0  0  0
  180.6870  177.8230  143.0730 C   0  0  0  0  0  2  0  0  0  0  0  0
  180.3780  178.6540  144.3190 C   0  0  0  0  0  2  0  0  0  0  0  0
  178.9950  179.2550  144.1930 C   0  0  0  0  0  1  0  0  0  0  0  0
  1 19  1  6  0  0  0
  1  7  1  0  0  0  0
  2 18  2  0  0  0  0
  2  9  1  0  0  0  0
  3  4  1  0  0  0  0
  5 14  1  6  0  0  0
  5 13  1  0  0  0  0
  6  9  1  0  0  0  0
  8  3  2  0  0  0  0
  9 10  2  0  0  0  0
 10 16  1  0  0  0  0
 10  8  1  0  0  0  0
 11 24  1  0  0  0  0
 11 16  2  0  0  0  0
 12 14  1  0  0  0  0
 12  1  1  0  0  0  0
 13  7  1  1  0  0  0
 13  6  1  0  0  0  0
 15  4  2  0  0  0  0
 16 15  1  0  0  0  0
 17  5  1  0  0  0  0
 17  2  1  0  0  0  0
 18 11  1  0  0  0  0
 20 21  1  0  0  0  0
 20 23  2  0  0  0  0
 21 19  1  0  0  0  0
 22 20  1  0  0  0  0
 25 24  1  0  0  0  0
 25 30  1  0  0  0  0
 26 29  1  0  0  0  0
 26 27  1  1  0  0  0
 26 28  1  0  0  0  0
 28 25  1  1  0  0  0
 29 28  1  0  0  0  0
 30 31  1  0  0  0  0
 32 31  1  0  0  0  0
M  END
>  <MODEL>
5

>  <REMARK>
 VINA RESULT:      -7.3      3.840      5.380
  Name = 
  7 active torsions:
  status: ('A' for Active; 'I' for Inactive)
    1  A    between atoms: C_2  and  C_24
    2  A    between atoms: C_6  and  C_7
    3  A    between atoms: C_7  and  N_32
    4  A    between atoms: N_10  and  C_24
    5  A    between atoms: C_16  and  C_27
    6  A    between atoms: C_22  and  N_32
    7  A    between atoms: C_27  and  N_32
                            x       y       z     vdW  Elec       q    Type
                         _______ _______ _______ _____ _____    ______ ____

>  <TORSDO>
F 7

$$$$
=
 OpenBabel10262421333D

 32 36  0  0  1  0  0  0  0  0999 V2000
  187.6870  177.2400  144.6050 C   0  0  1  0  0  3  0  0  0  0  0  0
  183.9640  178.5450  141.3480 C   0  0  0  0  0  0  0  0  0  0  0  0
  180.0030  178.8570  144.1640 C   0  0  0  0  0  3  0  0  0  0  0  0
  179.2000  178.9200  143.0240 C   0  0  0  0  0  3  0  0  0  0  0  0
  186.2060  178.6290  142.4580 C   0  0  1  0  0  3  0  0  0  0  0  0
  184.2870  178.5690  143.8480 C   0  0  0  0  0  2  0  0  0  0  0  0
  186.3810  178.0320  144.7600 C   0  0  0  0  0  2  0  0  0  0  0  0
  181.3900  178.7420  144.0370 C   0  0  0  0  0  3  0  0  0  0  0  0
  183.3870  178.5710  142.6350 C   0  0  0  0  0  0  0  0  0  0  0  0
  181.9890  178.6900  142.7690 C   0  0  0  0  0  0  0  0  0  0  0  0
  181.7640  178.7130  140.3330 C   0  0  0  0  0  0  0  0  0  0  0  0
  188.0720  177.0370  143.1340 C   0  0  0  0  0  2  0  0  0  0  0  0
  185.5550  177.9020  143.5630 N   0  0  2  0  0  0  0  0  0  0  0  0
  187.6840  178.2420  142.2780 C   0  0  0  0  0  2  0  0  0  0  0  0
  179.7800  178.8710  141.7550 C   0  0  0  0  0  3  0  0  0  0  0  0
  181.1720  178.7560  141.6110 C   0  0  0  0  0  0  0  0  0  0  0  0
  185.4440  178.3700  141.1600 C   0  0  0  0  0  2  0  0  0  0  0  0
  183.1510  178.6000  140.2150 C   0  0  0  0  0  3  0  0  0  0  0  0
  188.8150  177.9400  145.3430 C   0  0  0  0  0  2  0  0  0  0  0  0
  190.7820  176.8120  146.4400 C   0  0  0  0  0  0  0  0  0  0  0  0
  190.0270  177.1390  145.2740 N   0  0  0  0  0  2  0  0  0  0  0  0
  191.9670  176.0350  146.3160 N   0  0  0  0  0  1  0  0  0  0  0  0
  190.4110  177.2090  147.5770 O   0  0  0  0  0  0  0  0  0  0  0  0
  180.9470  178.7430  139.0810 C   0  0  0  0  0  2  0  0  0  0  0  0
  181.6100  179.5630  138.0730 N   0  0  0  0  0  0  0  0  0  0  0  0
  181.5190  182.0490  138.1840 C   0  0  1  0  0  3  0  0  0  0  0  0
  182.7970  181.8100  138.6980 O   0  0  0  0  0  1  0  0  0  0  0  0
  180.7910  180.7510  137.8190 C   0  0  2  0  0  3  0  0  0  0  0  0
  180.4860  181.4670  139.1230 C   0  0  0  0  0  2  0  0  0  0  0  0
  181.7580  178.7830  136.8350 C   0  0  0  0  0  2  0  0  0  0  0  0
  181.8620  177.2770  137.0720 C   0  0  0  0  0  2  0  0  0  0  0  0
  183.2470  176.8010  136.6900 C   0  0  0  0  0  1  0  0  0  0  0  0
  1  7  1  0  0  0  0
  1 19  1  1  0  0  0
  2  9  1  0  0  0  0
  4  3  1  0  0  0  0
  5 17  1  6  0  0  0
  5 13  1  0  0  0  0
  8  3  2  0  0  0  0
  9 10  2  0  0  0  0
  9  6  1  0  0  0  0
 10  8  1  0  0  0  0
 11 16  2  0  0  0  0
 12  1  1  0  0  0  0
 13  6  1  1  0  0  0
 13  7  1  0  0  0  0
 14  5  1  0  0  0  0
 14 12  1  0  0  0  0
 15  4  2  0  0  0  0
 16 15  1  0  0  0  0
 16 10  1  0  0  0  0
 17  2  1  0  0  0  0
 18 11  1  0  0  0  0
 18  2  2  0  0  0  0
 20 23  2  0  0  0  0
 21 19  1  0  0  0  0
 21 20  1  0  0  0  0
 22 20  1  0  0  0  0
 24 11  1  0  0  0  0
 25 24  1  0  0  0  0
 26 27  1  1  0  0  0
 26 29  1  0  0  0  0
 28 25  1  1  0  0  0
 28 26  1  0  0  0  0
 28 29  1  0  0  0  0
 30 31  1  0  0  0  0
 30 25  1  0  0  0  0
 32 31  1  0  0  0  0
M  END
>  <MODEL>
6

>  <REMARK>
 VINA RESULT:      -7.3      1.932      2.682
  Name = 
  7 active torsions:
  status: ('A' for Active; 'I' for Inactive)
    1  A    between atoms: C_2  and  C_24
    2  A    between atoms: C_6  and  C_7
    3  A    between atoms: C_7  and  N_32
    4  A    between atoms: N_10  and  C_24
    5  A    between atoms: C_16  and  C_27
    6  A    between atoms: C_22  and  N_32
    7  A    between atoms: C_27  and  N_32
                            x       y       z     vdW  Elec       q    Type
                         _______ _______ _______ _____ _____    ______ ____

>  <TORSDO>
F 7

$$$$
=
 OpenBabel10262421333D

 32 36  0  0  1  0  0  0  0  0999 V2000
  180.2610  179.7130  141.3150 C   0  0  1  0  0  3  0  0  0  0  0  0
  185.2560  178.6070  141.3560 C   0  0  0  0  0  0  0  0  0  0  0  0
  186.2350  177.7950  146.0560 C   0  0  0  0  0  3  0  0  0  0  0  0
  187.6020  177.8230  145.7740 C   0  0  0  0  0  3  0  0  0  0  0  0
  182.8660  178.5050  140.6180 C   0  0  1  0  0  3  0  0  0  0  0  0
  183.3140  178.3180  142.9380 C   0  0  0  0  0  2  0  0  0  0  0  0
  181.1410  178.8470  142.2280 C   0  0  0  0  0  2  0  0  0  0  0  0
  185.3060  177.9890  145.0310 C   0  0  0  0  0  3  0  0  0  0  0  0
  184.7990  178.4100  142.6760 C   0  0  0  0  0  0  0  0  0  0  0  0
  185.7320  178.2110  143.7130 C   0  0  0  0  0  0  0  0  0  0  0  0
  187.5600  178.4500  142.1050 C   0  0  0  0  0  0  0  0  0  0  0  0
  180.9760  180.0970  140.0130 C   0  0  0  0  0  2  0  0  0  0  0  0
  182.5550  179.0720  141.9420 N   0  0  2  0  0  0  0  0  0  0  0  0
  181.8940  178.9780  139.5230 C   0  0  0  0  0  2  0  0  0  0  0  0
  188.0430  178.0420  144.4680 C   0  0  0  0  0  3  0  0  0  0  0  0
  187.1210  178.2370  143.4260 C   0  0  0  0  0  0  0  0  0  0  0  0
  184.2960  178.8710  140.2300 C   0  0  0  0  0  2  0  0  0  0  0  0
  186.6240  178.6410  141.0870 C   0  0  0  0  0  3  0  0  0  0  0  0
  178.9630  178.9880  140.9980 C   0  0  0  0  0  2  0  0  0  0  0  0
  179.0100  176.4900  140.6840 C   0  0  0  0  0  0  0  0  0  0  0  0
  179.0060  177.6360  141.5330 N   0  0  0  0  0  2  0  0  0  0  0  0
  179.0410  175.1890  141.2570 N   0  0  0  0  0  1  0  0  0  0  0  0
  178.9830  176.6200  139.4310 O   0  0  0  0  0  0  0  0  0  0  0  0
  189.0120  178.5220  141.7550 C   0  0  0  0  0  2  0  0  0  0  0  0
  189.4960  177.2020  141.3650 N   0  0  0  0  0  0  0  0  0  0  0  0
  191.1990  176.1320  142.8320 C   0  0  1  0  0  3  0  0  0  0  0  0
  190.0250  175.5590  143.3310 O   0  0  0  0  0  1  0  0  0  0  0  0
  190.9230  177.1100  141.6860 C   0  0  2  0  0  3  0  0  0  0  0  0
  191.1780  177.6210  143.0930 C   0  0  0  0  0  2  0  0  0  0  0  0
  189.2960  177.0220  139.9200 C   0  0  0  0  0  2  0  0  0  0  0  0
  189.6700  178.2520  139.0930 C   0  0  0  0  0  2  0  0  0  0  0  0
  188.7030  178.3960  137.9380 C   0  0  0  0  0  1  0  0  0  0  0  0
  1 19  1  6  0  0  0
  1  7  1  0  0  0  0
  2  9  1  0  0  0  0
  4  3  1  0  0  0  0
  5 14  1  6  0  0  0
  5 13  1  0  0  0  0
  8  3  2  0  0  0  0
  9  6  1  0  0  0  0
  9 10  2  0  0  0  0
 10  8  1  0  0  0  0
 11 16  2  0  0  0  0
 12  1  1  0  0  0  0
 13  7  1  1  0  0  0
 13  6  1  0  0  0  0
 14 12  1  0  0  0  0
 15  4  2  0  0  0  0
 16 10  1  0  0  0  0
 16 15  1  0  0  0  0
 17  5  1  0  0  0  0
 17  2  1  0  0  0  0
 18  2  2  0  0  0  0
 18 11  1  0  0  0  0
 19 21  1  0  0  0  0
 20 22  1  0  0  0  0
 20 21  1  0  0  0  0
 23 20  2  0  0  0  0
 24 11  1  0  0  0  0
 25 24  1  0  0  0  0
 26 29  1  0  0  0  0
 26 27  1  1  0  0  0
 28 25  1  1  0  0  0
 28 26  1  0  0  0  0
 28 29  1  0  0  0  0
 30 25  1  0  0  0  0
 31 30  1  0  0  0  0
 32 31  1  0  0  0  0
M  END
>  <MODEL>
7

>  <REMARK>
 VINA RESULT:      -7.3      2.785      8.270
  Name = 
  7 active torsions:
  status: ('A' for Active; 'I' for Inactive)
    1  A    between atoms: C_2  and  C_24
    2  A    between atoms: C_6  and  C_7
    3  A    between atoms: C_7  and  N_32
    4  A    between atoms: N_10  and  C_24
    5  A    between atoms: C_16  and  C_27
    6  A    between atoms: C_22  and  N_32
    7  A    between atoms: C_27  and  N_32
                            x       y       z     vdW  Elec       q    Type
                         _______ _______ _______ _____ _____    ______ ____

>  <TORSDO>
F 7

$$$$
=
 OpenBabel10262421333D

 32 36  0  0  1  0  0  0  0  0999 V2000
  190.5530  176.5850  139.6950 C   0  0  1  0  0  3  0  0  0  0  0  0
  185.8650  178.4360  140.5720 C   0  0  0  0  0  0  0  0  0  0  0  0
  185.4740  178.3800  145.4250 C   0  0  0  0  0  3  0  0  0  0  0  0
  184.1050  178.6300  145.3160 C   0  0  0  0  0  3  0  0  0  0  0  0
  188.1570  178.3110  139.5750 C   0  0  1  0  0  3  0  0  0  0  0  0
  187.9610  178.0710  141.9250 C   0  0  0  0  0  2  0  0  0  0  0  0
  189.9300  177.3660  140.8610 C   0  0  0  0  0  2  0  0  0  0  0  0
  186.2570  178.2630  144.2740 C   0  0  0  0  0  3  0  0  0  0  0  0
  186.4660  178.2740  141.8370 C   0  0  0  0  0  0  0  0  0  0  0  0
  185.6810  178.3950  143.0010 C   0  0  0  0  0  0  0  0  0  0  0  0
  183.7040  178.7940  141.6190 C   0  0  0  0  0  0  0  0  0  0  0  0
  189.6670  176.6030  138.4440 C   0  0  0  0  0  2  0  0  0  0  0  0
  188.4780  177.4340  140.7150 N   0  0  2  0  0  0  0  0  0  0  0  0
  188.9260  177.9310  138.2970 C   0  0  0  0  0  2  0  0  0  0  0  0
  183.5170  178.7660  144.0570 C   0  0  0  0  0  3  0  0  0  0  0  0
  184.2910  178.6510  142.8910 C   0  0  0  0  0  0  0  0  0  0  0  0
  186.6560  178.2670  139.3050 C   0  0  0  0  0  2  0  0  0  0  0  0
  184.4940  178.6770  140.4740 C   0  0  0  0  0  3  0  0  0  0  0  0
  191.9260  177.1450  139.3650 C   0  0  0  0  0  2  0  0  0  0  0  0
  193.5210  176.0490  137.7520 C   0  0  0  0  0  0  0  0  0  0  0  0
  192.3110  176.7570  138.0170 N   0  0  0  0  0  2  0  0  0  0  0  0
  193.8550  175.7020  136.4140 N   0  0  0  0  0  1  0  0  0  0  0  0
  194.2970  175.7310  138.6930 O   0  0  0  0  0  0  0  0  0  0  0  0
  182.2370  179.0290  141.4460 C   0  0  0  0  0  2  0  0  0  0  0  0
  181.7740  178.4020  140.2120 N   0  0  0  0  0  0  0  0  0  0  0  0
  181.2810  179.5460  138.0560 C   0  0  1  0  0  3  0  0  0  0  0  0
  182.4270  178.8210  137.7120 O   0  0  0  0  0  1  0  0  0  0  0  0
  180.8790  179.3320  139.5190 C   0  0  2  0  0  3  0  0  0  0  0  0
  181.6380  180.5790  139.1010 C   0  0  0  0  0  2  0  0  0  0  0  0
  181.0530  177.1640  140.5400 C   0  0  0  0  0  2  0  0  0  0  0  0
  181.2070  176.0700  139.4830 C   0  0  0  0  0  2  0  0  0  0  0  0
  182.6750  175.7600  139.2890 C   0  0  0  0  0  1  0  0  0  0  0  0
  1 19  1  6  0  0  0
  1  7  1  0  0  0  0
  2  9  1  0  0  0  0
  4  3  1  0  0  0  0
  5 14  1  6  0  0  0
  5 13  1  0  0  0  0
  8  3  2  0  0  0  0
  9  6  1  0  0  0  0
  9 10  2  0  0  0  0
 10  8  1  0  0  0  0
 11 16  2  0  0  0  0
 12  1  1  0  0  0  0
 13  7  1  1  0  0  0
 13  6  1  0  0  0  0
 14 12  1  0  0  0  0
 15  4  2  0  0  0  0
 16 10  1  0  0  0  0
 16 15  1  0  0  0  0
 17  5  1  0  0  0  0
 17  2  1  0  0  0  0
 18  2  2  0  0  0  0
 18 11  1  0  0  0  0
 20 21  1  0  0  0  0
 20 23  2  0  0  0  0
 21 19  1  0  0  0  0
 22 20  1  0  0  0  0
 24 11  1  0  0  0  0
 25 30  1  0  0  0  0
 25 24  1  0  0  0  0
 26 27  1  1  0  0  0
 26 29  1  0  0  0  0
 26 28  1  0  0  0  0
 28 25  1  1  0  0  0
 29 28  1  0  0  0  0
 31 30  1  0  0  0  0
 32 31  1  0  0  0  0
M  END
>  <MODEL>
8

>  <REMARK>
 VINA RESULT:      -7.2      4.009      5.069
  Name = 
  7 active torsions:
  status: ('A' for Active; 'I' for Inactive)
    1  A    between atoms: C_2  and  C_24
    2  A    between atoms: C_6  and  C_7
    3  A    between atoms: C_7  and  N_32
    4  A    between atoms: N_10  and  C_24
    5  A    between atoms: C_16  and  C_27
    6  A    between atoms: C_22  and  N_32
    7  A    between atoms: C_27  and  N_32
                            x       y       z     vdW  Elec       q    Type
                         _______ _______ _______ _____ _____    ______ ____

>  <TORSDO>
F 7

$$$$
=
 OpenBabel10262421333D

 32 36  0  0  1  0  0  0  0  0999 V2000
  187.8840  178.9830  136.6290 C   0  0  1  0  0  3  0  0  0  0  0  0
  188.2690  177.3400  141.4590 C   0  0  0  0  0  0  0  0  0  0  0  0
  184.2580  179.0740  143.6070 C   0  0  0  0  0  3  0  0  0  0  0  0
  184.7840  178.7380  144.8560 C   0  0  0  0  0  3  0  0  0  0  0  0
  188.3040  177.2150  138.9590 C   0  0  1  0  0  3  0  0  0  0  0  0
  186.4370  178.2530  139.9860 C   0  0  0  0  0  2  0  0  0  0  0  0
  186.8500  178.6310  137.7080 C   0  0  0  0  0  2  0  0  0  0  0  0
  184.9930  178.8180  142.4470 C   0  0  0  0  0  3  0  0  0  0  0  0
  187.0070  177.9630  141.3550 C   0  0  0  0  0  0  0  0  0  0  0  0
  186.2610  178.2210  142.5220 C   0  0  0  0  0  0  0  0  0  0  0  0
  188.0620  177.2710  143.8770 C   0  0  0  0  0  0  0  0  0  0  0  0
  189.2900  178.4860  136.9880 C   0  0  0  0  0  2  0  0  0  0  0  0
  187.5000  178.4490  139.0030 N   0  0  2  0  0  0  0  0  0  0  0  0
  189.2430  177.1570  137.7420 C   0  0  0  0  0  2  0  0  0  0  0  0
  186.0430  178.1440  144.9470 C   0  0  0  0  0  3  0  0  0  0  0  0
  186.7940  177.8780  143.7910 C   0  0  0  0  0  0  0  0  0  0  0  0
  189.1180  177.0910  140.2440 C   0  0  0  0  0  2  0  0  0  0  0  0
  188.7890  177.0170  142.7120 C   0  0  0  0  0  3  0  0  0  0  0  0
  187.4580  178.4070  135.2890 C   0  0  0  0  0  2  0  0  0  0  0  0
  186.5760  176.0490  135.2750 C   0  0  0  0  0  0  0  0  0  0  0  0
  186.3820  177.4470  135.4790 N   0  0  0  0  0  2  0  0  0  0  0  0
  185.4870  175.1530  135.4640 N   0  0  0  0  0  1  0  0  0  0  0  0
  187.7000  175.6000  134.9270 O   0  0  0  0  0  0  0  0  0  0  0  0
  188.6850  176.9230  145.1910 C   0  0  0  0  0  2  0  0  0  0  0  0
  189.6500  177.9490  145.5730 N   0  0  0  0  0  0  0  0  0  0  0  0
  191.9890  177.8570  144.7240 C   0  0  1  0  0  3  0  0  0  0  0  0
  191.4360  178.8120  143.8650 O   0  0  0  0  0  1  0  0  0  0  0  0
  190.9650  177.3220  145.7300 C   0  0  2  0  0  3  0  0  0  0  0  0
  191.3180  176.5230  144.4880 C   0  0  0  0  0  2  0  0  0  0  0  0
  189.2310  178.5590  146.8430 C   0  0  0  0  0  2  0  0  0  0  0  0
  189.1460  177.5630  148.0000 C   0  0  0  0  0  2  0  0  0  0  0  0
  187.9300  177.8770  148.8450 C   0  0  0  0  0  1  0  0  0  0  0  0
  1 19  1  6  0  0  0
  1 12  1  0  0  0  0
  1  7  1  0  0  0  0
  2 18  1  0  0  0  0
  3  4  1  0  0  0  0
  4 15  2  0  0  0  0
  5 14  1  6  0  0  0
  5 13  1  0  0  0  0
  5 17  1  0  0  0  0
  6  9  1  0  0  0  0
  8 10  1  0  0  0  0
  8  3  2  0  0  0  0
  9  2  2  0  0  0  0
  9 10  1  0  0  0  0
 10 16  2  0  0  0  0
 11 24  1  0  0  0  0
 12 14  1  0  0  0  0
 13  7  1  6  0  0  0
 13  6  1  0  0  0  0
 16 11  1  0  0  0  0
 16 15  1  0  0  0  0
 17  2  1  0  0  0  0
 18 11  2  0  0  0  0
 19 21  1  0  0  0  0
 20 22  1  0  0  0  0
 20 21  1  0  0  0  0
 23 20  2  0  0  0  0
 24 25  1  0  0  0  0
 25 30  1  0  0  0  0
 26 27  1  6  0  0  0
 26 28  1  0  0  0  0
 28 25  1  6  0  0  0
 29 26  1  0  0  0  0
 29 28  1  0  0  0  0
 30 31  1  0  0  0  0
 31 32  1  0  0  0  0
M  END
>  <MODEL>
9

>  <REMARK>
 VINA RESULT:      -7.1      3.297      8.682
  Name = 
  7 active torsions:
  status: ('A' for Active; 'I' for Inactive)
    1  A    between atoms: C_2  and  C_24
    2  A    between atoms: C_6  and  C_7
    3  A    between atoms: C_7  and  N_32
    4  A    between atoms: N_10  and  C_24
    5  A    between atoms: C_16  and  C_27
    6  A    between atoms: C_22  and  N_32
    7  A    between atoms: C_27  and  N_32
                            x       y       z     vdW  Elec       q    Type
                         _______ _______ _______ _____ _____    ______ ____

>  <TORSDO>
F 7

$$$$
