=
 OpenBabel10262421423D

 32 37  0  0  1  0  0  0  0  0999 V2000
  181.6190  179.6870  142.8430 C   0  0  2  0  0  3  0  0  0  0  0  0
  186.4750  178.0770  143.6650 C   0  0  0  0  0  0  0  0  0  0  0  0
  186.6460  178.5130  139.1550 O   0  0  0  0  0  0  0  0  0  0  0  0
  188.9160  178.0280  139.6410 N   0  0  0  0  0  0  0  0  0  0  0  0
  188.0540  177.6030  145.5200 C   0  0  0  0  0  3  0  0  0  0  0  0
  189.3460  177.3190  145.9610 C   0  0  0  0  0  0  0  0  0  0  0  0
  183.9640  178.4800  143.9440 C   0  0  0  0  0  0  0  0  0  0  0  0
  184.9530  178.5750  141.7080 C   0  0  0  0  0  3  0  0  0  0  0  0
  191.9180  176.7610  146.7940 N   0  0  0  0  0  0  0  0  0  0  0  0
  182.5500  179.0070  141.8410 C   0  0  0  0  0  2  0  0  0  0  0  0
  187.5520  178.2530  139.9900 C   0  0  0  0  0  0  0  0  0  0  0  0
  186.2820  178.2590  142.2670 C   0  0  0  0  0  0  0  0  0  0  0  0
  187.3870  178.1340  141.4230 C   0  0  0  0  0  0  0  0  0  0  0  0
  188.8800  177.6690  143.2480 C   0  0  0  0  0  0  0  0  0  0  0  0
  190.9240  176.8570  147.7190 C   0  0  0  0  0  3  0  0  0  0  0  0
  181.5090  178.8300  144.1060 C   0  0  0  0  0  2  0  0  0  0  0  0
  183.8720  178.6950  142.4790 C   0  0  0  0  0  0  0  0  0  0  0  0
  189.6150  177.1390  147.3180 C   0  0  0  0  0  3  0  0  0  0  0  0
  182.8670  178.5870  144.7060 C   0  0  0  0  0  3  0  0  0  0  0  0
  189.5580  177.7910  140.7480 C   0  0  0  0  0  3  0  0  0  0  0  0
  188.6390  177.8490  141.8900 C   0  0  0  0  0  0  0  0  0  0  0  0
  190.1350  177.3910  143.6980 N   0  0  0  0  0  0  0  0  0  0  0  0
  185.2810  178.1980  144.5510 C   0  0  0  0  0  0  0  0  0  0  0  0
  185.3740  178.0550  145.8010 O   0  0  0  0  0  0  0  0  0  0  0  0
  191.6800  176.9330  145.4650 C   0  0  0  0  0  3  0  0  0  0  0  0
  187.7890  177.7840  144.1560 C   0  0  0  0  0  0  0  0  0  0  0  0
  190.3880  177.2170  145.0200 C   0  0  0  0  0  0  0  0  0  0  0  0
  180.2510  179.8810  142.2130 C   0  0  0  0  0  2  0  0  0  0  0  0
  179.3600  178.6860  142.4990 C   0  0  0  0  0  2  0  0  0  0  0  0
  179.1790  177.8850  141.2590 C   0  0  0  0  0  0  0  0  0  0  0  0
  178.9460  176.5180  141.3410 O   0  0  0  0  0  1  0  0  0  0  0  0
  179.2610  178.4410  140.1330 O   0  0  0  0  0  0  0  0  0  0  0  0
  1 28  1  6  0  0  0
  1 16  1  0  0  0  0
  2 26  1  0  0  0  0
  2 23  1  0  0  0  0
  3 11  2  0  0  0  0
  4 11  1  0  0  0  0
  4 20  2  0  0  0  0
  5  6  1  0  0  0  0
  6 18  1  0  0  0  0
  7 23  1  0  0  0  0
  7 19  2  0  0  0  0
  8 12  1  0  0  0  0
  8 17  2  0  0  0  0
  9 15  1  0  0  0  0
 10 17  1  0  0  0  0
 10  1  1  0  0  0  0
 11 13  1  0  0  0  0
 12  2  2  0  0  0  0
 13 21  2  0  0  0  0
 13 12  1  0  0  0  0
 14 22  2  0  0  0  0
 14 26  1  0  0  0  0
 16 19  1  0  0  0  0
 17  7  1  0  0  0  0
 18 15  2  0  0  0  0
 20 21  1  0  0  0  0
 21 14  1  0  0  0  0
 22 27  1  0  0  0  0
 23 24  2  0  0  0  0
 25  9  2  0  0  0  0
 26  5  2  0  0  0  0
 27 25  1  0  0  0  0
 27  6  2  0  0  0  0
 28 29  1  0  0  0  0
 30 31  1  0  0  0  0
 30 29  1  0  0  0  0
 32 30  2  0  0  0  0
M  END
>  <MODEL>
1

>  <REMARK>
 VINA RESULT:     -10.9      0.000      0.000
  Name = 
  3 active torsions:
  status: ('A' for Active; 'I' for Inactive)
    1  A    between atoms: C_1  and  C_10
    2  A    between atoms: C_2  and  C_24
    3  A    between atoms: C_10  and  C_24
                            x       y       z     vdW  Elec       q    Type
                         _______ _______ _______ _____ _____    ______ ____

>  <TORSDO>
F 3

$$$$
=
 OpenBabel10262421423D

 32 37  0  0  1  0  0  0  0  0999 V2000
  188.1860  177.2060  146.5270 C   0  0  2  0  0  3  0  0  0  0  0  0
  184.7960  178.4830  142.8220 C   0  0  0  0  0  0  0  0  0  0  0  0
  188.4920  178.0090  140.2410 O   0  0  0  0  0  0  0  0  0  0  0  0
  186.8310  178.3400  138.5810 N   0  0  0  0  0  0  0  0  0  0  0  0
  182.3650  178.8600  142.4900 C   0  0  0  0  0  3  0  0  0  0  0  0
  181.2820  179.0570  141.6340 C   0  0  0  0  0  0  0  0  0  0  0  0
  185.9460  178.2560  145.0970 C   0  0  0  0  0  0  0  0  0  0  0  0
  187.2810  178.0800  143.0540 C   0  0  0  0  0  3  0  0  0  0  0  0
  179.1630  179.4430  139.9070 N   0  0  0  0  0  0  0  0  0  0  0  0
  188.4950  177.8140  145.1590 C   0  0  0  0  0  2  0  0  0  0  0  0
  187.2910  178.2120  139.9250 C   0  0  0  0  0  0  0  0  0  0  0  0
  186.0770  178.3070  142.2300 C   0  0  0  0  0  0  0  0  0  0  0  0
  186.1770  178.3500  140.8380 C   0  0  0  0  0  0  0  0  0  0  0  0
  183.8190  178.7230  140.5610 C   0  0  0  0  0  0  0  0  0  0  0  0
  178.9340  179.4210  141.2490 C   0  0  0  0  0  3  0  0  0  0  0  0
  187.1610  178.0770  147.2570 C   0  0  0  0  0  2  0  0  0  0  0  0
  187.2290  178.0380  144.3850 C   0  0  0  0  0  0  0  0  0  0  0  0
  179.9930  179.2270  142.1400 C   0  0  0  0  0  3  0  0  0  0  0  0
  185.9100  178.2290  146.4360 C   0  0  0  0  0  3  0  0  0  0  0  0
  185.5470  178.5390  138.6360 C   0  0  0  0  0  3  0  0  0  0  0  0
  185.0940  178.5520  140.0320 C   0  0  0  0  0  0  0  0  0  0  0  0
  182.7480  178.9170  139.7430 N   0  0  0  0  0  0  0  0  0  0  0  0
  184.7100  178.4510  144.3120 C   0  0  0  0  0  0  0  0  0  0  0  0
  183.6070  178.5940  144.9080 O   0  0  0  0  0  0  0  0  0  0  0  0
  180.4100  179.2790  139.3900 C   0  0  0  0  0  3  0  0  0  0  0  0
  183.6580  178.6890  141.9760 C   0  0  0  0  0  0  0  0  0  0  0  0
  181.4970  179.0820  140.2430 C   0  0  0  0  0  0  0  0  0  0  0  0
  189.4670  177.1020  147.3360 C   0  0  0  0  0  2  0  0  0  0  0  0
  190.4750  176.2190  146.6230 C   0  0  0  0  0  2  0  0  0  0  0  0
  191.7840  176.2800  147.3260 C   0  0  0  0  0  0  0  0  0  0  0  0
  192.7510  175.3140  147.0810 O   0  0  0  0  0  0  0  0  0  0  0  0
  192.0080  177.1950  148.1600 O   0  0  0  0  0  1  0  0  0  0  0  0
  1 16  1  0  0  0  0
  1 28  1  1  0  0  0
  2 23  1  0  0  0  0
  4 20  2  0  0  0  0
  4 11  1  0  0  0  0
  6 18  1  0  0  0  0
  6  5  2  0  0  0  0
  7 19  2  0  0  0  0
  8 17  2  0  0  0  0
  9 15  1  0  0  0  0
 10  1  1  0  0  0  0
 11  3  2  0  0  0  0
 11 13  1  0  0  0  0
 12  2  1  0  0  0  0
 12  8  1  0  0  0  0
 13 12  2  0  0  0  0
 14 26  1  0  0  0  0
 15 18  2  0  0  0  0
 17  7  1  0  0  0  0
 17 10  1  0  0  0  0
 19 16  1  0  0  0  0
 20 21  1  0  0  0  0
 21 14  2  0  0  0  0
 21 13  1  0  0  0  0
 22 27  2  0  0  0  0
 22 14  1  0  0  0  0
 23 24  2  0  0  0  0
 23  7  1  0  0  0  0
 25  9  2  0  0  0  0
 25 27  1  0  0  0  0
 26  5  1  0  0  0  0
 26  2  2  0  0  0  0
 27  6  1  0  0  0  0
 29 30  1  0  0  0  0
 29 28  1  0  0  0  0
 30 32  1  0  0  0  0
 31 30  2  0  0  0  0
M  END
>  <MODEL>
2

>  <REMARK>
 VINA RESULT:     -10.3      3.113      8.360
  Name = 
  3 active torsions:
  status: ('A' for Active; 'I' for Inactive)
    1  A    between atoms: C_1  and  C_10
    2  A    between atoms: C_2  and  C_24
    3  A    between atoms: C_10  and  C_24
                            x       y       z     vdW  Elec       q    Type
                         _______ _______ _______ _____ _____    ______ ____

>  <TORSDO>
F 3

$$$$
=
 OpenBabel10262421423D

 32 37  0  0  1  0  0  0  0  0999 V2000
  180.8970  178.5290  141.8380 C   0  0  2  0  0  3  0  0  0  0  0  0
  186.0000  178.2380  142.6880 C   0  0  0  0  0  0  0  0  0  0  0  0
  184.5890  178.3510  146.9950 O   0  0  0  0  0  0  0  0  0  0  0  0
  186.9080  177.9530  147.2970 N   0  0  0  0  0  0  0  0  0  0  0  0
  188.1340  177.8950  141.4670 C   0  0  0  0  0  3  0  0  0  0  0  0
  189.5080  177.6550  141.4850 C   0  0  0  0  0  0  0  0  0  0  0  0
  183.7380  178.6980  141.5830 C   0  0  0  0  0  0  0  0  0  0  0  0
  183.8750  178.5540  144.0220 C   0  0  0  0  0  3  0  0  0  0  0  0
  192.2260  177.1770  141.5620 N   0  0  0  0  0  0  0  0  0  0  0  0
  181.6530  178.9660  143.0920 C   0  0  0  0  0  2  0  0  0  0  0  0
  185.7380  178.1720  146.5110 C   0  0  0  0  0  0  0  0  0  0  0  0
  185.3310  178.3150  143.9400 C   0  0  0  0  0  0  0  0  0  0  0  0
  186.0830  178.1560  145.1060 C   0  0  0  0  0  0  0  0  0  0  0  0
  188.1280  177.8380  143.8860 C   0  0  0  0  0  0  0  0  0  0  0  0
  191.6060  177.3140  140.3570 C   0  0  0  0  0  3  0  0  0  0  0  0
  181.5090  179.2030  140.6080 C   0  0  0  0  0  2  0  0  0  0  0  0
  183.1240  178.7170  142.9330 C   0  0  0  0  0  0  0  0  0  0  0  0
  190.2310  177.5560  140.2960 C   0  0  0  0  0  3  0  0  0  0  0  0
  182.9740  178.8810  140.4980 C   0  0  0  0  0  3  0  0  0  0  0  0
  187.9010  177.8100  146.4690 C   0  0  0  0  0  3  0  0  0  0  0  0
  187.4290  177.9290  145.0840 C   0  0  0  0  0  0  0  0  0  0  0  0
  189.4700  177.6040  143.8810 N   0  0  0  0  0  0  0  0  0  0  0  0
  185.1840  178.4270  141.4530 C   0  0  0  0  0  0  0  0  0  0  0  0
  185.7070  178.3670  140.3060 O   0  0  0  0  0  0  0  0  0  0  0  0
  191.5410  177.2690  142.7340 C   0  0  0  0  0  3  0  0  0  0  0  0
  187.4120  177.9930  142.6650 C   0  0  0  0  0  0  0  0  0  0  0  0
  190.1670  177.5090  142.7210 C   0  0  0  0  0  0  0  0  0  0  0  0
  179.4310  178.9030  141.9740 C   0  0  0  0  0  2  0  0  0  0  0  0
  178.9630  179.6690  140.7500 C   0  0  0  0  0  2  0  0  0  0  0  0
  179.0680  181.1310  141.0000 C   0  0  0  0  0  0  0  0  0  0  0  0
  178.9400  182.0290  139.9490 O   0  0  0  0  0  0  0  0  0  0  0  0
  179.2950  181.5550  142.1640 O   0  0  0  0  0  1  0  0  0  0  0  0
  1 28  1  1  0  0  0
  1 10  1  0  0  0  0
  2 12  1  0  0  0  0
  5  6  2  0  0  0  0
  5 26  1  0  0  0  0
  6 27  1  0  0  0  0
  7 17  1  0  0  0  0
  9 25  2  0  0  0  0
 11  3  2  0  0  0  0
 11  4  1  0  0  0  0
 12  8  1  0  0  0  0
 12 13  2  0  0  0  0
 13 11  1  0  0  0  0
 14 21  2  0  0  0  0
 15  9  1  0  0  0  0
 16  1  1  0  0  0  0
 17 10  1  0  0  0  0
 17  8  2  0  0  0  0
 18 15  2  0  0  0  0
 18  6  1  0  0  0  0
 19 16  1  0  0  0  0
 19  7  2  0  0  0  0
 20  4  2  0  0  0  0
 21 13  1  0  0  0  0
 21 20  1  0  0  0  0
 22 14  1  0  0  0  0
 23  7  1  0  0  0  0
 23  2  1  0  0  0  0
 24 23  2  0  0  0  0
 26  2  2  0  0  0  0
 26 14  1  0  0  0  0
 27 25  1  0  0  0  0
 27 22  2  0  0  0  0
 29 30  1  0  0  0  0
 29 28  1  0  0  0  0
 30 32  1  0  0  0  0
 31 30  2  0  0  0  0
M  END
>  <MODEL>
3

>  <REMARK>
 VINA RESULT:      -9.9      1.962      4.252
  Name = 
  3 active torsions:
  status: ('A' for Active; 'I' for Inactive)
    1  A    between atoms: C_1  and  C_10
    2  A    between atoms: C_2  and  C_24
    3  A    between atoms: C_10  and  C_24
                            x       y       z     vdW  Elec       q    Type
                         _______ _______ _______ _____ _____    ______ ____

>  <TORSDO>
F 3

$$$$
=
 OpenBabel10262421423D

 32 37  0  0  1  0  0  0  0  0999 V2000
  185.4640  177.8840  137.9300 C   0  0  2  0  0  3  0  0  0  0  0  0
  187.3120  177.9480  142.7710 C   0  0  0  0  0  0  0  0  0  0  0  0
  183.0500  179.2250  143.6420 O   0  0  0  0  0  0  0  0  0  0  0  0
  183.8980  178.9760  145.8430 N   0  0  0  0  0  0  0  0  0  0  0  0
  189.3380  177.3250  144.0620 C   0  0  0  0  0  3  0  0  0  0  0  0
  189.9730  177.1280  145.2880 C   0  0  0  0  0  0  0  0  0  0  0  0
  187.1710  178.0350  140.2170 C   0  0  0  0  0  0  0  0  0  0  0  0
  185.1900  178.5780  141.5470 C   0  0  0  0  0  3  0  0  0  0  0  0
  191.1940  176.7480  147.7340 N   0  0  0  0  0  0  0  0  0  0  0  0
  184.9140  178.6680  139.1200 C   0  0  0  0  0  2  0  0  0  0  0  0
  183.9980  178.9430  144.4210 C   0  0  0  0  0  0  0  0  0  0  0  0
  185.9490  178.3570  142.7940 C   0  0  0  0  0  0  0  0  0  0  0  0
  185.3340  178.5440  144.0330 C   0  0  0  0  0  0  0  0  0  0  0  0
  187.3200  177.9430  145.2450 C   0  0  0  0  0  0  0  0  0  0  0  0
  191.9050  176.5310  146.5930 C   0  0  0  0  0  3  0  0  0  0  0  0
  186.9500  178.2010  137.7470 C   0  0  0  0  0  2  0  0  0  0  0  0
  185.7430  178.4150  140.3450 C   0  0  0  0  0  0  0  0  0  0  0  0
  191.3050  176.7180  145.3450 C   0  0  0  0  0  3  0  0  0  0  0  0
  187.7190  177.8930  139.0030 C   0  0  0  0  0  3  0  0  0  0  0  0
  185.0590  178.6290  146.3140 C   0  0  0  0  0  3  0  0  0  0  0  0
  185.9900  178.3480  145.2150 C   0  0  0  0  0  0  0  0  0  0  0  0
  187.9580  177.7450  146.4320 N   0  0  0  0  0  0  0  0  0  0  0  0
  187.9590  177.7680  141.4380 C   0  0  0  0  0  0  0  0  0  0  0  0
  189.1620  177.4030  141.3370 O   0  0  0  0  0  0  0  0  0  0  0  0
  189.8940  177.1480  147.7040 C   0  0  0  0  0  3  0  0  0  0  0  0
  187.9990  177.7370  144.0100 C   0  0  0  0  0  0  0  0  0  0  0  0
  189.2550  177.3460  146.4790 C   0  0  0  0  0  0  0  0  0  0  0  0
  184.6850  178.2490  136.6790 C   0  0  0  0  0  2  0  0  0  0  0  0
  183.8290  177.0800  136.2260 C   0  0  0  0  0  2  0  0  0  0  0  0
  182.4450  177.2380  136.7470 C   0  0  0  0  0  0  0  0  0  0  0  0
  181.9580  178.5010  137.0560 O   0  0  0  0  0  1  0  0  0  0  0  0
  181.7210  176.2240  136.9290 O   0  0  0  0  0  0  0  0  0  0  0  0
  1 28  1  6  0  0  0
  1 10  1  0  0  0  0
  2 12  2  0  0  0  0
  2 26  1  0  0  0  0
  3 11  2  0  0  0  0
  4 20  2  0  0  0  0
  5  6  1  0  0  0  0
  6 18  2  0  0  0  0
  6 27  1  0  0  0  0
  7 17  1  0  0  0  0
  7 23  1  0  0  0  0
  8 12  1  0  0  0  0
 10 17  1  0  0  0  0
 11  4  1  0  0  0  0
 12 13  1  0  0  0  0
 13 11  1  0  0  0  0
 13 21  2  0  0  0  0
 14 22  2  0  0  0  0
 15  9  2  0  0  0  0
 16  1  1  0  0  0  0
 16 19  1  0  0  0  0
 17  8  2  0  0  0  0
 18 15  1  0  0  0  0
 19  7  2  0  0  0  0
 21 14  1  0  0  0  0
 21 20  1  0  0  0  0
 22 27  1  0  0  0  0
 23  2  1  0  0  0  0
 24 23  2  0  0  0  0
 25  9  1  0  0  0  0
 26  5  2  0  0  0  0
 26 14  1  0  0  0  0
 27 25  2  0  0  0  0
 29 28  1  0  0  0  0
 29 30  1  0  0  0  0
 30 32  2  0  0  0  0
 30 31  1  0  0  0  0
M  END
>  <MODEL>
4

>  <REMARK>
 VINA RESULT:      -9.7      2.751      4.762
  Name = 
  3 active torsions:
  status: ('A' for Active; 'I' for Inactive)
    1  A    between atoms: C_1  and  C_10
    2  A    between atoms: C_2  and  C_24
    3  A    between atoms: C_10  and  C_24
                            x       y       z     vdW  Elec       q    Type
                         _______ _______ _______ _____ _____    ______ ____

>  <TORSDO>
F 3

$$$$
=
 OpenBabel10262421423D

 32 37  0  0  1  0  0  0  0  0999 V2000
  192.1430  177.5140  140.1830 C   0  0  2  0  0  3  0  0  0  0  0  0
  187.5630  177.8310  142.5860 C   0  0  0  0  0  0  0  0  0  0  0  0
  190.2090  177.2420  146.2200 O   0  0  0  0  0  0  0  0  0  0  0  0
  188.1170  177.6590  147.2560 N   0  0  0  0  0  0  0  0  0  0  0  0
  185.1800  178.3470  142.1190 C   0  0  0  0  0  3  0  0  0  0  0  0
  183.8920  178.6150  142.5810 C   0  0  0  0  0  0  0  0  0  0  0  0
  189.3540  177.4370  140.8010 C   0  0  0  0  0  0  0  0  0  0  0  0
  189.9730  177.3310  143.1660 C   0  0  0  0  0  3  0  0  0  0  0  0
  181.3560  179.1450  143.5340 N   0  0  0  0  0  0  0  0  0  0  0  0
  191.7820  176.9670  141.5630 C   0  0  0  0  0  2  0  0  0  0  0  0
  188.9800  177.4960  146.1320 C   0  0  0  0  0  0  0  0  0  0  0  0
  188.5770  177.6100  143.5590 C   0  0  0  0  0  0  0  0  0  0  0  0
  188.2250  177.6650  144.9090 C   0  0  0  0  0  0  0  0  0  0  0  0
  185.9250  178.1530  144.4130 C   0  0  0  0  0  0  0  0  0  0  0  0
  181.5720  179.1190  142.1900 C   0  0  0  0  0  3  0  0  0  0  0  0
  191.1500  176.9850  139.1450 C   0  0  0  0  0  2  0  0  0  0  0  0
  190.3480  177.2650  141.8890 C   0  0  0  0  0  0  0  0  0  0  0  0
  182.8480  178.8530  141.6870 C   0  0  0  0  0  3  0  0  0  0  0  0
  189.7410  177.3500  139.5220 C   0  0  0  0  0  3  0  0  0  0  0  0
  186.9290  177.9100  146.7920 C   0  0  0  0  0  3  0  0  0  0  0  0
  186.9500  177.9240  145.3240 C   0  0  0  0  0  0  0  0  0  0  0  0
  184.6600  178.4170  144.8430 N   0  0  0  0  0  0  0  0  0  0  0  0
  187.9530  177.7530  141.1480 C   0  0  0  0  0  0  0  0  0  0  0  0
  187.1100  177.9430  140.2290 O   0  0  0  0  0  0  0  0  0  0  0  0
  182.3590  178.9160  144.4250 C   0  0  0  0  0  3  0  0  0  0  0  0
  186.2270  178.1090  143.0220 C   0  0  0  0  0  0  0  0  0  0  0  0
  183.6490  178.6470  143.9670 C   0  0  0  0  0  0  0  0  0  0  0  0
  193.5580  177.0950  139.8260 C   0  0  0  0  0  2  0  0  0  0  0  0
  193.6020  176.5150  138.4240 C   0  0  0  0  0  2  0  0  0  0  0  0
  194.3470  175.2280  138.4340 C   0  0  0  0  0  0  0  0  0  0  0  0
  193.8000  174.1020  137.8330 O   0  0  0  0  0  0  0  0  0  0  0  0
  195.4640  175.1520  139.0090 O   0  0  0  0  0  1  0  0  0  0  0  0
  1 28  1  6  0  0  0
  1 10  1  0  0  0  0
  2 26  2  0  0  0  0
  2 12  1  0  0  0  0
  5  6  2  0  0  0  0
  5 26  1  0  0  0  0
  6 27  1  0  0  0  0
  7 23  1  0  0  0  0
  7 17  1  0  0  0  0
  8 12  1  0  0  0  0
  9 25  2  0  0  0  0
 10 17  1  0  0  0  0
 11  3  2  0  0  0  0
 11  4  1  0  0  0  0
 12 13  2  0  0  0  0
 13 21  1  0  0  0  0
 13 11  1  0  0  0  0
 14 22  1  0  0  0  0
 14 21  2  0  0  0  0
 15  9  1  0  0  0  0
 16 19  1  0  0  0  0
 16  1  1  0  0  0  0
 17  8  2  0  0  0  0
 18 15  2  0  0  0  0
 18  6  1  0  0  0  0
 19  7  2  0  0  0  0
 20  4  2  0  0  0  0
 21 20  1  0  0  0  0
 23  2  1  0  0  0  0
 24 23  2  0  0  0  0
 26 14  1  0  0  0  0
 27 25  1  0  0  0  0
 27 22  2  0  0  0  0
 29 30  1  0  0  0  0
 29 28  1  0  0  0  0
 30 32  1  0  0  0  0
 31 30  2  0  0  0  0
M  END
>  <MODEL>
5

>  <REMARK>
 VINA RESULT:      -9.7      3.617      8.969
  Name = 
  3 active torsions:
  status: ('A' for Active; 'I' for Inactive)
    1  A    between atoms: C_1  and  C_10
    2  A    between atoms: C_2  and  C_24
    3  A    between atoms: C_10  and  C_24
                            x       y       z     vdW  Elec       q    Type
                         _______ _______ _______ _____ _____    ______ ____

>  <TORSDO>
F 3

$$$$
=
 OpenBabel10262421423D

 32 37  0  0  1  0  0  0  0  0999 V2000
  187.1000  177.8810  137.1780 C   0  0  2  0  0  3  0  0  0  0  0  0
  186.9210  178.2190  142.3450 C   0  0  0  0  0  0  0  0  0  0  0  0
  182.5460  179.0050  141.4510 O   0  0  0  0  0  0  0  0  0  0  0  0
  182.5010  178.8840  143.8180 N   0  0  0  0  0  0  0  0  0  0  0  0
  188.3440  177.8510  144.3450 C   0  0  0  0  0  3  0  0  0  0  0  0
  188.4740  177.7440  145.7290 C   0  0  0  0  0  0  0  0  0  0  0  0
  187.7680  178.2570  139.9310 C   0  0  0  0  0  0  0  0  0  0  0  0
  185.3830  178.5840  140.3710 C   0  0  0  0  0  3  0  0  0  0  0  0
  188.6890  177.5380  148.4740 N   0  0  0  0  0  0  0  0  0  0  0  0
  186.0560  178.6110  138.0220 C   0  0  0  0  0  2  0  0  0  0  0  0
  183.1440  178.8450  142.5460 C   0  0  0  0  0  0  0  0  0  0  0  0
  185.6210  178.4680  141.8240 C   0  0  0  0  0  0  0  0  0  0  0  0
  184.5600  178.5980  142.7220 C   0  0  0  0  0  0  0  0  0  0  0  0
  185.9750  178.2460  144.6320 C   0  0  0  0  0  0  0  0  0  0  0  0
  189.8020  177.3910  147.7050 C   0  0  0  0  0  3  0  0  0  0  0  0
  188.5010  178.3650  137.5590 C   0  0  0  0  0  2  0  0  0  0  0  0
  186.3700  178.4720  139.4830 C   0  0  0  0  0  0  0  0  0  0  0  0
  189.7150  177.4910  146.3130 C   0  0  0  0  0  3  0  0  0  0  0  0
  188.7530  178.1640  139.0280 C   0  0  0  0  0  3  0  0  0  0  0  0
  183.4190  178.6790  144.7160 C   0  0  0  0  0  3  0  0  0  0  0  0
  184.7260  178.4940  144.0730 C   0  0  0  0  0  0  0  0  0  0  0  0
  186.1220  178.1380  145.9810 N   0  0  0  0  0  0  0  0  0  0  0  0
  188.0460  178.0990  141.3730 C   0  0  0  0  0  0  0  0  0  0  0  0
  189.2260  177.8740  141.7600 O   0  0  0  0  0  0  0  0  0  0  0  0
  187.4680  177.7850  147.9270 C   0  0  0  0  0  3  0  0  0  0  0  0
  187.0940  178.1040  143.7630 C   0  0  0  0  0  0  0  0  0  0  0  0
  187.3340  177.8920  146.5420 C   0  0  0  0  0  0  0  0  0  0  0  0
  186.8310  178.1380  135.7060 C   0  0  0  0  0  2  0  0  0  0  0  0
  185.8820  177.0920  135.1490 C   0  0  0  0  0  2  0  0  0  0  0  0
  186.5420  175.7590  135.1540 C   0  0  0  0  0  0  0  0  0  0  0  0
  187.8030  175.6050  134.5940 O   0  0  0  0  0  0  0  0  0  0  0  0
  185.9470  174.7650  135.6460 O   0  0  0  0  0  1  0  0  0  0  0  0
  1 28  1  6  0  0  0
  1 16  1  0  0  0  0
  1 10  1  0  0  0  0
  2 26  1  0  0  0  0
  3 11  2  0  0  0  0
  4 20  2  0  0  0  0
  5  6  1  0  0  0  0
  6 18  2  0  0  0  0
  6 27  1  0  0  0  0
  7 23  1  0  0  0  0
  8 12  1  0  0  0  0
 10 17  1  0  0  0  0
 11 13  1  0  0  0  0
 11  4  1  0  0  0  0
 12  2  2  0  0  0  0
 12 13  1  0  0  0  0
 13 21  2  0  0  0  0
 14 22  2  0  0  0  0
 15  9  2  0  0  0  0
 16 19  1  0  0  0  0
 17  7  1  0  0  0  0
 17  8  2  0  0  0  0
 18 15  1  0  0  0  0
 19  7  2  0  0  0  0
 21 14  1  0  0  0  0
 21 20  1  0  0  0  0
 22 27  1  0  0  0  0
 23 24  2  0  0  0  0
 23  2  1  0  0  0  0
 25  9  1  0  0  0  0
 26  5  2  0  0  0  0
 26 14  1  0  0  0  0
 27 25  2  0  0  0  0
 29 30  1  0  0  0  0
 29 28  1  0  0  0  0
 30 32  1  0  0  0  0
 31 30  2  0  0  0  0
M  END
>  <MODEL>
6

>  <REMARK>
 VINA RESULT:      -9.6      3.042      5.915
  Name = 
  3 active torsions:
  status: ('A' for Active; 'I' for Inactive)
    1  A    between atoms: C_1  and  C_10
    2  A    between atoms: C_2  and  C_24
    3  A    between atoms: C_10  and  C_24
                            x       y       z     vdW  Elec       q    Type
                         _______ _______ _______ _____ _____    ______ ____

>  <TORSDO>
F 3

$$$$
=
 OpenBabel10262421423D

 32 37  0  0  1  0  0  0  0  0999 V2000
  191.0770  177.0650  146.2630 C   0  0  2  0  0  3  0  0  0  0  0  0
  188.6060  177.5510  141.7340 C   0  0  0  0  0  0  0  0  0  0  0  0
  185.1880  178.6420  144.5060 O   0  0  0  0  0  0  0  0  0  0  0  0
  184.2100  179.0950  142.3940 N   0  0  0  0  0  0  0  0  0  0  0  0
  189.0490  177.5310  139.2920 C   0  0  0  0  0  3  0  0  0  0  0  0
  188.6160  177.7600  137.9870 C   0  0  0  0  0  0  0  0  0  0  0  0
  190.2730  176.8170  143.5320 C   0  0  0  0  0  0  0  0  0  0  0  0
  188.0640  177.6290  144.2030 C   0  0  0  0  0  3  0  0  0  0  0  0
  187.7220  178.2250  135.4170 N   0  0  0  0  0  0  0  0  0  0  0  0
  189.5710  176.9880  146.0180 C   0  0  0  0  0  2  0  0  0  0  0  0
  185.2690  178.6740  143.2500 C   0  0  0  0  0  0  0  0  0  0  0  0
  187.6910  177.8270  142.7880 C   0  0  0  0  0  0  0  0  0  0  0  0
  186.4200  178.2980  142.4560 C   0  0  0  0  0  0  0  0  0  0  0  0
  186.8870  178.2550  140.0990 C   0  0  0  0  0  0  0  0  0  0  0  0
  188.9880  177.7630  135.6090 C   0  0  0  0  0  3  0  0  0  0  0  0
  191.7990  176.0740  145.3470 C   0  0  0  0  0  2  0  0  0  0  0  0
  189.2650  177.1750  144.5600 C   0  0  0  0  0  0  0  0  0  0  0  0
  189.4600  177.5220  136.9020 C   0  0  0  0  0  3  0  0  0  0  0  0
  191.4700  176.3440  143.9040 C   0  0  0  0  0  3  0  0  0  0  0  0
  184.6460  178.9980  141.1730 C   0  0  0  0  0  3  0  0  0  0  0  0
  186.0270  178.5040  141.1650 C   0  0  0  0  0  0  0  0  0  0  0  0
  186.4830  178.4710  138.8180 N   0  0  0  0  0  0  0  0  0  0  0  0
  189.9550  177.0330  142.1060 C   0  0  0  0  0  0  0  0  0  0  0  0
  190.8210  176.7700  141.2270 O   0  0  0  0  0  0  0  0  0  0  0  0
  186.8800  178.4640  136.4590 C   0  0  0  0  0  3  0  0  0  0  0  0
  188.1970  177.7720  140.3790 C   0  0  0  0  0  0  0  0  0  0  0  0
  187.3100  178.2370  137.7670 C   0  0  0  0  0  0  0  0  0  0  0  0
  191.3700  176.7520  147.7190 C   0  0  0  0  0  2  0  0  0  0  0  0
  192.5930  175.8590  147.8350 C   0  0  0  0  0  2  0  0  0  0  0  0
  193.1830  175.9860  149.1940 C   0  0  0  0  0  0  0  0  0  0  0  0
  193.7590  177.1850  149.5930 O   0  0  0  0  0  0  0  0  0  0  0  0
  193.1810  174.9990  149.9760 O   0  0  0  0  0  1  0  0  0  0  0  0
  1 28  1  1  0  0  0
  2 23  1  0  0  0  0
  2 12  1  0  0  0  0
  4 11  1  0  0  0  0
  5 26  1  0  0  0  0
  6  5  2  0  0  0  0
  7 19  2  0  0  0  0
  7 17  1  0  0  0  0
  8 17  2  0  0  0  0
  9 15  1  0  0  0  0
  9 25  2  0  0  0  0
 10  1  1  0  0  0  0
 11  3  2  0  0  0  0
 12  8  1  0  0  0  0
 13 12  2  0  0  0  0
 13 11  1  0  0  0  0
 14 26  1  0  0  0  0
 14 21  2  0  0  0  0
 15 18  2  0  0  0  0
 16  1  1  0  0  0  0
 17 10  1  0  0  0  0
 18  6  1  0  0  0  0
 19 16  1  0  0  0  0
 20  4  2  0  0  0  0
 21 20  1  0  0  0  0
 21 13  1  0  0  0  0
 22 14  1  0  0  0  0
 23  7  1  0  0  0  0
 24 23  2  0  0  0  0
 25 27  1  0  0  0  0
 26  2  2  0  0  0  0
 27  6  1  0  0  0  0
 27 22  2  0  0  0  0
 28 29  1  0  0  0  0
 29 30  1  0  0  0  0
 30 31  2  0  0  0  0
 30 32  1  0  0  0  0
M  END
>  <MODEL>
7

>  <REMARK>
 VINA RESULT:      -9.5      3.566      9.105
  Name = 
  3 active torsions:
  status: ('A' for Active; 'I' for Inactive)
    1  A    between atoms: C_1  and  C_10
    2  A    between atoms: C_2  and  C_24
    3  A    between atoms: C_10  and  C_24
                            x       y       z     vdW  Elec       q    Type
                         _______ _______ _______ _____ _____    ______ ____

>  <TORSDO>
F 3

$$$$
=
 OpenBabel10262421423D

 32 37  0  0  1  0  0  0  0  0999 V2000
  191.9880  177.1290  138.5280 C   0  0  2  0  0  3  0  0  0  0  0  0
  188.4630  177.5290  142.3050 C   0  0  0  0  0  0  0  0  0  0  0  0
  192.0560  176.4060  144.8320 O   0  0  0  0  0  0  0  0  0  0  0  0
  190.4520  176.8650  146.5180 N   0  0  0  0  0  0  0  0  0  0  0  0
  186.1170  178.2520  142.6740 C   0  0  0  0  0  3  0  0  0  0  0  0
  185.0750  178.5630  143.5470 C   0  0  0  0  0  0  0  0  0  0  0  0
  189.5470  177.1860  140.0120 C   0  0  0  0  0  0  0  0  0  0  0  0
  190.8720  176.8080  142.0340 C   0  0  0  0  0  3  0  0  0  0  0  0
  183.0370  179.1720  145.3070 N   0  0  0  0  0  0  0  0  0  0  0  0
  192.0330  176.4760  139.9090 C   0  0  0  0  0  2  0  0  0  0  0  0
  190.8930  176.7520  145.1660 C   0  0  0  0  0  0  0  0  0  0  0  0
  189.7070  177.1440  142.8780 C   0  0  0  0  0  0  0  0  0  0  0  0
  189.8080  177.0920  144.2690 C   0  0  0  0  0  0  0  0  0  0  0  0
  187.5290  177.7850  144.5820 C   0  0  0  0  0  0  0  0  0  0  0  0
  182.8110  179.2630  143.9670 C   0  0  0  0  0  3  0  0  0  0  0  0
  190.6710  176.7740  137.8350 C   0  0  0  0  0  2  0  0  0  0  0  0
  190.8130  176.8400  140.7030 C   0  0  0  0  0  0  0  0  0  0  0  0
  183.8290  178.9590  143.0600 C   0  0  0  0  0  3  0  0  0  0  0  0
  189.4960  177.1970  138.6730 C   0  0  0  0  0  3  0  0  0  0  0  0
  189.2080  177.2420  146.4830 C   0  0  0  0  0  3  0  0  0  0  0  0
  188.7630  177.3970  145.0930 C   0  0  0  0  0  0  0  0  0  0  0  0
  186.4990  178.0930  145.4170 N   0  0  0  0  0  0  0  0  0  0  0  0
  188.3660  177.5640  140.8160 C   0  0  0  0  0  0  0  0  0  0  0  0
  187.2980  177.9000  140.2360 O   0  0  0  0  0  0  0  0  0  0  0  0
  184.2440  178.7890  145.8060 C   0  0  0  0  0  3  0  0  0  0  0  0
  187.3680  177.8560  143.1690 C   0  0  0  0  0  0  0  0  0  0  0  0
  185.2890  178.4770  144.9360 C   0  0  0  0  0  0  0  0  0  0  0  0
  193.1690  176.6490  137.7030 C   0  0  0  0  0  2  0  0  0  0  0  0
  193.1580  175.1350  137.5910 C   0  0  0  0  0  2  0  0  0  0  0  0
  194.5020  174.5960  137.9300 C   0  0  0  0  0  0  0  0  0  0  0  0
  194.9220  173.3850  137.3950 O   0  0  0  0  0  0  0  0  0  0  0  0
  195.2510  175.2250  138.7230 O   0  0  0  0  0  1  0  0  0  0  0  0
  1 28  1  6  0  0  0
  1 10  1  0  0  0  0
  2 12  2  0  0  0  0
  2 26  1  0  0  0  0
  3 11  2  0  0  0  0
  5 26  2  0  0  0  0
  5  6  1  0  0  0  0
  6 27  1  0  0  0  0
  7 17  1  0  0  0  0
  7 23  1  0  0  0  0
  8 12  1  0  0  0  0
  9 25  1  0  0  0  0
 10 17  1  0  0  0  0
 11  4  1  0  0  0  0
 12 13  1  0  0  0  0
 13 21  2  0  0  0  0
 13 11  1  0  0  0  0
 14 21  1  0  0  0  0
 14 22  2  0  0  0  0
 15  9  2  0  0  0  0
 16  1  1  0  0  0  0
 16 19  1  0  0  0  0
 17  8  2  0  0  0  0
 18  6  2  0  0  0  0
 18 15  1  0  0  0  0
 19  7  2  0  0  0  0
 20  4  2  0  0  0  0
 21 20  1  0  0  0  0
 23  2  1  0  0  0  0
 24 23  2  0  0  0  0
 26 14  1  0  0  0  0
 27 22  1  0  0  0  0
 27 25  2  0  0  0  0
 29 28  1  0  0  0  0
 29 30  1  0  0  0  0
 30 32  1  0  0  0  0
 31 30  2  0  0  0  0
M  END
>  <MODEL>
8

>  <REMARK>
 VINA RESULT:      -9.5      3.791      8.806
  Name = 
  3 active torsions:
  status: ('A' for Active; 'I' for Inactive)
    1  A    between atoms: C_1  and  C_10
    2  A    between atoms: C_2  and  C_24
    3  A    between atoms: C_10  and  C_24
                            x       y       z     vdW  Elec       q    Type
                         _______ _______ _______ _____ _____    ______ ____

>  <TORSDO>
F 3

$$$$
=
 OpenBabel10262421423D

 32 37  0  0  1  0  0  0  0  0999 V2000
  191.6810  176.3600  137.7530 C   0  0  2  0  0  3  0  0  0  0  0  0
  189.0380  177.6540  142.0180 C   0  0  0  0  0  0  0  0  0  0  0  0
  185.8810  178.6510  138.9210 O   0  0  0  0  0  0  0  0  0  0  0  0
  184.6540  178.9700  140.9250 N   0  0  0  0  0  0  0  0  0  0  0  0
  189.2040  177.5330  144.4920 C   0  0  0  0  0  3  0  0  0  0  0  0
  188.6140  177.6700  145.7480 C   0  0  0  0  0  0  0  0  0  0  0  0
  190.9580  177.1730  140.3960 C   0  0  0  0  0  0  0  0  0  0  0  0
  188.7610  177.7870  139.5080 C   0  0  0  0  0  3  0  0  0  0  0  0
  187.4090  177.9530  148.2150 N   0  0  0  0  0  0  0  0  0  0  0  0
  190.4990  177.3230  137.8530 C   0  0  0  0  0  2  0  0  0  0  0  0
  185.8230  178.6410  140.1780 C   0  0  0  0  0  0  0  0  0  0  0  0
  188.2280  177.9180  140.8790 C   0  0  0  0  0  0  0  0  0  0  0  0
  186.9030  178.3050  141.0830 C   0  0  0  0  0  0  0  0  0  0  0  0
  187.1080  178.1840  143.4740 C   0  0  0  0  0  0  0  0  0  0  0  0
  188.7130  177.5670  148.1500 C   0  0  0  0  0  3  0  0  0  0  0  0
  192.7710  176.7790  138.7430 C   0  0  0  0  0  2  0  0  0  0  0  0
  190.0230  177.4260  139.2720 C   0  0  0  0  0  0  0  0  0  0  0  0
  189.3420  177.4190  146.9100 C   0  0  0  0  0  3  0  0  0  0  0  0
  192.2280  176.8280  140.1440 C   0  0  0  0  0  3  0  0  0  0  0  0
  184.9600  178.8520  142.1840 C   0  0  0  0  0  3  0  0  0  0  0  0
  186.3600  178.4370  142.3290 C   0  0  0  0  0  0  0  0  0  0  0  0
  186.5510  178.3130  144.7090 N   0  0  0  0  0  0  0  0  0  0  0  0
  190.4570  177.2570  141.7830 C   0  0  0  0  0  0  0  0  0  0  0  0
  191.2350  177.0030  142.7430 O   0  0  0  0  0  0  0  0  0  0  0  0
  186.6790  178.2030  147.0950 C   0  0  0  0  0  3  0  0  0  0  0  0
  188.4680  177.7860  143.3260 C   0  0  0  0  0  0  0  0  0  0  0  0
  187.2660  178.0660  145.8360 C   0  0  0  0  0  0  0  0  0  0  0  0
  192.2220  176.3660  136.3340 C   0  0  0  0  0  2  0  0  0  0  0  0
  193.5020  175.5540  136.2510 C   0  0  0  0  0  2  0  0  0  0  0  0
  194.5600  176.3510  135.5730 C   0  0  0  0  0  0  0  0  0  0  0  0
  195.8690  176.3030  136.0320 O   0  0  0  0  0  1  0  0  0  0  0  0
  194.2630  177.0870  134.5960 O   0  0  0  0  0  0  0  0  0  0  0  0
  1 28  1  6  0  0  0
  1 10  1  0  0  0  0
  1 16  1  0  0  0  0
  2 26  1  0  0  0  0
  3 11  2  0  0  0  0
  4 20  2  0  0  0  0
  5  6  1  0  0  0  0
  6 27  2  0  0  0  0
  6 18  1  0  0  0  0
  7 23  1  0  0  0  0
  8 12  1  0  0  0  0
 10 17  1  0  0  0  0
 11  4  1  0  0  0  0
 11 13  1  0  0  0  0
 12 13  1  0  0  0  0
 12  2  2  0  0  0  0
 13 21  2  0  0  0  0
 14 22  2  0  0  0  0
 15  9  1  0  0  0  0
 16 19  1  0  0  0  0
 17  8  2  0  0  0  0
 17  7  1  0  0  0  0
 18 15  2  0  0  0  0
 19  7  2  0  0  0  0
 20 21  1  0  0  0  0
 21 14  1  0  0  0  0
 22 27  1  0  0  0  0
 23  2  1  0  0  0  0
 23 24  2  0  0  0  0
 25  9  2  0  0  0  0
 26 14  1  0  0  0  0
 26  5  2  0  0  0  0
 27 25  1  0  0  0  0
 29 28  1  0  0  0  0
 30 31  1  0  0  0  0
 30 29  1  0  0  0  0
 32 30  2  0  0  0  0
M  END
>  <MODEL>
9

>  <REMARK>
 VINA RESULT:      -9.4      3.845      8.196
  Name = 
  3 active torsions:
  status: ('A' for Active; 'I' for Inactive)
    1  A    between atoms: C_1  and  C_10
    2  A    between atoms: C_2  and  C_24
    3  A    between atoms: C_10  and  C_24
                            x       y       z     vdW  Elec       q    Type
                         _______ _______ _______ _____ _____    ______ ____

>  <TORSDO>
F 3

$$$$
