=
 OpenBabel10262421463D

 30 31  0  0  1  0  0  0  0  0999 V2000
  187.3190  177.4130  142.2210 C   0  0  2  0  0  3  0  0  0  0  0  0
  184.0300  179.2720  142.6960 C   0  0  0  0  0  3  0  0  0  0  0  0
  185.1310  178.6600  142.0780 C   0  0  0  0  0  0  0  0  0  0  0  0
  186.0230  178.1240  144.2730 C   0  0  0  0  0  3  0  0  0  0  0  0
  186.1390  178.0840  142.8750 C   0  0  0  0  0  0  0  0  0  0  0  0
  183.9260  179.3100  144.0880 C   0  0  0  0  0  3  0  0  0  0  0  0
  184.9230  178.7360  144.8760 C   0  0  0  0  0  3  0  0  0  0  0  0
  185.2480  178.6200  140.6460 N   0  0  0  0  0  2  0  0  0  0  0  0
  183.4470  179.7030  139.3890 C   0  0  0  0  0  1  0  0  0  0  0  0
  184.7500  177.8640  138.4020 C   0  0  0  0  0  1  0  0  0  0  0  0
  183.1770  177.3810  140.2320 C   0  0  0  0  0  1  0  0  0  0  0  0
  184.1630  178.4000  139.6900 C   0  0  0  0  0  0  0  0  0  0  0  0
  187.8980  176.4010  143.0510 O   0  0  0  0  0  0  0  0  0  0  0  0
  190.2030  176.1860  143.7400 C   0  0  0  0  0  0  0  0  0  0  0  0
  191.2190  176.3680  144.6830 C   0  0  0  0  0  3  0  0  0  0  0  0
  190.4930  175.6000  142.5520 F   0  0  0  0  0  0  0  0  0  0  0  0
  188.6190  177.2100  145.2550 C   0  0  0  0  0  3  0  0  0  0  0  0
  189.3300  178.0320  147.5030 C   0  0  0  0  0  1  0  0  0  0  0  0
  188.8940  176.6010  144.0200 C   0  0  0  0  0  0  0  0  0  0  0  0
  190.9350  176.9700  145.9120 C   0  0  0  0  0  3  0  0  0  0  0  0
  189.6340  177.3920  146.1970 C   0  0  0  0  0  0  0  0  0  0  0  0
  188.3620  178.3700  141.6420 C   0  0  0  0  0  2  0  0  0  0  0  0
  189.1530  177.7120  140.5140 C   0  0  2  0  0  3  0  0  0  0  0  0
  191.2690  176.1910  139.0580 O   0  0  0  0  0  0  0  0  0  0  0  0
  191.6050  177.1920  139.9620 C   0  0  0  0  0  0  0  0  0  0  0  0
  192.8160  177.4550  140.1730 O   0  0  0  0  0  1  0  0  0  0  0  0
  190.5920  177.9360  140.6460 N   0  0  0  0  0  2  0  0  0  0  0  0
  188.9660  179.3960  138.6640 O   0  0  0  0  0  1  0  0  0  0  0  0
  187.9230  177.3060  138.4500 C   0  0  0  0  0  2  0  0  0  0  0  0
  188.6560  178.1410  139.1720 C   0  0  0  0  0  0  0  0  0  0  0  0
  1 22  1  1  0  0  0
  1  5  1  0  0  0  0
  1 13  1  0  0  0  0
  2  6  1  0  0  0  0
  3  2  2  0  0  0  0
  3  5  1  0  0  0  0
  4  7  1  0  0  0  0
  5  4  2  0  0  0  0
  6  7  2  0  0  0  0
  8  3  1  0  0  0  0
  9 12  1  0  0  0  0
 10 12  1  0  0  0  0
 12 11  1  0  0  0  0
 12  8  1  0  0  0  0
 13 19  1  0  0  0  0
 14 19  2  0  0  0  0
 14 15  1  0  0  0  0
 15 20  2  0  0  0  0
 16 14  1  0  0  0  0
 17 21  2  0  0  0  0
 19 17  1  0  0  0  0
 20 21  1  0  0  0  0
 21 18  1  0  0  0  0
 23 27  1  0  0  0  0
 23 22  1  1  0  0  0
 24 25  2  0  0  0  0
 25 26  1  0  0  0  0
 25 27  1  0  0  0  0
 28 30  1  0  0  0  0
 29 30  2  0  0  0  0
 30 23  1  0  0  0  0
M  END
>  <MODEL>
1

>  <REMARK>
 VINA RESULT:      -8.0      0.000      0.000
  Name = 
  9 active torsions:
  status: ('A' for Active; 'I' for Inactive)
    1  A    between atoms: O_1  and  C_5
    2  A    between atoms: O_1  and  C_22
    3  A    between atoms: C_4  and  C_5
    4  A    between atoms: C_4  and  C_23
    5  A    between atoms: C_5  and  C_12
    6  A    between atoms: C_8  and  N_13
    7  A    between atoms: N_13  and  C_30
    8  A    between atoms: C_23  and  N_25
    9  A    between atoms: C_23  and  C_26
                            x       y       z     vdW  Elec       q    Type
                         _______ _______ _______ _____ _____    ______ ____

>  <TORSDO>
F 9

$$$$
=
 OpenBabel10262421463D

 30 31  0  0  1  0  0  0  0  0999 V2000
  187.4700  177.8450  142.2620 C   0  0  2  0  0  3  0  0  0  0  0  0
  186.8400  177.5220  146.0040 C   0  0  0  0  0  3  0  0  0  0  0  0
  187.4590  177.4190  144.7480 C   0  0  0  0  0  0  0  0  0  0  0  0
  185.5580  178.5580  143.7550 C   0  0  0  0  0  3  0  0  0  0  0  0
  186.8090  177.9390  143.6130 C   0  0  0  0  0  0  0  0  0  0  0  0
  185.5930  178.1350  146.1340 C   0  0  0  0  0  3  0  0  0  0  0  0
  184.9520  178.6540  145.0090 C   0  0  0  0  0  3  0  0  0  0  0  0
  188.7410  176.7840  144.6050 N   0  0  0  0  0  2  0  0  0  0  0  0
  191.1360  176.3200  144.8090 C   0  0  0  0  0  1  0  0  0  0  0  0
  190.2410  178.5700  145.2460 C   0  0  0  0  0  1  0  0  0  0  0  0
  189.7590  176.7510  146.8320 C   0  0  0  0  0  1  0  0  0  0  0  0
  189.9520  177.0890  145.3650 C   0  0  0  0  0  0  0  0  0  0  0  0
  188.8890  177.6830  142.3610 O   0  0  0  0  0  0  0  0  0  0  0  0
  191.1090  177.7480  141.4120 C   0  0  0  0  0  0  0  0  0  0  0  0
  192.0020  177.4720  140.3720 C   0  0  0  0  0  3  0  0  0  0  0  0
  191.5580  178.3690  142.5300 F   0  0  0  0  0  0  0  0  0  0  0  0
  189.3190  176.7420  140.1330 C   0  0  0  0  0  3  0  0  0  0  0  0
  189.7320  175.7880  137.8630 C   0  0  0  0  0  1  0  0  0  0  0  0
  189.7590  177.3890  141.2990 C   0  0  0  0  0  0  0  0  0  0  0  0
  191.5540  176.8330  139.2130 C   0  0  0  0  0  3  0  0  0  0  0  0
  190.2110  176.4680  139.0950 C   0  0  0  0  0  0  0  0  0  0  0  0
  187.0680  178.9400  141.2730 C   0  0  0  0  0  2  0  0  0  0  0  0
  186.2620  178.3680  140.1090 C   0  0  2  0  0  3  0  0  0  0  0  0
  185.6250  176.9190  137.5800 O   0  0  0  0  0  1  0  0  0  0  0  0
  186.6220  177.8860  137.6150 C   0  0  0  0  0  0  0  0  0  0  0  0
  187.2670  178.1490  136.5680 O   0  0  0  0  0  0  0  0  0  0  0  0
  186.9160  178.5960  138.8210 N   0  0  0  0  0  2  0  0  0  0  0  0
  184.5340  180.0650  139.4540 O   0  0  0  0  0  1  0  0  0  0  0  0
  183.9100  178.1930  140.7230 C   0  0  0  0  0  2  0  0  0  0  0  0
  184.8590  178.8830  140.1070 C   0  0  0  0  0  0  0  0  0  0  0  0
  1 22  1  6  0  0  0
  1 13  1  0  0  0  0
  1  5  1  0  0  0  0
  2  6  1  0  0  0  0
  3  2  2  0  0  0  0
  4  7  1  0  0  0  0
  5  4  2  0  0  0  0
  5  3  1  0  0  0  0
  7  6  2  0  0  0  0
  8  3  1  0  0  0  0
  8 12  1  0  0  0  0
  9 12  1  0  0  0  0
 10 12  1  0  0  0  0
 12 11  1  0  0  0  0
 14 16  1  0  0  0  0
 15 14  2  0  0  0  0
 17 19  2  0  0  0  0
 18 21  1  0  0  0  0
 19 14  1  0  0  0  0
 19 13  1  0  0  0  0
 20 15  1  0  0  0  0
 21 20  2  0  0  0  0
 21 17  1  0  0  0  0
 23 22  1  1  0  0  0
 24 25  1  0  0  0  0
 25 27  1  0  0  0  0
 26 25  2  0  0  0  0
 27 23  1  0  0  0  0
 28 30  1  0  0  0  0
 30 23  1  0  0  0  0
 30 29  2  0  0  0  0
M  END
>  <MODEL>
2

>  <REMARK>
 VINA RESULT:      -7.5      2.060      5.410
  Name = 
  9 active torsions:
  status: ('A' for Active; 'I' for Inactive)
    1  A    between atoms: O_1  and  C_5
    2  A    between atoms: O_1  and  C_22
    3  A    between atoms: C_4  and  C_5
    4  A    between atoms: C_4  and  C_23
    5  A    between atoms: C_5  and  C_12
    6  A    between atoms: C_8  and  N_13
    7  A    between atoms: N_13  and  C_30
    8  A    between atoms: C_23  and  N_25
    9  A    between atoms: C_23  and  C_26
                            x       y       z     vdW  Elec       q    Type
                         _______ _______ _______ _____ _____    ______ ____

>  <TORSDO>
F 9

$$$$
=
 OpenBabel10262421463D

 30 31  0  0  1  0  0  0  0  0999 V2000
  185.1760  178.3890  139.0620 C   0  0  2  0  0  3  0  0  0  0  0  0
  181.4290  177.9920  138.5100 C   0  0  0  0  0  3  0  0  0  0  0  0
  182.7870  177.6770  138.6770 C   0  0  0  0  0  0  0  0  0  0  0  0
  183.2740  180.0470  138.8980 C   0  0  0  0  0  3  0  0  0  0  0  0
  183.7180  178.7160  138.8690 C   0  0  0  0  0  0  0  0  0  0  0  0
  180.9990  179.3200  138.5360 C   0  0  0  0  0  3  0  0  0  0  0  0
  181.9210  180.3470  138.7310 C   0  0  0  0  0  3  0  0  0  0  0  0
  183.2390  176.3130  138.6470 N   0  0  0  0  0  2  0  0  0  0  0  0
  183.4480  176.2090  136.2100 C   0  0  0  0  0  1  0  0  0  0  0  0
  184.3680  174.4280  137.6360 C   0  0  0  0  0  1  0  0  0  0  0  0
  181.9280  174.6540  137.4120 C   0  0  0  0  0  1  0  0  0  0  0  0
  183.2360  175.4210  137.4890 C   0  0  0  0  0  0  0  0  0  0  0  0
  185.7560  179.1090  140.1550 O   0  0  0  0  0  0  0  0  0  0  0  0
  186.7650  178.2130  142.1570 C   0  0  0  0  0  0  0  0  0  0  0  0
  186.6960  177.8590  143.5080 C   0  0  0  0  0  3  0  0  0  0  0  0
  187.9190  178.0110  141.4730 F   0  0  0  0  0  0  0  0  0  0  0  0
  184.4700  178.9720  142.2440 C   0  0  0  0  0  3  0  0  0  0  0  0
  183.1430  178.8340  144.3540 C   0  0  0  0  0  1  0  0  0  0  0  0
  185.6520  178.7680  141.5120 C   0  0  0  0  0  0  0  0  0  0  0  0
  185.5140  178.0610  144.2260 C   0  0  0  0  0  3  0  0  0  0  0  0
  184.4010  178.6180  143.5930 C   0  0  0  0  0  0  0  0  0  0  0  0
  186.0240  178.4590  137.7920 C   0  0  0  0  0  2  0  0  0  0  0  0
  186.8370  177.1820  137.5950 C   0  0  2  0  0  3  0  0  0  0  0  0
  188.8970  179.3400  137.6370 O   0  0  0  0  0  0  0  0  0  0  0  0
  189.0470  178.1970  138.4130 C   0  0  0  0  0  0  0  0  0  0  0  0
  190.0670  178.0700  139.1380 O   0  0  0  0  0  1  0  0  0  0  0  0
  188.0510  177.1700  138.4100 N   0  0  0  0  0  2  0  0  0  0  0  0
  187.8220  175.7990  135.7480 O   0  0  0  0  0  1  0  0  0  0  0  0
  186.7560  177.8280  135.2470 C   0  0  0  0  0  2  0  0  0  0  0  0
  187.1460  176.9430  136.1530 C   0  0  0  0  0  0  0  0  0  0  0  0
  1 22  1  6  0  0  0
  1 13  1  0  0  0  0
  2  6  2  0  0  0  0
  2  3  1  0  0  0  0
  3  5  2  0  0  0  0
  5  4  1  0  0  0  0
  5  1  1  0  0  0  0
  6  7  1  0  0  0  0
  7  4  2  0  0  0  0
  8  3  1  0  0  0  0
  9 12  1  0  0  0  0
 11 12  1  0  0  0  0
 12 10  1  0  0  0  0
 12  8  1  0  0  0  0
 13 19  1  0  0  0  0
 14 15  1  0  0  0  0
 15 20  2  0  0  0  0
 16 14  1  0  0  0  0
 17 21  2  0  0  0  0
 19 14  2  0  0  0  0
 19 17  1  0  0  0  0
 21 20  1  0  0  0  0
 21 18  1  0  0  0  0
 23 22  1  6  0  0  0
 23 27  1  0  0  0  0
 24 25  2  0  0  0  0
 25 26  1  0  0  0  0
 27 25  1  0  0  0  0
 28 30  1  0  0  0  0
 29 30  2  0  0  0  0
 30 23  1  0  0  0  0
M  END
>  <MODEL>
3

>  <REMARK>
 VINA RESULT:      -7.4      2.715      4.712
  Name = 
  9 active torsions:
  status: ('A' for Active; 'I' for Inactive)
    1  A    between atoms: O_1  and  C_5
    2  A    between atoms: O_1  and  C_22
    3  A    between atoms: C_4  and  C_5
    4  A    between atoms: C_4  and  C_23
    5  A    between atoms: C_5  and  C_12
    6  A    between atoms: C_8  and  N_13
    7  A    between atoms: N_13  and  C_30
    8  A    between atoms: C_23  and  N_25
    9  A    between atoms: C_23  and  C_26
                            x       y       z     vdW  Elec       q    Type
                         _______ _______ _______ _____ _____    ______ ____

>  <TORSDO>
F 9

$$$$
=
 OpenBabel10262421463D

 30 31  0  0  1  0  0  0  0  0999 V2000
  187.0410  178.2400  141.1020 C   0  0  2  0  0  3  0  0  0  0  0  0
  186.6210  178.2550  137.3170 C   0  0  0  0  0  3  0  0  0  0  0  0
  186.3230  178.1550  138.6860 C   0  0  0  0  0  0  0  0  0  0  0  0
  188.6550  178.6140  139.1910 C   0  0  0  0  0  3  0  0  0  0  0  0
  187.3520  178.3320  139.6300 C   0  0  0  0  0  0  0  0  0  0  0  0
  187.9210  178.5310  136.8910 C   0  0  0  0  0  3  0  0  0  0  0  0
  188.9380  178.7110  137.8280 C   0  0  0  0  0  3  0  0  0  0  0  0
  184.9880  177.8660  139.1330 N   0  0  0  0  0  2  0  0  0  0  0  0
  183.0020  176.4510  139.3440 C   0  0  0  0  0  1  0  0  0  0  0  0
  183.1780  178.1260  137.5500 C   0  0  0  0  0  1  0  0  0  0  0  0
  184.5950  176.1160  137.4670 C   0  0  0  0  0  1  0  0  0  0  0  0
  183.9600  177.1390  138.3900 C   0  0  0  0  0  0  0  0  0  0  0  0
  186.0740  179.2100  141.5160 O   0  0  0  0  0  0  0  0  0  0  0  0
  183.7790  179.0770  142.2590 C   0  0  0  0  0  0  0  0  0  0  0  0
  182.8300  178.9270  143.2740 C   0  0  0  0  0  3  0  0  0  0  0  0
  183.3660  179.2490  140.9790 F   0  0  0  0  0  0  0  0  0  0  0  0
  185.5510  178.8700  143.8920 C   0  0  0  0  0  3  0  0  0  0  0  0
  185.0420  178.5330  146.3130 C   0  0  0  0  0  1  0  0  0  0  0  0
  185.1480  179.0550  142.5600 C   0  0  0  0  0  0  0  0  0  0  0  0
  183.2410  178.7500  144.5970 C   0  0  0  0  0  3  0  0  0  0  0  0
  184.6030  178.7210  144.9060 C   0  0  0  0  0  0  0  0  0  0  0  0
  188.2660  178.2000  142.0160 C   0  0  0  0  0  2  0  0  0  0  0  0
  188.5250  176.7880  142.5370 C   0  0  2  0  0  3  0  0  0  0  0  0
  189.6810  178.3290  144.8170 O   0  0  0  0  0  0  0  0  0  0  0  0
  188.7040  177.3630  145.0310 C   0  0  0  0  0  0  0  0  0  0  0  0
  188.3070  177.1330  146.2020 O   0  0  0  0  0  1  0  0  0  0  0  0
  188.1340  176.6380  143.9380 N   0  0  0  0  0  2  0  0  0  0  0  0
  190.4260  175.1800  142.8390 O   0  0  0  0  0  1  0  0  0  0  0  0
  190.7480  177.1480  141.6050 C   0  0  0  0  0  2  0  0  0  0  0  0
  189.9440  176.3740  142.3190 C   0  0  0  0  0  0  0  0  0  0  0  0
  1 13  1  0  0  0  0
  1 22  1  1  0  0  0
  2  3  1  0  0  0  0
  3  8  1  0  0  0  0
  3  5  2  0  0  0  0
  4  5  1  0  0  0  0
  5  1  1  0  0  0  0
  6  2  2  0  0  0  0
  6  7  1  0  0  0  0
  7  4  2  0  0  0  0
 10 12  1  0  0  0  0
 11 12  1  0  0  0  0
 12  8  1  0  0  0  0
 12  9  1  0  0  0  0
 13 19  1  0  0  0  0
 14 19  2  0  0  0  0
 14 15  1  0  0  0  0
 15 20  2  0  0  0  0
 16 14  1  0  0  0  0
 17 21  2  0  0  0  0
 19 17  1  0  0  0  0
 20 21  1  0  0  0  0
 21 18  1  0  0  0  0
 23 22  1  1  0  0  0
 23 27  1  0  0  0  0
 24 25  2  0  0  0  0
 25 26  1  0  0  0  0
 27 25  1  0  0  0  0
 29 30  2  0  0  0  0
 30 23  1  0  0  0  0
 30 28  1  0  0  0  0
M  END
>  <MODEL>
4

>  <REMARK>
 VINA RESULT:      -7.3      2.585      5.316
  Name = 
  9 active torsions:
  status: ('A' for Active; 'I' for Inactive)
    1  A    between atoms: O_1  and  C_5
    2  A    between atoms: O_1  and  C_22
    3  A    between atoms: C_4  and  C_5
    4  A    between atoms: C_4  and  C_23
    5  A    between atoms: C_5  and  C_12
    6  A    between atoms: C_8  and  N_13
    7  A    between atoms: N_13  and  C_30
    8  A    between atoms: C_23  and  N_25
    9  A    between atoms: C_23  and  C_26
                            x       y       z     vdW  Elec       q    Type
                         _______ _______ _______ _____ _____    ______ ____

>  <TORSDO>
F 9

$$$$
=
 OpenBabel10262421463D

 30 31  0  0  1  0  0  0  0  0999 V2000
  187.7980  177.5440  142.4310 C   0  0  2  0  0  3  0  0  0  0  0  0
  185.3200  178.8800  139.8660 C   0  0  0  0  0  3  0  0  0  0  0  0
  186.5070  178.3920  140.4380 C   0  0  0  0  0  0  0  0  0  0  0  0
  185.3750  178.2530  142.5830 C   0  0  0  0  0  3  0  0  0  0  0  0
  186.5340  178.0800  141.8100 C   0  0  0  0  0  0  0  0  0  0  0  0
  184.1750  179.0520  140.6440 C   0  0  0  0  0  3  0  0  0  0  0  0
  184.2010  178.7380  142.0030 C   0  0  0  0  0  3  0  0  0  0  0  0
  187.6920  178.2160  139.6440 N   0  0  0  0  0  2  0  0  0  0  0  0
  187.9310  176.5860  137.8330 C   0  0  0  0  0  1  0  0  0  0  0  0
  186.4490  178.5360  137.5940 C   0  0  0  0  0  1  0  0  0  0  0  0
  188.8870  178.8680  137.6090 C   0  0  0  0  0  1  0  0  0  0  0  0
  187.7510  178.0490  138.1930 C   0  0  0  0  0  0  0  0  0  0  0  0
  187.5380  176.7260  143.5760 O   0  0  0  0  0  0  0  0  0  0  0  0
  186.9030  177.5880  145.7410 C   0  0  0  0  0  0  0  0  0  0  0  0
  187.2110  177.9100  147.0660 C   0  0  0  0  0  3  0  0  0  0  0  0
  185.6530  177.8210  145.2700 F   0  0  0  0  0  0  0  0  0  0  0  0
  189.1660  176.7970  145.4140 C   0  0  0  0  0  3  0  0  0  0  0  0
  190.8390  176.8690  147.2660 C   0  0  0  0  0  1  0  0  0  0  0  0
  187.8800  177.0340  144.9020 C   0  0  0  0  0  0  0  0  0  0  0  0
  188.4950  177.6760  147.5650 C   0  0  0  0  0  3  0  0  0  0  0  0
  189.4720  177.1190  146.7380 C   0  0  0  0  0  0  0  0  0  0  0  0
  188.8810  178.5920  142.6880 C   0  0  0  0  0  2  0  0  0  0  0  0
  190.2180  178.1680  142.0850 C   0  0  2  0  0  3  0  0  0  0  0  0
  192.1930  177.4660  139.9600 O   0  0  0  0  0  1  0  0  0  0  0  0
  191.0060  176.7540  140.0940 C   0  0  0  0  0  0  0  0  0  0  0  0
  190.7610  175.8050  139.3060 O   0  0  0  0  0  0  0  0  0  0  0  0
  190.0680  177.0760  141.1240 N   0  0  0  0  0  2  0  0  0  0  0  0
  191.6870  176.5300  143.2910 O   0  0  0  0  0  1  0  0  0  0  0  0
  191.6690  178.7830  143.9440 C   0  0  0  0  0  2  0  0  0  0  0  0
  191.2160  177.8280  143.1450 C   0  0  0  0  0  0  0  0  0  0  0  0
  1 22  1  1  0  0  0
  1 13  1  0  0  0  0
  2  3  2  0  0  0  0
  2  6  1  0  0  0  0
  3  5  1  0  0  0  0
  5  1  1  0  0  0  0
  5  4  2  0  0  0  0
  6  7  2  0  0  0  0
  7  4  1  0  0  0  0
  8  3  1  0  0  0  0
  9 12  1  0  0  0  0
 10 12  1  0  0  0  0
 11 12  1  0  0  0  0
 12  8  1  0  0  0  0
 13 19  1  0  0  0  0
 14 15  1  0  0  0  0
 15 20  2  0  0  0  0
 16 14  1  0  0  0  0
 17 21  2  0  0  0  0
 19 17  1  0  0  0  0
 19 14  2  0  0  0  0
 21 18  1  0  0  0  0
 21 20  1  0  0  0  0
 23 22  1  1  0  0  0
 23 30  1  0  0  0  0
 24 25  1  0  0  0  0
 25 27  1  0  0  0  0
 26 25  2  0  0  0  0
 27 23  1  0  0  0  0
 30 28  1  0  0  0  0
 30 29  2  0  0  0  0
M  END
>  <MODEL>
5

>  <REMARK>
 VINA RESULT:      -7.3      1.923      3.451
  Name = 
  9 active torsions:
  status: ('A' for Active; 'I' for Inactive)
    1  A    between atoms: O_1  and  C_5
    2  A    between atoms: O_1  and  C_22
    3  A    between atoms: C_4  and  C_5
    4  A    between atoms: C_4  and  C_23
    5  A    between atoms: C_5  and  C_12
    6  A    between atoms: C_8  and  N_13
    7  A    between atoms: N_13  and  C_30
    8  A    between atoms: C_23  and  N_25
    9  A    between atoms: C_23  and  C_26
                            x       y       z     vdW  Elec       q    Type
                         _______ _______ _______ _____ _____    ______ ____

>  <TORSDO>
F 9

$$$$
=
 OpenBabel10262421463D

 30 31  0  0  1  0  0  0  0  0999 V2000
  184.2550  178.3810  140.3000 C   0  0  2  0  0  3  0  0  0  0  0  0
  180.8420  176.7460  139.8760 C   0  0  0  0  0  3  0  0  0  0  0  0
  182.2280  176.9590  139.8170 C   0  0  0  0  0  0  0  0  0  0  0  0
  181.9120  179.0950  140.9310 C   0  0  0  0  0  3  0  0  0  0  0  0
  182.7670  178.1480  140.3460 C   0  0  0  0  0  0  0  0  0  0  0  0
  180.0000  177.6970  140.4550 C   0  0  0  0  0  3  0  0  0  0  0  0
  180.5350  178.8710  140.9830 C   0  0  0  0  0  3  0  0  0  0  0  0
  183.1020  175.9880  139.2190 N   0  0  0  0  0  2  0  0  0  0  0  0
  184.2820  174.7060  137.4980 C   0  0  0  0  0  1  0  0  0  0  0  0
  181.8440  174.5170  137.7670 C   0  0  0  0  0  1  0  0  0  0  0  0
  182.8000  176.5980  136.8660 C   0  0  0  0  0  1  0  0  0  0  0  0
  183.0190  175.4670  137.8550 C   0  0  0  0  0  0  0  0  0  0  0  0
  184.7110  179.2020  141.3800 O   0  0  0  0  0  0  0  0  0  0  0  0
  184.4870  179.0500  143.7800 C   0  0  0  0  0  0  0  0  0  0  0  0
  184.9460  178.6090  145.0250 C   0  0  0  0  0  3  0  0  0  0  0  0
  183.3470  179.7810  143.7100 F   0  0  0  0  0  0  0  0  0  0  0  0
  186.3740  177.9790  142.7110 C   0  0  0  0  0  3  0  0  0  0  0  0
  188.0810  176.7380  144.0460 C   0  0  0  0  0  1  0  0  0  0  0  0
  185.1990  178.7420  142.6130 C   0  0  0  0  0  0  0  0  0  0  0  0
  186.1190  177.8550  145.1130 C   0  0  0  0  0  3  0  0  0  0  0  0
  186.8330  177.5400  143.9550 C   0  0  0  0  0  0  0  0  0  0  0  0
  184.7910  178.8390  138.9430 C   0  0  0  0  0  2  0  0  0  0  0  0
  186.0930  178.1230  138.5910 C   0  0  2  0  0  3  0  0  0  0  0  0
  188.7050  176.6900  138.7630 O   0  0  0  0  0  0  0  0  0  0  0  0
  188.4120  177.7430  139.6220 C   0  0  0  0  0  0  0  0  0  0  0  0
  189.2580  178.0930  140.4850 O   0  0  0  0  0  1  0  0  0  0  0  0
  187.1690  178.4450  139.5280 N   0  0  0  0  0  2  0  0  0  0  0  0
  187.2260  179.5280  136.8480 O   0  0  0  0  0  1  0  0  0  0  0  0
  186.1830  177.5200  136.2320 C   0  0  0  0  0  2  0  0  0  0  0  0
  186.5020  178.3900  137.1790 C   0  0  0  0  0  0  0  0  0  0  0  0
  1 22  1  6  0  0  0
  1  5  1  0  0  0  0
  1 13  1  0  0  0  0
  2  6  1  0  0  0  0
  3  2  2  0  0  0  0
  3  5  1  0  0  0  0
  4  7  1  0  0  0  0
  5  4  2  0  0  0  0
  6  7  2  0  0  0  0
  8  3  1  0  0  0  0
  9 12  1  0  0  0  0
 10 12  1  0  0  0  0
 11 12  1  0  0  0  0
 12  8  1  0  0  0  0
 13 19  1  0  0  0  0
 14 15  1  0  0  0  0
 15 20  2  0  0  0  0
 16 14  1  0  0  0  0
 17 21  2  0  0  0  0
 19 17  1  0  0  0  0
 19 14  2  0  0  0  0
 21 18  1  0  0  0  0
 21 20  1  0  0  0  0
 23 22  1  1  0  0  0
 23 27  1  0  0  0  0
 24 25  2  0  0  0  0
 25 26  1  0  0  0  0
 27 25  1  0  0  0  0
 28 30  1  0  0  0  0
 29 30  2  0  0  0  0
 30 23  1  0  0  0  0
M  END
>  <MODEL>
6

>  <REMARK>
 VINA RESULT:      -7.3      2.729      4.535
  Name = 
  9 active torsions:
  status: ('A' for Active; 'I' for Inactive)
    1  A    between atoms: O_1  and  C_5
    2  A    between atoms: O_1  and  C_22
    3  A    between atoms: C_4  and  C_5
    4  A    between atoms: C_4  and  C_23
    5  A    between atoms: C_5  and  C_12
    6  A    between atoms: C_8  and  N_13
    7  A    between atoms: N_13  and  C_30
    8  A    between atoms: C_23  and  N_25
    9  A    between atoms: C_23  and  C_26
                            x       y       z     vdW  Elec       q    Type
                         _______ _______ _______ _____ _____    ______ ____

>  <TORSDO>
F 9

$$$$
=
 OpenBabel10262421463D

 30 31  0  0  1  0  0  0  0  0999 V2000
  188.8310  177.1770  143.7270 C   0  0  2  0  0  3  0  0  0  0  0  0
  191.0680  176.8300  146.7890 C   0  0  0  0  0  3  0  0  0  0  0  0
  190.0130  177.2330  145.9540 C   0  0  0  0  0  0  0  0  0  0  0  0
  190.9650  175.8940  144.1640 C   0  0  0  0  0  3  0  0  0  0  0  0
  189.9650  176.7620  144.6280 C   0  0  0  0  0  0  0  0  0  0  0  0
  192.0600  175.9700  146.3160 C   0  0  0  0  0  3  0  0  0  0  0  0
  192.0090  175.5010  145.0040 C   0  0  0  0  0  3  0  0  0  0  0  0
  188.9900  178.1220  146.4310 N   0  0  0  0  0  2  0  0  0  0  0  0
  187.1650  179.0200  147.7940 C   0  0  0  0  0  1  0  0  0  0  0  0
  187.9420  176.7040  148.0860 C   0  0  0  0  0  1  0  0  0  0  0  0
  189.3870  178.5600  148.8070 C   0  0  0  0  0  1  0  0  0  0  0  0
  188.3820  178.1150  147.7600 C   0  0  0  0  0  0  0  0  0  0  0  0
  187.5750  177.2120  144.4130 O   0  0  0  0  0  0  0  0  0  0  0  0
  185.3430  178.0280  144.8440 C   0  0  0  0  0  0  0  0  0  0  0  0
  184.1570  178.6290  144.4120 C   0  0  0  0  0  3  0  0  0  0  0  0
  185.4640  177.6440  146.1390 F   0  0  0  0  0  0  0  0  0  0  0  0
  186.2520  178.2310  142.6120 C   0  0  0  0  0  3  0  0  0  0  0  0
  184.9220  179.2560  140.7650 C   0  0  0  0  0  1  0  0  0  0  0  0
  186.3990  177.8200  143.9470 C   0  0  0  0  0  0  0  0  0  0  0  0
  184.0180  179.0300  143.0810 C   0  0  0  0  0  3  0  0  0  0  0  0
  185.0670  178.8310  142.1810 C   0  0  0  0  0  0  0  0  0  0  0  0
  188.7570  176.4230  142.3980 C   0  0  0  0  0  2  0  0  0  0  0  0
  189.1730  177.3140  141.2310 C   0  0  2  0  0  3  0  0  0  0  0  0
  189.0550  179.3150  139.0180 O   0  0  0  0  0  1  0  0  0  0  0  0
  188.1020  178.3080  139.1210 C   0  0  0  0  0  0  0  0  0  0  0  0
  187.1760  178.2430  138.2720 O   0  0  0  0  0  0  0  0  0  0  0  0
  188.1680  177.3360  140.1680 N   0  0  0  0  0  2  0  0  0  0  0  0
  190.6440  176.0060  139.6760 O   0  0  0  0  0  1  0  0  0  0  0  0
  191.6020  177.5030  141.2070 C   0  0  0  0  0  2  0  0  0  0  0  0
  190.5180  176.9340  140.7010 C   0  0  0  0  0  0  0  0  0  0  0  0
  1 22  1  6  0  0  0
  1 13  1  0  0  0  0
  1  5  1  0  0  0  0
  3  8  1  0  0  0  0
  3  2  2  0  0  0  0
  4  5  2  0  0  0  0
  4  7  1  0  0  0  0
  5  3  1  0  0  0  0
  6  2  1  0  0  0  0
  7  6  2  0  0  0  0
  8 12  1  0  0  0  0
 12  9  1  0  0  0  0
 12 10  1  0  0  0  0
 12 11  1  0  0  0  0
 14 16  1  0  0  0  0
 15 14  1  0  0  0  0
 17 19  1  0  0  0  0
 18 21  1  0  0  0  0
 19 13  1  0  0  0  0
 19 14  2  0  0  0  0
 20 15  2  0  0  0  0
 21 17  2  0  0  0  0
 21 20  1  0  0  0  0
 23 22  1  1  0  0  0
 24 25  1  0  0  0  0
 25 27  1  0  0  0  0
 26 25  2  0  0  0  0
 27 23  1  0  0  0  0
 28 30  1  0  0  0  0
 30 29  2  0  0  0  0
 30 23  1  0  0  0  0
M  END
>  <MODEL>
7

>  <REMARK>
 VINA RESULT:      -7.3      2.035      6.270
  Name = 
  9 active torsions:
  status: ('A' for Active; 'I' for Inactive)
    1  A    between atoms: O_1  and  C_5
    2  A    between atoms: O_1  and  C_22
    3  A    between atoms: C_4  and  C_5
    4  A    between atoms: C_4  and  C_23
    5  A    between atoms: C_5  and  C_12
    6  A    between atoms: C_8  and  N_13
    7  A    between atoms: N_13  and  C_30
    8  A    between atoms: C_23  and  N_25
    9  A    between atoms: C_23  and  C_26
                            x       y       z     vdW  Elec       q    Type
                         _______ _______ _______ _____ _____    ______ ____

>  <TORSDO>
F 9

$$$$
=
 OpenBabel10262421463D

 30 31  0  0  1  0  0  0  0  0999 V2000
  187.3310  178.2010  139.7150 C   0  0  2  0  0  3  0  0  0  0  0  0
  186.4320  177.4400  136.0940 C   0  0  0  0  0  3  0  0  0  0  0  0
  186.3310  177.5660  137.4890 C   0  0  0  0  0  0  0  0  0  0  0  0
  188.6110  178.4030  137.5440 C   0  0  0  0  0  3  0  0  0  0  0  0
  187.4330  178.0490  138.2190 C   0  0  0  0  0  0  0  0  0  0  0  0
  187.6100  177.7900  135.4320 C   0  0  0  0  0  3  0  0  0  0  0  0
  188.6990  178.2720  136.1570 C   0  0  0  0  0  3  0  0  0  0  0  0
  185.1230  177.2040  138.1790 N   0  0  0  0  0  2  0  0  0  0  0  0
  184.5260  175.1110  137.0570 C   0  0  0  0  0  1  0  0  0  0  0  0
  183.0520  176.0990  138.7610 C   0  0  0  0  0  1  0  0  0  0  0  0
  183.2740  177.2020  136.5730 C   0  0  0  0  0  1  0  0  0  0  0  0
  184.0160  176.4160  137.6390 C   0  0  0  0  0  0  0  0  0  0  0  0
  186.2440  179.0480  140.1030 O   0  0  0  0  0  0  0  0  0  0  0  0
  184.0610  178.9930  141.1350 C   0  0  0  0  0  0  0  0  0  0  0  0
  183.2440  178.8490  142.2600 C   0  0  0  0  0  3  0  0  0  0  0  0
  183.4950  179.2310  139.9260 F   0  0  0  0  0  0  0  0  0  0  0  0
  186.0160  178.6430  142.5160 C   0  0  0  0  0  3  0  0  0  0  0  0
  185.8070  178.2400  144.9700 C   0  0  0  0  0  1  0  0  0  0  0  0
  185.4540  178.8960  141.2540 C   0  0  0  0  0  0  0  0  0  0  0  0
  183.8120  178.6040  143.5130 C   0  0  0  0  0  3  0  0  0  0  0  0
  185.2000  178.5010  143.6390 C   0  0  0  0  0  0  0  0  0  0  0  0
  188.6410  178.5640  140.4150 C   0  0  0  0  0  2  0  0  0  0  0  0
  189.2810  177.3400  141.0660 C   0  0  2  0  0  3  0  0  0  0  0  0
  188.0950  175.6490  143.2210 O   0  0  0  0  0  0  0  0  0  0  0  0
  188.9130  176.7290  143.5310 C   0  0  0  0  0  0  0  0  0  0  0  0
  189.1520  176.9990  144.7360 O   0  0  0  0  0  1  0  0  0  0  0  0
  189.4990  177.5280  142.4990 N   0  0  0  0  0  2  0  0  0  0  0  0
  190.5270  176.0080  139.3430 O   0  0  0  0  0  1  0  0  0  0  0  0
  191.6880  177.5040  140.7270 C   0  0  0  0  0  2  0  0  0  0  0  0
  190.5420  176.9430  140.3700 C   0  0  0  0  0  0  0  0  0  0  0  0
  1 13  1  0  0  0  0
  1 22  1  6  0  0  0
  2  3  1  0  0  0  0
  3  8  1  0  0  0  0
  3  5  2  0  0  0  0
  4  5  1  0  0  0  0
  5  1  1  0  0  0  0
  6  2  2  0  0  0  0
  6  7  1  0  0  0  0
  7  4  2  0  0  0  0
  9 12  1  0  0  0  0
 11 12  1  0  0  0  0
 12  8  1  0  0  0  0
 12 10  1  0  0  0  0
 13 19  1  0  0  0  0
 14 19  2  0  0  0  0
 14 15  1  0  0  0  0
 15 20  2  0  0  0  0
 16 14  1  0  0  0  0
 17 21  2  0  0  0  0
 19 17  1  0  0  0  0
 20 21  1  0  0  0  0
 21 18  1  0  0  0  0
 23 22  1  6  0  0  0
 23 27  1  0  0  0  0
 24 25  2  0  0  0  0
 25 26  1  0  0  0  0
 27 25  1  0  0  0  0
 28 30  1  0  0  0  0
 30 29  2  0  0  0  0
 30 23  1  0  0  0  0
M  END
>  <MODEL>
8

>  <REMARK>
 VINA RESULT:      -7.2      2.419      5.462
  Name = 
  9 active torsions:
  status: ('A' for Active; 'I' for Inactive)
    1  A    between atoms: O_1  and  C_5
    2  A    between atoms: O_1  and  C_22
    3  A    between atoms: C_4  and  C_5
    4  A    between atoms: C_4  and  C_23
    5  A    between atoms: C_5  and  C_12
    6  A    between atoms: C_8  and  N_13
    7  A    between atoms: N_13  and  C_30
    8  A    between atoms: C_23  and  N_25
    9  A    between atoms: C_23  and  C_26
                            x       y       z     vdW  Elec       q    Type
                         _______ _______ _______ _____ _____    ______ ____

>  <TORSDO>
F 9

$$$$
=
 OpenBabel10262421463D

 30 31  0  0  1  0  0  0  0  0999 V2000
  186.9190  177.7020  142.5130 C   0  0  2  0  0  3  0  0  0  0  0  0
  183.3320  178.7010  143.3120 C   0  0  0  0  0  3  0  0  0  0  0  0
  184.4600  178.2560  142.6040 C   0  0  0  0  0  0  0  0  0  0  0  0
  185.7970  178.5620  144.6090 C   0  0  0  0  0  3  0  0  0  0  0  0
  185.7040  178.1910  143.2590 C   0  0  0  0  0  0  0  0  0  0  0  0
  183.4360  179.0730  144.6540 C   0  0  0  0  0  3  0  0  0  0  0  0
  184.6680  179.0040  145.3030 C   0  0  0  0  0  3  0  0  0  0  0  0
  184.3630  177.8760  141.2220 N   0  0  0  0  0  2  0  0  0  0  0  0
  182.0020  178.5050  141.0610 C   0  0  0  0  0  1  0  0  0  0  0  0
  183.6750  179.4660  139.5340 C   0  0  0  0  0  1  0  0  0  0  0  0
  183.0540  177.0960  139.3050 C   0  0  0  0  0  1  0  0  0  0  0  0
  183.2830  178.2210  140.2980 C   0  0  0  0  0  0  0  0  0  0  0  0
  187.5800  176.6300  143.1910 O   0  0  0  0  0  0  0  0  0  0  0  0
  189.8600  176.2750  143.9060 C   0  0  0  0  0  0  0  0  0  0  0  0
  190.8740  176.3920  144.8610 C   0  0  0  0  0  3  0  0  0  0  0  0
  190.1280  175.6760  142.7190 F   0  0  0  0  0  0  0  0  0  0  0  0
  188.3230  177.3870  145.4070 C   0  0  0  0  0  3  0  0  0  0  0  0
  189.0560  178.1570  147.6660 C   0  0  0  0  0  1  0  0  0  0  0  0
  188.5750  176.7670  144.1720 C   0  0  0  0  0  0  0  0  0  0  0  0
  190.6120  177.0060  146.0890 C   0  0  0  0  0  3  0  0  0  0  0  0
  189.3360  177.5040  146.3610 C   0  0  0  0  0  0  0  0  0  0  0  0
  187.8830  178.8020  142.0650 C   0  0  0  0  0  2  0  0  0  0  0  0
  188.3080  178.6090  140.6110 C   0  0  2  0  0  3  0  0  0  0  0  0
  187.9780  179.0240  137.6740 O   0  0  0  0  0  0  0  0  0  0  0  0
  187.0700  178.2530  138.3910 C   0  0  0  0  0  0  0  0  0  0  0  0
  186.0950  177.7290  137.7940 O   0  0  0  0  0  1  0  0  0  0  0  0
  187.2370  178.0360  139.7950 N   0  0  0  0  0  2  0  0  0  0  0  0
  190.6850  178.1330  141.2560 O   0  0  0  0  0  1  0  0  0  0  0  0
  189.5980  176.7520  139.7020 C   0  0  0  0  0  2  0  0  0  0  0  0
  189.5620  177.8040  140.5070 C   0  0  0  0  0  0  0  0  0  0  0  0
  1 22  1  1  0  0  0
  1 13  1  0  0  0  0
  1  5  1  0  0  0  0
  2  6  1  0  0  0  0
  3  5  1  0  0  0  0
  3  2  2  0  0  0  0
  4  7  1  0  0  0  0
  5  4  2  0  0  0  0
  6  7  2  0  0  0  0
  8  3  1  0  0  0  0
 10 12  1  0  0  0  0
 11 12  1  0  0  0  0
 12  9  1  0  0  0  0
 12  8  1  0  0  0  0
 13 19  1  0  0  0  0
 14 19  2  0  0  0  0
 14 15  1  0  0  0  0
 15 20  2  0  0  0  0
 16 14  1  0  0  0  0
 17 21  2  0  0  0  0
 19 17  1  0  0  0  0
 20 21  1  0  0  0  0
 21 18  1  0  0  0  0
 23 22  1  1  0  0  0
 24 25  2  0  0  0  0
 25 27  1  0  0  0  0
 26 25  1  0  0  0  0
 27 23  1  0  0  0  0
 29 30  2  0  0  0  0
 30 23  1  0  0  0  0
 30 28  1  0  0  0  0
M  END
>  <MODEL>
9

>  <REMARK>
 VINA RESULT:      -7.2      1.312      2.229
  Name = 
  9 active torsions:
  status: ('A' for Active; 'I' for Inactive)
    1  A    between atoms: O_1  and  C_5
    2  A    between atoms: O_1  and  C_22
    3  A    between atoms: C_4  and  C_5
    4  A    between atoms: C_4  and  C_23
    5  A    between atoms: C_5  and  C_12
    6  A    between atoms: C_8  and  N_13
    7  A    between atoms: N_13  and  C_30
    8  A    between atoms: C_23  and  N_25
    9  A    between atoms: C_23  and  C_26
                            x       y       z     vdW  Elec       q    Type
                         _______ _______ _______ _____ _____    ______ ____

>  <TORSDO>
F 9

$$$$
