=
 OpenBabel10262421253D

 32 37  0  0  1  0  0  0  0  0999 V2000
  186.9390  177.7020  141.9830 C   0  0  1  0  0  3  0  0  0  0  0  0
  183.4720  178.9050  145.2970 C   0  0  0  0  0  3  0  0  0  0  0  0
  184.4370  178.9130  146.3050 C   0  0  0  0  0  3  0  0  0  0  0  0
  186.4740  178.6760  139.7830 N   0  0  0  0  0  0  0  0  0  0  0  0
  184.4880  178.0180  141.2730 C   0  0  0  0  0  2  0  0  0  0  0  0
  184.2800  178.5980  138.9730 O   0  0  0  0  0  0  0  0  0  0  0  0
  183.8380  178.6030  143.9830 C   0  0  0  0  0  3  0  0  0  0  0  0
  185.5150  178.0220  142.3760 C   0  0  0  0  0  0  0  0  0  0  0  0
  185.1720  178.3050  143.6540 C   0  0  0  0  0  0  0  0  0  0  0  0
  187.4190  178.0340  144.4420 C   0  0  0  0  0  3  0  0  0  0  0  0
  185.0580  178.4640  139.9540 C   0  0  0  0  0  0  0  0  0  0  0  0
  185.7660  178.6190  145.9990 C   0  0  0  0  0  3  0  0  0  0  0  0
  186.1420  178.3160  144.6870 C   0  0  0  0  0  0  0  0  0  0  0  0
  187.3720  178.7170  140.9340 C   0  0  0  0  0  2  0  0  0  0  0  0
  187.8680  177.7120  143.1190 N   0  0  0  0  0  0  0  0  0  0  0  0
  189.2500  177.2900  142.8920 C   0  0  2  0  0  3  0  0  0  0  0  0
  189.4220  175.7550  143.0850 C   0  0  0  0  0  2  0  0  0  0  0  0
  190.2430  177.3750  145.0240 N   0  0  1  0  0  0  0  0  0  0  0  0
  191.5800  176.8360  145.1990 C   0  0  0  0  0  2  0  0  0  0  0  0
  191.7570  175.6720  144.2270 C   0  0  0  0  0  3  0  0  0  0  0  0
  190.1010  178.7450  144.9240 O   0  0  0  0  0  0  0  0  0  0  0  0
  190.8510  175.2450  143.3020 C   0  0  0  0  0  3  0  0  0  0  0  0
  191.4960  178.3260  143.1450 O   0  0  0  0  0  1  0  0  0  0  0  0
  190.2430  178.0830  143.7370 C   0  0  2  0  0  0  0  0  0  0  0  0
  187.0280  178.7540  138.4960 N   0  0  0  0  0  2  0  0  0  0  0  0
  187.6200  177.4300  136.6580 O   0  0  0  0  0  0  0  0  0  0  0  0
  186.9910  177.4140  137.9180 C   0  0  1  0  0  3  0  0  0  0  0  0
  188.3470  176.8260  137.7000 C   0  0  2  0  0  3  0  0  0  0  0  0
  189.5190  177.7260  138.0780 C   0  0  0  0  0  2  0  0  0  0  0  0
  190.4750  176.9810  138.9430 C   0  0  0  0  0  0  0  0  0  0  0  0
  190.9990  177.5470  139.9370 O   0  0  0  0  0  0  0  0  0  0  0  0
  190.7680  175.6160  138.6670 N   0  0  0  0  0  1  0  0  0  0  0  0
  1 14  1  6  0  0  0
  1  8  1  0  0  0  0
  1 15  1  0  0  0  0
  2  3  1  0  0  0  0
  4 11  1  0  0  0  0
  4 14  1  0  0  0  0
  5  8  1  0  0  0  0
  6 11  2  0  0  0  0
  7  2  2  0  0  0  0
  8  9  2  0  0  0  0
  9  7  1  0  0  0  0
  9 13  1  0  0  0  0
 10 13  2  0  0  0  0
 11  5  1  0  0  0  0
 12  3  2  0  0  0  0
 13 12  1  0  0  0  0
 15 10  1  0  0  0  0
 16 17  1  1  0  0  0
 16 15  1  0  0  0  0
 16 24  1  0  0  0  0
 17 22  1  0  0  0  0
 18 19  1  1  0  0  0
 20 19  1  0  0  0  0
 21 18  1  0  0  0  0
 22 20  2  0  0  0  0
 24 23  1  6  0  0  0
 24 21  1  0  0  0  0
 24 18  1  0  0  0  0
 25  4  1  0  0  0  0
 26 28  1  0  0  0  0
 26 27  1  0  0  0  0
 27 25  1  1  0  0  0
 28 27  1  0  0  0  0
 28 29  1  1  0  0  0
 29 30  1  0  0  0  0
 30 31  2  0  0  0  0
 32 30  1  0  0  0  0
M  END
>  <MODEL>
1

>  <REMARK>
 VINA RESULT:      -8.9      0.000      0.000
  Name = 
  5 active torsions:
  status: ('A' for Active; 'I' for Inactive)
    1  A    between atoms: C_1  and  C_10
    2  A    between atoms: C_6  and  N_31
    3  A    between atoms: N_8  and  N_23
    4  A    between atoms: C_10  and  C_24
    5  A    between atoms: C_19  and  N_23
                            x       y       z     vdW  Elec       q    Type
                         _______ _______ _______ _____ _____    ______ ____

>  <TORSDO>
F 5

$$$$
=
 OpenBabel10262421253D

 32 37  0  0  1  0  0  0  0  0999 V2000
  187.1770  178.5440  141.5100 C   0  0  1  0  0  3  0  0  0  0  0  0
  187.8290  177.7190  136.6790 C   0  0  0  0  0  3  0  0  0  0  0  0
  189.1350  177.2940  136.9270 C   0  0  0  0  0  3  0  0  0  0  0  0
  184.8670  178.1110  142.2040 N   0  0  0  0  0  0  0  0  0  0  0  0
  185.2840  178.9890  139.8280 C   0  0  0  0  0  2  0  0  0  0  0  0
  183.1310  178.8830  140.8380 O   0  0  0  0  0  0  0  0  0  0  0  0
  187.0180  178.1370  137.7370 C   0  0  0  0  0  3  0  0  0  0  0  0
  186.7000  178.5360  140.0760 C   0  0  0  0  0  0  0  0  0  0  0  0
  187.4970  178.1370  139.0590 C   0  0  0  0  0  0  0  0  0  0  0  0
  189.3400  177.6870  140.5240 C   0  0  0  0  0  3  0  0  0  0  0  0
  184.3610  178.6440  140.9640 C   0  0  0  0  0  0  0  0  0  0  0  0
  189.6290  177.2870  138.2320 C   0  0  0  0  0  3  0  0  0  0  0  0
  188.8250  177.7030  139.2970 C   0  0  0  0  0  0  0  0  0  0  0  0
  186.2470  177.6460  142.3150 C   0  0  0  0  0  2  0  0  0  0  0  0
  188.5690  178.1050  141.6580 N   0  0  0  0  0  0  0  0  0  0  0  0
  189.1900  178.1920  142.9790 C   0  0  2  0  0  3  0  0  0  0  0  0
  190.5750  178.9020  142.9180 C   0  0  0  0  0  2  0  0  0  0  0  0
  190.5160  176.2540  143.1290 N   0  0  1  0  0  0  0  0  0  0  0  0
  191.4270  176.1110  144.2510 C   0  0  0  0  0  2  0  0  0  0  0  0
  191.9100  177.5020  144.6560 C   0  0  0  0  0  3  0  0  0  0  0  0
  189.3220  175.5630  143.1680 O   0  0  0  0  0  0  0  0  0  0  0  0
  191.5100  178.6860  144.1120 C   0  0  0  0  0  3  0  0  0  0  0  0
  189.1380  176.8440  145.0680 O   0  0  0  0  0  1  0  0  0  0  0  0
  189.2780  176.8340  143.6680 C   0  0  2  0  0  0  0  0  0  0  0  0
  184.0660  178.1140  143.3570 N   0  0  0  0  0  2  0  0  0  0  0  0
  183.4300  179.4910  145.1400 O   0  0  0  0  0  0  0  0  0  0  0  0
  184.0380  179.4810  143.8700 C   0  0  1  0  0  3  0  0  0  0  0  0
  184.8280  179.6560  145.1260 C   0  0  2  0  0  3  0  0  0  0  0  0
  185.4860  178.3920  145.6670 C   0  0  0  0  0  2  0  0  0  0  0  0
  186.1420  178.6780  146.9730 C   0  0  0  0  0  0  0  0  0  0  0  0
  185.8460  179.7210  147.6120 O   0  0  0  0  0  0  0  0  0  0  0  0
  187.0770  177.7530  147.5170 N   0  0  0  0  0  1  0  0  0  0  0  0
  1 15  1  0  0  0  0
  1 14  1  1  0  0  0
  2  3  1  0  0  0  0
  2  7  2  0  0  0  0
  3 12  2  0  0  0  0
  4 14  1  0  0  0  0
  4 25  1  0  0  0  0
  5  8  1  0  0  0  0
  5 11  1  0  0  0  0
  6 11  2  0  0  0  0
  7  9  1  0  0  0  0
  8  1  1  0  0  0  0
  9 13  1  0  0  0  0
  9  8  2  0  0  0  0
 10 15  1  0  0  0  0
 11  4  1  0  0  0  0
 12 13  1  0  0  0  0
 13 10  2  0  0  0  0
 16 15  1  6  0  0  0
 16 24  1  0  0  0  0
 17 16  1  0  0  0  0
 17 22  1  0  0  0  0
 18 21  1  0  0  0  0
 18 24  1  0  0  0  0
 18 19  1  1  0  0  0
 19 20  1  0  0  0  0
 21 24  1  0  0  0  0
 22 20  2  0  0  0  0
 24 23  1  1  0  0  0
 27 25  1  1  0  0  0
 27 28  1  0  0  0  0
 27 26  1  0  0  0  0
 28 26  1  0  0  0  0
 28 29  1  1  0  0  0
 29 30  1  0  0  0  0
 30 32  1  0  0  0  0
 30 31  2  0  0  0  0
M  END
>  <MODEL>
2

>  <REMARK>
 VINA RESULT:      -8.5      2.246      5.890
  Name = 
  5 active torsions:
  status: ('A' for Active; 'I' for Inactive)
    1  A    between atoms: C_1  and  C_10
    2  A    between atoms: C_6  and  N_31
    3  A    between atoms: N_8  and  N_23
    4  A    between atoms: C_10  and  C_24
    5  A    between atoms: C_19  and  N_23
                            x       y       z     vdW  Elec       q    Type
                         _______ _______ _______ _____ _____    ______ ____

>  <TORSDO>
F 5

$$$$
=
 OpenBabel10262421253D

 32 37  0  0  1  0  0  0  0  0999 V2000
  187.8560  177.7260  142.5330 C   0  0  1  0  0  3  0  0  0  0  0  0
  183.8450  178.7050  145.2530 C   0  0  0  0  0  3  0  0  0  0  0  0
  184.6260  178.6980  146.4090 C   0  0  0  0  0  3  0  0  0  0  0  0
  187.7350  178.7750  140.3220 N   0  0  0  0  0  0  0  0  0  0  0  0
  185.5510  178.0060  141.4310 C   0  0  0  0  0  2  0  0  0  0  0  0
  185.7120  178.6710  139.1500 O   0  0  0  0  0  0  0  0  0  0  0  0
  184.4350  178.4650  144.0100 C   0  0  0  0  0  3  0  0  0  0  0  0
  186.3770  177.9930  142.6910 C   0  0  0  0  0  0  0  0  0  0  0  0
  185.8150  178.2150  143.9010 C   0  0  0  0  0  0  0  0  0  0  0  0
  187.9060  177.9730  145.0480 C   0  0  0  0  0  3  0  0  0  0  0  0
  186.3190  178.5190  140.2430 C   0  0  0  0  0  0  0  0  0  0  0  0
  185.9970  178.4520  146.3230 C   0  0  0  0  0  3  0  0  0  0  0  0
  186.5970  178.2110  145.0830 C   0  0  0  0  0  0  0  0  0  0  0  0
  188.4260  178.7940  141.6080 C   0  0  0  0  0  2  0  0  0  0  0  0
  188.5800  177.7160  143.8090 N   0  0  0  0  0  0  0  0  0  0  0  0
  189.9940  177.3400  143.8050 C   0  0  2  0  0  3  0  0  0  0  0  0
  190.1860  175.8260  143.4990 C   0  0  0  0  0  2  0  0  0  0  0  0
  190.4210  176.6490  146.0130 N   0  0  1  0  0  0  0  0  0  0  0  0
  191.6970  176.0280  146.3210 C   0  0  0  0  0  2  0  0  0  0  0  0
  192.1650  175.2610  145.0870 C   0  0  0  0  0  3  0  0  0  0  0  0
  190.2430  177.9750  146.3550 O   0  0  0  0  0  0  0  0  0  0  0  0
  191.5390  175.2140  143.8780 C   0  0  0  0  0  3  0  0  0  0  0  0
  192.0540  178.1330  144.9480 O   0  0  0  0  0  1  0  0  0  0  0  0
  190.7070  177.7550  145.0890 C   0  0  2  0  0  0  0  0  0  0  0  0
  188.4950  178.9190  139.1500 N   0  0  0  0  0  2  0  0  0  0  0  0
  188.6670  176.7390  138.3140 O   0  0  0  0  0  0  0  0  0  0  0  0
  189.3490  177.7400  139.0310 C   0  0  1  0  0  3  0  0  0  0  0  0
  189.6940  177.4010  137.6170 C   0  0  2  0  0  3  0  0  0  0  0  0
  189.0760  178.3070  136.5580 C   0  0  0  0  0  2  0  0  0  0  0  0
  188.1100  177.5350  135.7280 C   0  0  0  0  0  0  0  0  0  0  0  0
  186.8860  177.8270  135.7520 O   0  0  0  0  0  0  0  0  0  0  0  0
  188.5760  176.4930  134.8800 N   0  0  0  0  0  1  0  0  0  0  0  0
  1 14  1  6  0  0  0
  1  8  1  0  0  0  0
  1 15  1  0  0  0  0
  2  3  1  0  0  0  0
  4 14  1  0  0  0  0
  5  8  1  0  0  0  0
  6 11  2  0  0  0  0
  7  2  2  0  0  0  0
  8  9  2  0  0  0  0
  9  7  1  0  0  0  0
  9 13  1  0  0  0  0
 10 13  2  0  0  0  0
 11  4  1  0  0  0  0
 11  5  1  0  0  0  0
 12  3  2  0  0  0  0
 13 12  1  0  0  0  0
 15 10  1  0  0  0  0
 16 17  1  1  0  0  0
 16 15  1  0  0  0  0
 16 24  1  0  0  0  0
 17 22  1  0  0  0  0
 18 19  1  1  0  0  0
 18 21  1  0  0  0  0
 20 19  1  0  0  0  0
 22 20  2  0  0  0  0
 24 23  1  6  0  0  0
 24 18  1  0  0  0  0
 24 21  1  0  0  0  0
 25  4  1  0  0  0  0
 26 27  1  0  0  0  0
 27 25  1  6  0  0  0
 28 29  1  6  0  0  0
 28 26  1  0  0  0  0
 28 27  1  0  0  0  0
 30 31  2  0  0  0  0
 30 29  1  0  0  0  0
 32 30  1  0  0  0  0
M  END
>  <MODEL>
3

>  <REMARK>
 VINA RESULT:      -8.4      1.440      1.929
  Name = 
  5 active torsions:
  status: ('A' for Active; 'I' for Inactive)
    1  A    between atoms: C_1  and  C_10
    2  A    between atoms: C_6  and  N_31
    3  A    between atoms: N_8  and  N_23
    4  A    between atoms: C_10  and  C_24
    5  A    between atoms: C_19  and  N_23
                            x       y       z     vdW  Elec       q    Type
                         _______ _______ _______ _____ _____    ______ ____

>  <TORSDO>
F 5

$$$$
=
 OpenBabel10262421253D

 32 37  0  0  1  0  0  0  0  0999 V2000
  188.0830  177.6600  141.3830 C   0  0  1  0  0  3  0  0  0  0  0  0
  190.2880  176.9720  145.7540 C   0  0  0  0  0  3  0  0  0  0  0  0
  191.5370  177.0770  145.1420 C   0  0  0  0  0  3  0  0  0  0  0  0
  185.9640  178.8710  141.6120 N   0  0  0  0  0  0  0  0  0  0  0  0
  186.6960  177.3170  143.5210 C   0  0  0  0  0  2  0  0  0  0  0  0
  184.5190  178.2660  143.3500 O   0  0  0  0  0  0  0  0  0  0  0  0
  189.1240  177.0840  144.9900 C   0  0  0  0  0  3  0  0  0  0  0  0
  188.0540  177.4180  142.8750 C   0  0  0  0  0  0  0  0  0  0  0  0
  189.1880  177.3030  143.6020 C   0  0  0  0  0  0  0  0  0  0  0  0
  190.5910  177.6070  141.6830 C   0  0  0  0  0  3  0  0  0  0  0  0
  185.6700  178.1870  142.8460 C   0  0  0  0  0  0  0  0  0  0  0  0
  191.6230  177.2940  143.7650 C   0  0  0  0  0  3  0  0  0  0  0  0
  190.4630  177.4080  142.9930 C   0  0  0  0  0  0  0  0  0  0  0  0
  187.3320  178.9560  141.1070 C   0  0  0  0  0  2  0  0  0  0  0  0
  189.4420  177.7290  140.8350 N   0  0  0  0  0  0  0  0  0  0  0  0
  189.6040  177.8290  139.3840 C   0  0  2  0  0  3  0  0  0  0  0  0
  188.2310  177.8050  138.6500 C   0  0  0  0  0  2  0  0  0  0  0  0
  189.7040  175.5940  138.6540 N   0  0  1  0  0  0  0  0  0  0  0  0
  189.6780  175.3190  137.2290 C   0  0  0  0  0  2  0  0  0  0  0  0
  188.8350  176.3960  136.5490 C   0  0  0  0  0  3  0  0  0  0  0  0
  190.9210  175.5430  139.3040 O   0  0  0  0  0  0  0  0  0  0  0  0
  188.2590  177.4730  137.1540 C   0  0  0  0  0  3  0  0  0  0  0  0
  191.3420  177.1680  137.7340 O   0  0  0  0  0  1  0  0  0  0  0  0
  190.5600  176.7750  138.8350 C   0  0  2  0  0  0  0  0  0  0  0  0
  184.9250  179.3890  140.8240 N   0  0  0  0  0  2  0  0  0  0  0  0
  183.8900  177.7310  139.5350 O   0  0  0  0  0  0  0  0  0  0  0  0
  184.9360  178.6730  139.5520 C   0  0  1  0  0  3  0  0  0  0  0  0
  183.6950  178.8790  138.7460 C   0  0  2  0  0  3  0  0  0  0  0  0
  182.6320  179.7580  139.3950 C   0  0  0  0  0  2  0  0  0  0  0  0
  181.9080  180.5370  138.3530 C   0  0  0  0  0  0  0  0  0  0  0  0
  181.8660  181.7930  138.4200 O   0  0  0  0  0  0  0  0  0  0  0  0
  181.2980  179.8640  137.2580 N   0  0  0  0  0  1  0  0  0  0  0  0
  1 14  1  1  0  0  0
  1  8  1  0  0  0  0
  3  2  1  0  0  0  0
  4 11  1  0  0  0  0
  7  2  2  0  0  0  0
  8  5  1  0  0  0  0
  8  9  2  0  0  0  0
  9  7  1  0  0  0  0
 10 13  2  0  0  0  0
 11  6  2  0  0  0  0
 11  5  1  0  0  0  0
 12  3  2  0  0  0  0
 13  9  1  0  0  0  0
 13 12  1  0  0  0  0
 14  4  1  0  0  0  0
 15  1  1  0  0  0  0
 15 10  1  0  0  0  0
 16 17  1  6  0  0  0
 16 15  1  0  0  0  0
 18 19  1  6  0  0  0
 18 24  1  0  0  0  0
 18 21  1  0  0  0  0
 20 22  2  0  0  0  0
 20 19  1  0  0  0  0
 22 17  1  0  0  0  0
 24 23  1  6  0  0  0
 24 21  1  0  0  0  0
 24 16  1  0  0  0  0
 25  4  1  0  0  0  0
 26 27  1  0  0  0  0
 27 25  1  1  0  0  0
 28 29  1  1  0  0  0
 28 26  1  0  0  0  0
 28 27  1  0  0  0  0
 30 31  2  0  0  0  0
 30 29  1  0  0  0  0
 32 30  1  0  0  0  0
M  END
>  <MODEL>
4

>  <REMARK>
 VINA RESULT:      -8.4      2.404      5.817
  Name = 
  5 active torsions:
  status: ('A' for Active; 'I' for Inactive)
    1  A    between atoms: C_1  and  C_10
    2  A    between atoms: C_6  and  N_31
    3  A    between atoms: N_8  and  N_23
    4  A    between atoms: C_10  and  C_24
    5  A    between atoms: C_19  and  N_23
                            x       y       z     vdW  Elec       q    Type
                         _______ _______ _______ _____ _____    ______ ____

>  <TORSDO>
F 5

$$$$
=
 OpenBabel10262421253D

 32 37  0  0  1  0  0  0  0  0999 V2000
  188.3070  177.6440  141.6320 C   0  0  1  0  0  3  0  0  0  0  0  0
  191.3430  176.4100  137.9300 C   0  0  0  0  0  3  0  0  0  0  0  0
  190.5470  177.1280  137.0370 C   0  0  0  0  0  3  0  0  0  0  0  0
  189.5120  177.9120  143.7490 N   0  0  0  0  0  0  0  0  0  0  0  0
  190.3810  176.1860  142.0580 C   0  0  0  0  0  2  0  0  0  0  0  0
  191.1430  176.3290  144.3090 O   0  0  0  0  0  0  0  0  0  0  0  0
  190.9960  176.3510  139.2820 C   0  0  0  0  0  3  0  0  0  0  0  0
  189.5280  176.9480  141.0770 C   0  0  0  0  0  0  0  0  0  0  0  0
  189.8490  177.0060  139.7640 C   0  0  0  0  0  0  0  0  0  0  0  0
  187.9470  178.3670  139.2370 C   0  0  0  0  0  3  0  0  0  0  0  0
  190.3900  176.8150  143.4240 C   0  0  0  0  0  0  0  0  0  0  0  0
  189.4040  177.7850  137.4950 C   0  0  0  0  0  3  0  0  0  0  0  0
  189.0490  177.7310  138.8460 C   0  0  0  0  0  0  0  0  0  0  0  0
  188.7740  178.6190  142.7050 C   0  0  0  0  0  2  0  0  0  0  0  0
  187.5270  178.3470  140.6080 N   0  0  0  0  0  0  0  0  0  0  0  0
  186.2520  178.9510  140.9960 C   0  0  2  0  0  3  0  0  0  0  0  0
  185.6440  178.2560  142.2500 C   0  0  0  0  0  2  0  0  0  0  0  0
  184.6330  177.6730  139.8640 N   0  0  1  0  0  0  0  0  0  0  0  0
  183.2290  177.8840  140.1710 C   0  0  0  0  0  2  0  0  0  0  0  0
  183.1170  178.2870  141.6390 C   0  0  0  0  0  3  0  0  0  0  0  0
  185.1390  178.2380  138.7110 O   0  0  0  0  0  0  0  0  0  0  0  0
  184.1510  178.4840  142.5060 C   0  0  0  0  0  3  0  0  0  0  0  0
  184.3950  180.1110  139.8170 O   0  0  0  0  0  1  0  0  0  0  0  0
  185.2590  179.0010  139.8380 C   0  0  2  0  0  0  0  0  0  0  0  0
  189.2810  178.2620  145.0880 N   0  0  0  0  0  2  0  0  0  0  0  0
  188.2190  177.4850  147.0250 O   0  0  0  0  0  0  0  0  0  0  0  0
  188.6720  177.1090  145.7460 C   0  0  1  0  0  3  0  0  0  0  0  0
  187.2220  177.3000  146.0500 C   0  0  2  0  0  3  0  0  0  0  0  0
  186.6450  178.6570  145.6610 C   0  0  0  0  0  2  0  0  0  0  0  0
  185.5110  179.0060  146.5600 C   0  0  0  0  0  0  0  0  0  0  0  0
  185.7200  179.6640  147.6120 O   0  0  0  0  0  0  0  0  0  0  0  0
  184.1840  178.6280  146.2100 N   0  0  0  0  0  1  0  0  0  0  0  0
  1 14  1  1  0  0  0
  2  7  2  0  0  0  0
  3 12  2  0  0  0  0
  3  2  1  0  0  0  0
  4 25  1  0  0  0  0
  5 11  1  0  0  0  0
  7  9  1  0  0  0  0
  8  1  1  0  0  0  0
  8  5  1  0  0  0  0
  9  8  2  0  0  0  0
 10 15  1  0  0  0  0
 11  4  1  0  0  0  0
 11  6  2  0  0  0  0
 12 13  1  0  0  0  0
 13 10  2  0  0  0  0
 13  9  1  0  0  0  0
 14  4  1  0  0  0  0
 15  1  1  0  0  0  0
 16 15  1  6  0  0  0
 16 17  1  0  0  0  0
 17 22  1  0  0  0  0
 18 19  1  6  0  0  0
 19 20  1  0  0  0  0
 20 22  2  0  0  0  0
 21 24  1  0  0  0  0
 21 18  1  0  0  0  0
 24 23  1  1  0  0  0
 24 18  1  0  0  0  0
 24 16  1  0  0  0  0
 27 25  1  6  0  0  0
 27 28  1  0  0  0  0
 27 26  1  0  0  0  0
 28 29  1  6  0  0  0
 28 26  1  0  0  0  0
 29 30  1  0  0  0  0
 30 31  2  0  0  0  0
 32 30  1  0  0  0  0
M  END
>  <MODEL>
5

>  <REMARK>
 VINA RESULT:      -8.3      1.965      7.693
  Name = 
  5 active torsions:
  status: ('A' for Active; 'I' for Inactive)
    1  A    between atoms: C_1  and  C_10
    2  A    between atoms: C_6  and  N_31
    3  A    between atoms: N_8  and  N_23
    4  A    between atoms: C_10  and  C_24
    5  A    between atoms: C_19  and  N_23
                            x       y       z     vdW  Elec       q    Type
                         _______ _______ _______ _____ _____    ______ ____

>  <TORSDO>
F 5

$$$$
=
 OpenBabel10262421253D

 32 37  0  0  1  0  0  0  0  0999 V2000
  184.3040  178.2640  141.7930 C   0  0  1  0  0  3  0  0  0  0  0  0
  179.3660  178.3840  141.5790 C   0  0  0  0  0  3  0  0  0  0  0  0
  179.3240  178.9680  142.8460 C   0  0  0  0  0  3  0  0  0  0  0  0
  185.3190  178.5750  139.5840 N   0  0  0  0  0  0  0  0  0  0  0  0
  183.0510  177.3810  139.7290 C   0  0  0  0  0  2  0  0  0  0  0  0
  184.3920  177.4350  137.7630 O   0  0  0  0  0  0  0  0  0  0  0  0
  180.5950  178.0610  140.9990 C   0  0  0  0  0  3  0  0  0  0  0  0
  182.9860  178.0020  141.1000 C   0  0  0  0  0  0  0  0  0  0  0  0
  181.8020  178.3130  141.6750 C   0  0  0  0  0  0  0  0  0  0  0  0
  182.8510  179.1630  143.6550 C   0  0  0  0  0  3  0  0  0  0  0  0
  184.2710  177.8090  138.9590 C   0  0  0  0  0  0  0  0  0  0  0  0
  180.5110  179.2260  143.5330 C   0  0  0  0  0  3  0  0  0  0  0  0
  181.7450  178.9060  142.9610 C   0  0  0  0  0  0  0  0  0  0  0  0
  185.1250  179.1830  140.8980 C   0  0  0  0  0  2  0  0  0  0  0  0
  184.1480  178.8550  143.1270 N   0  0  0  0  0  0  0  0  0  0  0  0
  185.3420  179.0350  143.9520 C   0  0  2  0  0  3  0  0  0  0  0  0
  186.3970  177.9200  143.6900 C   0  0  0  0  0  2  0  0  0  0  0  0
  184.9110  177.7670  145.8860 N   0  0  1  0  0  0  0  0  0  0  0  0
  185.9780  177.5720  146.8510 C   0  0  0  0  0  2  0  0  0  0  0  0
  187.3050  177.5420  146.0970 C   0  0  0  0  0  3  0  0  0  0  0  0
  183.9440  178.7120  146.1680 O   0  0  0  0  0  0  0  0  0  0  0  0
  187.4790  177.7330  144.7580 C   0  0  0  0  0  3  0  0  0  0  0  0
  185.8380  180.0160  146.1820 O   0  0  0  0  0  1  0  0  0  0  0  0
  185.0060  179.1620  145.4350 C   0  0  2  0  0  0  0  0  0  0  0  0
  186.5820  178.6750  138.9790 N   0  0  0  0  0  2  0  0  0  0  0  0
  188.2670  177.1870  139.6310 O   0  0  0  0  0  0  0  0  0  0  0  0
  187.5830  178.3620  139.9940 C   0  0  1  0  0  3  0  0  0  0  0  0
  188.9830  178.3880  139.4720 C   0  0  2  0  0  3  0  0  0  0  0  0
  189.1200  178.6940  137.9840 C   0  0  0  0  0  2  0  0  0  0  0  0
  189.6830  177.5140  137.2710 C   0  0  0  0  0  0  0  0  0  0  0  0
  190.8220  177.0760  137.5790 O   0  0  0  0  0  0  0  0  0  0  0  0
  188.9160  176.8570  136.2680 N   0  0  0  0  0  1  0  0  0  0  0  0
  1 14  1  6  0  0  0
  1 15  1  0  0  0  0
  2  3  1  0  0  0  0
  3 12  2  0  0  0  0
  4 14  1  0  0  0  0
  5  8  1  0  0  0  0
  6 11  2  0  0  0  0
  7  2  2  0  0  0  0
  7  9  1  0  0  0  0
  8  9  2  0  0  0  0
  8  1  1  0  0  0  0
  9 13  1  0  0  0  0
 11  4  1  0  0  0  0
 11  5  1  0  0  0  0
 13 12  1  0  0  0  0
 13 10  2  0  0  0  0
 15 10  1  0  0  0  0
 16 15  1  6  0  0  0
 16 24  1  0  0  0  0
 17 16  1  0  0  0  0
 17 22  1  0  0  0  0
 18 21  1  0  0  0  0
 18 19  1  1  0  0  0
 20 19  1  0  0  0  0
 22 20  2  0  0  0  0
 24 18  1  0  0  0  0
 24 21  1  0  0  0  0
 24 23  1  1  0  0  0
 25  4  1  0  0  0  0
 26 27  1  0  0  0  0
 27 25  1  6  0  0  0
 28 29  1  6  0  0  0
 28 26  1  0  0  0  0
 28 27  1  0  0  0  0
 30 31  2  0  0  0  0
 30 29  1  0  0  0  0
 32 30  1  0  0  0  0
M  END
>  <MODEL>
6

>  <REMARK>
 VINA RESULT:      -8.1      2.708      4.078
  Name = 
  5 active torsions:
  status: ('A' for Active; 'I' for Inactive)
    1  A    between atoms: C_1  and  C_10
    2  A    between atoms: C_6  and  N_31
    3  A    between atoms: N_8  and  N_23
    4  A    between atoms: C_10  and  C_24
    5  A    between atoms: C_19  and  N_23
                            x       y       z     vdW  Elec       q    Type
                         _______ _______ _______ _____ _____    ______ ____

>  <TORSDO>
F 5

$$$$
=
 OpenBabel10262421253D

 32 37  0  0  1  0  0  0  0  0999 V2000
  187.5960  177.9690  141.9480 C   0  0  1  0  0  3  0  0  0  0  0  0
  187.7950  177.4370  146.8590 C   0  0  0  0  0  3  0  0  0  0  0  0
  189.1740  177.6470  146.8270 C   0  0  0  0  0  3  0  0  0  0  0  0
  185.4940  179.0020  141.2280 N   0  0  0  0  0  0  0  0  0  0  0  0
  185.4670  177.5030  143.3120 C   0  0  0  0  0  2  0  0  0  0  0  0
  183.5000  178.2730  142.2130 O   0  0  0  0  0  0  0  0  0  0  0  0
  187.0570  177.4590  145.6730 C   0  0  0  0  0  3  0  0  0  0  0  0
  186.9580  177.7170  143.2950 C   0  0  0  0  0  0  0  0  0  0  0  0
  187.6840  177.6900  144.4360 C   0  0  0  0  0  0  0  0  0  0  0  0
  189.7390  178.1180  143.2780 C   0  0  0  0  0  3  0  0  0  0  0  0
  184.7590  178.2900  142.2430 C   0  0  0  0  0  0  0  0  0  0  0  0
  189.8150  177.8780  145.6090 C   0  0  0  0  0  3  0  0  0  0  0  0
  189.0860  177.9020  144.4170 C   0  0  0  0  0  0  0  0  0  0  0  0
  186.9360  179.2010  141.3430 C   0  0  0  0  0  2  0  0  0  0  0  0
  189.0490  178.1510  142.0220 N   0  0  0  0  0  0  0  0  0  0  0  0
  189.8010  178.2720  140.7720 C   0  0  2  0  0  3  0  0  0  0  0  0
  188.8550  178.3440  139.5370 C   0  0  0  0  0  2  0  0  0  0  0  0
  190.0940  176.0510  140.0510 N   0  0  1  0  0  0  0  0  0  0  0  0
  190.6470  175.8080  138.7310 C   0  0  0  0  0  2  0  0  0  0  0  0
  190.2090  176.9470  137.8120 C   0  0  0  0  0  3  0  0  0  0  0  0
  190.9300  175.9150  141.1420 O   0  0  0  0  0  0  0  0  0  0  0  0
  189.4830  178.0430  138.1720 C   0  0  0  0  0  3  0  0  0  0  0  0
  192.0340  177.5450  139.9560 O   0  0  0  0  0  1  0  0  0  0  0  0
  190.8500  177.1750  140.6200 C   0  0  2  0  0  0  0  0  0  0  0  0
  184.8480  179.4390  140.0610 N   0  0  0  0  0  2  0  0  0  0  0  0
  183.4100  178.6990  138.3680 O   0  0  0  0  0  0  0  0  0  0  0  0
  183.9600  178.3670  139.6210 C   0  0  1  0  0  3  0  0  0  0  0  0
  184.4100  177.7090  138.3570 C   0  0  2  0  0  3  0  0  0  0  0  0
  185.6770  178.2850  137.7340 C   0  0  0  0  0  2  0  0  0  0  0  0
  186.1930  177.3640  136.6840 C   0  0  0  0  0  0  0  0  0  0  0  0
  185.9130  176.1380  136.7280 O   0  0  0  0  0  0  0  0  0  0  0  0
  186.9700  177.8770  135.6080 N   0  0  0  0  0  1  0  0  0  0  0  0
  1 14  1  1  0  0  0
  1 15  1  0  0  0  0
  1  8  1  0  0  0  0
  3  2  1  0  0  0  0
  4 14  1  0  0  0  0
  4 11  1  0  0  0  0
  6 11  2  0  0  0  0
  7  2  2  0  0  0  0
  8  5  1  0  0  0  0
  8  9  2  0  0  0  0
  9  7  1  0  0  0  0
 10 13  2  0  0  0  0
 11  5  1  0  0  0  0
 12  3  2  0  0  0  0
 13  9  1  0  0  0  0
 13 12  1  0  0  0  0
 15 10  1  0  0  0  0
 16 17  1  6  0  0  0
 16 15  1  0  0  0  0
 18 19  1  6  0  0  0
 18 24  1  0  0  0  0
 18 21  1  0  0  0  0
 20 22  2  0  0  0  0
 20 19  1  0  0  0  0
 22 17  1  0  0  0  0
 24 23  1  6  0  0  0
 24 16  1  0  0  0  0
 24 21  1  0  0  0  0
 25  4  1  0  0  0  0
 26 27  1  0  0  0  0
 27 25  1  6  0  0  0
 28 29  1  6  0  0  0
 28 26  1  0  0  0  0
 28 27  1  0  0  0  0
 30 31  2  0  0  0  0
 30 29  1  0  0  0  0
 32 30  1  0  0  0  0
M  END
>  <MODEL>
7

>  <REMARK>
 VINA RESULT:      -8.0      2.088      4.037
  Name = 
  5 active torsions:
  status: ('A' for Active; 'I' for Inactive)
    1  A    between atoms: C_1  and  C_10
    2  A    between atoms: C_6  and  N_31
    3  A    between atoms: N_8  and  N_23
    4  A    between atoms: C_10  and  C_24
    5  A    between atoms: C_19  and  N_23
                            x       y       z     vdW  Elec       q    Type
                         _______ _______ _______ _____ _____    ______ ____

>  <TORSDO>
F 5

$$$$
=
 OpenBabel10262421253D

 32 37  0  0  1  0  0  0  0  0999 V2000
  188.4010  178.3760  140.3310 C   0  0  1  0  0  3  0  0  0  0  0  0
  190.0120  175.6870  136.5070 C   0  0  0  0  0  3  0  0  0  0  0  0
  191.0410  175.1760  137.2990 C   0  0  0  0  0  3  0  0  0  0  0  0
  185.9640  178.6300  140.3040 N   0  0  0  0  0  0  0  0  0  0  0  0
  187.2000  178.4600  138.0600 C   0  0  0  0  0  2  0  0  0  0  0  0
  184.9170  179.1050  138.2650 O   0  0  0  0  0  0  0  0  0  0  0  0
  189.1050  176.6030  137.0460 C   0  0  0  0  0  3  0  0  0  0  0  0
  188.3230  177.9050  138.8970 C   0  0  0  0  0  0  0  0  0  0  0  0
  189.2110  177.0240  138.3840 C   0  0  0  0  0  0  0  0  0  0  0  0
  190.4200  176.8610  140.4480 C   0  0  0  0  0  3  0  0  0  0  0  0
  185.9580  178.7310  138.8660 C   0  0  0  0  0  0  0  0  0  0  0  0
  191.1640  175.5810  138.6290 C   0  0  0  0  0  3  0  0  0  0  0  0
  190.2610  176.4970  139.1770 C   0  0  0  0  0  0  0  0  0  0  0  0
  187.0860  178.0180  141.0110 C   0  0  0  0  0  2  0  0  0  0  0  0
  189.5310  177.7990  141.0680 N   0  0  0  0  0  0  0  0  0  0  0  0
  189.7930  178.2750  142.4260 C   0  0  2  0  0  3  0  0  0  0  0  0
  191.3190  178.4240  142.6980 C   0  0  0  0  0  2  0  0  0  0  0  0
  190.0560  176.3090  143.6920 N   0  0  1  0  0  0  0  0  0  0  0  0
  190.5160  176.4140  145.0650 C   0  0  0  0  0  2  0  0  0  0  0  0
  191.4480  177.6190  145.1670 C   0  0  0  0  0  3  0  0  0  0  0  0
  188.7090  176.1070  143.4700 O   0  0  0  0  0  0  0  0  0  0  0  0
  191.7510  178.4930  144.1670 C   0  0  0  0  0  3  0  0  0  0  0  0
  188.6600  178.0900  144.6310 O   0  0  0  0  0  1  0  0  0  0  0  0
  189.1090  177.4130  143.4830 C   0  0  2  0  0  0  0  0  0  0  0  0
  184.9280  179.2020  141.0580 N   0  0  0  0  0  2  0  0  0  0  0  0
  184.5280  179.6410  143.3230 O   0  0  0  0  0  0  0  0  0  0  0  0
  185.0380  178.6880  142.4200 C   0  0  1  0  0  3  0  0  0  0  0  0
  183.7170  178.5140  143.0960 C   0  0  2  0  0  3  0  0  0  0  0  0
  182.5020  178.9310  142.2730 C   0  0  0  0  0  2  0  0  0  0  0  0
  181.3460  179.1990  143.1730 C   0  0  0  0  0  0  0  0  0  0  0  0
  181.2320  178.5700  144.2570 O   0  0  0  0  0  0  0  0  0  0  0  0
  180.3910  180.1950  142.8250 N   0  0  0  0  0  1  0  0  0  0  0  0
  1 14  1  1  0  0  0
  1 15  1  0  0  0  0
  2  7  2  0  0  0  0
  2  3  1  0  0  0  0
  3 12  2  0  0  0  0
  4 14  1  0  0  0  0
  4 25  1  0  0  0  0
  5 11  1  0  0  0  0
  5  8  1  0  0  0  0
  6 11  2  0  0  0  0
  7  9  1  0  0  0  0
  8  1  1  0  0  0  0
  9  8  2  0  0  0  0
  9 13  1  0  0  0  0
 10 15  1  0  0  0  0
 11  4  1  0  0  0  0
 12 13  1  0  0  0  0
 13 10  2  0  0  0  0
 16 15  1  6  0  0  0
 16 17  1  0  0  0  0
 16 24  1  0  0  0  0
 17 22  1  0  0  0  0
 18 19  1  1  0  0  0
 19 20  1  0  0  0  0
 21 24  1  0  0  0  0
 21 18  1  0  0  0  0
 22 20  2  0  0  0  0
 24 18  1  0  0  0  0
 24 23  1  1  0  0  0
 27 25  1  6  0  0  0
 27 28  1  0  0  0  0
 27 26  1  0  0  0  0
 28 29  1  6  0  0  0
 28 26  1  0  0  0  0
 29 30  1  0  0  0  0
 30 31  2  0  0  0  0
 32 30  1  0  0  0  0
M  END
>  <MODEL>
8

>  <REMARK>
 VINA RESULT:      -7.8      2.397      6.275
  Name = 
  5 active torsions:
  status: ('A' for Active; 'I' for Inactive)
    1  A    between atoms: C_1  and  C_10
    2  A    between atoms: C_6  and  N_31
    3  A    between atoms: N_8  and  N_23
    4  A    between atoms: C_10  and  C_24
    5  A    between atoms: C_19  and  N_23
                            x       y       z     vdW  Elec       q    Type
                         _______ _______ _______ _____ _____    ______ ____

>  <TORSDO>
F 5

$$$$
=
 OpenBabel10262421253D

 32 37  0  0  1  0  0  0  0  0999 V2000
  187.3670  178.0690  143.4090 C   0  0  1  0  0  3  0  0  0  0  0  0
  191.0460  177.5000  140.1550 C   0  0  0  0  0  3  0  0  0  0  0  0
  191.7610  176.7550  141.0930 C   0  0  0  0  0  3  0  0  0  0  0  0
  185.1800  178.1500  142.3070 N   0  0  0  0  0  0  0  0  0  0  0  0
  187.2150  179.0890  141.0540 C   0  0  0  0  0  2  0  0  0  0  0  0
  184.9640  179.4230  140.3560 O   0  0  0  0  0  0  0  0  0  0  0  0
  189.7890  178.0140  140.4840 C   0  0  0  0  0  3  0  0  0  0  0  0
  188.0060  178.2900  142.0580 C   0  0  0  0  0  0  0  0  0  0  0  0
  189.2270  177.7940  141.7540 C   0  0  0  0  0  0  0  0  0  0  0  0
  189.4910  176.7980  143.9180 C   0  0  0  0  0  3  0  0  0  0  0  0
  185.7310  178.8870  141.1970 C   0  0  0  0  0  0  0  0  0  0  0  0
  191.2210  176.5240  142.3590 C   0  0  0  0  0  3  0  0  0  0  0  0
  189.9650  177.0350  142.6970 C   0  0  0  0  0  0  0  0  0  0  0  0
  186.0380  177.3590  143.1850 C   0  0  0  0  0  2  0  0  0  0  0  0
  188.2110  177.2970  144.3280 N   0  0  0  0  0  0  0  0  0  0  0  0
  187.7620  177.1260  145.7100 C   0  0  2  0  0  3  0  0  0  0  0  0
  186.8650  178.3120  146.1730 C   0  0  0  0  0  2  0  0  0  0  0  0
  189.3910  178.2370  146.9930 N   0  0  1  0  0  0  0  0  0  0  0  0
  189.1580  178.4250  148.4140 C   0  0  0  0  0  2  0  0  0  0  0  0
  187.6550  178.5770  148.6360 C   0  0  0  0  0  3  0  0  0  0  0  0
  190.2440  177.2250  146.6020 O   0  0  0  0  0  0  0  0  0  0  0  0
  186.6830  178.4850  147.6850 C   0  0  0  0  0  3  0  0  0  0  0  0
  188.6540  176.0270  147.7530 O   0  0  0  0  0  1  0  0  0  0  0  0
  188.9230  176.8830  146.6690 C   0  0  2  0  0  0  0  0  0  0  0  0
  183.8150  178.2530  142.6180 N   0  0  0  0  0  2  0  0  0  0  0  0
  183.3220  179.9610  144.1420 O   0  0  0  0  0  0  0  0  0  0  0  0
  183.7110  178.6120  144.0300 C   0  0  1  0  0  3  0  0  0  0  0  0
  182.3300  179.0090  144.4390 C   0  0  2  0  0  3  0  0  0  0  0  0
  181.2910  179.0060  143.3230 C   0  0  0  0  0  2  0  0  0  0  0  0
  179.9530  178.6540  143.8740 C   0  0  0  0  0  0  0  0  0  0  0  0
  179.7360  177.4930  144.3090 O   0  0  0  0  0  0  0  0  0  0  0  0
  178.9310  179.6410  143.9430 N   0  0  0  0  0  1  0  0  0  0  0  0
  1 14  1  6  0  0  0
  1 15  1  0  0  0  0
  2  7  2  0  0  0  0
  2  3  1  0  0  0  0
  3 12  2  0  0  0  0
  4 25  1  0  0  0  0
  4 14  1  0  0  0  0
  5 11  1  0  0  0  0
  5  8  1  0  0  0  0
  6 11  2  0  0  0  0
  7  9  1  0  0  0  0
  8  1  1  0  0  0  0
  9  8  2  0  0  0  0
  9 13  1  0  0  0  0
 10 15  1  0  0  0  0
 11  4  1  0  0  0  0
 12 13  1  0  0  0  0
 13 10  2  0  0  0  0
 16 15  1  6  0  0  0
 16 17  1  0  0  0  0
 16 24  1  0  0  0  0
 17 22  1  0  0  0  0
 18 19  1  1  0  0  0
 19 20  1  0  0  0  0
 21 24  1  0  0  0  0
 21 18  1  0  0  0  0
 22 20  2  0  0  0  0
 24 18  1  0  0  0  0
 24 23  1  1  0  0  0
 26 28  1  0  0  0  0
 27 25  1  6  0  0  0
 27 26  1  0  0  0  0
 27 28  1  0  0  0  0
 28 29  1  6  0  0  0
 29 30  1  0  0  0  0
 30 32  1  0  0  0  0
 30 31  2  0  0  0  0
M  END
>  <MODEL>
9

>  <REMARK>
 VINA RESULT:      -7.8      3.080      6.529
  Name = 
  5 active torsions:
  status: ('A' for Active; 'I' for Inactive)
    1  A    between atoms: C_1  and  C_10
    2  A    between atoms: C_6  and  N_31
    3  A    between atoms: N_8  and  N_23
    4  A    between atoms: C_10  and  C_24
    5  A    between atoms: C_19  and  N_23
                            x       y       z     vdW  Elec       q    Type
                         _______ _______ _______ _____ _____    ______ ____

>  <TORSDO>
F 5

$$$$
