=
 OpenBabel10262421373D

 32 36  0  0  1  0  0  0  0  0999 V2000
  188.8400  177.2420  137.2720 N   0  0  0  0  0  0  0  0  0  0  0  0
  188.6320  177.6980  142.3290 C   0  0  0  0  0  0  0  0  0  0  0  0
  184.1790  179.5250  143.2920 O   0  0  0  0  0  0  0  0  0  0  0  0
  184.0540  178.6540  144.3940 C   0  0  0  0  0  2  0  0  0  0  0  0
  190.1650  177.3850  144.3440 C   0  0  0  0  0  0  0  0  0  0  0  0
  190.3470  177.3070  145.7340 C   0  0  2  0  0  3  0  0  0  0  0  0
  189.3680  177.3500  140.0880 C   0  0  0  0  0  0  0  0  0  0  0  0
  187.2030  178.3360  140.4810 C   0  0  0  0  0  3  0  0  0  0  0  0
  187.9480  178.0580  138.1070 C   0  0  0  0  0  2  0  0  0  0  0  0
  184.9850  178.8770  142.3330 C   0  0  0  0  0  2  0  0  0  0  0  0
  187.4100  178.2250  141.8610 C   0  0  0  0  0  0  0  0  0  0  0  0
  186.4220  178.7830  142.8540 C   0  0  2  0  0  3  0  0  0  0  0  0
  187.7970  177.7690  144.6830 C   0  0  0  0  0  0  0  0  0  0  0  0
  190.2320  177.3250  137.7400 C   0  0  0  0  0  2  0  0  0  0  0  0
  188.1680  177.8770  139.5870 C   0  0  0  0  0  0  0  0  0  0  0  0
  190.4030  176.7910  139.1650 C   0  0  0  0  0  2  0  0  0  0  0  0
  185.3970  178.5050  145.1160 C   0  0  0  0  0  2  0  0  0  0  0  0
  186.4070  177.9290  144.1240 C   0  0  1  0  0  3  0  0  0  0  0  0
  187.9930  177.6770  146.0240 N   0  0  0  0  0  0  0  0  0  0  0  0
  189.5620  177.2650  141.4320 N   0  0  0  0  0  0  0  0  0  0  0  0
  191.1670  177.2620  143.5900 O   0  0  0  0  0  0  0  0  0  0  0  0
  188.8830  177.6070  143.8000 C   0  0  0  0  0  0  0  0  0  0  0  0
  189.2150  177.4620  146.5750 C   0  0  0  0  0  0  0  0  0  0  0  0
  189.2990  177.4420  148.0650 C   0  0  0  0  0  2  0  0  0  0  0  0
  188.0830  178.1240  148.6640 C   0  0  0  0  0  1  0  0  0  0  0  0
  192.1540  175.8560  146.7190 C   0  0  0  0  0  1  0  0  0  0  0  0
  191.6570  177.0820  146.2000 O   0  0  0  0  0  0  0  0  0  0  0  0
  188.3710  175.8590  137.2630 C   0  0  0  0  0  2  0  0  0  0  0  0
  189.8110  174.0340  136.2930 C   0  0  0  0  0  0  0  0  0  0  0  0
  188.9440  175.1550  136.1270 N   0  0  0  0  0  2  0  0  0  0  0  0
  190.1220  173.6290  137.4440 O   0  0  0  0  0  1  0  0  0  0  0  0
  190.3120  173.3810  135.1750 O   0  0  0  0  0  0  0  0  0  0  0  0
  1 14  1  0  0  0  0
  1  9  1  0  0  0  0
  2 22  1  0  0  0  0
  3  4  1  0  0  0  0
  4 17  1  0  0  0  0
  5  6  1  0  0  0  0
  6 27  1  1  0  0  0
  6 23  1  0  0  0  0
  7 20  1  0  0  0  0
  8 11  2  0  0  0  0
  9 15  1  0  0  0  0
 10  3  1  0  0  0  0
 11  2  1  0  0  0  0
 11 12  1  0  0  0  0
 12 10  1  6  0  0  0
 12 18  1  0  0  0  0
 13 19  1  0  0  0  0
 14 16  1  0  0  0  0
 15  7  2  0  0  0  0
 15  8  1  0  0  0  0
 16  7  1  0  0  0  0
 18 13  1  0  0  0  0
 18 17  1  1  0  0  0
 19 23  2  0  0  0  0
 20  2  2  0  0  0  0
 21  5  2  0  0  0  0
 22  5  1  0  0  0  0
 22 13  2  0  0  0  0
 23 24  1  0  0  0  0
 24 25  1  0  0  0  0
 27 26  1  0  0  0  0
 28  1  1  0  0  0  0
 29 31  1  0  0  0  0
 30 29  1  0  0  0  0
 30 28  1  0  0  0  0
 32 29  2  0  0  0  0
M  END
>  <MODEL>
1

>  <REMARK>
 VINA RESULT:     -10.0      0.000      0.000
  Name = 
  4 active torsions:
  status: ('A' for Active; 'I' for Inactive)
    1  A    between atoms: N_2  and  C_24
    2  A    between atoms: C_7  and  O_22
    3  A    between atoms: N_10  and  C_24
    4  A    between atoms: C_11  and  C_32
                            x       y       z     vdW  Elec       q    Type
                         _______ _______ _______ _____ _____    ______ ____

>  <TORSDO>
F 4

$$$$
=
 OpenBabel10262421373D

 32 36  0  0  1  0  0  0  0  0999 V2000
  180.2020  178.9580  141.8090 N   0  0  0  0  0  0  0  0  0  0  0  0
  185.2220  178.4950  142.4460 C   0  0  0  0  0  0  0  0  0  0  0  0
  185.9400  178.6440  147.2990 O   0  0  0  0  0  0  0  0  0  0  0  0
  186.8940  177.6110  147.1960 C   0  0  0  0  0  2  0  0  0  0  0  0
  187.3290  178.3560  141.0150 C   0  0  0  0  0  0  0  0  0  0  0  0
  188.7070  178.1130  140.8970 C   0  0  2  0  0  3  0  0  0  0  0  0
  183.0480  178.7660  141.5080 C   0  0  0  0  0  0  0  0  0  0  0  0
  183.3350  178.9430  143.8960 C   0  0  0  0  0  3  0  0  0  0  0  0
  181.0400  179.3050  142.9650 C   0  0  0  0  0  2  0  0  0  0  0  0
  184.9950  178.4480  146.2720 C   0  0  0  0  0  2  0  0  0  0  0  0
  184.7020  178.6790  143.7440 C   0  0  0  0  0  0  0  0  0  0  0  0
  185.6500  178.7280  144.9160 C   0  0  2  0  0  3  0  0  0  0  0  0
  187.4610  177.9140  143.3930 C   0  0  0  0  0  0  0  0  0  0  0  0
  180.8240  179.3980  140.5500 C   0  0  0  0  0  2  0  0  0  0  0  0
  182.4960  178.9630  142.7840 C   0  0  0  0  0  0  0  0  0  0  0  0
  182.1730  178.7200  140.2960 C   0  0  0  0  0  2  0  0  0  0  0  0
  187.7290  177.7760  145.9220 C   0  0  0  0  0  2  0  0  0  0  0  0
  186.7830  177.7170  144.7240 C   0  0  1  0  0  3  0  0  0  0  0  0
  188.7900  177.6700  143.2550 N   0  0  0  0  0  0  0  0  0  0  0  0
  184.3800  178.5290  141.3760 N   0  0  0  0  0  0  0  0  0  0  0  0
  186.6770  178.6790  139.9850 O   0  0  0  0  0  0  0  0  0  0  0  0
  186.6860  178.2480  142.2650 C   0  0  0  0  0  0  0  0  0  0  0  0
  189.4350  177.7640  142.0640 C   0  0  0  0  0  0  0  0  0  0  0  0
  190.9090  177.5290  142.0640 C   0  0  0  0  0  2  0  0  0  0  0  0
  191.5020  177.9490  143.3960 C   0  0  0  0  0  1  0  0  0  0  0  0
  189.6790  177.1640  138.7770 C   0  0  0  0  0  1  0  0  0  0  0  0
  189.2760  178.2380  139.6150 O   0  0  0  0  0  0  0  0  0  0  0  0
  179.9560  177.5190  141.7970 C   0  0  0  0  0  2  0  0  0  0  0  0
  179.6730  176.0710  139.7560 C   0  0  0  0  0  0  0  0  0  0  0  0
  179.2460  177.1530  140.5820 N   0  0  0  0  0  2  0  0  0  0  0  0
  180.7000  175.4050  140.0510 O   0  0  0  0  0  1  0  0  0  0  0  0
  178.9470  175.7460  138.6190 O   0  0  0  0  0  0  0  0  0  0  0  0
  1  9  1  0  0  0  0
  2 11  1  0  0  0  0
  4  3  1  0  0  0  0
  5 22  1  0  0  0  0
  6 27  1  1  0  0  0
  6  5  1  0  0  0  0
  6 23  1  0  0  0  0
  7 15  2  0  0  0  0
 10  3  1  0  0  0  0
 11  8  2  0  0  0  0
 11 12  1  0  0  0  0
 12 10  1  1  0  0  0
 13 18  1  0  0  0  0
 14  1  1  0  0  0  0
 15  9  1  0  0  0  0
 15  8  1  0  0  0  0
 16 14  1  0  0  0  0
 16  7  1  0  0  0  0
 17  4  1  0  0  0  0
 18 12  1  0  0  0  0
 18 17  1  1  0  0  0
 19 13  1  0  0  0  0
 20  7  1  0  0  0  0
 20  2  2  0  0  0  0
 21  5  2  0  0  0  0
 22  2  1  0  0  0  0
 22 13  2  0  0  0  0
 23 24  1  0  0  0  0
 23 19  2  0  0  0  0
 24 25  1  0  0  0  0
 26 27  1  0  0  0  0
 28  1  1  0  0  0  0
 29 31  1  0  0  0  0
 29 30  1  0  0  0  0
 30 28  1  0  0  0  0
 32 29  2  0  0  0  0
M  END
>  <MODEL>
2

>  <REMARK>
 VINA RESULT:      -9.3      4.039      6.781
  Name = 
  4 active torsions:
  status: ('A' for Active; 'I' for Inactive)
    1  A    between atoms: N_2  and  C_24
    2  A    between atoms: C_7  and  O_22
    3  A    between atoms: N_10  and  C_24
    4  A    between atoms: C_11  and  C_32
                            x       y       z     vdW  Elec       q    Type
                         _______ _______ _______ _____ _____    ______ ____

>  <TORSDO>
F 4

$$$$
=
 OpenBabel10262421373D

 32 36  0  0  1  0  0  0  0  0999 V2000
  191.4110  177.7710  144.5670 N   0  0  0  0  0  0  0  0  0  0  0  0
  189.2150  177.5580  139.9890 C   0  0  0  0  0  0  0  0  0  0  0  0
  192.7930  176.2660  136.8860 O   0  0  0  0  0  0  0  0  0  0  0  0
  191.9060  175.3990  136.2150 C   0  0  0  0  0  2  0  0  0  0  0  0
  186.9470  178.0430  138.9290 C   0  0  0  0  0  0  0  0  0  0  0  0
  186.0740  177.9660  137.8320 C   0  0  0  0  0  0  0  0  0  0  0  0
  189.6570  177.9210  142.3030 C   0  0  0  0  0  0  0  0  0  0  0  0
  191.4820  177.3780  140.8240 C   0  0  0  0  0  3  0  0  0  0  0  0
  192.0170  177.8140  143.2290 C   0  0  0  0  0  2  0  0  0  0  0  0
  192.3910  176.3170  138.2370 C   0  0  0  0  0  2  0  0  0  0  0  0
  190.5810  177.2900  139.7550 C   0  0  0  0  0  0  0  0  0  0  0  0
  191.0520  177.0550  138.3430 C   0  0  2  0  0  3  0  0  0  0  0  0
  188.6540  176.9040  137.6430 C   0  0  0  0  0  0  0  0  0  0  0  0
  190.2170  178.6270  144.6380 C   0  0  0  0  0  2  0  0  0  0  0  0
  191.0230  177.6690  142.1060 C   0  0  0  0  0  0  0  0  0  0  0  0
  189.1150  178.1770  143.6740 C   0  0  0  0  0  2  0  0  0  0  0  0
  190.5070  176.0180  136.1360 C   0  0  0  0  0  2  0  0  0  0  0  0
  190.0100  176.2510  137.5620 C   0  0  1  0  0  3  0  0  0  0  0  0
  187.7900  176.8270  136.5980 N   0  0  0  0  0  0  0  0  0  0  0  0
  188.7970  177.8480  141.2520 N   0  0  0  0  0  0  0  0  0  0  0  0
  186.5520  178.6120  139.9830 O   0  0  0  0  0  0  0  0  0  0  0  0
  188.2470  177.5030  138.8520 C   0  0  1  0  0  3  0  0  0  0  0  0
  186.5320  177.3370  136.6450 C   0  0  0  0  0  0  0  0  0  0  0  0
  185.7070  177.2380  135.4050 C   0  0  0  0  0  2  0  0  0  0  0  0
  184.9550  175.9200  135.3850 C   0  0  0  0  0  1  0  0  0  0  0  0
  183.6180  177.8230  138.3720 C   0  0  0  0  0  1  0  0  0  0  0  0
  184.7920  178.5270  137.9880 O   0  0  0  0  0  0  0  0  0  0  0  0
  191.0870  176.3900  144.9130 C   0  0  0  0  0  2  0  0  0  0  0  0
  191.8140  176.1890  147.3160 C   0  0  0  0  0  0  0  0  0  0  0  0
  192.0090  175.9110  145.9300 N   0  0  0  0  0  2  0  0  0  0  0  0
  190.8350  176.8820  147.7000 O   0  0  0  0  0  0  0  0  0  0  0  0
  192.7110  175.6880  148.2490 O   0  0  0  0  0  1  0  0  0  0  0  0
  1 14  1  0  0  0  0
  1 28  1  0  0  0  0
  2 20  1  0  0  0  0
  3 10  1  0  0  0  0
  4  3  1  0  0  0  0
  5 21  2  0  0  0  0
  6 27  1  0  0  0  0
  6  5  1  0  0  0  0
  7 16  1  0  0  0  0
  8 15  2  0  0  0  0
  9  1  1  0  0  0  0
 11  2  2  0  0  0  0
 11  8  1  0  0  0  0
 12 10  1  1  0  0  0
 12 11  1  0  0  0  0
 15  7  1  0  0  0  0
 15  9  1  0  0  0  0
 16 14  1  0  0  0  0
 17  4  1  0  0  0  0
 18 17  1  6  0  0  0
 18 13  1  0  0  0  0
 18 12  1  0  0  0  0
 19 23  1  0  0  0  0
 19 13  2  0  0  0  0
 20  7  2  0  0  0  0
 22 13  1  6  0  0  0
 22  5  1  0  0  0  0
 22  2  1  0  0  0  0
 23  6  2  0  0  0  0
 24 23  1  0  0  0  0
 25 24  1  0  0  0  0
 27 26  1  0  0  0  0
 28 30  1  0  0  0  0
 29 31  2  0  0  0  0
 29 32  1  0  0  0  0
 30 29  1  0  0  0  0
M  END
>  <MODEL>
3

>  <REMARK>
 VINA RESULT:      -8.1      2.648      8.757
  Name = 
  4 active torsions:
  status: ('A' for Active; 'I' for Inactive)
    1  A    between atoms: N_2  and  C_24
    2  A    between atoms: C_7  and  O_22
    3  A    between atoms: N_10  and  C_24
    4  A    between atoms: C_11  and  C_32
                            x       y       z     vdW  Elec       q    Type
                         _______ _______ _______ _____ _____    ______ ____

>  <TORSDO>
F 4

$$$$
=
 OpenBabel10262421373D

 32 36  0  0  1  0  0  0  0  0999 V2000
  189.5110  177.7510  147.0260 N   0  0  0  0  0  0  0  0  0  0  0  0
  185.6800  178.4070  143.7520 C   0  0  0  0  0  0  0  0  0  0  0  0
  187.7800  178.6650  139.3230 O   0  0  0  0  0  0  0  0  0  0  0  0
  186.7490  177.8710  138.7810 C   0  0  0  0  0  2  0  0  0  0  0  0
  183.1530  178.7530  143.8060 C   0  0  0  0  0  0  0  0  0  0  0  0
  181.9200  178.8240  143.1390 C   0  0  0  0  0  0  0  0  0  0  0  0
  186.9910  178.1980  145.7320 C   0  0  0  0  0  0  0  0  0  0  0  0
  188.0970  178.4110  143.6000 C   0  0  0  0  0  3  0  0  0  0  0  0
  189.5270  178.2630  145.6490 C   0  0  0  0  0  2  0  0  0  0  0  0
  187.9510  178.2740  140.6670 C   0  0  0  0  0  2  0  0  0  0  0  0
  186.8500  178.4590  142.9650 C   0  0  0  0  0  0  0  0  0  0  0  0
  186.7280  178.7060  141.4830 C   0  0  2  0  0  3  0  0  0  0  0  0
  184.2630  178.3290  141.6950 C   0  0  0  0  0  0  0  0  0  0  0  0
  188.3990  178.3290  147.7960 C   0  0  0  0  0  2  0  0  0  0  0  0
  188.1760  178.2550  144.9820 C   0  0  0  0  0  0  0  0  0  0  0  0
  187.0310  177.9700  147.2100 C   0  0  0  0  0  2  0  0  0  0  0  0
  185.4030  178.2290  139.4190 C   0  0  0  0  0  2  0  0  0  0  0  0
  185.5070  177.9730  140.9210 C   0  0  1  0  0  3  0  0  0  0  0  0
  183.0590  178.3880  141.0710 N   0  0  0  0  0  0  0  0  0  0  0  0
  185.7880  178.2640  145.1020 N   0  0  0  0  0  0  0  0  0  0  0  0
  183.1830  178.9330  145.0530 O   0  0  0  0  0  0  0  0  0  0  0  0
  184.3420  178.4930  143.0920 C   0  0  1  0  0  3  0  0  0  0  0  0
  181.8990  178.6330  141.7320 C   0  0  0  0  0  0  0  0  0  0  0  0
  180.6530  178.7310  140.9160 C   0  0  0  0  0  2  0  0  0  0  0  0
  180.5440  177.5360  139.9890 C   0  0  0  0  0  1  0  0  0  0  0  0
  179.8230  178.1210  144.3430 C   0  0  0  0  0  1  0  0  0  0  0  0
  180.7780  179.0840  143.9210 O   0  0  0  0  0  0  0  0  0  0  0  0
  189.4300  176.2930  147.0040 C   0  0  0  0  0  2  0  0  0  0  0  0
  191.8970  175.7860  147.0470 C   0  0  0  0  0  0  0  0  0  0  0  0
  190.6050  175.7280  147.6490 N   0  0  0  0  0  2  0  0  0  0  0  0
  192.0560  176.3200  145.9170 O   0  0  0  0  0  0  0  0  0  0  0  0
  192.9910  175.2530  147.7150 O   0  0  0  0  0  1  0  0  0  0  0  0
  1 14  1  0  0  0  0
  2 20  1  0  0  0  0
  3 10  1  0  0  0  0
  4  3  1  0  0  0  0
  4 17  1  0  0  0  0
  5 21  2  0  0  0  0
  6  5  1  0  0  0  0
  6 27  1  0  0  0  0
  7 16  1  0  0  0  0
  8 15  2  0  0  0  0
  9  1  1  0  0  0  0
 11  8  1  0  0  0  0
 11  2  2  0  0  0  0
 12 10  1  6  0  0  0
 12 11  1  0  0  0  0
 15  9  1  0  0  0  0
 15  7  1  0  0  0  0
 16 14  1  0  0  0  0
 18 17  1  6  0  0  0
 18 12  1  0  0  0  0
 18 13  1  0  0  0  0
 19 13  2  0  0  0  0
 19 23  1  0  0  0  0
 20  7  2  0  0  0  0
 22 13  1  6  0  0  0
 22  2  1  0  0  0  0
 22  5  1  0  0  0  0
 23  6  2  0  0  0  0
 24 23  1  0  0  0  0
 25 24  1  0  0  0  0
 27 26  1  0  0  0  0
 28  1  1  0  0  0  0
 28 30  1  0  0  0  0
 29 30  1  0  0  0  0
 29 32  1  0  0  0  0
 31 29  2  0  0  0  0
M  END
>  <MODEL>
4

>  <REMARK>
 VINA RESULT:      -7.1      3.253      8.123
  Name = 
  4 active torsions:
  status: ('A' for Active; 'I' for Inactive)
    1  A    between atoms: N_2  and  C_24
    2  A    between atoms: C_7  and  O_22
    3  A    between atoms: N_10  and  C_24
    4  A    between atoms: C_11  and  C_32
                            x       y       z     vdW  Elec       q    Type
                         _______ _______ _______ _____ _____    ______ ____

>  <TORSDO>
F 4

$$$$
=
 OpenBabel10262421373D

 32 36  0  0  1  0  0  0  0  0999 V2000
  191.6780  177.6060  143.1640 N   0  0  0  0  0  0  0  0  0  0  0  0
  188.3640  177.4920  139.3130 C   0  0  0  0  0  0  0  0  0  0  0  0
  190.8160  175.5320  135.5390 O   0  0  0  0  0  0  0  0  0  0  0  0
  189.6810  174.7730  135.1880 C   0  0  0  0  0  2  0  0  0  0  0  0
  185.9810  178.2540  138.8140 C   0  0  0  0  0  0  0  0  0  0  0  0
  184.8520  178.2520  137.9800 C   0  0  2  0  0  3  0  0  0  0  0  0
  189.4330  177.9000  141.4040 C   0  0  0  0  0  0  0  0  0  0  0  0
  190.7260  177.0200  139.5690 C   0  0  0  0  0  3  0  0  0  0  0  0
  191.9180  177.4920  141.7180 C   0  0  0  0  0  2  0  0  0  0  0  0
  190.7880  175.7090  136.9380 C   0  0  0  0  0  2  0  0  0  0  0  0
  189.5750  177.0130  138.7710 C   0  0  0  0  0  0  0  0  0  0  0  0
  189.6300  176.6410  137.3100 C   0  0  2  0  0  3  0  0  0  0  0  0
  187.1350  176.8120  137.2460 C   0  0  0  0  0  0  0  0  0  0  0  0
  190.6650  178.6320  143.4560 C   0  0  0  0  0  2  0  0  0  0  0  0
  190.6570  177.4400  140.8950 C   0  0  0  0  0  0  0  0  0  0  0  0
  189.3030  178.3010  142.8390 C   0  0  0  0  0  2  0  0  0  0  0  0
  188.4020  175.5880  135.4070 C   0  0  0  0  0  2  0  0  0  0  0  0
  188.3250  175.9620  136.8860 C   0  0  1  0  0  3  0  0  0  0  0  0
  186.0270  176.8120  136.4600 N   0  0  0  0  0  0  0  0  0  0  0  0
  188.3290  177.9040  140.6110 N   0  0  0  0  0  0  0  0  0  0  0  0
  185.9500  178.9260  139.8800 O   0  0  0  0  0  0  0  0  0  0  0  0
  187.1350  177.5240  138.4620 C   0  0  0  0  0  0  0  0  0  0  0  0
  184.9010  177.5030  136.7750 C   0  0  0  0  0  0  0  0  0  0  0  0
  183.7780  177.4660  135.7930 C   0  0  0  0  0  2  0  0  0  0  0  0
  182.8330  176.3280  136.1290 C   0  0  0  0  0  1  0  0  0  0  0  0
  182.6240  178.5010  139.1270 C   0  0  0  0  0  1  0  0  0  0  0  0
  183.7380  179.0030  138.4020 O   0  0  0  0  0  0  0  0  0  0  0  0
  191.2780  176.3070  143.6970 C   0  0  0  0  0  2  0  0  0  0  0  0
  191.6090  176.3610  146.1930 C   0  0  0  0  0  0  0  0  0  0  0  0
  192.0580  176.0040  144.8860 N   0  0  0  0  0  2  0  0  0  0  0  0
  190.5200  176.9720  146.3530 O   0  0  0  0  0  0  0  0  0  0  0  0
  192.3800  176.0280  147.2980 O   0  0  0  0  0  1  0  0  0  0  0  0
  1 14  1  0  0  0  0
  1 28  1  0  0  0  0
  2 20  1  0  0  0  0
  3 10  1  0  0  0  0
  4 17  1  0  0  0  0
  4  3  1  0  0  0  0
  5 21  2  0  0  0  0
  6 27  1  6  0  0  0
  6  5  1  0  0  0  0
  7 16  1  0  0  0  0
  8 15  2  0  0  0  0
  9  1  1  0  0  0  0
 11  2  2  0  0  0  0
 11  8  1  0  0  0  0
 12 10  1  1  0  0  0
 12 11  1  0  0  0  0
 13 22  2  0  0  0  0
 15  7  1  0  0  0  0
 15  9  1  0  0  0  0
 16 14  1  0  0  0  0
 18 17  1  6  0  0  0
 18 13  1  0  0  0  0
 18 12  1  0  0  0  0
 19 23  2  0  0  0  0
 19 13  1  0  0  0  0
 20  7  2  0  0  0  0
 22  5  1  0  0  0  0
 22  2  1  0  0  0  0
 23  6  1  0  0  0  0
 24 25  1  0  0  0  0
 24 23  1  0  0  0  0
 27 26  1  0  0  0  0
 28 30  1  0  0  0  0
 29 31  2  0  0  0  0
 29 32  1  0  0  0  0
 30 29  1  0  0  0  0
M  END
>  <MODEL>
5

>  <REMARK>
 VINA RESULT:      -7.0      2.687      8.561
  Name = 
  4 active torsions:
  status: ('A' for Active; 'I' for Inactive)
    1  A    between atoms: N_2  and  C_24
    2  A    between atoms: C_7  and  O_22
    3  A    between atoms: N_10  and  C_24
    4  A    between atoms: C_11  and  C_32
                            x       y       z     vdW  Elec       q    Type
                         _______ _______ _______ _____ _____    ______ ____

>  <TORSDO>
F 4

$$$$
