=
 OpenBabel10262422523D

 37 42  0  0  1  0  0  0  0  0999 V2000
  184.1930  176.2960  136.3420 C   0  0  1  0  0  0  0  0  0  0  0  0
  182.7270  178.9050  139.1200 C   0  0  0  0  0  0  0  0  0  0  0  0
  186.3730  178.5620  138.9280 C   0  0  0  0  0  0  0  0  0  0  0  0
  183.7550  174.8270  136.2610 C   0  0  1  0  0  3  0  0  0  0  0  0
  184.4980  178.6750  140.9880 C   0  0  0  0  0  3  0  0  0  0  0  0
  187.1010  178.0960  137.8240 C   0  0  0  0  0  0  0  0  0  0  0  0
  185.7310  173.7510  137.1770 C   0  0  0  0  0  0  0  0  0  0  0  0
  185.1380  179.1390  138.7190 C   0  0  0  0  0  3  0  0  0  0  0  0
  188.4080  177.5850  138.0450 C   0  0  0  0  0  0  0  0  0  0  0  0
  186.1690  177.9590  142.5370 F   0  0  0  0  0  0  0  0  0  0  0  0
  184.3810  174.0750  137.2910 O   0  0  0  0  0  0  0  0  0  0  0  0
  183.3950  177.2050  137.1880 C   0  0  0  0  0  0  0  0  0  0  0  0
  182.2090  180.2270  138.5840 C   0  0  0  0  0  1  0  0  0  0  0  0
  187.9820  177.6530  140.4250 N   0  0  0  0  0  0  0  0  0  0  0  0
  185.8330  178.3370  141.2780 C   0  0  0  0  0  0  0  0  0  0  0  0
  182.8860  177.9400  138.0040 C   0  0  0  0  0  0  0  0  0  0  0  0
  186.4550  174.0670  135.9110 C   0  0  0  0  0  2  0  0  0  0  0  0
  186.3730  177.9950  136.4850 C   0  0  0  0  0  2  0  0  0  0  0  0
  186.7620  178.2150  140.2290 C   0  0  0  0  0  0  0  0  0  0  0  0
  185.7260  176.6130  136.2050 C   0  0  1  0  0  0  0  0  0  0  0  0
  184.1350  179.0810  139.6870 C   0  0  0  0  0  0  0  0  0  0  0  0
  181.7390  178.3530  140.1350 C   0  0  0  0  0  1  0  0  0  0  0  0
  186.7670  175.5570  135.7600 C   0  0  0  0  0  2  0  0  0  0  0  0
  186.3320  173.1860  138.1270 O   0  0  0  0  0  0  0  0  0  0  0  0
  184.7370  176.8520  135.0560 C   0  0  0  0  0  2  0  0  0  0  0  0
  188.8100  177.3740  139.3810 C   0  0  0  0  0  3  0  0  0  0  0  0
  189.2800  177.9440  135.8540 O   0  0  0  0  0  0  0  0  0  0  0  0
  189.3510  177.2770  136.9240 C   0  0  0  0  0  0  0  0  0  0  0  0
  190.0910  174.7980  136.8360 C   0  0  0  0  0  3  0  0  0  0  0  0
  190.4060  176.2340  137.0140 C   0  0  0  0  0  0  0  0  0  0  0  0
  191.6540  176.6040  137.3280 C   0  0  0  0  0  3  0  0  0  0  0  0
  193.8950  175.9930  137.7540 O   0  0  0  0  0  0  0  0  0  0  0  0
  192.4560  174.1420  137.2900 C   0  0  0  0  0  2  0  0  0  0  0  0
  192.7290  175.6100  137.4690 C   0  0  0  0  0  0  0  0  0  0  0  0
  191.0190  173.8450  136.9590 C   0  0  0  0  0  3  0  0  0  0  0  0
  181.8060  174.2670  137.5380 F   0  0  0  0  0  0  0  0  0  0  0  0
  182.2430  174.6200  136.2730 C   0  0  0  0  0  2  0  0  0  0  0  0
  1 25  1  6  0  0  0
  1 12  1  0  0  0  0
  2 21  1  0  0  0  0
  2 22  1  0  0  0  0
  3 19  1  0  0  0  0
  4 37  1  1  0  0  0
  4  1  1  0  0  0  0
  4 11  1  0  0  0  0
  5 15  1  0  0  0  0
  6  9  2  0  0  0  0
  6  3  1  0  0  0  0
  7 11  1  0  0  0  0
  7 24  2  0  0  0  0
  8  3  2  0  0  0  0
  8 21  1  0  0  0  0
  9 26  1  0  0  0  0
 12 16  3  0  0  0  0
 13  2  1  0  0  0  0
 15 10  1  0  0  0  0
 16  2  1  0  0  0  0
 17  7  1  0  0  0  0
 18  6  1  0  0  0  0
 19 14  1  0  0  0  0
 19 15  2  0  0  0  0
 20 25  1  6  0  0  0
 20  1  1  0  0  0  0
 20 18  1  0  0  0  0
 21  5  2  0  0  0  0
 23 17  1  0  0  0  0
 23 20  1  0  0  0  0
 26 14  2  0  0  0  0
 27 28  2  0  0  0  0
 28 30  1  0  0  0  0
 28  9  1  0  0  0  0
 29 35  2  0  0  0  0
 29 30  1  0  0  0  0
 30 31  2  0  0  0  0
 31 34  1  0  0  0  0
 33 34  1  0  0  0  0
 34 32  2  0  0  0  0
 35 33  1  0  0  0  0
 37 36  1  0  0  0  0
M  END
>  <MODEL>
1

>  <REMARK>
 VINA RESULT:      -6.5      0.000      0.000
  Name = 
  3 active torsions:
  status: ('A' for Active; 'I' for Inactive)
    1  A    between atoms: C_5  and  C_23
    2  A    between atoms: C_6  and  C_31
    3  A    between atoms: C_14  and  C_31
                            x       y       z     vdW  Elec       q    Type
                         _______ _______ _______ _____ _____    ______ ____

>  <TORSDO>
F 3

$$$$
=
 OpenBabel10262422523D

 37 42  0  0  1  0  0  0  0  0999 V2000
  184.6810  175.6650  136.6440 C   0  0  1  0  0  0  0  0  0  0  0  0
  184.0470  178.5280  139.4850 C   0  0  0  0  0  0  0  0  0  0  0  0
  187.4920  178.0990  138.3020 C   0  0  0  0  0  0  0  0  0  0  0  0
  184.2450  174.2040  136.8180 C   0  0  1  0  0  3  0  0  0  0  0  0
  186.2760  178.4230  140.7900 C   0  0  0  0  0  3  0  0  0  0  0  0
  187.8800  177.5260  137.0820 C   0  0  0  0  0  0  0  0  0  0  0  0
  186.4040  173.1710  137.2280 C   0  0  0  0  0  0  0  0  0  0  0  0
  186.2450  178.6800  138.4010 C   0  0  0  0  0  3  0  0  0  0  0  0
  189.1990  177.0100  136.9690 C   0  0  0  0  0  0  0  0  0  0  0  0
  188.3200  177.8070  141.8600 F   0  0  0  0  0  0  0  0  0  0  0  0
  185.1410  173.5300  137.6900 O   0  0  0  0  0  0  0  0  0  0  0  0
  184.1500  176.6580  137.5990 C   0  0  0  0  0  0  0  0  0  0  0  0
  183.3920  179.8100  139.0040 C   0  0  0  0  0  1  0  0  0  0  0  0
  189.4630  177.2890  139.3580 N   0  0  0  0  0  0  0  0  0  0  0  0
  187.6400  178.0840  140.7200 C   0  0  0  0  0  0  0  0  0  0  0  0
  183.8900  177.4700  138.4580 C   0  0  0  0  0  0  0  0  0  0  0  0
  186.7390  173.3630  135.7870 C   0  0  0  0  0  2  0  0  0  0  0  0
  186.8040  177.3270  136.0170 C   0  0  0  0  0  2  0  0  0  0  0  0
  188.2350  177.8550  139.4650 C   0  0  0  0  0  0  0  0  0  0  0  0
  186.1110  175.9390  136.0530 C   0  0  1  0  0  0  0  0  0  0  0  0
  185.5570  178.7240  139.6140 C   0  0  0  0  0  0  0  0  0  0  0  0
  183.3890  178.0840  140.7820 C   0  0  0  0  0  1  0  0  0  0  0  0
  186.9880  174.8290  135.4260 C   0  0  0  0  0  2  0  0  0  0  0  0
  187.2520  172.6760  138.0150 O   0  0  0  0  0  0  0  0  0  0  0  0
  184.8360  176.1000  135.2130 C   0  0  0  0  0  2  0  0  0  0  0  0
  189.9630  176.9060  138.1500 C   0  0  0  0  0  3  0  0  0  0  0  0
  189.4430  177.1930  134.6030 O   0  0  0  0  0  0  0  0  0  0  0  0
  189.7870  176.5900  135.6590 C   0  0  0  0  0  0  0  0  0  0  0  0
  192.2480  175.7970  135.5290 C   0  0  0  0  0  3  0  0  0  0  0  0
  190.7960  175.5060  135.5330 C   0  0  0  0  0  0  0  0  0  0  0  0
  190.3740  174.2470  135.3560 C   0  0  0  0  0  3  0  0  0  0  0  0
  190.8980  171.9680  135.0340 O   0  0  0  0  0  0  0  0  0  0  0  0
  192.8120  173.3920  135.1830 C   0  0  0  0  0  2  0  0  0  0  0  0
  191.3290  173.1410  135.1870 C   0  0  0  0  0  0  0  0  0  0  0  0
  193.1670  174.8410  135.3710 C   0  0  0  0  0  3  0  0  0  0  0  0
  181.9210  174.4690  136.2990 F   0  0  0  0  0  0  0  0  0  0  0  0
  182.7990  174.0290  137.2740 C   0  0  0  0  0  2  0  0  0  0  0  0
  1 25  1  6  0  0  0
  1  4  1  0  0  0  0
  1 12  1  0  0  0  0
  2 21  1  0  0  0  0
  2 22  1  0  0  0  0
  3  8  2  0  0  0  0
  3 19  1  0  0  0  0
  4 37  1  1  0  0  0
  4 11  1  0  0  0  0
  6  3  1  0  0  0  0
  7 11  1  0  0  0  0
  7 24  2  0  0  0  0
  8 21  1  0  0  0  0
  9  6  2  0  0  0  0
  9 26  1  0  0  0  0
 12 16  3  0  0  0  0
 13  2  1  0  0  0  0
 14 19  1  0  0  0  0
 15  5  1  0  0  0  0
 15 10  1  0  0  0  0
 16  2  1  0  0  0  0
 17  7  1  0  0  0  0
 18 20  1  0  0  0  0
 18  6  1  0  0  0  0
 19 15  2  0  0  0  0
 20 25  1  6  0  0  0
 20  1  1  0  0  0  0
 21  5  2  0  0  0  0
 23 17  1  0  0  0  0
 23 20  1  0  0  0  0
 26 14  2  0  0  0  0
 27 28  2  0  0  0  0
 28  9  1  0  0  0  0
 29 30  1  0  0  0  0
 30 28  1  0  0  0  0
 31 30  2  0  0  0  0
 32 34  2  0  0  0  0
 33 34  1  0  0  0  0
 33 35  1  0  0  0  0
 34 31  1  0  0  0  0
 35 29  2  0  0  0  0
 36 37  1  0  0  0  0
M  END
>  <MODEL>
2

>  <REMARK>
 VINA RESULT:      -5.9      1.575      1.918
  Name = 
  3 active torsions:
  status: ('A' for Active; 'I' for Inactive)
    1  A    between atoms: C_5  and  C_23
    2  A    between atoms: C_6  and  C_31
    3  A    between atoms: C_14  and  C_31
                            x       y       z     vdW  Elec       q    Type
                         _______ _______ _______ _____ _____    ______ ____

>  <TORSDO>
F 3

$$$$
=
 OpenBabel10262422523D

 37 42  0  0  1  0  0  0  0  0999 V2000
  180.8800  175.9490  137.4340 C   0  0  1  0  0  0  0  0  0  0  0  0
  183.2530  172.8350  136.2780 C   0  0  0  0  0  0  0  0  0  0  0  0
  184.9410  175.7850  137.6540 C   0  0  0  0  0  0  0  0  0  0  0  0
  179.8510  176.6060  136.5040 C   0  0  1  0  0  3  0  0  0  0  0  0
  185.3600  174.0980  135.4740 C   0  0  0  0  0  3  0  0  0  0  0  0
  184.3630  176.7530  138.4880 C   0  0  0  0  0  0  0  0  0  0  0  0
  181.0040  178.6850  136.0070 C   0  0  0  0  0  0  0  0  0  0  0  0
  184.4160  174.5100  137.6450 C   0  0  0  0  0  3  0  0  0  0  0  0
  184.9690  178.0360  138.5530 C   0  0  0  0  0  0  0  0  0  0  0  0
  186.9530  175.6440  134.5940 F   0  0  0  0  0  0  0  0  0  0  0  0
  180.5070  177.4570  135.5760 O   0  0  0  0  0  0  0  0  0  0  0  0
  181.4680  174.6640  137.0080 C   0  0  0  0  0  0  0  0  0  0  0  0
  183.2730  171.6330  137.2040 C   0  0  0  0  0  1  0  0  0  0  0  0
  186.3700  177.4180  136.6800 N   0  0  0  0  0  0  0  0  0  0  0  0
  186.1140  175.2810  135.5950 C   0  0  0  0  0  0  0  0  0  0  0  0
  182.1080  173.7120  136.6200 C   0  0  0  0  0  0  0  0  0  0  0  0
  180.7070  179.1490  137.3930 C   0  0  0  0  0  2  0  0  0  0  0  0
  183.0160  176.4240  139.1280 C   0  0  0  0  0  2  0  0  0  0  0  0
  185.8540  176.1640  136.6600 C   0  0  0  0  0  0  0  0  0  0  0  0
  181.7830  176.8900  138.3100 C   0  0  1  0  0  0  0  0  0  0  0  0
  184.4910  173.7000  136.5110 C   0  0  0  0  0  0  0  0  0  0  0  0
  183.1200  172.3580  134.8400 C   0  0  0  0  0  1  0  0  0  0  0  0
  181.5220  178.4090  138.4550 C   0  0  0  0  0  2  0  0  0  0  0  0
  181.6870  179.4020  135.2310 O   0  0  0  0  0  0  0  0  0  0  0  0
  180.5910  176.1230  138.8990 C   0  0  0  0  0  2  0  0  0  0  0  0
  185.9800  178.3290  137.6140 C   0  0  0  0  0  3  0  0  0  0  0  0
  184.0480  180.1430  139.1900 O   0  0  0  0  0  0  0  0  0  0  0  0
  184.5750  179.0600  139.5710 C   0  0  0  0  0  0  0  0  0  0  0  0
  186.0590  178.5230  141.6230 C   0  0  0  0  0  3  0  0  0  0  0  0
  184.7420  178.8550  141.0340 C   0  0  0  0  0  0  0  0  0  0  0  0
  183.6600  178.9100  141.8210 C   0  0  0  0  0  3  0  0  0  0  0  0
  182.7250  178.7470  143.9830 O   0  0  0  0  0  0  0  0  0  0  0  0
  185.0800  178.3420  143.9110 C   0  0  0  0  0  2  0  0  0  0  0  0
  183.7610  178.6760  143.2700 C   0  0  0  0  0  0  0  0  0  0  0  0
  186.2180  178.2900  142.9280 C   0  0  0  0  0  3  0  0  0  0  0  0
  179.6340  174.8850  134.8510 F   0  0  0  0  0  0  0  0  0  0  0  0
  178.9300  175.6210  135.7880 C   0  0  0  0  0  2  0  0  0  0  0  0
  1 12  1  6  0  0  0
  1 20  1  0  0  0  0
  1 25  1  0  0  0  0
  2 21  1  0  0  0  0
  2 16  1  0  0  0  0
  2 13  1  0  0  0  0
  3  6  1  0  0  0  0
  4 37  1  6  0  0  0
  4  1  1  0  0  0  0
  5 15  2  0  0  0  0
  5 21  1  0  0  0  0
  6  9  2  0  0  0  0
  6 18  1  0  0  0  0
  7 17  1  0  0  0  0
  8  3  1  0  0  0  0
  9 28  1  0  0  0  0
 10 15  1  0  0  0  0
 11  7  1  0  0  0  0
 11  4  1  0  0  0  0
 14 26  2  0  0  0  0
 15 19  1  0  0  0  0
 16 12  3  0  0  0  0
 17 23  1  0  0  0  0
 19 14  1  0  0  0  0
 19  3  2  0  0  0  0
 20 23  1  6  0  0  0
 20 25  1  0  0  0  0
 20 18  1  0  0  0  0
 21  8  2  0  0  0  0
 22  2  1  0  0  0  0
 24  7  2  0  0  0  0
 26  9  1  0  0  0  0
 27 28  2  0  0  0  0
 28 30  1  0  0  0  0
 29 35  2  0  0  0  0
 30 29  1  0  0  0  0
 30 31  2  0  0  0  0
 31 34  1  0  0  0  0
 34 33  1  0  0  0  0
 34 32  2  0  0  0  0
 35 33  1  0  0  0  0
 36 37  1  0  0  0  0
M  END
>  <MODEL>
3

>  <REMARK>
 VINA RESULT:      -5.4      4.036      6.708
  Name = 
  3 active torsions:
  status: ('A' for Active; 'I' for Inactive)
    1  A    between atoms: C_5  and  C_23
    2  A    between atoms: C_6  and  C_31
    3  A    between atoms: C_14  and  C_31
                            x       y       z     vdW  Elec       q    Type
                         _______ _______ _______ _____ _____    ______ ____

>  <TORSDO>
F 3

$$$$
=
 OpenBabel10262422523D

 37 42  0  0  1  0  0  0  0  0999 V2000
  181.5250  174.7420  136.7530 C   0  0  1  0  0  0  0  0  0  0  0  0
  185.3490  173.4970  136.0470 C   0  0  0  0  0  0  0  0  0  0  0  0
  184.9360  176.5160  138.0880 C   0  0  0  0  0  0  0  0  0  0  0  0
  180.5110  175.0040  135.6300 C   0  0  1  0  0  3  0  0  0  0  0  0
  186.5940  175.7620  135.9760 C   0  0  0  0  0  3  0  0  0  0  0  0
  183.7870  176.8760  138.8060 C   0  0  0  0  0  0  0  0  0  0  0  0
  180.4790  177.4330  135.6570 C   0  0  0  0  0  0  0  0  0  0  0  0
  185.1690  175.1830  137.8230 C   0  0  0  0  0  3  0  0  0  0  0  0
  183.6060  178.2430  139.1470 C   0  0  0  0  0  0  0  0  0  0  0  0
  187.2800  178.0340  135.7140 F   0  0  0  0  0  0  0  0  0  0  0  0
  180.7930  176.2450  135.0000 O   0  0  0  0  0  0  0  0  0  0  0  0
  182.7680  174.0280  136.4000 C   0  0  0  0  0  0  0  0  0  0  0  0
  185.8120  172.2860  136.8350 C   0  0  0  0  0  1  0  0  0  0  0  0
  185.4590  178.8030  137.6970 N   0  0  0  0  0  0  0  0  0  0  0  0
  186.5770  177.1020  136.4050 C   0  0  0  0  0  0  0  0  0  0  0  0
  183.8720  173.6140  136.1280 C   0  0  0  0  0  0  0  0  0  0  0  0
  179.7170  177.3810  136.9380 C   0  0  0  0  0  2  0  0  0  0  0  0
  182.7150  175.8070  139.0120 C   0  0  0  0  0  2  0  0  0  0  0  0
  185.6910  177.4940  137.4260 C   0  0  0  0  0  0  0  0  0  0  0  0
  181.6100  175.7850  137.9240 C   0  0  1  0  0  0  0  0  0  0  0  0
  185.8770  174.7790  136.6910 C   0  0  0  0  0  0  0  0  0  0  0  0
  185.7700  173.3420  134.5940 C   0  0  0  0  0  1  0  0  0  0  0  0
  180.5710  176.9160  138.1200 C   0  0  0  0  0  2  0  0  0  0  0  0
  180.8230  178.5400  135.1680 O   0  0  0  0  0  0  0  0  0  0  0  0
  180.9060  174.4300  138.0870 C   0  0  0  0  0  2  0  0  0  0  0  0
  184.4760  179.1840  138.5580 C   0  0  0  0  0  3  0  0  0  0  0  0
  181.4340  179.0960  139.6430 O   0  0  0  0  0  0  0  0  0  0  0  0
  182.5440  178.7000  140.0980 C   0  0  0  0  0  0  0  0  0  0  0  0
  181.5830  178.9600  142.4870 C   0  0  0  0  0  3  0  0  0  0  0  0
  182.7140  178.6800  141.5740 C   0  0  0  0  0  0  0  0  0  0  0  0
  183.9350  178.4650  142.0810 C   0  0  0  0  0  3  0  0  0  0  0  0
  185.3270  178.2560  143.9770 O   0  0  0  0  0  0  0  0  0  0  0  0
  183.0460  178.7470  144.4970 C   0  0  0  0  0  2  0  0  0  0  0  0
  184.1680  178.4730  143.5330 C   0  0  0  0  0  0  0  0  0  0  0  0
  181.7280  178.9910  143.8150 C   0  0  0  0  0  3  0  0  0  0  0  0
  179.5790  172.8690  135.0690 F   0  0  0  0  0  0  0  0  0  0  0  0
  180.4030  173.8800  134.6040 C   0  0  0  0  0  2  0  0  0  0  0  0
  1 12  1  6  0  0  0
  1 20  1  0  0  0  0
  1 25  1  0  0  0  0
  2 16  1  0  0  0  0
  2 21  1  0  0  0  0
  2 13  1  0  0  0  0
  3  6  1  0  0  0  0
  4 37  1  6  0  0  0
  4  1  1  0  0  0  0
  5 15  2  0  0  0  0
  5 21  1  0  0  0  0
  6 18  1  0  0  0  0
  6  9  2  0  0  0  0
  7 17  1  0  0  0  0
  8  3  1  0  0  0  0
  9 28  1  0  0  0  0
 10 15  1  0  0  0  0
 11  4  1  0  0  0  0
 11  7  1  0  0  0  0
 14 26  2  0  0  0  0
 15 19  1  0  0  0  0
 16 12  3  0  0  0  0
 17 23  1  0  0  0  0
 19 14  1  0  0  0  0
 19  3  2  0  0  0  0
 20 25  1  1  0  0  0
 20 23  1  0  0  0  0
 20 18  1  0  0  0  0
 21  8  2  0  0  0  0
 22  2  1  0  0  0  0
 24  7  2  0  0  0  0
 26  9  1  0  0  0  0
 27 28  2  0  0  0  0
 28 30  1  0  0  0  0
 29 35  2  0  0  0  0
 30 31  2  0  0  0  0
 30 29  1  0  0  0  0
 31 34  1  0  0  0  0
 34 32  2  0  0  0  0
 34 33  1  0  0  0  0
 35 33  1  0  0  0  0
 37 36  1  0  0  0  0
M  END
>  <MODEL>
4

>  <REMARK>
 VINA RESULT:      -4.9      3.943      7.014
  Name = 
  3 active torsions:
  status: ('A' for Active; 'I' for Inactive)
    1  A    between atoms: C_5  and  C_23
    2  A    between atoms: C_6  and  C_31
    3  A    between atoms: C_14  and  C_31
                            x       y       z     vdW  Elec       q    Type
                         _______ _______ _______ _____ _____    ______ ____

>  <TORSDO>
F 3

$$$$
=
 OpenBabel10262422523D

 37 42  0  0  1  0  0  0  0  0999 V2000
  189.2630  177.6250  138.8810 C   0  0  1  0  0  0  0  0  0  0  0  0
  189.2210  174.7210  136.0100 C   0  0  0  0  0  0  0  0  0  0  0  0
  185.9700  176.0050  137.1200 C   0  0  0  0  0  0  0  0  0  0  0  0
  189.9890  177.4620  140.2230 C   0  0  1  0  0  3  0  0  0  0  0  0
  187.0340  173.4790  136.6040 C   0  0  0  0  0  3  0  0  0  0  0  0
  185.7370  177.2430  137.7340 C   0  0  0  0  0  0  0  0  0  0  0  0
  188.0830  177.1280  141.6910 C   0  0  0  0  0  0  0  0  0  0  0  0
  187.0650  175.8620  136.2950 C   0  0  0  0  0  3  0  0  0  0  0  0
  184.5580  177.4010  138.5100 C   0  0  0  0  0  0  0  0  0  0  0  0
  185.1380  172.4750  137.6530 F   0  0  0  0  0  0  0  0  0  0  0  0
  189.2330  176.6260  141.0870 O   0  0  0  0  0  0  0  0  0  0  0  0
  189.5540  176.6400  137.8200 C   0  0  0  0  0  0  0  0  0  0  0  0
  189.6060  175.1630  134.6100 C   0  0  0  0  0  1  0  0  0  0  0  0
  184.1860  175.0160  138.3440 N   0  0  0  0  0  0  0  0  0  0  0  0
  185.7710  173.5930  137.2170 C   0  0  0  0  0  0  0  0  0  0  0  0
  189.6200  175.7600  136.9910 C   0  0  0  0  0  0  0  0  0  0  0  0
  187.7500  178.5740  141.5400 C   0  0  0  0  0  2  0  0  0  0  0  0
  186.8570  178.2820  137.6820 C   0  0  0  0  0  2  0  0  0  0  0  0
  185.2670  174.8660  137.5370 C   0  0  0  0  0  0  0  0  0  0  0  0
  187.8220  178.2500  138.8970 C   0  0  1  0  0  0  0  0  0  0  0  0
  187.7010  174.6300  136.1340 C   0  0  0  0  0  0  0  0  0  0  0  0
  189.9270  173.4140  136.3360 C   0  0  0  0  0  1  0  0  0  0  0  0
  187.2090  178.9190  140.1510 C   0  0  0  0  0  2  0  0  0  0  0  0
  187.3390  176.3720  142.3670 O   0  0  0  0  0  0  0  0  0  0  0  0
  189.0550  179.0520  138.4570 C   0  0  0  0  0  2  0  0  0  0  0  0
  183.8050  176.2430  138.7960 C   0  0  0  0  0  3  0  0  0  0  0  0
  184.3780  179.7740  138.3550 O   0  0  0  0  0  0  0  0  0  0  0  0
  184.1010  178.7340  139.0150 C   0  0  0  0  0  0  0  0  0  0  0  0
  183.8710  178.6300  141.5910 C   0  0  0  0  0  3  0  0  0  0  0  0
  183.2960  178.8990  140.2530 C   0  0  0  0  0  0  0  0  0  0  0  0
  182.0050  179.2380  140.1440 C   0  0  0  0  0  3  0  0  0  0  0  0
  179.9450  179.7090  141.1970 O   0  0  0  0  0  0  0  0  0  0  0  0
  181.6970  179.1190  142.7130 C   0  0  0  0  0  2  0  0  0  0  0  0
  181.1520  179.3780  141.3350 C   0  0  0  0  0  0  0  0  0  0  0  0
  183.1490  178.7290  142.7100 C   0  0  0  0  0  3  0  0  0  0  0  0
  192.3070  177.8780  140.6690 F   0  0  0  0  0  0  0  0  0  0  0  0
  191.4290  176.9700  140.1040 C   0  0  0  0  0  2  0  0  0  0  0  0
  1 12  1  6  0  0  0
  1 20  1  0  0  0  0
  1  4  1  0  0  0  0
  2 21  1  0  0  0  0
  2 22  1  0  0  0  0
  2 16  1  0  0  0  0
  3 19  1  0  0  0  0
  3  6  1  0  0  0  0
  4 37  1  6  0  0  0
  4 11  1  0  0  0  0
  5 15  1  0  0  0  0
  6  9  2  0  0  0  0
  7 24  2  0  0  0  0
  8  3  2  0  0  0  0
  9 26  1  0  0  0  0
  9 28  1  0  0  0  0
 11  7  1  0  0  0  0
 13  2  1  0  0  0  0
 14 26  2  0  0  0  0
 15 19  2  0  0  0  0
 15 10  1  0  0  0  0
 16 12  3  0  0  0  0
 17  7  1  0  0  0  0
 18  6  1  0  0  0  0
 19 14  1  0  0  0  0
 20 18  1  6  0  0  0
 20 23  1  0  0  0  0
 21  8  1  0  0  0  0
 21  5  2  0  0  0  0
 23 17  1  0  0  0  0
 25  1  1  0  0  0  0
 25 20  1  0  0  0  0
 27 28  2  0  0  0  0
 28 30  1  0  0  0  0
 29 35  2  0  0  0  0
 30 29  1  0  0  0  0
 31 30  2  0  0  0  0
 31 34  1  0  0  0  0
 32 34  2  0  0  0  0
 34 33  1  0  0  0  0
 35 33  1  0  0  0  0
 37 36  1  0  0  0  0
M  END
>  <MODEL>
5

>  <REMARK>
 VINA RESULT:      -4.8      2.882      7.790
  Name = 
  3 active torsions:
  status: ('A' for Active; 'I' for Inactive)
    1  A    between atoms: C_5  and  C_23
    2  A    between atoms: C_6  and  C_31
    3  A    between atoms: C_14  and  C_31
                            x       y       z     vdW  Elec       q    Type
                         _______ _______ _______ _____ _____    ______ ____

>  <TORSDO>
F 3

$$$$
=
 OpenBabel10262422523D

 37 42  0  0  1  0  0  0  0  0999 V2000
  187.0620  177.8490  137.9640 C   0  0  1  0  0  0  0  0  0  0  0  0
  187.9200  174.2020  136.3400 C   0  0  0  0  0  0  0  0  0  0  0  0
  184.3960  175.2180  136.3690 C   0  0  0  0  0  0  0  0  0  0  0  0
  187.4980  178.2570  139.3780 C   0  0  1  0  0  3  0  0  0  0  0  0
  185.7900  172.8760  136.9630 C   0  0  0  0  0  3  0  0  0  0  0  0
  183.9170  176.5320  136.4580 C   0  0  0  0  0  0  0  0  0  0  0  0
  185.3660  178.1090  140.5310 C   0  0  0  0  0  0  0  0  0  0  0  0
  185.6510  174.9980  135.8410 C   0  0  0  0  0  3  0  0  0  0  0  0
  182.5900  176.7360  136.9210 C   0  0  0  0  0  0  0  0  0  0  0  0
  183.8230  171.9700  137.9680 F   0  0  0  0  0  0  0  0  0  0  0  0
  186.6620  177.6360  140.3430 O   0  0  0  0  0  0  0  0  0  0  0  0
  187.6680  176.6340  137.3840 C   0  0  0  0  0  0  0  0  0  0  0  0
  188.5490  174.2190  134.9590 C   0  0  0  0  0  1  0  0  0  0  0  0
  182.5000  174.4020  137.5490 N   0  0  0  0  0  0  0  0  0  0  0  0
  184.4220  172.9720  137.2780 C   0  0  0  0  0  0  0  0  0  0  0  0
  187.9960  175.5560  136.9420 C   0  0  0  0  0  0  0  0  0  0  0  0
  184.9300  179.3490  139.8270 C   0  0  0  0  0  2  0  0  0  0  0  0
  184.9130  177.6680  136.2300 C   0  0  0  0  0  2  0  0  0  0  0  0
  183.7370  174.1780  137.0390 C   0  0  0  0  0  0  0  0  0  0  0  0
  185.5960  178.1950  137.5190 C   0  0  1  0  0  0  0  0  0  0  0  0
  186.4250  173.9050  136.2350 C   0  0  0  0  0  0  0  0  0  0  0  0
  188.6660  173.2100  137.2190 C   0  0  0  0  0  1  0  0  0  0  0  0
  184.6670  179.1260  138.3360 C   0  0  0  0  0  2  0  0  0  0  0  0
  184.5720  177.5030  141.2970 O   0  0  0  0  0  0  0  0  0  0  0  0
  186.8090  179.0030  137.0360 C   0  0  0  0  0  2  0  0  0  0  0  0
  181.9120  175.6270  137.4690 C   0  0  0  0  0  3  0  0  0  0  0  0
  181.6780  178.5760  135.7070 O   0  0  0  0  0  0  0  0  0  0  0  0
  181.9060  178.0650  136.8400 C   0  0  0  0  0  0  0  0  0  0  0  0
  181.3510  178.1670  139.3660 C   0  0  0  0  0  3  0  0  0  0  0  0
  181.4420  178.8140  138.0370 C   0  0  0  0  0  0  0  0  0  0  0  0
  181.0400  180.0820  137.8900 C   0  0  0  0  0  3  0  0  0  0  0  0
  180.1750  182.0520  138.8630 O   0  0  0  0  0  0  0  0  0  0  0  0
  180.4310  180.2420  140.4020 C   0  0  0  0  0  2  0  0  0  0  0  0
  180.5350  180.8580  139.0340 C   0  0  0  0  0  0  0  0  0  0  0  0
  180.8930  178.8110  140.4430 C   0  0  0  0  0  3  0  0  0  0  0  0
  189.7810  178.6480  138.7650 F   0  0  0  0  0  0  0  0  0  0  0  0
  188.9720  177.9990  139.6810 C   0  0  0  0  0  2  0  0  0  0  0  0
  1 25  1  6  0  0  0
  1  4  1  0  0  0  0
  2 16  1  0  0  0  0
  2 22  1  0  0  0  0
  3  6  1  0  0  0  0
  3 19  1  0  0  0  0
  4 37  1  1  0  0  0
  4 11  1  0  0  0  0
  5 15  1  0  0  0  0
  6  9  2  0  0  0  0
  7 24  2  0  0  0  0
  8 21  1  0  0  0  0
  8  3  2  0  0  0  0
  9 26  1  0  0  0  0
 11  7  1  0  0  0  0
 12  1  1  0  0  0  0
 13  2  1  0  0  0  0
 15 10  1  0  0  0  0
 16 12  3  0  0  0  0
 17  7  1  0  0  0  0
 18  6  1  0  0  0  0
 19 15  2  0  0  0  0
 19 14  1  0  0  0  0
 20 18  1  6  0  0  0
 20  1  1  0  0  0  0
 20 23  1  0  0  0  0
 21  2  1  0  0  0  0
 21  5  2  0  0  0  0
 23 17  1  0  0  0  0
 25 20  1  0  0  0  0
 26 14  2  0  0  0  0
 27 28  2  0  0  0  0
 28  9  1  0  0  0  0
 28 30  1  0  0  0  0
 29 35  2  0  0  0  0
 30 29  1  0  0  0  0
 31 30  2  0  0  0  0
 31 34  1  0  0  0  0
 32 34  2  0  0  0  0
 33 35  1  0  0  0  0
 34 33  1  0  0  0  0
 36 37  1  0  0  0  0
M  END
>  <MODEL>
6

>  <REMARK>
 VINA RESULT:      -4.1      2.976      7.812
  Name = 
  3 active torsions:
  status: ('A' for Active; 'I' for Inactive)
    1  A    between atoms: C_5  and  C_23
    2  A    between atoms: C_6  and  C_31
    3  A    between atoms: C_14  and  C_31
                            x       y       z     vdW  Elec       q    Type
                         _______ _______ _______ _____ _____    ______ ____

>  <TORSDO>
F 3

$$$$
=
 OpenBabel10262422523D

 37 42  0  0  1  0  0  0  0  0999 V2000
  188.9600  177.6040  138.6750 C   0  0  1  0  0  0  0  0  0  0  0  0
  188.6020  174.5030  136.0430 C   0  0  0  0  0  0  0  0  0  0  0  0
  185.4900  176.0360  137.2340 C   0  0  0  0  0  0  0  0  0  0  0  0
  189.7570  177.5020  139.9830 C   0  0  1  0  0  3  0  0  0  0  0  0
  186.3960  173.4270  136.8540 C   0  0  0  0  0  3  0  0  0  0  0  0
  185.3570  177.3280  137.7630 C   0  0  0  0  0  0  0  0  0  0  0  0
  187.9300  177.3790  141.5780 C   0  0  0  0  0  0  0  0  0  0  0  0
  186.5260  175.7750  136.3610 C   0  0  0  0  0  3  0  0  0  0  0  0
  184.2360  177.6050  138.5910 C   0  0  0  0  0  0  0  0  0  0  0  0
  184.5210  172.6050  138.0820 F   0  0  0  0  0  0  0  0  0  0  0  0
  189.0150  176.7740  140.9500 O   0  0  0  0  0  0  0  0  0  0  0  0
  189.1370  176.5290  137.6790 C   0  0  0  0  0  0  0  0  0  0  0  0
  188.9230  174.8200  134.5940 C   0  0  0  0  0  1  0  0  0  0  0  0
  183.7380  175.2380  138.6290 N   0  0  0  0  0  0  0  0  0  0  0  0
  185.1810  173.6520  137.5270 C   0  0  0  0  0  0  0  0  0  0  0  0
  189.1090  175.5890  136.9170 C   0  0  0  0  0  0  0  0  0  0  0  0
  187.6580  178.8260  141.3360 C   0  0  0  0  0  2  0  0  0  0  0  0
  186.5200  178.2990  137.5690 C   0  0  0  0  0  2  0  0  0  0  0  0
  184.7590  174.9710  137.7760 C   0  0  0  0  0  0  0  0  0  0  0  0
  187.5540  178.3040  138.7260 C   0  0  1  0  0  0  0  0  0  0  0  0
  187.0890  174.5020  136.2600 C   0  0  0  0  0  0  0  0  0  0  0  0
  189.2610  173.1880  136.4280 C   0  0  0  0  0  1  0  0  0  0  0  0
  187.0530  179.0950  139.9570 C   0  0  0  0  0  2  0  0  0  0  0  0
  187.1910  176.7160  142.3510 O   0  0  0  0  0  0  0  0  0  0  0  0
  188.7960  179.0050  138.1560 C   0  0  0  0  0  2  0  0  0  0  0  0
  183.4460  176.5130  139.0070 C   0  0  0  0  0  3  0  0  0  0  0  0
  184.5420  179.5520  139.9330 O   0  0  0  0  0  0  0  0  0  0  0  0
  183.8760  178.9930  139.0170 C   0  0  0  0  0  0  0  0  0  0  0  0
  182.5620  181.2030  138.7190 C   0  0  0  0  0  3  0  0  0  0  0  0
  182.7810  179.7770  138.3880 C   0  0  0  0  0  0  0  0  0  0  0  0
  181.9380  179.1550  137.5530 C   0  0  0  0  0  3  0  0  0  0  0  0
  180.0470  179.2590  136.1440 O   0  0  0  0  0  0  0  0  0  0  0  0
  180.5590  181.3230  137.2360 C   0  0  0  0  0  2  0  0  0  0  0  0
  180.8140  179.8720  136.9330 C   0  0  0  0  0  0  0  0  0  0  0  0
  181.5550  181.9100  138.1970 C   0  0  0  0  0  3  0  0  0  0  0  0
  192.0880  177.6930  140.5050 F   0  0  0  0  0  0  0  0  0  0  0  0
  191.1610  176.9260  139.8210 C   0  0  0  0  0  2  0  0  0  0  0  0
  1 12  1  6  0  0  0
  1 20  1  0  0  0  0
  1  4  1  0  0  0  0
  2 21  1  0  0  0  0
  2 22  1  0  0  0  0
  2 16  1  0  0  0  0
  3  6  1  0  0  0  0
  3 19  1  0  0  0  0
  4 37  1  6  0  0  0
  4 11  1  0  0  0  0
  5 15  1  0  0  0  0
  6  9  2  0  0  0  0
  7 24  2  0  0  0  0
  8  3  2  0  0  0  0
  9 26  1  0  0  0  0
  9 28  1  0  0  0  0
 11  7  1  0  0  0  0
 13  2  1  0  0  0  0
 14 26  2  0  0  0  0
 15 19  2  0  0  0  0
 15 10  1  0  0  0  0
 16 12  3  0  0  0  0
 17  7  1  0  0  0  0
 18  6  1  0  0  0  0
 19 14  1  0  0  0  0
 20 18  1  6  0  0  0
 20 23  1  0  0  0  0
 21  8  1  0  0  0  0
 21  5  2  0  0  0  0
 23 17  1  0  0  0  0
 25  1  1  0  0  0  0
 25 20  1  0  0  0  0
 28 27  2  0  0  0  0
 30 29  1  0  0  0  0
 30 28  1  0  0  0  0
 31 30  2  0  0  0  0
 32 34  2  0  0  0  0
 33 35  1  0  0  0  0
 34 33  1  0  0  0  0
 34 31  1  0  0  0  0
 35 29  2  0  0  0  0
 37 36  1  0  0  0  0
M  END
>  <MODEL>
7

>  <REMARK>
 VINA RESULT:      -4.0      2.813      7.802
  Name = 
  3 active torsions:
  status: ('A' for Active; 'I' for Inactive)
    1  A    between atoms: C_5  and  C_23
    2  A    between atoms: C_6  and  C_31
    3  A    between atoms: C_14  and  C_31
                            x       y       z     vdW  Elec       q    Type
                         _______ _______ _______ _____ _____    ______ ____

>  <TORSDO>
F 3

$$$$
=
 OpenBabel10262422523D

 37 42  0  0  1  0  0  0  0  0999 V2000
  189.0750  177.6140  138.6420 C   0  0  1  0  0  0  0  0  0  0  0  0
  188.9680  174.4690  136.0410 C   0  0  0  0  0  0  0  0  0  0  0  0
  185.7440  175.8830  137.0690 C   0  0  0  0  0  0  0  0  0  0  0  0
  189.8160  177.5630  139.9860 C   0  0  1  0  0  3  0  0  0  0  0  0
  186.7750  173.3090  136.7670 C   0  0  0  0  0  3  0  0  0  0  0  0
  185.5320  177.1740  137.5730 C   0  0  0  0  0  0  0  0  0  0  0  0
  187.9250  177.3820  141.4980 C   0  0  0  0  0  0  0  0  0  0  0  0
  186.8280  175.6550  136.2470 C   0  0  0  0  0  3  0  0  0  0  0  0
  184.3640  177.4130  138.3450 C   0  0  0  0  0  0  0  0  0  0  0  0
  184.8810  172.4240  137.9220 F   0  0  0  0  0  0  0  0  0  0  0  0
  189.0620  176.8150  140.9290 O   0  0  0  0  0  0  0  0  0  0  0  0
  189.3430  176.5360  137.6700 C   0  0  0  0  0  0  0  0  0  0  0  0
  189.3410  174.7810  134.6030 C   0  0  0  0  0  1  0  0  0  0  0  0
  183.9650  175.0270  138.3950 N   0  0  0  0  0  0  0  0  0  0  0  0
  185.5220  173.4910  137.3820 C   0  0  0  0  0  0  0  0  0  0  0  0
  189.3890  175.5860  136.9210 C   0  0  0  0  0  0  0  0  0  0  0  0
  187.6040  178.8130  141.2240 C   0  0  0  0  0  2  0  0  0  0  0  0
  186.6610  178.1910  137.4170 C   0  0  0  0  0  2  0  0  0  0  0  0
  185.0340  174.7940  137.5930 C   0  0  0  0  0  0  0  0  0  0  0  0
  187.6410  178.2550  138.6190 C   0  0  1  0  0  0  0  0  0  0  0  0
  187.4480  174.4060  136.1900 C   0  0  0  0  0  0  0  0  0  0  0  0
  189.6640  173.1880  136.4740 C   0  0  0  0  0  1  0  0  0  0  0  0
  187.0510  179.0390  139.8160 C   0  0  0  0  0  2  0  0  0  0  0  0
  187.1800  176.6970  142.2470 O   0  0  0  0  0  0  0  0  0  0  0  0
  188.8770  179.0010  138.0960 C   0  0  0  0  0  2  0  0  0  0  0  0
  183.6030  176.2930  138.7410 C   0  0  0  0  0  3  0  0  0  0  0  0
  184.6360  179.4610  139.5370 O   0  0  0  0  0  0  0  0  0  0  0  0
  183.9270  178.7900  138.7360 C   0  0  0  0  0  0  0  0  0  0  0  0
  181.9600  178.8540  137.0550 C   0  0  0  0  0  3  0  0  0  0  0  0
  182.7020  179.4350  138.1960 C   0  0  0  0  0  0  0  0  0  0  0  0
  182.3030  180.6020  138.7180 C   0  0  0  0  0  3  0  0  0  0  0  0
  180.7660  182.3950  138.7180 O   0  0  0  0  0  0  0  0  0  0  0  0
  180.3340  180.7460  137.0430 C   0  0  0  0  0  2  0  0  0  0  0  0
  181.1200  181.3050  138.1970 C   0  0  0  0  0  0  0  0  0  0  0  0
  180.8840  179.4440  136.5280 C   0  0  0  0  0  3  0  0  0  0  0  0
  192.0180  177.5460  140.9300 F   0  0  0  0  0  0  0  0  0  0  0  0
  191.2490  177.0450  139.8950 C   0  0  0  0  0  2  0  0  0  0  0  0
  1 12  1  6  0  0  0
  1  4  1  0  0  0  0
  2 21  1  0  0  0  0
  2 22  1  0  0  0  0
  2 16  1  0  0  0  0
  3  6  1  0  0  0  0
  3 19  1  0  0  0  0
  4 37  1  6  0  0  0
  4 11  1  0  0  0  0
  5 15  1  0  0  0  0
  6  9  2  0  0  0  0
  7 24  2  0  0  0  0
  8  3  2  0  0  0  0
  9 28  1  0  0  0  0
  9 26  1  0  0  0  0
 11  7  1  0  0  0  0
 13  2  1  0  0  0  0
 14 26  2  0  0  0  0
 15 19  2  0  0  0  0
 15 10  1  0  0  0  0
 16 12  3  0  0  0  0
 17  7  1  0  0  0  0
 18  6  1  0  0  0  0
 19 14  1  0  0  0  0
 20 18  1  6  0  0  0
 20  1  1  0  0  0  0
 20 23  1  0  0  0  0
 21  8  1  0  0  0  0
 21  5  2  0  0  0  0
 23 17  1  0  0  0  0
 25 20  1  0  0  0  0
 25  1  1  0  0  0  0
 28 27  2  0  0  0  0
 29 30  1  0  0  0  0
 30 31  2  0  0  0  0
 30 28  1  0  0  0  0
 33 34  1  0  0  0  0
 34 32  2  0  0  0  0
 34 31  1  0  0  0  0
 35 33  1  0  0  0  0
 35 29  2  0  0  0  0
 37 36  1  0  0  0  0
M  END
>  <MODEL>
8

>  <REMARK>
 VINA RESULT:      -3.9      2.929      7.814
  Name = 
  3 active torsions:
  status: ('A' for Active; 'I' for Inactive)
    1  A    between atoms: C_5  and  C_23
    2  A    between atoms: C_6  and  C_31
    3  A    between atoms: C_14  and  C_31
                            x       y       z     vdW  Elec       q    Type
                         _______ _______ _______ _____ _____    ______ ____

>  <TORSDO>
F 3

$$$$
=
 OpenBabel10262422523D

 37 42  0  0  1  0  0  0  0  0999 V2000
  183.0780  177.7360  140.7060 C   0  0  1  0  0  0  0  0  0  0  0  0
  179.8990  179.4380  142.6210 C   0  0  0  0  0  0  0  0  0  0  0  0
  179.7750  179.3490  138.9570 C   0  0  0  0  0  0  0  0  0  0  0  0
  184.5290  178.1780  140.9410 C   0  0  1  0  0  3  0  0  0  0  0  0
  179.2160  181.2550  140.9140 C   0  0  0  0  0  3  0  0  0  0  0  0
  180.4890  178.4720  138.1280 C   0  0  0  0  0  0  0  0  0  0  0  0
  184.9330  179.3960  138.8790 C   0  0  0  0  0  0  0  0  0  0  0  0
  179.4850  178.9620  140.2480 C   0  0  0  0  0  3  0  0  0  0  0  0
  180.7040  178.8480  136.7750 C   0  0  0  0  0  0  0  0  0  0  0  0
  179.1090  182.9430  139.2290 F   0  0  0  0  0  0  0  0  0  0  0  0
  184.7810  179.4000  140.2630 O   0  0  0  0  0  0  0  0  0  0  0  0
  182.0530  178.2180  141.6530 C   0  0  0  0  0  0  0  0  0  0  0  0
  178.9310  178.4770  143.2880 C   0  0  0  0  0  1  0  0  0  0  0  0
  179.8730  181.0570  137.3050 N   0  0  0  0  0  0  0  0  0  0  0  0
  179.2430  181.6340  139.5590 C   0  0  0  0  0  0  0  0  0  0  0  0
  181.1580  178.7290  142.2880 C   0  0  0  0  0  0  0  0  0  0  0  0
  184.9800  178.0940  138.1520 C   0  0  0  0  0  2  0  0  0  0  0  0
  181.1490  177.2590  138.7800 C   0  0  0  0  0  2  0  0  0  0  0  0
  179.5910  180.6860  138.5790 C   0  0  0  0  0  0  0  0  0  0  0  0
  182.6180  177.4850  139.2250 C   0  0  1  0  0  0  0  0  0  0  0  0
  179.3420  179.8970  141.2740 C   0  0  0  0  0  0  0  0  0  0  0  0
  180.1960  180.5900  143.5680 C   0  0  0  0  0  1  0  0  0  0  0  0
  183.6060  177.4290  138.0350 C   0  0  0  0  0  2  0  0  0  0  0  0
  185.0440  180.4790  138.2480 O   0  0  0  0  0  0  0  0  0  0  0  0
  182.9330  176.3330  140.1880 C   0  0  0  0  0  2  0  0  0  0  0  0
  180.3790  180.1700  136.4050 C   0  0  0  0  0  3  0  0  0  0  0  0
  182.1580  178.2860  134.9690 O   0  0  0  0  0  0  0  0  0  0  0  0
  181.2470  177.8980  135.7540 C   0  0  0  0  0  0  0  0  0  0  0  0
  179.3550  176.1340  135.6850 C   0  0  0  0  0  3  0  0  0  0  0  0
  180.7910  176.4890  135.6340 C   0  0  0  0  0  0  0  0  0  0  0  0
  181.7100  175.5180  135.5420 C   0  0  0  0  0  3  0  0  0  0  0  0
  182.2050  173.2170  135.3620 O   0  0  0  0  0  0  0  0  0  0  0  0
  179.8680  173.6990  135.5010 C   0  0  0  0  0  2  0  0  0  0  0  0
  181.3160  174.1030  135.4590 C   0  0  0  0  0  0  0  0  0  0  0  0
  178.9310  174.8690  135.6240 C   0  0  0  0  0  3  0  0  0  0  0  0
  185.0720  179.5950  142.7950 F   0  0  0  0  0  0  0  0  0  0  0  0
  184.9280  178.2730  142.4110 C   0  0  0  0  0  2  0  0  0  0  0  0
  1 25  1  1  0  0  0
  1  4  1  0  0  0  0
  1 12  1  0  0  0  0
  2 13  1  0  0  0  0
  2 22  1  0  0  0  0
  3  8  1  0  0  0  0
  4 37  1  1  0  0  0
  5 21  1  0  0  0  0
  6 18  1  0  0  0  0
  6  3  2  0  0  0  0
  7 11  1  0  0  0  0
  8 21  2  0  0  0  0
  9  6  1  0  0  0  0
 10 15  1  0  0  0  0
 11  4  1  0  0  0  0
 12 16  3  0  0  0  0
 14 19  2  0  0  0  0
 15  5  2  0  0  0  0
 16  2  1  0  0  0  0
 17  7  1  0  0  0  0
 18 20  1  0  0  0  0
 19  3  1  0  0  0  0
 19 15  1  0  0  0  0
 20 23  1  6  0  0  0
 20 25  1  0  0  0  0
 20  1  1  0  0  0  0
 21  2  1  0  0  0  0
 23 17  1  0  0  0  0
 24  7  2  0  0  0  0
 26  9  2  0  0  0  0
 26 14  1  0  0  0  0
 27 28  2  0  0  0  0
 28  9  1  0  0  0  0
 30 29  1  0  0  0  0
 30 28  1  0  0  0  0
 31 30  2  0  0  0  0
 32 34  2  0  0  0  0
 33 35  1  0  0  0  0
 34 33  1  0  0  0  0
 34 31  1  0  0  0  0
 35 29  2  0  0  0  0
 37 36  1  0  0  0  0
M  END
>  <MODEL>
9

>  <REMARK>
 VINA RESULT:      -3.8      4.664      7.728
  Name = 
  3 active torsions:
  status: ('A' for Active; 'I' for Inactive)
    1  A    between atoms: C_5  and  C_23
    2  A    between atoms: C_6  and  C_31
    3  A    between atoms: C_14  and  C_31
                            x       y       z     vdW  Elec       q    Type
                         _______ _______ _______ _____ _____    ______ ____

>  <TORSDO>
F 3

$$$$
