=
 OpenBabel10262422373D

 43 48  0  0  1  0  0  0  0  0999 V2000
  191.3790  176.5180  146.8100 C   0  0  0  0  0  0  0  0  0  0  0  0
  187.0710  177.8830  144.3930 C   0  0  0  0  0  0  0  0  0  0  0  0
  187.8450  178.1480  141.6340 C   0  0  0  0  0  0  0  0  0  0  0  0
  188.9980  177.1500  146.2740 C   0  0  0  0  0  0  0  0  0  0  0  0
  191.6890  176.6350  145.3790 C   0  0  0  0  0  3  0  0  0  0  0  0
  192.2930  176.1950  147.6130 O   0  0  0  0  0  0  0  0  0  0  0  0
  189.3610  177.2410  144.9150 C   0  0  0  0  0  0  0  0  0  0  0  0
  189.9960  176.7800  147.3390 C   0  0  0  0  0  2  0  0  0  0  0  0
  190.7510  176.9700  144.4990 C   0  0  0  0  0  3  0  0  0  0  0  0
  188.7020  177.6440  142.5300 C   0  0  0  0  0  3  0  0  0  0  0  0
  188.3820  177.5950  143.9690 C   0  0  0  0  0  0  0  0  0  0  0  0
  186.7540  177.7360  145.7480 C   0  0  0  0  0  3  0  0  0  0  0  0
  185.9980  178.1840  143.3640 C   0  0  2  0  0  3  0  0  0  0  0  0
  186.5720  178.8090  142.0830 C   0  0  0  0  0  2  0  0  0  0  0  0
  187.7120  177.3880  146.6470 N   0  0  0  0  0  0  0  0  0  0  0  0
  188.2100  178.2170  140.1800 C   0  0  2  0  0  3  0  0  0  0  0  0
  186.9600  178.1340  139.3240 C   0  0  0  0  0  1  0  0  0  0  0  0
  189.1150  177.1330  139.8180 N   0  0  0  0  0  2  0  0  0  0  0  0
  190.0180  177.2080  138.7130 C   0  0  0  0  0  0  0  0  0  0  0  0
  189.9140  178.1260  137.8580 O   0  0  0  0  0  0  0  0  0  0  0  0
  191.1460  176.2420  138.6300 C   0  0  0  0  0  2  0  0  0  0  0  0
  191.0450  175.4740  137.3230 C   0  0  2  0  0  3  0  0  0  0  0  0
  191.4920  173.2420  136.6290 O   0  0  0  0  0  0  0  0  0  0  0  0
  189.7470  174.7500  137.2340 C   0  0  0  0  0  2  0  0  0  0  0  0
  192.0560  174.3600  137.2730 C   0  0  1  0  0  3  0  0  0  0  0  0
  190.1150  173.4960  136.4810 C   0  0  0  0  0  2  0  0  0  0  0  0
  194.5970  174.4520  137.0430 N   0  0  0  0  0  0  0  0  0  0  0  0
  193.2940  174.8140  136.5580 C   0  0  0  0  0  0  0  0  0  0  0  0
  197.0450  173.0370  137.2270 C   0  0  0  0  0  2  0  0  0  0  0  0
  195.8060  172.5140  137.9690 C   0  0  0  0  0  2  0  0  0  0  0  0
  197.0660  174.5570  137.1020 C   0  0  0  0  0  2  0  0  0  0  0  0
  194.7350  173.5820  138.2120 C   0  0  0  0  0  2  0  0  0  0  0  0
  195.7890  175.0350  136.4170 C   0  0  0  0  0  2  0  0  0  0  0  0
  193.1840  175.5540  135.5420 O   0  0  0  0  0  0  0  0  0  0  0  0
  184.8260  179.0210  143.9050 C   0  0  0  0  0  2  0  0  0  0  0  0
  182.4200  178.3590  141.0440 C   0  0  0  0  0  3  0  0  0  0  0  0
  181.1790  178.5090  141.6740 C   0  0  0  0  0  0  0  0  0  0  0  0
  182.3150  178.9890  143.7650 C   0  0  0  0  0  3  0  0  0  0  0  0
  183.6030  178.5230  141.7700 C   0  0  0  0  0  3  0  0  0  0  0  0
  183.5540  178.8400  143.1320 C   0  0  0  0  0  0  0  0  0  0  0  0
  181.1310  178.8230  143.0400 C   0  0  0  0  0  3  0  0  0  0  0  0
  179.2680  177.0680  140.8360 C   0  0  0  0  0  1  0  0  0  0  0  0
  179.9840  178.3320  140.9100 N   0  0  0  0  0  2  0  0  0  0  0  0
  1  8  1  0  0  0  0
  1  6  2  0  0  0  0
  2 12  1  0  0  0  0
  3 14  1  0  0  0  0
  3 10  2  0  0  0  0
  4 15  1  0  0  0  0
  4  8  1  0  0  0  0
  5  1  1  0  0  0  0
  7  4  2  0  0  0  0
  9  7  1  0  0  0  0
  9  5  2  0  0  0  0
 10 11  1  0  0  0  0
 11  2  2  0  0  0  0
 11  7  1  0  0  0  0
 12 15  2  0  0  0  0
 13 35  1  1  0  0  0
 13  2  1  0  0  0  0
 14 13  1  0  0  0  0
 16 17  1  6  0  0  0
 16  3  1  0  0  0  0
 18 16  1  0  0  0  0
 19 18  1  0  0  0  0
 20 19  2  0  0  0  0
 21 19  1  0  0  0  0
 22 21  1  1  0  0  0
 23 25  1  0  0  0  0
 24 22  1  0  0  0  0
 25 28  1  6  0  0  0
 25 22  1  0  0  0  0
 26 23  1  0  0  0  0
 26 24  1  0  0  0  0
 27 32  1  0  0  0  0
 28 27  1  0  0  0  0
 29 30  1  0  0  0  0
 30 32  1  0  0  0  0
 31 29  1  0  0  0  0
 33 27  1  0  0  0  0
 33 31  1  0  0  0  0
 34 28  2  0  0  0  0
 36 37  2  0  0  0  0
 36 39  1  0  0  0  0
 37 41  1  0  0  0  0
 39 40  2  0  0  0  0
 40 38  1  0  0  0  0
 40 35  1  0  0  0  0
 41 38  2  0  0  0  0
 42 43  1  0  0  0  0
 43 37  1  0  0  0  0
M  END
>  <MODEL>
1

>  <REMARK>
 VINA RESULT:     -10.7      0.000      0.000
  Name = 
  8 active torsions:
  status: ('A' for Active; 'I' for Inactive)
    1  A    between atoms: C_1  and  C_34
    2  A    between atoms: C_1  and  C_35
    3  A    between atoms: C_2  and  N_6
    4  A    between atoms: C_2  and  C_13
    5  A    between atoms: C_3  and  C_4
    6  A    between atoms: C_3  and  C_12
    7  A    between atoms: C_14  and  C_22
    8  A    between atoms: C_19  and  N_37
                            x       y       z     vdW  Elec       q    Type
                         _______ _______ _______ _____ _____    ______ ____

>  <TORSDO>
F 8

$$$$
=
 OpenBabel10262422373D

 43 48  0  0  1  0  0  0  0  0999 V2000
  181.0310  178.9370  141.7690 C   0  0  0  0  0  0  0  0  0  0  0  0
  185.2450  178.5220  144.6560 C   0  0  0  0  0  0  0  0  0  0  0  0
  187.3290  177.8340  142.7950 C   0  0  0  0  0  0  0  0  0  0  0  0
  182.6490  178.8940  143.7030 C   0  0  0  0  0  0  0  0  0  0  0  0
  182.1530  178.6230  140.8750 C   0  0  0  0  0  3  0  0  0  0  0  0
  179.8790  179.0820  141.2830 O   0  0  0  0  0  0  0  0  0  0  0  0
  183.6820  178.5980  142.7910 C   0  0  0  0  0  0  0  0  0  0  0  0
  181.2240  179.0840  143.2530 C   0  0  0  0  0  2  0  0  0  0  0  0
  183.3860  178.4660  141.3500 C   0  0  0  0  0  3  0  0  0  0  0  0
  186.1130  178.1760  142.3510 C   0  0  0  0  0  3  0  0  0  0  0  0
  184.9910  178.4270  143.2750 C   0  0  0  0  0  0  0  0  0  0  0  0
  184.1910  178.8600  145.5120 C   0  0  0  0  0  3  0  0  0  0  0  0
  186.6690  178.4190  145.1670 C   0  0  2  0  0  3  0  0  0  0  0  0
  187.5610  177.5620  144.2540 C   0  0  0  0  0  2  0  0  0  0  0  0
  182.9330  179.0250  145.0260 N   0  0  0  0  0  0  0  0  0  0  0  0
  188.4450  177.5510  141.8310 C   0  0  2  0  0  3  0  0  0  0  0  0
  189.7720  177.9780  142.4300 C   0  0  0  0  0  1  0  0  0  0  0  0
  188.2360  178.2530  140.5710 N   0  0  0  0  0  2  0  0  0  0  0  0
  188.4880  177.6590  139.2970 C   0  0  0  0  0  0  0  0  0  0  0  0
  189.1240  176.5750  139.2060 O   0  0  0  0  0  0  0  0  0  0  0  0
  187.9130  178.2850  138.0770 C   0  0  0  0  0  2  0  0  0  0  0  0
  188.0630  177.3250  136.9090 C   0  0  2  0  0  3  0  0  0  0  0  0
  187.1010  177.1270  134.7410 O   0  0  0  0  0  0  0  0  0  0  0  0
  189.0460  177.8450  135.9190 C   0  0  0  0  0  2  0  0  0  0  0  0
  186.7890  177.2450  136.1090 C   0  0  1  0  0  3  0  0  0  0  0  0
  188.4820  177.3660  134.6050 C   0  0  0  0  0  2  0  0  0  0  0  0
  184.7420  176.2880  137.2950 N   0  0  0  0  0  0  0  0  0  0  0  0
  185.9620  176.0800  136.5670 C   0  0  0  0  0  0  0  0  0  0  0  0
  181.9570  176.5160  137.7690 C   0  0  0  0  0  2  0  0  0  0  0  0
  182.7500  177.7400  137.2860 C   0  0  0  0  0  2  0  0  0  0  0  0
  182.7890  175.5710  138.6310 C   0  0  0  0  0  2  0  0  0  0  0  0
  184.2550  177.6450  137.5510 C   0  0  0  0  0  2  0  0  0  0  0  0
  184.0330  175.1350  137.8630 C   0  0  0  0  0  2  0  0  0  0  0  0
  186.3670  174.9070  136.3400 O   0  0  0  0  0  0  0  0  0  0  0  0
  186.7800  177.9600  146.6310 C   0  0  0  0  0  2  0  0  0  0  0  0
  190.0180  178.1100  148.6080 C   0  0  0  0  0  3  0  0  0  0  0  0
  190.8280  177.2180  147.8970 C   0  0  0  0  0  0  0  0  0  0  0  0
  188.9970  176.8030  146.3580 C   0  0  0  0  0  3  0  0  0  0  0  0
  188.7020  178.3480  148.1980 C   0  0  0  0  0  3  0  0  0  0  0  0
  188.1900  177.6970  147.0710 C   0  0  0  0  0  0  0  0  0  0  0  0
  190.3120  176.5640  146.7690 C   0  0  0  0  0  3  0  0  0  0  0  0
  192.8760  175.7390  148.1130 C   0  0  0  0  0  1  0  0  0  0  0  0
  192.1680  176.9900  148.3390 N   0  0  0  0  0  2  0  0  0  0  0  0
  1  8  1  0  0  0  0
  2 13  1  0  0  0  0
  2 12  1  0  0  0  0
  3 14  1  0  0  0  0
  4 15  1  0  0  0  0
  5  9  2  0  0  0  0
  5  1  1  0  0  0  0
  6  1  2  0  0  0  0
  7 11  1  0  0  0  0
  7  4  2  0  0  0  0
  8  4  1  0  0  0  0
  9  7  1  0  0  0  0
 10  3  2  0  0  0  0
 10 11  1  0  0  0  0
 11  2  2  0  0  0  0
 13 35  1  1  0  0  0
 14 13  1  0  0  0  0
 15 12  2  0  0  0  0
 16 17  1  1  0  0  0
 16  3  1  0  0  0  0
 18 16  1  0  0  0  0
 19 18  1  0  0  0  0
 20 19  2  0  0  0  0
 21 19  1  0  0  0  0
 22 21  1  1  0  0  0
 23 25  1  0  0  0  0
 24 22  1  0  0  0  0
 25 28  1  1  0  0  0
 25 22  1  0  0  0  0
 26 23  1  0  0  0  0
 26 24  1  0  0  0  0
 27 32  1  0  0  0  0
 27 33  1  0  0  0  0
 28 27  1  0  0  0  0
 29 31  1  0  0  0  0
 30 32  1  0  0  0  0
 30 29  1  0  0  0  0
 33 31  1  0  0  0  0
 34 28  2  0  0  0  0
 35 40  1  0  0  0  0
 37 43  1  0  0  0  0
 37 36  2  0  0  0  0
 38 41  2  0  0  0  0
 38 40  1  0  0  0  0
 39 36  1  0  0  0  0
 40 39  2  0  0  0  0
 41 37  1  0  0  0  0
 42 43  1  0  0  0  0
M  END
>  <MODEL>
2

>  <REMARK>
 VINA RESULT:     -10.7      4.167      8.403
  Name = 
  8 active torsions:
  status: ('A' for Active; 'I' for Inactive)
    1  A    between atoms: C_1  and  C_34
    2  A    between atoms: C_1  and  C_35
    3  A    between atoms: C_2  and  N_6
    4  A    between atoms: C_2  and  C_13
    5  A    between atoms: C_3  and  C_4
    6  A    between atoms: C_3  and  C_12
    7  A    between atoms: C_14  and  C_22
    8  A    between atoms: C_19  and  N_37
                            x       y       z     vdW  Elec       q    Type
                         _______ _______ _______ _____ _____    ______ ____

>  <TORSDO>
F 8

$$$$
=
 OpenBabel10262422373D

 43 48  0  0  1  0  0  0  0  0999 V2000
  184.6640  178.9720  145.2360 C   0  0  0  0  0  0  0  0  0  0  0  0
  182.1630  178.5490  140.7830 C   0  0  0  0  0  0  0  0  0  0  0  0
  184.2400  178.2390  138.8150 C   0  0  0  0  0  0  0  0  0  0  0  0
  182.8730  178.8400  143.4660 C   0  0  0  0  0  0  0  0  0  0  0  0
  185.6650  178.7690  144.1800 C   0  0  0  0  0  3  0  0  0  0  0  0
  185.0460  179.1090  146.4270 O   0  0  0  0  0  0  0  0  0  0  0  0
  183.8840  178.6450  142.5020 C   0  0  0  0  0  0  0  0  0  0  0  0
  183.1940  179.0240  144.9250 C   0  0  0  0  0  2  0  0  0  0  0  0
  185.3020  178.6170  142.9100 C   0  0  0  0  0  3  0  0  0  0  0  0
  184.5370  178.2180  140.1200 C   0  0  0  0  0  3  0  0  0  0  0  0
  183.5190  178.4840  141.1530 C   0  0  0  0  0  0  0  0  0  0  0  0
  181.1980  178.7010  141.7850 C   0  0  0  0  0  3  0  0  0  0  0  0
  181.7640  178.2930  139.3420 C   0  0  2  0  0  3  0  0  0  0  0  0
  182.8770  178.6670  138.3500 C   0  0  0  0  0  2  0  0  0  0  0  0
  181.5690  178.8510  143.0830 N   0  0  0  0  0  0  0  0  0  0  0  0
  185.3020  177.9980  137.7830 C   0  0  2  0  0  3  0  0  0  0  0  0
  185.1720  176.5980  137.2160 C   0  0  0  0  0  1  0  0  0  0  0  0
  186.6330  178.1650  138.3560 N   0  0  0  0  0  2  0  0  0  0  0  0
  187.7860  178.4710  137.5710 C   0  0  0  0  0  0  0  0  0  0  0  0
  187.7520  178.3840  136.3150 O   0  0  0  0  0  0  0  0  0  0  0  0
  189.0090  178.9820  138.2460 C   0  0  0  0  0  2  0  0  0  0  0  0
  190.0670  177.8930  138.2470 C   0  0  2  0  0  3  0  0  0  0  0  0
  190.1520  175.6100  138.9160 O   0  0  0  0  0  0  0  0  0  0  0  0
  189.9600  177.0500  137.0240 C   0  0  0  0  0  2  0  0  0  0  0  0
  189.8260  176.9070  139.3590 C   0  0  1  0  0  3  0  0  0  0  0  0
  190.3580  175.6840  137.5250 C   0  0  0  0  0  2  0  0  0  0  0  0
  190.0130  177.4490  141.8460 N   0  0  0  0  0  0  0  0  0  0  0  0
  190.6390  177.2750  140.5650 C   0  0  0  0  0  0  0  0  0  0  0  0
  189.1680  176.8240  144.4770 C   0  0  0  0  0  2  0  0  0  0  0  0
  188.3010  176.4080  143.2800 C   0  0  0  0  0  2  0  0  0  0  0  0
  189.9480  178.1110  144.2270 C   0  0  0  0  0  2  0  0  0  0  0  0
  188.5780  177.2130  142.0070 C   0  0  0  0  0  2  0  0  0  0  0  0
  190.8030  177.9590  142.9730 C   0  0  0  0  0  2  0  0  0  0  0  0
  191.8790  177.4690  140.4380 O   0  0  0  0  0  0  0  0  0  0  0  0
  180.4270  178.9350  138.9360 C   0  0  0  0  0  2  0  0  0  0  0  0
  181.1130  182.5360  137.9480 C   0  0  0  0  0  3  0  0  0  0  0  0
  180.8750  182.5040  136.5690 C   0  0  0  0  0  0  0  0  0  0  0  0
  180.3480  180.1400  136.7290 C   0  0  0  0  0  3  0  0  0  0  0  0
  180.9710  181.3760  138.7150 C   0  0  0  0  0  3  0  0  0  0  0  0
  180.5850  180.1760  138.1080 C   0  0  0  0  0  0  0  0  0  0  0  0
  180.4930  181.3000  135.9620 C   0  0  0  0  0  3  0  0  0  0  0  0
  180.9550  185.0320  136.3930 C   0  0  0  0  0  1  0  0  0  0  0  0
  181.0320  183.7030  135.8070 N   0  0  0  0  0  2  0  0  0  0  0  0
  1  6  2  0  0  0  0
  2 11  2  0  0  0  0
  2 12  1  0  0  0  0
  3 10  2  0  0  0  0
  4  8  1  0  0  0  0
  5  1  1  0  0  0  0
  7  9  1  0  0  0  0
  7  4  2  0  0  0  0
  8  1  1  0  0  0  0
  9  5  2  0  0  0  0
 10 11  1  0  0  0  0
 11  7  1  0  0  0  0
 12 15  2  0  0  0  0
 13 35  1  6  0  0  0
 13  2  1  0  0  0  0
 14  3  1  0  0  0  0
 14 13  1  0  0  0  0
 15  4  1  0  0  0  0
 16 17  1  1  0  0  0
 16 18  1  0  0  0  0
 16  3  1  0  0  0  0
 19 21  1  0  0  0  0
 19 18  1  0  0  0  0
 20 19  2  0  0  0  0
 22 21  1  6  0  0  0
 22 25  1  0  0  0  0
 23 25  1  0  0  0  0
 24 26  1  0  0  0  0
 24 22  1  0  0  0  0
 25 28  1  1  0  0  0
 26 23  1  0  0  0  0
 27 32  1  0  0  0  0
 27 33  1  0  0  0  0
 28 27  1  0  0  0  0
 30 29  1  0  0  0  0
 31 29  1  0  0  0  0
 32 30  1  0  0  0  0
 33 31  1  0  0  0  0
 34 28  2  0  0  0  0
 36 39  1  0  0  0  0
 37 36  2  0  0  0  0
 38 40  1  0  0  0  0
 40 39  2  0  0  0  0
 40 35  1  0  0  0  0
 41 37  1  0  0  0  0
 41 38  2  0  0  0  0
 43 42  1  0  0  0  0
 43 37  1  0  0  0  0
M  END
>  <MODEL>
3

>  <REMARK>
 VINA RESULT:     -10.5      3.327      6.371
  Name = 
  8 active torsions:
  status: ('A' for Active; 'I' for Inactive)
    1  A    between atoms: C_1  and  C_34
    2  A    between atoms: C_1  and  C_35
    3  A    between atoms: C_2  and  N_6
    4  A    between atoms: C_2  and  C_13
    5  A    between atoms: C_3  and  C_4
    6  A    between atoms: C_3  and  C_12
    7  A    between atoms: C_14  and  C_22
    8  A    between atoms: C_19  and  N_37
                            x       y       z     vdW  Elec       q    Type
                         _______ _______ _______ _____ _____    ______ ____

>  <TORSDO>
F 8

$$$$
=
 OpenBabel10262422373D

 43 48  0  0  1  0  0  0  0  0999 V2000
  191.3190  176.5180  146.5130 C   0  0  0  0  0  0  0  0  0  0  0  0
  186.9500  178.0110  144.2900 C   0  0  0  0  0  0  0  0  0  0  0  0
  187.5290  177.9890  141.4710 C   0  0  0  0  0  0  0  0  0  0  0  0
  188.9550  177.2870  146.0900 C   0  0  0  0  0  0  0  0  0  0  0  0
  191.5280  176.4930  145.0590 C   0  0  0  0  0  3  0  0  0  0  0  0
  192.2660  176.1920  147.2760 O   0  0  0  0  0  0  0  0  0  0  0  0
  189.2200  177.2380  144.7060 C   0  0  0  0  0  0  0  0  0  0  0  0
  190.0030  176.9290  147.1110 C   0  0  0  0  0  2  0  0  0  0  0  0
  190.5520  176.8270  144.2190 C   0  0  0  0  0  3  0  0  0  0  0  0
  188.4140  177.4940  142.3470 C   0  0  0  0  0  3  0  0  0  0  0  0
  188.2010  177.5890  143.8030 C   0  0  0  0  0  0  0  0  0  0  0  0
  186.7270  178.0000  145.6710 C   0  0  0  0  0  3  0  0  0  0  0  0
  185.8260  178.3100  143.3160 C   0  0  2  0  0  3  0  0  0  0  0  0
  186.3450  178.7810  141.9480 C   0  0  0  0  0  2  0  0  0  0  0  0
  187.7230  177.6540  146.5290 N   0  0  0  0  0  0  0  0  0  0  0  0
  187.7870  177.9090  139.9950 C   0  0  2  0  0  3  0  0  0  0  0  0
  188.8780  178.8870  139.6020 C   0  0  0  0  0  1  0  0  0  0  0  0
  186.5770  178.2080  139.2380 N   0  0  0  0  0  2  0  0  0  0  0  0
  186.4560  177.9670  137.8350 C   0  0  0  0  0  0  0  0  0  0  0  0
  187.4700  177.6990  137.1380 O   0  0  0  0  0  0  0  0  0  0  0  0
  185.1040  177.9460  137.2160 C   0  0  0  0  0  2  0  0  0  0  0  0
  184.0580  177.8370  138.3120 C   0  0  2  0  0  3  0  0  0  0  0  0
  181.6850  177.6640  138.3820 O   0  0  0  0  0  0  0  0  0  0  0  0
  183.7070  176.4130  138.5680 C   0  0  0  0  0  2  0  0  0  0  0  0
  182.7480  178.4330  137.8690 C   0  0  1  0  0  3  0  0  0  0  0  0
  182.2430  176.4880  138.9210 C   0  0  0  0  0  2  0  0  0  0  0  0
  181.5440  180.6830  137.9160 N   0  0  0  0  0  0  0  0  0  0  0  0
  182.6430  179.8560  138.3310 C   0  0  0  0  0  0  0  0  0  0  0  0
  179.0590  182.0380  138.0590 C   0  0  0  0  0  2  0  0  0  0  0  0
  179.1030  180.5750  137.5940 C   0  0  0  0  0  2  0  0  0  0  0  0
  180.3170  182.8180  137.6880 C   0  0  0  0  0  2  0  0  0  0  0  0
  180.4760  180.1300  137.0810 C   0  0  0  0  0  2  0  0  0  0  0  0
  181.5460  182.1110  138.2540 C   0  0  0  0  0  2  0  0  0  0  0  0
  183.5530  180.3380  139.0600 O   0  0  0  0  0  0  0  0  0  0  0  0
  184.7610  179.2760  143.8620 C   0  0  0  0  0  2  0  0  0  0  0  0
  181.7860  178.4210  141.6640 C   0  0  0  0  0  3  0  0  0  0  0  0
  180.7570  178.3120  142.6060 C   0  0  0  0  0  0  0  0  0  0  0  0
  182.3390  178.8270  144.3730 C   0  0  0  0  0  3  0  0  0  0  0  0
  183.0860  178.7310  142.0730 C   0  0  0  0  0  3  0  0  0  0  0  0
  183.3660  178.9370  143.4280 C   0  0  0  0  0  0  0  0  0  0  0  0
  181.0400  178.5150  143.9640 C   0  0  0  0  0  3  0  0  0  0  0  0
  179.0450  178.0020  140.7620 C   0  0  0  0  0  1  0  0  0  0  0  0
  179.4370  177.9890  142.1620 N   0  0  0  0  0  2  0  0  0  0  0  0
  1  8  1  0  0  0  0
  1  6  2  0  0  0  0
  2 12  1  0  0  0  0
  3 14  1  0  0  0  0
  3 10  2  0  0  0  0
  4 15  1  0  0  0  0
  4  8  1  0  0  0  0
  5  1  1  0  0  0  0
  7  4  2  0  0  0  0
  9  7  1  0  0  0  0
  9  5  2  0  0  0  0
 10 11  1  0  0  0  0
 11  2  2  0  0  0  0
 11  7  1  0  0  0  0
 12 15  2  0  0  0  0
 13 35  1  1  0  0  0
 13  2  1  0  0  0  0
 14 13  1  0  0  0  0
 16 17  1  6  0  0  0
 16  3  1  0  0  0  0
 18 16  1  0  0  0  0
 19 18  1  0  0  0  0
 20 19  2  0  0  0  0
 21 19  1  0  0  0  0
 22 21  1  6  0  0  0
 22 24  1  0  0  0  0
 23 26  1  0  0  0  0
 24 26  1  0  0  0  0
 25 22  1  0  0  0  0
 25 28  1  1  0  0  0
 25 23  1  0  0  0  0
 27 33  1  0  0  0  0
 27 28  1  0  0  0  0
 28 34  2  0  0  0  0
 30 29  1  0  0  0  0
 31 29  1  0  0  0  0
 31 33  1  0  0  0  0
 32 30  1  0  0  0  0
 32 27  1  0  0  0  0
 36 39  2  0  0  0  0
 36 37  1  0  0  0  0
 37 41  2  0  0  0  0
 39 40  1  0  0  0  0
 40 35  1  0  0  0  0
 40 38  2  0  0  0  0
 41 38  1  0  0  0  0
 42 43  1  0  0  0  0
 43 37  1  0  0  0  0
M  END
>  <MODEL>
4

>  <REMARK>
 VINA RESULT:     -10.4      4.251      7.717
  Name = 
  8 active torsions:
  status: ('A' for Active; 'I' for Inactive)
    1  A    between atoms: C_1  and  C_34
    2  A    between atoms: C_1  and  C_35
    3  A    between atoms: C_2  and  N_6
    4  A    between atoms: C_2  and  C_13
    5  A    between atoms: C_3  and  C_4
    6  A    between atoms: C_3  and  C_12
    7  A    between atoms: C_14  and  C_22
    8  A    between atoms: C_19  and  N_37
                            x       y       z     vdW  Elec       q    Type
                         _______ _______ _______ _____ _____    ______ ____

>  <TORSDO>
F 8

$$$$
=
 OpenBabel10262422373D

 43 48  0  0  1  0  0  0  0  0999 V2000
  190.7360  176.7930  146.5280 C   0  0  0  0  0  0  0  0  0  0  0  0
  189.6820  177.7010  141.5960 C   0  0  0  0  0  0  0  0  0  0  0  0
  186.9280  178.5360  141.5880 C   0  0  0  0  0  0  0  0  0  0  0  0
  190.8890  177.0400  144.0230 C   0  0  0  0  0  0  0  0  0  0  0  0
  189.3470  177.2650  146.4490 C   0  0  0  0  0  3  0  0  0  0  0  0
  191.2220  176.4980  147.6510 O   0  0  0  0  0  0  0  0  0  0  0  0
  189.5530  177.4900  144.0170 C   0  0  0  0  0  0  0  0  0  0  0  0
  191.5880  176.6490  145.2980 C   0  0  0  0  0  2  0  0  0  0  0  0
  188.7980  177.5900  145.2820 C   0  0  0  0  0  3  0  0  0  0  0  0
  187.5800  178.3690  142.7460 C   0  0  0  0  0  3  0  0  0  0  0  0
  188.9550  177.8370  142.7930 C   0  0  0  0  0  0  0  0  0  0  0  0
  191.0180  177.2910  141.6630 C   0  0  0  0  0  3  0  0  0  0  0  0
  189.0640  178.1520  140.2860 C   0  0  2  0  0  3  0  0  0  0  0  0
  187.5300  178.0590  140.2970 C   0  0  0  0  0  2  0  0  0  0  0  0
  191.5800  176.9640  142.8560 N   0  0  0  0  0  0  0  0  0  0  0  0
  185.5170  179.0480  141.5710 C   0  0  2  0  0  3  0  0  0  0  0  0
  184.8740  178.8520  142.9300 C   0  0  0  0  0  1  0  0  0  0  0  0
  184.7250  178.3590  140.5580 N   0  0  0  0  0  2  0  0  0  0  0  0
  184.3010  178.9820  139.3440 C   0  0  0  0  0  0  0  0  0  0  0  0
  184.3950  180.2290  139.1930 O   0  0  0  0  0  0  0  0  0  0  0  0
  183.8300  178.1330  138.2190 C   0  0  0  0  0  2  0  0  0  0  0  0
  182.3920  177.7160  138.4810 C   0  0  2  0  0  3  0  0  0  0  0  0
  181.3210  176.0870  139.8460 O   0  0  0  0  0  0  0  0  0  0  0  0
  181.8530  178.4060  139.6840 C   0  0  0  0  0  2  0  0  0  0  0  0
  182.3140  176.2610  138.8630 C   0  0  1  0  0  3  0  0  0  0  0  0
  180.9330  177.3690  140.2800 C   0  0  0  0  0  2  0  0  0  0  0  0
  183.0260  174.5780  137.0810 N   0  0  0  0  0  0  0  0  0  0  0  0
  182.0160  175.4230  137.6550 C   0  0  0  0  0  0  0  0  0  0  0  0
  184.4690  172.2080  136.5020 C   0  0  0  0  0  2  0  0  0  0  0  0
  184.8080  173.0180  137.7630 C   0  0  0  0  0  2  0  0  0  0  0  0
  183.9670  173.0790  135.3540 C   0  0  0  0  0  2  0  0  0  0  0  0
  184.3470  174.4770  137.7030 C   0  0  0  0  0  2  0  0  0  0  0  0
  182.7580  173.8890  135.8140 C   0  0  0  0  0  2  0  0  0  0  0  0
  180.8760  175.4940  137.1190 O   0  0  0  0  0  0  0  0  0  0  0  0
  189.6470  177.4580  139.0440 C   0  0  0  0  0  2  0  0  0  0  0  0
  187.5240  178.5660  136.0980 C   0  0  0  0  0  3  0  0  0  0  0  0
  186.9290  177.3620  135.7060 C   0  0  0  0  0  0  0  0  0  0  0  0
  188.1100  176.2140  137.4890 C   0  0  0  0  0  3  0  0  0  0  0  0
  188.4090  178.5960  137.1800 C   0  0  0  0  0  3  0  0  0  0  0  0
  188.7020  177.4210  137.8790 C   0  0  0  0  0  0  0  0  0  0  0  0
  187.2260  176.1840  136.4060 C   0  0  0  0  0  3  0  0  0  0  0  0
  184.6430  176.9360  134.6960 C   0  0  0  0  0  1  0  0  0  0  0  0
  186.0310  177.3580  134.5940 N   0  0  0  0  0  2  0  0  0  0  0  0
  1  6  2  0  0  0  0
  2 12  2  0  0  0  0
  2 11  1  0  0  0  0
  3 10  2  0  0  0  0
  4  8  1  0  0  0  0
  5  1  1  0  0  0  0
  7  4  1  0  0  0  0
  7  9  1  0  0  0  0
  8  1  1  0  0  0  0
  9  5  2  0  0  0  0
 10 11  1  0  0  0  0
 11  7  2  0  0  0  0
 12 15  1  0  0  0  0
 13 35  1  6  0  0  0
 13 14  1  0  0  0  0
 13  2  1  0  0  0  0
 14  3  1  0  0  0  0
 15  4  2  0  0  0  0
 16  3  1  0  0  0  0
 16 17  1  1  0  0  0
 18 16  1  0  0  0  0
 19 18  1  0  0  0  0
 20 19  2  0  0  0  0
 21 19  1  0  0  0  0
 22 21  1  1  0  0  0
 22 25  1  0  0  0  0
 22 24  1  0  0  0  0
 23 26  1  0  0  0  0
 24 26  1  0  0  0  0
 25 28  1  6  0  0  0
 25 23  1  0  0  0  0
 27 28  1  0  0  0  0
 27 32  1  0  0  0  0
 29 30  1  0  0  0  0
 31 33  1  0  0  0  0
 31 29  1  0  0  0  0
 32 30  1  0  0  0  0
 33 27  1  0  0  0  0
 34 28  2  0  0  0  0
 36 39  1  0  0  0  0
 37 36  2  0  0  0  0
 37 41  1  0  0  0  0
 38 40  1  0  0  0  0
 39 40  2  0  0  0  0
 40 35  1  0  0  0  0
 41 38  2  0  0  0  0
 43 42  1  0  0  0  0
 43 37  1  0  0  0  0
M  END
>  <MODEL>
5

>  <REMARK>
 VINA RESULT:     -10.0      4.273      7.706
  Name = 
  8 active torsions:
  status: ('A' for Active; 'I' for Inactive)
    1  A    between atoms: C_1  and  C_34
    2  A    between atoms: C_1  and  C_35
    3  A    between atoms: C_2  and  N_6
    4  A    between atoms: C_2  and  C_13
    5  A    between atoms: C_3  and  C_4
    6  A    between atoms: C_3  and  C_12
    7  A    between atoms: C_14  and  C_22
    8  A    between atoms: C_19  and  N_37
                            x       y       z     vdW  Elec       q    Type
                         _______ _______ _______ _____ _____    ______ ____

>  <TORSDO>
F 8

$$$$
=
 OpenBabel10262422373D

 43 48  0  0  1  0  0  0  0  0999 V2000
  190.8340  176.7400  146.6030 C   0  0  0  0  0  0  0  0  0  0  0  0
  189.7440  177.7770  141.7040 C   0  0  0  0  0  0  0  0  0  0  0  0
  186.9740  178.5560  141.7300 C   0  0  0  0  0  0  0  0  0  0  0  0
  190.9730  177.0670  144.1060 C   0  0  0  0  0  0  0  0  0  0  0  0
  189.4360  177.1860  146.5420 C   0  0  0  0  0  3  0  0  0  0  0  0
  191.3310  176.4210  147.7140 O   0  0  0  0  0  0  0  0  0  0  0  0
  189.6280  177.4900  144.1180 C   0  0  0  0  0  0  0  0  0  0  0  0
  191.6850  176.6500  145.3660 C   0  0  0  0  0  2  0  0  0  0  0  0
  188.8760  177.5350  145.3880 C   0  0  0  0  0  3  0  0  0  0  0  0
  187.6340  178.3670  142.8800 C   0  0  0  0  0  3  0  0  0  0  0  0
  189.0190  177.8610  142.9070 C   0  0  0  0  0  0  0  0  0  0  0  0
  191.0880  177.3920  141.7540 C   0  0  0  0  0  3  0  0  0  0  0  0
  189.1130  178.2560  140.4100 C   0  0  2  0  0  3  0  0  0  0  0  0
  187.5810  178.1310  140.4230 C   0  0  0  0  0  2  0  0  0  0  0  0
  191.6620  177.0400  142.9350 N   0  0  0  0  0  0  0  0  0  0  0  0
  185.5530  179.0400  141.7320 C   0  0  2  0  0  3  0  0  0  0  0  0
  184.9360  178.8390  143.1030 C   0  0  0  0  0  1  0  0  0  0  0  0
  184.7590  178.3290  140.7370 N   0  0  0  0  0  2  0  0  0  0  0  0
  184.4020  178.8970  139.4760 C   0  0  0  0  0  0  0  0  0  0  0  0
  184.5600  180.1270  139.2550 O   0  0  0  0  0  0  0  0  0  0  0  0
  183.9230  178.0040  138.3870 C   0  0  0  0  0  2  0  0  0  0  0  0
  182.7640  177.1690  138.9050 C   0  0  2  0  0  3  0  0  0  0  0  0
  180.7230  176.3500  137.9930 O   0  0  0  0  0  0  0  0  0  0  0  0
  182.9550  175.7320  138.5670 C   0  0  0  0  0  2  0  0  0  0  0  0
  181.4860  177.5170  138.1880 C   0  0  1  0  0  3  0  0  0  0  0  0
  181.5440  175.2550  138.3290 C   0  0  0  0  0  2  0  0  0  0  0  0
  180.5930  179.8870  138.5120 N   0  0  0  0  0  0  0  0  0  0  0  0
  180.7090  178.5320  138.9750 C   0  0  0  0  0  0  0  0  0  0  0  0
  179.4370  182.1700  137.2940 C   0  0  0  0  0  2  0  0  0  0  0  0
  180.2080  181.1560  136.4350 C   0  0  0  0  0  2  0  0  0  0  0  0
  179.9740  182.2720  138.7180 C   0  0  0  0  0  2  0  0  0  0  0  0
  181.1820  180.2840  137.2320 C   0  0  0  0  0  2  0  0  0  0  0  0
  179.9610  180.8930  139.3730 C   0  0  0  0  0  2  0  0  0  0  0  0
  180.1880  178.1950  140.0730 O   0  0  0  0  0  0  0  0  0  0  0  0
  189.7060  177.6120  139.1450 C   0  0  0  0  0  2  0  0  0  0  0  0
  187.2650  176.2460  136.5780 C   0  0  0  0  0  3  0  0  0  0  0  0
  186.9380  177.3970  135.8540 C   0  0  0  0  0  0  0  0  0  0  0  0
  188.4140  178.6950  137.2790 C   0  0  0  0  0  3  0  0  0  0  0  0
  188.1610  176.3170  137.6490 C   0  0  0  0  0  3  0  0  0  0  0  0
  188.7390  177.5410  138.0000 C   0  0  0  0  0  0  0  0  0  0  0  0
  187.5160  178.6240  136.2100 C   0  0  0  0  0  3  0  0  0  0  0  0
  184.6950  176.7030  134.8970 C   0  0  0  0  0  1  0  0  0  0  0  0
  186.0160  177.2990  134.7660 N   0  0  0  0  0  2  0  0  0  0  0  0
  1  6  2  0  0  0  0
  2 12  2  0  0  0  0
  2 11  1  0  0  0  0
  3 16  1  0  0  0  0
  3 10  2  0  0  0  0
  4  7  1  0  0  0  0
  4  8  1  0  0  0  0
  5  1  1  0  0  0  0
  7  9  1  0  0  0  0
  8  1  1  0  0  0  0
  9  5  2  0  0  0  0
 10 11  1  0  0  0  0
 11  7  2  0  0  0  0
 12 15  1  0  0  0  0
 13 35  1  6  0  0  0
 13 14  1  0  0  0  0
 13  2  1  0  0  0  0
 14  3  1  0  0  0  0
 15  4  2  0  0  0  0
 16 17  1  1  0  0  0
 18 16  1  0  0  0  0
 19 18  1  0  0  0  0
 20 19  2  0  0  0  0
 21 19  1  0  0  0  0
 22 21  1  6  0  0  0
 23 25  1  0  0  0  0
 23 26  1  0  0  0  0
 24 22  1  0  0  0  0
 25 22  1  0  0  0  0
 25 28  1  1  0  0  0
 26 24  1  0  0  0  0
 27 28  1  0  0  0  0
 27 33  1  0  0  0  0
 28 34  2  0  0  0  0
 29 31  1  0  0  0  0
 30 32  1  0  0  0  0
 30 29  1  0  0  0  0
 31 33  1  0  0  0  0
 32 27  1  0  0  0  0
 36 39  1  0  0  0  0
 37 41  1  0  0  0  0
 37 36  2  0  0  0  0
 38 40  1  0  0  0  0
 39 40  2  0  0  0  0
 40 35  1  0  0  0  0
 41 38  2  0  0  0  0
 43 42  1  0  0  0  0
 43 37  1  0  0  0  0
M  END
>  <MODEL>
6

>  <REMARK>
 VINA RESULT:      -9.9      4.282      9.054
  Name = 
  8 active torsions:
  status: ('A' for Active; 'I' for Inactive)
    1  A    between atoms: C_1  and  C_34
    2  A    between atoms: C_1  and  C_35
    3  A    between atoms: C_2  and  N_6
    4  A    between atoms: C_2  and  C_13
    5  A    between atoms: C_3  and  C_4
    6  A    between atoms: C_3  and  C_12
    7  A    between atoms: C_14  and  C_22
    8  A    between atoms: C_19  and  N_37
                            x       y       z     vdW  Elec       q    Type
                         _______ _______ _______ _____ _____    ______ ____

>  <TORSDO>
F 8

$$$$
=
 OpenBabel10262422373D

 43 48  0  0  1  0  0  0  0  0999 V2000
  191.6820  177.2300  139.8450 C   0  0  0  0  0  0  0  0  0  0  0  0
  187.3840  177.2620  137.0530 C   0  0  0  0  0  0  0  0  0  0  0  0
  185.3570  178.2120  138.8610 C   0  0  0  0  0  0  0  0  0  0  0  0
  190.0050  177.0030  137.9750 C   0  0  0  0  0  0  0  0  0  0  0  0
  190.6010  177.7450  140.6970 C   0  0  0  0  0  3  0  0  0  0  0  0
  192.8420  177.1240  140.3210 O   0  0  0  0  0  0  0  0  0  0  0  0
  189.0160  177.5080  138.8440 C   0  0  0  0  0  0  0  0  0  0  0  0
  191.4320  176.8200  138.4200 C   0  0  0  0  0  2  0  0  0  0  0  0
  189.3630  177.8750  140.2310 C   0  0  0  0  0  3  0  0  0  0  0  0
  186.6460  178.2310  139.2220 C   0  0  0  0  0  3  0  0  0  0  0  0
  187.7000  177.6510  138.3690 C   0  0  0  0  0  0  0  0  0  0  0  0
  188.4130  176.8080  136.2210 C   0  0  0  0  0  3  0  0  0  0  0  0
  185.9850  177.4940  136.5170 C   0  0  2  0  0  3  0  0  0  0  0  0
  184.9210  177.4770  137.6250 C   0  0  0  0  0  2  0  0  0  0  0  0
  189.6800  176.6800  136.6960 N   0  0  0  0  0  0  0  0  0  0  0  0
  184.3000  178.7790  139.7640 C   0  0  2  0  0  3  0  0  0  0  0  0
  183.4710  179.8050  139.0160 C   0  0  0  0  0  1  0  0  0  0  0  0
  184.8980  179.4040  140.9370 N   0  0  0  0  0  2  0  0  0  0  0  0
  184.6330  178.9690  142.2720 C   0  0  0  0  0  0  0  0  0  0  0  0
  183.6900  178.1700  142.5130 O   0  0  0  0  0  0  0  0  0  0  0  0
  185.5410  179.3960  143.3690 C   0  0  0  0  0  2  0  0  0  0  0  0
  185.6080  178.2960  144.4150 C   0  0  2  0  0  3  0  0  0  0  0  0
  186.9030  177.8900  146.3700 O   0  0  0  0  0  0  0  0  0  0  0  0
  184.7740  178.6410  145.5990 C   0  0  0  0  0  2  0  0  0  0  0  0
  186.9930  178.1880  144.9970 C   0  0  1  0  0  3  0  0  0  0  0  0
  185.5520  178.0380  146.7420 C   0  0  0  0  0  2  0  0  0  0  0  0
  189.2000  177.0290  144.4480 N   0  0  0  0  0  0  0  0  0  0  0  0
  187.7770  177.1320  144.2760 C   0  0  0  0  0  0  0  0  0  0  0  0
  191.6770  176.0640  145.4300 C   0  0  0  0  0  2  0  0  0  0  0  0
  190.9100  177.1360  146.2200 C   0  0  0  0  0  2  0  0  0  0  0  0
  191.4560  176.1640  143.9240 C   0  0  0  0  0  2  0  0  0  0  0  0
  189.8980  177.9190  145.3770 C   0  0  0  0  0  2  0  0  0  0  0  0
  189.9630  176.0910  143.6170 C   0  0  0  0  0  2  0  0  0  0  0  0
  187.1820  176.3530  143.4820 O   0  0  0  0  0  0  0  0  0  0  0  0
  185.5910  176.5550  135.3630 C   0  0  0  0  0  2  0  0  0  0  0  0
  183.1120  173.7670  136.0650 C   0  0  0  0  0  3  0  0  0  0  0  0
  183.9230  172.8140  136.6910 C   0  0  0  0  0  0  0  0  0  0  0  0
  185.8290  174.2980  136.4490 C   0  0  0  0  0  3  0  0  0  0  0  0
  183.6550  174.9800  135.6310 C   0  0  0  0  0  3  0  0  0  0  0  0
  185.0140  175.2490  135.8240 C   0  0  0  0  0  0  0  0  0  0  0  0
  185.2860  173.0840  136.8800 C   0  0  0  0  0  3  0  0  0  0  0  0
  182.7910  170.5990  136.2000 C   0  0  0  0  0  1  0  0  0  0  0  0
  183.3440  171.5800  137.1210 N   0  0  0  0  0  2  0  0  0  0  0  0
  1  6  2  0  0  0  0
  1  5  1  0  0  0  0
  2 11  1  0  0  0  0
  3 10  2  0  0  0  0
  3 16  1  0  0  0  0
  4  8  1  0  0  0  0
  4  7  1  0  0  0  0
  7  9  1  0  0  0  0
  8  1  1  0  0  0  0
  9  5  2  0  0  0  0
 11  7  2  0  0  0  0
 11 10  1  0  0  0  0
 12 15  1  0  0  0  0
 12  2  2  0  0  0  0
 13 35  1  6  0  0  0
 13  2  1  0  0  0  0
 13 14  1  0  0  0  0
 14  3  1  0  0  0  0
 15  4  2  0  0  0  0
 16 17  1  6  0  0  0
 16 18  1  0  0  0  0
 18 19  1  0  0  0  0
 19 20  2  0  0  0  0
 19 21  1  0  0  0  0
 22 21  1  6  0  0  0
 22 25  1  0  0  0  0
 22 24  1  0  0  0  0
 23 26  1  0  0  0  0
 24 26  1  0  0  0  0
 25 28  1  6  0  0  0
 25 23  1  0  0  0  0
 27 32  1  0  0  0  0
 28 27  1  0  0  0  0
 29 30  1  0  0  0  0
 31 29  1  0  0  0  0
 32 30  1  0  0  0  0
 33 31  1  0  0  0  0
 33 27  1  0  0  0  0
 34 28  2  0  0  0  0
 35 40  1  0  0  0  0
 36 37  1  0  0  0  0
 37 41  2  0  0  0  0
 37 43  1  0  0  0  0
 38 41  1  0  0  0  0
 39 40  1  0  0  0  0
 39 36  2  0  0  0  0
 40 38  2  0  0  0  0
 42 43  1  0  0  0  0
M  END
>  <MODEL>
7

>  <REMARK>
 VINA RESULT:      -9.4      3.738      8.249
  Name = 
  8 active torsions:
  status: ('A' for Active; 'I' for Inactive)
    1  A    between atoms: C_1  and  C_34
    2  A    between atoms: C_1  and  C_35
    3  A    between atoms: C_2  and  N_6
    4  A    between atoms: C_2  and  C_13
    5  A    between atoms: C_3  and  C_4
    6  A    between atoms: C_3  and  C_12
    7  A    between atoms: C_14  and  C_22
    8  A    between atoms: C_19  and  N_37
                            x       y       z     vdW  Elec       q    Type
                         _______ _______ _______ _____ _____    ______ ____

>  <TORSDO>
F 8

$$$$
=
 OpenBabel10262422373D

 43 48  0  0  1  0  0  0  0  0999 V2000
  193.4870  175.3480  136.2590 C   0  0  0  0  0  0  0  0  0  0  0  0
  189.8420  177.1970  139.3510 C   0  0  0  0  0  0  0  0  0  0  0  0
  187.4080  176.9230  137.8420 C   0  0  0  0  0  0  0  0  0  0  0  0
  192.2460  176.3610  138.2070 C   0  0  0  0  0  0  0  0  0  0  0  0
  192.2000  175.2040  135.5660 C   0  0  0  0  0  3  0  0  0  0  0  0
  194.5400  174.9630  135.6870 O   0  0  0  0  0  0  0  0  0  0  0  0
  191.0440  176.1910  137.4890 C   0  0  0  0  0  0  0  0  0  0  0  0
  193.5760  175.9490  137.6350 C   0  0  0  0  0  2  0  0  0  0  0  0
  191.0650  175.5950  136.1380 C   0  0  0  0  0  3  0  0  0  0  0  0
  188.5480  176.3860  137.3890 C   0  0  0  0  0  3  0  0  0  0  0  0
  189.8340  176.6000  138.0770 C   0  0  0  0  0  0  0  0  0  0  0  0
  191.0570  177.3020  140.0380 C   0  0  0  0  0  3  0  0  0  0  0  0
  188.5300  177.5620  140.0190 C   0  0  2  0  0  3  0  0  0  0  0  0
  187.4220  177.8780  139.0010 C   0  0  0  0  0  2  0  0  0  0  0  0
  192.2160  176.8980  139.4550 N   0  0  0  0  0  0  0  0  0  0  0  0
  186.1180  176.7190  137.1030 C   0  0  2  0  0  3  0  0  0  0  0  0
  186.0560  177.6370  135.8970 C   0  0  0  0  0  1  0  0  0  0  0  0
  184.9740  176.9810  137.9680 N   0  0  0  0  0  2  0  0  0  0  0  0
  183.7840  176.1900  137.9480 C   0  0  0  0  0  0  0  0  0  0  0  0
  183.5740  175.3670  137.0180 O   0  0  0  0  0  0  0  0  0  0  0  0
  182.8320  176.2810  139.0870 C   0  0  0  0  0  2  0  0  0  0  0  0
  181.8720  177.4320  138.8400 C   0  0  2  0  0  3  0  0  0  0  0  0
  182.0890  179.7730  138.4690 O   0  0  0  0  0  0  0  0  0  0  0  0
  181.7130  177.6850  137.3810 C   0  0  0  0  0  2  0  0  0  0  0  0
  182.4440  178.7300  139.3460 C   0  0  1  0  0  3  0  0  0  0  0  0
  181.5330  179.1810  137.3190 C   0  0  0  0  0  2  0  0  0  0  0  0
  182.8120  178.8720  141.8680 N   0  0  0  0  0  0  0  0  0  0  0  0
  181.9430  179.0110  140.7330 C   0  0  0  0  0  0  0  0  0  0  0  0
  184.5550  179.6360  143.9690 C   0  0  0  0  0  2  0  0  0  0  0  0
  185.1220  179.3760  142.5650 C   0  0  0  0  0  2  0  0  0  0  0  0
  183.3320  178.7790  144.2840 C   0  0  0  0  0  2  0  0  0  0  0  0
  184.2180  178.5090  141.6840 C   0  0  0  0  0  2  0  0  0  0  0  0
  182.2600  179.0020  143.2210 C   0  0  0  0  0  2  0  0  0  0  0  0
  180.7360  179.3360  140.9000 O   0  0  0  0  0  0  0  0  0  0  0  0
  188.6480  178.6800  141.0680 C   0  0  0  0  0  2  0  0  0  0  0  0
  189.9390  178.1410  144.5970 C   0  0  0  0  0  3  0  0  0  0  0  0
  189.0140  177.2210  145.1020 C   0  0  0  0  0  0  0  0  0  0  0  0
  187.8430  177.2520  142.9760 C   0  0  0  0  0  3  0  0  0  0  0  0
  189.8180  178.6170  143.2880 C   0  0  0  0  0  3  0  0  0  0  0  0
  188.7710  178.1720  142.4740 C   0  0  0  0  0  0  0  0  0  0  0  0
  187.9630  176.7790  144.2860 C   0  0  0  0  0  3  0  0  0  0  0  0
  190.3480  176.9940  147.2460 C   0  0  0  0  0  1  0  0  0  0  0  0
  189.1590  176.7530  146.4450 N   0  0  0  0  0  2  0  0  0  0  0  0
  1  8  1  0  0  0  0
  2 13  1  0  0  0  0
  2 12  1  0  0  0  0
  3 14  1  0  0  0  0
  4 15  1  0  0  0  0
  5  9  2  0  0  0  0
  5  1  1  0  0  0  0
  6  1  2  0  0  0  0
  7 11  1  0  0  0  0
  7  4  2  0  0  0  0
  8  4  1  0  0  0  0
  9  7  1  0  0  0  0
 10  3  2  0  0  0  0
 10 11  1  0  0  0  0
 11  2  2  0  0  0  0
 13 35  1  1  0  0  0
 14 13  1  0  0  0  0
 15 12  2  0  0  0  0
 16 17  1  6  0  0  0
 16  3  1  0  0  0  0
 16 18  1  0  0  0  0
 19 18  1  0  0  0  0
 19 21  1  0  0  0  0
 20 19  2  0  0  0  0
 22 21  1  6  0  0  0
 22 25  1  0  0  0  0
 23 25  1  0  0  0  0
 24 22  1  0  0  0  0
 25 28  1  1  0  0  0
 26 24  1  0  0  0  0
 26 23  1  0  0  0  0
 27 33  1  0  0  0  0
 28 34  2  0  0  0  0
 28 27  1  0  0  0  0
 29 31  1  0  0  0  0
 30 29  1  0  0  0  0
 32 27  1  0  0  0  0
 32 30  1  0  0  0  0
 33 31  1  0  0  0  0
 35 40  1  0  0  0  0
 36 37  1  0  0  0  0
 37 43  1  0  0  0  0
 38 41  1  0  0  0  0
 39 36  2  0  0  0  0
 40 38  2  0  0  0  0
 40 39  1  0  0  0  0
 41 37  2  0  0  0  0
 43 42  1  0  0  0  0
M  END
>  <MODEL>
8

>  <REMARK>
 VINA RESULT:      -9.4      2.934      9.524
  Name = 
  8 active torsions:
  status: ('A' for Active; 'I' for Inactive)
    1  A    between atoms: C_1  and  C_34
    2  A    between atoms: C_1  and  C_35
    3  A    between atoms: C_2  and  N_6
    4  A    between atoms: C_2  and  C_13
    5  A    between atoms: C_3  and  C_4
    6  A    between atoms: C_3  and  C_12
    7  A    between atoms: C_14  and  C_22
    8  A    between atoms: C_19  and  N_37
                            x       y       z     vdW  Elec       q    Type
                         _______ _______ _______ _____ _____    ______ ____

>  <TORSDO>
F 8

$$$$
=
 OpenBabel10262422373D

 43 48  0  0  1  0  0  0  0  0999 V2000
  190.2360  177.6120  139.6280 C   0  0  0  0  0  0  0  0  0  0  0  0
  185.2140  178.6210  139.4680 C   0  0  0  0  0  0  0  0  0  0  0  0
  184.3800  178.5700  142.2220 C   0  0  0  0  0  0  0  0  0  0  0  0
  187.8930  178.1320  138.8560 C   0  0  0  0  0  0  0  0  0  0  0  0
  189.7440  177.6420  141.0120 C   0  0  0  0  0  3  0  0  0  0  0  0
  191.4530  177.3750  139.4140 O   0  0  0  0  0  0  0  0  0  0  0  0
  187.4860  178.1500  140.2060 C   0  0  0  0  0  0  0  0  0  0  0  0
  189.3190  177.8530  138.4620 C   0  0  0  0  0  2  0  0  0  0  0  0
  188.4660  177.8930  141.2800 C   0  0  0  0  0  3  0  0  0  0  0  0
  185.6800  178.5010  141.9080 C   0  0  0  0  0  3  0  0  0  0  0  0
  186.1380  178.4120  140.5090 C   0  0  0  0  0  0  0  0  0  0  0  0
  185.6800  178.6340  138.1480 C   0  0  0  0  0  3  0  0  0  0  0  0
  183.7790  178.9840  139.7980 C   0  0  2  0  0  3  0  0  0  0  0  0
  183.3290  178.4250  141.1570 C   0  0  0  0  0  2  0  0  0  0  0  0
  186.9870  178.3830  137.8750 N   0  0  0  0  0  0  0  0  0  0  0  0
  183.9390  178.6250  143.6550 C   0  0  2  0  0  3  0  0  0  0  0  0
  182.6250  179.3740  143.7690 C   0  0  0  0  0  1  0  0  0  0  0  0
  184.9420  179.2830  144.4840 N   0  0  0  0  0  2  0  0  0  0  0  0
  185.1490  178.9600  145.8600 C   0  0  0  0  0  0  0  0  0  0  0  0
  184.3180  178.2510  146.4870 O   0  0  0  0  0  0  0  0  0  0  0  0
  186.4060  179.3920  146.5260 C   0  0  0  0  0  2  0  0  0  0  0  0
  187.1120  178.1730  147.0950 C   0  0  2  0  0  3  0  0  0  0  0  0
  189.3410  177.6520  147.7470 O   0  0  0  0  0  0  0  0  0  0  0  0
  187.1870  178.2500  148.5800 C   0  0  0  0  0  2  0  0  0  0  0  0
  188.5600  178.1470  146.6840 C   0  0  1  0  0  3  0  0  0  0  0  0
  188.5090  177.5880  148.8810 C   0  0  0  0  0  2  0  0  0  0  0  0
  190.0310  176.7930  145.0980 N   0  0  0  0  0  0  0  0  0  0  0  0
  188.7370  177.3000  145.4580 C   0  0  0  0  0  0  0  0  0  0  0  0
  192.1650  174.9450  144.8420 C   0  0  0  0  0  2  0  0  0  0  0  0
  192.0260  175.7750  146.1270 C   0  0  0  0  0  2  0  0  0  0  0  0
  191.6560  175.6770  143.6040 C   0  0  0  0  0  2  0  0  0  0  0  0
  191.1900  177.0470  145.9550 C   0  0  0  0  0  2  0  0  0  0  0  0
  190.2040  176.0990  143.8160 C   0  0  0  0  0  2  0  0  0  0  0  0
  187.7410  177.0660  144.7200 O   0  0  0  0  0  0  0  0  0  0  0  0
  182.7700  178.6240  138.6950 C   0  0  0  0  0  2  0  0  0  0  0  0
  181.3680  182.1340  138.3450 C   0  0  0  0  0  3  0  0  0  0  0  0
  180.2290  181.9110  137.5630 C   0  0  0  0  0  0  0  0  0  0  0  0
  180.7460  179.5390  137.5130 C   0  0  0  0  0  3  0  0  0  0  0  0
  182.1940  181.0670  138.7090 C   0  0  0  0  0  3  0  0  0  0  0  0
  181.8840  179.7670  138.2960 C   0  0  0  0  0  0  0  0  0  0  0  0
  179.9220  180.6070  137.1480 C   0  0  0  0  0  3  0  0  0  0  0  0
  179.7580  184.4010  137.4870 C   0  0  0  0  0  1  0  0  0  0  0  0
  179.4030  183.0200  137.2010 N   0  0  0  0  0  2  0  0  0  0  0  0
  1  5  1  0  0  0  0
  2 13  1  0  0  0  0
  2 11  1  0  0  0  0
  3 16  1  0  0  0  0
  4  7  1  0  0  0  0
  5  9  2  0  0  0  0
  6  1  2  0  0  0  0
  7 11  2  0  0  0  0
  7  9  1  0  0  0  0
  8  4  1  0  0  0  0
  8  1  1  0  0  0  0
 10  3  2  0  0  0  0
 11 10  1  0  0  0  0
 12  2  2  0  0  0  0
 13 35  1  6  0  0  0
 13 14  1  0  0  0  0
 14  3  1  0  0  0  0
 15 12  1  0  0  0  0
 15  4  2  0  0  0  0
 16 17  1  6  0  0  0
 16 18  1  0  0  0  0
 18 19  1  0  0  0  0
 19 20  2  0  0  0  0
 19 21  1  0  0  0  0
 22 21  1  6  0  0  0
 22 24  1  0  0  0  0
 23 26  1  0  0  0  0
 24 26  1  0  0  0  0
 25 28  1  6  0  0  0
 25 22  1  0  0  0  0
 25 23  1  0  0  0  0
 27 28  1  0  0  0  0
 27 32  1  0  0  0  0
 29 30  1  0  0  0  0
 31 33  1  0  0  0  0
 31 29  1  0  0  0  0
 32 30  1  0  0  0  0
 33 27  1  0  0  0  0
 34 28  2  0  0  0  0
 36 39  1  0  0  0  0
 37 36  2  0  0  0  0
 38 40  1  0  0  0  0
 40 35  1  0  0  0  0
 40 39  2  0  0  0  0
 41 38  2  0  0  0  0
 41 37  1  0  0  0  0
 43 42  1  0  0  0  0
 43 37  1  0  0  0  0
M  END
>  <MODEL>
9

>  <REMARK>
 VINA RESULT:      -9.3      3.798      7.931
  Name = 
  8 active torsions:
  status: ('A' for Active; 'I' for Inactive)
    1  A    between atoms: C_1  and  C_34
    2  A    between atoms: C_1  and  C_35
    3  A    between atoms: C_2  and  N_6
    4  A    between atoms: C_2  and  C_13
    5  A    between atoms: C_3  and  C_4
    6  A    between atoms: C_3  and  C_12
    7  A    between atoms: C_14  and  C_22
    8  A    between atoms: C_19  and  N_37
                            x       y       z     vdW  Elec       q    Type
                         _______ _______ _______ _____ _____    ______ ____

>  <TORSDO>
F 8

$$$$
