=
 OpenBabel10262421333D

 32 36  0  0  0  0  0  0  0  0999 V2000
  186.6110  178.0180  146.1540 C   0  0  0  0  0  3  0  0  0  0  0  0
  183.8820  178.5360  141.6630 C   0  0  0  0  0  0  0  0  0  0  0  0
  179.4380  179.4300  143.5300 C   0  0  0  0  0  3  0  0  0  0  0  0
  178.9550  179.4990  142.2890 C   0  0  0  0  0  3  0  0  0  0  0  0
  185.8100  178.1510  143.1040 C   0  0  0  0  0  0  0  0  0  0  0  0
  183.6300  178.6280  144.0650 C   0  0  0  0  0  3  0  0  0  0  0  0
  185.4220  178.2930  145.6370 C   0  0  0  0  0  3  0  0  0  0  0  0
  180.8330  179.1790  143.7340 N   0  0  0  0  0  0  0  0  0  0  0  0
  183.0680  178.7250  142.7900 C   0  0  0  0  0  0  0  0  0  0  0  0
  181.7060  179.0010  142.6080 C   0  0  0  0  0  0  0  0  0  0  0  0
  182.0420  178.9110  140.1970 C   0  0  0  0  0  0  0  0  0  0  0  0
  189.7670  177.4310  143.5350 S   0  0  0  0  0  1  0  0  0  0  0  0
  188.1050  177.6680  144.1750 C   0  0  0  0  0  0  0  0  0  0  0  0
  184.9910  178.3430  144.2410 C   0  0  0  0  0  0  0  0  0  0  0  0
  187.1130  177.8780  143.1090 C   0  0  0  0  0  3  0  0  0  0  0  0
  187.8820  177.6760  145.5080 C   0  0  0  0  0  0  0  0  0  0  0  0
  179.8620  179.3190  141.1370 C   0  0  0  0  0  2  0  0  0  0  0  0
  181.1770  179.0890  141.3020 C   0  0  0  0  0  0  0  0  0  0  0  0
  185.2370  178.2530  141.8300 C   0  0  0  0  0  3  0  0  0  0  0  0
  183.3570  178.6290  140.4140 N   0  0  0  0  0  0  0  0  0  0  0  0
  180.7640  177.8130  136.8310 C   0  0  0  0  0  0  0  0  0  0  0  0
  180.6740  179.0220  136.1400 C   0  0  0  0  0  3  0  0  0  0  0  0
  181.4920  180.2090  138.0930 C   0  0  0  0  0  0  0  0  0  0  0  0
  180.9560  181.3790  136.0690 F   0  0  0  0  0  0  0  0  0  0  0  0
  181.0370  180.2170  136.7650 C   0  0  0  0  0  0  0  0  0  0  0  0
  181.2120  177.7960  138.1520 C   0  0  0  0  0  3  0  0  0  0  0  0
  180.4180  176.6550  136.2180 F   0  0  0  0  0  0  0  0  0  0  0  0
  181.9310  181.4940  138.7190 C   0  0  0  0  0  1  0  0  0  0  0  0
  181.5660  178.9870  138.7990 C   0  0  0  0  0  0  0  0  0  0  0  0
  188.9460  177.4010  146.4280 N   0  0  0  0  0  2  0  0  0  0  0  0
  188.9530  177.8680  147.7520 C   0  0  0  0  0  0  0  0  0  0  0  0
  188.9590  178.2530  148.8440 N   0  0  0  0  0  0  0  0  0  0  0  0
  2 19  1  0  0  0  0
  2  9  1  0  0  0  0
  3  8  1  0  0  0  0
  4  3  2  0  0  0  0
  5 15  1  0  0  0  0
  5 14  1  0  0  0  0
  6 14  1  0  0  0  0
  7  1  1  0  0  0  0
  9  6  2  0  0  0  0
 10  9  1  0  0  0  0
 10  8  2  0  0  0  0
 11 20  1  0  0  0  0
 11 18  2  0  0  0  0
 12 13  1  0  0  0  0
 13 16  1  0  0  0  0
 14  7  2  0  0  0  0
 15 13  2  0  0  0  0
 16  1  2  0  0  0  0
 16 30  1  0  0  0  0
 17 18  1  0  0  0  0
 17  4  1  0  0  0  0
 18 10  1  0  0  0  0
 19  5  2  0  0  0  0
 20  2  2  0  0  0  0
 21 26  1  0  0  0  0
 22 25  1  0  0  0  0
 22 21  2  0  0  0  0
 23 28  1  0  0  0  0
 23 29  1  0  0  0  0
 24 25  1  0  0  0  0
 25 23  2  0  0  0  0
 26 29  2  0  0  0  0
 27 21  1  0  0  0  0
 29 11  1  0  0  0  0
 30 31  1  0  0  0  0
 31 32  3  0  0  0  0
M  END
>  <MODEL>
1

>  <REMARK>
 VINA RESULT:      -9.1      0.000      0.000
  Name = 
  3 active torsions:
  status: ('A' for Active; 'I' for Inactive)
    1  A    between atoms: C_1  and  N_10
    2  A    between atoms: N_10  and  C_24
    3  A    between atoms: C_16  and  C_32
                            x       y       z     vdW  Elec       q    Type
                         _______ _______ _______ _____ _____    ______ ____

>  <TORSDO>
F 3

$$$$
=
 OpenBabel10262421333D

 32 36  0  0  0  0  0  0  0  0999 V2000
  189.0070  177.3870  145.3270 C   0  0  0  0  0  3  0  0  0  0  0  0
  185.4620  178.4190  141.5520 C   0  0  0  0  0  0  0  0  0  0  0  0
  181.4220  178.7200  144.3140 C   0  0  0  0  0  3  0  0  0  0  0  0
  180.7110  178.9500  143.2100 C   0  0  0  0  0  3  0  0  0  0  0  0
  187.6400  177.9410  142.5370 C   0  0  0  0  0  0  0  0  0  0  0  0
  185.6650  178.1190  143.9420 C   0  0  0  0  0  3  0  0  0  0  0  0
  187.7330  177.6610  145.0860 C   0  0  0  0  0  3  0  0  0  0  0  0
  182.8380  178.5320  144.2180 N   0  0  0  0  0  0  0  0  0  0  0  0
  184.8690  178.3780  142.8230 C   0  0  0  0  0  0  0  0  0  0  0  0
  183.4880  178.5890  142.9380 C   0  0  0  0  0  0  0  0  0  0  0  0
  183.3650  178.8980  140.5260 C   0  0  0  0  0  0  0  0  0  0  0  0
  191.6290  177.4220  142.1190 S   0  0  0  0  0  1  0  0  0  0  0  0
  190.1110  177.4480  143.0800 C   0  0  0  0  0  0  0  0  0  0  0  0
  187.0440  177.9000  143.8190 C   0  0  0  0  0  0  0  0  0  0  0  0
  188.9290  177.7560  142.2610 C   0  0  0  0  0  3  0  0  0  0  0  0
  190.1440  177.2340  144.4130 C   0  0  0  0  0  0  0  0  0  0  0  0
  181.3890  179.0110  141.8990 C   0  0  0  0  0  2  0  0  0  0  0  0
  182.7190  178.8450  141.7830 C   0  0  0  0  0  0  0  0  0  0  0  0
  186.8320  178.2030  141.4220 C   0  0  0  0  0  3  0  0  0  0  0  0
  184.7060  178.6710  140.4520 N   0  0  0  0  0  0  0  0  0  0  0  0
  181.5650  180.7780  137.8070 C   0  0  0  0  0  0  0  0  0  0  0  0
  181.2170  179.7570  136.9220 C   0  0  0  0  0  3  0  0  0  0  0  0
  182.2630  178.1230  138.3820 C   0  0  0  0  0  0  0  0  0  0  0  0
  181.2000  177.4550  136.3380 F   0  0  0  0  0  0  0  0  0  0  0  0
  181.5620  178.4330  137.2050 C   0  0  0  0  0  0  0  0  0  0  0  0
  182.2650  180.4790  138.9760 C   0  0  0  0  0  3  0  0  0  0  0  0
  181.2210  182.0590  137.5320 F   0  0  0  0  0  0  0  0  0  0  0  0
  182.5680  176.6920  138.6900 C   0  0  0  0  0  1  0  0  0  0  0  0
  182.6310  179.1590  139.2690 C   0  0  0  0  0  0  0  0  0  0  0  0
  191.3710  176.8880  145.0680 N   0  0  0  0  0  2  0  0  0  0  0  0
  191.5030  176.8210  146.4640 C   0  0  0  0  0  0  0  0  0  0  0  0
  191.6110  176.7670  147.6150 N   0  0  0  0  0  0  0  0  0  0  0  0
  2  9  1  0  0  0  0
  4  3  2  0  0  0  0
  5 14  1  0  0  0  0
  7  1  1  0  0  0  0
  8  3  1  0  0  0  0
  9 10  1  0  0  0  0
  9  6  2  0  0  0  0
 10  8  2  0  0  0  0
 11 18  2  0  0  0  0
 12 13  1  0  0  0  0
 13 16  1  0  0  0  0
 14  6  1  0  0  0  0
 14  7  2  0  0  0  0
 15  5  1  0  0  0  0
 15 13  2  0  0  0  0
 16 30  1  0  0  0  0
 16  1  2  0  0  0  0
 17  4  1  0  0  0  0
 18 17  1  0  0  0  0
 18 10  1  0  0  0  0
 19  2  1  0  0  0  0
 19  5  2  0  0  0  0
 20 11  1  0  0  0  0
 20  2  2  0  0  0  0
 21 26  1  0  0  0  0
 22 25  1  0  0  0  0
 22 21  2  0  0  0  0
 23 28  1  0  0  0  0
 23 29  1  0  0  0  0
 24 25  1  0  0  0  0
 25 23  2  0  0  0  0
 26 29  2  0  0  0  0
 27 21  1  0  0  0  0
 29 11  1  0  0  0  0
 30 31  1  0  0  0  0
 31 32  3  0  0  0  0
M  END
>  <MODEL>
2

>  <REMARK>
 VINA RESULT:      -9.1      1.579      2.572
  Name = 
  3 active torsions:
  status: ('A' for Active; 'I' for Inactive)
    1  A    between atoms: C_1  and  N_10
    2  A    between atoms: N_10  and  C_24
    3  A    between atoms: C_16  and  C_32
                            x       y       z     vdW  Elec       q    Type
                         _______ _______ _______ _____ _____    ______ ____

>  <TORSDO>
F 3

$$$$
=
 OpenBabel10262421333D

 32 36  0  0  0  0  0  0  0  0999 V2000
  181.7100  179.2190  140.0970 C   0  0  0  0  0  3  0  0  0  0  0  0
  185.6140  178.2940  143.5300 C   0  0  0  0  0  0  0  0  0  0  0  0
  189.3290  177.7330  140.3800 C   0  0  0  0  0  3  0  0  0  0  0  0
  190.1410  177.5050  141.4130 C   0  0  0  0  0  3  0  0  0  0  0  0
  183.3510  178.7610  142.7540 C   0  0  0  0  0  0  0  0  0  0  0  0
  185.1740  178.5250  141.1650 C   0  0  0  0  0  3  0  0  0  0  0  0
  183.0120  179.0030  140.2210 C   0  0  0  0  0  3  0  0  0  0  0  0
  187.9450  178.0140  140.6160 N   0  0  0  0  0  2  0  0  0  0  0  0
  186.0770  178.2920  142.2060 C   0  0  0  0  0  0  0  0  0  0  0  0
  187.4340  178.0480  141.9580 C   0  0  0  0  0  0  0  0  0  0  0  0
  187.8030  177.8470  144.3580 C   0  0  0  0  0  0  0  0  0  0  0  0
  179.4650  179.5350  143.5640 S   0  0  0  0  0  1  0  0  0  0  0  0
  180.8350  179.2300  142.4420 C   0  0  0  0  0  0  0  0  0  0  0  0
  183.8160  178.7600  141.4170 C   0  0  0  0  0  0  0  0  0  0  0  0
  182.0970  178.9690  143.1510 C   0  0  0  0  0  3  0  0  0  0  0  0
  180.6490  179.2890  141.1060 C   0  0  0  0  0  0  0  0  0  0  0  0
  189.6070  177.5460  142.7900 C   0  0  0  0  0  3  0  0  0  0  0  0
  188.3130  177.8140  143.0390 C   0  0  0  0  0  0  0  0  0  0  0  0
  184.2650  178.5280  143.7900 C   0  0  0  0  0  3  0  0  0  0  0  0
  186.4740  178.0720  144.5570 N   0  0  0  0  0  0  0  0  0  0  0  0
  190.7850  176.8500  146.4270 C   0  0  0  0  0  0  0  0  0  0  0  0
  190.3450  177.1100  147.7250 C   0  0  0  0  0  3  0  0  0  0  0  0
  188.2040  177.8590  146.8580 C   0  0  0  0  0  0  0  0  0  0  0  0
  188.6470  177.8440  149.2150 F   0  0  0  0  0  0  0  0  0  0  0  0
  189.0590  177.6120  147.9440 C   0  0  0  0  0  0  0  0  0  0  0  0
  189.9430  177.0960  145.3420 C   0  0  0  0  0  3  0  0  0  0  0  0
  192.0290  176.3560  146.2200 F   0  0  0  0  0  0  0  0  0  0  0  0
  186.8140  178.3400  147.1240 C   0  0  0  0  0  1  0  0  0  0  0  0
  188.6570  177.6130  145.5420 C   0  0  0  0  0  0  0  0  0  0  0  0
  179.3410  179.4990  140.5590 N   0  0  0  0  0  2  0  0  0  0  0  0
  179.1160  180.1780  139.3500 C   0  0  0  0  0  0  0  0  0  0  0  0
  178.9310  180.7370  138.3540 N   0  0  0  0  0  0  0  0  0  0  0  0
  1  7  2  0  0  0  0
  1 16  1  0  0  0  0
  2 19  2  0  0  0  0
  2 20  1  0  0  0  0
  3  8  1  0  0  0  0
  3  4  2  0  0  0  0
  4 17  1  0  0  0  0
  5 15  2  0  0  0  0
  5 19  1  0  0  0  0
  6 14  2  0  0  0  0
  6  9  1  0  0  0  0
  7 14  1  0  0  0  0
  8 10  1  0  0  0  0
  9  2  1  0  0  0  0
 10  9  2  0  0  0  0
 10 18  1  0  0  0  0
 11 20  2  0  0  0  0
 11 29  1  0  0  0  0
 13 15  1  0  0  0  0
 13 12  1  0  0  0  0
 14  5  1  0  0  0  0
 16 13  2  0  0  0  0
 17 18  2  0  0  0  0
 18 11  1  0  0  0  0
 21 22  1  0  0  0  0
 22 25  2  0  0  0  0
 23 28  1  0  0  0  0
 23 25  1  0  0  0  0
 25 24  1  0  0  0  0
 26 29  1  0  0  0  0
 26 21  2  0  0  0  0
 27 21  1  0  0  0  0
 29 23  2  0  0  0  0
 30 16  1  0  0  0  0
 31 30  1  0  0  0  0
 32 31  3  0  0  0  0
M  END
>  <MODEL>
3

>  <REMARK>
 VINA RESULT:      -9.0      4.777      9.788
  Name = 
  3 active torsions:
  status: ('A' for Active; 'I' for Inactive)
    1  A    between atoms: C_1  and  N_10
    2  A    between atoms: N_10  and  C_24
    3  A    between atoms: C_16  and  C_32
                            x       y       z     vdW  Elec       q    Type
                         _______ _______ _______ _____ _____    ______ ____

>  <TORSDO>
F 3

$$$$
=
 OpenBabel10262421333D

 32 36  0  0  0  0  0  0  0  0999 V2000
  190.4890  177.2550  145.0480 C   0  0  0  0  0  3  0  0  0  0  0  0
  186.3410  178.2590  141.9390 C   0  0  0  0  0  0  0  0  0  0  0  0
  188.5770  178.1790  137.5760 C   0  0  0  0  0  3  0  0  0  0  0  0
  187.4080  178.4590  136.9970 C   0  0  0  0  0  3  0  0  0  0  0  0
  187.5770  177.8820  144.0060 C   0  0  0  0  0  0  0  0  0  0  0  0
  188.7120  177.7980  141.8590 C   0  0  0  0  0  3  0  0  0  0  0  0
  190.0860  177.3840  143.7910 C   0  0  0  0  0  3  0  0  0  0  0  0
  188.6450  178.0330  138.9990 N   0  0  0  0  0  2  0  0  0  0  0  0
  187.5160  178.0770  141.1930 C   0  0  0  0  0  0  0  0  0  0  0  0
  187.4610  178.1880  139.7980 C   0  0  0  0  0  0  0  0  0  0  0  0
  185.0710  178.6280  139.9570 C   0  0  0  0  0  0  0  0  0  0  0  0
  187.6260  177.5010  148.0320 S   0  0  0  0  0  1  0  0  0  0  0  0
  188.4210  177.5740  146.4220 C   0  0  0  0  0  0  0  0  0  0  0  0
  188.7620  177.6970  143.2550 C   0  0  0  0  0  0  0  0  0  0  0  0
  187.4650  177.8150  145.3310 C   0  0  0  0  0  3  0  0  0  0  0  0
  189.7530  177.3800  146.3100 C   0  0  0  0  0  0  0  0  0  0  0  0
  186.1960  178.6140  137.8270 C   0  0  0  0  0  3  0  0  0  0  0  0
  186.2320  178.4740  139.1640 C   0  0  0  0  0  0  0  0  0  0  0  0
  186.3820  178.1600  143.3280 C   0  0  0  0  0  3  0  0  0  0  0  0
  185.1670  178.5290  141.3120 N   0  0  0  0  0  0  0  0  0  0  0  0
  182.1920  180.6010  138.5470 C   0  0  0  0  0  0  0  0  0  0  0  0
  181.2530  179.6040  138.2800 C   0  0  0  0  0  3  0  0  0  0  0  0
  182.7890  177.9210  139.1180 C   0  0  0  0  0  0  0  0  0  0  0  0
  180.6120  177.3170  138.3110 F   0  0  0  0  0  0  0  0  0  0  0  0
  181.5460  178.2680  138.5640 C   0  0  0  0  0  0  0  0  0  0  0  0
  183.4310  180.2640  139.0940 C   0  0  0  0  0  3  0  0  0  0  0  0
  181.9010  181.8960  138.2770 F   0  0  0  0  0  0  0  0  0  0  0  0
  183.0540  176.4910  139.4670 C   0  0  0  0  0  1  0  0  0  0  0  0
  183.7470  178.9280  139.3710 C   0  0  0  0  0  0  0  0  0  0  0  0
  190.5680  177.2090  147.4760 N   0  0  0  0  0  2  0  0  0  0  0  0
  191.6810  176.3530  147.5150 C   0  0  0  0  0  0  0  0  0  0  0  0
  192.5970  175.6480  147.5480 N   0  0  0  0  0  0  0  0  0  0  0  0
  1 16  1  0  0  0  0
  2 19  2  0  0  0  0
  3  8  1  0  0  0  0
  4  3  2  0  0  0  0
  4 17  1  0  0  0  0
  5 15  2  0  0  0  0
  6 14  2  0  0  0  0
  7  1  2  0  0  0  0
  8 10  1  0  0  0  0
  9  6  1  0  0  0  0
  9  2  1  0  0  0  0
 10  9  2  0  0  0  0
 11 20  2  0  0  0  0
 13 12  1  0  0  0  0
 14  7  1  0  0  0  0
 14  5  1  0  0  0  0
 15 13  1  0  0  0  0
 16 13  2  0  0  0  0
 16 30  1  0  0  0  0
 17 18  2  0  0  0  0
 18 10  1  0  0  0  0
 18 11  1  0  0  0  0
 19  5  1  0  0  0  0
 20  2  1  0  0  0  0
 21 26  1  0  0  0  0
 22 21  2  0  0  0  0
 22 25  1  0  0  0  0
 23 29  1  0  0  0  0
 23 28  1  0  0  0  0
 24 25  1  0  0  0  0
 25 23  2  0  0  0  0
 26 29  2  0  0  0  0
 27 21  1  0  0  0  0
 29 11  1  0  0  0  0
 30 31  1  0  0  0  0
 31 32  3  0  0  0  0
M  END
>  <MODEL>
4

>  <REMARK>
 VINA RESULT:      -8.9      2.749      4.926
  Name = 
  3 active torsions:
  status: ('A' for Active; 'I' for Inactive)
    1  A    between atoms: C_1  and  N_10
    2  A    between atoms: N_10  and  C_24
    3  A    between atoms: C_16  and  C_32
                            x       y       z     vdW  Elec       q    Type
                         _______ _______ _______ _____ _____    ______ ____

>  <TORSDO>
F 3

$$$$
=
 OpenBabel10262421333D

 32 36  0  0  1  0  0  0  0  0999 V2000
  180.7570  179.4770  142.7360 C   0  0  0  0  0  3  0  0  0  0  0  0
  185.8410  178.1340  143.2180 C   0  0  0  0  0  0  0  0  0  0  0  0
  186.3300  178.5970  148.0740 C   0  0  0  0  0  3  0  0  0  0  0  0
  187.6130  178.2500  147.9560 C   0  0  0  0  0  3  0  0  0  0  0  0
  183.7200  178.5920  142.1070 C   0  0  0  0  0  0  0  0  0  0  0  0
  183.9160  178.7960  144.5200 C   0  0  0  0  0  3  0  0  0  0  0  0
  181.7430  179.2690  143.5970 C   0  0  0  0  0  3  0  0  0  0  0  0
  185.5020  178.6570  146.9080 N   0  0  0  0  0  0  0  0  0  0  0  0
  185.2610  178.4250  144.4620 C   0  0  0  0  0  0  0  0  0  0  0  0
  186.0500  178.3440  145.6170 C   0  0  1  0  0  3  0  0  0  0  0  0
  187.9410  177.6640  144.2410 C   0  0  0  0  0  0  0  0  0  0  0  0
  181.4970  178.7230  138.7310 S   0  0  0  0  0  1  0  0  0  0  0  0
  181.7460  178.9710  140.4930 C   0  0  0  0  0  0  0  0  0  0  0  0
  183.1340  178.8840  143.3610 C   0  0  0  0  0  0  0  0  0  0  0  0
  183.1100  178.6280  140.9240 C   0  0  0  0  0  3  0  0  0  0  0  0
  180.7270  179.3920  141.2730 C   0  0  0  0  0  0  0  0  0  0  0  0
  188.1660  177.9270  146.6250 C   0  0  0  0  0  3  0  0  0  0  0  0
  187.4070  177.9680  145.5150 C   0  0  0  0  0  0  0  0  0  0  0  0
  185.0700  178.2190  142.0600 C   0  0  0  0  0  3  0  0  0  0  0  0
  187.1470  177.7690  143.1390 N   0  0  0  0  0  0  0  0  0  0  0  0
  191.3910  176.3780  145.0250 C   0  0  0  0  0  0  0  0  0  0  0  0
  192.0370  176.4960  143.7940 C   0  0  0  0  0  3  0  0  0  0  0  0
  190.0110  177.3980  142.8060 C   0  0  0  0  0  0  0  0  0  0  0  0
  192.0060  177.1230  141.5030 F   0  0  0  0  0  0  0  0  0  0  0  0
  191.3540  177.0040  142.6870 C   0  0  0  0  0  0  0  0  0  0  0  0
  190.0560  176.7640  145.1520 C   0  0  0  0  0  3  0  0  0  0  0  0
  192.0600  175.8920  146.0970 F   0  0  0  0  0  0  0  0  0  0  0  0
  189.3210  177.9940  141.6220 C   0  0  0  0  0  1  0  0  0  0  0  0
  189.3510  177.2620  144.0490 C   0  0  0  0  0  0  0  0  0  0  0  0
  179.4620  179.7410  140.6970 N   0  0  0  0  0  2  0  0  0  0  0  0
  179.1700  181.0240  140.2070 C   0  0  0  0  0  0  0  0  0  0  0  0
  178.9310  182.0820  139.8030 N   0  0  0  0  0  0  0  0  0  0  0  0
  1  7  1  0  0  0  0
  2  9  1  0  0  0  0
  4  3  1  0  0  0  0
  5 14  1  0  0  0  0
  8  3  2  0  0  0  0
  9  6  2  0  0  0  0
 10  9  1  6  0  0  0
 10  8  1  0  0  0  0
 11 18  2  0  0  0  0
 12 13  1  0  0  0  0
 13 15  2  0  0  0  0
 13 16  1  0  0  0  0
 14  7  2  0  0  0  0
 14  6  1  0  0  0  0
 15  5  1  0  0  0  0
 16  1  2  0  0  0  0
 17  4  2  0  0  0  0
 18 10  1  0  0  0  0
 18 17  1  0  0  0  0
 19  5  2  0  0  0  0
 19  2  1  0  0  0  0
 20  2  2  0  0  0  0
 20 11  1  0  0  0  0
 21 26  1  0  0  0  0
 21 27  1  0  0  0  0
 22 21  2  0  0  0  0
 23 29  1  0  0  0  0
 24 25  1  0  0  0  0
 25 23  2  0  0  0  0
 25 22  1  0  0  0  0
 28 23  1  0  0  0  0
 29 11  1  0  0  0  0
 29 26  2  0  0  0  0
 30 16  1  0  0  0  0
 31 30  1  0  0  0  0
 32 31  3  0  0  0  0
M  END
>  <MODEL>
5

>  <REMARK>
 VINA RESULT:      -8.7      4.461      9.053
  Name = 
  3 active torsions:
  status: ('A' for Active; 'I' for Inactive)
    1  A    between atoms: C_1  and  N_10
    2  A    between atoms: N_10  and  C_24
    3  A    between atoms: C_16  and  C_32
                            x       y       z     vdW  Elec       q    Type
                         _______ _______ _______ _____ _____    ______ ____

>  <TORSDO>
F 3

$$$$
=
 OpenBabel10262421333D

 32 36  0  0  1  0  0  0  0  0999 V2000
  192.6920  176.3770  138.2580 C   0  0  0  0  0  3  0  0  0  0  0  0
  188.6870  177.4920  141.5140 C   0  0  0  0  0  0  0  0  0  0  0  0
  191.0260  177.1310  145.8080 C   0  0  0  0  0  3  0  0  0  0  0  0
  189.8810  177.4150  146.4300 C   0  0  0  0  0  3  0  0  0  0  0  0
  189.8420  177.1060  139.4030 C   0  0  0  0  0  0  0  0  0  0  0  0
  191.0430  176.9550  141.5100 C   0  0  0  0  0  3  0  0  0  0  0  0
  192.3470  176.5610  139.5250 C   0  0  0  0  0  3  0  0  0  0  0  0
  191.0610  177.0810  144.3770 N   0  0  0  0  0  0  0  0  0  0  0  0
  189.8780  177.2610  142.2180 C   0  0  0  0  0  0  0  0  0  0  0  0
  189.8680  177.3340  143.6170 C   0  0  1  0  0  3  0  0  0  0  0  0
  187.4980  177.8910  143.5400 C   0  0  0  0  0  0  0  0  0  0  0  0
  189.7960  176.9930  135.3600 S   0  0  0  0  0  1  0  0  0  0  0  0
  190.5910  176.7790  136.9580 C   0  0  0  0  0  0  0  0  0  0  0  0
  191.0450  176.8740  140.1110 C   0  0  0  0  0  0  0  0  0  0  0  0
  189.6860  177.0680  138.0810 C   0  0  0  0  0  3  0  0  0  0  0  0
  191.8920  176.4260  137.0300 C   0  0  0  0  0  0  0  0  0  0  0  0
  188.6610  177.6780  145.6400 C   0  0  0  0  0  3  0  0  0  0  0  0
  188.6690  177.6440  144.2950 C   0  0  0  0  0  0  0  0  0  0  0  0
  188.6800  177.4140  140.1230 C   0  0  0  0  0  3  0  0  0  0  0  0
  187.5440  177.7940  142.1830 N   0  0  0  0  0  0  0  0  0  0  0  0
  184.8890  178.3790  146.2090 C   0  0  0  0  0  0  0  0  0  0  0  0
  183.7840  178.7990  145.4680 C   0  0  0  0  0  3  0  0  0  0  0  0
  185.0790  178.6280  143.4220 C   0  0  0  0  0  0  0  0  0  0  0  0
  182.7820  179.3190  143.3780 F   0  0  0  0  0  0  0  0  0  0  0  0
  183.8740  178.9230  144.0800 C   0  0  0  0  0  0  0  0  0  0  0  0
  186.0910  178.0870  145.5640 C   0  0  0  0  0  3  0  0  0  0  0  0
  184.7950  178.2530  147.5540 F   0  0  0  0  0  0  0  0  0  0  0  0
  185.1310  178.7120  141.9300 C   0  0  0  0  0  1  0  0  0  0  0  0
  186.2040  178.2200  144.1740 C   0  0  0  0  0  0  0  0  0  0  0  0
  192.6350  176.1220  135.8420 N   0  0  0  0  0  2  0  0  0  0  0  0
  194.0090  176.3780  135.7110 C   0  0  0  0  0  0  0  0  0  0  0  0
  195.1420  176.5880  135.6030 N   0  0  0  0  0  0  0  0  0  0  0  0
  1  7  1  0  0  0  0
  2 20  2  0  0  0  0
  2  9  1  0  0  0  0
  3  4  1  0  0  0  0
  5 14  1  0  0  0  0
  5 19  2  0  0  0  0
  6  9  2  0  0  0  0
  7 14  2  0  0  0  0
  8  3  2  0  0  0  0
 10  9  1  1  0  0  0
 10 18  1  0  0  0  0
 10  8  1  0  0  0  0
 11 29  1  0  0  0  0
 11 18  2  0  0  0  0
 12 13  1  0  0  0  0
 13 16  1  0  0  0  0
 13 15  2  0  0  0  0
 14  6  1  0  0  0  0
 15  5  1  0  0  0  0
 16  1  2  0  0  0  0
 17  4  2  0  0  0  0
 18 17  1  0  0  0  0
 19  2  1  0  0  0  0
 20 11  1  0  0  0  0
 21 27  1  0  0  0  0
 22 21  2  0  0  0  0
 23 25  2  0  0  0  0
 23 29  1  0  0  0  0
 24 25  1  0  0  0  0
 25 22  1  0  0  0  0
 26 21  1  0  0  0  0
 28 23  1  0  0  0  0
 29 26  2  0  0  0  0
 30 16  1  0  0  0  0
 31 30  1  0  0  0  0
 32 31  3  0  0  0  0
M  END
>  <MODEL>
6

>  <REMARK>
 VINA RESULT:      -8.7      5.684      8.961
  Name = 
  3 active torsions:
  status: ('A' for Active; 'I' for Inactive)
    1  A    between atoms: C_1  and  N_10
    2  A    between atoms: N_10  and  C_24
    3  A    between atoms: C_16  and  C_32
                            x       y       z     vdW  Elec       q    Type
                         _______ _______ _______ _____ _____    ______ ____

>  <TORSDO>
F 3

$$$$
=
 OpenBabel10262421333D

 32 36  0  0  1  0  0  0  0  0999 V2000
  180.6280  179.1680  141.6840 C   0  0  0  0  0  3  0  0  0  0  0  0
  185.7410  178.3310  142.7040 C   0  0  0  0  0  0  0  0  0  0  0  0
  185.6080  178.4580  147.6030 C   0  0  0  0  0  3  0  0  0  0  0  0
  186.9260  178.2570  147.6220 C   0  0  0  0  0  3  0  0  0  0  0  0
  183.7250  178.6500  141.3700 C   0  0  0  0  0  0  0  0  0  0  0  0
  183.6150  178.6830  143.7970 C   0  0  0  0  0  3  0  0  0  0  0  0
  181.5250  178.9970  142.6450 C   0  0  0  0  0  3  0  0  0  0  0  0
  184.9190  178.5220  146.3490 N   0  0  0  0  0  0  0  0  0  0  0  0
  184.9920  178.4600  143.8830 C   0  0  0  0  0  0  0  0  0  0  0  0
  185.6450  178.3720  145.1190 C   0  0  1  0  0  3  0  0  0  0  0  0
  187.7480  178.0030  143.9450 C   0  0  0  0  0  0  0  0  0  0  0  0
  181.9090  178.8140  137.7610 S   0  0  0  0  0  1  0  0  0  0  0  0
  181.9220  178.9470  139.5530 C   0  0  0  0  0  0  0  0  0  0  0  0
  182.9680  178.7800  142.5580 C   0  0  0  0  0  0  0  0  0  0  0  0
  183.2570  178.7160  140.1260 C   0  0  0  0  0  3  0  0  0  0  0  0
  180.7780  179.1960  140.2260 C   0  0  0  0  0  0  0  0  0  0  0  0
  187.6630  178.0990  146.3510 C   0  0  0  0  0  3  0  0  0  0  0  0
  187.0390  178.1480  145.1610 C   0  0  0  0  0  0  0  0  0  0  0  0
  185.1050  178.4260  141.4670 C   0  0  0  0  0  3  0  0  0  0  0  0
  187.0800  178.1120  142.7630 N   0  0  0  0  0  0  0  0  0  0  0  0
  191.4460  178.6860  144.0950 C   0  0  0  0  0  0  0  0  0  0  0  0
  191.9900  177.4300  143.8240 C   0  0  0  0  0  3  0  0  0  0  0  0
  189.7580  176.5000  143.6110 C   0  0  0  0  0  0  0  0  0  0  0  0
  191.7030  175.1310  143.3050 F   0  0  0  0  0  0  0  0  0  0  0  0
  191.1530  176.3390  143.5810 C   0  0  0  0  0  0  0  0  0  0  0  0
  190.0620  178.8540  144.1310 C   0  0  0  0  0  3  0  0  0  0  0  0
  192.2620  179.7430  144.3230 F   0  0  0  0  0  0  0  0  0  0  0  0
  188.8850  175.3300  143.2890 C   0  0  0  0  0  1  0  0  0  0  0  0
  189.2070  177.7680  143.9040 C   0  0  0  0  0  0  0  0  0  0  0  0
  179.5570  179.4550  139.5220 N   0  0  0  0  0  2  0  0  0  0  0  0
  179.2130  180.7220  139.0230 C   0  0  0  0  0  0  0  0  0  0  0  0
  178.9310  181.7660  138.6130 N   0  0  0  0  0  0  0  0  0  0  0  0
  1  7  1  0  0  0  0
  2 20  2  0  0  0  0
  2  9  1  0  0  0  0
  3  4  1  0  0  0  0
  5 19  2  0  0  0  0
  5 14  1  0  0  0  0
  6  9  2  0  0  0  0
  8  3  2  0  0  0  0
 10  9  1  6  0  0  0
 10 18  1  0  0  0  0
 10  8  1  0  0  0  0
 11 18  2  0  0  0  0
 12 13  1  0  0  0  0
 13 15  2  0  0  0  0
 13 16  1  0  0  0  0
 14  7  2  0  0  0  0
 14  6  1  0  0  0  0
 15  5  1  0  0  0  0
 16  1  2  0  0  0  0
 17  4  2  0  0  0  0
 18 17  1  0  0  0  0
 19  2  1  0  0  0  0
 20 11  1  0  0  0  0
 21 26  1  0  0  0  0
 21 27  1  0  0  0  0
 22 21  2  0  0  0  0
 23 29  1  0  0  0  0
 24 25  1  0  0  0  0
 25 23  2  0  0  0  0
 25 22  1  0  0  0  0
 28 23  1  0  0  0  0
 29 11  1  0  0  0  0
 29 26  2  0  0  0  0
 30 16  1  0  0  0  0
 31 30  1  0  0  0  0
 32 31  3  0  0  0  0
M  END
>  <MODEL>
7

>  <REMARK>
 VINA RESULT:      -8.6      4.454      9.140
  Name = 
  3 active torsions:
  status: ('A' for Active; 'I' for Inactive)
    1  A    between atoms: C_1  and  N_10
    2  A    between atoms: N_10  and  C_24
    3  A    between atoms: C_16  and  C_32
                            x       y       z     vdW  Elec       q    Type
                         _______ _______ _______ _____ _____    ______ ____

>  <TORSDO>
F 3

$$$$
=
 OpenBabel10262421333D

 32 36  0  0  0  0  0  0  0  0999 V2000
  186.8320  178.2710  144.1550 C   0  0  0  0  0  3  0  0  0  0  0  0
  190.0540  176.7220  140.2680 C   0  0  0  0  0  0  0  0  0  0  0  0
  187.3690  178.1100  136.4070 C   0  0  0  0  0  3  0  0  0  0  0  0
  188.3180  177.6270  135.6020 C   0  0  0  0  0  3  0  0  0  0  0  0
  189.2700  177.0700  142.5500 C   0  0  0  0  0  0  0  0  0  0  0  0
  187.9290  177.8050  140.6610 C   0  0  0  0  0  3  0  0  0  0  0  0
  187.0080  178.2470  142.8410 C   0  0  0  0  0  3  0  0  0  0  0  0
  187.5390  178.0340  137.8270 N   0  0  0  0  0  0  0  0  0  0  0  0
  188.8930  177.3300  139.7670 C   0  0  0  0  0  0  0  0  0  0  0  0
  188.7240  177.4390  138.3810 C   0  0  0  0  0  0  0  0  0  0  0  0
  190.8840  176.3590  138.0640 C   0  0  0  0  0  0  0  0  0  0  0  0
  189.8770  176.7850  146.5380 S   0  0  0  0  0  1  0  0  0  0  0  0
  188.8860  177.1910  145.0960 C   0  0  0  0  0  0  0  0  0  0  0  0
  188.1000  177.6850  142.0470 C   0  0  0  0  0  0  0  0  0  0  0  0
  189.5750  176.8860  143.8330 C   0  0  0  0  0  3  0  0  0  0  0  0
  187.6640  177.7490  145.2430 C   0  0  0  0  0  0  0  0  0  0  0  0
  189.5340  177.0220  136.1820 C   0  0  0  0  0  3  0  0  0  0  0  0
  189.7210  176.9450  137.5120 C   0  0  0  0  0  0  0  0  0  0  0  0
  190.2310  176.6000  141.6450 C   0  0  0  0  0  3  0  0  0  0  0  0
  191.0040  176.2560  139.4170 N   0  0  0  0  0  2  0  0  0  0  0  0
  194.0960  176.1960  136.1090 C   0  0  0  0  0  0  0  0  0  0  0  0
  194.0760  174.8910  135.6150 C   0  0  0  0  0  3  0  0  0  0  0  0
  191.9430  174.5010  136.7080 C   0  0  0  0  0  0  0  0  0  0  0  0
  192.9990  172.7840  135.4070 F   0  0  0  0  0  0  0  0  0  0  0  0
  193.0050  174.0440  135.9100 C   0  0  0  0  0  0  0  0  0  0  0  0
  193.0470  176.6570  136.9050 C   0  0  0  0  0  3  0  0  0  0  0  0
  195.1330  177.0160  135.8130 F   0  0  0  0  0  0  0  0  0  0  0  0
  190.7810  173.5950  136.9600 C   0  0  0  0  0  1  0  0  0  0  0  0
  191.9730  175.8170  137.2230 C   0  0  0  0  0  0  0  0  0  0  0  0
  187.0990  177.9370  146.5470 N   0  0  0  0  0  2  0  0  0  0  0  0
  185.7570  178.2960  146.7560 C   0  0  0  0  0  0  0  0  0  0  0  0
  184.6520  178.5910  146.9280 N   0  0  0  0  0  0  0  0  0  0  0  0
  1 16  1  0  0  0  0
  2 19  2  0  0  0  0
  3  8  2  0  0  0  0
  4 17  2  0  0  0  0
  4  3  1  0  0  0  0
  5 15  2  0  0  0  0
  6 14  2  0  0  0  0
  7  1  2  0  0  0  0
  8 10  1  0  0  0  0
  9  2  1  0  0  0  0
  9  6  1  0  0  0  0
 10  9  2  0  0  0  0
 11 20  1  0  0  0  0
 13 16  2  0  0  0  0
 13 12  1  0  0  0  0
 14  5  1  0  0  0  0
 14  7  1  0  0  0  0
 15 13  1  0  0  0  0
 16 30  1  0  0  0  0
 17 18  1  0  0  0  0
 18 11  2  0  0  0  0
 18 10  1  0  0  0  0
 19  5  1  0  0  0  0
 20  2  1  0  0  0  0
 21 26  1  0  0  0  0
 22 25  1  0  0  0  0
 22 21  2  0  0  0  0
 23 28  1  0  0  0  0
 23 29  1  0  0  0  0
 24 25  1  0  0  0  0
 25 23  2  0  0  0  0
 26 29  2  0  0  0  0
 27 21  1  0  0  0  0
 29 11  1  0  0  0  0
 30 31  1  0  0  0  0
 31 32  3  0  0  0  0
M  END
>  <MODEL>
8

>  <REMARK>
 VINA RESULT:      -8.3      6.631      8.953
  Name = 
  3 active torsions:
  status: ('A' for Active; 'I' for Inactive)
    1  A    between atoms: C_1  and  N_10
    2  A    between atoms: N_10  and  C_24
    3  A    between atoms: C_16  and  C_32
                            x       y       z     vdW  Elec       q    Type
                         _______ _______ _______ _____ _____    ______ ____

>  <TORSDO>
F 3

$$$$
=
 OpenBabel10262421333D

 32 36  0  0  0  0  0  0  0  0999 V2000
  188.6300  177.9530  145.6670 C   0  0  0  0  0  3  0  0  0  0  0  0
  190.4130  176.5140  140.9090 C   0  0  0  0  0  0  0  0  0  0  0  0
  186.8950  178.4760  138.1130 C   0  0  0  0  0  3  0  0  0  0  0  0
  187.5140  177.9930  137.0350 C   0  0  0  0  0  3  0  0  0  0  0  0
  190.3610  176.7100  143.3380 C   0  0  0  0  0  0  0  0  0  0  0  0
  188.6200  177.7270  141.9830 C   0  0  0  0  0  3  0  0  0  0  0  0
  188.4170  178.0380  144.3610 C   0  0  0  0  0  3  0  0  0  0  0  0
  187.4570  178.2530  139.4110 N   0  0  0  0  0  0  0  0  0  0  0  0
  189.2290  177.2600  140.8150 C   0  0  0  0  0  0  0  0  0  0  0  0
  188.6810  177.5120  139.5500 C   0  0  0  0  0  0  0  0  0  0  0  0
  190.5300  176.2910  138.5400 C   0  0  0  0  0  0  0  0  0  0  0  0
  192.0550  176.0030  146.9410 S   0  0  0  0  0  1  0  0  0  0  0  0
  190.7400  176.6240  145.8860 C   0  0  0  0  0  0  0  0  0  0  0  0
  189.1670  177.4650  143.2450 C   0  0  0  0  0  0  0  0  0  0  0  0
  191.0000  176.3820  144.4590 C   0  0  0  0  0  3  0  0  0  0  0  0
  189.6800  177.2650  146.4240 C   0  0  0  0  0  0  0  0  0  0  0  0
  188.7740  177.2370  137.1880 C   0  0  0  0  0  3  0  0  0  0  0  0
  189.3260  177.0200  138.3950 C   0  0  0  0  0  0  0  0  0  0  0  0
  190.9640  176.2490  142.1610 C   0  0  0  0  0  3  0  0  0  0  0  0
  191.0230  176.0520  139.7870 N   0  0  0  0  0  2  0  0  0  0  0  0
  193.0690  176.0030  135.7760 C   0  0  0  0  0  0  0  0  0  0  0  0
  192.7120  174.7970  135.1710 C   0  0  0  0  0  3  0  0  0  0  0  0
  190.8930  174.5300  136.7570 C   0  0  0  0  0  0  0  0  0  0  0  0
  191.2900  172.8990  135.0430 F   0  0  0  0  0  0  0  0  0  0  0  0
  191.6280  174.0610  135.6560 C   0  0  0  0  0  0  0  0  0  0  0  0
  192.3460  176.4740  136.8720 C   0  0  0  0  0  3  0  0  0  0  0  0
  194.1150  176.7170  135.2970 F   0  0  0  0  0  0  0  0  0  0  0  0
  189.7020  173.7530  137.2180 C   0  0  0  0  0  1  0  0  0  0  0  0
  191.2660  175.7420  137.3810 C   0  0  0  0  0  0  0  0  0  0  0  0
  189.5370  177.3760  147.8460 N   0  0  0  0  0  2  0  0  0  0  0  0
  188.3710  177.8570  148.4640 C   0  0  0  0  0  0  0  0  0  0  0  0
  187.4100  178.2530  148.9730 N   0  0  0  0  0  0  0  0  0  0  0  0
  1 16  1  0  0  0  0
  2 19  2  0  0  0  0
  3  8  2  0  0  0  0
  4 17  2  0  0  0  0
  4  3  1  0  0  0  0
  5 15  2  0  0  0  0
  6 14  2  0  0  0  0
  7  1  2  0  0  0  0
  8 10  1  0  0  0  0
  9  2  1  0  0  0  0
  9  6  1  0  0  0  0
 10  9  2  0  0  0  0
 11 20  1  0  0  0  0
 13 16  2  0  0  0  0
 13 12  1  0  0  0  0
 14  5  1  0  0  0  0
 14  7  1  0  0  0  0
 15 13  1  0  0  0  0
 16 30  1  0  0  0  0
 17 18  1  0  0  0  0
 18 11  2  0  0  0  0
 18 10  1  0  0  0  0
 19  5  1  0  0  0  0
 20  2  1  0  0  0  0
 21 26  1  0  0  0  0
 22 25  1  0  0  0  0
 22 21  2  0  0  0  0
 23 28  1  0  0  0  0
 23 29  1  0  0  0  0
 24 25  1  0  0  0  0
 25 23  2  0  0  0  0
 26 29  2  0  0  0  0
 27 21  1  0  0  0  0
 29 11  1  0  0  0  0
 30 31  1  0  0  0  0
 31 32  3  0  0  0  0
M  END
>  <MODEL>
9

>  <REMARK>
 VINA RESULT:      -8.1      6.080      8.349
  Name = 
  3 active torsions:
  status: ('A' for Active; 'I' for Inactive)
    1  A    between atoms: C_1  and  N_10
    2  A    between atoms: N_10  and  C_24
    3  A    between atoms: C_16  and  C_32
                            x       y       z     vdW  Elec       q    Type
                         _______ _______ _______ _____ _____    ______ ____

>  <TORSDO>
F 3

$$$$
