=
 OpenBabel10262421503D

 30 34  0  0  1  0  0  0  0  0999 V2000
  183.6550  178.7320  139.4020 C   0  0  0  0  0  2  0  0  0  0  0  0
  184.7740  178.4400  142.4780 C   0  0  0  0  0  0  0  0  0  0  0  0
  178.9310  179.7190  139.6680 C   0  0  0  0  0  2  0  0  0  0  0  0
  183.5680  178.1190  138.0100 C   0  0  0  0  0  2  0  0  0  0  0  0
  183.4290  177.6950  140.4900 C   0  0  0  0  0  2  0  0  0  0  0  0
  184.7320  174.7570  135.6900 C   0  0  0  0  0  2  0  0  0  0  0  0
  179.4670  175.9790  137.6130 O   0  0  0  0  0  0  0  0  0  0  0  0
  184.7320  177.1660  137.7170 C   0  0  1  0  0  0  0  0  0  0  0  0
  183.8880  175.1820  136.8750 C   0  0  0  0  0  0  0  0  0  0  0  0
  179.9840  178.7020  139.2130 C   0  0  0  0  0  2  0  0  0  0  0  0
  178.9740  180.0710  141.1610 C   0  0  0  0  0  2  0  0  0  0  0  0
  184.5690  175.7820  137.9590 O   0  0  0  0  0  0  0  0  0  0  0  0
  185.4200  177.4580  136.5240 O   0  0  0  0  0  0  0  0  0  0  0  0
  184.8890  179.1320  143.6410 N   0  0  0  0  0  0  0  0  0  0  0  0
  180.5490  175.7540  138.2170 C   0  0  0  0  0  0  0  0  0  0  0  0
  180.8600  176.4290  139.4350 N   0  0  0  0  0  2  0  0  0  0  0  0
  184.2580  173.7240  136.7010 C   0  0  0  0  0  2  0  0  0  0  0  0
  185.9290  177.8240  141.9170 N   0  0  0  0  0  1  0  0  0  0  0  0
  182.4250  178.9950  142.4330 C   0  0  0  0  0  0  0  0  0  0  0  0
  183.8170  179.7530  144.1950 C   0  0  0  0  0  3  0  0  0  0  0  0
  182.4140  175.4930  136.6300 C   0  0  0  0  0  2  0  0  0  0  0  0
  183.5300  178.3520  141.8350 C   0  0  0  0  0  0  0  0  0  0  0  0
  180.4440  177.6090  141.5170 C   0  0  0  0  0  2  0  0  0  0  0  0
  180.3670  180.0730  141.7190 C   0  0  0  0  0  3  0  0  0  0  0  0
  179.9950  177.4190  140.0550 C   0  0  1  0  0  3  0  0  0  0  0  0
  181.5320  174.7940  137.6520 C   0  0  0  0  0  2  0  0  0  0  0  0
  186.1430  177.6370  137.7220 C   0  0  1  0  0  3  0  0  0  0  0  0
  182.6040  179.6850  143.5920 N   0  0  0  0  0  0  0  0  0  0  0  0
  181.0720  178.9440  141.8440 C   0  0  0  0  0  0  0  0  0  0  0  0
  186.2420  179.0030  137.9950 O   0  0  0  0  0  1  0  0  0  0  0  0
  1  5  1  0  0  0  0
  2 14  1  0  0  0  0
  3 11  1  0  0  0  0
  4  1  1  0  0  0  0
  5 22  1  0  0  0  0
  6 17  1  0  0  0  0
  6  9  1  0  0  0  0
  7 15  2  0  0  0  0
  8 27  1  0  0  0  0
  8 12  1  0  0  0  0
  8  4  1  1  0  0  0
  9 12  1  0  0  0  0
 10  3  1  0  0  0  0
 11 24  1  0  0  0  0
 13  8  1  0  0  0  0
 13 27  1  0  0  0  0
 14 20  2  0  0  0  0
 15 16  1  0  0  0  0
 16 25  1  0  0  0  0
 17  9  1  0  0  0  0
 18  2  1  0  0  0  0
 19 28  2  0  0  0  0
 21  9  1  0  0  0  0
 21 26  1  0  0  0  0
 22 19  1  0  0  0  0
 22  2  2  0  0  0  0
 23 29  1  0  0  0  0
 24 29  2  0  0  0  0
 25 10  1  6  0  0  0
 25 23  1  0  0  0  0
 26 15  1  0  0  0  0
 27 30  1  1  0  0  0
 28 20  1  0  0  0  0
 29 19  1  0  0  0  0
M  END
>  <MODEL>
1

>  <REMARK>
 VINA RESULT:      -5.9      0.000      0.000
  Name = 
  0 active torsions:
  status: ('A' for Active; 'I' for Inactive)
                            x       y       z     vdW  Elec       q    Type
                         _______ _______ _______ _____ _____    ______ ____

>  <TORSDO>
F 0

$$$$
=
 OpenBabel10262421503D

 30 34  0  0  1  0  0  0  0  0999 V2000
  184.9640  176.9880  136.0130 C   0  0  0  0  0  2  0  0  0  0  0  0
  184.7600  178.8580  138.7070 C   0  0  0  0  0  0  0  0  0  0  0  0
  180.4580  175.7850  134.7420 C   0  0  0  0  0  2  0  0  0  0  0  0
  185.6020  175.7780  135.3420 C   0  0  0  0  0  2  0  0  0  0  0  0
  184.5640  176.6920  137.4490 C   0  0  0  0  0  2  0  0  0  0  0  0
  188.3700  172.6130  135.9470 C   0  0  0  0  0  2  0  0  0  0  0  0
  182.6540  172.2060  135.6730 O   0  0  0  0  0  0  0  0  0  0  0  0
  186.9720  175.4350  135.9360 C   0  0  1  0  0  0  0  0  0  0  0  0
  187.0400  173.1710  136.4150 C   0  0  0  0  0  0  0  0  0  0  0  0
  181.8130  175.2620  135.2350 C   0  0  0  0  0  2  0  0  0  0  0  0
  179.8020  176.8370  135.6460 C   0  0  0  0  0  2  0  0  0  0  0  0
  187.0560  174.4720  136.9690 O   0  0  0  0  0  0  0  0  0  0  0  0
  187.9980  175.3320  134.9770 O   0  0  0  0  0  0  0  0  0  0  0  0
  184.2230  180.0200  139.1600 N   0  0  0  0  0  0  0  0  0  0  0  0
  183.4140  172.8270  136.4630 C   0  0  0  0  0  0  0  0  0  0  0  0
  183.0310  174.0910  137.0040 N   0  0  0  0  0  2  0  0  0  0  0  0
  187.7820  172.1720  137.2780 C   0  0  0  0  0  2  0  0  0  0  0  0
  186.1530  178.6200  138.8850 N   0  0  0  0  0  1  0  0  0  0  0  0
  182.5770  178.2150  137.9020 C   0  0  0  0  0  0  0  0  0  0  0  0
  182.9040  180.2950  138.9910 C   0  0  0  0  0  3  0  0  0  0  0  0
  185.7680  172.6280  135.7710 C   0  0  0  0  0  2  0  0  0  0  0  0
  183.9470  177.9160  138.0580 C   0  0  0  0  0  0  0  0  0  0  0  0
  181.5330  175.8550  137.7410 C   0  0  0  0  0  2  0  0  0  0  0  0
  180.8010  177.7370  136.3120 C   0  0  0  0  0  3  0  0  0  0  0  0
  181.7800  174.7610  136.6850 C   0  0  1  0  0  3  0  0  0  0  0  0
  184.7380  172.2590  136.8250 C   0  0  0  0  0  2  0  0  0  0  0  0
  188.1030  176.4010  135.8920 C   0  0  1  0  0  3  0  0  0  0  0  0
  182.0980  179.4010  138.3650 N   0  0  0  0  0  0  0  0  0  0  0  0
  181.6380  177.2800  137.2500 C   0  0  0  0  0  0  0  0  0  0  0  0
  187.7560  177.5890  135.2460 O   0  0  0  0  0  1  0  0  0  0  0  0
  1  5  1  0  0  0  0
  2 18  1  0  0  0  0
  2 14  1  0  0  0  0
  3 10  1  0  0  0  0
  3 11  1  0  0  0  0
  4  1  1  0  0  0  0
  5 22  1  0  0  0  0
  6  9  1  0  0  0  0
  6 17  1  0  0  0  0
  7 15  2  0  0  0  0
  8  4  1  6  0  0  0
  8 12  1  0  0  0  0
  9 12  1  0  0  0  0
  9 17  1  0  0  0  0
 11 24  1  0  0  0  0
 13 27  1  0  0  0  0
 13  8  1  0  0  0  0
 15 26  1  0  0  0  0
 15 16  1  0  0  0  0
 19 22  1  0  0  0  0
 19 28  2  0  0  0  0
 20 14  2  0  0  0  0
 21  9  1  0  0  0  0
 21 26  1  0  0  0  0
 22  2  2  0  0  0  0
 24 29  2  0  0  0  0
 25 10  1  6  0  0  0
 25 16  1  0  0  0  0
 25 23  1  0  0  0  0
 27 30  1  6  0  0  0
 27  8  1  0  0  0  0
 28 20  1  0  0  0  0
 29 23  1  0  0  0  0
 29 19  1  0  0  0  0
M  END
>  <MODEL>
2

>  <REMARK>
 VINA RESULT:      -5.8      3.222      4.468
  Name = 
  0 active torsions:
  status: ('A' for Active; 'I' for Inactive)
                            x       y       z     vdW  Elec       q    Type
                         _______ _______ _______ _____ _____    ______ ____

>  <TORSDO>
F 0

$$$$
=
 OpenBabel10262421503D

 30 34  0  0  1  0  0  0  0  0999 V2000
  189.5490  175.8550  136.3580 C   0  0  0  0  0  2  0  0  0  0  0  0
  188.7250  172.6830  136.1250 C   0  0  0  0  0  0  0  0  0  0  0  0
  194.2960  176.1830  135.5050 C   0  0  0  0  0  2  0  0  0  0  0  0
  189.4900  177.1340  137.1840 C   0  0  0  0  0  2  0  0  0  0  0  0
  189.8580  174.6410  137.2190 C   0  0  0  0  0  2  0  0  0  0  0  0
  188.0440  178.7720  140.8270 C   0  0  0  0  0  2  0  0  0  0  0  0
  193.4920  177.5590  139.5000 O   0  0  0  0  0  0  0  0  0  0  0  0
  188.2850  177.1630  138.1310 C   0  0  1  0  0  0  0  0  0  0  0  0
  189.0060  177.7520  140.2500 C   0  0  0  0  0  0  0  0  0  0  0  0
  193.1840  176.3720  136.5450 C   0  0  0  0  0  2  0  0  0  0  0  0
  194.4030  174.7680  134.9220 C   0  0  0  0  0  2  0  0  0  0  0  0
  188.4430  176.7200  139.4650 O   0  0  0  0  0  0  0  0  0  0  0  0
  187.4920  178.3200  138.0060 O   0  0  0  0  0  0  0  0  0  0  0  0
  188.7350  171.6400  135.2560 N   0  0  0  0  0  0  0  0  0  0  0  0
  192.4690  176.8300  139.5900 C   0  0  0  0  0  0  0  0  0  0  0  0
  192.2880  175.7120  138.7230 N   0  0  0  0  0  2  0  0  0  0  0  0
  188.5920  177.6580  141.7040 C   0  0  0  0  0  2  0  0  0  0  0  0
  187.5090  173.0300  136.7820 N   0  0  0  0  0  1  0  0  0  0  0  0
  191.0690  173.0300  135.6660 C   0  0  0  0  0  0  0  0  0  0  0  0
  189.8670  171.2920  134.5940 C   0  0  0  0  0  3  0  0  0  0  0  0
  190.4560  178.1770  140.0330 C   0  0  0  0  0  2  0  0  0  0  0  0
  189.9000  173.4150  136.3560 C   0  0  0  0  0  0  0  0  0  0  0  0
  192.9260  173.8920  137.2460 C   0  0  0  0  0  2  0  0  0  0  0  0
  193.0700  174.0930  134.7850 C   0  0  0  0  0  3  0  0  0  0  0  0
  193.2290  175.3390  137.6780 C   0  0  1  0  0  3  0  0  0  0  0  0
  191.4170  177.1420  140.5930 C   0  0  0  0  0  2  0  0  0  0  0  0
  186.8910  177.1040  137.6160 C   0  0  1  0  0  3  0  0  0  0  0  0
  191.0160  171.9850  134.7980 N   0  0  0  0  0  0  0  0  0  0  0  0
  192.3580  173.7260  135.8550 C   0  0  0  0  0  0  0  0  0  0  0  0
  186.8460  177.0440  136.2220 O   0  0  0  0  0  1  0  0  0  0  0  0
  1  4  1  0  0  0  0
  1  5  1  0  0  0  0
  2 22  1  0  0  0  0
  2 18  1  0  0  0  0
  3 10  1  0  0  0  0
  6 17  1  0  0  0  0
  7 15  2  0  0  0  0
  8  4  1  6  0  0  0
  8 12  1  0  0  0  0
  9  6  1  0  0  0  0
  9 17  1  0  0  0  0
 11  3  1  0  0  0  0
 12  9  1  0  0  0  0
 13  8  1  0  0  0  0
 14  2  2  0  0  0  0
 15 26  1  0  0  0  0
 16 15  1  0  0  0  0
 19 29  1  0  0  0  0
 19 22  2  0  0  0  0
 20 28  2  0  0  0  0
 20 14  1  0  0  0  0
 21  9  1  0  0  0  0
 21 26  1  0  0  0  0
 22  5  1  0  0  0  0
 23 25  1  0  0  0  0
 24 11  1  0  0  0  0
 24 29  2  0  0  0  0
 25 10  1  6  0  0  0
 25 16  1  0  0  0  0
 27 30  1  6  0  0  0
 27 13  1  0  0  0  0
 27  8  1  0  0  0  0
 28 19  1  0  0  0  0
 29 23  1  0  0  0  0
M  END
>  <MODEL>
3

>  <REMARK>
 VINA RESULT:      -5.5      6.251     10.857
  Name = 
  0 active torsions:
  status: ('A' for Active; 'I' for Inactive)
                            x       y       z     vdW  Elec       q    Type
                         _______ _______ _______ _____ _____    ______ ____

>  <TORSDO>
F 0

$$$$
=
 OpenBabel10262421503D

 30 34  0  0  1  0  0  0  0  0999 V2000
  183.8680  176.9240  138.5680 C   0  0  0  0  0  2  0  0  0  0  0  0
  187.0700  177.3790  137.9830 C   0  0  0  0  0  0  0  0  0  0  0  0
  182.1690  173.9970  135.1160 C   0  0  0  0  0  2  0  0  0  0  0  0
  182.5160  177.5670  138.8510 C   0  0  0  0  0  2  0  0  0  0  0  0
  184.6250  177.6600  137.4740 C   0  0  0  0  0  2  0  0  0  0  0  0
  180.5650  181.3030  139.3760 C   0  0  0  0  0  2  0  0  0  0  0  0
  180.1390  177.7800  134.8680 O   0  0  0  0  0  0  0  0  0  0  0  0
  182.6510  178.9480  139.5020 C   0  0  1  0  0  0  0  0  0  0  0  0
  181.3070  180.4510  138.3660 C   0  0  0  0  0  0  0  0  0  0  0  0
  182.1030  175.4030  135.7230 C   0  0  0  0  0  2  0  0  0  0  0  0
  183.5620  173.5610  134.6440 C   0  0  0  0  0  2  0  0  0  0  0  0
  182.6390  180.1020  138.6840 O   0  0  0  0  0  0  0  0  0  0  0  0
  181.9160  179.0880  140.6950 O   0  0  0  0  0  0  0  0  0  0  0  0
  188.2370  176.6980  137.8560 N   0  0  0  0  0  0  0  0  0  0  0  0
  181.1220  178.3880  135.3680 C   0  0  0  0  0  0  0  0  0  0  0  0
  182.4230  177.8020  135.3650 N   0  0  0  0  0  2  0  0  0  0  0  0
  181.1450  181.9370  138.1220 C   0  0  0  0  0  2  0  0  0  0  0  0
  186.9990  178.4780  138.8870 N   0  0  0  0  0  1  0  0  0  0  0  0
  186.0730  175.8830  136.3720 C   0  0  0  0  0  0  0  0  0  0  0  0
  188.3380  175.6310  137.0230 C   0  0  0  0  0  3  0  0  0  0  0  0
  180.4840  179.5650  137.4340 C   0  0  0  0  0  2  0  0  0  0  0  0
  185.9440  176.9870  137.2410 C   0  0  0  0  0  0  0  0  0  0  0  0
  184.2370  176.3690  134.6180 C   0  0  0  0  0  2  0  0  0  0  0  0
  184.6650  174.1010  135.5060 C   0  0  0  0  0  3  0  0  0  0  0  0
  182.7150  176.4850  134.8220 C   0  0  1  0  0  3  0  0  0  0  0  0
  180.9350  179.7240  135.9910 C   0  0  0  0  0  2  0  0  0  0  0  0
  183.3210  179.1250  140.8180 C   0  0  1  0  0  3  0  0  0  0  0  0
  187.2650  175.2310  136.2960 N   0  0  0  0  0  0  0  0  0  0  0  0
  184.9540  175.4060  135.5360 C   0  0  0  0  0  0  0  0  0  0  0  0
  183.7630  177.9130  141.3520 O   0  0  0  0  0  1  0  0  0  0  0  0
  1  4  1  0  0  0  0
  2 18  1  0  0  0  0
  3 10  1  0  0  0  0
  5  1  1  0  0  0  0
  7 15  2  0  0  0  0
  8  4  1  6  0  0  0
  8 13  1  0  0  0  0
  8 27  1  0  0  0  0
  9 12  1  0  0  0  0
  9  6  1  0  0  0  0
 11  3  1  0  0  0  0
 11 24  1  0  0  0  0
 12  8  1  0  0  0  0
 13 27  1  0  0  0  0
 14  2  1  0  0  0  0
 15 26  1  0  0  0  0
 16 15  1  0  0  0  0
 17  9  1  0  0  0  0
 17  6  1  0  0  0  0
 19 22  1  0  0  0  0
 20 14  2  0  0  0  0
 21  9  1  0  0  0  0
 22  5  1  0  0  0  0
 22  2  2  0  0  0  0
 23 29  1  0  0  0  0
 24 29  2  0  0  0  0
 25 23  1  1  0  0  0
 25 16  1  0  0  0  0
 25 10  1  0  0  0  0
 26 21  1  0  0  0  0
 27 30  1  1  0  0  0
 28 19  2  0  0  0  0
 28 20  1  0  0  0  0
 29 19  1  0  0  0  0
M  END
>  <MODEL>
4

>  <REMARK>
 VINA RESULT:      -5.4      2.937      6.386
  Name = 
  0 active torsions:
  status: ('A' for Active; 'I' for Inactive)
                            x       y       z     vdW  Elec       q    Type
                         _______ _______ _______ _____ _____    ______ ____

>  <TORSDO>
F 0

$$$$
=
 OpenBabel10262421503D

 30 34  0  0  1  0  0  0  0  0999 V2000
  183.6620  177.9280  138.2500 C   0  0  0  0  0  2  0  0  0  0  0  0
  182.6320  174.8790  137.5810 C   0  0  0  0  0  0  0  0  0  0  0  0
  187.5540  178.7750  135.5130 C   0  0  0  0  0  2  0  0  0  0  0  0
  184.0500  178.9390  139.3210 C   0  0  0  0  0  2  0  0  0  0  0  0
  184.2460  176.5540  138.5340 C   0  0  0  0  0  2  0  0  0  0  0  0
  184.4600  179.4720  143.5150 C   0  0  0  0  0  2  0  0  0  0  0  0
  188.6800  179.0040  139.6570 O   0  0  0  0  0  0  0  0  0  0  0  0
  183.3910  178.6420  140.6730 C   0  0  1  0  0  0  0  0  0  0  0  0
  185.0060  178.7030  142.3290 C   0  0  0  0  0  0  0  0  0  0  0  0
  187.0290  178.6130  136.9440 C   0  0  0  0  0  2  0  0  0  0  0  0
  187.3090  177.5710  134.5940 C   0  0  0  0  0  2  0  0  0  0  0  0
  184.0950  177.8780  141.6320 O   0  0  0  0  0  0  0  0  0  0  0  0
  182.6930  179.7370  141.2180 O   0  0  0  0  0  0  0  0  0  0  0  0
  182.1960  174.1030  136.5560 N   0  0  0  0  0  0  0  0  0  0  0  0
  187.7600  178.2120  139.9940 C   0  0  0  0  0  0  0  0  0  0  0  0
  187.1500  177.3500  139.0350 N   0  0  0  0  0  2  0  0  0  0  0  0
  185.2720  178.2050  143.7340 C   0  0  0  0  0  2  0  0  0  0  0  0
  181.8550  174.9630  138.7710 N   0  0  0  0  0  1  0  0  0  0  0  0
  184.5500  175.4870  136.2450 C   0  0  0  0  0  0  0  0  0  0  0  0
  182.8970  174.0140  135.3970 C   0  0  0  0  0  3  0  0  0  0  0  0
  186.2330  179.2630  141.6150 C   0  0  0  0  0  2  0  0  0  0  0  0
  183.8300  175.6010  137.4530 C   0  0  0  0  0  0  0  0  0  0  0  0
  186.9600  176.0240  137.0090 C   0  0  0  0  0  2  0  0  0  0  0  0
  186.0150  176.8700  134.8850 C   0  0  0  0  0  3  0  0  0  0  0  0
  187.5080  177.3250  137.6270 C   0  0  1  0  0  3  0  0  0  0  0  0
  187.2800  178.1820  141.4000 C   0  0  0  0  0  2  0  0  0  0  0  0
  181.9110  178.6290  140.8300 C   0  0  1  0  0  3  0  0  0  0  0  0
  184.0560  174.7030  135.2480 N   0  0  0  0  0  0  0  0  0  0  0  0
  185.8280  176.1910  136.0220 C   0  0  0  0  0  0  0  0  0  0  0  0
  181.2520  178.9330  139.6370 O   0  0  0  0  0  1  0  0  0  0  0  0
  1  5  1  0  0  0  0
  1  4  1  0  0  0  0
  2 18  1  0  0  0  0
  3 10  1  0  0  0  0
  6 17  1  0  0  0  0
  7 15  2  0  0  0  0
  8  4  1  6  0  0  0
  8 27  1  0  0  0  0
  8 13  1  0  0  0  0
  8 12  1  0  0  0  0
  9  6  1  0  0  0  0
  9 17  1  0  0  0  0
 11 24  1  0  0  0  0
 11  3  1  0  0  0  0
 12  9  1  0  0  0  0
 14  2  2  0  0  0  0
 15 26  1  0  0  0  0
 16 15  1  0  0  0  0
 19 22  2  0  0  0  0
 20 14  1  0  0  0  0
 21  9  1  0  0  0  0
 22  2  1  0  0  0  0
 22  5  1  0  0  0  0
 23 25  1  0  0  0  0
 24 29  2  0  0  0  0
 25 10  1  6  0  0  0
 25 16  1  0  0  0  0
 26 21  1  0  0  0  0
 27 30  1  6  0  0  0
 27 13  1  0  0  0  0
 28 20  2  0  0  0  0
 28 19  1  0  0  0  0
 29 19  1  0  0  0  0
 29 23  1  0  0  0  0
M  END
>  <MODEL>
5

>  <REMARK>
 VINA RESULT:      -5.4      2.725      7.387
  Name = 
  0 active torsions:
  status: ('A' for Active; 'I' for Inactive)
                            x       y       z     vdW  Elec       q    Type
                         _______ _______ _______ _____ _____    ______ ____

>  <TORSDO>
F 0

$$$$
=
 OpenBabel10262421503D

 30 34  0  0  1  0  0  0  0  0999 V2000
  185.1200  177.3760  138.2790 C   0  0  0  0  0  2  0  0  0  0  0  0
  187.7120  178.4560  136.5720 C   0  0  0  0  0  0  0  0  0  0  0  0
  184.8230  172.6000  137.5940 C   0  0  0  0  0  2  0  0  0  0  0  0
  183.6380  177.5410  138.5940 C   0  0  0  0  0  2  0  0  0  0  0  0
  185.3970  177.5030  136.7900 C   0  0  0  0  0  2  0  0  0  0  0  0
  180.2000  179.8610  137.6810 C   0  0  0  0  0  2  0  0  0  0  0  0
  181.2570  174.4590  136.0670 O   0  0  0  0  0  0  0  0  0  0  0  0
  183.1440  178.9720  138.3500 C   0  0  1  0  0  0  0  0  0  0  0  0
  181.2060  178.8950  137.0890 C   0  0  0  0  0  0  0  0  0  0  0  0
  184.1380  173.9530  137.3650 C   0  0  0  0  0  2  0  0  0  0  0  0
  186.2360  172.4840  137.0070 C   0  0  0  0  0  2  0  0  0  0  0  0
  182.5600  179.2980  137.1040 O   0  0  0  0  0  0  0  0  0  0  0  0
  182.4840  179.5410  139.4560 O   0  0  0  0  0  0  0  0  0  0  0  0
  189.0560  178.2950  136.4580 N   0  0  0  0  0  0  0  0  0  0  0  0
  181.8670  175.5370  135.8380 C   0  0  0  0  0  0  0  0  0  0  0  0
  183.2900  175.5650  135.7320 N   0  0  0  0  0  2  0  0  0  0  0  0
  180.3610  179.7560  136.1730 C   0  0  0  0  0  2  0  0  0  0  0  0
  187.1800  179.7660  136.7400 N   0  0  0  0  0  1  0  0  0  0  0  0
  187.4540  176.0630  136.3830 C   0  0  0  0  0  0  0  0  0  0  0  0
  189.6030  177.0610  136.3200 C   0  0  0  0  0  3  0  0  0  0  0  0
  180.8480  177.4110  137.0680 C   0  0  0  0  0  2  0  0  0  0  0  0
  186.8660  177.3360  136.5400 C   0  0  0  0  0  0  0  0  0  0  0  0
  185.5260  174.7140  135.3140 C   0  0  0  0  0  2  0  0  0  0  0  0
  186.9990  173.7740  137.0650 C   0  0  0  0  0  3  0  0  0  0  0  0
  184.1350  174.3940  135.8950 C   0  0  1  0  0  3  0  0  0  0  0  0
  181.1080  176.8070  135.6980 C   0  0  0  0  0  2  0  0  0  0  0  0
  183.7140  180.1280  139.0930 C   0  0  1  0  0  3  0  0  0  0  0  0
  188.8080  175.9620  136.2870 N   0  0  0  0  0  0  0  0  0  0  0  0
  186.6490  174.8280  136.3190 C   0  0  0  0  0  0  0  0  0  0  0  0
  184.6930  179.7360  140.0090 O   0  0  0  0  0  1  0  0  0  0  0  0
  1  4  1  0  0  0  0
  2 18  1  0  0  0  0
  5  1  1  0  0  0  0
  8  4  1  1  0  0  0
  8 27  1  0  0  0  0
  8 13  1  0  0  0  0
  9 12  1  0  0  0  0
  9  6  1  0  0  0  0
 10  3  1  0  0  0  0
 11 24  1  0  0  0  0
 11  3  1  0  0  0  0
 12  8  1  0  0  0  0
 14  2  2  0  0  0  0
 15  7  2  0  0  0  0
 16 15  1  0  0  0  0
 16 25  1  0  0  0  0
 17  9  1  0  0  0  0
 17  6  1  0  0  0  0
 19 22  2  0  0  0  0
 20 14  1  0  0  0  0
 21  9  1  0  0  0  0
 22  2  1  0  0  0  0
 22  5  1  0  0  0  0
 23 29  1  0  0  0  0
 25 23  1  1  0  0  0
 25 10  1  0  0  0  0
 26 15  1  0  0  0  0
 26 21  1  0  0  0  0
 27 13  1  0  0  0  0
 27 30  1  1  0  0  0
 28 20  2  0  0  0  0
 28 19  1  0  0  0  0
 29 19  1  0  0  0  0
 29 24  2  0  0  0  0
M  END
>  <MODEL>
6

>  <REMARK>
 VINA RESULT:      -5.3      3.588      6.552
  Name = 
  0 active torsions:
  status: ('A' for Active; 'I' for Inactive)
                            x       y       z     vdW  Elec       q    Type
                         _______ _______ _______ _____ _____    ______ ____

>  <TORSDO>
F 0

$$$$
=
 OpenBabel10262421503D

 30 34  0  0  1  0  0  0  0  0999 V2000
  185.2230  175.6880  135.8520 C   0  0  0  0  0  2  0  0  0  0  0  0
  185.2720  172.4360  136.3200 C   0  0  0  0  0  0  0  0  0  0  0  0
  189.7460  177.0770  134.8610 C   0  0  0  0  0  2  0  0  0  0  0  0
  184.7970  177.0500  136.3860 C   0  0  0  0  0  2  0  0  0  0  0  0
  185.8060  174.8100  136.9470 C   0  0  0  0  0  2  0  0  0  0  0  0
  182.8270  178.9770  139.6180 C   0  0  0  0  0  2  0  0  0  0  0  0
  188.4500  179.0020  138.4830 O   0  0  0  0  0  0  0  0  0  0  0  0
  183.5900  176.9580  137.3260 C   0  0  1  0  0  0  0  0  0  0  0  0
  184.0450  178.1510  139.2560 C   0  0  0  0  0  0  0  0  0  0  0  0
  188.5830  177.1800  135.8560 C   0  0  0  0  0  2  0  0  0  0  0  0
  190.2440  175.6510  134.5940 C   0  0  0  0  0  2  0  0  0  0  0  0
  183.8060  176.8650  138.7210 O   0  0  0  0  0  0  0  0  0  0  0  0
  182.5260  177.8090  136.9700 O   0  0  0  0  0  0  0  0  0  0  0  0
  185.5920  171.2740  135.6940 N   0  0  0  0  0  0  0  0  0  0  0  0
  187.6520  178.0640  138.7450 C   0  0  0  0  0  0  0  0  0  0  0  0
  187.8070  176.7810  138.1410 N   0  0  0  0  0  2  0  0  0  0  0  0
  183.6140  178.2600  140.7030 C   0  0  0  0  0  2  0  0  0  0  0  0
  183.9830  172.5790  136.9090 N   0  0  0  0  0  1  0  0  0  0  0  0
  187.4590  173.2890  135.7540 C   0  0  0  0  0  0  0  0  0  0  0  0
  186.8010  171.1070  135.1010 C   0  0  0  0  0  3  0  0  0  0  0  0
  185.3400  178.8900  138.9260 C   0  0  0  0  0  2  0  0  0  0  0  0
  186.2030  173.4860  136.3660 C   0  0  0  0  0  0  0  0  0  0  0  0
  188.9590  174.9260  137.0770 C   0  0  0  0  0  2  0  0  0  0  0  0
  189.1430  174.6330  134.6280 C   0  0  0  0  0  3  0  0  0  0  0  0
  188.8530  176.4590  137.1840 C   0  0  1  0  0  3  0  0  0  0  0  0
  186.5170  178.2910  139.6770 C   0  0  0  0  0  2  0  0  0  0  0  0
  182.2820  176.4230  136.8610 C   0  0  1  0  0  3  0  0  0  0  0  0
  187.7170  172.1070  135.1300 N   0  0  0  0  0  0  0  0  0  0  0  0
  188.5110  174.3250  135.7650 C   0  0  0  0  0  0  0  0  0  0  0  0
  182.3090  176.0600  135.5130 O   0  0  0  0  0  1  0  0  0  0  0  0
  1  4  1  0  0  0  0
  1  5  1  0  0  0  0
  2 22  1  0  0  0  0
  2 18  1  0  0  0  0
  3 10  1  0  0  0  0
  6 17  1  0  0  0  0
  7 15  2  0  0  0  0
  8  4  1  6  0  0  0
  8 12  1  0  0  0  0
  9  6  1  0  0  0  0
  9 17  1  0  0  0  0
 11 24  1  0  0  0  0
 11  3  1  0  0  0  0
 12  9  1  0  0  0  0
 13  8  1  0  0  0  0
 14  2  2  0  0  0  0
 15 26  1  0  0  0  0
 16 15  1  0  0  0  0
 19 29  1  0  0  0  0
 19 22  2  0  0  0  0
 20 28  2  0  0  0  0
 20 14  1  0  0  0  0
 21  9  1  0  0  0  0
 21 26  1  0  0  0  0
 22  5  1  0  0  0  0
 23 25  1  0  0  0  0
 24 29  2  0  0  0  0
 25 10  1  6  0  0  0
 25 16  1  0  0  0  0
 27 30  1  6  0  0  0
 27 13  1  0  0  0  0
 27  8  1  0  0  0  0
 28 19  1  0  0  0  0
 29 23  1  0  0  0  0
M  END
>  <MODEL>
7

>  <REMARK>
 VINA RESULT:      -5.3      3.636      8.347
  Name = 
  0 active torsions:
  status: ('A' for Active; 'I' for Inactive)
                            x       y       z     vdW  Elec       q    Type
                         _______ _______ _______ _____ _____    ______ ____

>  <TORSDO>
F 0

$$$$
=
 OpenBabel10262421503D

 30 34  0  0  1  0  0  0  0  0999 V2000
  185.5220  177.8030  136.8510 C   0  0  0  0  0  2  0  0  0  0  0  0
  184.2760  178.5620  139.7960 C   0  0  0  0  0  0  0  0  0  0  0  0
  182.3010  174.9900  134.5980 C   0  0  0  0  0  2  0  0  0  0  0  0
  186.7140  177.2670  136.0670 C   0  0  0  0  0  2  0  0  0  0  0  0
  185.2570  176.9840  138.1040 C   0  0  0  0  0  2  0  0  0  0  0  0
  190.6650  175.7640  136.4790 C   0  0  0  0  0  2  0  0  0  0  0  0
  185.9510  172.7810  135.1400 O   0  0  0  0  0  0  0  0  0  0  0  0
  188.0410  177.4720  136.8060 C   0  0  1  0  0  0  0  0  0  0  0  0
  189.2150  175.4780  136.8140 C   0  0  0  0  0  0  0  0  0  0  0  0
  183.7090  175.0630  135.2010 C   0  0  0  0  0  2  0  0  0  0  0  0
  181.1620  175.3220  135.5720 C   0  0  0  0  0  2  0  0  0  0  0  0
  188.5480  176.4300  137.6170 O   0  0  0  0  0  0  0  0  0  0  0  0
  189.0230  178.1260  136.0390 O   0  0  0  0  0  0  0  0  0  0  0  0
  183.2070  179.1620  140.3770 N   0  0  0  0  0  0  0  0  0  0  0  0
  186.2560  173.4540  136.1600 C   0  0  0  0  0  0  0  0  0  0  0  0
  185.2640  174.1900  136.8750 N   0  0  0  0  0  2  0  0  0  0  0  0
  190.3170  174.7620  137.5680 C   0  0  0  0  0  2  0  0  0  0  0  0
  185.5900  178.9770  140.1590 N   0  0  0  0  0  1  0  0  0  0  0  0
  182.7550  177.1990  138.5090 C   0  0  0  0  0  0  0  0  0  0  0  0
  181.9390  178.8120  140.0420 C   0  0  0  0  0  3  0  0  0  0  0  0
  188.4210  174.5880  135.8610 C   0  0  0  0  0  2  0  0  0  0  0  0
  184.0810  177.5570  138.8350 C   0  0  0  0  0  0  0  0  0  0  0  0
  183.0490  174.7650  137.6880 C   0  0  0  0  0  2  0  0  0  0  0  0
  181.5390  176.3750  136.5710 C   0  0  0  0  0  3  0  0  0  0  0  0
  183.8630  174.2440  136.4890 C   0  0  1  0  0  3  0  0  0  0  0  0
  187.6680  173.5100  136.6220 C   0  0  0  0  0  2  0  0  0  0  0  0
  188.5320  178.8310  137.1580 C   0  0  1  0  0  3  0  0  0  0  0  0
  181.7230  177.8450  139.1150 N   0  0  0  0  0  0  0  0  0  0  0  0
  182.4460  176.1420  137.5260 C   0  0  0  0  0  0  0  0  0  0  0  0
  187.6660  179.8350  136.7200 O   0  0  0  0  0  1  0  0  0  0  0  0
  1  5  1  0  0  0  0
  2 18  1  0  0  0  0
  2 14  1  0  0  0  0
  3 10  1  0  0  0  0
  3 11  1  0  0  0  0
  4  1  1  0  0  0  0
  5 22  1  0  0  0  0
  6  9  1  0  0  0  0
  6 17  1  0  0  0  0
  7 15  2  0  0  0  0
  8  4  1  6  0  0  0
  8 27  1  0  0  0  0
  8 12  1  0  0  0  0
  9 17  1  0  0  0  0
  9 12  1  0  0  0  0
 11 24  1  0  0  0  0
 13  8  1  0  0  0  0
 13 27  1  0  0  0  0
 15 26  1  0  0  0  0
 15 16  1  0  0  0  0
 19 22  1  0  0  0  0
 19 28  2  0  0  0  0
 20 14  2  0  0  0  0
 21 26  1  0  0  0  0
 21  9  1  0  0  0  0
 22  2  2  0  0  0  0
 24 29  2  0  0  0  0
 25 10  1  6  0  0  0
 25 16  1  0  0  0  0
 25 23  1  0  0  0  0
 27 30  1  6  0  0  0
 28 20  1  0  0  0  0
 29 23  1  0  0  0  0
 29 19  1  0  0  0  0
M  END
>  <MODEL>
8

>  <REMARK>
 VINA RESULT:      -5.1      2.763      5.164
  Name = 
  0 active torsions:
  status: ('A' for Active; 'I' for Inactive)
                            x       y       z     vdW  Elec       q    Type
                         _______ _______ _______ _____ _____    ______ ____

>  <TORSDO>
F 0

$$$$
=
 OpenBabel10262421503D

 30 34  0  0  1  0  0  0  0  0999 V2000
  183.7010  176.7400  138.5160 C   0  0  0  0  0  2  0  0  0  0  0  0
  186.7350  177.2420  137.3560 C   0  0  0  0  0  0  0  0  0  0  0  0
  182.3760  172.2760  137.2190 C   0  0  0  0  0  2  0  0  0  0  0  0
  182.2730  177.2580  138.6260 C   0  0  0  0  0  2  0  0  0  0  0  0
  184.2560  176.9090  137.1110 C   0  0  0  0  0  2  0  0  0  0  0  0
  179.7140  180.4580  137.5030 C   0  0  0  0  0  2  0  0  0  0  0  0
  179.6910  175.1130  135.4180 O   0  0  0  0  0  0  0  0  0  0  0  0
  182.1920  178.7830  138.4880 C   0  0  1  0  0  0  0  0  0  0  0  0
  180.5430  179.3140  136.9530 C   0  0  0  0  0  0  0  0  0  0  0  0
  182.0910  173.7740  137.0570 C   0  0  0  0  0  2  0  0  0  0  0  0
  183.7980  171.8440  136.8380 C   0  0  0  0  0  2  0  0  0  0  0  0
  181.9310  179.3490  137.2180 O   0  0  0  0  0  0  0  0  0  0  0  0
  181.5070  179.4140  139.5440 O   0  0  0  0  0  0  0  0  0  0  0  0
  187.9970  176.7470  137.4240 N   0  0  0  0  0  0  0  0  0  0  0  0
  180.5750  176.0110  135.4150 C   0  0  0  0  0  0  0  0  0  0  0  0
  181.9580  175.6760  135.5250 N   0  0  0  0  0  2  0  0  0  0  0  0
  180.1060  180.4350  136.0340 C   0  0  0  0  0  2  0  0  0  0  0  0
  186.5160  178.6280  137.6010 N   0  0  0  0  0  1  0  0  0  0  0  0
  185.9400  175.0210  136.8410 C   0  0  0  0  0  0  0  0  0  0  0  0
  188.2440  175.4280  137.2190 C   0  0  0  0  0  3  0  0  0  0  0  0
  179.8440  177.9810  136.6990 C   0  0  0  0  0  2  0  0  0  0  0  0
  185.6610  176.3870  137.0630 C   0  0  0  0  0  0  0  0  0  0  0  0
  183.9580  174.3100  135.3420 C   0  0  0  0  0  2  0  0  0  0  0  0
  184.8300  172.8820  137.1640 C   0  0  0  0  0  3  0  0  0  0  0  0
  182.4520  174.3160  135.6680 C   0  0  1  0  0  3  0  0  0  0  0  0
  180.1840  177.4410  135.3190 C   0  0  0  0  0  2  0  0  0  0  0  0
  182.8870  179.6880  139.4420 C   0  0  1  0  0  3  0  0  0  0  0  0
  187.2230  174.5810  136.9350 N   0  0  0  0  0  0  0  0  0  0  0  0
  184.8820  174.0470  136.5090 C   0  0  0  0  0  0  0  0  0  0  0  0
  183.5660  178.9830  140.4380 O   0  0  0  0  0  1  0  0  0  0  0  0
  1  4  1  0  0  0  0
  2 14  1  0  0  0  0
  2 18  1  0  0  0  0
  5  1  1  0  0  0  0
  8  4  1  1  0  0  0
  8 27  1  0  0  0  0
  8 13  1  0  0  0  0
  9 12  1  0  0  0  0
  9  6  1  0  0  0  0
 10  3  1  0  0  0  0
 11 24  1  0  0  0  0
 11  3  1  0  0  0  0
 12  8  1  0  0  0  0
 15  7  2  0  0  0  0
 15 16  1  0  0  0  0
 16 25  1  0  0  0  0
 17  9  1  0  0  0  0
 17  6  1  0  0  0  0
 19 28  2  0  0  0  0
 19 22  1  0  0  0  0
 20 14  2  0  0  0  0
 21  9  1  0  0  0  0
 22  5  1  0  0  0  0
 22  2  2  0  0  0  0
 23 29  1  0  0  0  0
 25 23  1  1  0  0  0
 25 10  1  0  0  0  0
 26 15  1  0  0  0  0
 26 21  1  0  0  0  0
 27 13  1  0  0  0  0
 27 30  1  1  0  0  0
 28 20  1  0  0  0  0
 29 19  1  0  0  0  0
 29 24  2  0  0  0  0
M  END
>  <MODEL>
9

>  <REMARK>
 VINA RESULT:      -5.1      3.291      6.232
  Name = 
  0 active torsions:
  status: ('A' for Active; 'I' for Inactive)
                            x       y       z     vdW  Elec       q    Type
                         _______ _______ _______ _____ _____    ______ ____

>  <TORSDO>
F 0

$$$$
