=
 OpenBabel10262423363D

 34 37  0  0  1  0  0  0  0  0999 V2000
  191.0730  177.0920  140.5230 C   0  0  0  0  0  0  0  0  0  0  0  0
  192.1610  177.5940  140.9070 O   0  0  0  0  0  0  0  0  0  0  0  0
  190.7300  176.8600  137.9760 C   0  0  1  0  0  3  0  0  0  0  0  0
  189.4190  176.6350  138.7020 C   0  0  1  0  0  3  0  0  0  0  0  0
  190.4180  177.6310  139.2730 C   0  0  1  0  0  3  0  0  0  0  0  0
  193.1260  176.0410  137.9860 C   0  0  2  0  0  3  0  0  0  0  0  0
  192.3690  173.7160  136.5250 C   0  0  2  0  0  0  0  0  0  0  0  0
  192.1400  172.7040  135.4720 C   0  0  0  0  0  2  0  0  0  0  0  0
  191.2590  174.5060  137.1660 C   0  0  0  0  0  0  0  0  0  0  0  0
  190.0350  173.9770  137.2230 C   0  0  0  0  0  2  0  0  0  0  0  0
  193.3240  176.8120  136.8370 O   0  0  0  0  0  1  0  0  0  0  0  0
  192.5030  174.0320  135.1620 O   0  0  0  0  0  0  0  0  0  0  0  0
  193.6340  173.7260  137.1750 O   0  0  0  0  0  0  0  0  0  0  0  0
  194.0170  174.8360  137.9270 C   0  0  0  0  0  0  0  0  0  0  0  0
  191.6430  175.6280  138.1200 C   0  0  2  0  0  3  0  0  0  0  0  0
  195.1250  174.8420  138.5230 O   0  0  0  0  0  0  0  0  0  0  0  0
  187.5830  176.7110  137.1810 O   0  0  0  0  0  0  0  0  0  0  0  0
  188.3240  177.3450  137.9780 C   0  0  0  0  0  0  0  0  0  0  0  0
  188.0870  178.6950  138.2070 O   0  0  0  0  0  1  0  0  0  0  0  0
  190.4870  176.0900  141.3040 O   0  0  0  0  0  0  0  0  0  0  0  0
  190.0430  176.3050  142.6370 C   0  0  2  0  0  3  0  0  0  0  0  0
  189.6870  177.7750  142.8140 C   0  0  0  0  0  2  0  0  0  0  0  0
  185.4350  178.3860  142.7560 C   0  0  0  0  0  0  0  0  0  0  0  0
  186.2040  178.6650  141.6140 C   0  0  0  0  0  3  0  0  0  0  0  0
  187.5870  178.4610  141.6310 C   0  0  0  0  0  3  0  0  0  0  0  0
  187.4460  177.6980  143.9230 C   0  0  0  0  0  3  0  0  0  0  0  0
  188.2100  177.9760  142.7860 C   0  0  0  0  0  0  0  0  0  0  0  0
  186.0640  177.9020  143.9070 C   0  0  0  0  0  3  0  0  0  0  0  0
  183.9790  178.5900  142.7770 C   0  0  0  0  0  3  0  0  0  0  0  0
  181.8190  178.9280  143.8550 C   0  0  0  0  0  1  0  0  0  0  0  0
  183.2900  178.7240  143.9050 C   0  0  0  0  0  3  0  0  0  0  0  0
  191.1430  175.9120  143.6130 C   0  0  0  0  0  2  0  0  0  0  0  0
  191.6020  176.6840  145.8830 N   0  0  0  0  0  1  0  0  0  0  0  0
  191.5380  177.0900  144.4900 C   0  0  0  0  0  2  0  0  0  0  0  0
  1  2  2  0  0  0  0
  1 20  1  0  0  0  0
  3 15  1  1  0  0  0
  3  4  1  0  0  0  0
  3  5  1  0  0  0  0
  4 18  1  6  0  0  0
  4  5  1  0  0  0  0
  5  1  1  1  0  0  0
  6 11  1  6  0  0  0
  6 15  1  0  0  0  0
  7  8  1  1  0  0  0
  7  9  1  0  0  0  0
  7 13  1  0  0  0  0
  9 10  2  0  0  0  0
 12  8  1  0  0  0  0
 12  7  1  0  0  0  0
 13 14  1  0  0  0  0
 14  6  1  0  0  0  0
 14 16  2  0  0  0  0
 15  9  1  6  0  0  0
 17 18  2  0  0  0  0
 18 19  1  0  0  0  0
 20 21  1  0  0  0  0
 21 22  1  6  0  0  0
 21 32  1  0  0  0  0
 23 29  1  0  0  0  0
 23 28  1  0  0  0  0
 24 25  1  0  0  0  0
 24 23  2  0  0  0  0
 25 27  2  0  0  0  0
 27 22  1  0  0  0  0
 27 26  1  0  0  0  0
 28 26  2  0  0  0  0
 29 31  2  0  0  0  0
 30 31  1  0  0  0  0
 32 34  1  0  0  0  0
 34 33  1  0  0  0  0
M  END
>  <MODEL>
1

>  <REMARK>
 VINA RESULT:      -7.9      0.000      0.000
  Name = 
  10 active torsions:
  status: ('A' for Active; 'I' for Inactive)
    1  A    between atoms: C_1  and  O_8
    2  A    between atoms: C_1  and  C_34
    3  A    between atoms: C_5  and  C_32
    4  A    between atoms: C_6  and  C_18
    5  A    between atoms: C_6  and  C_28
    6  A    between atoms: C_7  and  C_11
    7  A    between atoms: O_8  and  C_18
    8  A    between atoms: C_12  and  C_20
    9  A    between atoms: C_18  and  C_30
   10  A    between atoms: C_30  and  C_31
                            x       y       z     vdW  Elec       q    Type
                         _______ _______ _______ _____ _____    ______ ____

>  <TORSDO>
F 10

$$$$
=
 OpenBabel10262423363D

 34 37  0  0  1  0  0  0  0  0999 V2000
  184.7550  179.1120  140.1910 C   0  0  0  0  0  0  0  0  0  0  0  0
  185.9380  178.8620  139.8410 O   0  0  0  0  0  0  0  0  0  0  0  0
  183.0460  178.7850  138.2850 C   0  0  1  0  0  3  0  0  0  0  0  0
  182.3690  179.4010  139.4940 C   0  0  1  0  0  3  0  0  0  0  0  0
  183.8180  179.7580  139.1970 C   0  0  1  0  0  3  0  0  0  0  0  0
  184.2180  176.7190  137.4080 C   0  0  2  0  0  3  0  0  0  0  0  0
  181.9490  175.1220  138.0510 C   0  0  2  0  0  0  0  0  0  0  0  0
  180.7140  174.3130  138.0000 C   0  0  0  0  0  2  0  0  0  0  0  0
  182.0130  176.4930  138.6730 C   0  0  0  0  0  0  0  0  0  0  0  0
  181.1580  176.8020  139.6500 C   0  0  0  0  0  2  0  0  0  0  0  0
  183.7350  177.0630  136.1430 O   0  0  0  0  0  1  0  0  0  0  0  0
  181.1250  175.1140  136.9130 O   0  0  0  0  0  0  0  0  0  0  0  0
  183.1850  174.4690  137.7870 O   0  0  0  0  0  0  0  0  0  0  0  0
  184.3220  175.2270  137.5050 C   0  0  0  0  0  0  0  0  0  0  0  0
  183.3030  177.2860  138.5180 C   0  0  2  0  0  3  0  0  0  0  0  0
  185.4230  174.6560  137.2930 O   0  0  0  0  0  0  0  0  0  0  0  0
  180.2240  180.4240  139.2990 O   0  0  0  0  0  1  0  0  0  0  0  0
  181.4560  180.4930  139.0480 C   0  0  0  0  0  0  0  0  0  0  0  0
  181.9610  181.6090  138.3920 O   0  0  0  0  0  0  0  0  0  0  0  0
  184.3740  178.8290  141.5060 O   0  0  0  0  0  0  0  0  0  0  0  0
  185.2660  178.9180  142.6100 C   0  0  2  0  0  3  0  0  0  0  0  0
  185.5100  177.5230  143.1680 C   0  0  0  0  0  2  0  0  0  0  0  0
  189.2940  177.2660  145.1860 C   0  0  0  0  0  0  0  0  0  0  0  0
  189.2380  177.2310  143.7830 C   0  0  0  0  0  3  0  0  0  0  0  0
  188.0080  177.3200  143.1260 C   0  0  0  0  0  3  0  0  0  0  0  0
  186.8800  177.4810  145.2610 C   0  0  0  0  0  3  0  0  0  0  0  0
  186.8260  177.4470  143.8640 C   0  0  0  0  0  0  0  0  0  0  0  0
  188.1080  177.3920  145.9190 C   0  0  0  0  0  3  0  0  0  0  0  0
  190.5680  177.1730  145.9130 C   0  0  0  0  0  3  0  0  0  0  0  0
  192.0210  176.4270  147.7230 C   0  0  0  0  0  1  0  0  0  0  0  0
  190.7040  176.4800  147.0380 C   0  0  0  0  0  3  0  0  0  0  0  0
  184.6630  179.8120  143.6830 C   0  0  0  0  0  2  0  0  0  0  0  0
  183.7040  179.0290  145.7880 N   0  0  0  0  0  1  0  0  0  0  0  0
  183.4810  179.1320  144.3570 C   0  0  0  0  0  2  0  0  0  0  0  0
  1 20  1  0  0  0  0
  2  1  2  0  0  0  0
  3 15  1  1  0  0  0
  3  5  1  0  0  0  0
  3  4  1  0  0  0  0
  4 18  1  6  0  0  0
  5  4  1  0  0  0  0
  5  1  1  1  0  0  0
  6 11  1  6  0  0  0
  6 14  1  0  0  0  0
  6 15  1  0  0  0  0
  7  8  1  1  0  0  0
  7  9  1  0  0  0  0
  9 10  2  0  0  0  0
 12  8  1  0  0  0  0
 12  7  1  0  0  0  0
 13  7  1  0  0  0  0
 14 13  1  0  0  0  0
 15  9  1  6  0  0  0
 16 14  2  0  0  0  0
 18 17  1  0  0  0  0
 19 18  2  0  0  0  0
 20 21  1  0  0  0  0
 21 22  1  1  0  0  0
 21 32  1  0  0  0  0
 22 27  1  0  0  0  0
 23 29  1  0  0  0  0
 23 28  1  0  0  0  0
 24 23  2  0  0  0  0
 25 24  1  0  0  0  0
 25 27  2  0  0  0  0
 26 28  2  0  0  0  0
 27 26  1  0  0  0  0
 29 31  2  0  0  0  0
 31 30  1  0  0  0  0
 32 34  1  0  0  0  0
 34 33  1  0  0  0  0
M  END
>  <MODEL>
2

>  <REMARK>
 VINA RESULT:      -7.3      5.294      7.933
  Name = 
  10 active torsions:
  status: ('A' for Active; 'I' for Inactive)
    1  A    between atoms: C_1  and  O_8
    2  A    between atoms: C_1  and  C_34
    3  A    between atoms: C_5  and  C_32
    4  A    between atoms: C_6  and  C_18
    5  A    between atoms: C_6  and  C_28
    6  A    between atoms: C_7  and  C_11
    7  A    between atoms: O_8  and  C_18
    8  A    between atoms: C_12  and  C_20
    9  A    between atoms: C_18  and  C_30
   10  A    between atoms: C_30  and  C_31
                            x       y       z     vdW  Elec       q    Type
                         _______ _______ _______ _____ _____    ______ ____

>  <TORSDO>
F 10

$$$$
=
 OpenBabel10262423363D

 34 37  0  0  1  0  0  0  0  0999 V2000
  184.5160  178.6150  140.8720 C   0  0  0  0  0  0  0  0  0  0  0  0
  183.8350  177.6030  141.1830 O   0  0  0  0  0  0  0  0  0  0  0  0
  184.5010  179.0520  138.3290 C   0  0  1  0  0  3  0  0  0  0  0  0
  183.0990  178.7400  138.8140 C   0  0  1  0  0  3  0  0  0  0  0  0
  184.0490  179.4920  139.7340 C   0  0  1  0  0  3  0  0  0  0  0  0
  186.8490  178.1130  138.2050 C   0  0  2  0  0  3  0  0  0  0  0  0
  185.9890  176.1260  136.3540 C   0  0  2  0  0  0  0  0  0  0  0  0
  185.7210  175.3290  135.1380 C   0  0  0  0  0  2  0  0  0  0  0  0
  184.9140  176.8520  137.1190 C   0  0  0  0  0  0  0  0  0  0  0  0
  183.6630  176.3890  137.0770 C   0  0  0  0  0  2  0  0  0  0  0  0
  187.1050  179.0620  137.2110 O   0  0  0  0  0  1  0  0  0  0  0  0
  186.1590  176.6690  135.0690 O   0  0  0  0  0  0  0  0  0  0  0  0
  187.2440  175.9520  137.0010 O   0  0  0  0  0  0  0  0  0  0  0  0
  187.6750  176.8900  137.9380 C   0  0  0  0  0  0  0  0  0  0  0  0
  185.3440  177.7660  138.2580 C   0  0  2  0  0  3  0  0  0  0  0  0
  188.7740  176.7300  138.5310 O   0  0  0  0  0  0  0  0  0  0  0  0
  181.4930  179.3210  137.1500 O   0  0  0  0  0  0  0  0  0  0  0  0
  182.1330  179.6800  138.1730 C   0  0  0  0  0  0  0  0  0  0  0  0
  181.9020  180.9350  138.7220 O   0  0  0  0  0  1  0  0  0  0  0  0
  185.7100  178.8530  141.5610 O   0  0  0  0  0  0  0  0  0  0  0  0
  185.7860  178.9350  142.9780 C   0  0  2  0  0  3  0  0  0  0  0  0
  185.9140  177.5310  143.5530 C   0  0  0  0  0  2  0  0  0  0  0  0
  189.6530  177.0860  145.6240 C   0  0  0  0  0  0  0  0  0  0  0  0
  188.4990  177.4750  146.3250 C   0  0  0  0  0  3  0  0  0  0  0  0
  187.2820  177.6150  145.6530 C   0  0  0  0  0  3  0  0  0  0  0  0
  188.3540  176.9780  143.5780 C   0  0  0  0  0  3  0  0  0  0  0  0
  187.2070  177.3650  144.2780 C   0  0  0  0  0  0  0  0  0  0  0  0
  189.5710  176.8390  144.2490 C   0  0  0  0  0  3  0  0  0  0  0  0
  190.9510  176.9310  146.2950 C   0  0  0  0  0  3  0  0  0  0  0  0
  192.5080  175.9120  147.8700 C   0  0  0  0  0  1  0  0  0  0  0  0
  191.1710  176.0140  147.2310 C   0  0  0  0  0  3  0  0  0  0  0  0
  184.5340  179.6090  143.5190 C   0  0  0  0  0  2  0  0  0  0  0  0
  183.9620  179.0910  145.8360 N   0  0  0  0  0  1  0  0  0  0  0  0
  183.7770  178.6800  144.4560 C   0  0  0  0  0  2  0  0  0  0  0  0
  1  2  2  0  0  0  0
  1 20  1  0  0  0  0
  3 15  1  1  0  0  0
  3  4  1  0  0  0  0
  3  5  1  0  0  0  0
  4 18  1  6  0  0  0
  4  5  1  0  0  0  0
  5  1  1  1  0  0  0
  6 11  1  6  0  0  0
  6 15  1  0  0  0  0
  7  8  1  6  0  0  0
  7 13  1  0  0  0  0
  7  9  1  0  0  0  0
 10  9  2  0  0  0  0
 12  8  1  0  0  0  0
 12  7  1  0  0  0  0
 13 14  1  0  0  0  0
 14  6  1  0  0  0  0
 14 16  2  0  0  0  0
 15  9  1  6  0  0  0
 17 18  2  0  0  0  0
 18 19  1  0  0  0  0
 20 21  1  0  0  0  0
 21 32  1  1  0  0  0
 21 22  1  0  0  0  0
 22 27  1  0  0  0  0
 23 29  1  0  0  0  0
 23 24  1  0  0  0  0
 25 24  2  0  0  0  0
 26 28  1  0  0  0  0
 26 27  2  0  0  0  0
 27 25  1  0  0  0  0
 28 23  2  0  0  0  0
 29 31  2  0  0  0  0
 31 30  1  0  0  0  0
 32 34  1  0  0  0  0
 34 33  1  0  0  0  0
M  END
>  <MODEL>
3

>  <REMARK>
 VINA RESULT:      -7.3      3.849      6.663
  Name = 
  10 active torsions:
  status: ('A' for Active; 'I' for Inactive)
    1  A    between atoms: C_1  and  O_8
    2  A    between atoms: C_1  and  C_34
    3  A    between atoms: C_5  and  C_32
    4  A    between atoms: C_6  and  C_18
    5  A    between atoms: C_6  and  C_28
    6  A    between atoms: C_7  and  C_11
    7  A    between atoms: O_8  and  C_18
    8  A    between atoms: C_12  and  C_20
    9  A    between atoms: C_18  and  C_30
   10  A    between atoms: C_30  and  C_31
                            x       y       z     vdW  Elec       q    Type
                         _______ _______ _______ _____ _____    ______ ____

>  <TORSDO>
F 10

$$$$
=
 OpenBabel10262423363D

 34 37  0  0  1  0  0  0  0  0999 V2000
  189.9770  177.5300  139.7630 C   0  0  0  0  0  0  0  0  0  0  0  0
  191.1860  177.4380  140.1000 O   0  0  0  0  0  0  0  0  0  0  0  0
  189.8180  177.2810  137.1990 C   0  0  1  0  0  3  0  0  0  0  0  0
  188.4380  177.4900  137.7910 C   0  0  1  0  0  3  0  0  0  0  0  0
  189.6310  178.1740  138.4410 C   0  0  1  0  0  3  0  0  0  0  0  0
  191.8110  175.7210  137.1410 C   0  0  2  0  0  3  0  0  0  0  0  0
  190.1720  173.6180  136.1380 C   0  0  2  0  0  0  0  0  0  0  0  0
  189.4990  172.6180  135.2830 C   0  0  0  0  0  2  0  0  0  0  0  0
  189.4630  174.8050  136.7350 C   0  0  0  0  0  0  0  0  0  0  0  0
  188.1530  174.7240  136.9770 C   0  0  0  0  0  2  0  0  0  0  0  0
  192.0910  176.2330  135.8720 O   0  0  0  0  0  1  0  0  0  0  0  0
  190.2200  173.7010  134.7360 O   0  0  0  0  0  0  0  0  0  0  0  0
  191.4490  173.2870  136.6710 O   0  0  0  0  0  0  0  0  0  0  0  0
  192.2590  174.2910  137.2010 C   0  0  0  0  0  0  0  0  0  0  0  0
  190.3040  175.8440  137.4630 C   0  0  2  0  0  3  0  0  0  0  0  0
  193.3790  174.0010  137.6950 O   0  0  0  0  0  0  0  0  0  0  0  0
  187.9480  179.6820  136.9900 O   0  0  0  0  0  1  0  0  0  0  0  0
  187.6760  178.4540  136.9430 C   0  0  0  0  0  0  0  0  0  0  0  0
  186.6960  178.0010  136.0690 O   0  0  0  0  0  0  0  0  0  0  0  0
  189.0000  177.0790  140.6560 O   0  0  0  0  0  0  0  0  0  0  0  0
  188.3790  177.9210  141.6190 C   0  0  2  0  0  3  0  0  0  0  0  0
  187.8530  177.0660  142.7640 C   0  0  0  0  0  2  0  0  0  0  0  0
  190.6300  176.9310  146.0390 C   0  0  0  0  0  0  0  0  0  0  0  0
  191.0880  176.7950  144.7180 C   0  0  0  0  0  3  0  0  0  0  0  0
  190.1860  176.8440  143.6520 C   0  0  0  0  0  3  0  0  0  0  0  0
  188.3630  177.1670  145.2110 C   0  0  0  0  0  3  0  0  0  0  0  0
  188.8210  177.0320  143.8970 C   0  0  0  0  0  0  0  0  0  0  0  0
  189.2640  177.1180  146.2770 C   0  0  0  0  0  3  0  0  0  0  0  0
  191.5480  176.8830  147.1860 C   0  0  0  0  0  3  0  0  0  0  0  0
  193.0420  175.7800  148.7650 C   0  0  0  0  0  1  0  0  0  0  0  0
  192.1240  175.7580  147.5970 C   0  0  0  0  0  3  0  0  0  0  0  0
  187.2350  178.6850  140.9690 C   0  0  0  0  0  2  0  0  0  0  0  0
  184.9160  179.4010  141.2310 N   0  0  0  0  0  1  0  0  0  0  0  0
  186.0400  178.7770  141.9050 C   0  0  0  0  0  2  0  0  0  0  0  0
  1  2  2  0  0  0  0
  1 20  1  0  0  0  0
  3 15  1  1  0  0  0
  3  4  1  0  0  0  0
  3  5  1  0  0  0  0
  4 18  1  6  0  0  0
  4  5  1  0  0  0  0
  5  1  1  1  0  0  0
  6 11  1  6  0  0  0
  6 14  1  0  0  0  0
  6 15  1  0  0  0  0
  7  8  1  1  0  0  0
  7 13  1  0  0  0  0
  7  9  1  0  0  0  0
  9 10  2  0  0  0  0
 12  8  1  0  0  0  0
 12  7  1  0  0  0  0
 13 14  1  0  0  0  0
 14 16  2  0  0  0  0
 15  9  1  6  0  0  0
 18 17  1  0  0  0  0
 19 18  2  0  0  0  0
 20 21  1  0  0  0  0
 21 32  1  6  0  0  0
 21 22  1  0  0  0  0
 22 27  1  0  0  0  0
 23 28  1  0  0  0  0
 23 29  1  0  0  0  0
 24 23  2  0  0  0  0
 25 27  2  0  0  0  0
 25 24  1  0  0  0  0
 26 28  2  0  0  0  0
 27 26  1  0  0  0  0
 29 31  2  0  0  0  0
 31 30  1  0  0  0  0
 32 34  1  0  0  0  0
 33 34  1  0  0  0  0
M  END
>  <MODEL>
4

>  <REMARK>
 VINA RESULT:      -7.3      2.317      4.485
  Name = 
  10 active torsions:
  status: ('A' for Active; 'I' for Inactive)
    1  A    between atoms: C_1  and  O_8
    2  A    between atoms: C_1  and  C_34
    3  A    between atoms: C_5  and  C_32
    4  A    between atoms: C_6  and  C_18
    5  A    between atoms: C_6  and  C_28
    6  A    between atoms: C_7  and  C_11
    7  A    between atoms: O_8  and  C_18
    8  A    between atoms: C_12  and  C_20
    9  A    between atoms: C_18  and  C_30
   10  A    between atoms: C_30  and  C_31
                            x       y       z     vdW  Elec       q    Type
                         _______ _______ _______ _____ _____    ______ ____

>  <TORSDO>
F 10

$$$$
=
 OpenBabel10262423363D

 34 37  0  0  1  0  0  0  0  0999 V2000
  186.4320  178.2410  142.5200 C   0  0  0  0  0  0  0  0  0  0  0  0
  186.5690  177.1630  143.1560 O   0  0  0  0  0  0  0  0  0  0  0  0
  184.1170  179.0940  141.7610 C   0  0  1  0  0  3  0  0  0  0  0  0
  183.9840  178.2880  143.0380 C   0  0  1  0  0  3  0  0  0  0  0  0
  185.2390  179.1190  142.8180 C   0  0  1  0  0  3  0  0  0  0  0  0
  185.1340  178.8920  139.4510 C   0  0  2  0  0  3  0  0  0  0  0  0
  182.8720  177.4130  138.5520 C   0  0  2  0  0  0  0  0  0  0  0  0
  181.6080  176.9840  137.9170 C   0  0  0  0  0  2  0  0  0  0  0  0
  183.0390  177.5590  140.0420 C   0  0  0  0  0  0  0  0  0  0  0  0
  182.2820  176.8190  140.8550 C   0  0  0  0  0  2  0  0  0  0  0  0
  184.5560  180.1310  139.1610 O   0  0  0  0  0  1  0  0  0  0  0  0
  181.9530  178.3470  138.0450 O   0  0  0  0  0  0  0  0  0  0  0  0
  184.0550  177.3860  137.7640 O   0  0  0  0  0  0  0  0  0  0  0  0
  185.1900  178.0720  138.1970 C   0  0  0  0  0  0  0  0  0  0  0  0
  184.3390  178.1610  140.5570 C   0  0  2  0  0  3  0  0  0  0  0  0
  186.2480  178.0330  137.5160 O   0  0  0  0  0  0  0  0  0  0  0  0
  183.4430  179.3330  145.1120 O   0  0  0  0  0  1  0  0  0  0  0  0
  183.0480  178.9840  143.9690 C   0  0  0  0  0  0  0  0  0  0  0  0
  181.7530  179.2900  143.5670 O   0  0  0  0  0  0  0  0  0  0  0  0
  187.3630  178.5520  141.5250 O   0  0  0  0  0  0  0  0  0  0  0  0
  188.5490  177.8000  141.3080 C   0  0  2  0  0  3  0  0  0  0  0  0
  189.7320  178.5500  141.9050 C   0  0  0  0  0  2  0  0  0  0  0  0
  191.3350  176.5040  145.3260 C   0  0  0  0  0  0  0  0  0  0  0  0
  190.4420  177.5750  145.4980 C   0  0  0  0  0  3  0  0  0  0  0  0
  189.9160  178.2380  144.3850 C   0  0  0  0  0  3  0  0  0  0  0  0
  191.1640  176.7680  142.9210 C   0  0  0  0  0  3  0  0  0  0  0  0
  190.2760  177.8340  143.0940 C   0  0  0  0  0  0  0  0  0  0  0  0
  191.6900  176.1060  144.0320 C   0  0  0  0  0  3  0  0  0  0  0  0
  191.9100  175.7840  146.4710 C   0  0  0  0  0  3  0  0  0  0  0  0
  192.7950  175.5980  148.7350 C   0  0  0  0  0  1  0  0  0  0  0  0
  192.2150  176.3850  147.6160 C   0  0  0  0  0  3  0  0  0  0  0  0
  188.7590  177.5960  139.8140 C   0  0  0  0  0  2  0  0  0  0  0  0
  190.4720  175.9980  139.1290 N   0  0  0  0  0  1  0  0  0  0  0  0
  190.2310  177.3820  139.4960 C   0  0  0  0  0  2  0  0  0  0  0  0
  1  2  2  0  0  0  0
  3 15  1  6  0  0  0
  3  5  1  0  0  0  0
  3  4  1  0  0  0  0
  4 18  1  1  0  0  0
  5  1  1  6  0  0  0
  5  4  1  0  0  0  0
  6 11  1  6  0  0  0
  6 15  1  0  0  0  0
  7  8  1  6  0  0  0
  7  9  1  0  0  0  0
  8 12  1  0  0  0  0
  9 10  2  0  0  0  0
 12  7  1  0  0  0  0
 13 14  1  0  0  0  0
 13  7  1  0  0  0  0
 14  6  1  0  0  0  0
 15  9  1  6  0  0  0
 16 14  2  0  0  0  0
 18 17  1  0  0  0  0
 19 18  2  0  0  0  0
 20  1  1  0  0  0  0
 21 32  1  6  0  0  0
 21 20  1  0  0  0  0
 21 22  1  0  0  0  0
 22 27  1  0  0  0  0
 23 24  1  0  0  0  0
 23 29  1  0  0  0  0
 25 24  2  0  0  0  0
 26 27  2  0  0  0  0
 26 28  1  0  0  0  0
 27 25  1  0  0  0  0
 28 23  2  0  0  0  0
 29 31  2  0  0  0  0
 31 30  1  0  0  0  0
 33 34  1  0  0  0  0
 34 32  1  0  0  0  0
M  END
>  <MODEL>
5

>  <REMARK>
 VINA RESULT:      -7.0      3.963      7.884
  Name = 
  10 active torsions:
  status: ('A' for Active; 'I' for Inactive)
    1  A    between atoms: C_1  and  O_8
    2  A    between atoms: C_1  and  C_34
    3  A    between atoms: C_5  and  C_32
    4  A    between atoms: C_6  and  C_18
    5  A    between atoms: C_6  and  C_28
    6  A    between atoms: C_7  and  C_11
    7  A    between atoms: O_8  and  C_18
    8  A    between atoms: C_12  and  C_20
    9  A    between atoms: C_18  and  C_30
   10  A    between atoms: C_30  and  C_31
                            x       y       z     vdW  Elec       q    Type
                         _______ _______ _______ _____ _____    ______ ____

>  <TORSDO>
F 10

$$$$
=
 OpenBabel10262423363D

 34 37  0  0  1  0  0  0  0  0999 V2000
  187.8880  177.5360  142.6000 C   0  0  0  0  0  0  0  0  0  0  0  0
  187.6900  176.3080  142.7980 O   0  0  0  0  0  0  0  0  0  0  0  0
  190.4020  177.6770  143.1660 C   0  0  1  0  0  3  0  0  0  0  0  0
  190.1900  176.8160  141.9360 C   0  0  1  0  0  3  0  0  0  0  0  0
  189.2630  177.9980  142.1790 C   0  0  1  0  0  3  0  0  0  0  0  0
  189.2750  177.8440  145.4270 C   0  0  2  0  0  3  0  0  0  0  0  0
  191.2660  176.1630  146.5770 C   0  0  2  0  0  0  0  0  0  0  0  0
  192.4310  175.6300  147.3150 C   0  0  0  0  0  2  0  0  0  0  0  0
  191.1820  176.1850  145.0730 C   0  0  0  0  0  0  0  0  0  0  0  0
  191.8580  175.2710  144.3730 C   0  0  0  0  0  2  0  0  0  0  0  0
  190.0110  179.0140  145.6330 O   0  0  0  0  0  1  0  0  0  0  0  0
  192.2880  177.0080  147.0450 O   0  0  0  0  0  0  0  0  0  0  0  0
  190.0610  176.3770  147.3000 O   0  0  0  0  0  0  0  0  0  0  0  0
  189.0530  177.1670  146.7460 C   0  0  0  0  0  0  0  0  0  0  0  0
  190.0020  176.9060  144.4370 C   0  0  2  0  0  3  0  0  0  0  0  0
  187.9740  177.3410  147.3710 O   0  0  0  0  0  0  0  0  0  0  0  0
  192.3780  177.4930  141.2710 O   0  0  0  0  0  1  0  0  0  0  0  0
  191.2190  177.1570  140.9100 C   0  0  0  0  0  0  0  0  0  0  0  0
  190.9210  177.0650  139.5560 O   0  0  0  0  0  0  0  0  0  0  0  0
  186.8360  178.4270  142.8340 O   0  0  0  0  0  0  0  0  0  0  0  0
  185.6080  178.0390  143.4350 C   0  0  2  0  0  3  0  0  0  0  0  0
  184.5710  179.1300  143.2000 C   0  0  0  0  0  2  0  0  0  0  0  0
  181.4550  177.7990  140.5590 C   0  0  0  0  0  0  0  0  0  0  0  0
  182.7920  177.4500  140.3060 C   0  0  0  0  0  3  0  0  0  0  0  0
  183.8060  177.8780  141.1680 C   0  0  0  0  0  3  0  0  0  0  0  0
  182.1610  179.0040  142.5410 C   0  0  0  0  0  3  0  0  0  0  0  0
  183.4910  178.6550  142.2880 C   0  0  0  0  0  0  0  0  0  0  0  0
  181.1480  178.5770  141.6800 C   0  0  0  0  0  3  0  0  0  0  0  0
  180.3620  177.3700  139.6740 C   0  0  0  0  0  3  0  0  0  0  0  0
  179.4150  176.2350  137.7360 C   0  0  0  0  0  1  0  0  0  0  0  0
  180.5660  176.6340  138.5870 C   0  0  0  0  0  3  0  0  0  0  0  0
  185.8130  177.8270  144.9280 C   0  0  0  0  0  2  0  0  0  0  0  0
  184.7360  178.6270  146.9670 N   0  0  0  0  0  1  0  0  0  0  0  0
  185.3510  179.0410  145.7190 C   0  0  0  0  0  2  0  0  0  0  0  0
  1  2  2  0  0  0  0
  1 20  1  0  0  0  0
  3 15  1  1  0  0  0
  4 18  1  6  0  0  0
  4  5  1  0  0  0  0
  4  3  1  0  0  0  0
  5  1  1  1  0  0  0
  5  3  1  0  0  0  0
  6 11  1  1  0  0  0
  6 14  1  0  0  0  0
  7 12  1  0  0  0  0
  7 13  1  0  0  0  0
  7  8  1  1  0  0  0
  9  7  1  0  0  0  0
 10  9  2  0  0  0  0
 12  8  1  0  0  0  0
 14 13  1  0  0  0  0
 14 16  2  0  0  0  0
 15  9  1  1  0  0  0
 15  6  1  0  0  0  0
 18 17  1  0  0  0  0
 19 18  2  0  0  0  0
 20 21  1  0  0  0  0
 21 22  1  1  0  0  0
 21 32  1  0  0  0  0
 23 28  1  0  0  0  0
 24 23  2  0  0  0  0
 24 25  1  0  0  0  0
 25 27  2  0  0  0  0
 27 26  1  0  0  0  0
 27 22  1  0  0  0  0
 28 26  2  0  0  0  0
 29 23  1  0  0  0  0
 30 31  1  0  0  0  0
 31 29  2  0  0  0  0
 32 34  1  0  0  0  0
 34 33  1  0  0  0  0
M  END
>  <MODEL>
6

>  <REMARK>
 VINA RESULT:      -6.8      3.504      7.103
  Name = 
  10 active torsions:
  status: ('A' for Active; 'I' for Inactive)
    1  A    between atoms: C_1  and  O_8
    2  A    between atoms: C_1  and  C_34
    3  A    between atoms: C_5  and  C_32
    4  A    between atoms: C_6  and  C_18
    5  A    between atoms: C_6  and  C_28
    6  A    between atoms: C_7  and  C_11
    7  A    between atoms: O_8  and  C_18
    8  A    between atoms: C_12  and  C_20
    9  A    between atoms: C_18  and  C_30
   10  A    between atoms: C_30  and  C_31
                            x       y       z     vdW  Elec       q    Type
                         _______ _______ _______ _____ _____    ______ ____

>  <TORSDO>
F 10

$$$$
=
 OpenBabel10262423363D

 34 37  0  0  1  0  0  0  0  0999 V2000
  189.8520  177.4370  139.8140 C   0  0  0  0  0  0  0  0  0  0  0  0
  191.0750  177.6400  140.0290 O   0  0  0  0  0  0  0  0  0  0  0  0
  189.1520  177.1310  137.3490 C   0  0  1  0  0  3  0  0  0  0  0  0
  187.9260  177.3210  138.2210 C   0  0  1  0  0  3  0  0  0  0  0  0
  189.2130  178.0450  138.5880 C   0  0  1  0  0  3  0  0  0  0  0  0
  191.2290  175.6930  137.1860 C   0  0  2  0  0  3  0  0  0  0  0  0
  189.7040  173.5620  136.0710 C   0  0  2  0  0  0  0  0  0  0  0  0
  189.0800  172.5770  135.1620 C   0  0  0  0  0  2  0  0  0  0  0  0
  188.9340  174.6700  136.7400 C   0  0  0  0  0  0  0  0  0  0  0  0
  187.6330  174.5000  136.9850 C   0  0  0  0  0  2  0  0  0  0  0  0
  191.4680  176.2950  135.9470 O   0  0  0  0  0  1  0  0  0  0  0  0
  189.7340  173.7300  134.6760 O   0  0  0  0  0  0  0  0  0  0  0  0
  191.0020  173.2740  136.5750 O   0  0  0  0  0  0  0  0  0  0  0  0
  191.7590  174.2910  137.1590 C   0  0  0  0  0  0  0  0  0  0  0  0
  189.7210  175.7110  137.5230 C   0  0  2  0  0  3  0  0  0  0  0  0
  192.8980  174.0370  137.6280 O   0  0  0  0  0  0  0  0  0  0  0  0
  187.4150  179.1850  136.8250 O   0  0  0  0  0  0  0  0  0  0  0  0
  186.9750  178.2490  137.5420 C   0  0  0  0  0  0  0  0  0  0  0  0
  185.6030  178.0630  137.6620 O   0  0  0  0  0  1  0  0  0  0  0  0
  189.1230  176.7000  140.7520 O   0  0  0  0  0  0  0  0  0  0  0  0
  188.6520  177.2480  141.9760 C   0  0  2  0  0  3  0  0  0  0  0  0
  187.9540  178.5720  141.6940 C   0  0  0  0  0  2  0  0  0  0  0  0
  183.9690  178.6150  143.2990 C   0  0  0  0  0  0  0  0  0  0  0  0
  184.1830  178.8630  141.9320 C   0  0  0  0  0  3  0  0  0  0  0  0
  185.4780  178.8440  141.4090 C   0  0  0  0  0  3  0  0  0  0  0  0
  186.3570  178.3280  143.6040 C   0  0  0  0  0  3  0  0  0  0  0  0
  186.5680  178.5750  142.2440 C   0  0  0  0  0  0  0  0  0  0  0  0
  185.0630  178.3470  144.1280 C   0  0  0  0  0  3  0  0  0  0  0  0
  182.6210  178.6290  143.8860 C   0  0  0  0  0  3  0  0  0  0  0  0
  180.2010  178.9160  143.8380 C   0  0  0  0  0  1  0  0  0  0  0  0
  181.5340  178.9200  143.1810 C   0  0  0  0  0  3  0  0  0  0  0  0
  189.8240  177.4670  142.9220 C   0  0  0  0  0  2  0  0  0  0  0  0
  189.4860  177.9900  145.2830 N   0  0  0  0  0  1  0  0  0  0  0  0
  189.5160  176.9170  144.3060 C   0  0  0  0  0  2  0  0  0  0  0  0
  1  2  2  0  0  0  0
  1 20  1  0  0  0  0
  3 15  1  1  0  0  0
  3  4  1  0  0  0  0
  3  5  1  0  0  0  0
  4 18  1  6  0  0  0
  4  5  1  0  0  0  0
  5  1  1  1  0  0  0
  6 11  1  6  0  0  0
  6 15  1  0  0  0  0
  7  8  1  1  0  0  0
  7 13  1  0  0  0  0
  7  9  1  0  0  0  0
  9 10  2  0  0  0  0
 12  8  1  0  0  0  0
 12  7  1  0  0  0  0
 13 14  1  0  0  0  0
 14  6  1  0  0  0  0
 14 16  2  0  0  0  0
 15  9  1  6  0  0  0
 17 18  2  0  0  0  0
 18 19  1  0  0  0  0
 20 21  1  0  0  0  0
 21 22  1  6  0  0  0
 21 32  1  0  0  0  0
 22 27  1  0  0  0  0
 23 29  1  0  0  0  0
 23 28  1  0  0  0  0
 24 23  2  0  0  0  0
 25 24  1  0  0  0  0
 25 27  2  0  0  0  0
 26 28  2  0  0  0  0
 27 26  1  0  0  0  0
 31 30  1  0  0  0  0
 31 29  2  0  0  0  0
 32 34  1  0  0  0  0
 34 33  1  0  0  0  0
M  END
>  <MODEL>
7

>  <REMARK>
 VINA RESULT:      -6.7      1.536      2.103
  Name = 
  10 active torsions:
  status: ('A' for Active; 'I' for Inactive)
    1  A    between atoms: C_1  and  O_8
    2  A    between atoms: C_1  and  C_34
    3  A    between atoms: C_5  and  C_32
    4  A    between atoms: C_6  and  C_18
    5  A    between atoms: C_6  and  C_28
    6  A    between atoms: C_7  and  C_11
    7  A    between atoms: O_8  and  C_18
    8  A    between atoms: C_12  and  C_20
    9  A    between atoms: C_18  and  C_30
   10  A    between atoms: C_30  and  C_31
                            x       y       z     vdW  Elec       q    Type
                         _______ _______ _______ _____ _____    ______ ____

>  <TORSDO>
F 10

$$$$
=
 OpenBabel10262423363D

 34 37  0  0  1  0  0  0  0  0999 V2000
  187.6510  178.3750  137.9260 C   0  0  0  0  0  0  0  0  0  0  0  0
  188.7040  179.0490  137.7860 O   0  0  0  0  0  0  0  0  0  0  0  0
  186.8640  176.6350  136.1890 C   0  0  1  0  0  3  0  0  0  0  0  0
  185.6940  177.0920  137.0390 C   0  0  1  0  0  3  0  0  0  0  0  0
  186.8010  178.0840  136.7110 C   0  0  1  0  0  3  0  0  0  0  0  0
  189.2390  175.8540  136.5830 C   0  0  2  0  0  3  0  0  0  0  0  0
  188.3540  173.1520  136.7500 C   0  0  2  0  0  0  0  0  0  0  0  0
  188.0450  171.7320  136.4770 C   0  0  0  0  0  2  0  0  0  0  0  0
  187.2980  174.2200  136.8590 C   0  0  0  0  0  0  0  0  0  0  0  0
  186.0690  173.8780  137.2520 C   0  0  0  0  0  2  0  0  0  0  0  0
  189.3880  175.8180  135.1940 O   0  0  0  0  0  1  0  0  0  0  0  0
  188.4170  172.6240  135.4480 O   0  0  0  0  0  0  0  0  0  0  0  0
  189.6540  173.4690  137.2310 O   0  0  0  0  0  0  0  0  0  0  0  0
  190.1010  174.7900  137.1960 C   0  0  0  0  0  0  0  0  0  0  0  0
  187.7580  175.6650  136.9820 C   0  0  2  0  0  3  0  0  0  0  0  0
  191.2410  175.0820  137.6410 O   0  0  0  0  0  0  0  0  0  0  0  0
  184.5840  177.0960  134.9280 O   0  0  0  0  0  0  0  0  0  0  0  0
  184.5070  177.3210  136.1640 C   0  0  0  0  0  0  0  0  0  0  0  0
  183.3000  177.7420  136.7100 O   0  0  0  0  0  1  0  0  0  0  0  0
  187.2830  177.9700  139.2130 O   0  0  0  0  0  0  0  0  0  0  0  0
  187.9230  178.4450  140.3900 C   0  0  2  0  0  3  0  0  0  0  0  0
  188.7460  177.3180  141.0000 C   0  0  0  0  0  2  0  0  0  0  0  0
  189.0400  177.7130  145.2680 C   0  0  0  0  0  0  0  0  0  0  0  0
  190.0810  178.1700  144.4430 C   0  0  0  0  0  3  0  0  0  0  0  0
  189.9840  178.0460  143.0550 C   0  0  0  0  0  3  0  0  0  0  0  0
  187.8080  177.0140  143.3000 C   0  0  0  0  0  3  0  0  0  0  0  0
  188.8460  177.4690  142.4800 C   0  0  0  0  0  0  0  0  0  0  0  0
  187.9050  177.1370  144.6870 C   0  0  0  0  0  3  0  0  0  0  0  0
  189.1070  177.8230  146.7330 C   0  0  0  0  0  3  0  0  0  0  0  0
  188.1690  177.8740  148.9820 C   0  0  0  0  0  1  0  0  0  0  0  0
  188.0300  177.7540  147.5080 C   0  0  0  0  0  3  0  0  0  0  0  0
  186.8750  178.9250  141.3830 C   0  0  0  0  0  2  0  0  0  0  0  0
  184.5480  178.2580  141.7010 N   0  0  0  0  0  1  0  0  0  0  0  0
  185.4830  178.8710  140.7740 C   0  0  0  0  0  2  0  0  0  0  0  0
  1 20  1  0  0  0  0
  2  1  2  0  0  0  0
  3  5  1  0  0  0  0
  3 15  1  1  0  0  0
  3  4  1  0  0  0  0
  4 18  1  6  0  0  0
  5  4  1  0  0  0  0
  5  1  1  1  0  0  0
  6 11  1  6  0  0  0
  6 15  1  0  0  0  0
  6 14  1  0  0  0  0
  7  8  1  1  0  0  0
  7  9  1  0  0  0  0
  7 13  1  0  0  0  0
  9 10  2  0  0  0  0
 12  8  1  0  0  0  0
 12  7  1  0  0  0  0
 14 13  1  0  0  0  0
 14 16  2  0  0  0  0
 15  9  1  6  0  0  0
 17 18  2  0  0  0  0
 18 19  1  0  0  0  0
 20 21  1  0  0  0  0
 21 22  1  1  0  0  0
 21 32  1  0  0  0  0
 22 27  1  0  0  0  0
 23 29  1  0  0  0  0
 24 23  2  0  0  0  0
 25 24  1  0  0  0  0
 26 28  2  0  0  0  0
 27 25  2  0  0  0  0
 27 26  1  0  0  0  0
 28 23  1  0  0  0  0
 29 31  2  0  0  0  0
 31 30  1  0  0  0  0
 34 32  1  0  0  0  0
 34 33  1  0  0  0  0
M  END
>  <MODEL>
8

>  <REMARK>
 VINA RESULT:      -6.7      2.991      4.663
  Name = 
  10 active torsions:
  status: ('A' for Active; 'I' for Inactive)
    1  A    between atoms: C_1  and  O_8
    2  A    between atoms: C_1  and  C_34
    3  A    between atoms: C_5  and  C_32
    4  A    between atoms: C_6  and  C_18
    5  A    between atoms: C_6  and  C_28
    6  A    between atoms: C_7  and  C_11
    7  A    between atoms: O_8  and  C_18
    8  A    between atoms: C_12  and  C_20
    9  A    between atoms: C_18  and  C_30
   10  A    between atoms: C_30  and  C_31
                            x       y       z     vdW  Elec       q    Type
                         _______ _______ _______ _____ _____    ______ ____

>  <TORSDO>
F 10

$$$$
=
 OpenBabel10262423363D

 34 37  0  0  1  0  0  0  0  0999 V2000
  187.9470  178.4710  140.8190 C   0  0  0  0  0  0  0  0  0  0  0  0
  188.5880  179.5540  140.8190 O   0  0  0  0  0  0  0  0  0  0  0  0
  189.6000  176.5290  140.4230 C   0  0  1  0  0  3  0  0  0  0  0  0
  190.1060  177.4290  141.5340 C   0  0  1  0  0  3  0  0  0  0  0  0
  188.6060  177.2290  141.3710 C   0  0  1  0  0  3  0  0  0  0  0  0
  188.5900  176.9570  138.1410 C   0  0  2  0  0  3  0  0  0  0  0  0
  191.1240  176.5450  136.9090 C   0  0  2  0  0  0  0  0  0  0  0  0
  192.2800  175.9880  136.1750 C   0  0  0  0  0  2  0  0  0  0  0  0
  191.1220  176.7680  138.3990 C   0  0  0  0  0  0  0  0  0  0  0  0
  192.2810  176.9920  139.0220 C   0  0  0  0  0  2  0  0  0  0  0  0
  188.2500  175.6020  138.1110 O   0  0  0  0  0  1  0  0  0  0  0  0
  191.2040  175.1770  136.5960 O   0  0  0  0  0  0  0  0  0  0  0  0
  190.0990  177.1790  136.1540 O   0  0  0  0  0  0  0  0  0  0  0  0
  188.8590  177.4260  136.7430 C   0  0  0  0  0  0  0  0  0  0  0  0
  189.8160  177.1960  139.0520 C   0  0  2  0  0  3  0  0  0  0  0  0
  187.9550  178.0070  136.0880 O   0  0  0  0  0  0  0  0  0  0  0  0
  190.1620  175.4350  142.8420 O   0  0  0  0  0  0  0  0  0  0  0  0
  190.6300  176.5890  142.6510 C   0  0  0  0  0  0  0  0  0  0  0  0
  191.6610  177.0540  143.4580 O   0  0  0  0  0  1  0  0  0  0  0  0
  186.6670  178.4540  140.2560 O   0  0  0  0  0  0  0  0  0  0  0  0
  185.5220  178.9840  140.9110 C   0  0  2  0  0  3  0  0  0  0  0  0
  184.9020  177.9010  141.7840 C   0  0  0  0  0  2  0  0  0  0  0  0
  186.3710  178.1870  145.8120 C   0  0  0  0  0  0  0  0  0  0  0  0
  185.3050  178.9990  145.3890 C   0  0  0  0  0  3  0  0  0  0  0  0
  184.8230  178.9030  144.0810 C   0  0  0  0  0  3  0  0  0  0  0  0
  186.4610  177.1850  143.6050 C   0  0  0  0  0  3  0  0  0  0  0  0
  185.4000  177.9940  143.1870 C   0  0  0  0  0  0  0  0  0  0  0  0
  186.9440  177.2810  144.9120 C   0  0  0  0  0  3  0  0  0  0  0  0
  186.9060  178.2610  147.1790 C   0  0  0  0  0  3  0  0  0  0  0  0
  188.6750  178.2200  148.8550 C   0  0  0  0  0  1  0  0  0  0  0  0
  188.2010  178.1350  147.4500 C   0  0  0  0  0  3  0  0  0  0  0  0
  184.5150  179.4600  139.8740 C   0  0  0  0  0  2  0  0  0  0  0  0
  182.0800  179.3800  139.7080 N   0  0  0  0  0  1  0  0  0  0  0  0
  183.2780  178.5750  139.8720 C   0  0  0  0  0  2  0  0  0  0  0  0
  2  1  2  0  0  0  0
  3 15  1  6  0  0  0
  3  5  1  0  0  0  0
  3  4  1  0  0  0  0
  4 18  1  1  0  0  0
  5  1  1  6  0  0  0
  5  4  1  0  0  0  0
  6 11  1  6  0  0  0
  6 15  1  0  0  0  0
  7  8  1  6  0  0  0
  7  9  1  0  0  0  0
  8 12  1  0  0  0  0
  9 10  2  0  0  0  0
 12  7  1  0  0  0  0
 13 14  1  0  0  0  0
 13  7  1  0  0  0  0
 14  6  1  0  0  0  0
 15  9  1  6  0  0  0
 16 14  2  0  0  0  0
 18 17  2  0  0  0  0
 18 19  1  0  0  0  0
 20  1  1  0  0  0  0
 20 21  1  0  0  0  0
 21 32  1  6  0  0  0
 21 22  1  0  0  0  0
 22 27  1  0  0  0  0
 23 29  1  0  0  0  0
 24 23  1  0  0  0  0
 25 24  2  0  0  0  0
 26 28  1  0  0  0  0
 27 26  2  0  0  0  0
 27 25  1  0  0  0  0
 28 23  2  0  0  0  0
 29 31  2  0  0  0  0
 31 30  1  0  0  0  0
 33 34  1  0  0  0  0
 34 32  1  0  0  0  0
M  END
>  <MODEL>
9

>  <REMARK>
 VINA RESULT:      -6.6      2.863      5.316
  Name = 
  10 active torsions:
  status: ('A' for Active; 'I' for Inactive)
    1  A    between atoms: C_1  and  O_8
    2  A    between atoms: C_1  and  C_34
    3  A    between atoms: C_5  and  C_32
    4  A    between atoms: C_6  and  C_18
    5  A    between atoms: C_6  and  C_28
    6  A    between atoms: C_7  and  C_11
    7  A    between atoms: O_8  and  C_18
    8  A    between atoms: C_12  and  C_20
    9  A    between atoms: C_18  and  C_30
   10  A    between atoms: C_30  and  C_31
                            x       y       z     vdW  Elec       q    Type
                         _______ _______ _______ _____ _____    ______ ____

>  <TORSDO>
F 10

$$$$
