=
 OpenBabel10262422273D

 43 46  0  0  1  0  0  0  0  0999 V2000
  190.2380  177.0930  139.3010 C   0  0  0  0  0  0  0  0  0  0  0  0
  188.3900  176.9880  137.1220 C   0  0  2  0  0  3  0  0  0  0  0  0
  189.3460  177.7080  141.9200 C   0  0  2  0  0  3  0  0  0  0  0  0
  188.4640  177.3770  140.8430 O   0  0  0  0  0  0  0  0  0  0  0  0
  188.0050  177.2700  138.4690 O   0  0  0  0  0  0  0  0  0  0  0  0
  188.9210  177.2400  139.5280 C   0  0  0  0  0  0  0  0  0  0  0  0
  191.1400  177.0240  140.4150 N   0  0  0  0  0  0  0  0  0  0  0  0
  190.7680  176.8960  137.9010 C   0  0  2  0  0  3  0  0  0  0  0  0
  189.8120  177.4820  136.8590 C   0  0  0  0  0  2  0  0  0  0  0  0
  190.7530  177.2640  141.6330 C   0  0  0  0  0  3  0  0  0  0  0  0
  187.4150  177.6240  136.1420 C   0  0  2  0  0  3  0  0  0  0  0  0
  186.8290  178.7460  136.7070 F   0  0  0  0  0  0  0  0  0  0  0  0
  186.3480  176.6170  135.7450 C   0  0  0  0  0  2  0  0  0  0  0  0
  184.9690  177.1930  135.9870 C   0  0  0  0  0  2  0  0  0  0  0  0
  184.3480  176.5270  137.1990 C   0  0  0  0  0  2  0  0  0  0  0  0
  184.3450  177.4850  138.3790 C   0  0  0  0  0  2  0  0  0  0  0  0
  182.9240  177.7350  138.8750 C   0  0  0  0  0  2  0  0  0  0  0  0
  182.8850  178.8930  139.7590 N   0  0  0  0  0  0  0  0  0  0  0  0
  183.9520  180.7660  138.8730 O   0  0  0  0  0  1  0  0  0  0  0  0
  182.7440  180.0670  138.9140 C   0  0  0  0  0  2  0  0  0  0  0  0
  184.1920  178.9930  140.3910 C   0  0  0  0  0  2  0  0  0  0  0  0
  185.1630  179.2160  142.7800 C   0  0  2  0  0  3  0  0  0  0  0  0
  184.0710  178.7580  141.8880 C   0  0  2  0  0  0  0  0  0  0  0  0
  185.0350  177.8650  142.3800 O   0  0  0  0  0  0  0  0  0  0  0  0
  182.8090  178.5120  142.4360 O   0  0  0  0  0  1  0  0  0  0  0  0
  184.7250  179.3510  144.2320 C   0  0  0  0  0  2  0  0  0  0  0  0
  185.4210  178.3170  145.1010 C   0  0  0  0  0  2  0  0  0  0  0  0
  185.6390  179.5180  147.1600 O   0  0  0  0  0  1  0  0  0  0  0  0
  184.9920  178.4380  146.5550 C   0  0  0  0  0  2  0  0  0  0  0  0
  191.0170  175.4180  137.6040 C   0  0  0  0  0  2  0  0  0  0  0  0
  194.3610  176.1170  135.9720 C   0  0  0  0  0  2  0  0  0  0  0  0
  195.0700  174.8290  136.3680 C   0  0  1  0  0  3  0  0  0  0  0  0
  192.8570  173.7800  136.8340 C   0  0  0  0  0  2  0  0  0  0  0  0
  193.0640  176.2200  136.6130 N   0  0  0  0  0  0  0  0  0  0  0  0
  192.3450  175.1990  136.9500 C   0  0  0  0  0  0  0  0  0  0  0  0
  194.1460  173.6750  136.0230 C   0  0  0  0  0  2  0  0  0  0  0  0
  196.2600  174.7080  135.6510 O   0  0  0  0  0  0  0  0  0  0  0  0
  197.4830  174.5990  136.8520 S   0  0  0  0  0  1  0  0  0  0  0  0
  188.8610  177.0880  143.2200 C   0  0  0  0  0  2  0  0  0  0  0  0
  189.7660  177.4700  144.3850 C   0  0  2  0  0  3  0  0  0  0  0  0
  190.4470  176.3430  144.8430 O   0  0  0  0  0  1  0  0  0  0  0  0
  188.9920  178.1220  145.5290 C   0  0  0  0  0  2  0  0  0  0  0  0
  189.1980  177.3930  146.8490 C   0  0  0  0  0  1  0  0  0  0  0  0
  1  6  2  0  0  0  0
  1  7  1  0  0  0  0
  2 11  1  6  0  0  0
  2  5  1  0  0  0  0
  3 39  1  1  0  0  0
  4  3  1  0  0  0  0
  5  6  1  0  0  0  0
  6  4  1  0  0  0  0
  7 10  2  0  0  0  0
  8 30  1  6  0  0  0
  8  1  1  0  0  0  0
  9  2  1  0  0  0  0
  9  8  1  0  0  0  0
 10  3  1  0  0  0  0
 11 12  1  1  0  0  0
 13 14  1  0  0  0  0
 13 11  1  0  0  0  0
 14 15  1  0  0  0  0
 15 16  1  0  0  0  0
 16 17  1  0  0  0  0
 17 18  1  0  0  0  0
 18 21  1  0  0  0  0
 19 20  1  0  0  0  0
 20 18  1  0  0  0  0
 21 23  1  0  0  0  0
 22 26  1  1  0  0  0
 23 24  1  0  0  0  0
 23 25  1  1  0  0  0
 23 22  1  0  0  0  0
 24 22  1  0  0  0  0
 26 27  1  0  0  0  0
 27 29  1  0  0  0  0
 29 28  1  0  0  0  0
 31 32  1  0  0  0  0
 31 34  1  0  0  0  0
 32 37  1  6  0  0  0
 33 35  1  0  0  0  0
 34 35  2  0  0  0  0
 35 30  1  0  0  0  0
 36 32  1  0  0  0  0
 36 33  1  0  0  0  0
 37 38  1  0  0  0  0
 39 40  1  0  0  0  0
 40 41  1  1  0  0  0
 40 42  1  0  0  0  0
 42 43  1  0  0  0  0
M  END
>  <MODEL>
1

>  <REMARK>
 VINA RESULT:      -6.6      0.000      0.000
  Name = 
  19 active torsions:
  status: ('A' for Active; 'I' for Inactive)
    1  A    between atoms: C_1  and  C_34
    2  A    between atoms: C_1  and  C_35
    3  A    between atoms: C_2  and  C_6
    4  A    between atoms: C_2  and  C_13
    5  A    between atoms: C_3  and  C_12
    6  A    between atoms: C_3  and  C_15
    7  A    between atoms: N_4  and  C_15
    8  A    between atoms: N_4  and  C_22
    9  A    between atoms: N_4  and  C_42
   10  A    between atoms: C_5  and  C_18
   11  A    between atoms: C_5  and  C_23
   12  A    between atoms: C_6  and  C_17
   13  A    between atoms: C_11  and  C_36
   14  A    between atoms: C_12  and  C_17
   15  A    between atoms: C_14  and  C_22
   16  A    between atoms: C_16  and  C_23
   17  A    between atoms: C_19  and  O_25
   18  A    between atoms: C_29  and  C_31
   19  A    between atoms: C_29  and  C_36
                            x       y       z     vdW  Elec       q    Type
                         _______ _______ _______ _____ _____    ______ ____

>  <TORSDO>
F 19

$$$$
=
 OpenBabel10262422273D

 43 46  0  0  1  0  0  0  0  0999 V2000
  190.6710  175.7820  137.5880 C   0  0  0  0  0  0  0  0  0  0  0  0
  188.7590  177.7780  136.8540 C   0  0  2  0  0  3  0  0  0  0  0  0
  192.5130  174.7810  135.6820 C   0  0  2  0  0  3  0  0  0  0  0  0
  191.7170  175.9500  135.4710 O   0  0  0  0  0  0  0  0  0  0  0  0
  189.7290  177.2460  135.9500 O   0  0  0  0  0  0  0  0  0  0  0  0
  190.7020  176.3240  136.3580 C   0  0  0  0  0  0  0  0  0  0  0  0
  191.7100  174.8760  137.9830 N   0  0  0  0  0  0  0  0  0  0  0  0
  189.6200  176.1930  138.5910 C   0  0  2  0  0  3  0  0  0  0  0  0
  188.3670  176.7280  137.8940 C   0  0  0  0  0  2  0  0  0  0  0  0
  192.5930  174.4270  137.1410 C   0  0  0  0  0  3  0  0  0  0  0  0
  187.5310  178.2620  136.0970 C   0  0  2  0  0  3  0  0  0  0  0  0
  186.7490  179.0650  136.9140 F   0  0  0  0  0  0  0  0  0  0  0  0
  186.7260  177.0740  135.5990 C   0  0  0  0  0  2  0  0  0  0  0  0
  185.2770  177.2130  136.0150 C   0  0  0  0  0  2  0  0  0  0  0  0
  184.8850  176.0350  136.8850 C   0  0  0  0  0  2  0  0  0  0  0  0
  184.0070  176.5020  138.0350 C   0  0  0  0  0  2  0  0  0  0  0  0
  184.1490  178.0050  138.2540 C   0  0  0  0  0  2  0  0  0  0  0  0
  183.0890  178.4980  139.1250 N   0  0  0  0  0  0  0  0  0  0  0  0
  182.5220  180.6620  138.4710 O   0  0  0  0  0  1  0  0  0  0  0  0
  182.2090  179.3120  138.3030 C   0  0  0  0  0  2  0  0  0  0  0  0
  183.7080  179.3990  140.0850 C   0  0  0  0  0  2  0  0  0  0  0  0
  184.6410  179.0930  142.4800 C   0  0  2  0  0  3  0  0  0  0  0  0
  183.5610  178.8470  141.4940 C   0  0  2  0  0  0  0  0  0  0  0  0
  184.5130  177.8610  141.7960 O   0  0  0  0  0  0  0  0  0  0  0  0
  182.2890  178.5000  141.9560 O   0  0  0  0  0  1  0  0  0  0  0  0
  184.1790  178.9140  143.9200 C   0  0  0  0  0  2  0  0  0  0  0  0
  185.3640  178.6600  144.8370 C   0  0  0  0  0  2  0  0  0  0  0  0
  185.4540  179.4160  147.1060 O   0  0  0  0  0  1  0  0  0  0  0  0
  184.9140  178.4350  146.2720 C   0  0  0  0  0  2  0  0  0  0  0  0
  190.1600  177.2410  139.5650 C   0  0  0  0  0  2  0  0  0  0  0  0
  189.8570  175.8680  143.0790 C   0  0  0  0  0  2  0  0  0  0  0  0
  189.1880  177.0730  143.7270 C   0  0  1  0  0  3  0  0  0  0  0  0
  188.5460  177.9030  141.4660 C   0  0  0  0  0  2  0  0  0  0  0  0
  190.2630  176.1620  141.7190 N   0  0  0  0  0  0  0  0  0  0  0  0
  189.6600  177.0150  140.9570 C   0  0  0  0  0  0  0  0  0  0  0  0
  188.0260  177.4820  142.8380 C   0  0  0  0  0  2  0  0  0  0  0  0
  188.7110  176.7230  144.9900 O   0  0  0  0  0  0  0  0  0  0  0  0
  189.5020  177.8010  146.0690 S   0  0  0  0  0  1  0  0  0  0  0  0
  193.9110  174.9750  135.1180 C   0  0  0  0  0  2  0  0  0  0  0  0
  194.8520  175.5600  136.1630 C   0  0  2  0  0  3  0  0  0  0  0  0
  194.9030  176.9470  136.0300 O   0  0  0  0  0  1  0  0  0  0  0  0
  196.2570  174.9690  136.0740 C   0  0  0  0  0  2  0  0  0  0  0  0
  196.7040  174.3510  137.3910 C   0  0  0  0  0  1  0  0  0  0  0  0
  1  7  1  0  0  0  0
  1  8  1  0  0  0  0
  2 11  1  6  0  0  0
  2  9  1  0  0  0  0
  3 39  1  1  0  0  0
  3 10  1  0  0  0  0
  4  3  1  0  0  0  0
  4  6  1  0  0  0  0
  5  6  1  0  0  0  0
  5  2  1  0  0  0  0
  6  1  2  0  0  0  0
  8 30  1  1  0  0  0
  9  8  1  0  0  0  0
 10  7  2  0  0  0  0
 11 12  1  1  0  0  0
 13 14  1  0  0  0  0
 13 11  1  0  0  0  0
 14 15  1  0  0  0  0
 15 16  1  0  0  0  0
 16 17  1  0  0  0  0
 17 18  1  0  0  0  0
 18 21  1  0  0  0  0
 20 19  1  0  0  0  0
 20 18  1  0  0  0  0
 21 23  1  0  0  0  0
 22 26  1  1  0  0  0
 23 24  1  0  0  0  0
 23 25  1  1  0  0  0
 23 22  1  0  0  0  0
 24 22  1  0  0  0  0
 26 27  1  0  0  0  0
 27 29  1  0  0  0  0
 29 28  1  0  0  0  0
 30 35  1  0  0  0  0
 31 32  1  0  0  0  0
 32 37  1  1  0  0  0
 33 36  1  0  0  0  0
 34 31  1  0  0  0  0
 35 33  1  0  0  0  0
 35 34  2  0  0  0  0
 36 32  1  0  0  0  0
 37 38  1  0  0  0  0
 39 40  1  0  0  0  0
 40 41  1  6  0  0  0
 42 40  1  0  0  0  0
 42 43  1  0  0  0  0
M  END
>  <MODEL>
2

>  <REMARK>
 VINA RESULT:      -6.4      2.379      5.871
  Name = 
  19 active torsions:
  status: ('A' for Active; 'I' for Inactive)
    1  A    between atoms: C_1  and  C_34
    2  A    between atoms: C_1  and  C_35
    3  A    between atoms: C_2  and  C_6
    4  A    between atoms: C_2  and  C_13
    5  A    between atoms: C_3  and  C_12
    6  A    between atoms: C_3  and  C_15
    7  A    between atoms: N_4  and  C_15
    8  A    between atoms: N_4  and  C_22
    9  A    between atoms: N_4  and  C_42
   10  A    between atoms: C_5  and  C_18
   11  A    between atoms: C_5  and  C_23
   12  A    between atoms: C_6  and  C_17
   13  A    between atoms: C_11  and  C_36
   14  A    between atoms: C_12  and  C_17
   15  A    between atoms: C_14  and  C_22
   16  A    between atoms: C_16  and  C_23
   17  A    between atoms: C_19  and  O_25
   18  A    between atoms: C_29  and  C_31
   19  A    between atoms: C_29  and  C_36
                            x       y       z     vdW  Elec       q    Type
                         _______ _______ _______ _____ _____    ______ ____

>  <TORSDO>
F 19

$$$$
=
 OpenBabel10262422273D

 43 46  0  0  1  0  0  0  0  0999 V2000
  185.8400  178.6300  140.0140 C   0  0  0  0  0  0  0  0  0  0  0  0
  186.3800  177.8200  142.7030 C   0  0  2  0  0  3  0  0  0  0  0  0
  187.7960  178.3030  137.9900 C   0  0  2  0  0  3  0  0  0  0  0  0
  187.8850  177.6900  139.2790 O   0  0  0  0  0  0  0  0  0  0  0  0
  187.3110  177.6640  141.6300 O   0  0  0  0  0  0  0  0  0  0  0  0
  186.9910  178.0010  140.3090 C   0  0  0  0  0  0  0  0  0  0  0  0
  185.5290  178.9190  138.6440 N   0  0  0  0  0  0  0  0  0  0  0  0
  184.8280  178.9420  141.0890 C   0  0  2  0  0  3  0  0  0  0  0  0
  185.4930  179.0410  142.4650 C   0  0  0  0  0  2  0  0  0  0  0  0
  186.3920  178.7440  137.6870 C   0  0  0  0  0  3  0  0  0  0  0  0
  187.1090  177.9410  144.0320 C   0  0  2  0  0  3  0  0  0  0  0  0
  187.7610  176.7550  144.3330 F   0  0  0  0  0  0  0  0  0  0  0  0
  186.1250  178.2950  145.1340 C   0  0  0  0  0  2  0  0  0  0  0  0
  186.3930  177.4560  146.3650 C   0  0  0  0  0  2  0  0  0  0  0  0
  186.9200  178.3410  147.4760 C   0  0  0  0  0  2  0  0  0  0  0  0
  188.4320  178.2190  147.5720 C   0  0  0  0  0  2  0  0  0  0  0  0
  188.8770  176.7760  147.3570 C   0  0  0  0  0  2  0  0  0  0  0  0
  190.1390  176.7310  146.6290 N   0  0  0  0  0  0  0  0  0  0  0  0
  191.9800  175.7430  147.6610 O   0  0  0  0  0  1  0  0  0  0  0  0
  191.2000  176.9000  147.6070 C   0  0  0  0  0  2  0  0  0  0  0  0
  190.1790  177.9040  145.7680 C   0  0  0  0  0  2  0  0  0  0  0  0
  190.7500  176.9370  143.4360 C   0  0  2  0  0  3  0  0  0  0  0  0
  191.1740  177.6940  144.6390 C   0  0  2  0  0  0  0  0  0  0  0  0
  191.5240  176.3460  144.4630 O   0  0  0  0  0  0  0  0  0  0  0  0
  192.2870  178.5350  144.5510 O   0  0  0  0  0  1  0  0  0  0  0  0
  191.6390  177.1980  142.2280 C   0  0  0  0  0  2  0  0  0  0  0  0
  190.8050  177.6030  141.0250 C   0  0  0  0  0  2  0  0  0  0  0  0
  190.7460  175.9100  139.3340 O   0  0  0  0  0  1  0  0  0  0  0  0
  191.4070  177.0730  139.7320 C   0  0  0  0  0  2  0  0  0  0  0  0
  183.7140  177.8960  141.1260 C   0  0  0  0  0  2  0  0  0  0  0  0
  180.3570  179.5820  141.5940 C   0  0  0  0  0  2  0  0  0  0  0  0
  180.2320  180.2070  140.2110 C   0  0  1  0  0  3  0  0  0  0  0  0
  181.9750  178.6360  139.3680 C   0  0  0  0  0  2  0  0  0  0  0  0
  181.6640  178.9830  141.7830 N   0  0  0  0  0  0  0  0  0  0  0  0
  182.3780  178.4960  140.8200 C   0  0  0  0  0  0  0  0  0  0  0  0
  180.5390  179.1240  139.1920 C   0  0  0  0  0  2  0  0  0  0  0  0
  178.9320  180.6740  140.0220 O   0  0  0  0  0  0  0  0  0  0  0  0
  179.1260  182.2660  139.4060 S   0  0  0  0  0  1  0  0  0  0  0  0
  188.2860  177.3530  136.9090 C   0  0  0  0  0  2  0  0  0  0  0  0
  187.5440  176.0240  136.9640 C   0  0  2  0  0  3  0  0  0  0  0  0
  188.4480  174.9860  137.1860 O   0  0  0  0  0  1  0  0  0  0  0  0
  186.7360  175.7590  135.6960 C   0  0  0  0  0  2  0  0  0  0  0  0
  185.2580  175.5450  135.9920 C   0  0  0  0  0  1  0  0  0  0  0  0
  1  6  2  0  0  0  0
  1  8  1  0  0  0  0
  2 11  1  1  0  0  0
  3 39  1  6  0  0  0
  3  4  1  0  0  0  0
  4  6  1  0  0  0  0
  5  2  1  0  0  0  0
  6  5  1  0  0  0  0
  7  1  1  0  0  0  0
  8 30  1  1  0  0  0
  8  9  1  0  0  0  0
  9  2  1  0  0  0  0
 10  3  1  0  0  0  0
 10  7  2  0  0  0  0
 11 12  1  1  0  0  0
 11 13  1  0  0  0  0
 13 14  1  0  0  0  0
 14 15  1  0  0  0  0
 15 16  1  0  0  0  0
 17 16  1  0  0  0  0
 18 17  1  0  0  0  0
 18 20  1  0  0  0  0
 20 19  1  0  0  0  0
 21 18  1  0  0  0  0
 22 26  1  6  0  0  0
 22 24  1  0  0  0  0
 22 23  1  0  0  0  0
 23 25  1  6  0  0  0
 23 21  1  0  0  0  0
 24 23  1  0  0  0  0
 27 26  1  0  0  0  0
 28 29  1  0  0  0  0
 29 27  1  0  0  0  0
 31 34  1  0  0  0  0
 32 37  1  6  0  0  0
 32 31  1  0  0  0  0
 33 35  1  0  0  0  0
 35 30  1  0  0  0  0
 35 34  2  0  0  0  0
 36 33  1  0  0  0  0
 36 32  1  0  0  0  0
 38 37  1  0  0  0  0
 39 40  1  0  0  0  0
 40 41  1  6  0  0  0
 42 43  1  0  0  0  0
 42 40  1  0  0  0  0
M  END
>  <MODEL>
3

>  <REMARK>
 VINA RESULT:      -6.4      4.566     10.065
  Name = 
  19 active torsions:
  status: ('A' for Active; 'I' for Inactive)
    1  A    between atoms: C_1  and  C_34
    2  A    between atoms: C_1  and  C_35
    3  A    between atoms: C_2  and  C_6
    4  A    between atoms: C_2  and  C_13
    5  A    between atoms: C_3  and  C_12
    6  A    between atoms: C_3  and  C_15
    7  A    between atoms: N_4  and  C_15
    8  A    between atoms: N_4  and  C_22
    9  A    between atoms: N_4  and  C_42
   10  A    between atoms: C_5  and  C_18
   11  A    between atoms: C_5  and  C_23
   12  A    between atoms: C_6  and  C_17
   13  A    between atoms: C_11  and  C_36
   14  A    between atoms: C_12  and  C_17
   15  A    between atoms: C_14  and  C_22
   16  A    between atoms: C_16  and  C_23
   17  A    between atoms: C_19  and  O_25
   18  A    between atoms: C_29  and  C_31
   19  A    between atoms: C_29  and  C_36
                            x       y       z     vdW  Elec       q    Type
                         _______ _______ _______ _____ _____    ______ ____

>  <TORSDO>
F 19

$$$$
=
 OpenBabel10262422273D

 43 46  0  0  1  0  0  0  0  0999 V2000
  187.8520  177.6630  142.5270 C   0  0  0  0  0  0  0  0  0  0  0  0
  185.6490  178.9530  143.8150 C   0  0  2  0  0  3  0  0  0  0  0  0
  188.2050  177.8720  139.7230 C   0  0  2  0  0  3  0  0  0  0  0  0
  187.3000  178.6920  140.4670 O   0  0  0  0  0  0  0  0  0  0  0  0
  185.8990  179.0360  142.4110 O   0  0  0  0  0  0  0  0  0  0  0  0
  187.0280  178.4550  141.8190 C   0  0  0  0  0  0  0  0  0  0  0  0
  189.0210  177.1230  141.8960 N   0  0  0  0  0  0  0  0  0  0  0  0
  187.6190  177.4190  143.9980 C   0  0  2  0  0  3  0  0  0  0  0  0
  186.1470  177.6190  144.3690 C   0  0  0  0  0  2  0  0  0  0  0  0
  189.2310  177.2340  140.6180 C   0  0  0  0  0  3  0  0  0  0  0  0
  184.1660  179.1310  144.1070 C   0  0  2  0  0  3  0  0  0  0  0  0
  183.7940  178.3580  145.1960 F   0  0  0  0  0  0  0  0  0  0  0  0
  183.3480  178.7480  142.8860 C   0  0  0  0  0  2  0  0  0  0  0  0
  181.8750  178.9870  143.1460 C   0  0  0  0  0  2  0  0  0  0  0  0
  181.1060  178.8750  141.8440 C   0  0  0  0  0  2  0  0  0  0  0  0
  182.0260  178.4020  140.7310 C   0  0  0  0  0  2  0  0  0  0  0  0
  181.3150  177.4070  139.8210 C   0  0  0  0  0  2  0  0  0  0  0  0
  181.5980  177.6980  138.4210 N   0  0  0  0  0  0  0  0  0  0  0  0
  183.8050  177.4290  137.7240 O   0  0  0  0  0  1  0  0  0  0  0  0
  182.6130  176.7520  137.9870 C   0  0  0  0  0  2  0  0  0  0  0  0
  182.2130  179.0160  138.3730 C   0  0  0  0  0  2  0  0  0  0  0  0
  181.2220  181.3830  138.0310 C   0  0  2  0  0  3  0  0  0  0  0  0
  181.3410  179.9750  137.5800 C   0  0  2  0  0  0  0  0  0  0  0  0
  180.2210  180.4190  138.3010 O   0  0  0  0  0  0  0  0  0  0  0  0
  181.0150  179.6590  136.2580 O   0  0  0  0  0  1  0  0  0  0  0  0
  180.7320  182.3170  136.9340 C   0  0  0  0  0  2  0  0  0  0  0  0
  180.2460  183.6300  137.5240 C   0  0  0  0  0  2  0  0  0  0  0  0
  181.3930  185.1670  136.0910 O   0  0  0  0  0  1  0  0  0  0  0  0
  180.1260  184.7050  136.4550 C   0  0  0  0  0  2  0  0  0  0  0  0
  188.4980  178.3270  144.8590 C   0  0  0  0  0  2  0  0  0  0  0  0
  190.8080  176.6030  147.3130 C   0  0  0  0  0  2  0  0  0  0  0  0
  191.5020  175.6630  146.3360 C   0  0  1  0  0  3  0  0  0  0  0  0
  190.7260  177.0920  144.4460 C   0  0  0  0  0  2  0  0  0  0  0  0
  189.7110  177.3060  146.6750 N   0  0  0  0  0  0  0  0  0  0  0  0
  189.6780  177.5930  145.4150 C   0  0  0  0  0  0  0  0  0  0  0  0
  191.9450  176.4920  145.1430 C   0  0  0  0  0  2  0  0  0  0  0  0
  192.6150  175.0880  146.9470 O   0  0  0  0  0  0  0  0  0  0  0  0
  192.7810  175.9330  148.4340 S   0  0  0  0  0  1  0  0  0  0  0  0
  188.8940  178.6820  138.6380 C   0  0  0  0  0  2  0  0  0  0  0  0
  188.2830  178.4050  137.2690 C   0  0  2  0  0  3  0  0  0  0  0  0
  187.0140  178.9770  137.1950 O   0  0  0  0  0  1  0  0  0  0  0  0
  188.2100  176.9120  136.9590 C   0  0  0  0  0  2  0  0  0  0  0  0
  189.0930  176.5290  135.7790 C   0  0  0  0  0  1  0  0  0  0  0  0
  1  8  1  0  0  0  0
  2 11  1  6  0  0  0
  2  9  1  0  0  0  0
  3 39  1  6  0  0  0
  3  4  1  0  0  0  0
  3 10  1  0  0  0  0
  4  6  1  0  0  0  0
  5  2  1  0  0  0  0
  6  5  1  0  0  0  0
  6  1  2  0  0  0  0
  7  1  1  0  0  0  0
  8  9  1  0  0  0  0
  8 30  1  1  0  0  0
 10  7  2  0  0  0  0
 11 12  1  1  0  0  0
 13 14  1  0  0  0  0
 13 11  1  0  0  0  0
 15 14  1  0  0  0  0
 16 15  1  0  0  0  0
 17 16  1  0  0  0  0
 18 17  1  0  0  0  0
 19 20  1  0  0  0  0
 20 18  1  0  0  0  0
 21 18  1  0  0  0  0
 22 26  1  6  0  0  0
 22 24  1  0  0  0  0
 23 25  1  6  0  0  0
 23 22  1  0  0  0  0
 23 24  1  0  0  0  0
 23 21  1  0  0  0  0
 26 27  1  0  0  0  0
 28 29  1  0  0  0  0
 29 27  1  0  0  0  0
 30 35  1  0  0  0  0
 32 37  1  1  0  0  0
 32 31  1  0  0  0  0
 33 36  1  0  0  0  0
 33 35  1  0  0  0  0
 34 31  1  0  0  0  0
 35 34  2  0  0  0  0
 36 32  1  0  0  0  0
 37 38  1  0  0  0  0
 40 41  1  1  0  0  0
 40 39  1  0  0  0  0
 42 40  1  0  0  0  0
 43 42  1  0  0  0  0
M  END
>  <MODEL>
4

>  <REMARK>
 VINA RESULT:      -6.2      3.987      7.847
  Name = 
  19 active torsions:
  status: ('A' for Active; 'I' for Inactive)
    1  A    between atoms: C_1  and  C_34
    2  A    between atoms: C_1  and  C_35
    3  A    between atoms: C_2  and  C_6
    4  A    between atoms: C_2  and  C_13
    5  A    between atoms: C_3  and  C_12
    6  A    between atoms: C_3  and  C_15
    7  A    between atoms: N_4  and  C_15
    8  A    between atoms: N_4  and  C_22
    9  A    between atoms: N_4  and  C_42
   10  A    between atoms: C_5  and  C_18
   11  A    between atoms: C_5  and  C_23
   12  A    between atoms: C_6  and  C_17
   13  A    between atoms: C_11  and  C_36
   14  A    between atoms: C_12  and  C_17
   15  A    between atoms: C_14  and  C_22
   16  A    between atoms: C_16  and  C_23
   17  A    between atoms: C_19  and  O_25
   18  A    between atoms: C_29  and  C_31
   19  A    between atoms: C_29  and  C_36
                            x       y       z     vdW  Elec       q    Type
                         _______ _______ _______ _____ _____    ______ ____

>  <TORSDO>
F 19

$$$$
=
 OpenBabel10262422273D

 43 46  0  0  1  0  0  0  0  0999 V2000
  189.9210  177.1950  139.8050 C   0  0  0  0  0  0  0  0  0  0  0  0
  187.8960  177.5770  137.8230 C   0  0  2  0  0  3  0  0  0  0  0  0
  189.3630  177.6560  142.5450 C   0  0  2  0  0  3  0  0  0  0  0  0
  188.3510  177.5660  141.5380 O   0  0  0  0  0  0  0  0  0  0  0  0
  187.6760  177.7690  139.2220 O   0  0  0  0  0  0  0  0  0  0  0  0
  188.6660  177.5020  140.1760 C   0  0  0  0  0  0  0  0  0  0  0  0
  190.8960  176.8860  140.8110 N   0  0  0  0  0  0  0  0  0  0  0  0
  190.2910  177.0720  138.3470 C   0  0  2  0  0  3  0  0  0  0  0  0
  189.3480  177.8900  137.4630 C   0  0  0  0  0  2  0  0  0  0  0  0
  190.6570  177.0500  142.0780 C   0  0  0  0  0  3  0  0  0  0  0  0
  186.9450  178.4410  137.0080 C   0  0  2  0  0  3  0  0  0  0  0  0
  185.9940  179.0210  137.8340 F   0  0  0  0  0  0  0  0  0  0  0  0
  186.2700  177.6020  135.9370 C   0  0  0  0  0  2  0  0  0  0  0  0
  185.3670  176.5670  136.5740 C   0  0  0  0  0  2  0  0  0  0  0  0
  183.9410  176.7820  136.1080 C   0  0  0  0  0  2  0  0  0  0  0  0
  183.1550  177.5440  137.1620 C   0  0  0  0  0  2  0  0  0  0  0  0
  182.1960  176.6170  137.9030 C   0  0  0  0  0  2  0  0  0  0  0  0
  181.9410  177.1130  139.2500 N   0  0  0  0  0  0  0  0  0  0  0  0
  179.8320  176.6290  138.3850 O   0  0  0  0  0  1  0  0  0  0  0  0
  180.5160  177.3830  139.3410 C   0  0  0  0  0  2  0  0  0  0  0  0
  182.6140  178.3990  139.3680 C   0  0  0  0  0  2  0  0  0  0  0  0
  184.6510  178.7330  140.9300 C   0  0  2  0  0  3  0  0  0  0  0  0
  183.1860  178.5660  140.7650 C   0  0  2  0  0  0  0  0  0  0  0  0
  184.0040  177.4940  141.1530 O   0  0  0  0  0  0  0  0  0  0  0  0
  182.3390  178.9740  141.8000 O   0  0  0  0  0  1  0  0  0  0  0  0
  185.0300  179.3470  142.2700 C   0  0  0  0  0  2  0  0  0  0  0  0
  185.3940  178.2650  143.2720 C   0  0  0  0  0  2  0  0  0  0  0  0
  183.8260  179.5680  144.5250 O   0  0  0  0  0  1  0  0  0  0  0  0
  184.7470  178.5230  144.6240 C   0  0  0  0  0  2  0  0  0  0  0  0
  190.2900  175.6110  137.8940 C   0  0  0  0  0  2  0  0  0  0  0  0
  193.1120  173.4540  136.5880 C   0  0  0  0  0  2  0  0  0  0  0  0
  194.1550  174.5480  136.4000 C   0  0  1  0  0  3  0  0  0  0  0  0
  192.8360  176.0310  137.9090 C   0  0  0  0  0  2  0  0  0  0  0  0
  191.8210  174.0130  136.9370 N   0  0  0  0  0  0  0  0  0  0  0  0
  191.6690  175.1250  137.5800 C   0  0  0  0  0  0  0  0  0  0  0  0
  194.1910  175.3670  137.6790 C   0  0  0  0  0  2  0  0  0  0  0  0
  195.4050  173.9730  136.1750 O   0  0  0  0  0  0  0  0  0  0  0  0
  195.0750  172.3140  135.8790 S   0  0  0  0  0  1  0  0  0  0  0  0
  188.9050  176.9800  143.8260 C   0  0  0  0  0  2  0  0  0  0  0  0
  188.7940  177.9810  144.9700 C   0  0  2  0  0  3  0  0  0  0  0  0
  190.0680  178.3570  145.3940 O   0  0  0  0  0  1  0  0  0  0  0  0
  187.9860  177.4320  146.1430 C   0  0  0  0  0  2  0  0  0  0  0  0
  188.8340  177.2680  147.3960 C   0  0  0  0  0  1  0  0  0  0  0  0
  1  6  2  0  0  0  0
  1  7  1  0  0  0  0
  2 11  1  6  0  0  0
  2  5  1  0  0  0  0
  3 39  1  1  0  0  0
  4  3  1  0  0  0  0
  5  6  1  0  0  0  0
  6  4  1  0  0  0  0
  7 10  2  0  0  0  0
  8 30  1  6  0  0  0
  8  1  1  0  0  0  0
  9  2  1  0  0  0  0
  9  8  1  0  0  0  0
 10  3  1  0  0  0  0
 11 12  1  1  0  0  0
 13 14  1  0  0  0  0
 13 11  1  0  0  0  0
 15 14  1  0  0  0  0
 15 16  1  0  0  0  0
 16 17  1  0  0  0  0
 17 18  1  0  0  0  0
 18 20  1  0  0  0  0
 18 21  1  0  0  0  0
 19 20  1  0  0  0  0
 21 23  1  0  0  0  0
 22 24  1  0  0  0  0
 22 26  1  1  0  0  0
 23 22  1  0  0  0  0
 23 24  1  0  0  0  0
 23 25  1  1  0  0  0
 26 27  1  0  0  0  0
 27 29  1  0  0  0  0
 28 29  1  0  0  0  0
 31 34  1  0  0  0  0
 32 37  1  1  0  0  0
 32 31  1  0  0  0  0
 32 36  1  0  0  0  0
 34 35  2  0  0  0  0
 35 30  1  0  0  0  0
 35 33  1  0  0  0  0
 36 33  1  0  0  0  0
 38 37  1  0  0  0  0
 39 40  1  0  0  0  0
 40 41  1  1  0  0  0
 40 42  1  0  0  0  0
 42 43  1  0  0  0  0
M  END
>  <MODEL>
5

>  <REMARK>
 VINA RESULT:      -6.2      1.572      1.905
  Name = 
  19 active torsions:
  status: ('A' for Active; 'I' for Inactive)
    1  A    between atoms: C_1  and  C_34
    2  A    between atoms: C_1  and  C_35
    3  A    between atoms: C_2  and  C_6
    4  A    between atoms: C_2  and  C_13
    5  A    between atoms: C_3  and  C_12
    6  A    between atoms: C_3  and  C_15
    7  A    between atoms: N_4  and  C_15
    8  A    between atoms: N_4  and  C_22
    9  A    between atoms: N_4  and  C_42
   10  A    between atoms: C_5  and  C_18
   11  A    between atoms: C_5  and  C_23
   12  A    between atoms: C_6  and  C_17
   13  A    between atoms: C_11  and  C_36
   14  A    between atoms: C_12  and  C_17
   15  A    between atoms: C_14  and  C_22
   16  A    between atoms: C_16  and  C_23
   17  A    between atoms: C_19  and  O_25
   18  A    between atoms: C_29  and  C_31
   19  A    between atoms: C_29  and  C_36
                            x       y       z     vdW  Elec       q    Type
                         _______ _______ _______ _____ _____    ______ ____

>  <TORSDO>
F 19

$$$$
=
 OpenBabel10262422273D

 43 46  0  0  1  0  0  0  0  0999 V2000
  188.5470  177.1410  141.5560 C   0  0  0  0  0  0  0  0  0  0  0  0
  189.0270  178.6320  139.1640 C   0  0  2  0  0  3  0  0  0  0  0  0
  190.6950  175.9410  142.9620 C   0  0  2  0  0  3  0  0  0  0  0  0
  190.8740  176.9110  141.9260 O   0  0  0  0  0  0  0  0  0  0  0  0
  190.0640  178.0210  139.9330 O   0  0  0  0  0  0  0  0  0  0  0  0
  189.8070  177.3600  141.1410 C   0  0  0  0  0  0  0  0  0  0  0  0
  188.3250  176.4990  142.8190 N   0  0  0  0  0  0  0  0  0  0  0  0
  187.3680  177.6490  140.7610 C   0  0  2  0  0  3  0  0  0  0  0  0
  187.7300  177.8320  139.2860 C   0  0  0  0  0  2  0  0  0  0  0  0
  189.2940  175.9730  143.5070 C   0  0  0  0  0  3  0  0  0  0  0  0
  189.4430  178.7540  137.7060 C   0  0  2  0  0  3  0  0  0  0  0  0
  188.6690  179.7090  137.0630 F   0  0  0  0  0  0  0  0  0  0  0  0
  189.3040  177.4100  137.0120 C   0  0  0  0  0  2  0  0  0  0  0  0
  188.4970  177.5590  135.7390 C   0  0  0  0  0  2  0  0  0  0  0  0
  187.3250  176.5980  135.7670 C   0  0  0  0  0  2  0  0  0  0  0  0
  187.7170  175.3130  136.4770 C   0  0  0  0  0  2  0  0  0  0  0  0
  187.5640  174.1100  135.5510 C   0  0  0  0  0  2  0  0  0  0  0  0
  188.6050  173.1240  135.8150 N   0  0  0  0  0  0  0  0  0  0  0  0
  188.3100  170.8200  135.6240 O   0  0  0  0  0  1  0  0  0  0  0  0
  187.9470  171.9490  136.3610 C   0  0  0  0  0  2  0  0  0  0  0  0
  189.4440  173.6600  136.8770 C   0  0  0  0  0  2  0  0  0  0  0  0
  191.8380  174.6140  137.1150 C   0  0  2  0  0  3  0  0  0  0  0  0
  190.8960  173.6940  136.4320 C   0  0  2  0  0  0  0  0  0  0  0  0
  191.2640  174.9210  135.8580 O   0  0  0  0  0  0  0  0  0  0  0  0
  191.4110  172.6100  135.7140 O   0  0  0  0  0  1  0  0  0  0  0  0
  193.2970  174.2250  136.9150 C   0  0  0  0  0  2  0  0  0  0  0  0
  194.1700  174.8430  137.9940 C   0  0  0  0  0  2  0  0  0  0  0  0
  195.0610  172.9100  139.0870 O   0  0  0  0  0  1  0  0  0  0  0  0
  195.3980  173.9890  138.2670 C   0  0  0  0  0  2  0  0  0  0  0  0
  186.8390  178.9650  141.3320 C   0  0  0  0  0  2  0  0  0  0  0  0
  183.3910  179.5280  139.8750 C   0  0  0  0  0  2  0  0  0  0  0  0
  182.6120  178.5920  140.7890 C   0  0  1  0  0  3  0  0  0  0  0  0
  184.5150  178.6180  142.3990 C   0  0  0  0  0  2  0  0  0  0  0  0
  184.8200  179.4030  140.0890 N   0  0  0  0  0  0  0  0  0  0  0  0
  185.3510  179.0620  141.2180 C   0  0  0  0  0  0  0  0  0  0  0  0
  183.0260  178.9010  142.2170 C   0  0  0  0  0  2  0  0  0  0  0  0
  181.2450  178.8170  140.6370 O   0  0  0  0  0  0  0  0  0  0  0  0
  180.6080  178.7230  142.2300 S   0  0  0  0  0  1  0  0  0  0  0  0
  191.6940  176.1660  144.0850 C   0  0  0  0  0  2  0  0  0  0  0  0
  191.1730  177.1840  145.0930 C   0  0  2  0  0  3  0  0  0  0  0  0
  191.7990  178.4130  144.8900 O   0  0  0  0  0  1  0  0  0  0  0  0
  191.3660  176.7220  146.5350 C   0  0  0  0  0  2  0  0  0  0  0  0
  190.0730  176.7850  147.3350 C   0  0  0  0  0  1  0  0  0  0  0  0
  1  7  1  0  0  0  0
  2 11  1  6  0  0  0
  2  9  1  0  0  0  0
  2  5  1  0  0  0  0
  3 10  1  0  0  0  0
  3 39  1  1  0  0  0
  4  3  1  0  0  0  0
  5  6  1  0  0  0  0
  6  1  2  0  0  0  0
  6  4  1  0  0  0  0
  7 10  2  0  0  0  0
  8 30  1  1  0  0  0
  8  1  1  0  0  0  0
  9  8  1  0  0  0  0
 11 12  1  6  0  0  0
 13 11  1  0  0  0  0
 14 15  1  0  0  0  0
 14 13  1  0  0  0  0
 15 16  1  0  0  0  0
 17 18  1  0  0  0  0
 17 16  1  0  0  0  0
 18 20  1  0  0  0  0
 18 21  1  0  0  0  0
 19 20  1  0  0  0  0
 22 26  1  6  0  0  0
 23 25  1  6  0  0  0
 23 21  1  0  0  0  0
 23 22  1  0  0  0  0
 24 23  1  0  0  0  0
 24 22  1  0  0  0  0
 26 27  1  0  0  0  0
 27 29  1  0  0  0  0
 29 28  1  0  0  0  0
 31 34  1  0  0  0  0
 31 32  1  0  0  0  0
 32 37  1  1  0  0  0
 32 36  1  0  0  0  0
 34 35  2  0  0  0  0
 35 30  1  0  0  0  0
 35 33  1  0  0  0  0
 36 33  1  0  0  0  0
 37 38  1  0  0  0  0
 39 40  1  0  0  0  0
 40 41  1  1  0  0  0
 40 42  1  0  0  0  0
 42 43  1  0  0  0  0
M  END
>  <MODEL>
6

>  <REMARK>
 VINA RESULT:      -6.1      3.810      8.631
  Name = 
  19 active torsions:
  status: ('A' for Active; 'I' for Inactive)
    1  A    between atoms: C_1  and  C_34
    2  A    between atoms: C_1  and  C_35
    3  A    between atoms: C_2  and  C_6
    4  A    between atoms: C_2  and  C_13
    5  A    between atoms: C_3  and  C_12
    6  A    between atoms: C_3  and  C_15
    7  A    between atoms: N_4  and  C_15
    8  A    between atoms: N_4  and  C_22
    9  A    between atoms: N_4  and  C_42
   10  A    between atoms: C_5  and  C_18
   11  A    between atoms: C_5  and  C_23
   12  A    between atoms: C_6  and  C_17
   13  A    between atoms: C_11  and  C_36
   14  A    between atoms: C_12  and  C_17
   15  A    between atoms: C_14  and  C_22
   16  A    between atoms: C_16  and  C_23
   17  A    between atoms: C_19  and  O_25
   18  A    between atoms: C_29  and  C_31
   19  A    between atoms: C_29  and  C_36
                            x       y       z     vdW  Elec       q    Type
                         _______ _______ _______ _____ _____    ______ ____

>  <TORSDO>
F 19

$$$$
=
 OpenBabel10262422273D

 43 46  0  0  1  0  0  0  0  0999 V2000
  189.8510  177.2980  140.0020 C   0  0  0  0  0  0  0  0  0  0  0  0
  187.9830  177.6750  137.8700 C   0  0  2  0  0  3  0  0  0  0  0  0
  189.0560  177.6670  142.6970 C   0  0  2  0  0  3  0  0  0  0  0  0
  188.1330  177.5750  141.6080 O   0  0  0  0  0  0  0  0  0  0  0  0
  187.6440  177.8220  139.2500 O   0  0  0  0  0  0  0  0  0  0  0  0
  188.5600  177.5580  140.2760 C   0  0  0  0  0  0  0  0  0  0  0  0
  190.7490  176.9890  141.0770 N   0  0  0  0  0  0  0  0  0  0  0  0
  190.3430  177.2250  138.5770 C   0  0  2  0  0  3  0  0  0  0  0  0
  189.4490  178.0400  137.6380 C   0  0  0  0  0  2  0  0  0  0  0  0
  190.4020  177.1120  142.3240 C   0  0  0  0  0  3  0  0  0  0  0  0
  187.0760  178.5330  137.0010 C   0  0  2  0  0  3  0  0  0  0  0  0
  185.8590  178.7400  137.6330 F   0  0  0  0  0  0  0  0  0  0  0  0
  186.8620  177.8630  135.6540 C   0  0  0  0  0  2  0  0  0  0  0  0
  186.8400  176.3580  135.8150 C   0  0  0  0  0  2  0  0  0  0  0  0
  185.4400  175.8410  135.5520 C   0  0  0  0  0  2  0  0  0  0  0  0
  184.6960  175.6520  136.8640 C   0  0  0  0  0  2  0  0  0  0  0  0
  183.8230  174.4020  136.8210 C   0  0  0  0  0  2  0  0  0  0  0  0
  182.5970  174.6050  137.5830 N   0  0  0  0  0  0  0  0  0  0  0  0
  182.0730  173.0610  135.9180 O   0  0  0  0  0  1  0  0  0  0  0  0
  181.5280  173.9440  136.8520 C   0  0  0  0  0  2  0  0  0  0  0  0
  182.3020  176.0300  137.5480 C   0  0  0  0  0  2  0  0  0  0  0  0
  182.9400  177.3850  139.6590 C   0  0  2  0  0  3  0  0  0  0  0  0
  181.9620  176.5310  138.9410 C   0  0  2  0  0  0  0  0  0  0  0  0
  182.8050  176.0030  139.9320 O   0  0  0  0  0  0  0  0  0  0  0  0
  180.6260  176.5450  139.3500 O   0  0  0  0  0  1  0  0  0  0  0  0
  182.3100  178.1820  140.7930 C   0  0  0  0  0  2  0  0  0  0  0  0
  183.3810  178.8290  141.6540 C   0  0  0  0  0  2  0  0  0  0  0  0
  185.6600  179.5610  141.7070 O   0  0  0  0  0  1  0  0  0  0  0  0
  184.6920  178.9660  140.8950 C   0  0  0  0  0  2  0  0  0  0  0  0
  190.4230  175.7780  138.0890 C   0  0  0  0  0  2  0  0  0  0  0  0
  193.9330  176.2330  136.7450 C   0  0  0  0  0  2  0  0  0  0  0  0
  194.4330  174.8100  136.9560 C   0  0  1  0  0  3  0  0  0  0  0  0
  192.0720  174.0320  137.1450 C   0  0  0  0  0  2  0  0  0  0  0  0
  192.6220  176.4210  137.3360 N   0  0  0  0  0  0  0  0  0  0  0  0
  191.7500  175.4750  137.4680 C   0  0  0  0  0  0  0  0  0  0  0  0
  193.3860  173.8690  136.3850 C   0  0  0  0  0  2  0  0  0  0  0  0
  195.6410  174.6320  136.2820 O   0  0  0  0  0  0  0  0  0  0  0  0
  196.6560  173.8280  137.4120 S   0  0  0  0  0  1  0  0  0  0  0  0
  188.5160  176.9430  143.9190 C   0  0  0  0  0  2  0  0  0  0  0  0
  188.4070  177.8820  145.1140 C   0  0  2  0  0  3  0  0  0  0  0  0
  189.5690  177.8090  145.8810 O   0  0  0  0  0  1  0  0  0  0  0  0
  187.1840  177.5810  145.9770 C   0  0  0  0  0  2  0  0  0  0  0  0
  185.9720  178.4040  145.5600 C   0  0  0  0  0  1  0  0  0  0  0  0
  1  6  2  0  0  0  0
  1  7  1  0  0  0  0
  2 11  1  6  0  0  0
  2  5  1  0  0  0  0
  3 39  1  1  0  0  0
  4  3  1  0  0  0  0
  5  6  1  0  0  0  0
  6  4  1  0  0  0  0
  7 10  2  0  0  0  0
  8 30  1  6  0  0  0
  8  1  1  0  0  0  0
  9  2  1  0  0  0  0
  9  8  1  0  0  0  0
 10  3  1  0  0  0  0
 11 12  1  1  0  0  0
 13 14  1  0  0  0  0
 13 11  1  0  0  0  0
 15 14  1  0  0  0  0
 15 16  1  0  0  0  0
 17 16  1  0  0  0  0
 17 18  1  0  0  0  0
 19 20  1  0  0  0  0
 20 18  1  0  0  0  0
 21 18  1  0  0  0  0
 21 23  1  0  0  0  0
 22 24  1  0  0  0  0
 22 26  1  1  0  0  0
 23 25  1  1  0  0  0
 23 22  1  0  0  0  0
 23 24  1  0  0  0  0
 26 27  1  0  0  0  0
 29 27  1  0  0  0  0
 29 28  1  0  0  0  0
 31 32  1  0  0  0  0
 31 34  1  0  0  0  0
 32 37  1  6  0  0  0
 33 35  1  0  0  0  0
 34 35  2  0  0  0  0
 35 30  1  0  0  0  0
 36 32  1  0  0  0  0
 36 33  1  0  0  0  0
 37 38  1  0  0  0  0
 39 40  1  0  0  0  0
 40 41  1  1  0  0  0
 40 42  1  0  0  0  0
 43 42  1  0  0  0  0
M  END
>  <MODEL>
7

>  <REMARK>
 VINA RESULT:      -6.1      2.053      3.051
  Name = 
  19 active torsions:
  status: ('A' for Active; 'I' for Inactive)
    1  A    between atoms: C_1  and  C_34
    2  A    between atoms: C_1  and  C_35
    3  A    between atoms: C_2  and  C_6
    4  A    between atoms: C_2  and  C_13
    5  A    between atoms: C_3  and  C_12
    6  A    between atoms: C_3  and  C_15
    7  A    between atoms: N_4  and  C_15
    8  A    between atoms: N_4  and  C_22
    9  A    between atoms: N_4  and  C_42
   10  A    between atoms: C_5  and  C_18
   11  A    between atoms: C_5  and  C_23
   12  A    between atoms: C_6  and  C_17
   13  A    between atoms: C_11  and  C_36
   14  A    between atoms: C_12  and  C_17
   15  A    between atoms: C_14  and  C_22
   16  A    between atoms: C_16  and  C_23
   17  A    between atoms: C_19  and  O_25
   18  A    between atoms: C_29  and  C_31
   19  A    between atoms: C_29  and  C_36
                            x       y       z     vdW  Elec       q    Type
                         _______ _______ _______ _____ _____    ______ ____

>  <TORSDO>
F 19

$$$$
=
 OpenBabel10262422273D

 43 46  0  0  1  0  0  0  0  0999 V2000
  189.2880  176.2150  137.9200 C   0  0  0  0  0  0  0  0  0  0  0  0
  190.4480  177.5920  140.1420 C   0  0  2  0  0  3  0  0  0  0  0  0
  186.5600  176.5940  137.2540 C   0  0  2  0  0  3  0  0  0  0  0  0
  187.2720  177.4330  138.1670 O   0  0  0  0  0  0  0  0  0  0  0  0
  189.0870  177.7540  139.7380 O   0  0  0  0  0  0  0  0  0  0  0  0
  188.5660  177.1230  138.6000 C   0  0  0  0  0  0  0  0  0  0  0  0
  188.7360  175.6240  136.7350 N   0  0  0  0  0  0  0  0  0  0  0  0
  190.7040  175.8860  138.3270 C   0  0  2  0  0  3  0  0  0  0  0  0
  190.9390  176.1830  139.8100 C   0  0  0  0  0  2  0  0  0  0  0  0
  187.4990  175.8090  136.3820 C   0  0  0  0  0  3  0  0  0  0  0  0
  190.6020  177.8740  141.6290 C   0  0  2  0  0  3  0  0  0  0  0  0
  191.9400  177.8370  141.9890 F   0  0  0  0  0  0  0  0  0  0  0  0
  189.8120  176.8560  142.4340 C   0  0  0  0  0  2  0  0  0  0  0  0
  190.6600  176.3110  143.5650 C   0  0  0  0  0  2  0  0  0  0  0  0
  190.4870  177.1830  144.7930 C   0  0  0  0  0  2  0  0  0  0  0  0
  189.0480  177.6570  144.9010 C   0  0  0  0  0  2  0  0  0  0  0  0
  188.4210  177.2030  146.2150 C   0  0  0  0  0  2  0  0  0  0  0  0
  187.3940  178.1440  146.6460 N   0  0  0  0  0  0  0  0  0  0  0  0
  188.5660  177.4770  148.5470 O   0  0  0  0  0  1  0  0  0  0  0  0
  187.5240  178.2840  148.0870 C   0  0  0  0  0  2  0  0  0  0  0  0
  186.1060  177.5110  146.4060 C   0  0  0  0  0  2  0  0  0  0  0  0
  185.2620  178.3690  144.1140 C   0  0  2  0  0  3  0  0  0  0  0  0
  185.2100  178.4330  145.5950 C   0  0  2  0  0  0  0  0  0  0  0  0
  185.9320  179.3770  144.8470 O   0  0  0  0  0  0  0  0  0  0  0  0
  184.0910  179.0030  146.2080 O   0  0  0  0  0  1  0  0  0  0  0  0
  184.0300  178.9690  143.4520 C   0  0  0  0  0  2  0  0  0  0  0  0
  183.9230  178.5150  142.0060 C   0  0  0  0  0  2  0  0  0  0  0  0
  184.9310  179.7460  140.2180 O   0  0  0  0  0  1  0  0  0  0  0  0
  185.1960  178.8260  141.2340 C   0  0  0  0  0  2  0  0  0  0  0  0
  191.7180  176.6520  137.4770 C   0  0  0  0  0  2  0  0  0  0  0  0
  194.5980  175.3800  135.3740 C   0  0  0  0  0  2  0  0  0  0  0  0
  195.1530  174.3610  136.3590 C   0  0  1  0  0  3  0  0  0  0  0  0
  192.9890  174.4090  137.5950 C   0  0  0  0  0  2  0  0  0  0  0  0
  193.5470  176.1760  135.9790 N   0  0  0  0  0  0  0  0  0  0  0  0
  192.7750  175.7490  136.9250 C   0  0  0  0  0  0  0  0  0  0  0  0
  193.9870  173.5230  136.8540 C   0  0  0  0  0  2  0  0  0  0  0  0
  196.0790  173.5410  135.7150 O   0  0  0  0  0  0  0  0  0  0  0  0
  196.6350  172.4680  136.9350 S   0  0  0  0  0  1  0  0  0  0  0  0
  185.6180  177.4180  136.3930 C   0  0  0  0  0  2  0  0  0  0  0  0
  184.5030  176.5570  135.8120 C   0  0  2  0  0  3  0  0  0  0  0  0
  183.6760  177.3360  135.0040 O   0  0  0  0  0  1  0  0  0  0  0  0
  183.6830  175.8620  136.8960 C   0  0  0  0  0  2  0  0  0  0  0  0
  183.7450  174.3460  136.7790 C   0  0  0  0  0  1  0  0  0  0  0  0
  1  8  1  0  0  0  0
  1  6  2  0  0  0  0
  2 11  1  1  0  0  0
  3 39  1  6  0  0  0
  3  4  1  0  0  0  0
  4  6  1  0  0  0  0
  5  2  1  0  0  0  0
  6  5  1  0  0  0  0
  7  1  1  0  0  0  0
  8 30  1  6  0  0  0
  8  9  1  0  0  0  0
  9  2  1  0  0  0  0
 10  7  2  0  0  0  0
 10  3  1  0  0  0  0
 11 12  1  1  0  0  0
 11 13  1  0  0  0  0
 13 14  1  0  0  0  0
 14 15  1  0  0  0  0
 15 16  1  0  0  0  0
 16 17  1  0  0  0  0
 17 18  1  0  0  0  0
 18 20  1  0  0  0  0
 20 19  1  0  0  0  0
 21 18  1  0  0  0  0
 22 26  1  6  0  0  0
 22 24  1  0  0  0  0
 22 23  1  0  0  0  0
 23 25  1  1  0  0  0
 23 21  1  0  0  0  0
 24 23  1  0  0  0  0
 27 26  1  0  0  0  0
 28 29  1  0  0  0  0
 29 27  1  0  0  0  0
 31 34  1  0  0  0  0
 31 32  1  0  0  0  0
 32 37  1  6  0  0  0
 32 36  1  0  0  0  0
 34 35  2  0  0  0  0
 35 30  1  0  0  0  0
 35 33  1  0  0  0  0
 36 33  1  0  0  0  0
 37 38  1  0  0  0  0
 40 41  1  1  0  0  0
 40 39  1  0  0  0  0
 40 42  1  0  0  0  0
 43 42  1  0  0  0  0
M  END
>  <MODEL>
8

>  <REMARK>
 VINA RESULT:      -6.0      2.370      6.224
  Name = 
  19 active torsions:
  status: ('A' for Active; 'I' for Inactive)
    1  A    between atoms: C_1  and  C_34
    2  A    between atoms: C_1  and  C_35
    3  A    between atoms: C_2  and  C_6
    4  A    between atoms: C_2  and  C_13
    5  A    between atoms: C_3  and  C_12
    6  A    between atoms: C_3  and  C_15
    7  A    between atoms: N_4  and  C_15
    8  A    between atoms: N_4  and  C_22
    9  A    between atoms: N_4  and  C_42
   10  A    between atoms: C_5  and  C_18
   11  A    between atoms: C_5  and  C_23
   12  A    between atoms: C_6  and  C_17
   13  A    between atoms: C_11  and  C_36
   14  A    between atoms: C_12  and  C_17
   15  A    between atoms: C_14  and  C_22
   16  A    between atoms: C_16  and  C_23
   17  A    between atoms: C_19  and  O_25
   18  A    between atoms: C_29  and  C_31
   19  A    between atoms: C_29  and  C_36
                            x       y       z     vdW  Elec       q    Type
                         _______ _______ _______ _____ _____    ______ ____

>  <TORSDO>
F 19

$$$$
=
 OpenBabel10262422273D

 43 46  0  0  1  0  0  0  0  0999 V2000
  187.1400  177.9270  142.4880 C   0  0  0  0  0  0  0  0  0  0  0  0
  184.6790  179.1920  143.2070 C   0  0  2  0  0  3  0  0  0  0  0  0
  188.1440  178.1250  139.8450 C   0  0  2  0  0  3  0  0  0  0  0  0
  187.0780  178.9370  140.3460 O   0  0  0  0  0  0  0  0  0  0  0  0
  185.2530  179.2710  141.9010 O   0  0  0  0  0  0  0  0  0  0  0  0
  186.4970  178.7030  141.5980 C   0  0  0  0  0  0  0  0  0  0  0  0
  188.4320  177.4000  142.1550 N   0  0  0  0  0  0  0  0  0  0  0  0
  186.5690  177.6880  143.8640 C   0  0  2  0  0  3  0  0  0  0  0  0
  185.0500  177.8680  143.8750 C   0  0  0  0  0  2  0  0  0  0  0  0
  188.9370  177.5080  140.9620 C   0  0  0  0  0  3  0  0  0  0  0  0
  183.1670  179.3500  143.1390 C   0  0  2  0  0  3  0  0  0  0  0  0
  182.5780  178.8350  144.2830 F   0  0  0  0  0  0  0  0  0  0  0  0
  182.6270  178.6450  141.9060 C   0  0  0  0  0  2  0  0  0  0  0  0
  181.1170  178.5580  141.9720 C   0  0  0  0  0  2  0  0  0  0  0  0
  180.5530  178.4760  140.5680 C   0  0  0  0  0  2  0  0  0  0  0  0
  181.1670  177.3020  139.8230 C   0  0  0  0  0  2  0  0  0  0  0  0
  180.6310  177.2200  138.3970 C   0  0  0  0  0  2  0  0  0  0  0  0
  181.3450  176.2000  137.6390 N   0  0  0  0  0  0  0  0  0  0  0  0
  181.6480  173.8890  137.5950 O   0  0  0  0  0  1  0  0  0  0  0  0
  180.8200  174.9120  138.0630 C   0  0  0  0  0  2  0  0  0  0  0  0
  182.7350  176.2410  138.0680 C   0  0  0  0  0  2  0  0  0  0  0  0
  184.9090  176.1840  136.6640 C   0  0  2  0  0  3  0  0  0  0  0  0
  183.6060  176.8250  136.9680 C   0  0  2  0  0  0  0  0  0  0  0  0
  184.8120  177.3560  137.4510 O   0  0  0  0  0  0  0  0  0  0  0  0
  183.0210  177.6550  136.0080 O   0  0  0  0  0  1  0  0  0  0  0  0
  185.4420  176.5510  135.2860 C   0  0  0  0  0  2  0  0  0  0  0  0
  186.6850  175.7400  134.9580 C   0  0  0  0  0  2  0  0  0  0  0  0
  187.9700  173.9340  135.8610 O   0  0  0  0  0  1  0  0  0  0  0  0
  186.6660  174.3910  135.6600 C   0  0  0  0  0  2  0  0  0  0  0  0
  187.2090  178.6130  144.9000 C   0  0  0  0  0  2  0  0  0  0  0  0
  190.5740  177.1490  145.8270 C   0  0  0  0  0  2  0  0  0  0  0  0
  190.4500  177.2580  147.3410 C   0  0  1  0  0  3  0  0  0  0  0  0
  187.9810  177.5020  147.0970 C   0  0  0  0  0  2  0  0  0  0  0  0
  189.4650  177.8050  145.1610 N   0  0  0  0  0  0  0  0  0  0  0  0
  188.2840  177.9200  145.6750 C   0  0  0  0  0  0  0  0  0  0  0  0
  189.1000  176.6790  147.7300 C   0  0  0  0  0  2  0  0  0  0  0  0
  191.4670  176.5240  147.9500 O   0  0  0  0  0  0  0  0  0  0  0  0
  192.1510  175.5900  146.6810 S   0  0  0  0  0  1  0  0  0  0  0  0
  189.0600  178.9390  138.9460 C   0  0  0  0  0  2  0  0  0  0  0  0
  188.8690  178.5670  137.4800 C   0  0  2  0  0  3  0  0  0  0  0  0
  187.6260  179.0180  137.0360 O   0  0  0  0  0  1  0  0  0  0  0  0
  189.0040  177.0650  137.2420 C   0  0  0  0  0  2  0  0  0  0  0  0
  190.4580  176.6140  137.2390 C   0  0  0  0  0  1  0  0  0  0  0  0
  1  8  1  0  0  0  0
  2 11  1  6  0  0  0
  2  9  1  0  0  0  0
  3 39  1  1  0  0  0
  3  4  1  0  0  0  0
  3 10  1  0  0  0  0
  4  6  1  0  0  0  0
  5  2  1  0  0  0  0
  6  5  1  0  0  0  0
  6  1  2  0  0  0  0
  7  1  1  0  0  0  0
  8  9  1  0  0  0  0
  8 30  1  1  0  0  0
 10  7  2  0  0  0  0
 11 12  1  1  0  0  0
 13 14  1  0  0  0  0
 13 11  1  0  0  0  0
 15 14  1  0  0  0  0
 16 15  1  0  0  0  0
 17 16  1  0  0  0  0
 18 20  1  0  0  0  0
 18 21  1  0  0  0  0
 18 17  1  0  0  0  0
 19 20  1  0  0  0  0
 22 26  1  6  0  0  0
 22 23  1  0  0  0  0
 22 24  1  0  0  0  0
 23 25  1  6  0  0  0
 23 24  1  0  0  0  0
 23 21  1  0  0  0  0
 27 26  1  0  0  0  0
 27 29  1  0  0  0  0
 29 28  1  0  0  0  0
 30 35  1  0  0  0  0
 31 32  1  0  0  0  0
 32 36  1  0  0  0  0
 32 37  1  1  0  0  0
 33 36  1  0  0  0  0
 34 35  2  0  0  0  0
 34 31  1  0  0  0  0
 35 33  1  0  0  0  0
 38 37  1  0  0  0  0
 40 41  1  1  0  0  0
 40 39  1  0  0  0  0
 42 40  1  0  0  0  0
 43 42  1  0  0  0  0
M  END
>  <MODEL>
9

>  <REMARK>
 VINA RESULT:      -6.0      3.640      8.038
  Name = 
  19 active torsions:
  status: ('A' for Active; 'I' for Inactive)
    1  A    between atoms: C_1  and  C_34
    2  A    between atoms: C_1  and  C_35
    3  A    between atoms: C_2  and  C_6
    4  A    between atoms: C_2  and  C_13
    5  A    between atoms: C_3  and  C_12
    6  A    between atoms: C_3  and  C_15
    7  A    between atoms: N_4  and  C_15
    8  A    between atoms: N_4  and  C_22
    9  A    between atoms: N_4  and  C_42
   10  A    between atoms: C_5  and  C_18
   11  A    between atoms: C_5  and  C_23
   12  A    between atoms: C_6  and  C_17
   13  A    between atoms: C_11  and  C_36
   14  A    between atoms: C_12  and  C_17
   15  A    between atoms: C_14  and  C_22
   16  A    between atoms: C_16  and  C_23
   17  A    between atoms: C_19  and  O_25
   18  A    between atoms: C_29  and  C_31
   19  A    between atoms: C_29  and  C_36
                            x       y       z     vdW  Elec       q    Type
                         _______ _______ _______ _____ _____    ______ ____

>  <TORSDO>
F 19

$$$$
