=
 OpenBabel10262420473D

 28 31  0  0  1  0  0  0  0  0999 V2000
  185.5550  177.9510  145.0370 C   0  0  2  0  0  3  0  0  0  0  0  0
  188.9030  178.1010  147.7110 C   0  0  0  0  0  1  0  0  0  0  0  0
  188.5390  177.1780  142.6300 C   0  0  2  0  0  3  0  0  0  0  0  0
  188.0550  177.9360  145.3890 N   0  0  2  0  0  0  0  0  0  0  0  0
  187.2360  177.8430  143.0740 C   0  0  0  0  0  2  0  0  0  0  0  0
  186.5140  178.5110  147.2640 C   0  0  0  0  0  2  0  0  0  0  0  0
  189.2310  177.1360  145.0270 C   0  0  0  0  0  2  0  0  0  0  0  0
  187.7400  177.7020  146.8110 C   0  0  2  0  0  3  0  0  0  0  0  0
  189.6760  177.4790  143.6080 C   0  0  0  0  0  2  0  0  0  0  0  0
  185.6700  179.0300  146.1050 C   0  0  0  0  0  2  0  0  0  0  0  0
  186.9420  177.4710  144.5330 C   0  0  2  0  0  3  0  0  0  0  0  0
  187.9920  178.2030  140.4700 C   0  0  0  0  0  3  0  0  0  0  0  0
  190.1250  176.4400  139.4260 C   0  0  0  0  0  2  0  0  0  0  0  0
  189.2000  178.3180  138.1490 C   0  0  0  0  0  0  0  0  0  0  0  0
  188.8990  177.5660  141.2240 C   0  0  0  0  0  0  0  0  0  0  0  0
  190.9790  176.4820  141.6270 F   0  0  0  0  0  0  0  0  0  0  0  0
  190.0600  177.3560  138.2990 N   0  0  0  0  0  0  0  0  0  0  0  0
  190.2630  177.2280  140.7070 C   0  0  1  0  0  3  0  0  0  0  0  0
  189.2530  179.1230  136.9010 C   0  0  0  0  0  1  0  0  0  0  0  0
  188.1680  178.6210  139.1050 N   0  0  0  0  0  2  0  0  0  0  0  0
  184.5390  178.2770  143.9740 C   0  0  0  0  0  0  0  0  0  0  0  0
  184.8440  178.1030  142.6160 C   0  0  0  0  0  3  0  0  0  0  0  0
  182.2990  178.9900  143.3610 C   0  0  0  0  0  0  0  0  0  0  0  0
  183.8860  178.3760  141.6370 C   0  0  0  0  0  3  0  0  0  0  0  0
  182.9410  178.8760  145.6560 F   0  0  0  0  0  0  0  0  0  0  0  0
  183.2580  178.7160  144.3450 C   0  0  0  0  0  0  0  0  0  0  0  0
  181.0320  179.4290  143.7210 O   0  0  0  0  0  1  0  0  0  0  0  0
  182.6150  178.8210  142.0090 C   0  0  0  0  0  3  0  0  0  0  0  0
  1 21  1  6  0  0  0
  1 10  1  0  0  0  0
  3 15  1  6  0  0  0
  3  5  1  0  0  0  0
  3  9  1  0  0  0  0
  4  7  1  6  0  0  0
  4  8  1  0  0  0  0
  8  6  1  0  0  0  0
  8  2  1  1  0  0  0
  9  7  1  0  0  0  0
 10  6  1  0  0  0  0
 11  5  1  6  0  0  0
 11  1  1  0  0  0  0
 11  4  1  0  0  0  0
 12 15  2  0  0  0  0
 13 18  1  0  0  0  0
 14 17  2  0  0  0  0
 14 20  1  0  0  0  0
 17 13  1  0  0  0  0
 18 15  1  0  0  0  0
 18 16  1  1  0  0  0
 19 14  1  0  0  0  0
 20 12  1  0  0  0  0
 21 26  1  0  0  0  0
 22 21  2  0  0  0  0
 23 27  1  0  0  0  0
 23 26  2  0  0  0  0
 24 28  2  0  0  0  0
 24 22  1  0  0  0  0
 26 25  1  0  0  0  0
 28 23  1  0  0  0  0
M  END
>  <MODEL>
1

>  <REMARK>
 VINA RESULT:     -10.9      0.000      0.000
  Name = 
  2 active torsions:
  status: ('A' for Active; 'I' for Inactive)
    1  A    between atoms: C_1  and  C_2
    2  A    between atoms: C_10  and  C_13
                            x       y       z     vdW  Elec       q    Type
                         _______ _______ _______ _____ _____    ______ ____

>  <TORSDO>
F 2

$$$$
=
 OpenBabel10262420473D

 28 31  0  0  1  0  0  0  0  0999 V2000
  187.9000  178.0220  145.3860 C   0  0  2  0  0  3  0  0  0  0  0  0
  183.7530  178.7070  144.5390 C   0  0  0  0  0  1  0  0  0  0  0  0
  187.9240  178.3660  141.4910 C   0  0  2  0  0  3  0  0  0  0  0  0
  186.0400  178.2630  143.6960 N   0  0  2  0  0  0  0  0  0  0  0  0
  188.2880  177.7540  142.8430 C   0  0  0  0  0  2  0  0  0  0  0  0
  185.5250  178.0660  146.1280 C   0  0  0  0  0  2  0  0  0  0  0  0
  185.7270  179.0190  142.4780 C   0  0  0  0  0  2  0  0  0  0  0  0
  185.2490  178.8120  144.8130 C   0  0  2  0  0  3  0  0  0  0  0  0
  186.4100  178.3730  141.2750 C   0  0  0  0  0  2  0  0  0  0  0  0
  186.8050  177.2380  146.0960 C   0  0  0  0  0  2  0  0  0  0  0  0
  187.4860  178.4460  143.9520 C   0  0  2  0  0  3  0  0  0  0  0  0
  189.7370  176.9510  140.6380 C   0  0  0  0  0  3  0  0  0  0  0  0
  189.2090  178.3270  138.0740 C   0  0  0  0  0  2  0  0  0  0  0  0
  190.5570  176.2850  138.2410 C   0  0  0  0  0  0  0  0  0  0  0  0
  188.6420  177.6750  140.3670 C   0  0  0  0  0  0  0  0  0  0  0  0
  187.0380  178.6910  138.9300 F   0  0  0  0  0  0  0  0  0  0  0  0
  189.9620  177.2040  137.5410 N   0  0  0  0  0  0  0  0  0  0  0  0
  188.1090  177.8150  138.9740 C   0  0  1  0  0  3  0  0  0  0  0  0
  191.3270  175.2380  137.5220 C   0  0  0  0  0  1  0  0  0  0  0  0
  190.5480  176.2500  139.6800 N   0  0  0  0  0  2  0  0  0  0  0  0
  189.2620  177.3940  145.5260 C   0  0  0  0  0  0  0  0  0  0  0  0
  189.8920  176.7990  144.4220 C   0  0  0  0  0  3  0  0  0  0  0  0
  191.2100  176.8890  146.8850 C   0  0  0  0  0  0  0  0  0  0  0  0
  191.1680  176.2470  144.5510 C   0  0  0  0  0  3  0  0  0  0  0  0
  189.3420  178.0290  147.8340 F   0  0  0  0  0  0  0  0  0  0  0  0
  189.9300  177.4440  146.7600 C   0  0  0  0  0  0  0  0  0  0  0  0
  191.8750  176.9310  148.1050 O   0  0  0  0  0  1  0  0  0  0  0  0
  191.8260  176.2910  145.7820 C   0  0  0  0  0  3  0  0  0  0  0  0
  1 21  1  6  0  0  0
  1 10  1  0  0  0  0
  3 15  1  6  0  0  0
  3  5  1  0  0  0  0
  4  7  1  6  0  0  0
  4 11  1  0  0  0  0
  4  8  1  0  0  0  0
  8  2  1  6  0  0  0
  8  6  1  0  0  0  0
  9  3  1  0  0  0  0
  9  7  1  0  0  0  0
 10  6  1  0  0  0  0
 11  5  1  6  0  0  0
 11  1  1  0  0  0  0
 13 18  1  0  0  0  0
 14 20  1  0  0  0  0
 15 12  2  0  0  0  0
 17 13  1  0  0  0  0
 17 14  2  0  0  0  0
 18 16  1  1  0  0  0
 18 15  1  0  0  0  0
 19 14  1  0  0  0  0
 20 12  1  0  0  0  0
 21 26  1  0  0  0  0
 22 24  1  0  0  0  0
 22 21  2  0  0  0  0
 23 27  1  0  0  0  0
 24 28  2  0  0  0  0
 26 23  2  0  0  0  0
 26 25  1  0  0  0  0
 28 23  1  0  0  0  0
M  END
>  <MODEL>
2

>  <REMARK>
 VINA RESULT:     -10.2      3.126      5.222
  Name = 
  2 active torsions:
  status: ('A' for Active; 'I' for Inactive)
    1  A    between atoms: C_1  and  C_2
    2  A    between atoms: C_10  and  C_13
                            x       y       z     vdW  Elec       q    Type
                         _______ _______ _______ _____ _____    ______ ____

>  <TORSDO>
F 2

$$$$
=
 OpenBabel10262420473D

 28 31  0  0  1  0  0  0  0  0999 V2000
  187.6940  177.3200  145.6980 C   0  0  2  0  0  3  0  0  0  0  0  0
  191.6310  176.9430  147.3530 C   0  0  0  0  0  1  0  0  0  0  0  0
  189.8530  176.7030  142.4960 C   0  0  2  0  0  3  0  0  0  0  0  0
  190.1860  177.1240  145.3480 N   0  0  2  0  0  0  0  0  0  0  0  0
  188.7780  177.3750  143.3500 C   0  0  0  0  0  2  0  0  0  0  0  0
  189.2540  177.5360  147.6250 C   0  0  0  0  0  2  0  0  0  0  0  0
  191.1500  176.3160  144.5930 C   0  0  0  0  0  2  0  0  0  0  0  0
  190.2400  176.7260  146.7670 C   0  0  2  0  0  3  0  0  0  0  0  0
  191.2300  176.8140  143.1530 C   0  0  0  0  0  2  0  0  0  0  0  0
  188.1810  178.2440  146.8050 C   0  0  0  0  0  2  0  0  0  0  0  0
  188.8500  176.8350  144.7840 C   0  0  2  0  0  3  0  0  0  0  0  0
  188.7050  177.6550  140.5480 C   0  0  0  0  0  3  0  0  0  0  0  0
  191.0190  176.5980  139.0390 C   0  0  0  0  0  2  0  0  0  0  0  0
  189.4370  178.2180  138.0970 C   0  0  0  0  0  0  0  0  0  0  0  0
  189.8600  177.2490  141.0970 C   0  0  0  0  0  0  0  0  0  0  0  0
  192.1880  176.7540  141.0850 F   0  0  0  0  0  0  0  0  0  0  0  0
  190.5310  177.5200  138.0270 N   0  0  0  0  0  0  0  0  0  0  0  0
  191.1590  177.3240  140.3560 C   0  0  1  0  0  3  0  0  0  0  0  0
  189.0690  179.0720  136.9380 C   0  0  0  0  0  1  0  0  0  0  0  0
  188.5360  178.1760  139.2190 N   0  0  0  0  0  2  0  0  0  0  0  0
  186.4640  177.8350  144.9960 C   0  0  0  0  0  0  0  0  0  0  0  0
  186.3830  177.8230  143.5950 C   0  0  0  0  0  3  0  0  0  0  0  0
  184.2120  178.7380  145.1010 C   0  0  0  0  0  0  0  0  0  0  0  0
  185.2270  178.2720  142.9530 C   0  0  0  0  0  3  0  0  0  0  0  0
  185.4250  178.2910  147.1060 F   0  0  0  0  0  0  0  0  0  0  0  0
  185.3690  178.2880  145.7500 C   0  0  0  0  0  0  0  0  0  0  0  0
  183.1270  179.1920  145.8400 O   0  0  0  0  0  1  0  0  0  0  0  0
  184.1430  178.7300  143.7050 C   0  0  0  0  0  3  0  0  0  0  0  0
  1 21  1  6  0  0  0
  1 10  1  0  0  0  0
  3 15  1  6  0  0  0
  3  9  1  0  0  0  0
  3  5  1  0  0  0  0
  4  7  1  6  0  0  0
  4  8  1  0  0  0  0
  8  2  1  1  0  0  0
  8  6  1  0  0  0  0
  9  7  1  0  0  0  0
 10  6  1  0  0  0  0
 11  5  1  6  0  0  0
 11  4  1  0  0  0  0
 11  1  1  0  0  0  0
 12 15  2  0  0  0  0
 13 18  1  0  0  0  0
 14 20  1  0  0  0  0
 17 14  2  0  0  0  0
 17 13  1  0  0  0  0
 18 16  1  1  0  0  0
 18 15  1  0  0  0  0
 19 14  1  0  0  0  0
 20 12  1  0  0  0  0
 21 26  1  0  0  0  0
 22 21  2  0  0  0  0
 23 26  2  0  0  0  0
 23 27  1  0  0  0  0
 24 22  1  0  0  0  0
 24 28  2  0  0  0  0
 26 25  1  0  0  0  0
 28 23  1  0  0  0  0
M  END
>  <MODEL>
3

>  <REMARK>
 VINA RESULT:     -10.2      1.443      2.013
  Name = 
  2 active torsions:
  status: ('A' for Active; 'I' for Inactive)
    1  A    between atoms: C_1  and  C_2
    2  A    between atoms: C_10  and  C_13
                            x       y       z     vdW  Elec       q    Type
                         _______ _______ _______ _____ _____    ______ ____

>  <TORSDO>
F 2

$$$$
=
 OpenBabel10262420473D

 28 31  0  0  1  0  0  0  0  0999 V2000
  187.8710  177.8590  144.4400 C   0  0  2  0  0  3  0  0  0  0  0  0
  183.7400  178.7650  143.7340 C   0  0  0  0  0  1  0  0  0  0  0  0
  187.8400  178.5090  140.5830 C   0  0  2  0  0  3  0  0  0  0  0  0
  185.9930  178.3030  142.8120 N   0  0  2  0  0  0  0  0  0  0  0  0
  188.2030  177.7790  141.8760 C   0  0  0  0  0  2  0  0  0  0  0  0
  185.5130  177.9340  145.2310 C   0  0  0  0  0  2  0  0  0  0  0  0
  185.6880  179.1640  141.6630 C   0  0  0  0  0  2  0  0  0  0  0  0
  185.2430  178.7920  143.9840 C   0  0  2  0  0  3  0  0  0  0  0  0
  186.3240  178.5900  140.4000 C   0  0  0  0  0  2  0  0  0  0  0  0
  186.7590  177.0640  145.1080 C   0  0  0  0  0  2  0  0  0  0  0  0
  187.4490  178.4100  143.0520 C   0  0  2  0  0  3  0  0  0  0  0  0
  187.7630  177.5080  138.3450 C   0  0  0  0  0  3  0  0  0  0  0  0
  190.3130  176.2420  139.1450 C   0  0  0  0  0  2  0  0  0  0  0  0
  189.5240  176.3070  136.8230 C   0  0  0  0  0  0  0  0  0  0  0  0
  188.5100  177.8820  139.3940 C   0  0  0  0  0  0  0  0  0  0  0  0
  190.5310  178.0570  140.6400 F   0  0  0  0  0  0  0  0  0  0  0  0
  190.4320  176.0320  137.7110 N   0  0  0  0  0  0  0  0  0  0  0  0
  189.9950  177.6940  139.4160 C   0  0  1  0  0  3  0  0  0  0  0  0
  189.8030  175.9740  135.4030 C   0  0  0  0  0  1  0  0  0  0  0  0
  188.2420  176.8760  137.1460 N   0  0  0  0  0  2  0  0  0  0  0  0
  189.2090  177.1720  144.5010 C   0  0  0  0  0  0  0  0  0  0  0  0
  189.6700  176.4050  143.4200 C   0  0  0  0  0  3  0  0  0  0  0  0
  191.2850  176.7230  145.6800 C   0  0  0  0  0  0  0  0  0  0  0  0
  190.9260  175.7970  143.4720 C   0  0  0  0  0  3  0  0  0  0  0  0
  189.6020  178.0860  146.6810 F   0  0  0  0  0  0  0  0  0  0  0  0
  190.0260  177.3350  145.6320 C   0  0  0  0  0  0  0  0  0  0  0  0
  192.0960  176.8770  146.7980 O   0  0  0  0  0  1  0  0  0  0  0  0
  191.7320  175.9550  144.6010 C   0  0  0  0  0  3  0  0  0  0  0  0
  1 21  1  6  0  0  0
  1 10  1  0  0  0  0
  3 15  1  6  0  0  0
  3  5  1  0  0  0  0
  4  7  1  6  0  0  0
  4 11  1  0  0  0  0
  4  8  1  0  0  0  0
  8  2  1  6  0  0  0
  8  6  1  0  0  0  0
  9  3  1  0  0  0  0
  9  7  1  0  0  0  0
 10  6  1  0  0  0  0
 11  5  1  6  0  0  0
 11  1  1  0  0  0  0
 12 15  2  0  0  0  0
 13 18  1  0  0  0  0
 14 20  1  0  0  0  0
 14 17  2  0  0  0  0
 15 18  1  0  0  0  0
 17 13  1  0  0  0  0
 18 16  1  1  0  0  0
 19 14  1  0  0  0  0
 20 12  1  0  0  0  0
 21 26  1  0  0  0  0
 22 24  1  0  0  0  0
 22 21  2  0  0  0  0
 23 27  1  0  0  0  0
 24 28  2  0  0  0  0
 26 23  2  0  0  0  0
 26 25  1  0  0  0  0
 28 23  1  0  0  0  0
M  END
>  <MODEL>
4

>  <REMARK>
 VINA RESULT:     -10.2      3.024      5.086
  Name = 
  2 active torsions:
  status: ('A' for Active; 'I' for Inactive)
    1  A    between atoms: C_1  and  C_2
    2  A    between atoms: C_10  and  C_13
                            x       y       z     vdW  Elec       q    Type
                         _______ _______ _______ _____ _____    ______ ____

>  <TORSDO>
F 2

$$$$
=
 OpenBabel10262420473D

 28 31  0  0  1  0  0  0  0  0999 V2000
  186.1070  178.0710  145.7800 C   0  0  2  0  0  3  0  0  0  0  0  0
  188.6420  178.4290  149.2190 C   0  0  0  0  0  1  0  0  0  0  0  0
  189.5110  176.7170  144.4110 C   0  0  2  0  0  3  0  0  0  0  0  0
  188.4130  177.9450  146.8000 N   0  0  2  0  0  0  0  0  0  0  0  0
  188.2180  177.5310  144.3860 C   0  0  0  0  0  2  0  0  0  0  0  0
  186.5100  178.9200  148.0840 C   0  0  0  0  0  2  0  0  0  0  0  0
  189.5490  177.0200  146.8880 C   0  0  0  0  0  2  0  0  0  0  0  0
  187.7160  177.9670  148.1000 C   0  0  2  0  0  3  0  0  0  0  0  0
  190.3810  177.0960  145.6110 C   0  0  0  0  0  2  0  0  0  0  0  0
  186.0570  179.2980  146.6770 C   0  0  0  0  0  2  0  0  0  0  0  0
  187.5170  177.4230  145.7450 C   0  0  2  0  0  3  0  0  0  0  0  0
  191.5030  177.3580  143.1310 C   0  0  0  0  0  3  0  0  0  0  0  0
  189.6230  177.5310  140.8550 C   0  0  0  0  0  2  0  0  0  0  0  0
  192.0600  177.5030  140.5760 C   0  0  0  0  0  0  0  0  0  0  0  0
  190.2640  176.8450  143.1180 C   0  0  0  0  0  0  0  0  0  0  0  0
  188.2980  176.0030  142.0730 F   0  0  0  0  0  0  0  0  0  0  0  0
  190.8560  177.4840  140.0860 N   0  0  0  0  0  0  0  0  0  0  0  0
  189.6070  176.3950  141.8500 C   0  0  1  0  0  3  0  0  0  0  0  0
  193.2050  177.5010  139.6310 C   0  0  0  0  0  1  0  0  0  0  0  0
  192.3450  177.5700  141.9850 N   0  0  0  0  0  2  0  0  0  0  0  0
  185.4440  178.2860  144.4450 C   0  0  0  0  0  0  0  0  0  0  0  0
  186.1600  178.1050  143.2520 C   0  0  0  0  0  3  0  0  0  0  0  0
  183.4530  178.7990  143.1500 C   0  0  0  0  0  0  0  0  0  0  0  0
  185.5290  178.2760  142.0180 C   0  0  0  0  0  3  0  0  0  0  0  0
  183.3700  178.7920  145.5340 F   0  0  0  0  0  0  0  0  0  0  0  0
  184.0820  178.6280  144.3900 C   0  0  0  0  0  0  0  0  0  0  0  0
  182.1080  179.1400  143.0890 O   0  0  0  0  0  1  0  0  0  0  0  0
  184.1780  178.6230  141.9670 C   0  0  0  0  0  3  0  0  0  0  0  0
  1 21  1  6  0  0  0
  1 10  1  0  0  0  0
  3 15  1  6  0  0  0
  3  9  1  0  0  0  0
  4  7  1  1  0  0  0
  4  8  1  0  0  0  0
  5  3  1  0  0  0  0
  6  8  1  0  0  0  0
  8  2  1  1  0  0  0
  9  7  1  0  0  0  0
 10  6  1  0  0  0  0
 11  5  1  6  0  0  0
 11  1  1  0  0  0  0
 11  4  1  0  0  0  0
 13 18  1  0  0  0  0
 14 20  1  0  0  0  0
 15 12  2  0  0  0  0
 17 14  2  0  0  0  0
 17 13  1  0  0  0  0
 18 16  1  1  0  0  0
 18 15  1  0  0  0  0
 19 14  1  0  0  0  0
 20 12  1  0  0  0  0
 22 21  2  0  0  0  0
 23 26  2  0  0  0  0
 24 22  1  0  0  0  0
 26 21  1  0  0  0  0
 26 25  1  0  0  0  0
 27 23  1  0  0  0  0
 28 24  2  0  0  0  0
 28 23  1  0  0  0  0
M  END
>  <MODEL>
5

>  <REMARK>
 VINA RESULT:     -10.1      1.654      2.306
  Name = 
  2 active torsions:
  status: ('A' for Active; 'I' for Inactive)
    1  A    between atoms: C_1  and  C_2
    2  A    between atoms: C_10  and  C_13
                            x       y       z     vdW  Elec       q    Type
                         _______ _______ _______ _____ _____    ______ ____

>  <TORSDO>
F 2

$$$$
=
 OpenBabel10262420473D

 28 31  0  0  1  0  0  0  0  0999 V2000
  189.2300  177.8810  144.7970 C   0  0  2  0  0  3  0  0  0  0  0  0
  187.9310  177.4680  148.8620 C   0  0  0  0  0  1  0  0  0  0  0  0
  185.4420  178.8120  144.5250 C   0  0  2  0  0  3  0  0  0  0  0  0
  187.3500  177.8350  146.4810 N   0  0  2  0  0  0  0  0  0  0  0  0
  186.7470  178.1290  144.1170 C   0  0  0  0  0  2  0  0  0  0  0  0
  189.6520  177.1280  147.1310 C   0  0  0  0  0  2  0  0  0  0  0  0
  186.2000  178.6460  146.8970 C   0  0  0  0  0  2  0  0  0  0  0  0
  188.4100  177.9550  147.5000 C   0  0  2  0  0  3  0  0  0  0  0  0
  185.0300  178.4160  145.9440 C   0  0  0  0  0  2  0  0  0  0  0  0
  189.6910  176.7170  145.6620 C   0  0  0  0  0  2  0  0  0  0  0  0
  187.8150  178.3830  145.1880 C   0  0  2  0  0  3  0  0  0  0  0  0
  184.6730  178.2510  142.2640 C   0  0  0  0  0  3  0  0  0  0  0  0
  182.1560  179.5480  143.1170 C   0  0  0  0  0  2  0  0  0  0  0  0
  182.3240  178.1470  141.1110 C   0  0  0  0  0  0  0  0  0  0  0  0
  184.3480  178.5360  143.5330 C   0  0  0  0  0  0  0  0  0  0  0  0
  182.8360  179.0030  145.3120 F   0  0  0  0  0  0  0  0  0  0  0  0
  181.6280  178.8360  141.9650 N   0  0  0  0  0  0  0  0  0  0  0  0
  182.9240  178.5880  143.9940 C   0  0  1  0  0  3  0  0  0  0  0  0
  181.6170  177.5280  139.9610 C   0  0  0  0  0  1  0  0  0  0  0  0
  183.7520  177.9880  141.1920 N   0  0  0  0  0  2  0  0  0  0  0  0
  189.4730  177.6580  143.3280 C   0  0  0  0  0  0  0  0  0  0  0  0
  188.3970  177.4810  142.4440 C   0  0  0  0  0  3  0  0  0  0  0  0
  191.0120  177.4950  141.4550 C   0  0  0  0  0  0  0  0  0  0  0  0
  188.6270  177.3050  141.0780 C   0  0  0  0  0  3  0  0  0  0  0  0
  191.8360  177.8560  143.6650 F   0  0  0  0  0  0  0  0  0  0  0  0
  190.7840  177.6710  142.8270 C   0  0  0  0  0  0  0  0  0  0  0  0
  192.3070  177.5030  140.9540 O   0  0  0  0  0  1  0  0  0  0  0  0
  189.9340  177.3110  140.5840 C   0  0  0  0  0  3  0  0  0  0  0  0
  1 21  1  6  0  0  0
  1 11  1  0  0  0  0
  1 10  1  0  0  0  0
  3 15  1  6  0  0  0
  3  9  1  0  0  0  0
  4  7  1  1  0  0  0
  4  8  1  0  0  0  0
  5  3  1  0  0  0  0
  6  8  1  0  0  0  0
  8  2  1  1  0  0  0
  9  7  1  0  0  0  0
 10  6  1  0  0  0  0
 11  5  1  6  0  0  0
 11  4  1  0  0  0  0
 12 15  2  0  0  0  0
 13 18  1  0  0  0  0
 14 20  1  0  0  0  0
 14 17  2  0  0  0  0
 15 18  1  0  0  0  0
 17 13  1  0  0  0  0
 18 16  1  1  0  0  0
 19 14  1  0  0  0  0
 20 12  1  0  0  0  0
 22 21  2  0  0  0  0
 23 26  2  0  0  0  0
 24 22  1  0  0  0  0
 26 21  1  0  0  0  0
 26 25  1  0  0  0  0
 27 23  1  0  0  0  0
 28 24  2  0  0  0  0
 28 23  1  0  0  0  0
M  END
>  <MODEL>
6

>  <REMARK>
 VINA RESULT:      -9.9      3.039      6.316
  Name = 
  2 active torsions:
  status: ('A' for Active; 'I' for Inactive)
    1  A    between atoms: C_1  and  C_2
    2  A    between atoms: C_10  and  C_13
                            x       y       z     vdW  Elec       q    Type
                         _______ _______ _______ _____ _____    ______ ____

>  <TORSDO>
F 2

$$$$
=
 OpenBabel10262420473D

 28 31  0  0  1  0  0  0  0  0999 V2000
  189.2350  177.8130  143.5580 C   0  0  2  0  0  3  0  0  0  0  0  0
  188.7410  176.9440  147.7280 C   0  0  0  0  0  1  0  0  0  0  0  0
  185.4650  178.6870  144.1170 C   0  0  2  0  0  3  0  0  0  0  0  0
  187.7140  177.5490  145.5560 N   0  0  2  0  0  0  0  0  0  0  0  0
  186.6680  178.0790  143.3960 C   0  0  0  0  0  2  0  0  0  0  0  0
  190.0980  176.8250  145.6730 C   0  0  0  0  0  2  0  0  0  0  0  0
  186.6650  178.2870  146.2680 C   0  0  0  0  0  2  0  0  0  0  0  0
  188.9500  177.5830  146.3600 C   0  0  2  0  0  3  0  0  0  0  0  0
  185.3340  178.1350  145.5380 C   0  0  0  0  0  2  0  0  0  0  0  0
  189.8530  176.5730  144.1890 C   0  0  0  0  0  2  0  0  0  0  0  0
  187.9220  178.2400  144.2640 C   0  0  2  0  0  3  0  0  0  0  0  0
  184.2830  178.2250  142.0180 C   0  0  0  0  0  3  0  0  0  0  0  0
  182.0310  179.6330  143.3200 C   0  0  0  0  0  2  0  0  0  0  0  0
  181.7660  178.2760  141.2940 C   0  0  0  0  0  0  0  0  0  0  0  0
  184.2000  178.4950  143.3290 C   0  0  0  0  0  0  0  0  0  0  0  0
  183.0510  178.9970  145.3520 F   0  0  0  0  0  0  0  0  0  0  0  0
  181.2700  178.9790  142.2680 N   0  0  0  0  0  0  0  0  0  0  0  0
  182.8840  178.6110  144.0330 C   0  0  1  0  0  3  0  0  0  0  0  0
  180.8350  177.7240  140.2770 C   0  0  0  0  0  1  0  0  0  0  0  0
  183.1750  178.0380  141.1210 N   0  0  0  0  0  2  0  0  0  0  0  0
  189.1900  177.7510  142.0540 C   0  0  0  0  0  0  0  0  0  0  0  0
  188.3160  178.5760  141.3300 C   0  0  0  0  0  3  0  0  0  0  0  0
  190.0460  176.8560  139.9640 C   0  0  0  0  0  0  0  0  0  0  0  0
  188.3020  178.5360  139.9340 C   0  0  0  0  0  3  0  0  0  0  0  0
  190.9260  176.1000  142.0490 F   0  0  0  0  0  0  0  0  0  0  0  0
  190.0630  176.8930  141.3640 C   0  0  0  0  0  0  0  0  0  0  0  0
  190.9040  176.0070  139.2760 O   0  0  0  0  0  1  0  0  0  0  0  0
  189.1650  177.6760  139.2520 C   0  0  0  0  0  3  0  0  0  0  0  0
  1 21  1  6  0  0  0
  1 10  1  0  0  0  0
  1 11  1  0  0  0  0
  3 15  1  6  0  0  0
  3  9  1  0  0  0  0
  4  7  1  1  0  0  0
  4  8  1  0  0  0  0
  5  3  1  0  0  0  0
  6  8  1  0  0  0  0
  8  2  1  1  0  0  0
  9  7  1  0  0  0  0
 10  6  1  0  0  0  0
 11  5  1  6  0  0  0
 11  4  1  0  0  0  0
 12 15  2  0  0  0  0
 13 18  1  0  0  0  0
 14 17  2  0  0  0  0
 15 18  1  0  0  0  0
 17 13  1  0  0  0  0
 18 16  1  1  0  0  0
 19 14  1  0  0  0  0
 20 14  1  0  0  0  0
 20 12  1  0  0  0  0
 22 21  2  0  0  0  0
 23 26  2  0  0  0  0
 24 22  1  0  0  0  0
 26 25  1  0  0  0  0
 26 21  1  0  0  0  0
 27 23  1  0  0  0  0
 28 24  2  0  0  0  0
 28 23  1  0  0  0  0
M  END
>  <MODEL>
7

>  <REMARK>
 VINA RESULT:      -9.6      2.938      6.364
  Name = 
  2 active torsions:
  status: ('A' for Active; 'I' for Inactive)
    1  A    between atoms: C_1  and  C_2
    2  A    between atoms: C_10  and  C_13
                            x       y       z     vdW  Elec       q    Type
                         _______ _______ _______ _____ _____    ______ ____

>  <TORSDO>
F 2

$$$$
=
 OpenBabel10262420473D

 28 31  0  0  1  0  0  0  0  0999 V2000
  185.4660  178.7200  144.9440 C   0  0  2  0  0  3  0  0  0  0  0  0
  181.9350  179.0030  142.5280 C   0  0  0  0  0  1  0  0  0  0  0  0
  186.9720  178.8590  141.3380 C   0  0  2  0  0  3  0  0  0  0  0  0
  184.3920  178.7120  142.6590 N   0  0  2  0  0  0  0  0  0  0  0  0
  186.8200  178.3520  142.7720 C   0  0  0  0  0  2  0  0  0  0  0  0
  182.9900  178.6010  144.7190 C   0  0  0  0  0  2  0  0  0  0  0  0
  184.5300  179.3730  141.3560 C   0  0  0  0  0  2  0  0  0  0  0  0
  183.2000  179.2500  143.3410 C   0  0  2  0  0  3  0  0  0  0  0  0
  185.6610  178.7250  140.5620 C   0  0  0  0  0  2  0  0  0  0  0  0
  184.2300  177.8850  145.2450 C   0  0  0  0  0  2  0  0  0  0  0  0
  185.6130  179.0310  143.4310 C   0  0  2  0  0  3  0  0  0  0  0  0
  187.8780  177.5760  139.4530 C   0  0  0  0  0  3  0  0  0  0  0  0
  189.9530  176.7530  141.3930 C   0  0  0  0  0  2  0  0  0  0  0  0
  190.1780  176.4190  138.9740 C   0  0  0  0  0  0  0  0  0  0  0  0
  188.1070  178.1730  140.6320 C   0  0  0  0  0  0  0  0  0  0  0  0
  189.4280  178.7590  142.5240 F   0  0  0  0  0  0  0  0  0  0  0  0
  190.6600  176.3770  140.1800 N   0  0  0  0  0  0  0  0  0  0  0  0
  189.4620  178.1760  141.2680 C   0  0  1  0  0  3  0  0  0  0  0  0
  191.0320  175.9430  137.8560 C   0  0  0  0  0  1  0  0  0  0  0  0
  188.8430  176.8600  138.6650 N   0  0  0  0  0  2  0  0  0  0  0  0
  186.7020  178.2200  145.6430 C   0  0  0  0  0  0  0  0  0  0  0  0
  187.7090  177.5550  144.9260 C   0  0  0  0  0  3  0  0  0  0  0  0
  188.0370  178.0230  147.6630 C   0  0  0  0  0  0  0  0  0  0  0  0
  188.8680  177.1220  145.5740 C   0  0  0  0  0  3  0  0  0  0  0  0
  185.9170  179.1150  147.7210 F   0  0  0  0  0  0  0  0  0  0  0  0
  186.8730  178.4590  147.0160 C   0  0  0  0  0  0  0  0  0  0  0  0
  188.2100  178.2530  149.0220 O   0  0  0  0  0  1  0  0  0  0  0  0
  189.0310  177.3540  146.9420 C   0  0  0  0  0  3  0  0  0  0  0  0
  1 10  1  0  0  0  0
  1 21  1  6  0  0  0
  3 15  1  6  0  0  0
  3  5  1  0  0  0  0
  4  7  1  6  0  0  0
  4  8  1  0  0  0  0
  4 11  1  0  0  0  0
  6 10  1  0  0  0  0
  8  2  1  6  0  0  0
  8  6  1  0  0  0  0
  9  3  1  0  0  0  0
  9  7  1  0  0  0  0
 11  5  1  6  0  0  0
 11  1  1  0  0  0  0
 12 15  2  0  0  0  0
 14 17  2  0  0  0  0
 15 18  1  0  0  0  0
 17 13  1  0  0  0  0
 18 13  1  0  0  0  0
 18 16  1  1  0  0  0
 19 14  1  0  0  0  0
 20 14  1  0  0  0  0
 20 12  1  0  0  0  0
 21 26  1  0  0  0  0
 22 24  1  0  0  0  0
 22 21  2  0  0  0  0
 23 27  1  0  0  0  0
 24 28  2  0  0  0  0
 26 23  2  0  0  0  0
 26 25  1  0  0  0  0
 28 23  1  0  0  0  0
M  END
>  <MODEL>
8

>  <REMARK>
 VINA RESULT:      -9.6      2.446      4.550
  Name = 
  2 active torsions:
  status: ('A' for Active; 'I' for Inactive)
    1  A    between atoms: C_1  and  C_2
    2  A    between atoms: C_10  and  C_13
                            x       y       z     vdW  Elec       q    Type
                         _______ _______ _______ _____ _____    ______ ____

>  <TORSDO>
F 2

$$$$
=
 OpenBabel10262420473D

 28 31  0  0  1  0  0  0  0  0999 V2000
  184.9540  178.8470  141.0030 C   0  0  2  0  0  3  0  0  0  0  0  0
  186.6590  177.6040  137.2710 C   0  0  0  0  0  1  0  0  0  0  0  0
  188.7240  178.4180  141.9480 C   0  0  2  0  0  3  0  0  0  0  0  0
  186.9370  177.9800  139.7040 N   0  0  2  0  0  0  0  0  0  0  0  0
  187.2130  178.2780  142.1270 C   0  0  0  0  0  2  0  0  0  0  0  0
  184.6740  178.0600  138.6590 C   0  0  0  0  0  2  0  0  0  0  0  0
  188.3540  178.2930  139.4840 C   0  0  0  0  0  2  0  0  0  0  0  0
  186.1730  178.3610  138.5010 C   0  0  2  0  0  3  0  0  0  0  0  0
  189.1900  177.7640  140.6460 C   0  0  0  0  0  2  0  0  0  0  0  0
  184.2510  177.8370  140.1070 C   0  0  0  0  0  2  0  0  0  0  0  0
  186.4980  178.7810  140.8670 C   0  0  2  0  0  3  0  0  0  0  0  0
  188.7920  177.6130  144.2650 C   0  0  0  0  0  3  0  0  0  0  0  0
  191.6430  178.3900  144.1390 C   0  0  0  0  0  2  0  0  0  0  0  0
  190.7220  176.9710  145.9150 C   0  0  0  0  0  0  0  0  0  0  0  0
  189.4680  177.8770  143.1360 C   0  0  0  0  0  0  0  0  0  0  0  0
  191.4300  178.0920  141.8060 F   0  0  0  0  0  0  0  0  0  0  0  0
  191.7260  177.5340  145.3110 N   0  0  0  0  0  0  0  0  0  0  0  0
  190.9430  177.6490  143.0240 C   0  0  1  0  0  3  0  0  0  0  0  0
  190.9930  176.1690  147.1360 C   0  0  0  0  0  1  0  0  0  0  0  0
  189.3540  177.1180  145.4910 N   0  0  0  0  0  2  0  0  0  0  0  0
  184.4120  178.8690  142.4080 C   0  0  0  0  0  0  0  0  0  0  0  0
  185.2740  179.0140  143.5050 C   0  0  0  0  0  3  0  0  0  0  0  0
  182.5150  178.8420  143.9260 C   0  0  0  0  0  0  0  0  0  0  0  0
  184.7610  179.0660  144.8030 C   0  0  0  0  0  3  0  0  0  0  0  0
  182.1760  178.6650  141.5710 F   0  0  0  0  0  0  0  0  0  0  0  0
  183.0260  178.7900  142.6220 C   0  0  0  0  0  0  0  0  0  0  0  0
  181.1460  178.7590  144.1450 O   0  0  0  0  0  1  0  0  0  0  0  0
  183.3840  178.9780  145.0130 C   0  0  0  0  0  3  0  0  0  0  0  0
  1 21  1  1  0  0  0
  3  5  1  0  0  0  0
  3 15  1  1  0  0  0
  4  7  1  6  0  0  0
  4 11  1  0  0  0  0
  6 10  1  0  0  0  0
  7  9  1  0  0  0  0
  8  2  1  6  0  0  0
  8  6  1  0  0  0  0
  8  4  1  0  0  0  0
  9  3  1  0  0  0  0
 10  1  1  0  0  0  0
 11  1  1  0  0  0  0
 11  5  1  1  0  0  0
 12 20  1  0  0  0  0
 13 17  1  0  0  0  0
 14 19  1  0  0  0  0
 15 12  2  0  0  0  0
 17 14  2  0  0  0  0
 18 16  1  6  0  0  0
 18 15  1  0  0  0  0
 18 13  1  0  0  0  0
 20 14  1  0  0  0  0
 21 26  2  0  0  0  0
 21 22  1  0  0  0  0
 22 24  2  0  0  0  0
 23 27  1  0  0  0  0
 23 28  2  0  0  0  0
 24 28  1  0  0  0  0
 25 26  1  0  0  0  0
 26 23  1  0  0  0  0
M  END
>  <MODEL>
9

>  <REMARK>
 VINA RESULT:      -9.4      1.886      5.331
  Name = 
  2 active torsions:
  status: ('A' for Active; 'I' for Inactive)
    1  A    between atoms: C_1  and  C_2
    2  A    between atoms: C_10  and  C_13
                            x       y       z     vdW  Elec       q    Type
                         _______ _______ _______ _____ _____    ______ ____

>  <TORSDO>
F 2

$$$$
