=
 OpenBabel10262420093D

 27 31  0  0  1  0  0  0  0  0999 V2000
  190.8080  178.0330  142.6500 C   0  0  0  0  0  2  0  0  0  0  0  0
  188.6850  177.2920  143.6710 C   0  0  0  0  0  0  0  0  0  0  0  0
  188.2470  177.8850  141.2560 N   0  0  0  0  0  2  0  0  0  0  0  0
  184.6960  178.3050  144.5780 C   0  0  0  0  0  3  0  0  0  0  0  0
  182.5300  179.1100  143.8870 O   0  0  0  0  0  1  0  0  0  0  0  0
  188.1720  177.1580  144.9720 C   0  0  0  0  0  3  0  0  0  0  0  0
  185.6270  178.5800  141.9550 C   0  0  0  0  0  3  0  0  0  0  0  0
  189.9510  176.3880  138.5470 C   0  0  0  0  0  3  0  0  0  0  0  0
  184.3070  178.9140  142.2690 C   0  0  0  0  0  3  0  0  0  0  0  0
  191.2260  176.0310  138.6790 C   0  0  0  0  0  3  0  0  0  0  0  0
  186.4990  178.1050  142.9480 C   0  0  0  0  0  0  0  0  0  0  0  0
  190.1180  176.9120  143.3940 C   0  0  2  0  0  3  0  0  0  0  0  0
  183.8420  178.7770  143.5780 C   0  0  0  0  0  0  0  0  0  0  0  0
  186.0170  177.9690  144.2710 C   0  0  0  0  0  0  0  0  0  0  0  0
  190.7030  177.7640  141.1950 C   0  0  0  0  0  0  0  0  0  0  0  0
  187.8350  177.7670  142.6360 C   0  0  0  0  0  0  0  0  0  0  0  0
  189.4270  177.6770  139.0820 C   0  0  0  0  0  2  0  0  0  0  0  0
  186.8560  177.4930  145.2720 C   0  0  0  0  0  3  0  0  0  0  0  0
  192.2320  176.8060  139.4250 C   0  0  0  0  0  3  0  0  0  0  0  0
  191.9990  177.5620  140.5060 C   0  0  0  0  0  3  0  0  0  0  0  0
  189.5050  177.7290  140.5730 C   0  0  0  0  0  0  0  0  0  0  0  0
  192.3790  175.6780  146.8130 C   0  0  0  0  0  3  0  0  0  0  0  0
  190.9190  176.4890  144.5950 C   0  0  0  0  0  0  0  0  0  0  0  0
  190.9670  177.2690  145.7600 C   0  0  0  0  0  3  0  0  0  0  0  0
  191.6900  176.8510  146.8330 N   0  0  0  0  0  0  0  0  0  0  0  0
  192.3550  174.8700  145.6730 C   0  0  0  0  0  3  0  0  0  0  0  0
  191.6180  175.2810  144.5620 C   0  0  0  0  0  3  0  0  0  0  0  0
  1 12  1  0  0  0  0
  2  6  1  0  0  0  0
  3 16  1  0  0  0  0
  6 18  2  0  0  0  0
  7  9  2  0  0  0  0
  7 11  1  0  0  0  0
  8 10  2  0  0  0  0
  8 17  1  0  0  0  0
  9 13  1  0  0  0  0
 10 19  1  0  0  0  0
 11 14  2  0  0  0  0
 12  2  1  0  0  0  0
 12 23  1  1  0  0  0
 13  5  1  0  0  0  0
 13  4  2  0  0  0  0
 14  4  1  0  0  0  0
 14 18  1  0  0  0  0
 15  1  1  0  0  0  0
 16 11  1  0  0  0  0
 16  2  2  0  0  0  0
 17 21  1  0  0  0  0
 19 20  2  0  0  0  0
 20 15  1  0  0  0  0
 21 15  2  0  0  0  0
 21  3  1  0  0  0  0
 22 25  1  0  0  0  0
 23 24  1  0  0  0  0
 24 25  2  0  0  0  0
 26 22  2  0  0  0  0
 27 23  2  0  0  0  0
 27 26  1  0  0  0  0
M  END
>  <MODEL>
1

>  <REMARK>
 VINA RESULT:     -10.1      0.000      0.000
  Name = 
  1 active torsions:
  status: ('A' for Active; 'I' for Inactive)
    1  A    between atoms: C_9  and  C_15
                            x       y       z     vdW  Elec       q    Type
                         _______ _______ _______ _____ _____    ______ ____

>  <TORSDO>
F 1

$$$$
=
 OpenBabel10262420093D

 27 31  0  0  1  0  0  0  0  0999 V2000
  188.5550  176.4870  144.3430 C   0  0  0  0  0  2  0  0  0  0  0  0
  187.1020  178.0600  143.1150 C   0  0  0  0  0  0  0  0  0  0  0  0
  186.3280  177.9650  145.5170 N   0  0  0  0  0  2  0  0  0  0  0  0
  183.1630  179.0050  141.9500 C   0  0  0  0  0  3  0  0  0  0  0  0
  180.8500  179.4000  142.5100 O   0  0  0  0  0  1  0  0  0  0  0  0
  186.7730  178.3080  141.7710 C   0  0  0  0  0  3  0  0  0  0  0  0
  183.7320  178.5510  144.6500 C   0  0  0  0  0  3  0  0  0  0  0  0
  188.4260  178.6970  148.2640 C   0  0  0  0  0  3  0  0  0  0  0  0
  182.4300  178.8640  144.2510 C   0  0  0  0  0  3  0  0  0  0  0  0
  189.7190  178.3870  148.2150 C   0  0  0  0  0  3  0  0  0  0  0  0
  184.7660  178.4600  143.7050 C   0  0  0  0  0  0  0  0  0  0  0  0
  188.5260  177.7300  143.4840 C   0  0  2  0  0  3  0  0  0  0  0  0
  182.1450  179.0900  142.9030 C   0  0  0  0  0  0  0  0  0  0  0  0
  184.4670  178.6920  142.3420 C   0  0  0  0  0  0  0  0  0  0  0  0
  188.5320  176.9010  145.7680 C   0  0  0  0  0  0  0  0  0  0  0  0
  186.0840  178.1440  144.1030 C   0  0  0  0  0  0  0  0  0  0  0  0
  187.3670  177.7740  147.7630 C   0  0  0  0  0  2  0  0  0  0  0  0
  185.4740  178.6180  141.3860 C   0  0  0  0  0  3  0  0  0  0  0  0
  190.2560  177.1620  147.5970 C   0  0  0  0  0  3  0  0  0  0  0  0
  189.7330  176.5170  146.5450 C   0  0  0  0  0  3  0  0  0  0  0  0
  187.4750  177.5590  146.2880 C   0  0  0  0  0  0  0  0  0  0  0  0
  191.2350  177.3540  140.1900 C   0  0  0  0  0  3  0  0  0  0  0  0
  189.4820  177.6100  142.3290 C   0  0  0  0  0  0  0  0  0  0  0  0
  190.8620  177.7960  142.4930 C   0  0  0  0  0  3  0  0  0  0  0  0
  191.7010  177.6660  141.4300 N   0  0  0  0  0  0  0  0  0  0  0  0
  189.8670  177.1590  139.9840 C   0  0  0  0  0  3  0  0  0  0  0  0
  188.9900  177.2870  141.0620 C   0  0  0  0  0  3  0  0  0  0  0  0
  1 15  1  0  0  0  0
  2 12  1  0  0  0  0
  2 16  1  0  0  0  0
  3 21  1  0  0  0  0
  4 14  1  0  0  0  0
  4 13  2  0  0  0  0
  5 13  1  0  0  0  0
  6  2  2  0  0  0  0
  9  7  2  0  0  0  0
 10  8  2  0  0  0  0
 11 16  2  0  0  0  0
 11  7  1  0  0  0  0
 12 23  1  6  0  0  0
 12  1  1  0  0  0  0
 13  9  1  0  0  0  0
 14 11  1  0  0  0  0
 15 21  2  0  0  0  0
 15 20  1  0  0  0  0
 16  3  1  0  0  0  0
 17  8  1  0  0  0  0
 18  6  1  0  0  0  0
 18 14  2  0  0  0  0
 19 10  1  0  0  0  0
 20 19  2  0  0  0  0
 21 17  1  0  0  0  0
 22 25  1  0  0  0  0
 23 24  1  0  0  0  0
 25 24  2  0  0  0  0
 26 22  2  0  0  0  0
 26 27  1  0  0  0  0
 27 23  2  0  0  0  0
M  END
>  <MODEL>
2

>  <REMARK>
 VINA RESULT:      -9.9      1.945      5.249
  Name = 
  1 active torsions:
  status: ('A' for Active; 'I' for Inactive)
    1  A    between atoms: C_9  and  C_15
                            x       y       z     vdW  Elec       q    Type
                         _______ _______ _______ _____ _____    ______ ____

>  <TORSDO>
F 1

$$$$
=
 OpenBabel10262420093D

 27 31  0  0  1  0  0  0  0  0999 V2000
  187.6090  176.6900  143.9130 C   0  0  0  0  0  2  0  0  0  0  0  0
  186.0760  178.2010  142.7030 C   0  0  0  0  0  0  0  0  0  0  0  0
  185.3780  178.1280  145.1290 N   0  0  0  0  0  2  0  0  0  0  0  0
  182.0790  179.0190  141.6440 C   0  0  0  0  0  3  0  0  0  0  0  0
  179.7750  179.3610  142.2670 O   0  0  0  0  0  1  0  0  0  0  0  0
  185.7000  178.4160  141.3660 C   0  0  0  0  0  3  0  0  0  0  0  0
  182.7410  178.6280  144.3330 C   0  0  0  0  0  3  0  0  0  0  0  0
  187.5370  178.9640  147.7970 C   0  0  0  0  0  3  0  0  0  0  0  0
  181.4200  178.8980  143.9680 C   0  0  0  0  0  3  0  0  0  0  0  0
  188.8360  178.6890  147.7140 C   0  0  0  0  0  3  0  0  0  0  0  0
  183.7490  178.5490  143.3580 C   0  0  0  0  0  0  0  0  0  0  0  0
  187.5190  177.9170  143.0340 C   0  0  2  0  0  3  0  0  0  0  0  0
  181.0890  179.0930  142.6260 C   0  0  0  0  0  0  0  0  0  0  0  0
  183.4030  178.7490  142.0010 C   0  0  0  0  0  0  0  0  0  0  0  0
  187.6170  177.1280  145.3300 C   0  0  0  0  0  0  0  0  0  0  0  0
  185.0870  178.2750  143.7210 C   0  0  0  0  0  0  0  0  0  0  0  0
  186.4900  178.0050  147.3450 C   0  0  0  0  0  2  0  0  0  0  0  0
  184.3820  178.6850  141.0160 C   0  0  0  0  0  3  0  0  0  0  0  0
  189.3880  177.4680  147.1000 C   0  0  0  0  0  3  0  0  0  0  0  0
  188.8510  176.7910  146.0770 C   0  0  0  0  0  3  0  0  0  0  0  0
  186.5580  177.7670  145.8710 C   0  0  0  0  0  0  0  0  0  0  0  0
  190.1760  177.5950  139.6920 C   0  0  0  0  0  3  0  0  0  0  0  0
  188.4430  177.8020  141.8520 C   0  0  0  0  0  0  0  0  0  0  0  0
  188.3060  178.6280  140.7270 C   0  0  0  0  0  3  0  0  0  0  0  0
  189.1670  178.5070  139.6810 N   0  0  0  0  0  0  0  0  0  0  0  0
  190.3500  176.7540  140.7950 C   0  0  0  0  0  3  0  0  0  0  0  0
  189.4760  176.8640  141.8790 C   0  0  0  0  0  3  0  0  0  0  0  0
  1 15  1  0  0  0  0
  2 12  1  0  0  0  0
  2 16  1  0  0  0  0
  3 21  1  0  0  0  0
  4 14  1  0  0  0  0
  4 13  2  0  0  0  0
  5 13  1  0  0  0  0
  6  2  2  0  0  0  0
  9  7  2  0  0  0  0
 10  8  2  0  0  0  0
 11 16  2  0  0  0  0
 11  7  1  0  0  0  0
 12 23  1  6  0  0  0
 12  1  1  0  0  0  0
 13  9  1  0  0  0  0
 14 11  1  0  0  0  0
 15 21  2  0  0  0  0
 15 20  1  0  0  0  0
 16  3  1  0  0  0  0
 17  8  1  0  0  0  0
 18  6  1  0  0  0  0
 18 14  2  0  0  0  0
 19 10  1  0  0  0  0
 20 19  2  0  0  0  0
 21 17  1  0  0  0  0
 22 26  1  0  0  0  0
 23 27  1  0  0  0  0
 24 23  2  0  0  0  0
 25 22  2  0  0  0  0
 25 24  1  0  0  0  0
 26 27  2  0  0  0  0
M  END
>  <MODEL>
3

>  <REMARK>
 VINA RESULT:      -9.7      2.295      5.599
  Name = 
  1 active torsions:
  status: ('A' for Active; 'I' for Inactive)
    1  A    between atoms: C_9  and  C_15
                            x       y       z     vdW  Elec       q    Type
                         _______ _______ _______ _____ _____    ______ ____

>  <TORSDO>
F 1

$$$$
=
 OpenBabel10262420093D

 27 31  0  0  1  0  0  0  0  0999 V2000
  187.6060  176.6900  144.5290 C   0  0  0  0  0  2  0  0  0  0  0  0
  189.4180  177.3970  143.0080 C   0  0  0  0  0  0  0  0  0  0  0  0
  187.2040  177.8840  141.8950 N   0  0  0  0  0  2  0  0  0  0  0  0
  191.1640  176.9540  139.1970 C   0  0  0  0  0  3  0  0  0  0  0  0
  190.9710  176.9390  136.7930 O   0  0  0  0  0  1  0  0  0  0  0  0
  190.7880  177.1220  142.8560 C   0  0  0  0  0  3  0  0  0  0  0  0
  188.4350  177.5260  139.4060 C   0  0  0  0  0  3  0  0  0  0  0  0
  184.7100  179.9260  143.3410 C   0  0  0  0  0  3  0  0  0  0  0  0
  189.0250  177.3750  138.1490 C   0  0  0  0  0  3  0  0  0  0  0  0
  184.5410  179.9360  144.6610 C   0  0  0  0  0  3  0  0  0  0  0  0
  189.2000  177.3920  140.5760 C   0  0  0  0  0  0  0  0  0  0  0  0
  188.8400  177.5520  144.3920 C   0  0  2  0  0  3  0  0  0  0  0  0
  190.3870  177.0890  138.0440 C   0  0  0  0  0  0  0  0  0  0  0  0
  190.5800  177.1030  140.4580 C   0  0  0  0  0  0  0  0  0  0  0  0
  186.4180  177.5140  144.1960 C   0  0  0  0  0  0  0  0  0  0  0  0
  188.6080  177.5430  141.8500 C   0  0  0  0  0  0  0  0  0  0  0  0
  184.9510  178.6670  142.5800 C   0  0  0  0  0  2  0  0  0  0  0  0
  191.3640  176.9740  141.5990 C   0  0  0  0  0  3  0  0  0  0  0  0
  184.6530  178.7440  145.5210 C   0  0  0  0  0  3  0  0  0  0  0  0
  185.4580  177.6950  145.3100 C   0  0  0  0  0  3  0  0  0  0  0  0
  186.2470  178.0290  142.9610 C   0  0  0  0  0  0  0  0  0  0  0  0
  191.5630  176.8850  147.6270 C   0  0  0  0  0  3  0  0  0  0  0  0
  189.7990  177.3060  145.5240 C   0  0  0  0  0  0  0  0  0  0  0  0
  191.1140  176.8750  145.2960 C   0  0  0  0  0  3  0  0  0  0  0  0
  191.9590  176.6750  146.3430 N   0  0  0  0  0  0  0  0  0  0  0  0
  190.2620  177.3170  147.8980 C   0  0  0  0  0  3  0  0  0  0  0  0
  189.3800  177.5280  146.8380 C   0  0  0  0  0  3  0  0  0  0  0  0
  2 12  1  0  0  0  0
  3 21  1  0  0  0  0
  4 14  1  0  0  0  0
  5 13  1  0  0  0  0
  6  2  1  0  0  0  0
  7 11  1  0  0  0  0
  8 10  2  0  0  0  0
  9  7  2  0  0  0  0
 10 19  1  0  0  0  0
 11 16  1  0  0  0  0
 12  1  1  0  0  0  0
 12 23  1  1  0  0  0
 13  9  1  0  0  0  0
 13  4  2  0  0  0  0
 14 11  2  0  0  0  0
 14 18  1  0  0  0  0
 15  1  1  0  0  0  0
 15 20  1  0  0  0  0
 16  3  1  0  0  0  0
 16  2  2  0  0  0  0
 17 21  1  0  0  0  0
 17  8  1  0  0  0  0
 18  6  2  0  0  0  0
 20 19  2  0  0  0  0
 21 15  2  0  0  0  0
 22 26  1  0  0  0  0
 23 27  1  0  0  0  0
 24 23  2  0  0  0  0
 24 25  1  0  0  0  0
 25 22  2  0  0  0  0
 27 26  2  0  0  0  0
M  END
>  <MODEL>
4

>  <REMARK>
 VINA RESULT:      -9.5      2.441      5.730
  Name = 
  1 active torsions:
  status: ('A' for Active; 'I' for Inactive)
    1  A    between atoms: C_9  and  C_15
                            x       y       z     vdW  Elec       q    Type
                         _______ _______ _______ _____ _____    ______ ____

>  <TORSDO>
F 1

$$$$
=
 OpenBabel10262420093D

 27 31  0  0  1  0  0  0  0  0999 V2000
  188.7470  178.8290  140.9470 C   0  0  0  0  0  2  0  0  0  0  0  0
  187.0630  177.9470  142.5230 C   0  0  0  0  0  0  0  0  0  0  0  0
  185.9560  178.2900  140.2800 N   0  0  0  0  0  2  0  0  0  0  0  0
  183.3380  178.5900  144.3880 C   0  0  0  0  0  3  0  0  0  0  0  0
  180.9840  179.0950  144.2480 O   0  0  0  0  0  1  0  0  0  0  0  0
  186.9170  177.8650  143.9190 C   0  0  0  0  0  3  0  0  0  0  0  0
  183.5330  178.7500  141.6030 C   0  0  0  0  0  3  0  0  0  0  0  0
  187.0940  176.7710  137.3000 C   0  0  0  0  0  3  0  0  0  0  0  0
  182.3040  178.9620  142.2330 C   0  0  0  0  0  3  0  0  0  0  0  0
  188.3950  176.5660  137.1120 C   0  0  0  0  0  3  0  0  0  0  0  0
  184.6800  178.4550  142.3570 C   0  0  0  0  0  0  0  0  0  0  0  0
  188.4150  177.7040  141.9020 C   0  0  2  0  0  3  0  0  0  0  0  0
  182.2070  178.8830  143.6240 C   0  0  0  0  0  0  0  0  0  0  0  0
  184.5710  178.3760  143.7650 C   0  0  0  0  0  0  0  0  0  0  0  0
  188.3120  178.4320  139.5860 C   0  0  0  0  0  0  0  0  0  0  0  0
  185.9260  178.2400  141.7240 C   0  0  0  0  0  0  0  0  0  0  0  0
  186.5640  178.0350  137.8870 C   0  0  0  0  0  2  0  0  0  0  0  0
  185.6890  178.0780  144.5350 C   0  0  0  0  0  3  0  0  0  0  0  0
  189.4510  177.5050  137.5290 C   0  0  0  0  0  3  0  0  0  0  0  0
  189.4060  178.3170  138.5940 C   0  0  0  0  0  3  0  0  0  0  0  0
  187.0100  178.2170  139.3020 C   0  0  0  0  0  0  0  0  0  0  0  0
  191.6400  177.0620  144.6430 C   0  0  0  0  0  3  0  0  0  0  0  0
  189.5410  177.4710  142.8720 C   0  0  0  0  0  0  0  0  0  0  0  0
  190.0090  176.1810  143.1600 C   0  0  0  0  0  3  0  0  0  0  0  0
  191.0380  176.0060  144.0320 N   0  0  0  0  0  0  0  0  0  0  0  0
  191.2050  178.3640  144.3820 C   0  0  0  0  0  3  0  0  0  0  0  0
  190.1510  178.5640  143.4900 C   0  0  0  0  0  3  0  0  0  0  0  0
  1 12  1  0  0  0  0
  2  6  1  0  0  0  0
  3 16  1  0  0  0  0
  6 18  2  0  0  0  0
  7  9  2  0  0  0  0
  7 11  1  0  0  0  0
  8 17  1  0  0  0  0
  9 13  1  0  0  0  0
 10  8  2  0  0  0  0
 10 19  1  0  0  0  0
 11 14  2  0  0  0  0
 12  2  1  0  0  0  0
 12 23  1  1  0  0  0
 13  5  1  0  0  0  0
 13  4  2  0  0  0  0
 14  4  1  0  0  0  0
 14 18  1  0  0  0  0
 15  1  1  0  0  0  0
 16 11  1  0  0  0  0
 16  2  2  0  0  0  0
 17 21  1  0  0  0  0
 19 20  2  0  0  0  0
 20 15  1  0  0  0  0
 21 15  2  0  0  0  0
 21  3  1  0  0  0  0
 23 24  2  0  0  0  0
 23 27  1  0  0  0  0
 24 25  1  0  0  0  0
 25 22  2  0  0  0  0
 26 22  1  0  0  0  0
 27 26  2  0  0  0  0
M  END
>  <MODEL>
5

>  <REMARK>
 VINA RESULT:      -9.5      1.796      2.628
  Name = 
  1 active torsions:
  status: ('A' for Active; 'I' for Inactive)
    1  A    between atoms: C_9  and  C_15
                            x       y       z     vdW  Elec       q    Type
                         _______ _______ _______ _____ _____    ______ ____

>  <TORSDO>
F 1

$$$$
=
 OpenBabel10262420093D

 27 31  0  0  1  0  0  0  0  0999 V2000
  188.7840  176.8070  141.2400 C   0  0  0  0  0  2  0  0  0  0  0  0
  186.8330  178.3080  141.0500 C   0  0  0  0  0  0  0  0  0  0  0  0
  187.3930  178.0300  143.4960 N   0  0  0  0  0  2  0  0  0  0  0  0
  182.8080  178.9700  142.1120 C   0  0  0  0  0  3  0  0  0  0  0  0
  181.0850  179.1380  143.7900 O   0  0  0  0  0  1  0  0  0  0  0  0
  185.8550  178.5930  140.0810 C   0  0  0  0  0  3  0  0  0  0  0  0
  184.6920  178.4340  144.1080 C   0  0  0  0  0  3  0  0  0  0  0  0
  190.5570  178.8020  144.8650 C   0  0  0  0  0  3  0  0  0  0  0  0
  183.3540  178.6540  144.4470 C   0  0  0  0  0  3  0  0  0  0  0  0
  191.6600  178.6060  144.1450 C   0  0  0  0  0  3  0  0  0  0  0  0
  185.1050  178.4790  142.7670 C   0  0  0  0  0  0  0  0  0  0  0  0
  188.2610  178.0840  140.6220 C   0  0  2  0  0  3  0  0  0  0  0  0
  182.4130  178.9210  143.4510 C   0  0  0  0  0  0  0  0  0  0  0  0
  184.1450  178.7510  141.7660 C   0  0  0  0  0  0  0  0  0  0  0  0
  189.4670  177.1460  142.5120 C   0  0  0  0  0  0  0  0  0  0  0  0
  186.4570  178.2570  142.4190 C   0  0  0  0  0  0  0  0  0  0  0  0
  189.4380  177.8180  144.8880 C   0  0  0  0  0  2  0  0  0  0  0  0
  184.5280  178.8100  140.4300 C   0  0  0  0  0  3  0  0  0  0  0  0
  191.8670  177.4630  143.2390 C   0  0  0  0  0  3  0  0  0  0  0  0
  190.9140  176.8290  142.5430 C   0  0  0  0  0  3  0  0  0  0  0  0
  188.7910  177.6860  143.5470 C   0  0  0  0  0  0  0  0  0  0  0  0
  188.9710  178.1100  136.4000 C   0  0  0  0  0  3  0  0  0  0  0  0
  188.5020  178.1020  139.1370 C   0  0  0  0  0  0  0  0  0  0  0  0
  188.8820  179.2740  138.4670 C   0  0  0  0  0  3  0  0  0  0  0  0
  189.1060  179.2530  137.1250 N   0  0  0  0  0  0  0  0  0  0  0  0
  188.5960  176.9200  137.0290 C   0  0  0  0  0  3  0  0  0  0  0  0
  188.3630  176.9210  138.4050 C   0  0  0  0  0  3  0  0  0  0  0  0
  1 15  1  0  0  0  0
  2 16  1  0  0  0  0
  3 21  1  0  0  0  0
  4 13  2  0  0  0  0
  6 18  1  0  0  0  0
  6  2  2  0  0  0  0
  7  9  2  0  0  0  0
  8 17  1  0  0  0  0
 10  8  2  0  0  0  0
 11  7  1  0  0  0  0
 12 23  1  6  0  0  0
 12  2  1  0  0  0  0
 12  1  1  0  0  0  0
 13  5  1  0  0  0  0
 13  9  1  0  0  0  0
 14  4  1  0  0  0  0
 14 11  1  0  0  0  0
 15 20  1  0  0  0  0
 15 21  2  0  0  0  0
 16 11  2  0  0  0  0
 16  3  1  0  0  0  0
 18 14  2  0  0  0  0
 19 10  1  0  0  0  0
 20 19  2  0  0  0  0
 21 17  1  0  0  0  0
 22 26  2  0  0  0  0
 22 25  1  0  0  0  0
 24 23  1  0  0  0  0
 25 24  2  0  0  0  0
 26 27  1  0  0  0  0
 27 23  2  0  0  0  0
M  END
>  <MODEL>
6

>  <REMARK>
 VINA RESULT:      -9.4      2.232      5.328
  Name = 
  1 active torsions:
  status: ('A' for Active; 'I' for Inactive)
    1  A    between atoms: C_9  and  C_15
                            x       y       z     vdW  Elec       q    Type
                         _______ _______ _______ _____ _____    ______ ____

>  <TORSDO>
F 1

$$$$
=
 OpenBabel10262420093D

 27 31  0  0  1  0  0  0  0  0999 V2000
  187.3480  178.9110  140.8610 C   0  0  0  0  0  2  0  0  0  0  0  0
  188.1530  177.5690  142.7710 C   0  0  0  0  0  0  0  0  0  0  0  0
  185.7590  178.2390  143.2170 N   0  0  0  0  0  2  0  0  0  0  0  0
  188.8270  177.4520  146.9300 C   0  0  0  0  0  3  0  0  0  0  0  0
  188.0340  177.7370  149.1900 O   0  0  0  0  0  1  0  0  0  0  0  0
  189.4000  177.1970  143.3030 C   0  0  0  0  0  3  0  0  0  0  0  0
  186.3070  178.1810  145.9610 C   0  0  0  0  0  3  0  0  0  0  0  0
  183.0880  177.4640  141.0380 C   0  0  0  0  0  3  0  0  0  0  0  0
  186.5440  178.1400  147.3380 C   0  0  0  0  0  3  0  0  0  0  0  0
  183.2900  177.4330  139.7230 C   0  0  0  0  0  3  0  0  0  0  0  0
  187.3270  177.8590  145.0510 C   0  0  0  0  0  0  0  0  0  0  0  0
  187.9590  177.5920  141.2770 C   0  0  2  0  0  3  0  0  0  0  0  0
  187.8020  177.7770  147.8220 C   0  0  0  0  0  0  0  0  0  0  0  0
  188.5980  177.4920  145.5520 C   0  0  0  0  0  0  0  0  0  0  0  0
  185.8740  178.7510  140.8130 C   0  0  0  0  0  0  0  0  0  0  0  0
  187.0930  177.9000  143.6580 C   0  0  0  0  0  0  0  0  0  0  0  0
  183.6710  178.5270  141.9060 C   0  0  0  0  0  2  0  0  0  0  0  0
  189.6230  177.1590  144.6750 C   0  0  0  0  0  3  0  0  0  0  0  0
  184.1620  178.3710  138.9940 C   0  0  0  0  0  3  0  0  0  0  0  0
  185.2720  178.9460  139.4740 C   0  0  0  0  0  3  0  0  0  0  0  0
  185.1640  178.4670  141.9260 C   0  0  0  0  0  0  0  0  0  0  0  0
  191.4340  176.6830  138.9480 C   0  0  0  0  0  3  0  0  0  0  0  0
  189.1840  177.2840  140.4600 C   0  0  0  0  0  0  0  0  0  0  0  0
  190.4760  177.4660  140.9740 C   0  0  0  0  0  3  0  0  0  0  0  0
  191.5630  177.1650  140.2130 N   0  0  0  0  0  0  0  0  0  0  0  0
  190.1640  176.4850  138.3990 C   0  0  0  0  0  3  0  0  0  0  0  0
  189.0370  176.7870  139.1640 C   0  0  0  0  0  3  0  0  0  0  0  0
  1 12  1  0  0  0  0
  2  6  2  0  0  0  0
  2 16  1  0  0  0  0
  3 16  1  0  0  0  0
  4 13  2  0  0  0  0
  6 18  1  0  0  0  0
  7  9  2  0  0  0  0
  8 17  1  0  0  0  0
  9 13  1  0  0  0  0
 10  8  2  0  0  0  0
 11 14  1  0  0  0  0
 11  7  1  0  0  0  0
 12 23  1  6  0  0  0
 12  2  1  0  0  0  0
 13  5  1  0  0  0  0
 14  4  1  0  0  0  0
 15  1  1  0  0  0  0
 15 21  2  0  0  0  0
 16 11  2  0  0  0  0
 17 21  1  0  0  0  0
 18 14  2  0  0  0  0
 19 20  2  0  0  0  0
 19 10  1  0  0  0  0
 20 15  1  0  0  0  0
 21  3  1  0  0  0  0
 22 25  1  0  0  0  0
 23 24  1  0  0  0  0
 25 24  2  0  0  0  0
 26 22  2  0  0  0  0
 26 27  1  0  0  0  0
 27 23  2  0  0  0  0
M  END
>  <MODEL>
7

>  <REMARK>
 VINA RESULT:      -9.3      2.560      5.460
  Name = 
  1 active torsions:
  status: ('A' for Active; 'I' for Inactive)
    1  A    between atoms: C_9  and  C_15
                            x       y       z     vdW  Elec       q    Type
                         _______ _______ _______ _____ _____    ______ ____

>  <TORSDO>
F 1

$$$$
=
 OpenBabel10262420093D

 27 31  0  0  1  0  0  0  0  0999 V2000
  188.0710  178.8220  140.9680 C   0  0  0  0  0  2  0  0  0  0  0  0
  189.3680  177.1590  142.2520 C   0  0  0  0  0  0  0  0  0  0  0  0
  187.5190  178.0430  143.7270 N   0  0  0  0  0  2  0  0  0  0  0  0
  191.6810  176.4270  145.6990 C   0  0  0  0  0  3  0  0  0  0  0  0
  191.9560  176.5090  148.0940 O   0  0  0  0  0  1  0  0  0  0  0  0
  190.6450  176.5770  142.1700 C   0  0  0  0  0  3  0  0  0  0  0  0
  189.1400  177.5670  145.9580 C   0  0  0  0  0  3  0  0  0  0  0  0
  184.0980  177.8780  142.8620 C   0  0  0  0  0  3  0  0  0  0  0  0
  189.9170  177.3210  147.0930 C   0  0  0  0  0  3  0  0  0  0  0  0
  183.7260  177.9930  141.5890 C   0  0  0  0  0  3  0  0  0  0  0  0
  189.6230  177.2480  144.6790 C   0  0  0  0  0  0  0  0  0  0  0  0
  188.5770  177.3980  140.9910 C   0  0  2  0  0  3  0  0  0  0  0  0
  191.1860  176.7520  146.9640 C   0  0  0  0  0  0  0  0  0  0  0  0
  190.9090  176.6710  144.5600 C   0  0  0  0  0  0  0  0  0  0  0  0
  186.7060  178.8450  141.5480 C   0  0  0  0  0  0  0  0  0  0  0  0
  188.8420  177.4950  143.5280 C   0  0  0  0  0  0  0  0  0  0  0  0
  185.1520  178.7430  143.4640 C   0  0  0  0  0  2  0  0  0  0  0  0
  191.4080  176.3360  143.3060 C   0  0  0  0  0  3  0  0  0  0  0  0
  184.3560  178.9080  140.6210 C   0  0  0  0  0  3  0  0  0  0  0  0
  185.6430  179.2820  140.6130 C   0  0  0  0  0  3  0  0  0  0  0  0
  186.4870  178.5060  142.8360 C   0  0  0  0  0  0  0  0  0  0  0  0
  190.6090  176.4550  137.3430 C   0  0  0  0  0  3  0  0  0  0  0  0
  189.2850  177.0560  139.7090 C   0  0  0  0  0  0  0  0  0  0  0  0
  188.5780  176.7530  138.5350 C   0  0  0  0  0  3  0  0  0  0  0  0
  189.2490  176.4620  137.3890 N   0  0  0  0  0  0  0  0  0  0  0  0
  191.3510  176.7530  138.4880 C   0  0  0  0  0  3  0  0  0  0  0  0
  190.6800  177.0560  139.6750 C   0  0  0  0  0  3  0  0  0  0  0  0
  1 12  1  0  0  0  0
  1 15  1  0  0  0  0
  2 16  1  0  0  0  0
  4 13  2  0  0  0  0
  6  2  2  0  0  0  0
  6 18  1  0  0  0  0
  7  9  2  0  0  0  0
  8 17  1  0  0  0  0
 10  8  2  0  0  0  0
 11  7  1  0  0  0  0
 12 23  1  6  0  0  0
 12  2  1  0  0  0  0
 13  9  1  0  0  0  0
 13  5  1  0  0  0  0
 14 11  1  0  0  0  0
 14  4  1  0  0  0  0
 15 21  2  0  0  0  0
 16  3  1  0  0  0  0
 16 11  2  0  0  0  0
 18 14  2  0  0  0  0
 19 10  1  0  0  0  0
 20 19  2  0  0  0  0
 20 15  1  0  0  0  0
 21 17  1  0  0  0  0
 21  3  1  0  0  0  0
 22 25  2  0  0  0  0
 22 26  1  0  0  0  0
 24 23  2  0  0  0  0
 25 24  1  0  0  0  0
 26 27  2  0  0  0  0
 27 23  1  0  0  0  0
M  END
>  <MODEL>
8

>  <REMARK>
 VINA RESULT:      -9.0      2.656      6.372
  Name = 
  1 active torsions:
  status: ('A' for Active; 'I' for Inactive)
    1  A    between atoms: C_9  and  C_15
                            x       y       z     vdW  Elec       q    Type
                         _______ _______ _______ _____ _____    ______ ____

>  <TORSDO>
F 1

$$$$
=
 OpenBabel10262420093D

 27 31  0  0  1  0  0  0  0  0999 V2000
  189.5380  178.3420  138.5910 C   0  0  0  0  0  2  0  0  0  0  0  0
  189.5740  177.0010  140.6640 C   0  0  0  0  0  0  0  0  0  0  0  0
  187.2730  178.0050  140.4010 N   0  0  0  0  0  2  0  0  0  0  0  0
  189.0270  177.0010  144.8440 C   0  0  0  0  0  3  0  0  0  0  0  0
  187.6790  177.5000  146.7800 O   0  0  0  0  0  1  0  0  0  0  0  0
  190.5560  176.4920  141.5330 C   0  0  0  0  0  3  0  0  0  0  0  0
  187.0120  178.0110  143.1880 C   0  0  0  0  0  3  0  0  0  0  0  0
  185.2410  177.4870  137.5580 C   0  0  0  0  0  3  0  0  0  0  0  0
  186.8430  178.0060  144.5750 C   0  0  0  0  0  3  0  0  0  0  0  0
  185.7970  177.3640  136.3550 C   0  0  0  0  0  3  0  0  0  0  0  0
  188.1900  177.5110  142.6100 C   0  0  0  0  0  0  0  0  0  0  0  0
  189.8140  176.9750  139.1760 C   0  0  2  0  0  3  0  0  0  0  0  0
  187.8500  177.5030  145.4020 C   0  0  0  0  0  0  0  0  0  0  0  0
  189.2030  177.0020  143.4570 C   0  0  0  0  0  0  0  0  0  0  0  0
  188.1300  178.3780  138.1260 C   0  0  0  0  0  0  0  0  0  0  0  0
  188.3660  177.5140  141.2080 C   0  0  0  0  0  0  0  0  0  0  0  0
  185.7000  178.5040  138.5460 C   0  0  0  0  0  2  0  0  0  0  0  0
  190.3760  176.4930  142.9120 C   0  0  0  0  0  3  0  0  0  0  0  0
  186.9630  178.1400  135.8970 C   0  0  0  0  0  3  0  0  0  0  0  0
  187.9640  178.5850  136.6680 C   0  0  0  0  0  3  0  0  0  0  0  0
  187.1030  178.2470  138.9920 C   0  0  0  0  0  0  0  0  0  0  0  0
  193.6460  175.4970  137.9690 C   0  0  0  0  0  3  0  0  0  0  0  0
  191.1630  176.4670  138.7460 C   0  0  0  0  0  0  0  0  0  0  0  0
  192.3470  177.1280  139.1040 C   0  0  0  0  0  3  0  0  0  0  0  0
  193.5510  176.6330  138.7100 N   0  0  0  0  0  0  0  0  0  0  0  0
  192.4900  174.8060  137.5930 C   0  0  0  0  0  3  0  0  0  0  0  0
  191.2450  175.2970  137.9880 C   0  0  0  0  0  3  0  0  0  0  0  0
  1 12  1  0  0  0  0
  2 16  2  0  0  0  0
  2  6  1  0  0  0  0
  3 16  1  0  0  0  0
  4 13  1  0  0  0  0
  6 18  2  0  0  0  0
  7  9  1  0  0  0  0
  8 17  1  0  0  0  0
  9 13  2  0  0  0  0
 10  8  2  0  0  0  0
 11  7  2  0  0  0  0
 11 14  1  0  0  0  0
 12 23  1  1  0  0  0
 12  2  1  0  0  0  0
 13  5  1  0  0  0  0
 14  4  2  0  0  0  0
 15  1  1  0  0  0  0
 15 21  2  0  0  0  0
 16 11  1  0  0  0  0
 17 21  1  0  0  0  0
 18 14  1  0  0  0  0
 19 10  1  0  0  0  0
 19 20  2  0  0  0  0
 20 15  1  0  0  0  0
 21  3  1  0  0  0  0
 22 25  1  0  0  0  0
 23 24  1  0  0  0  0
 25 24  2  0  0  0  0
 26 22  2  0  0  0  0
 26 27  1  0  0  0  0
 27 23  2  0  0  0  0
M  END
>  <MODEL>
9

>  <REMARK>
 VINA RESULT:      -9.0      2.627      5.131
  Name = 
  1 active torsions:
  status: ('A' for Active; 'I' for Inactive)
    1  A    between atoms: C_9  and  C_15
                            x       y       z     vdW  Elec       q    Type
                         _______ _______ _______ _____ _____    ______ ____

>  <TORSDO>
F 1

$$$$
