=
 OpenBabel10262420523D

 28 32  0  0  1  0  0  0  0  0999 V2000
  189.9980  177.4560  143.3540 C   0  0  1  0  0  3  0  0  0  0  0  0
  184.9250  178.5700  142.9290 C   0  0  0  0  0  3  0  0  0  0  0  0
  188.4540  177.5520  148.0860 C   0  0  0  0  0  1  0  0  0  0  0  0
  184.2050  178.5880  145.2490 C   0  0  0  0  0  0  0  0  0  0  0  0
  186.5810  178.1310  144.7690 C   0  0  0  0  0  0  0  0  0  0  0  0
  182.6070  179.0120  143.4800 C   0  0  0  0  0  0  0  0  0  0  0  0
  185.2210  178.4330  144.2910 C   0  0  0  0  0  0  0  0  0  0  0  0
  185.7960  178.1640  147.0730 C   0  0  0  0  0  3  0  0  0  0  0  0
  182.9000  178.8770  144.8410 C   0  0  0  0  0  3  0  0  0  0  0  0
  189.1960  177.5570  145.6890 C   0  0  0  0  0  0  0  0  0  0  0  0
  187.5710  177.9770  143.9390 N   0  0  0  0  0  0  0  0  0  0  0  0
  184.5010  178.4530  146.6140 O   0  0  0  0  0  0  0  0  0  0  0  0
  191.5530  177.3030  145.2990 C   0  0  0  0  0  3  0  0  0  0  0  0
  188.1500  177.7040  146.6690 N   0  0  0  0  0  0  0  0  0  0  0  0
  190.5360  177.2370  146.1060 N   0  0  0  0  0  0  0  0  0  0  0  0
  181.2190  179.3190  143.0470 C   0  0  0  0  0  1  0  0  0  0  0  0
  183.6180  178.8590  142.5260 C   0  0  0  0  0  3  0  0  0  0  0  0
  186.8170  178.0040  146.2200 C   0  0  0  0  0  0  0  0  0  0  0  0
  191.3890  177.8040  143.8940 C   0  0  0  0  0  2  0  0  0  0  0  0
  188.9140  177.6990  144.3760 C   0  0  0  0  0  0  0  0  0  0  0  0
  189.7380  178.1320  142.1190 O   0  0  0  0  0  0  0  0  0  0  0  0
  189.7990  177.5420  140.8480 C   0  0  0  0  0  0  0  0  0  0  0  0
  189.8470  176.3930  138.2880 C   0  0  0  0  0  0  0  0  0  0  0  0
  190.9700  176.9370  140.3610 C   0  0  0  0  0  3  0  0  0  0  0  0
  188.6560  177.5640  140.0420 C   0  0  0  0  0  3  0  0  0  0  0  0
  188.6780  176.9920  138.7660 C   0  0  0  0  0  3  0  0  0  0  0  0
  189.8680  175.8400  137.0520 F   0  0  0  0  0  0  0  0  0  0  0  0
  190.9930  176.3650  139.0860 C   0  0  0  0  0  3  0  0  0  0  0  0
  1 21  1  6  0  0  0
  1 19  1  0  0  0  0
  1 20  1  0  0  0  0
  2  7  1  0  0  0  0
  4 12  1  0  0  0  0
  5 18  1  0  0  0  0
  6  9  2  0  0  0  0
  7  5  1  0  0  0  0
  7  4  2  0  0  0  0
  9  4  1  0  0  0  0
 10 15  1  0  0  0  0
 10 14  1  0  0  0  0
 11 20  1  0  0  0  0
 11  5  2  0  0  0  0
 12  8  1  0  0  0  0
 13 15  2  0  0  0  0
 14  3  1  0  0  0  0
 16  6  1  0  0  0  0
 17  2  2  0  0  0  0
 17  6  1  0  0  0  0
 18 14  1  0  0  0  0
 18  8  2  0  0  0  0
 19 13  1  0  0  0  0
 20 10  2  0  0  0  0
 22 21  1  0  0  0  0
 23 26  2  0  0  0  0
 23 28  1  0  0  0  0
 24 22  1  0  0  0  0
 25 22  2  0  0  0  0
 26 25  1  0  0  0  0
 27 23  1  0  0  0  0
 28 24  2  0  0  0  0
M  END
>  <MODEL>
1

>  <REMARK>
 VINA RESULT:     -10.5      0.000      0.000
  Name = 
  2 active torsions:
  status: ('A' for Active; 'I' for Inactive)
    1  A    between atoms: C_1  and  O_2
    2  A    between atoms: O_2  and  C_3
                            x       y       z     vdW  Elec       q    Type
                         _______ _______ _______ _____ _____    ______ ____

>  <TORSDO>
F 2

$$$$
=
 OpenBabel10262420523D

 28 32  0  0  1  0  0  0  0  0999 V2000
  189.2150  177.2250  143.2470 C   0  0  1  0  0  3  0  0  0  0  0  0
  184.1380  178.3210  143.6800 C   0  0  0  0  0  3  0  0  0  0  0  0
  187.9120  178.4420  138.5980 C   0  0  0  0  0  1  0  0  0  0  0  0
  183.5460  178.9270  141.4040 C   0  0  0  0  0  0  0  0  0  0  0  0
  185.8760  178.2630  141.8650 C   0  0  0  0  0  0  0  0  0  0  0  0
  181.8680  178.9830  143.1490 C   0  0  0  0  0  0  0  0  0  0  0  0
  184.5040  178.5040  142.3400 C   0  0  0  0  0  0  0  0  0  0  0  0
  185.2180  178.8810  139.6040 C   0  0  0  0  0  3  0  0  0  0  0  0
  182.2300  179.1660  141.8110 C   0  0  0  0  0  3  0  0  0  0  0  0
  188.5130  177.7940  140.9470 C   0  0  0  0  0  0  0  0  0  0  0  0
  186.8140  177.8690  142.6750 N   0  0  0  0  0  0  0  0  0  0  0  0
  183.9100  179.1090  140.0610 O   0  0  0  0  0  0  0  0  0  0  0  0
  190.7430  176.9690  141.2930 C   0  0  0  0  0  3  0  0  0  0  0  0
  187.5320  178.2400  139.9910 N   0  0  0  0  0  0  0  0  0  0  0  0
  189.8740  177.5690  140.5340 N   0  0  0  0  0  0  0  0  0  0  0  0
  180.4690  179.2380  143.5800 C   0  0  0  0  0  1  0  0  0  0  0  0
  182.8210  178.5620  144.0820 C   0  0  0  0  0  3  0  0  0  0  0  0
  186.1860  178.4750  140.4380 C   0  0  0  0  0  0  0  0  0  0  0  0
  190.3420  176.3980  142.6210 C   0  0  0  0  0  2  0  0  0  0  0  0
  188.1600  177.6070  142.2370 C   0  0  0  0  0  0  0  0  0  0  0  0
  188.6570  176.5620  144.3870 O   0  0  0  0  0  0  0  0  0  0  0  0
  188.6720  177.0600  145.6980 C   0  0  0  0  0  0  0  0  0  0  0  0
  188.6190  178.0640  148.3180 C   0  0  0  0  0  0  0  0  0  0  0  0
  189.8340  177.0480  146.4880 C   0  0  0  0  0  3  0  0  0  0  0  0
  187.4870  177.5800  146.2320 C   0  0  0  0  0  3  0  0  0  0  0  0
  187.4600  178.0810  147.5370 C   0  0  0  0  0  3  0  0  0  0  0  0
  188.5910  178.5480  149.5820 F   0  0  0  0  0  0  0  0  0  0  0  0
  189.8060  177.5470  147.7930 C   0  0  0  0  0  3  0  0  0  0  0  0
  1 21  1  1  0  0  0
  2 17  1  0  0  0  0
  3 14  1  0  0  0  0
  4  9  2  0  0  0  0
  4  7  1  0  0  0  0
  5  7  1  0  0  0  0
  5 11  2  0  0  0  0
  6 16  1  0  0  0  0
  6 17  2  0  0  0  0
  7  2  2  0  0  0  0
  8 12  1  0  0  0  0
  8 18  2  0  0  0  0
  9  6  1  0  0  0  0
 10 20  2  0  0  0  0
 12  4  1  0  0  0  0
 13 19  1  0  0  0  0
 14 18  1  0  0  0  0
 14 10  1  0  0  0  0
 15 10  1  0  0  0  0
 15 13  2  0  0  0  0
 18  5  1  0  0  0  0
 19  1  1  0  0  0  0
 20 11  1  0  0  0  0
 20  1  1  0  0  0  0
 21 22  1  0  0  0  0
 22 25  2  0  0  0  0
 22 24  1  0  0  0  0
 23 27  1  0  0  0  0
 24 28  2  0  0  0  0
 25 26  1  0  0  0  0
 26 23  2  0  0  0  0
 28 23  1  0  0  0  0
M  END
>  <MODEL>
2

>  <REMARK>
 VINA RESULT:      -9.7      3.244      5.796
  Name = 
  2 active torsions:
  status: ('A' for Active; 'I' for Inactive)
    1  A    between atoms: C_1  and  O_2
    2  A    between atoms: O_2  and  C_3
                            x       y       z     vdW  Elec       q    Type
                         _______ _______ _______ _____ _____    ______ ____

>  <TORSDO>
F 2

$$$$
=
 OpenBabel10262420523D

 28 32  0  0  1  0  0  0  0  0999 V2000
  187.2770  178.5490  140.8220 C   0  0  1  0  0  3  0  0  0  0  0  0
  190.4470  176.9940  144.6550 C   0  0  0  0  0  3  0  0  0  0  0  0
  184.3700  178.7570  144.8580 C   0  0  0  0  0  1  0  0  0  0  0  0
  189.0030  177.1270  146.6040 C   0  0  0  0  0  0  0  0  0  0  0  0
  188.0560  177.7300  144.4080 C   0  0  0  0  0  0  0  0  0  0  0  0
  191.3050  176.4170  146.8460 C   0  0  0  0  0  0  0  0  0  0  0  0
  189.1970  177.2770  145.2200 C   0  0  0  0  0  0  0  0  0  0  0  0
  186.6610  177.8420  146.3990 C   0  0  0  0  0  3  0  0  0  0  0  0
  190.0580  176.6980  147.4130 C   0  0  0  0  0  3  0  0  0  0  0  0
  185.8590  178.5950  142.8450 C   0  0  0  0  0  0  0  0  0  0  0  0
  188.1620  177.8890  143.1210 N   0  0  0  0  0  0  0  0  0  0  0  0
  187.7510  177.4090  147.1710 O   0  0  0  0  0  0  0  0  0  0  0  0
  184.8270  179.0040  140.7140 C   0  0  0  0  0  3  0  0  0  0  0  0
  185.6660  178.4530  144.2660 N   0  0  0  0  0  0  0  0  0  0  0  0
  184.7800  179.0590  142.0130 N   0  0  0  0  0  0  0  0  0  0  0  0
  192.4260  175.9610  147.7090 C   0  0  0  0  0  1  0  0  0  0  0  0
  191.4990  176.5650  145.4690 C   0  0  0  0  0  3  0  0  0  0  0  0
  186.7690  178.0070  145.0730 C   0  0  0  0  0  0  0  0  0  0  0  0
  185.9900  178.3660  140.0120 C   0  0  0  0  0  2  0  0  0  0  0  0
  187.0610  178.3130  142.2970 C   0  0  0  0  0  0  0  0  0  0  0  0
  188.3390  177.7460  140.2950 O   0  0  0  0  0  0  0  0  0  0  0  0
  188.6820  177.6500  138.9380 C   0  0  0  0  0  0  0  0  0  0  0  0
  189.3430  177.3790  136.2250 C   0  0  0  0  0  0  0  0  0  0  0  0
  189.0510  178.7740  138.1800 C   0  0  0  0  0  3  0  0  0  0  0  0
  188.6490  176.3930  138.3250 C   0  0  0  0  0  3  0  0  0  0  0  0
  188.9790  176.2560  136.9740 C   0  0  0  0  0  3  0  0  0  0  0  0
  189.6610  177.2460  134.9160 F   0  0  0  0  0  0  0  0  0  0  0  0
  189.3800  178.6380  136.8290 C   0  0  0  0  0  3  0  0  0  0  0  0
  1 21  1  6  0  0  0
  1 20  1  0  0  0  0
  2  7  2  0  0  0  0
  2 17  1  0  0  0  0
  4 12  1  0  0  0  0
  4  9  2  0  0  0  0
  5 18  1  0  0  0  0
  5  7  1  0  0  0  0
  6  9  1  0  0  0  0
  6 16  1  0  0  0  0
  7  4  1  0  0  0  0
  8 12  1  0  0  0  0
 10 14  1  0  0  0  0
 11  5  2  0  0  0  0
 13 15  2  0  0  0  0
 14  3  1  0  0  0  0
 14 18  1  0  0  0  0
 15 10  1  0  0  0  0
 17  6  2  0  0  0  0
 18  8  2  0  0  0  0
 19 13  1  0  0  0  0
 19  1  1  0  0  0  0
 20 10  2  0  0  0  0
 20 11  1  0  0  0  0
 22 21  1  0  0  0  0
 23 28  2  0  0  0  0
 23 26  1  0  0  0  0
 24 22  2  0  0  0  0
 25 22  1  0  0  0  0
 26 25  2  0  0  0  0
 27 23  1  0  0  0  0
 28 24  1  0  0  0  0
M  END
>  <MODEL>
3

>  <REMARK>
 VINA RESULT:      -9.7      2.002      5.334
  Name = 
  2 active torsions:
  status: ('A' for Active; 'I' for Inactive)
    1  A    between atoms: C_1  and  O_2
    2  A    between atoms: O_2  and  C_3
                            x       y       z     vdW  Elec       q    Type
                         _______ _______ _______ _____ _____    ______ ____

>  <TORSDO>
F 2

$$$$
=
 OpenBabel10262420523D

 28 32  0  0  1  0  0  0  0  0999 V2000
  187.6050  177.8850  138.7930 C   0  0  1  0  0  3  0  0  0  0  0  0
  187.6310  177.6670  144.0000 C   0  0  0  0  0  3  0  0  0  0  0  0
  192.4140  177.1870  139.8790 C   0  0  0  0  0  1  0  0  0  0  0  0
  189.9830  177.3080  144.4890 C   0  0  0  0  0  0  0  0  0  0  0  0
  189.3040  177.5270  142.1290 C   0  0  0  0  0  0  0  0  0  0  0  0
  188.3760  177.4430  146.2950 C   0  0  0  0  0  0  0  0  0  0  0  0
  188.9500  177.5010  143.5570 C   0  0  0  0  0  0  0  0  0  0  0  0
  191.6460  177.1660  142.6850 C   0  0  0  0  0  3  0  0  0  0  0  0
  189.6940  177.2780  145.8560 C   0  0  0  0  0  3  0  0  0  0  0  0
  189.9860  177.5820  139.3810 C   0  0  0  0  0  0  0  0  0  0  0  0
  188.3990  177.7040  141.2110 N   0  0  0  0  0  0  0  0  0  0  0  0
  191.3050  177.1430  144.0470 O   0  0  0  0  0  0  0  0  0  0  0  0
  189.4170  177.9840  137.0820 C   0  0  0  0  0  3  0  0  0  0  0  0
  191.0420  177.3700  140.3380 N   0  0  0  0  0  0  0  0  0  0  0  0
  190.2790  177.5900  137.9720 N   0  0  0  0  0  0  0  0  0  0  0  0
  188.0700  177.4110  147.7490 C   0  0  0  0  0  1  0  0  0  0  0  0
  187.3470  177.6370  145.3690 C   0  0  0  0  0  3  0  0  0  0  0  0
  190.7150  177.3480  141.7380 C   0  0  0  0  0  0  0  0  0  0  0  0
  188.0840  178.5390  137.4930 C   0  0  0  0  0  2  0  0  0  0  0  0
  188.7160  177.7520  139.8070 C   0  0  0  0  0  0  0  0  0  0  0  0
  186.4650  178.5680  139.3260 O   0  0  0  0  0  0  0  0  0  0  0  0
  185.1630  178.4910  138.8090 C   0  0  0  0  0  0  0  0  0  0  0  0
  182.5420  178.4100  137.8110 C   0  0  0  0  0  0  0  0  0  0  0  0
  184.7870  177.5090  137.8770 C   0  0  0  0  0  3  0  0  0  0  0  0
  184.2150  179.4280  139.2360 C   0  0  0  0  0  3  0  0  0  0  0  0
  182.9090  179.3880  138.7390 C   0  0  0  0  0  3  0  0  0  0  0  0
  181.2780  178.3730  137.3290 F   0  0  0  0  0  0  0  0  0  0  0  0
  183.4820  177.4700  137.3800 C   0  0  0  0  0  3  0  0  0  0  0  0
  1 21  1  1  0  0  0
  1 20  1  0  0  0  0
  2 17  1  0  0  0  0
  3 14  1  0  0  0  0
  4  9  2  0  0  0  0
  5  7  1  0  0  0  0
  6 16  1  0  0  0  0
  7  2  2  0  0  0  0
  7  4  1  0  0  0  0
  8 12  1  0  0  0  0
  9  6  1  0  0  0  0
 10 20  2  0  0  0  0
 10 14  1  0  0  0  0
 11  5  2  0  0  0  0
 12  4  1  0  0  0  0
 13 19  1  0  0  0  0
 13 15  2  0  0  0  0
 14 18  1  0  0  0  0
 15 10  1  0  0  0  0
 17  6  2  0  0  0  0
 18  5  1  0  0  0  0
 18  8  2  0  0  0  0
 19  1  1  0  0  0  0
 20 11  1  0  0  0  0
 22 25  1  0  0  0  0
 22 21  1  0  0  0  0
 23 26  1  0  0  0  0
 24 22  2  0  0  0  0
 26 25  2  0  0  0  0
 27 23  1  0  0  0  0
 28 23  2  0  0  0  0
 28 24  1  0  0  0  0
M  END
>  <MODEL>
4

>  <REMARK>
 VINA RESULT:      -9.5      3.468      6.492
  Name = 
  2 active torsions:
  status: ('A' for Active; 'I' for Inactive)
    1  A    between atoms: C_1  and  O_2
    2  A    between atoms: O_2  and  C_3
                            x       y       z     vdW  Elec       q    Type
                         _______ _______ _______ _____ _____    ______ ____

>  <TORSDO>
F 2

$$$$
=
 OpenBabel10262420523D

 28 32  0  0  1  0  0  0  0  0999 V2000
  187.1180  177.9740  145.6160 C   0  0  1  0  0  3  0  0  0  0  0  0
  188.1340  178.0790  140.5050 C   0  0  0  0  0  3  0  0  0  0  0  0
  182.6860  179.0040  143.5960 C   0  0  0  0  0  1  0  0  0  0  0  0
  185.9510  178.5640  139.5560 C   0  0  0  0  0  0  0  0  0  0  0  0
  186.1460  178.4040  142.0090 C   0  0  0  0  0  0  0  0  0  0  0  0
  187.8630  178.2530  138.1030 C   0  0  0  0  0  0  0  0  0  0  0  0
  186.7690  178.3430  140.6770 C   0  0  0  0  0  0  0  0  0  0  0  0
  183.9860  178.8870  140.9960 C   0  0  0  0  0  3  0  0  0  0  0  0
  186.5000  178.5170  138.2720 C   0  0  0  0  0  3  0  0  0  0  0  0
  184.9480  178.5270  144.5720 C   0  0  0  0  0  0  0  0  0  0  0  0
  186.8420  178.2120  143.0910 N   0  0  0  0  0  0  0  0  0  0  0  0
  184.5840  178.8300  139.7270 O   0  0  0  0  0  0  0  0  0  0  0  0
  185.1120  178.5790  146.9680 C   0  0  0  0  0  3  0  0  0  0  0  0
  184.1090  178.7400  143.4210 N   0  0  0  0  0  0  0  0  0  0  0  0
  184.3800  178.5520  145.8940 N   0  0  0  0  0  0  0  0  0  0  0  0
  188.4460  178.2030  136.7370 C   0  0  0  0  0  1  0  0  0  0  0  0
  188.6780  178.0340  139.2190 C   0  0  0  0  0  3  0  0  0  0  0  0
  184.7020  178.6890  142.1120 C   0  0  0  0  0  0  0  0  0  0  0  0
  186.6070  178.6740  146.8790 C   0  0  0  0  0  2  0  0  0  0  0  0
  186.2660  178.2820  144.4090 C   0  0  0  0  0  0  0  0  0  0  0  0
  188.5020  178.2610  145.3890 O   0  0  0  0  0  0  0  0  0  0  0  0
  189.5760  177.5050  145.8840 C   0  0  0  0  0  0  0  0  0  0  0  0
  191.7610  176.0040  146.8020 C   0  0  0  0  0  0  0  0  0  0  0  0
  189.6630  177.1290  147.2350 C   0  0  0  0  0  3  0  0  0  0  0  0
  190.5910  177.1220  145.0000 C   0  0  0  0  0  3  0  0  0  0  0  0
  191.6800  176.3740  145.4570 C   0  0  0  0  0  3  0  0  0  0  0  0
  192.8170  175.2810  147.2440 F   0  0  0  0  0  0  0  0  0  0  0  0
  190.7520  176.3820  147.6920 C   0  0  0  0  0  3  0  0  0  0  0  0
  1 21  1  6  0  0  0
  1 19  1  0  0  0  0
  2  7  1  0  0  0  0
  4 12  1  0  0  0  0
  4  7  2  0  0  0  0
  5 18  1  0  0  0  0
  5 11  2  0  0  0  0
  6  9  2  0  0  0  0
  6 17  1  0  0  0  0
  7  5  1  0  0  0  0
  8 18  2  0  0  0  0
  9  4  1  0  0  0  0
 10 15  1  0  0  0  0
 11 20  1  0  0  0  0
 12  8  1  0  0  0  0
 14  3  1  0  0  0  0
 14 10  1  0  0  0  0
 15 13  2  0  0  0  0
 16  6  1  0  0  0  0
 17  2  2  0  0  0  0
 18 14  1  0  0  0  0
 19 13  1  0  0  0  0
 20 10  2  0  0  0  0
 20  1  1  0  0  0  0
 21 22  1  0  0  0  0
 22 24  1  0  0  0  0
 23 27  1  0  0  0  0
 23 28  1  0  0  0  0
 24 28  2  0  0  0  0
 25 26  1  0  0  0  0
 25 22  2  0  0  0  0
 26 23  2  0  0  0  0
M  END
>  <MODEL>
5

>  <REMARK>
 VINA RESULT:      -9.4      2.928      6.285
  Name = 
  2 active torsions:
  status: ('A' for Active; 'I' for Inactive)
    1  A    between atoms: C_1  and  O_2
    2  A    between atoms: O_2  and  C_3
                            x       y       z     vdW  Elec       q    Type
                         _______ _______ _______ _____ _____    ______ ____

>  <TORSDO>
F 2

$$$$
=
 OpenBabel10262420523D

 28 32  0  0  1  0  0  0  0  0999 V2000
  185.3350  178.5810  140.8250 C   0  0  1  0  0  3  0  0  0  0  0  0
  188.6050  177.6590  144.7770 C   0  0  0  0  0  3  0  0  0  0  0  0
  189.6150  177.4870  138.5290 C   0  0  0  0  0  1  0  0  0  0  0  0
  190.6700  177.1120  143.6200 C   0  0  0  0  0  0  0  0  0  0  0  0
  188.6910  177.6850  142.2650 C   0  0  0  0  0  0  0  0  0  0  0  0
  190.5920  177.0870  146.0400 C   0  0  0  0  0  0  0  0  0  0  0  0
  189.3160  177.4850  143.5820 C   0  0  0  0  0  0  0  0  0  0  0  0
  190.7900  177.1270  141.1660 C   0  0  0  0  0  3  0  0  0  0  0  0
  191.3050  176.9140  144.8490 C   0  0  0  0  0  3  0  0  0  0  0  0
  187.4910  178.0750  139.7300 C   0  0  0  0  0  0  0  0  0  0  0  0
  187.4420  178.0330  142.1540 N   0  0  0  0  0  0  0  0  0  0  0  0
  191.3840  176.9390  142.4240 O   0  0  0  0  0  0  0  0  0  0  0  0
  185.6590  178.8140  138.3630 C   0  0  0  0  0  3  0  0  0  0  0  0
  188.8760  177.6800  139.7710 N   0  0  0  0  0  0  0  0  0  0  0  0
  186.8300  178.2580  138.4650 N   0  0  0  0  0  0  0  0  0  0  0  0
  191.2690  176.8750  147.3460 C   0  0  0  0  0  1  0  0  0  0  0  0
  189.2450  177.4600  146.0040 C   0  0  0  0  0  3  0  0  0  0  0  0
  189.5040  177.4850  141.0500 C   0  0  0  0  0  0  0  0  0  0  0  0
  184.9670  179.3780  139.5700 C   0  0  0  0  0  2  0  0  0  0  0  0
  186.8070  178.2530  140.8810 C   0  0  0  0  0  0  0  0  0  0  0  0
  184.8840  179.2450  142.0110 O   0  0  0  0  0  0  0  0  0  0  0  0
  183.6430  179.0350  142.6310 C   0  0  0  0  0  0  0  0  0  0  0  0
  181.1980  178.6280  143.9460 C   0  0  0  0  0  0  0  0  0  0  0  0
  182.4500  178.9340  141.8970 C   0  0  0  0  0  3  0  0  0  0  0  0
  183.6000  178.9300  144.0260 C   0  0  0  0  0  3  0  0  0  0  0  0
  182.3820  178.7270  144.6820 C   0  0  0  0  0  3  0  0  0  0  0  0
  180.0190  178.4320  144.5810 F   0  0  0  0  0  0  0  0  0  0  0  0
  181.2320  178.7310  142.5520 C   0  0  0  0  0  3  0  0  0  0  0  0
  1 20  1  0  0  0  0
  1 21  1  1  0  0  0
  2 17  1  0  0  0  0
  3 14  1  0  0  0  0
  4  9  2  0  0  0  0
  5  7  1  0  0  0  0
  6 16  1  0  0  0  0
  7  4  1  0  0  0  0
  7  2  2  0  0  0  0
  8 12  1  0  0  0  0
  9  6  1  0  0  0  0
 10 14  1  0  0  0  0
 10 20  2  0  0  0  0
 11  5  2  0  0  0  0
 12  4  1  0  0  0  0
 13 15  2  0  0  0  0
 13 19  1  0  0  0  0
 14 18  1  0  0  0  0
 15 10  1  0  0  0  0
 17  6  2  0  0  0  0
 18  8  2  0  0  0  0
 18  5  1  0  0  0  0
 19  1  1  0  0  0  0
 20 11  1  0  0  0  0
 21 22  1  0  0  0  0
 22 25  1  0  0  0  0
 23 27  1  0  0  0  0
 23 26  1  0  0  0  0
 24 28  1  0  0  0  0
 24 22  2  0  0  0  0
 25 26  2  0  0  0  0
 28 23  2  0  0  0  0
M  END
>  <MODEL>
6

>  <REMARK>
 VINA RESULT:      -9.1      3.229      7.742
  Name = 
  2 active torsions:
  status: ('A' for Active; 'I' for Inactive)
    1  A    between atoms: C_1  and  O_2
    2  A    between atoms: O_2  and  C_3
                            x       y       z     vdW  Elec       q    Type
                         _______ _______ _______ _____ _____    ______ ____

>  <TORSDO>
F 2

$$$$
=
 OpenBabel10262420523D

 28 32  0  0  1  0  0  0  0  0999 V2000
  189.1110  177.7460  142.9250 C   0  0  1  0  0  3  0  0  0  0  0  0
  184.2330  178.6290  141.3150 C   0  0  0  0  0  3  0  0  0  0  0  0
  186.5550  178.1080  147.1820 C   0  0  0  0  0  1  0  0  0  0  0  0
  183.0180  178.7800  143.4120 C   0  0  0  0  0  0  0  0  0  0  0  0
  185.4500  178.3840  143.5010 C   0  0  0  0  0  0  0  0  0  0  0  0
  181.8420  179.0180  141.3090 C   0  0  0  0  0  0  0  0  0  0  0  0
  184.2240  178.5990  142.7150 C   0  0  0  0  0  0  0  0  0  0  0  0
  184.1750  178.5450  145.5680 C   0  0  0  0  0  3  0  0  0  0  0  0
  181.8300  178.9890  142.7070 C   0  0  0  0  0  3  0  0  0  0  0  0
  187.8100  177.9770  145.0130 C   0  0  0  0  0  0  0  0  0  0  0  0
  186.6030  178.2110  142.9220 N   0  0  0  0  0  0  0  0  0  0  0  0
  183.0070  178.7510  144.8150 O   0  0  0  0  0  0  0  0  0  0  0  0
  190.2000  177.7880  145.1690 C   0  0  0  0  0  3  0  0  0  0  0  0
  186.5690  178.1500  145.7250 N   0  0  0  0  0  0  0  0  0  0  0  0
  189.0310  177.7390  145.7360 N   0  0  0  0  0  0  0  0  0  0  0  0
  180.5770  179.2400  140.5610 C   0  0  0  0  0  1  0  0  0  0  0  0
  183.0420  178.8390  140.6140 C   0  0  0  0  0  3  0  0  0  0  0  0
  185.3630  178.3670  144.9730 C   0  0  0  0  0  0  0  0  0  0  0  0
  190.3400  178.1850  143.7280 C   0  0  0  0  0  2  0  0  0  0  0  0
  187.8220  178.0160  143.6630 C   0  0  0  0  0  0  0  0  0  0  0  0
  189.1150  178.3240  141.6150 O   0  0  0  0  0  0  0  0  0  0  0  0
  189.3080  177.6140  140.4200 C   0  0  0  0  0  0  0  0  0  0  0  0
  189.7640  176.1680  138.0600 C   0  0  0  0  0  0  0  0  0  0  0  0
  188.2970  177.4960  139.4510 C   0  0  0  0  0  3  0  0  0  0  0  0
  190.5460  177.0030  140.1940 C   0  0  0  0  0  3  0  0  0  0  0  0
  190.7750  176.2820  139.0180 C   0  0  0  0  0  3  0  0  0  0  0  0
  189.9850  175.4690  136.9220 F   0  0  0  0  0  0  0  0  0  0  0  0
  188.5240  176.7750  138.2760 C   0  0  0  0  0  3  0  0  0  0  0  0
  1 21  1  6  0  0  0
  1 20  1  0  0  0  0
  1 19  1  0  0  0  0
  2  7  1  0  0  0  0
  4 12  1  0  0  0  0
  5 18  1  0  0  0  0
  6  9  2  0  0  0  0
  7  4  2  0  0  0  0
  7  5  1  0  0  0  0
  9  4  1  0  0  0  0
 10 14  1  0  0  0  0
 10 15  1  0  0  0  0
 11  5  2  0  0  0  0
 11 20  1  0  0  0  0
 12  8  1  0  0  0  0
 13 15  2  0  0  0  0
 14  3  1  0  0  0  0
 16  6  1  0  0  0  0
 17  6  1  0  0  0  0
 17  2  2  0  0  0  0
 18  8  2  0  0  0  0
 18 14  1  0  0  0  0
 19 13  1  0  0  0  0
 20 10  2  0  0  0  0
 22 21  1  0  0  0  0
 23 28  2  0  0  0  0
 23 26  1  0  0  0  0
 24 22  2  0  0  0  0
 25 22  1  0  0  0  0
 26 25  2  0  0  0  0
 27 23  1  0  0  0  0
 28 24  1  0  0  0  0
M  END
>  <MODEL>
7

>  <REMARK>
 VINA RESULT:      -8.9      1.209      1.867
  Name = 
  2 active torsions:
  status: ('A' for Active; 'I' for Inactive)
    1  A    between atoms: C_1  and  O_2
    2  A    between atoms: O_2  and  C_3
                            x       y       z     vdW  Elec       q    Type
                         _______ _______ _______ _____ _____    ______ ____

>  <TORSDO>
F 2

$$$$
=
 OpenBabel10262420523D

 28 32  0  0  1  0  0  0  0  0999 V2000
  185.9490  178.6490  139.7340 C   0  0  1  0  0  3  0  0  0  0  0  0
  188.0030  177.9270  144.4690 C   0  0  0  0  0  3  0  0  0  0  0  0
  182.0190  179.0900  142.7590 C   0  0  0  0  0  1  0  0  0  0  0  0
  186.0650  178.1680  145.9140 C   0  0  0  0  0  0  0  0  0  0  0  0
  185.7390  178.3840  143.4790 C   0  0  0  0  0  0  0  0  0  0  0  0
  188.2450  177.7270  146.8720 C   0  0  0  0  0  0  0  0  0  0  0  0
  186.6300  178.1560  144.6270 C   0  0  0  0  0  0  0  0  0  0  0  0
  183.8370  178.6150  144.9800 C   0  0  0  0  0  3  0  0  0  0  0  0
  186.8740  177.9540  147.0330 C   0  0  0  0  0  3  0  0  0  0  0  0
  184.0210  178.8160  141.2690 C   0  0  0  0  0  0  0  0  0  0  0  0
  186.1920  178.3840  142.2590 N   0  0  0  0  0  0  0  0  0  0  0  0
  184.6900  178.3960  146.0730 O   0  0  0  0  0  0  0  0  0  0  0  0
  183.6050  178.8410  138.9030 C   0  0  0  0  0  3  0  0  0  0  0  0
  183.4460  178.8420  142.5900 N   0  0  0  0  0  0  0  0  0  0  0  0
  183.1930  179.0590  140.1170 N   0  0  0  0  0  0  0  0  0  0  0  0
  189.1040  177.5000  148.0630 C   0  0  0  0  0  1  0  0  0  0  0  0
  188.8080  177.7130  145.5910 C   0  0  0  0  0  3  0  0  0  0  0  0
  184.3020  178.6160  143.7230 C   0  0  0  0  0  0  0  0  0  0  0  0
  184.9540  178.2350  138.6450 C   0  0  0  0  0  2  0  0  0  0  0  0
  185.3420  178.5860  141.1140 C   0  0  0  0  0  0  0  0  0  0  0  0
  187.1620  177.8930  139.6410 O   0  0  0  0  0  0  0  0  0  0  0  0
  187.8830  177.6650  138.4590 C   0  0  0  0  0  0  0  0  0  0  0  0
  189.3580  177.2840  136.1030 C   0  0  0  0  0  0  0  0  0  0  0  0
  187.9190  176.4050  137.8390 C   0  0  0  0  0  3  0  0  0  0  0  0
  188.5900  178.7290  137.8880 C   0  0  0  0  0  3  0  0  0  0  0  0
  189.3250  178.5400  136.7140 C   0  0  0  0  0  3  0  0  0  0  0  0
  190.0710  177.1010  134.9670 F   0  0  0  0  0  0  0  0  0  0  0  0
  188.6540  176.2160  136.6660 C   0  0  0  0  0  3  0  0  0  0  0  0
  1 21  1  1  0  0  0
  1 20  1  0  0  0  0
  2  7  2  0  0  0  0
  2 17  1  0  0  0  0
  4 12  1  0  0  0  0
  4  9  2  0  0  0  0
  5 18  1  0  0  0  0
  5  7  1  0  0  0  0
  6  9  1  0  0  0  0
  6 16  1  0  0  0  0
  7  4  1  0  0  0  0
  8 12  1  0  0  0  0
 10 14  1  0  0  0  0
 11  5  2  0  0  0  0
 13 15  2  0  0  0  0
 14  3  1  0  0  0  0
 14 18  1  0  0  0  0
 15 10  1  0  0  0  0
 17  6  2  0  0  0  0
 18  8  2  0  0  0  0
 19 13  1  0  0  0  0
 19  1  1  0  0  0  0
 20 10  2  0  0  0  0
 20 11  1  0  0  0  0
 22 21  1  0  0  0  0
 23 28  2  0  0  0  0
 23 26  1  0  0  0  0
 24 22  2  0  0  0  0
 25 22  1  0  0  0  0
 26 25  2  0  0  0  0
 27 23  1  0  0  0  0
 28 24  1  0  0  0  0
M  END
>  <MODEL>
8

>  <REMARK>
 VINA RESULT:      -8.7      2.373      5.347
  Name = 
  2 active torsions:
  status: ('A' for Active; 'I' for Inactive)
    1  A    between atoms: C_1  and  O_2
    2  A    between atoms: O_2  and  C_3
                            x       y       z     vdW  Elec       q    Type
                         _______ _______ _______ _____ _____    ______ ____

>  <TORSDO>
F 2

$$$$
=
 OpenBabel10262420523D

 28 32  0  0  1  0  0  0  0  0999 V2000
  183.1270  178.2630  139.2270 C   0  0  1  0  0  3  0  0  0  0  0  0
  186.6420  177.7260  143.0370 C   0  0  0  0  0  3  0  0  0  0  0  0
  180.6160  179.6500  143.2960 C   0  0  0  0  0  1  0  0  0  0  0  0
  185.3900  178.4280  144.9960 C   0  0  0  0  0  0  0  0  0  0  0  0
  184.2410  178.4330  142.8140 C   0  0  0  0  0  0  0  0  0  0  0  0
  187.7030  177.7450  145.2150 C   0  0  0  0  0  0  0  0  0  0  0  0
  185.4520  178.1880  143.6130 C   0  0  0  0  0  0  0  0  0  0  0  0
  183.0410  179.1260  144.8160 C   0  0  0  0  0  3  0  0  0  0  0  0
  186.5160  178.2060  145.7940 C   0  0  0  0  0  3  0  0  0  0  0  0
  181.9080  178.9010  141.2790 C   0  0  0  0  0  0  0  0  0  0  0  0
  184.2250  178.2310  141.5290 N   0  0  0  0  0  0  0  0  0  0  0  0
  184.1980  178.8890  145.5750 O   0  0  0  0  0  0  0  0  0  0  0  0
  180.6790  178.7410  139.2210 C   0  0  0  0  0  3  0  0  0  0  0  0
  181.8500  179.1580  142.6950 N   0  0  0  0  0  0  0  0  0  0  0  0
  180.7560  179.1500  140.4520 N   0  0  0  0  0  0  0  0  0  0  0  0
  188.8990  177.5100  146.0650 C   0  0  0  0  0  1  0  0  0  0  0  0
  187.7660  177.5050  143.8390 C   0  0  0  0  0  3  0  0  0  0  0  0
  183.0230  178.9180  143.4920 C   0  0  0  0  0  0  0  0  0  0  0  0
  181.7680  177.9020  138.6190 C   0  0  0  0  0  2  0  0  0  0  0  0
  183.0510  178.4450  140.7230 C   0  0  0  0  0  0  0  0  0  0  0  0
  184.1320  177.3170  138.8480 O   0  0  0  0  0  0  0  0  0  0  0  0
  185.1260  177.5370  137.8820 C   0  0  0  0  0  0  0  0  0  0  0  0
  187.1620  178.0070  136.0100 C   0  0  0  0  0  0  0  0  0  0  0  0
  185.0060  177.0600  136.5660 C   0  0  0  0  0  3  0  0  0  0  0  0
  186.2720  178.2510  138.2490 C   0  0  0  0  0  3  0  0  0  0  0  0
  187.2870  178.4860  137.3170 C   0  0  0  0  0  3  0  0  0  0  0  0
  188.1460  178.2340  135.1080 F   0  0  0  0  0  0  0  0  0  0  0  0
  186.0210  177.2940  135.6340 C   0  0  0  0  0  3  0  0  0  0  0  0
  1 21  1  1  0  0  0
  1 20  1  0  0  0  0
  2  7  2  0  0  0  0
  2 17  1  0  0  0  0
  4 12  1  0  0  0  0
  4  9  2  0  0  0  0
  5 18  1  0  0  0  0
  5  7  1  0  0  0  0
  6  9  1  0  0  0  0
  6 16  1  0  0  0  0
  7  4  1  0  0  0  0
  8 12  1  0  0  0  0
 10 14  1  0  0  0  0
 11  5  2  0  0  0  0
 13 15  2  0  0  0  0
 14  3  1  0  0  0  0
 14 18  1  0  0  0  0
 15 10  1  0  0  0  0
 17  6  2  0  0  0  0
 18  8  2  0  0  0  0
 19 13  1  0  0  0  0
 19  1  1  0  0  0  0
 20 10  2  0  0  0  0
 20 11  1  0  0  0  0
 22 25  1  0  0  0  0
 22 21  1  0  0  0  0
 23 26  1  0  0  0  0
 24 22  2  0  0  0  0
 26 25  2  0  0  0  0
 27 23  1  0  0  0  0
 28 23  2  0  0  0  0
 28 24  1  0  0  0  0
M  END
>  <MODEL>
9

>  <REMARK>
 VINA RESULT:      -8.6      3.308      6.420
  Name = 
  2 active torsions:
  status: ('A' for Active; 'I' for Inactive)
    1  A    between atoms: C_1  and  O_2
    2  A    between atoms: O_2  and  C_3
                            x       y       z     vdW  Elec       q    Type
                         _______ _______ _______ _____ _____    ______ ____

>  <TORSDO>
F 2

$$$$
