=
 OpenBabel10262419293D

 31 35  0  0  1  0  0  0  0  0999 V2000
  191.6180  177.4800  140.9110 C   0  0  0  0  0  0  0  0  0  0  0  0
  189.3210  177.7950  143.9520 C   0  0  1  0  0  3  0  0  0  0  0  0
  185.0040  178.7740  141.0480 O   0  0  0  0  0  0  0  0  0  0  0  0
  184.6410  178.4990  142.2230 C   0  0  0  0  0  0  0  0  0  0  0  0
  189.8170  177.6460  142.5320 C   0  0  0  0  0  0  0  0  0  0  0  0
  190.6950  177.5890  139.8680 C   0  0  0  0  0  3  0  0  0  0  0  0
  187.0030  177.8520  142.9560 C   0  0  0  0  0  0  0  0  0  0  0  0
  193.0040  177.3380  140.6220 N   0  0  0  0  0  1  0  0  0  0  0  0
  187.5020  177.9700  141.7590 N   0  0  0  0  0  0  0  0  0  0  0  0
  187.8540  177.3670  144.0960 C   0  0  0  0  0  2  0  0  0  0  0  0
  185.6040  178.0550  143.1900 N   0  0  0  0  0  2  0  0  0  0  0  0
  191.1840  177.5240  142.2380 C   0  0  0  0  0  3  0  0  0  0  0  0
  188.8940  177.7740  141.4770 C   0  0  0  0  0  0  0  0  0  0  0  0
  189.3350  177.7420  140.1510 C   0  0  0  0  0  3  0  0  0  0  0  0
  180.4940  178.8800  143.2720 C   0  0  0  0  0  0  0  0  0  0  0  0
  182.2320  178.5530  141.6250 C   0  0  0  0  0  3  0  0  0  0  0  0
  183.7510  178.9330  144.9870 O   0  0  0  0  0  1  0  0  0  0  0  0
  179.1820  178.9980  143.5880 F   0  0  0  0  0  0  0  0  0  0  0  0
  180.8780  178.6740  141.9480 C   0  0  0  0  0  3  0  0  0  0  0  0
  182.8190  178.8440  143.9590 C   0  0  0  0  0  0  0  0  0  0  0  0
  183.2190  178.6340  142.6190 C   0  0  0  0  0  0  0  0  0  0  0  0
  181.4630  178.9640  144.2750 C   0  0  0  0  0  3  0  0  0  0  0  0
  190.1790  177.0850  144.9660 C   0  0  0  0  0  0  0  0  0  0  0  0
  192.0840  175.6540  145.4540 C   0  0  0  0  0  3  0  0  0  0  0  0
  191.2530  176.2890  144.5320 C   0  0  0  0  0  3  0  0  0  0  0  0
  191.8590  175.8140  146.8210 C   0  0  0  0  0  3  0  0  0  0  0  0
  190.7970  176.6030  147.2670 C   0  0  0  0  0  3  0  0  0  0  0  0
  189.9360  177.2300  146.3510 C   0  0  0  0  0  0  0  0  0  0  0  0
  188.9550  178.3450  148.3620 C   0  0  0  0  0  2  0  0  0  0  0  0
  187.9530  177.3470  147.8360 C   0  0  0  0  0  2  0  0  0  0  0  0
  188.8310  178.1170  146.8630 C   0  0  0  0  0  3  0  0  0  0  0  0
  1 12  1  0  0  0  0
  2 10  1  0  0  0  0
  2 23  1  1  0  0  0
  3  4  2  0  0  0  0
  4 21  1  0  0  0  0
  4 11  1  0  0  0  0
  5  2  1  0  0  0  0
  6 14  1  0  0  0  0
  6  1  2  0  0  0  0
  7 11  1  0  0  0  0
  7 10  1  0  0  0  0
  8  1  1  0  0  0  0
  9  7  2  0  0  0  0
 12  5  2  0  0  0  0
 13  9  1  0  0  0  0
 13  5  1  0  0  0  0
 14 13  2  0  0  0  0
 15 18  1  0  0  0  0
 15 22  1  0  0  0  0
 16 19  1  0  0  0  0
 16 21  2  0  0  0  0
 19 15  2  0  0  0  0
 20 22  2  0  0  0  0
 20 17  1  0  0  0  0
 21 20  1  0  0  0  0
 23 28  1  0  0  0  0
 24 26  2  0  0  0  0
 25 23  2  0  0  0  0
 25 24  1  0  0  0  0
 26 27  1  0  0  0  0
 28 31  1  0  0  0  0
 28 27  2  0  0  0  0
 30 29  1  0  0  0  0
 31 30  1  0  0  0  0
 31 29  1  0  0  0  0
M  END
>  <MODEL>
1

>  <REMARK>
 VINA RESULT:     -11.1      0.000      0.000
  Name = 
  3 active torsions:
  status: ('A' for Active; 'I' for Inactive)
    1  A    between atoms: C_4  and  C_5
    2  A    between atoms: C_9  and  C_22
    3  A    between atoms: C_30  and  C_31
                            x       y       z     vdW  Elec       q    Type
                         _______ _______ _______ _____ _____    ______ ____

>  <TORSDO>
F 3

$$$$
=
 OpenBabel10262419293D

 31 35  0  0  1  0  0  0  0  0999 V2000
  184.2620  178.8100  144.2930 C   0  0  0  0  0  0  0  0  0  0  0  0
  187.7540  177.2510  144.3790 C   0  0  1  0  0  3  0  0  0  0  0  0
  188.3310  177.3590  139.1180 O   0  0  0  0  0  0  0  0  0  0  0  0
  189.4570  177.1380  139.6390 C   0  0  0  0  0  0  0  0  0  0  0  0
  186.5060  177.9620  143.9080 C   0  0  0  0  0  0  0  0  0  0  0  0
  184.1310  179.0920  142.9310 C   0  0  0  0  0  3  0  0  0  0  0  0
  188.5940  177.5180  142.0150 C   0  0  0  0  0  0  0  0  0  0  0  0
  183.1920  179.0970  145.1860 N   0  0  0  0  0  1  0  0  0  0  0  0
  187.4120  177.8970  141.6200 N   0  0  0  0  0  0  0  0  0  0  0  0
  188.9580  177.5410  143.4740 C   0  0  0  0  0  2  0  0  0  0  0  0
  189.6160  177.1960  141.0650 N   0  0  0  0  0  2  0  0  0  0  0  0
  185.4390  178.2330  144.7790 C   0  0  0  0  0  3  0  0  0  0  0  0
  186.3600  178.2310  142.5340 C   0  0  0  0  0  0  0  0  0  0  0  0
  185.1760  178.7970  142.0520 C   0  0  0  0  0  3  0  0  0  0  0  0
  192.7790  176.1660  137.0980 C   0  0  0  0  0  0  0  0  0  0  0  0
  190.4000  176.3080  137.4980 C   0  0  0  0  0  3  0  0  0  0  0  0
  192.2450  177.4860  140.4920 O   0  0  0  0  0  1  0  0  0  0  0  0
  193.8170  175.8550  136.2840 F   0  0  0  0  0  0  0  0  0  0  0  0
  191.4690  175.9870  136.6570 C   0  0  0  0  0  3  0  0  0  0  0  0
  191.9590  176.9910  139.2250 C   0  0  0  0  0  0  0  0  0  0  0  0
  190.6260  176.8130  138.7880 C   0  0  0  0  0  0  0  0  0  0  0  0
  193.0230  176.6670  138.3780 C   0  0  0  0  0  3  0  0  0  0  0  0
  188.0970  177.5300  145.8190 C   0  0  0  0  0  0  0  0  0  0  0  0
  187.4050  178.2990  148.0200 C   0  0  0  0  0  3  0  0  0  0  0  0
  187.1200  178.0680  146.6740 C   0  0  0  0  0  3  0  0  0  0  0  0
  188.6650  177.9880  148.5300 C   0  0  0  0  0  3  0  0  0  0  0  0
  189.6440  177.4510  147.6920 C   0  0  0  0  0  3  0  0  0  0  0  0
  189.3820  177.2340  146.3300 C   0  0  0  0  0  0  0  0  0  0  0  0
  191.7080  176.3230  146.2570 C   0  0  0  0  0  2  0  0  0  0  0  0
  191.6430  177.5310  145.3550 C   0  0  0  0  0  2  0  0  0  0  0  0
  190.4420  176.6060  145.4630 C   0  0  0  0  0  3  0  0  0  0  0  0
  1 12  1  0  0  0  0
  1  8  1  0  0  0  0
  2 23  1  1  0  0  0
  3  4  2  0  0  0  0
  4 11  1  0  0  0  0
  5  2  1  0  0  0  0
  5 12  2  0  0  0  0
  6  1  2  0  0  0  0
  7 10  1  0  0  0  0
  9  7  2  0  0  0  0
  9 13  1  0  0  0  0
 10  2  1  0  0  0  0
 11  7  1  0  0  0  0
 13  5  1  0  0  0  0
 14 13  2  0  0  0  0
 14  6  1  0  0  0  0
 15 22  1  0  0  0  0
 16 21  2  0  0  0  0
 18 15  1  0  0  0  0
 19 15  2  0  0  0  0
 19 16  1  0  0  0  0
 20 17  1  0  0  0  0
 21 20  1  0  0  0  0
 21  4  1  0  0  0  0
 22 20  2  0  0  0  0
 23 28  2  0  0  0  0
 23 25  1  0  0  0  0
 24 26  1  0  0  0  0
 25 24  2  0  0  0  0
 27 26  2  0  0  0  0
 28 27  1  0  0  0  0
 30 31  1  0  0  0  0
 30 29  1  0  0  0  0
 31 29  1  0  0  0  0
 31 28  1  0  0  0  0
M  END
>  <MODEL>
2

>  <REMARK>
 VINA RESULT:     -11.0      3.756      7.388
  Name = 
  3 active torsions:
  status: ('A' for Active; 'I' for Inactive)
    1  A    between atoms: C_4  and  C_5
    2  A    between atoms: C_9  and  C_22
    3  A    between atoms: C_30  and  C_31
                            x       y       z     vdW  Elec       q    Type
                         _______ _______ _______ _____ _____    ______ ____

>  <TORSDO>
F 3

$$$$
=
 OpenBabel10262419293D

 31 35  0  0  1  0  0  0  0  0999 V2000
  192.4110  176.3810  136.9600 C   0  0  0  0  0  0  0  0  0  0  0  0
  189.0680  176.6210  138.8030 C   0  0  1  0  0  3  0  0  0  0  0  0
  191.3030  176.7000  143.6020 O   0  0  0  0  0  0  0  0  0  0  0  0
  190.0990  177.0540  143.7160 C   0  0  0  0  0  0  0  0  0  0  0  0
  190.5480  176.6480  138.4970 C   0  0  0  0  0  0  0  0  0  0  0  0
  193.3090  176.4960  138.0240 C   0  0  0  0  0  3  0  0  0  0  0  0
  189.7270  177.1180  141.1880 C   0  0  0  0  0  0  0  0  0  0  0  0
  192.8960  176.1890  135.6370 N   0  0  0  0  0  1  0  0  0  0  0  0
  190.9780  176.8860  140.9090 N   0  0  0  0  0  0  0  0  0  0  0  0
  188.7340  177.3860  140.0900 C   0  0  0  0  0  2  0  0  0  0  0  0
  189.2920  177.2550  142.5460 N   0  0  0  0  0  2  0  0  0  0  0  0
  191.0350  176.4410  137.1960 C   0  0  0  0  0  3  0  0  0  0  0  0
  191.4580  176.7440  139.5660 C   0  0  0  0  0  0  0  0  0  0  0  0
  192.8330  176.6710  139.3260 C   0  0  0  0  0  3  0  0  0  0  0  0
  188.2770  177.6610  147.5580 C   0  0  0  0  0  0  0  0  0  0  0  0
  188.1150  177.4490  145.1560 C   0  0  0  0  0  3  0  0  0  0  0  0
  191.6550  177.0960  146.2060 O   0  0  0  0  0  1  0  0  0  0  0  0
  187.6880  177.8540  148.7620 F   0  0  0  0  0  0  0  0  0  0  0  0
  187.5050  177.6470  146.3980 C   0  0  0  0  0  3  0  0  0  0  0  0
  190.2770  177.2760  146.2400 C   0  0  0  0  0  0  0  0  0  0  0  0
  189.5020  177.2600  145.0570 C   0  0  0  0  0  0  0  0  0  0  0  0
  189.6590  177.4760  147.4790 C   0  0  0  0  0  3  0  0  0  0  0  0
  188.2100  177.1050  137.6640 C   0  0  0  0  0  0  0  0  0  0  0  0
  187.4400  178.9350  136.2600 C   0  0  0  0  0  3  0  0  0  0  0  0
  188.1980  178.4710  137.3350 C   0  0  0  0  0  3  0  0  0  0  0  0
  186.6920  178.0400  135.4960 C   0  0  0  0  0  3  0  0  0  0  0  0
  186.6970  176.6800  135.8100 C   0  0  0  0  0  3  0  0  0  0  0  0
  187.4350  176.1990  136.9040 C   0  0  0  0  0  0  0  0  0  0  0  0
  188.4410  173.9990  136.2750 C   0  0  0  0  0  2  0  0  0  0  0  0
  186.9630  173.9480  135.9750 C   0  0  0  0  0  2  0  0  0  0  0  0
  187.4590  174.7200  137.1870 C   0  0  0  0  0  3  0  0  0  0  0  0
  1 12  2  0  0  0  0
  1  6  1  0  0  0  0
  2 23  1  6  0  0  0
  2 10  1  0  0  0  0
  3  4  2  0  0  0  0
  4 21  1  0  0  0  0
  5  2  1  0  0  0  0
  5 13  2  0  0  0  0
  6 14  2  0  0  0  0
  7 11  1  0  0  0  0
  8  1  1  0  0  0  0
  9  7  2  0  0  0  0
 10  7  1  0  0  0  0
 11  4  1  0  0  0  0
 12  5  1  0  0  0  0
 13  9  1  0  0  0  0
 14 13  1  0  0  0  0
 15 18  1  0  0  0  0
 16 19  1  0  0  0  0
 17 20  1  0  0  0  0
 19 15  2  0  0  0  0
 20 22  2  0  0  0  0
 21 16  2  0  0  0  0
 21 20  1  0  0  0  0
 22 15  1  0  0  0  0
 24 25  2  0  0  0  0
 25 23  1  0  0  0  0
 26 27  2  0  0  0  0
 26 24  1  0  0  0  0
 27 28  1  0  0  0  0
 28 31  1  0  0  0  0
 28 23  2  0  0  0  0
 29 31  1  0  0  0  0
 30 29  1  0  0  0  0
 30 31  1  0  0  0  0
M  END
>  <MODEL>
3

>  <REMARK>
 VINA RESULT:     -10.7      4.300      7.861
  Name = 
  3 active torsions:
  status: ('A' for Active; 'I' for Inactive)
    1  A    between atoms: C_4  and  C_5
    2  A    between atoms: C_9  and  C_22
    3  A    between atoms: C_30  and  C_31
                            x       y       z     vdW  Elec       q    Type
                         _______ _______ _______ _____ _____    ______ ____

>  <TORSDO>
F 3

$$$$
=
 OpenBabel10262419293D

 31 35  0  0  1  0  0  0  0  0999 V2000
  191.4920  176.3870  146.2820 C   0  0  0  0  0  0  0  0  0  0  0  0
  188.5000  178.0160  144.5450 C   0  0  1  0  0  3  0  0  0  0  0  0
  190.1650  176.7450  139.6830 O   0  0  0  0  0  0  0  0  0  0  0  0
  188.9590  177.1070  139.6110 C   0  0  0  0  0  0  0  0  0  0  0  0
  189.7340  177.1840  144.8070 C   0  0  0  0  0  0  0  0  0  0  0  0
  192.1450  175.8030  145.1940 C   0  0  0  0  0  3  0  0  0  0  0  0
  188.6990  177.2480  142.1500 C   0  0  0  0  0  0  0  0  0  0  0  0
  192.0480  176.2790  147.5880 N   0  0  0  0  0  1  0  0  0  0  0  0
  189.8820  176.7580  142.3870 N   0  0  0  0  0  0  0  0  0  0  0  0
  187.7590  177.5620  143.2810 C   0  0  0  0  0  2  0  0  0  0  0  0
  188.2140  177.3750  140.8080 N   0  0  0  0  0  2  0  0  0  0  0  0
  190.2990  177.0880  146.0890 C   0  0  0  0  0  3  0  0  0  0  0  0
  190.4070  176.6110  143.7130 C   0  0  0  0  0  0  0  0  0  0  0  0
  191.6070  175.9200  143.9100 C   0  0  0  0  0  3  0  0  0  0  0  0
  187.0200  177.4630  135.7960 C   0  0  0  0  0  0  0  0  0  0  0  0
  187.5950  176.1750  137.7580 C   0  0  0  0  0  3  0  0  0  0  0  0
  189.0450  179.5780  138.0270 O   0  0  0  0  0  1  0  0  0  0  0  0
  186.4030  177.5600  134.5940 F   0  0  0  0  0  0  0  0  0  0  0  0
  186.9570  176.2730  136.5190 C   0  0  0  0  0  3  0  0  0  0  0  0
  188.3590  178.4660  137.5510 C   0  0  0  0  0  0  0  0  0  0  0  0
  188.3010  177.2630  138.2920 C   0  0  0  0  0  0  0  0  0  0  0  0
  187.7190  178.5560  136.3110 C   0  0  0  0  0  3  0  0  0  0  0  0
  187.5550  178.0760  145.7170 C   0  0  0  0  0  0  0  0  0  0  0  0
  187.2130  178.0920  148.1250 C   0  0  0  0  0  3  0  0  0  0  0  0
  188.0650  178.0010  147.0240 C   0  0  0  0  0  3  0  0  0  0  0  0
  185.8430  178.2690  147.9330 C   0  0  0  0  0  3  0  0  0  0  0  0
  185.3230  178.3480  146.6400 C   0  0  0  0  0  3  0  0  0  0  0  0
  186.1640  178.2330  145.5210 C   0  0  0  0  0  0  0  0  0  0  0  0
  184.9780  179.7540  143.9310 C   0  0  0  0  0  2  0  0  0  0  0  0
  184.0770  178.5800  144.2260 C   0  0  0  0  0  2  0  0  0  0  0  0
  185.5800  178.3730  144.1390 C   0  0  0  0  0  3  0  0  0  0  0  0
  1  8  1  0  0  0  0
  2  5  1  0  0  0  0
  2 23  1  1  0  0  0
  4  3  2  0  0  0  0
  4 11  1  0  0  0  0
  5 12  2  0  0  0  0
  6  1  2  0  0  0  0
  7  9  2  0  0  0  0
  7 10  1  0  0  0  0
  9 13  1  0  0  0  0
 10  2  1  0  0  0  0
 11  7  1  0  0  0  0
 12  1  1  0  0  0  0
 13 14  2  0  0  0  0
 13  5  1  0  0  0  0
 14  6  1  0  0  0  0
 15 22  2  0  0  0  0
 15 19  1  0  0  0  0
 16 21  1  0  0  0  0
 18 15  1  0  0  0  0
 19 16  2  0  0  0  0
 20 17  1  0  0  0  0
 20 21  2  0  0  0  0
 21  4  1  0  0  0  0
 22 20  1  0  0  0  0
 23 25  1  0  0  0  0
 25 24  2  0  0  0  0
 26 24  1  0  0  0  0
 27 26  2  0  0  0  0
 28 23  2  0  0  0  0
 28 27  1  0  0  0  0
 29 31  1  0  0  0  0
 29 30  1  0  0  0  0
 31 30  1  0  0  0  0
 31 28  1  0  0  0  0
M  END
>  <MODEL>
4

>  <REMARK>
 VINA RESULT:     -10.3      3.516      6.092
  Name = 
  3 active torsions:
  status: ('A' for Active; 'I' for Inactive)
    1  A    between atoms: C_4  and  C_5
    2  A    between atoms: C_9  and  C_22
    3  A    between atoms: C_30  and  C_31
                            x       y       z     vdW  Elec       q    Type
                         _______ _______ _______ _____ _____    ______ ____

>  <TORSDO>
F 3

$$$$
=
 OpenBabel10262419293D

 31 35  0  0  1  0  0  0  0  0999 V2000
  187.2920  178.3100  136.6490 C   0  0  0  0  0  0  0  0  0  0  0  0
  185.0220  178.0960  139.7200 C   0  0  1  0  0  3  0  0  0  0  0  0
  189.0530  177.6320  143.1200 O   0  0  0  0  0  0  0  0  0  0  0  0
  188.0080  177.8950  143.7730 C   0  0  0  0  0  0  0  0  0  0  0  0
  186.2400  178.2510  138.8380 C   0  0  0  0  0  0  0  0  0  0  0  0
  188.5520  178.3260  137.2510 C   0  0  0  0  0  3  0  0  0  0  0  0
  186.6170  178.2920  141.6650 C   0  0  0  0  0  0  0  0  0  0  0  0
  187.1800  178.3330  135.2300 N   0  0  0  0  0  1  0  0  0  0  0  0
  187.6370  178.1740  140.8640 N   0  0  0  0  0  0  0  0  0  0  0  0
  185.2590  178.6530  141.1290 C   0  0  0  0  0  2  0  0  0  0  0  0
  186.7880  178.2120  143.0850 N   0  0  0  0  0  2  0  0  0  0  0  0
  186.1400  178.2560  137.4380 C   0  0  0  0  0  3  0  0  0  0  0  0
  187.5130  178.2490  139.4370 C   0  0  0  0  0  0  0  0  0  0  0  0
  188.6630  178.2900  138.6440 C   0  0  0  0  0  3  0  0  0  0  0  0
  187.9610  177.8770  148.0670 C   0  0  0  0  0  0  0  0  0  0  0  0
  186.8640  178.2530  145.9470 C   0  0  0  0  0  3  0  0  0  0  0  0
  190.3470  177.1190  145.3690 O   0  0  0  0  0  1  0  0  0  0  0  0
  187.9310  177.8760  149.4220 F   0  0  0  0  0  0  0  0  0  0  0  0
  186.8300  178.2510  147.3440 C   0  0  0  0  0  3  0  0  0  0  0  0
  189.1680  177.4990  145.9980 C   0  0  0  0  0  0  0  0  0  0  0  0
  188.0260  177.8780  145.2550 C   0  0  0  0  0  0  0  0  0  0  0  0
  189.1260  177.5020  147.3950 C   0  0  0  0  0  3  0  0  0  0  0  0
  183.7700  178.6850  139.1240 C   0  0  0  0  0  0  0  0  0  0  0  0
  182.4710  180.6470  138.5120 C   0  0  0  0  0  3  0  0  0  0  0  0
  183.6050  180.0800  139.0940 C   0  0  0  0  0  3  0  0  0  0  0  0
  181.4940  179.8290  137.9460 C   0  0  0  0  0  3  0  0  0  0  0  0
  181.6460  178.4410  137.9680 C   0  0  0  0  0  3  0  0  0  0  0  0
  182.7700  177.8530  138.5700 C   0  0  0  0  0  0  0  0  0  0  0  0
  183.3760  175.8820  137.1570 C   0  0  0  0  0  2  0  0  0  0  0  0
  181.9290  175.7470  137.5640 C   0  0  0  0  0  2  0  0  0  0  0  0
  182.9300  176.3550  138.5320 C   0  0  0  0  0  3  0  0  0  0  0  0
  1  6  2  0  0  0  0
  1 12  1  0  0  0  0
  2 23  1  6  0  0  0
  2 10  1  0  0  0  0
  3  4  2  0  0  0  0
  4 21  1  0  0  0  0
  5 13  1  0  0  0  0
  5  2  1  0  0  0  0
  6 14  1  0  0  0  0
  7 11  1  0  0  0  0
  8  1  1  0  0  0  0
  9  7  2  0  0  0  0
 10  7  1  0  0  0  0
 11  4  1  0  0  0  0
 12  5  2  0  0  0  0
 13  9  1  0  0  0  0
 14 13  2  0  0  0  0
 15 18  1  0  0  0  0
 16 19  1  0  0  0  0
 17 20  1  0  0  0  0
 19 15  2  0  0  0  0
 20 22  2  0  0  0  0
 21 16  2  0  0  0  0
 21 20  1  0  0  0  0
 22 15  1  0  0  0  0
 24 25  2  0  0  0  0
 25 23  1  0  0  0  0
 26 27  2  0  0  0  0
 26 24  1  0  0  0  0
 27 28  1  0  0  0  0
 28 23  2  0  0  0  0
 29 30  1  0  0  0  0
 29 31  1  0  0  0  0
 30 31  1  0  0  0  0
 31 28  1  0  0  0  0
M  END
>  <MODEL>
5

>  <REMARK>
 VINA RESULT:     -10.3      3.812      8.096
  Name = 
  3 active torsions:
  status: ('A' for Active; 'I' for Inactive)
    1  A    between atoms: C_4  and  C_5
    2  A    between atoms: C_9  and  C_22
    3  A    between atoms: C_30  and  C_31
                            x       y       z     vdW  Elec       q    Type
                         _______ _______ _______ _____ _____    ______ ____

>  <TORSDO>
F 3

$$$$
=
 OpenBabel10262419293D

 31 35  0  0  1  0  0  0  0  0999 V2000
  187.1910  178.0050  147.2760 C   0  0  0  0  0  0  0  0  0  0  0  0
  187.5970  177.5360  143.5020 C   0  0  1  0  0  3  0  0  0  0  0  0
  182.5060  178.5470  142.4590 O   0  0  0  0  0  0  0  0  0  0  0  0
  183.1520  178.5930  141.3780 C   0  0  0  0  0  0  0  0  0  0  0  0
  187.0340  177.9120  144.8540 C   0  0  0  0  0  0  0  0  0  0  0  0
  185.8600  178.4260  147.3500 C   0  0  0  0  0  3  0  0  0  0  0  0
  185.4120  178.3660  142.5510 C   0  0  0  0  0  0  0  0  0  0  0  0
  187.9510  177.8400  148.4670 N   0  0  0  0  0  1  0  0  0  0  0  0
  184.8990  178.4360  143.7450 N   0  0  0  0  0  0  0  0  0  0  0  0
  186.9020  178.2890  142.3610 C   0  0  0  0  0  2  0  0  0  0  0  0
  184.5840  178.4930  141.3890 N   0  0  0  0  0  2  0  0  0  0  0  0
  187.7720  177.7340  146.0350 C   0  0  0  0  0  3  0  0  0  0  0  0
  185.6880  178.3170  144.9360 C   0  0  0  0  0  0  0  0  0  0  0  0
  185.1080  178.5750  146.1810 C   0  0  0  0  0  3  0  0  0  0  0  0
  181.0210  178.9690  137.6680 C   0  0  0  0  0  0  0  0  0  0  0  0
  181.2440  178.0410  139.8880 C   0  0  0  0  0  3  0  0  0  0  0  0
  184.1050  180.2920  139.1820 O   0  0  0  0  0  1  0  0  0  0  0  0
  180.3370  179.0780  136.5040 F   0  0  0  0  0  0  0  0  0  0  0  0
  180.5370  178.1520  138.6890 C   0  0  0  0  0  3  0  0  0  0  0  0
  182.9250  179.5710  139.0450 C   0  0  0  0  0  0  0  0  0  0  0  0
  182.4420  178.7450  140.0860 C   0  0  0  0  0  0  0  0  0  0  0  0
  182.2120  179.6770  137.8470 C   0  0  0  0  0  3  0  0  0  0  0  0
  189.0920  177.6980  143.4080 C   0  0  0  0  0  0  0  0  0  0  0  0
  191.2160  178.1540  144.5000 C   0  0  0  0  0  3  0  0  0  0  0  0
  189.8270  178.0360  144.5560 C   0  0  0  0  0  3  0  0  0  0  0  0
  191.8870  177.9260  143.2990 C   0  0  0  0  0  3  0  0  0  0  0  0
  191.1690  177.5870  142.1510 C   0  0  0  0  0  3  0  0  0  0  0  0
  189.7680  177.4880  142.1850 C   0  0  0  0  0  0  0  0  0  0  0  0
  189.9870  176.6390  139.8440 C   0  0  0  0  0  2  0  0  0  0  0  0
  189.3590  178.0100  139.7950 C   0  0  0  0  0  2  0  0  0  0  0  0
  189.0270  177.0700  140.9420 C   0  0  0  0  0  3  0  0  0  0  0  0
  1  6  1  0  0  0  0
  1  8  1  0  0  0  0
  2 23  1  1  0  0  0
  2  5  1  0  0  0  0
  4 11  1  0  0  0  0
  4  3  2  0  0  0  0
  5 13  2  0  0  0  0
  5 12  1  0  0  0  0
  7  9  2  0  0  0  0
  9 13  1  0  0  0  0
 10  7  1  0  0  0  0
 10  2  1  0  0  0  0
 11  7  1  0  0  0  0
 12  1  2  0  0  0  0
 13 14  1  0  0  0  0
 14  6  2  0  0  0  0
 15 22  2  0  0  0  0
 15 19  1  0  0  0  0
 16 21  1  0  0  0  0
 18 15  1  0  0  0  0
 19 16  2  0  0  0  0
 20 17  1  0  0  0  0
 20 21  2  0  0  0  0
 21  4  1  0  0  0  0
 22 20  1  0  0  0  0
 23 25  1  0  0  0  0
 24 25  2  0  0  0  0
 26 24  1  0  0  0  0
 27 28  1  0  0  0  0
 27 26  2  0  0  0  0
 28 23  2  0  0  0  0
 29 31  1  0  0  0  0
 30 29  1  0  0  0  0
 30 31  1  0  0  0  0
 31 28  1  0  0  0  0
M  END
>  <MODEL>
6

>  <REMARK>
 VINA RESULT:     -10.0      2.766      5.233
  Name = 
  3 active torsions:
  status: ('A' for Active; 'I' for Inactive)
    1  A    between atoms: C_4  and  C_5
    2  A    between atoms: C_9  and  C_22
    3  A    between atoms: C_30  and  C_31
                            x       y       z     vdW  Elec       q    Type
                         _______ _______ _______ _____ _____    ______ ____

>  <TORSDO>
F 3

$$$$
=
 OpenBabel10262419293D

 31 35  0  0  1  0  0  0  0  0999 V2000
  188.3800  177.6740  147.5650 C   0  0  0  0  0  0  0  0  0  0  0  0
  187.2270  178.3980  143.9900 C   0  0  1  0  0  3  0  0  0  0  0  0
  191.7610  176.7560  141.8060 O   0  0  0  0  0  0  0  0  0  0  0  0
  190.8940  176.8580  140.8970 C   0  0  0  0  0  0  0  0  0  0  0  0
  188.0130  177.8760  145.1720 C   0  0  0  0  0  0  0  0  0  0  0  0
  189.6180  177.0720  147.3280 C   0  0  0  0  0  3  0  0  0  0  0  0
  189.0050  177.3290  142.5530 C   0  0  0  0  0  0  0  0  0  0  0  0
  187.9310  177.8780  148.9000 N   0  0  0  0  0  1  0  0  0  0  0  0
  189.7520  177.1250  143.6000 N   0  0  0  0  0  0  0  0  0  0  0  0
  187.5370  177.6190  142.7050 C   0  0  0  0  0  2  0  0  0  0  0  0
  189.5290  177.1520  141.2320 N   0  0  0  0  0  2  0  0  0  0  0  0
  187.5860  178.0890  146.4920 C   0  0  0  0  0  3  0  0  0  0  0  0
  189.2700  177.2870  144.9400 C   0  0  0  0  0  0  0  0  0  0  0  0
  190.0650  176.8850  146.0170 C   0  0  0  0  0  3  0  0  0  0  0  0
  191.8940  176.3200  136.7550 C   0  0  0  0  0  0  0  0  0  0  0  0
  190.2710  176.3620  138.5460 C   0  0  0  0  0  3  0  0  0  0  0  0
  193.6400  177.1280  139.8940 O   0  0  0  0  0  1  0  0  0  0  0  0
  192.1930  176.1480  135.4450 F   0  0  0  0  0  0  0  0  0  0  0  0
  190.5780  176.1850  137.1940 C   0  0  0  0  0  3  0  0  0  0  0  0
  192.6050  176.8150  139.0200 C   0  0  0  0  0  0  0  0  0  0  0  0
  191.2730  176.6790  139.4750 C   0  0  0  0  0  0  0  0  0  0  0  0
  192.9040  176.6350  137.6670 C   0  0  0  0  0  3  0  0  0  0  0  0
  185.7410  178.4470  144.2320 C   0  0  0  0  0  0  0  0  0  0  0  0
  183.8840  178.7100  145.7800 C   0  0  0  0  0  3  0  0  0  0  0  0
  185.2550  178.6230  145.5380 C   0  0  0  0  0  3  0  0  0  0  0  0
  182.9830  178.6320  144.7180 C   0  0  0  0  0  3  0  0  0  0  0  0
  183.4520  178.4590  143.4150 C   0  0  0  0  0  3  0  0  0  0  0  0
  184.8280  178.3460  143.1570 C   0  0  0  0  0  0  0  0  0  0  0  0
  184.8320  179.3780  140.8800 C   0  0  0  0  0  2  0  0  0  0  0  0
  184.1190  178.0500  140.7990 C   0  0  0  0  0  2  0  0  0  0  0  0
  185.3050  178.2110  141.7350 C   0  0  0  0  0  3  0  0  0  0  0  0
  1  8  1  0  0  0  0
  2 23  1  1  0  0  0
  2  5  1  0  0  0  0
  4 11  1  0  0  0  0
  4  3  2  0  0  0  0
  5 12  1  0  0  0  0
  6  1  1  0  0  0  0
  7 10  1  0  0  0  0
  7  9  2  0  0  0  0
  9 13  1  0  0  0  0
 10  2  1  0  0  0  0
 11  7  1  0  0  0  0
 12  1  2  0  0  0  0
 13  5  2  0  0  0  0
 13 14  1  0  0  0  0
 14  6  2  0  0  0  0
 15 19  2  0  0  0  0
 15 22  1  0  0  0  0
 16 21  2  0  0  0  0
 18 15  1  0  0  0  0
 19 16  1  0  0  0  0
 20 21  1  0  0  0  0
 20 17  1  0  0  0  0
 21  4  1  0  0  0  0
 22 20  2  0  0  0  0
 23 25  1  0  0  0  0
 25 24  2  0  0  0  0
 26 24  1  0  0  0  0
 27 26  2  0  0  0  0
 28 27  1  0  0  0  0
 28 23  2  0  0  0  0
 29 31  1  0  0  0  0
 30 29  1  0  0  0  0
 30 31  1  0  0  0  0
 31 28  1  0  0  0  0
M  END
>  <MODEL>
7

>  <REMARK>
 VINA RESULT:      -9.8      4.020      8.200
  Name = 
  3 active torsions:
  status: ('A' for Active; 'I' for Inactive)
    1  A    between atoms: C_4  and  C_5
    2  A    between atoms: C_9  and  C_22
    3  A    between atoms: C_30  and  C_31
                            x       y       z     vdW  Elec       q    Type
                         _______ _______ _______ _____ _____    ______ ____

>  <TORSDO>
F 3

$$$$
=
 OpenBabel10262419293D

 31 35  0  0  1  0  0  0  0  0999 V2000
  186.8890  178.1630  136.7130 C   0  0  0  0  0  0  0  0  0  0  0  0
  184.7690  178.0500  139.8950 C   0  0  1  0  0  3  0  0  0  0  0  0
  188.9550  177.6050  143.1050 O   0  0  0  0  0  0  0  0  0  0  0  0
  187.9470  177.8980  143.8020 C   0  0  0  0  0  0  0  0  0  0  0  0
  185.9450  178.1680  138.9510 C   0  0  0  0  0  0  0  0  0  0  0  0
  188.1770  178.1760  137.2530 C   0  0  0  0  0  3  0  0  0  0  0  0
  186.4600  178.2660  141.7560 C   0  0  0  0  0  0  0  0  0  0  0  0
  186.7080  178.1570  135.3020 N   0  0  0  0  0  1  0  0  0  0  0  0
  187.4370  178.1160  140.9090 N   0  0  0  0  0  0  0  0  0  0  0  0
  185.0820  178.6340  141.2780 C   0  0  0  0  0  2  0  0  0  0  0  0
  186.6990  178.2160  143.1670 N   0  0  0  0  0  2  0  0  0  0  0  0
  185.7760  178.1440  137.5580 C   0  0  0  0  0  3  0  0  0  0  0  0
  187.2450  178.1620  139.4890 C   0  0  0  0  0  0  0  0  0  0  0  0
  188.3550  178.1690  138.6390 C   0  0  0  0  0  3  0  0  0  0  0  0
  188.3060  177.9130  148.0820 C   0  0  0  0  0  0  0  0  0  0  0  0
  189.2610  177.5880  145.8860 C   0  0  0  0  0  3  0  0  0  0  0  0
  185.6980  178.5690  145.5670 O   0  0  0  0  0  1  0  0  0  0  0  0
  188.4350  177.9140  149.4300 F   0  0  0  0  0  0  0  0  0  0  0  0
  189.3960  177.5890  147.2760 C   0  0  0  0  0  3  0  0  0  0  0  0
  186.9360  178.2400  146.1070 C   0  0  0  0  0  0  0  0  0  0  0  0
  188.0360  177.9130  145.2820 C   0  0  0  0  0  0  0  0  0  0  0  0
  187.0790  178.2380  147.4980 C   0  0  0  0  0  3  0  0  0  0  0  0
  183.4970  178.6420  139.3470 C   0  0  0  0  0  0  0  0  0  0  0  0
  182.2850  180.5770  138.5110 C   0  0  0  0  0  3  0  0  0  0  0  0
  183.4400  180.0150  139.0550 C   0  0  0  0  0  3  0  0  0  0  0  0
  181.1770  179.7730  138.2450 C   0  0  0  0  0  3  0  0  0  0  0  0
  181.2210  178.4070  138.5290 C   0  0  0  0  0  3  0  0  0  0  0  0
  182.3670  177.8290  139.0980 C   0  0  0  0  0  0  0  0  0  0  0  0
  181.9850  175.5670  138.1060 C   0  0  0  0  0  2  0  0  0  0  0  0
  181.0010  175.7630  139.2340 C   0  0  0  0  0  2  0  0  0  0  0  0
  182.4010  176.3440  139.3460 C   0  0  0  0  0  3  0  0  0  0  0  0
  1  6  2  0  0  0  0
  1 12  1  0  0  0  0
  2 23  1  6  0  0  0
  2 10  1  0  0  0  0
  3  4  2  0  0  0  0
  4 21  1  0  0  0  0
  5 13  1  0  0  0  0
  5  2  1  0  0  0  0
  6 14  1  0  0  0  0
  7 11  1  0  0  0  0
  8  1  1  0  0  0  0
  9  7  2  0  0  0  0
 10  7  1  0  0  0  0
 11  4  1  0  0  0  0
 12  5  2  0  0  0  0
 13  9  1  0  0  0  0
 14 13  2  0  0  0  0
 15 18  1  0  0  0  0
 16 19  1  0  0  0  0
 17 20  1  0  0  0  0
 19 15  2  0  0  0  0
 20 22  2  0  0  0  0
 21 16  2  0  0  0  0
 21 20  1  0  0  0  0
 22 15  1  0  0  0  0
 24 25  1  0  0  0  0
 25 23  2  0  0  0  0
 26 24  2  0  0  0  0
 26 27  1  0  0  0  0
 27 28  2  0  0  0  0
 28 31  1  0  0  0  0
 28 23  1  0  0  0  0
 29 30  1  0  0  0  0
 29 31  1  0  0  0  0
 30 31  1  0  0  0  0
M  END
>  <MODEL>
8

>  <REMARK>
 VINA RESULT:      -9.7      3.532      8.045
  Name = 
  3 active torsions:
  status: ('A' for Active; 'I' for Inactive)
    1  A    between atoms: C_4  and  C_5
    2  A    between atoms: C_9  and  C_22
    3  A    between atoms: C_30  and  C_31
                            x       y       z     vdW  Elec       q    Type
                         _______ _______ _______ _____ _____    ______ ____

>  <TORSDO>
F 3

$$$$
=
 OpenBabel10262419293D

 31 35  0  0  1  0  0  0  0  0999 V2000
  184.2740  178.8640  144.6830 C   0  0  0  0  0  0  0  0  0  0  0  0
  187.6120  177.2160  143.8040 C   0  0  1  0  0  3  0  0  0  0  0  0
  186.9430  177.7990  138.5850 O   0  0  0  0  0  0  0  0  0  0  0  0
  188.1480  177.5020  138.8020 C   0  0  0  0  0  0  0  0  0  0  0  0
  186.3230  178.0000  143.7040 C   0  0  0  0  0  0  0  0  0  0  0  0
  183.8400  179.2750  143.4200 C   0  0  0  0  0  3  0  0  0  0  0  0
  187.8850  177.6810  141.3380 C   0  0  0  0  0  0  0  0  0  0  0  0
  183.4580  179.0940  145.8250 N   0  0  0  0  0  1  0  0  0  0  0  0
  186.6630  178.1250  141.2690 N   0  0  0  0  0  0  0  0  0  0  0  0
  188.5820  177.5590  142.6660 C   0  0  0  0  0  2  0  0  0  0  0  0
  188.6400  177.4230  140.1490 N   0  0  0  0  0  2  0  0  0  0  0  0
  185.5040  178.2150  144.8240 C   0  0  0  0  0  3  0  0  0  0  0  0
  185.8710  178.3990  142.4320 C   0  0  0  0  0  0  0  0  0  0  0  0
  184.6350  179.0370  142.2950 C   0  0  0  0  0  3  0  0  0  0  0  0
  190.8780  176.6590  135.5950 C   0  0  0  0  0  0  0  0  0  0  0  0
  190.2480  176.5100  137.9240 C   0  0  0  0  0  3  0  0  0  0  0  0
  187.6530  178.3770  136.0440 O   0  0  0  0  0  1  0  0  0  0  0  0
  191.7480  176.3850  134.5940 F   0  0  0  0  0  0  0  0  0  0  0  0
  191.1470  176.2260  136.8920 C   0  0  0  0  0  3  0  0  0  0  0  0
  188.8040  177.6620  136.3530 C   0  0  0  0  0  0  0  0  0  0  0  0
  189.0680  177.2280  137.6730 C   0  0  0  0  0  0  0  0  0  0  0  0
  189.7090  177.3750  135.3270 C   0  0  0  0  0  3  0  0  0  0  0  0
  188.2960  177.3520  145.1390 C   0  0  0  0  0  0  0  0  0  0  0  0
  188.1600  177.8540  147.5140 C   0  0  0  0  0  3  0  0  0  0  0  0
  187.5550  177.7590  146.2610 C   0  0  0  0  0  3  0  0  0  0  0  0
  189.5090  177.5360  147.6640 C   0  0  0  0  0  3  0  0  0  0  0  0
  190.2570  177.1290  146.5570 C   0  0  0  0  0  3  0  0  0  0  0  0
  189.6700  177.0500  145.2840 C   0  0  0  0  0  0  0  0  0  0  0  0
  191.8250  175.9950  144.5840 C   0  0  0  0  0  2  0  0  0  0  0  0
  191.7610  177.3830  143.9920 C   0  0  0  0  0  2  0  0  0  0  0  0
  190.4900  176.5590  144.1200 C   0  0  0  0  0  3  0  0  0  0  0  0
  1 12  1  0  0  0  0
  1  8  1  0  0  0  0
  2 23  1  1  0  0  0
  3  4  2  0  0  0  0
  4 11  1  0  0  0  0
  5  2  1  0  0  0  0
  5 12  2  0  0  0  0
  6  1  2  0  0  0  0
  7 10  1  0  0  0  0
  9  7  2  0  0  0  0
  9 13  1  0  0  0  0
 10  2  1  0  0  0  0
 11  7  1  0  0  0  0
 13  5  1  0  0  0  0
 14 13  2  0  0  0  0
 14  6  1  0  0  0  0
 15 19  1  0  0  0  0
 17 20  1  0  0  0  0
 18 15  1  0  0  0  0
 19 16  2  0  0  0  0
 20 21  2  0  0  0  0
 21 16  1  0  0  0  0
 21  4  1  0  0  0  0
 22 15  2  0  0  0  0
 22 20  1  0  0  0  0
 23 28  2  0  0  0  0
 23 25  1  0  0  0  0
 24 26  1  0  0  0  0
 25 24  2  0  0  0  0
 27 26  2  0  0  0  0
 28 27  1  0  0  0  0
 30 31  1  0  0  0  0
 30 29  1  0  0  0  0
 31 29  1  0  0  0  0
 31 28  1  0  0  0  0
M  END
>  <MODEL>
9

>  <REMARK>
 VINA RESULT:      -9.7      3.646      7.133
  Name = 
  3 active torsions:
  status: ('A' for Active; 'I' for Inactive)
    1  A    between atoms: C_4  and  C_5
    2  A    between atoms: C_9  and  C_22
    3  A    between atoms: C_30  and  C_31
                            x       y       z     vdW  Elec       q    Type
                         _______ _______ _______ _____ _____    ______ ____

>  <TORSDO>
F 3

$$$$
