=
 OpenBabel10262422403D

 43 47  0  0  1  0  0  0  0  0999 V2000
  183.8850  178.4740  141.4510 N   0  0  0  0  0  2  0  0  0  0  0  0
  188.1590  178.2150  147.7630 C   0  0  2  0  0  3  0  0  0  0  0  0
  185.6380  178.6420  143.2930 C   0  0  2  0  0  3  0  0  0  0  0  0
  187.9620  178.0680  142.6040 C   0  0  0  0  0  3  0  0  0  0  0  0
  186.2450  177.9380  146.0760 C   0  0  1  0  0  3  0  0  0  0  0  0
  188.7760  177.0960  146.9310 C   0  0  0  0  0  2  0  0  0  0  0  0
  188.3760  177.9710  149.1180 O   0  0  0  0  0  1  0  0  0  0  0  0
  187.3790  178.1940  145.0640 C   0  0  1  0  0  3  0  0  0  0  0  0
  186.6540  178.3460  147.4990 C   0  0  0  0  0  2  0  0  0  0  0  0
  188.6330  177.3780  145.4300 C   0  0  0  0  0  2  0  0  0  0  0  0
  187.6000  178.1830  141.3190 C   0  0  0  0  0  0  0  0  0  0  0  0
  186.9050  177.8520  143.6480 C   0  0  1  0  0  3  0  0  0  0  0  0
  184.5270  178.2840  144.2740 C   0  0  0  0  0  2  0  0  0  0  0  0
  185.2610  178.3850  141.8530 C   0  0  0  0  0  0  0  0  0  0  0  0
  186.2060  178.2270  140.9670 N   0  0  0  0  0  0  0  0  0  0  0  0
  184.9600  178.6680  145.6870 C   0  0  0  0  0  2  0  0  0  0  0  0
  182.5950  178.9430  137.9540 C   0  0  0  0  0  3  0  0  0  0  0  0
  182.2970  177.6230  137.6040 C   0  0  0  0  0  0  0  0  0  0  0  0
  183.0460  176.8920  139.7970 C   0  0  0  0  0  3  0  0  0  0  0  0
  183.1150  179.2380  139.2170 C   0  0  0  0  0  3  0  0  0  0  0  0
  183.3410  178.2130  140.1500 C   0  0  0  0  0  0  0  0  0  0  0  0
  182.5260  176.5960  138.5350 C   0  0  0  0  0  3  0  0  0  0  0  0
  182.4130  177.7930  135.1390 C   0  0  0  0  0  1  0  0  0  0  0  0
  181.7770  177.3580  136.3340 O   0  0  0  0  0  0  0  0  0  0  0  0
  188.6310  178.2550  140.2340 C   0  0  1  0  0  3  0  0  0  0  0  0
  189.9020  177.5410  140.6570 C   0  0  0  0  0  1  0  0  0  0  0  0
  188.1180  177.6620  139.0060 N   0  0  0  0  0  2  0  0  0  0  0  0
  188.1700  178.3430  137.7500 C   0  0  0  0  0  0  0  0  0  0  0  0
  188.8940  179.3630  137.6040 O   0  0  0  0  0  0  0  0  0  0  0  0
  187.3200  177.8740  136.6200 C   0  0  0  0  0  2  0  0  0  0  0  0
  187.7970  176.5790  136.1350 N   0  0  0  0  0  0  0  0  0  0  0  0
  189.4260  175.3210  134.5940 C   0  0  0  0  0  1  0  0  0  0  0  0
  188.9400  176.5690  135.2510 C   0  0  0  0  0  0  0  0  0  0  0  0
  187.1500  175.3720  136.6040 C   0  0  0  0  0  0  0  0  0  0  0  0
  187.6580  174.2400  136.3900 O   0  0  0  0  0  0  0  0  0  0  0  0
  189.5480  177.6430  134.9960 O   0  0  0  0  0  0  0  0  0  0  0  0
  185.8550  175.4330  137.3530 C   0  0  0  0  0  2  0  0  0  0  0  0
  184.9190  174.3770  136.8730 C   0  0  0  0  0  0  0  0  0  0  0  0
  183.3530  173.5490  135.2190 C   0  0  0  0  0  3  0  0  0  0  0  0
  183.8240  172.2390  137.2010 C   0  0  0  0  0  3  0  0  0  0  0  0
  183.1480  172.3990  135.9880 C   0  0  0  0  0  3  0  0  0  0  0  0
  184.7080  173.2280  137.6450 C   0  0  0  0  0  3  0  0  0  0  0  0
  184.2380  174.5380  135.6610 C   0  0  0  0  0  3  0  0  0  0  0  0
  1 14  1  0  0  0  0
  2  7  1  1  0  0  0
  3 12  1  0  0  0  0
  3 13  1  1  0  0  0
  5 16  1  6  0  0  0
  5  9  1  0  0  0  0
  6  2  1  0  0  0  0
  8 10  1  1  0  0  0
  8  5  1  0  0  0  0
  9  2  1  0  0  0  0
 10  6  1  0  0  0  0
 11  4  2  0  0  0  0
 12  4  1  6  0  0  0
 12  8  1  0  0  0  0
 13 16  1  0  0  0  0
 14  3  1  0  0  0  0
 15 11  1  0  0  0  0
 15 14  2  0  0  0  0
 17 20  1  0  0  0  0
 18 17  2  0  0  0  0
 18 22  1  0  0  0  0
 19 21  1  0  0  0  0
 20 21  2  0  0  0  0
 21  1  1  0  0  0  0
 22 19  2  0  0  0  0
 23 24  1  0  0  0  0
 24 18  1  0  0  0  0
 25 26  1  1  0  0  0
 25 11  1  0  0  0  0
 27 25  1  0  0  0  0
 28 27  1  0  0  0  0
 29 28  2  0  0  0  0
 30 28  1  0  0  0  0
 31 34  1  0  0  0  0
 31 30  1  0  0  0  0
 32 33  1  0  0  0  0
 33 31  1  0  0  0  0
 34 37  1  0  0  0  0
 35 34  2  0  0  0  0
 36 33  2  0  0  0  0
 38 37  1  0  0  0  0
 38 42  1  0  0  0  0
 39 43  1  0  0  0  0
 39 41  2  0  0  0  0
 40 42  2  0  0  0  0
 41 40  1  0  0  0  0
 43 38  2  0  0  0  0
M  END
>  <MODEL>
1

>  <REMARK>
 VINA RESULT:      -9.1      0.000      0.000
  Name = 
  8 active torsions:
  status: ('A' for Active; 'I' for Inactive)
    1  A    between atoms: N_1  and  C_35
    2  A    between atoms: C_2  and  N_6
    3  A    between atoms: C_2  and  C_27
    4  A    between atoms: C_3  and  N_4
    5  A    between atoms: C_3  and  C_12
    6  A    between atoms: C_11  and  C_14
    7  A    between atoms: C_14  and  C_22
    8  A    between atoms: C_19  and  O_37
                            x       y       z     vdW  Elec       q    Type
                         _______ _______ _______ _____ _____    ______ ____

>  <TORSDO>
F 8

$$$$
=
 OpenBabel10262422403D

 43 47  0  0  1  0  0  0  0  0999 V2000
  183.7550  178.6200  141.5900 N   0  0  0  0  0  2  0  0  0  0  0  0
  188.2700  178.1410  147.7190 C   0  0  2  0  0  3  0  0  0  0  0  0
  185.5810  178.7180  143.3650 C   0  0  2  0  0  3  0  0  0  0  0  0
  187.8690  178.1360  142.5700 C   0  0  0  0  0  3  0  0  0  0  0  0
  186.2880  177.9320  146.1020 C   0  0  1  0  0  3  0  0  0  0  0  0
  188.8400  177.0380  146.8340 C   0  0  0  0  0  2  0  0  0  0  0  0
  188.5370  177.8580  149.0570 O   0  0  0  0  0  1  0  0  0  0  0  0
  187.3850  178.2020  145.0530 C   0  0  1  0  0  3  0  0  0  0  0  0
  186.7580  178.2960  147.5170 C   0  0  0  0  0  2  0  0  0  0  0  0
  188.6420  177.3620  145.3470 C   0  0  0  0  0  2  0  0  0  0  0  0
  187.4580  178.2910  141.3030 C   0  0  0  0  0  0  0  0  0  0  0  0
  186.8510  177.9050  143.6480 C   0  0  1  0  0  3  0  0  0  0  0  0
  184.5050  178.3460  144.3790 C   0  0  0  0  0  2  0  0  0  0  0  0
  185.1450  178.5040  141.9340 C   0  0  0  0  0  0  0  0  0  0  0  0
  186.0520  178.3600  141.0080 N   0  0  0  0  0  0  0  0  0  0  0  0
  184.9980  178.6860  145.7830 C   0  0  0  0  0  2  0  0  0  0  0  0
  182.0260  176.9890  138.6800 C   0  0  0  0  0  3  0  0  0  0  0  0
  181.9760  178.0520  137.7740 C   0  0  0  0  0  0  0  0  0  0  0  0
  183.1040  179.4650  139.3980 C   0  0  0  0  0  3  0  0  0  0  0  0
  182.6100  177.1610  139.9390 C   0  0  0  0  0  3  0  0  0  0  0  0
  183.1570  178.4010  140.3040 C   0  0  0  0  0  0  0  0  0  0  0  0
  182.5190  179.2950  138.1410 C   0  0  0  0  0  3  0  0  0  0  0  0
  182.1260  177.4350  135.3830 C   0  0  0  0  0  1  0  0  0  0  0  0
  181.3860  177.8500  136.5240 O   0  0  0  0  0  0  0  0  0  0  0  0
  188.4460  178.3800  140.1800 C   0  0  1  0  0  3  0  0  0  0  0  0
  189.7250  177.6430  140.5350 C   0  0  0  0  0  1  0  0  0  0  0  0
  187.8790  177.8250  138.9590 N   0  0  0  0  0  2  0  0  0  0  0  0
  188.0580  178.4450  137.6840 C   0  0  0  0  0  0  0  0  0  0  0  0
  188.9260  179.3430  137.5240 O   0  0  0  0  0  0  0  0  0  0  0  0
  187.1730  178.0640  136.5470 C   0  0  0  0  0  2  0  0  0  0  0  0
  187.1810  176.6120  136.3670 N   0  0  0  0  0  0  0  0  0  0  0  0
  186.0450  174.3680  136.8980 C   0  0  0  0  0  1  0  0  0  0  0  0
  186.0730  175.8590  136.9070 C   0  0  0  0  0  0  0  0  0  0  0  0
  188.2560  176.0050  135.6110 C   0  0  0  0  0  0  0  0  0  0  0  0
  188.1920  174.8010  135.2470 O   0  0  0  0  0  0  0  0  0  0  0  0
  185.0960  176.4630  137.4280 O   0  0  0  0  0  0  0  0  0  0  0  0
  189.4790  176.7880  135.2450 C   0  0  0  0  0  2  0  0  0  0  0  0
  190.6840  176.2300  135.9210 C   0  0  0  0  0  0  0  0  0  0  0  0
  192.9260  175.3170  135.8070 C   0  0  0  0  0  3  0  0  0  0  0  0
  191.8190  175.5410  137.9500 C   0  0  0  0  0  3  0  0  0  0  0  0
  192.9350  175.1650  137.1970 C   0  0  0  0  0  3  0  0  0  0  0  0
  190.6930  176.0720  137.3120 C   0  0  0  0  0  3  0  0  0  0  0  0
  191.8010  175.8490  135.1690 C   0  0  0  0  0  3  0  0  0  0  0  0
  1 14  1  0  0  0  0
  2  7  1  1  0  0  0
  3 12  1  0  0  0  0
  3 13  1  1  0  0  0
  5 16  1  6  0  0  0
  5  9  1  0  0  0  0
  6  2  1  0  0  0  0
  8 10  1  1  0  0  0
  8  5  1  0  0  0  0
  9  2  1  0  0  0  0
 10  6  1  0  0  0  0
 11  4  2  0  0  0  0
 12  4  1  6  0  0  0
 12  8  1  0  0  0  0
 13 16  1  0  0  0  0
 14  3  1  0  0  0  0
 15 11  1  0  0  0  0
 15 14  2  0  0  0  0
 17 20  1  0  0  0  0
 18 22  1  0  0  0  0
 18 17  2  0  0  0  0
 19 21  1  0  0  0  0
 20 21  2  0  0  0  0
 21  1  1  0  0  0  0
 22 19  2  0  0  0  0
 23 24  1  0  0  0  0
 24 18  1  0  0  0  0
 25 26  1  1  0  0  0
 25 11  1  0  0  0  0
 27 25  1  0  0  0  0
 28 27  1  0  0  0  0
 29 28  2  0  0  0  0
 30 28  1  0  0  0  0
 31 30  1  0  0  0  0
 31 33  1  0  0  0  0
 32 33  1  0  0  0  0
 33 36  2  0  0  0  0
 34 31  1  0  0  0  0
 35 34  2  0  0  0  0
 37 34  1  0  0  0  0
 37 38  1  0  0  0  0
 38 42  1  0  0  0  0
 39 41  2  0  0  0  0
 41 40  1  0  0  0  0
 42 40  2  0  0  0  0
 43 39  1  0  0  0  0
 43 38  2  0  0  0  0
M  END
>  <MODEL>
2

>  <REMARK>
 VINA RESULT:      -9.1      1.413      3.486
  Name = 
  8 active torsions:
  status: ('A' for Active; 'I' for Inactive)
    1  A    between atoms: N_1  and  C_35
    2  A    between atoms: C_2  and  N_6
    3  A    between atoms: C_2  and  C_27
    4  A    between atoms: C_3  and  N_4
    5  A    between atoms: C_3  and  C_12
    6  A    between atoms: C_11  and  C_14
    7  A    between atoms: C_14  and  C_22
    8  A    between atoms: C_19  and  O_37
                            x       y       z     vdW  Elec       q    Type
                         _______ _______ _______ _____ _____    ______ ____

>  <TORSDO>
F 8

$$$$
=
 OpenBabel10262422403D

 43 47  0  0  1  0  0  0  0  0999 V2000
  185.6490  177.7790  144.3700 N   0  0  0  0  0  2  0  0  0  0  0  0
  180.8840  179.6760  138.7240 C   0  0  2  0  0  3  0  0  0  0  0  0
  184.3610  178.1470  142.2020 C   0  0  2  0  0  3  0  0  0  0  0  0
  185.7450  178.8150  140.2420 C   0  0  0  0  0  3  0  0  0  0  0  0
  181.9990  179.4280  141.0220 C   0  0  1  0  0  3  0  0  0  0  0  0
  182.0180  180.6730  138.5140 C   0  0  0  0  0  2  0  0  0  0  0  0
  179.6980  180.1950  138.2110 O   0  0  0  0  0  1  0  0  0  0  0  0
  183.2320  179.1010  140.1570 C   0  0  1  0  0  3  0  0  0  0  0  0
  180.6990  179.3430  140.2100 C   0  0  0  0  0  2  0  0  0  0  0  0
  183.3580  180.0970  138.9880 C   0  0  0  0  0  2  0  0  0  0  0  0
  186.8460  178.4200  140.8970 C   0  0  0  0  0  0  0  0  0  0  0  0
  184.4970  179.1160  141.0200 C   0  0  1  0  0  3  0  0  0  0  0  0
  183.1800  178.5690  143.0690 C   0  0  0  0  0  2  0  0  0  0  0  0
  185.6630  178.0850  142.9670 C   0  0  0  0  0  0  0  0  0  0  0  0
  186.7890  178.1660  142.3120 N   0  0  0  0  0  0  0  0  0  0  0  0
  181.8990  178.5090  142.2400 C   0  0  0  0  0  2  0  0  0  0  0  0
  187.7910  178.0310  147.4470 C   0  0  0  0  0  3  0  0  0  0  0  0
  189.0180  177.5800  146.9510 C   0  0  0  0  0  0  0  0  0  0  0  0
  188.0020  177.2760  144.7650 C   0  0  0  0  0  3  0  0  0  0  0  0
  186.6750  178.1030  146.6080 C   0  0  0  0  0  3  0  0  0  0  0  0
  186.7750  177.7300  145.2590 C   0  0  0  0  0  0  0  0  0  0  0  0
  189.1180  177.2020  145.6020 C   0  0  0  0  0  3  0  0  0  0  0  0
  191.2730  176.7420  147.5280 C   0  0  0  0  0  1  0  0  0  0  0  0
  190.1170  177.5180  147.8120 O   0  0  0  0  0  0  0  0  0  0  0  0
  188.1490  178.2490  140.1770 C   0  0  1  0  0  3  0  0  0  0  0  0
  189.0730  177.3290  140.9540 C   0  0  0  0  0  1  0  0  0  0  0  0
  187.9240  177.7090  138.8430 N   0  0  0  0  0  2  0  0  0  0  0  0
  188.2440  178.4430  137.6590 C   0  0  0  0  0  0  0  0  0  0  0  0
  188.9740  179.4680  137.7180 O   0  0  0  0  0  0  0  0  0  0  0  0
  187.6680  178.0230  136.3500 C   0  0  0  0  0  2  0  0  0  0  0  0
  187.2530  176.6210  136.4100 N   0  0  0  0  0  0  0  0  0  0  0  0
  187.9050  174.1620  136.0330 C   0  0  0  0  0  1  0  0  0  0  0  0
  188.2480  175.6110  136.1310 C   0  0  0  0  0  0  0  0  0  0  0  0
  185.8960  176.3060  136.8030 C   0  0  0  0  0  0  0  0  0  0  0  0
  185.5580  175.1250  137.0780 O   0  0  0  0  0  0  0  0  0  0  0  0
  189.4480  175.9450  135.9380 O   0  0  0  0  0  0  0  0  0  0  0  0
  184.8510  177.3750  136.8870 C   0  0  0  0  0  2  0  0  0  0  0  0
  183.5660  176.8180  137.3970 C   0  0  0  0  0  0  0  0  0  0  0  0
  181.2160  176.3190  137.0790 C   0  0  0  0  0  3  0  0  0  0  0  0
  182.2950  175.7720  139.1770 C   0  0  0  0  0  3  0  0  0  0  0  0
  181.1540  175.7860  138.3700 C   0  0  0  0  0  3  0  0  0  0  0  0
  183.5010  176.2890  138.6920 C   0  0  0  0  0  3  0  0  0  0  0  0
  182.4220  176.8350  136.5920 C   0  0  0  0  0  3  0  0  0  0  0  0
  1 21  1  0  0  0  0
  2  7  1  1  0  0  0
  2  9  1  0  0  0  0
  3 14  1  0  0  0  0
  3 13  1  1  0  0  0
  4 11  2  0  0  0  0
  5  9  1  6  0  0  0
  5 16  1  0  0  0  0
  6  2  1  0  0  0  0
  6 10  1  0  0  0  0
  8 10  1  6  0  0  0
  8 12  1  0  0  0  0
  8  5  1  0  0  0  0
 11 15  1  0  0  0  0
 12  4  1  6  0  0  0
 12  3  1  0  0  0  0
 14  1  1  0  0  0  0
 15 14  2  0  0  0  0
 16 13  1  0  0  0  0
 18 17  1  0  0  0  0
 18 24  1  0  0  0  0
 19 21  2  0  0  0  0
 19 22  1  0  0  0  0
 20 17  2  0  0  0  0
 21 20  1  0  0  0  0
 22 18  2  0  0  0  0
 23 24  1  0  0  0  0
 25 11  1  0  0  0  0
 25 26  1  1  0  0  0
 27 25  1  0  0  0  0
 28 29  2  0  0  0  0
 28 27  1  0  0  0  0
 30 31  1  0  0  0  0
 30 28  1  0  0  0  0
 31 34  1  0  0  0  0
 32 33  1  0  0  0  0
 33 31  1  0  0  0  0
 34 37  1  0  0  0  0
 34 35  2  0  0  0  0
 36 33  2  0  0  0  0
 37 38  1  0  0  0  0
 38 42  1  0  0  0  0
 39 41  2  0  0  0  0
 41 40  1  0  0  0  0
 42 40  2  0  0  0  0
 43 39  1  0  0  0  0
 43 38  2  0  0  0  0
M  END
>  <MODEL>
3

>  <REMARK>
 VINA RESULT:      -9.0      1.921      6.533
  Name = 
  8 active torsions:
  status: ('A' for Active; 'I' for Inactive)
    1  A    between atoms: N_1  and  C_35
    2  A    between atoms: C_2  and  N_6
    3  A    between atoms: C_2  and  C_27
    4  A    between atoms: C_3  and  N_4
    5  A    between atoms: C_3  and  C_12
    6  A    between atoms: C_11  and  C_14
    7  A    between atoms: C_14  and  C_22
    8  A    between atoms: C_19  and  O_37
                            x       y       z     vdW  Elec       q    Type
                         _______ _______ _______ _____ _____    ______ ____

>  <TORSDO>
F 8

$$$$
=
 OpenBabel10262422403D

 43 47  0  0  1  0  0  0  0  0999 V2000
  185.4480  178.5830  142.3220 N   0  0  0  0  0  2  0  0  0  0  0  0
  191.5060  176.8210  146.6100 C   0  0  2  0  0  3  0  0  0  0  0  0
  187.7210  178.2720  143.4340 C   0  0  2  0  0  3  0  0  0  0  0  0
  189.5860  177.6800  141.8920 C   0  0  0  0  0  3  0  0  0  0  0  0
  189.1210  177.0070  145.6800 C   0  0  1  0  0  3  0  0  0  0  0  0
  191.6570  175.8420  145.4510 C   0  0  0  0  0  2  0  0  0  0  0  0
  192.1270  176.3070  147.7460 O   0  0  0  0  0  1  0  0  0  0  0  0
  189.8770  177.3730  144.3880 C   0  0  1  0  0  3  0  0  0  0  0  0
  190.0290  177.1050  146.9140 C   0  0  0  0  0  2  0  0  0  0  0  0
  191.0620  176.4160  144.1590 C   0  0  0  0  0  2  0  0  0  0  0  0
  188.8350  178.0650  140.8510 C   0  0  0  0  0  0  0  0  0  0  0  0
  188.9180  177.3430  143.1940 C   0  0  1  0  0  3  0  0  0  0  0  0
  186.9620  177.8110  144.6730 C   0  0  0  0  0  2  0  0  0  0  0  0
  186.8550  178.3230  142.1960 C   0  0  0  0  0  0  0  0  0  0  0  0
  187.4220  178.2730  141.0220 N   0  0  0  0  0  0  0  0  0  0  0  0
  187.8870  177.8850  145.8860 C   0  0  0  0  0  2  0  0  0  0  0  0
  183.6990  179.3590  139.0890 C   0  0  0  0  0  3  0  0  0  0  0  0
  182.5280  178.6090  139.2370 C   0  0  0  0  0  0  0  0  0  0  0  0
  183.3030  177.8630  141.4160 C   0  0  0  0  0  3  0  0  0  0  0  0
  184.6670  179.3610  140.0970 C   0  0  0  0  0  3  0  0  0  0  0  0
  184.4730  178.6150  141.2700 C   0  0  0  0  0  0  0  0  0  0  0  0
  182.3350  177.8590  140.4090 C   0  0  0  0  0  3  0  0  0  0  0  0
  180.4530  177.7570  138.1950 C   0  0  0  0  0  1  0  0  0  0  0  0
  181.5780  178.6260  138.2120 O   0  0  0  0  0  0  0  0  0  0  0  0
  189.4460  178.2720  139.4980 C   0  0  1  0  0  3  0  0  0  0  0  0
  190.7720  177.5390  139.3930 C   0  0  0  0  0  1  0  0  0  0  0  0
  188.5420  177.8060  138.4560 N   0  0  0  0  0  2  0  0  0  0  0  0
  188.2810  178.5690  137.2750 C   0  0  0  0  0  0  0  0  0  0  0  0
  189.0180  179.5410  136.9650 O   0  0  0  0  0  0  0  0  0  0  0  0
  187.0960  178.2440  136.4330 C   0  0  0  0  0  2  0  0  0  0  0  0
  187.1020  176.8230  136.0820 N   0  0  0  0  0  0  0  0  0  0  0  0
  188.0900  174.9740  134.5940 C   0  0  0  0  0  1  0  0  0  0  0  0
  188.0810  176.3700  135.1210 C   0  0  0  0  0  0  0  0  0  0  0  0
  186.1780  175.9310  136.7500 C   0  0  0  0  0  0  0  0  0  0  0  0
  186.2930  174.6820  136.6440 O   0  0  0  0  0  0  0  0  0  0  0  0
  188.9520  177.1690  134.6850 O   0  0  0  0  0  0  0  0  0  0  0  0
  185.0550  176.4680  137.5820 C   0  0  0  0  0  2  0  0  0  0  0  0
  183.7560  175.8680  137.1640 C   0  0  0  0  0  0  0  0  0  0  0  0
  181.8890  174.3840  137.5970 C   0  0  0  0  0  3  0  0  0  0  0  0
  181.9800  175.6420  135.5290 C   0  0  0  0  0  3  0  0  0  0  0  0
  181.3280  174.7310  136.3640 C   0  0  0  0  0  3  0  0  0  0  0  0
  183.1960  176.2090  135.9270 C   0  0  0  0  0  3  0  0  0  0  0  0
  183.1030  174.9520  137.9970 C   0  0  0  0  0  3  0  0  0  0  0  0
  2  9  1  0  0  0  0
  2  7  1  1  0  0  0
  3 13  1  1  0  0  0
  5 16  1  1  0  0  0
  5  9  1  0  0  0  0
  6  2  1  0  0  0  0
  8 10  1  6  0  0  0
  8  5  1  0  0  0  0
 10  6  1  0  0  0  0
 11 15  1  0  0  0  0
 11  4  2  0  0  0  0
 12  4  1  6  0  0  0
 12  3  1  0  0  0  0
 12  8  1  0  0  0  0
 13 16  1  0  0  0  0
 14  1  1  0  0  0  0
 14  3  1  0  0  0  0
 15 14  2  0  0  0  0
 17 18  2  0  0  0  0
 17 20  1  0  0  0  0
 18 22  1  0  0  0  0
 20 21  2  0  0  0  0
 21 19  1  0  0  0  0
 21  1  1  0  0  0  0
 22 19  2  0  0  0  0
 23 24  1  0  0  0  0
 24 18  1  0  0  0  0
 25 26  1  1  0  0  0
 25 11  1  0  0  0  0
 27 25  1  0  0  0  0
 28 27  1  0  0  0  0
 29 28  2  0  0  0  0
 30 28  1  0  0  0  0
 31 30  1  0  0  0  0
 31 34  1  0  0  0  0
 32 33  1  0  0  0  0
 33 31  1  0  0  0  0
 34 37  1  0  0  0  0
 35 34  2  0  0  0  0
 36 33  2  0  0  0  0
 38 37  1  0  0  0  0
 38 43  1  0  0  0  0
 39 43  2  0  0  0  0
 40 42  1  0  0  0  0
 40 41  2  0  0  0  0
 41 39  1  0  0  0  0
 42 38  2  0  0  0  0
M  END
>  <MODEL>
4

>  <REMARK>
 VINA RESULT:      -8.7      1.699      2.333
  Name = 
  8 active torsions:
  status: ('A' for Active; 'I' for Inactive)
    1  A    between atoms: N_1  and  C_35
    2  A    between atoms: C_2  and  N_6
    3  A    between atoms: C_2  and  C_27
    4  A    between atoms: C_3  and  N_4
    5  A    between atoms: C_3  and  C_12
    6  A    between atoms: C_11  and  C_14
    7  A    between atoms: C_14  and  C_22
    8  A    between atoms: C_19  and  O_37
                            x       y       z     vdW  Elec       q    Type
                         _______ _______ _______ _____ _____    ______ ____

>  <TORSDO>
F 8

$$$$
=
 OpenBabel10262422403D

 43 47  0  0  1  0  0  0  0  0999 V2000
  186.2140  177.6600  144.4230 N   0  0  0  0  0  2  0  0  0  0  0  0
  181.3100  179.6150  138.9180 C   0  0  2  0  0  3  0  0  0  0  0  0
  184.8650  178.0390  142.2940 C   0  0  2  0  0  3  0  0  0  0  0  0
  186.1990  178.6680  140.2860 C   0  0  0  0  0  3  0  0  0  0  0  0
  182.4920  179.3590  141.1810 C   0  0  1  0  0  3  0  0  0  0  0  0
  182.4560  180.5880  138.6650 C   0  0  0  0  0  2  0  0  0  0  0  0
  180.1180  180.1540  138.4380 O   0  0  0  0  0  1  0  0  0  0  0  0
  183.6900  179.0030  140.2790 C   0  0  1  0  0  3  0  0  0  0  0  0
  181.1660  179.2950  140.4110 C   0  0  0  0  0  2  0  0  0  0  0  0
  183.7990  179.9880  139.1000 C   0  0  0  0  0  2  0  0  0  0  0  0
  187.3120  178.2550  140.9090 C   0  0  0  0  0  0  0  0  0  0  0  0
  184.9830  178.9980  141.1020 C   0  0  1  0  0  3  0  0  0  0  0  0
  183.7210  178.4910  143.1950 C   0  0  0  0  0  2  0  0  0  0  0  0
  186.1890  177.9560  143.0170 C   0  0  0  0  0  0  0  0  0  0  0  0
  187.2950  178.0110  142.3270 N   0  0  0  0  0  0  0  0  0  0  0  0
  182.4130  178.4510  142.4070 C   0  0  0  0  0  2  0  0  0  0  0  0
  188.4360  177.7910  147.4500 C   0  0  0  0  0  3  0  0  0  0  0  0
  189.6620  177.4160  146.8930 C   0  0  0  0  0  0  0  0  0  0  0  0
  188.5920  177.2160  144.7200 C   0  0  0  0  0  3  0  0  0  0  0  0
  187.2940  177.8780  146.6480 C   0  0  0  0  0  3  0  0  0  0  0  0
  187.3660  177.5940  145.2760 C   0  0  0  0  0  0  0  0  0  0  0  0
  189.7350  177.1280  145.5200 C   0  0  0  0  0  3  0  0  0  0  0  0
  191.7610  176.3110  147.5930 C   0  0  0  0  0  1  0  0  0  0  0  0
  190.7870  177.3390  147.7190 O   0  0  0  0  0  0  0  0  0  0  0  0
  188.5880  178.0530  140.1480 C   0  0  1  0  0  3  0  0  0  0  0  0
  189.5220  177.1280  140.9080 C   0  0  0  0  0  1  0  0  0  0  0  0
  188.3100  177.5000  138.8300 N   0  0  0  0  0  2  0  0  0  0  0  0
  188.4370  178.2740  137.6350 C   0  0  0  0  0  0  0  0  0  0  0  0
  189.0440  179.3770  137.6490 O   0  0  0  0  0  0  0  0  0  0  0  0
  187.8000  177.7980  136.3750 C   0  0  0  0  0  2  0  0  0  0  0  0
  187.8480  176.3370  136.3080 N   0  0  0  0  0  0  0  0  0  0  0  0
  186.7160  174.1130  136.9230 C   0  0  0  0  0  1  0  0  0  0  0  0
  186.7160  175.6010  136.8200 C   0  0  0  0  0  0  0  0  0  0  0  0
  188.9880  175.7010  135.6820 C   0  0  0  0  0  0  0  0  0  0  0  0
  188.9730  174.4720  135.4080 O   0  0  0  0  0  0  0  0  0  0  0  0
  185.6920  176.2180  137.2190 O   0  0  0  0  0  0  0  0  0  0  0  0
  190.2200  176.4830  135.3490 C   0  0  0  0  0  2  0  0  0  0  0  0
  191.3810  176.0040  136.1520 C   0  0  0  0  0  0  0  0  0  0  0  0
  192.6070  175.9340  138.2430 C   0  0  0  0  0  3  0  0  0  0  0  0
  193.4480  174.7450  136.3060 C   0  0  0  0  0  3  0  0  0  0  0  0
  193.5730  175.1160  137.6480 C   0  0  0  0  0  3  0  0  0  0  0  0
  192.3530  175.1900  135.5580 C   0  0  0  0  0  3  0  0  0  0  0  0
  191.5110  176.3780  137.4950 C   0  0  0  0  0  3  0  0  0  0  0  0
  1 21  1  0  0  0  0
  2  7  1  1  0  0  0
  2  9  1  0  0  0  0
  3 14  1  0  0  0  0
  3 13  1  1  0  0  0
  4 11  2  0  0  0  0
  5  9  1  6  0  0  0
  5 16  1  0  0  0  0
  6  2  1  0  0  0  0
  6 10  1  0  0  0  0
  8 10  1  6  0  0  0
  8 12  1  0  0  0  0
  8  5  1  0  0  0  0
 11 15  1  0  0  0  0
 12  4  1  6  0  0  0
 12  3  1  0  0  0  0
 14  1  1  0  0  0  0
 15 14  2  0  0  0  0
 16 13  1  0  0  0  0
 18 17  1  0  0  0  0
 18 24  1  0  0  0  0
 19 21  2  0  0  0  0
 19 22  1  0  0  0  0
 20 17  2  0  0  0  0
 21 20  1  0  0  0  0
 22 18  2  0  0  0  0
 23 24  1  0  0  0  0
 25 26  1  1  0  0  0
 25 11  1  0  0  0  0
 27 25  1  0  0  0  0
 28 29  2  0  0  0  0
 28 27  1  0  0  0  0
 30 28  1  0  0  0  0
 31 30  1  0  0  0  0
 31 33  1  0  0  0  0
 33 32  1  0  0  0  0
 33 36  2  0  0  0  0
 34 31  1  0  0  0  0
 35 34  2  0  0  0  0
 37 34  1  0  0  0  0
 37 38  1  0  0  0  0
 38 43  1  0  0  0  0
 40 41  2  0  0  0  0
 41 39  1  0  0  0  0
 42 38  2  0  0  0  0
 42 40  1  0  0  0  0
 43 39  2  0  0  0  0
M  END
>  <MODEL>
5

>  <REMARK>
 VINA RESULT:      -8.4      2.099      7.294
  Name = 
  8 active torsions:
  status: ('A' for Active; 'I' for Inactive)
    1  A    between atoms: N_1  and  C_35
    2  A    between atoms: C_2  and  N_6
    3  A    between atoms: C_2  and  C_27
    4  A    between atoms: C_3  and  N_4
    5  A    between atoms: C_3  and  C_12
    6  A    between atoms: C_11  and  C_14
    7  A    between atoms: C_14  and  C_22
    8  A    between atoms: C_19  and  O_37
                            x       y       z     vdW  Elec       q    Type
                         _______ _______ _______ _____ _____    ______ ____

>  <TORSDO>
F 8

$$$$
=
 OpenBabel10262422403D

 43 47  0  0  1  0  0  0  0  0999 V2000
  188.5250  173.6520  136.8600 N   0  0  0  0  0  2  0  0  0  0  0  0
  195.9900  174.6690  135.6690 C   0  0  2  0  0  3  0  0  0  0  0  0
  191.0210  174.1650  136.9220 C   0  0  2  0  0  3  0  0  0  0  0  0
  191.6210  176.4200  137.7950 C   0  0  0  0  0  3  0  0  0  0  0  0
  193.5160  174.0520  135.3820 C   0  0  1  0  0  3  0  0  0  0  0  0
  195.4500  176.0760  135.4390 C   0  0  0  0  0  2  0  0  0  0  0  0
  197.1790  174.4980  134.9610 O   0  0  0  0  0  1  0  0  0  0  0  0
  193.3460  175.0650  136.5310 C   0  0  1  0  0  3  0  0  0  0  0  0
  194.9760  173.6020  135.2360 C   0  0  0  0  0  2  0  0  0  0  0  0
  194.1890  176.3290  136.2740 C   0  0  0  0  0  2  0  0  0  0  0  0
  190.3880  176.5400  138.3070 C   0  0  0  0  0  0  0  0  0  0  0  0
  191.8660  175.4260  136.6970 C   0  0  1  0  0  3  0  0  0  0  0  0
  191.1600  173.2400  135.7180 C   0  0  0  0  0  2  0  0  0  0  0  0
  189.5880  174.5530  137.2070 C   0  0  0  0  0  0  0  0  0  0  0  0
  189.3480  175.6360  137.8940 N   0  0  0  0  0  0  0  0  0  0  0  0
  192.6220  172.8260  135.5680 C   0  0  0  0  0  2  0  0  0  0  0  0
  185.1350  175.2710  136.8130 C   0  0  0  0  0  3  0  0  0  0  0  0
  184.3390  174.2280  137.2970 C   0  0  0  0  0  0  0  0  0  0  0  0
  186.3180  172.8310  137.4890 C   0  0  0  0  0  3  0  0  0  0  0  0
  186.5140  175.0950  136.6660 C   0  0  0  0  0  3  0  0  0  0  0  0
  187.1150  173.8740  137.0080 C   0  0  0  0  0  0  0  0  0  0  0  0
  184.9390  173.0040  137.6350 C   0  0  0  0  0  3  0  0  0  0  0  0
  182.4160  175.6060  138.0210 C   0  0  0  0  0  1  0  0  0  0  0  0
  182.9630  174.4320  137.4340 O   0  0  0  0  0  0  0  0  0  0  0  0
  190.0700  177.6160  139.3000 C   0  0  1  0  0  3  0  0  0  0  0  0
  189.0550  178.5890  138.7270 C   0  0  0  0  0  1  0  0  0  0  0  0
  189.5540  177.0340  140.5310 N   0  0  0  0  0  2  0  0  0  0  0  0
  190.3820  176.8120  141.6760 C   0  0  0  0  0  0  0  0  0  0  0  0
  191.5180  177.3490  141.7580 O   0  0  0  0  0  0  0  0  0  0  0  0
  189.9200  175.8940  142.7550 C   0  0  0  0  0  2  0  0  0  0  0  0
  189.9230  176.5890  144.0420 N   0  0  0  0  0  0  0  0  0  0  0  0
  191.1110  176.9540  146.2930 C   0  0  0  0  0  1  0  0  0  0  0  0
  191.0640  176.4020  144.9080 C   0  0  0  0  0  0  0  0  0  0  0  0
  188.8230  177.4740  144.3650 C   0  0  0  0  0  0  0  0  0  0  0  0
  188.8870  178.2530  145.3510 O   0  0  0  0  0  0  0  0  0  0  0  0
  192.0560  175.7340  144.5060 O   0  0  0  0  0  0  0  0  0  0  0  0
  187.5750  177.4840  143.5380 C   0  0  0  0  0  2  0  0  0  0  0  0
  186.4150  177.9650  144.3400 C   0  0  0  0  0  0  0  0  0  0  0  0
  185.3140  178.2530  146.4800 C   0  0  0  0  0  3  0  0  0  0  0  0
  184.2290  179.0080  144.4500 C   0  0  0  0  0  3  0  0  0  0  0  0
  184.2250  178.8550  145.8390 C   0  0  0  0  0  3  0  0  0  0  0  0
  185.3220  178.5620  143.7000 C   0  0  0  0  0  3  0  0  0  0  0  0
  186.4080  177.8090  145.7310 C   0  0  0  0  0  3  0  0  0  0  0  0
  1 21  1  0  0  0  0
  1 14  1  0  0  0  0
  2  7  1  6  0  0  0
  3 13  1  6  0  0  0
  3 14  1  0  0  0  0
  4 11  2  0  0  0  0
  5  9  1  1  0  0  0
  5 16  1  0  0  0  0
  5  8  1  0  0  0  0
  6  2  1  0  0  0  0
  6 10  1  0  0  0  0
  8 10  1  6  0  0  0
  8 12  1  0  0  0  0
  9  2  1  0  0  0  0
 11 25  1  0  0  0  0
 12  3  1  0  0  0  0
 12  4  1  1  0  0  0
 14 15  2  0  0  0  0
 15 11  1  0  0  0  0
 16 13  1  0  0  0  0
 17 18  1  0  0  0  0
 18 24  1  0  0  0  0
 18 22  2  0  0  0  0
 19 22  1  0  0  0  0
 20 17  2  0  0  0  0
 20 21  1  0  0  0  0
 21 19  2  0  0  0  0
 24 23  1  0  0  0  0
 25 26  1  6  0  0  0
 25 27  1  0  0  0  0
 27 28  1  0  0  0  0
 28 29  2  0  0  0  0
 28 30  1  0  0  0  0
 30 31  1  0  0  0  0
 31 34  1  0  0  0  0
 31 33  1  0  0  0  0
 33 32  1  0  0  0  0
 34 35  2  0  0  0  0
 36 33  2  0  0  0  0
 37 38  1  0  0  0  0
 37 34  1  0  0  0  0
 38 43  1  0  0  0  0
 40 41  2  0  0  0  0
 41 39  1  0  0  0  0
 42 38  2  0  0  0  0
 42 40  1  0  0  0  0
 43 39  2  0  0  0  0
M  END
>  <MODEL>
6

>  <REMARK>
 VINA RESULT:      -8.3      3.412      9.182
  Name = 
  8 active torsions:
  status: ('A' for Active; 'I' for Inactive)
    1  A    between atoms: N_1  and  C_35
    2  A    between atoms: C_2  and  N_6
    3  A    between atoms: C_2  and  C_27
    4  A    between atoms: C_3  and  N_4
    5  A    between atoms: C_3  and  C_12
    6  A    between atoms: C_11  and  C_14
    7  A    between atoms: C_14  and  C_22
    8  A    between atoms: C_19  and  O_37
                            x       y       z     vdW  Elec       q    Type
                         _______ _______ _______ _____ _____    ______ ____

>  <TORSDO>
F 8

$$$$
=
 OpenBabel10262422403D

 43 47  0  0  1  0  0  0  0  0999 V2000
  189.6540  176.7810  140.1650 N   0  0  0  0  0  2  0  0  0  0  0  0
  191.2200  176.6020  147.6280 C   0  0  2  0  0  3  0  0  0  0  0  0
  189.7100  176.5760  142.7050 C   0  0  2  0  0  3  0  0  0  0  0  0
  187.8000  177.6390  143.9000 C   0  0  0  0  0  3  0  0  0  0  0  0
  191.4070  176.8580  145.0820 C   0  0  1  0  0  3  0  0  0  0  0  0
  190.4970  177.9380  147.5000 C   0  0  0  0  0  2  0  0  0  0  0  0
  192.0760  176.6310  148.7280 O   0  0  0  0  0  1  0  0  0  0  0  0
  189.8740  176.9790  145.1910 C   0  0  1  0  0  3  0  0  0  0  0  0
  192.0210  176.2750  146.3620 C   0  0  0  0  0  2  0  0  0  0  0  0
  189.4810  177.9110  146.3520 C   0  0  0  0  0  2  0  0  0  0  0  0
  187.1230  177.6990  142.7440 C   0  0  0  0  0  0  0  0  0  0  0  0
  189.2930  177.4870  143.8680 C   0  0  1  0  0  3  0  0  0  0  0  0
  191.2300  176.5640  142.5910 C   0  0  0  0  0  2  0  0  0  0  0  0
  189.0250  177.0220  141.4340 C   0  0  0  0  0  0  0  0  0  0  0  0
  187.8090  177.4900  141.4970 N   0  0  0  0  0  0  0  0  0  0  0  0
  191.8270  176.0090  143.8820 C   0  0  0  0  0  2  0  0  0  0  0  0
  188.6090  178.8760  137.2270 C   0  0  0  0  0  3  0  0  0  0  0  0
  188.2670  177.8830  136.3040 C   0  0  0  0  0  0  0  0  0  0  0  0
  188.8400  176.1860  137.9460 C   0  0  0  0  0  3  0  0  0  0  0  0
  189.0650  178.5280  138.5010 C   0  0  0  0  0  3  0  0  0  0  0  0
  189.1800  177.1790  138.8710 C   0  0  0  0  0  0  0  0  0  0  0  0
  188.3850  176.5320  136.6710 C   0  0  0  0  0  3  0  0  0  0  0  0
  186.4750  178.0530  134.6070 C   0  0  0  0  0  1  0  0  0  0  0  0
  187.8140  178.2610  135.0370 O   0  0  0  0  0  0  0  0  0  0  0  0
  185.6530  177.9940  142.7300 C   0  0  1  0  0  3  0  0  0  0  0  0
  185.2100  178.5660  144.0650 C   0  0  0  0  0  1  0  0  0  0  0  0
  185.3340  178.9310  141.6620 N   0  0  0  0  0  2  0  0  0  0  0  0
  184.1330  178.8310  140.8930 C   0  0  0  0  0  0  0  0  0  0  0  0
  183.1850  178.0980  141.2780 O   0  0  0  0  0  0  0  0  0  0  0  0
  184.0230  179.5600  139.5970 C   0  0  0  0  0  2  0  0  0  0  0  0
  183.3960  178.7030  138.5910 N   0  0  0  0  0  0  0  0  0  0  0  0
  183.7320  176.9460  136.7440 C   0  0  0  0  0  1  0  0  0  0  0  0
  184.2390  177.7700  137.8790 C   0  0  0  0  0  0  0  0  0  0  0  0
  181.9640  178.7820  138.3950 C   0  0  0  0  0  0  0  0  0  0  0  0
  181.3560  177.9220  137.7050 O   0  0  0  0  0  0  0  0  0  0  0  0
  185.4520  177.6470  138.1990 O   0  0  0  0  0  0  0  0  0  0  0  0
  181.1640  179.8930  139.0020 C   0  0  0  0  0  2  0  0  0  0  0  0
  180.9990  181.0140  138.0330 C   0  0  0  0  0  0  0  0  0  0  0  0
  180.0410  181.9080  135.9940 C   0  0  0  0  0  3  0  0  0  0  0  0
  181.5280  183.2740  137.3320 C   0  0  0  0  0  3  0  0  0  0  0  0
  180.7110  183.1170  136.2090 C   0  0  0  0  0  3  0  0  0  0  0  0
  181.6740  182.2230  138.2430 C   0  0  0  0  0  3  0  0  0  0  0  0
  180.1850  180.8570  136.9060 C   0  0  0  0  0  3  0  0  0  0  0  0
  1 14  1  0  0  0  0
  2  7  1  1  0  0  0
  3 13  1  6  0  0  0
  3 12  1  0  0  0  0
  5 16  1  6  0  0  0
  5  8  1  0  0  0  0
  5  9  1  0  0  0  0
  6  2  1  0  0  0  0
  8 10  1  1  0  0  0
  9  2  1  0  0  0  0
 10  6  1  0  0  0  0
 11  4  2  0  0  0  0
 12  4  1  1  0  0  0
 12  8  1  0  0  0  0
 13 16  1  0  0  0  0
 14 15  2  0  0  0  0
 14  3  1  0  0  0  0
 15 11  1  0  0  0  0
 17 20  1  0  0  0  0
 18 22  1  0  0  0  0
 18 17  2  0  0  0  0
 19 21  1  0  0  0  0
 20 21  2  0  0  0  0
 21  1  1  0  0  0  0
 22 19  2  0  0  0  0
 23 24  1  0  0  0  0
 24 18  1  0  0  0  0
 25 11  1  0  0  0  0
 25 26  1  1  0  0  0
 27 25  1  0  0  0  0
 28 29  2  0  0  0  0
 28 27  1  0  0  0  0
 30 28  1  0  0  0  0
 31 30  1  0  0  0  0
 32 33  1  0  0  0  0
 33 36  2  0  0  0  0
 33 31  1  0  0  0  0
 34 31  1  0  0  0  0
 34 37  1  0  0  0  0
 35 34  2  0  0  0  0
 38 42  1  0  0  0  0
 38 37  1  0  0  0  0
 39 41  2  0  0  0  0
 39 43  1  0  0  0  0
 40 42  2  0  0  0  0
 41 40  1  0  0  0  0
 43 38  2  0  0  0  0
M  END
>  <MODEL>
7

>  <REMARK>
 VINA RESULT:      -8.2      2.527      6.003
  Name = 
  8 active torsions:
  status: ('A' for Active; 'I' for Inactive)
    1  A    between atoms: N_1  and  C_35
    2  A    between atoms: C_2  and  N_6
    3  A    between atoms: C_2  and  C_27
    4  A    between atoms: C_3  and  N_4
    5  A    between atoms: C_3  and  C_12
    6  A    between atoms: C_11  and  C_14
    7  A    between atoms: C_14  and  C_22
    8  A    between atoms: C_19  and  O_37
                            x       y       z     vdW  Elec       q    Type
                         _______ _______ _______ _____ _____    ______ ____

>  <TORSDO>
F 8

$$$$
=
 OpenBabel10262422403D

 43 47  0  0  1  0  0  0  0  0999 V2000
  184.2030  178.6270  144.3230 N   0  0  0  0  0  2  0  0  0  0  0  0
  191.3910  176.9660  146.2600 C   0  0  2  0  0  3  0  0  0  0  0  0
  186.7240  178.3790  144.6050 C   0  0  2  0  0  3  0  0  0  0  0  0
  187.9950  177.9720  142.5010 C   0  0  0  0  0  3  0  0  0  0  0  0
  188.8280  177.0720  146.1780 C   0  0  1  0  0  3  0  0  0  0  0  0
  191.1840  176.0600  145.0510 C   0  0  0  0  0  2  0  0  0  0  0  0
  192.3690  176.4260  147.0930 O   0  0  0  0  0  1  0  0  0  0  0  0
  189.1030  177.5470  144.7370 C   0  0  1  0  0  3  0  0  0  0  0  0
  190.0890  177.1530  147.0490 C   0  0  0  0  0  2  0  0  0  0  0  0
  190.1770  176.6700  144.0680 C   0  0  0  0  0  2  0  0  0  0  0  0
  186.9300  178.3720  141.7920 C   0  0  0  0  0  0  0  0  0  0  0  0
  187.8050  177.5300  143.9230 C   0  0  1  0  0  3  0  0  0  0  0  0
  186.4330  177.8120  145.9900 C   0  0  0  0  0  2  0  0  0  0  0  0
  185.4970  178.4500  143.7250 C   0  0  0  0  0  0  0  0  0  0  0  0
  185.6460  178.4940  142.4300 N   0  0  0  0  0  0  0  0  0  0  0  0
  187.7030  177.8710  146.8350 C   0  0  0  0  0  2  0  0  0  0  0  0
  180.5040  178.7260  143.6690 C   0  0  0  0  0  3  0  0  0  0  0  0
  180.4850  178.7610  142.2720 C   0  0  0  0  0  0  0  0  0  0  0  0
  182.9150  178.7010  142.2550 C   0  0  0  0  0  3  0  0  0  0  0  0
  181.7200  178.6800  144.3570 C   0  0  0  0  0  3  0  0  0  0  0  0
  182.9350  178.6630  143.6530 C   0  0  0  0  0  0  0  0  0  0  0  0
  181.7000  178.7490  141.5660 C   0  0  0  0  0  3  0  0  0  0  0  0
  179.1440  178.9860  140.2050 C   0  0  0  0  0  1  0  0  0  0  0  0
  179.2540  178.8080  141.6110 O   0  0  0  0  0  0  0  0  0  0  0  0
  187.0530  178.6840  140.3310 C   0  0  1  0  0  3  0  0  0  0  0  0
  188.4650  178.4120  139.8450 C   0  0  0  0  0  1  0  0  0  0  0  0
  186.1050  177.8900  139.5610 N   0  0  0  0  0  2  0  0  0  0  0  0
  184.8380  178.4060  139.1460 C   0  0  0  0  0  0  0  0  0  0  0  0
  184.6020  179.6420  139.1980 O   0  0  0  0  0  0  0  0  0  0  0  0
  183.7700  177.4690  138.6970 C   0  0  0  0  0  2  0  0  0  0  0  0
  183.6040  177.5530  137.2460 N   0  0  0  0  0  0  0  0  0  0  0  0
  182.1000  178.2670  135.2860 C   0  0  0  0  0  1  0  0  0  0  0  0
  182.4370  178.2380  136.7390 C   0  0  0  0  0  0  0  0  0  0  0  0
  184.6340  177.0070  136.3890 C   0  0  0  0  0  0  0  0  0  0  0  0
  184.6420  177.2460  135.1530 O   0  0  0  0  0  0  0  0  0  0  0  0
  181.6520  178.8190  137.5360 O   0  0  0  0  0  0  0  0  0  0  0  0
  185.7170  176.1350  136.9450 C   0  0  0  0  0  2  0  0  0  0  0  0
  185.4170  174.6970  136.6950 C   0  0  0  0  0  0  0  0  0  0  0  0
  184.2600  172.6540  137.2990 C   0  0  0  0  0  3  0  0  0  0  0  0
  185.7600  172.6780  135.3970 C   0  0  0  0  0  3  0  0  0  0  0  0
  184.8730  171.9920  136.2300 C   0  0  0  0  0  3  0  0  0  0  0  0
  186.0340  174.0300  135.6300 C   0  0  0  0  0  3  0  0  0  0  0  0
  184.5320  174.0070  137.5310 C   0  0  0  0  0  3  0  0  0  0  0  0
  2  9  1  0  0  0  0
  2  7  1  1  0  0  0
  3 13  1  1  0  0  0
  5 16  1  1  0  0  0
  5  9  1  0  0  0  0
  6  2  1  0  0  0  0
  8 10  1  6  0  0  0
  8  5  1  0  0  0  0
 10  6  1  0  0  0  0
 11 15  1  0  0  0  0
 11  4  2  0  0  0  0
 12  4  1  6  0  0  0
 12  3  1  0  0  0  0
 12  8  1  0  0  0  0
 13 16  1  0  0  0  0
 14  1  1  0  0  0  0
 14  3  1  0  0  0  0
 15 14  2  0  0  0  0
 17 20  1  0  0  0  0
 18 17  2  0  0  0  0
 19 21  1  0  0  0  0
 21  1  1  0  0  0  0
 21 20  2  0  0  0  0
 22 19  2  0  0  0  0
 22 18  1  0  0  0  0
 23 24  1  0  0  0  0
 24 18  1  0  0  0  0
 25 26  1  6  0  0  0
 25 11  1  0  0  0  0
 27 25  1  0  0  0  0
 28 29  2  0  0  0  0
 28 27  1  0  0  0  0
 30 28  1  0  0  0  0
 31 30  1  0  0  0  0
 32 33  1  0  0  0  0
 33 31  1  0  0  0  0
 33 36  2  0  0  0  0
 34 37  1  0  0  0  0
 34 31  1  0  0  0  0
 35 34  2  0  0  0  0
 38 37  1  0  0  0  0
 38 43  1  0  0  0  0
 39 43  2  0  0  0  0
 40 42  1  0  0  0  0
 40 41  2  0  0  0  0
 41 39  1  0  0  0  0
 42 38  2  0  0  0  0
M  END
>  <MODEL>
8

>  <REMARK>
 VINA RESULT:      -8.2      2.391      3.835
  Name = 
  8 active torsions:
  status: ('A' for Active; 'I' for Inactive)
    1  A    between atoms: N_1  and  C_35
    2  A    between atoms: C_2  and  N_6
    3  A    between atoms: C_2  and  C_27
    4  A    between atoms: C_3  and  N_4
    5  A    between atoms: C_3  and  C_12
    6  A    between atoms: C_11  and  C_14
    7  A    between atoms: C_14  and  C_22
    8  A    between atoms: C_19  and  O_37
                            x       y       z     vdW  Elec       q    Type
                         _______ _______ _______ _____ _____    ______ ____

>  <TORSDO>
F 8

$$$$
=
 OpenBabel10262422403D

 43 47  0  0  1  0  0  0  0  0999 V2000
  185.2690  178.6020  142.8890 N   0  0  0  0  0  2  0  0  0  0  0  0
  191.6280  176.7520  146.6750 C   0  0  2  0  0  3  0  0  0  0  0  0
  187.6190  178.2640  143.8180 C   0  0  2  0  0  3  0  0  0  0  0  0
  189.3540  177.6750  142.1300 C   0  0  0  0  0  3  0  0  0  0  0  0
  189.1790  176.9650  145.9360 C   0  0  1  0  0  3  0  0  0  0  0  0
  191.6810  175.7850  145.4980 C   0  0  0  0  0  2  0  0  0  0  0  0
  192.3310  176.2220  147.7550 O   0  0  0  0  0  1  0  0  0  0  0  0
  189.8350  177.3390  144.5920 C   0  0  1  0  0  3  0  0  0  0  0  0
  190.1810  177.0430  147.0960 C   0  0  0  0  0  2  0  0  0  0  0  0
  190.9920  176.3770  144.2620 C   0  0  0  0  0  2  0  0  0  0  0  0
  188.5280  178.0760  141.1540 C   0  0  0  0  0  0  0  0  0  0  0  0
  188.7860  177.3280  143.4760 C   0  0  1  0  0  3  0  0  0  0  0  0
  186.9550  177.7940  145.1080 C   0  0  0  0  0  2  0  0  0  0  0  0
  186.6600  178.3330  142.6510 C   0  0  0  0  0  0  0  0  0  0  0  0
  187.1340  178.2920  141.4360 N   0  0  0  0  0  0  0  0  0  0  0  0
  187.9720  177.8490  146.2450 C   0  0  0  0  0  2  0  0  0  0  0  0
  181.8630  178.6270  141.3030 C   0  0  0  0  0  3  0  0  0  0  0  0
  182.2010  178.7860  139.9560 C   0  0  0  0  0  0  0  0  0  0  0  0
  184.5530  178.8150  140.5690 C   0  0  0  0  0  3  0  0  0  0  0  0
  182.8630  178.5630  142.2790 C   0  0  0  0  0  3  0  0  0  0  0  0
  184.2160  178.6520  141.9170 C   0  0  0  0  0  0  0  0  0  0  0  0
  183.5550  178.8800  139.5930 C   0  0  0  0  0  3  0  0  0  0  0  0
  179.8430  178.4590  139.2870 C   0  0  0  0  0  1  0  0  0  0  0  0
  181.1810  178.8470  139.0040 O   0  0  0  0  0  0  0  0  0  0  0  0
  189.0340  178.2930  139.7600 C   0  0  1  0  0  3  0  0  0  0  0  0
  190.4170  177.6910  139.5950 C   0  0  0  0  0  1  0  0  0  0  0  0
  188.1200  177.7030  138.7910 N   0  0  0  0  0  2  0  0  0  0  0  0
  187.9650  178.2290  137.4710 C   0  0  0  0  0  0  0  0  0  0  0  0
  188.7970  179.0520  137.0070 O   0  0  0  0  0  0  0  0  0  0  0  0
  186.7790  177.8410  136.6560 C   0  0  0  0  0  2  0  0  0  0  0  0
  186.7150  176.3850  136.5230 N   0  0  0  0  0  0  0  0  0  0  0  0
  185.5420  174.2070  137.2230 C   0  0  0  0  0  1  0  0  0  0  0  0
  185.6290  175.6950  137.1820 C   0  0  0  0  0  0  0  0  0  0  0  0
  187.6940  175.7120  135.6970 C   0  0  0  0  0  0  0  0  0  0  0  0
  187.5510  174.5020  135.3790 O   0  0  0  0  0  0  0  0  0  0  0  0
  184.7260  176.3540  137.7650 O   0  0  0  0  0  0  0  0  0  0  0  0
  188.9090  176.4320  135.2010 C   0  0  0  0  0  2  0  0  0  0  0  0
  190.1450  175.8560  135.8030 C   0  0  0  0  0  0  0  0  0  0  0  0
  191.2470  174.6510  137.5940 C   0  0  0  0  0  3  0  0  0  0  0  0
  192.5370  175.4710  135.7150 C   0  0  0  0  0  3  0  0  0  0  0  0
  192.4730  174.7940  136.9360 C   0  0  0  0  0  3  0  0  0  0  0  0
  191.3740  176.0040  135.1490 C   0  0  0  0  0  3  0  0  0  0  0  0
  190.0830  175.1820  137.0280 C   0  0  0  0  0  3  0  0  0  0  0  0
  2  9  1  0  0  0  0
  2  7  1  1  0  0  0
  3 13  1  1  0  0  0
  5 16  1  1  0  0  0
  5  9  1  0  0  0  0
  6  2  1  0  0  0  0
  8 10  1  6  0  0  0
  8  5  1  0  0  0  0
 10  6  1  0  0  0  0
 11 15  1  0  0  0  0
 11  4  2  0  0  0  0
 12  4  1  6  0  0  0
 12  3  1  0  0  0  0
 12  8  1  0  0  0  0
 13 16  1  0  0  0  0
 14  1  1  0  0  0  0
 14  3  1  0  0  0  0
 15 14  2  0  0  0  0
 17 20  1  0  0  0  0
 18 17  2  0  0  0  0
 19 21  1  0  0  0  0
 21 20  2  0  0  0  0
 21  1  1  0  0  0  0
 22 18  1  0  0  0  0
 22 19  2  0  0  0  0
 24 23  1  0  0  0  0
 24 18  1  0  0  0  0
 25 26  1  1  0  0  0
 25 11  1  0  0  0  0
 27 25  1  0  0  0  0
 28 27  1  0  0  0  0
 29 28  2  0  0  0  0
 30 28  1  0  0  0  0
 31 30  1  0  0  0  0
 31 33  1  0  0  0  0
 33 32  1  0  0  0  0
 33 36  2  0  0  0  0
 34 31  1  0  0  0  0
 35 34  2  0  0  0  0
 37 34  1  0  0  0  0
 37 38  1  0  0  0  0
 38 43  1  0  0  0  0
 40 41  2  0  0  0  0
 41 39  1  0  0  0  0
 42 40  1  0  0  0  0
 42 38  2  0  0  0  0
 43 39  2  0  0  0  0
M  END
>  <MODEL>
9

>  <REMARK>
 VINA RESULT:      -8.1      1.996      3.956
  Name = 
  8 active torsions:
  status: ('A' for Active; 'I' for Inactive)
    1  A    between atoms: N_1  and  C_35
    2  A    between atoms: C_2  and  N_6
    3  A    between atoms: C_2  and  C_27
    4  A    between atoms: C_3  and  N_4
    5  A    between atoms: C_3  and  C_12
    6  A    between atoms: C_11  and  C_14
    7  A    between atoms: C_14  and  C_22
    8  A    between atoms: C_19  and  O_37
                            x       y       z     vdW  Elec       q    Type
                         _______ _______ _______ _____ _____    ______ ____

>  <TORSDO>
F 8

$$$$
