=
 OpenBabel10262422593D

 37 40  0  0  1  0  0  0  0  0999 V2000
  181.3350  176.5320  139.4250 C   0  0  0  0  0  2  0  0  0  0  0  0
  182.2670  180.5060  138.6700 C   0  0  0  0  0  2  0  0  0  0  0  0
  184.2310  174.7520  136.9230 C   0  0  0  0  0  3  0  0  0  0  0  0
  182.3420  177.5090  138.7880 C   0  0  1  0  0  0  0  0  0  0  0  0
  183.2350  175.4370  137.6220 C   0  0  0  0  0  0  0  0  0  0  0  0
  182.8010  178.4330  139.8650 N   0  0  0  0  0  0  0  0  0  0  0  0
  181.9530  174.8250  137.7980 N   0  0  0  0  0  0  0  0  0  0  0  0
  183.4770  176.7370  138.1140 C   0  0  0  0  0  0  0  0  0  0  0  0
  185.7130  176.6480  137.1540 C   0  0  0  0  0  3  0  0  0  0  0  0
  181.0380  175.3210  138.5750 C   0  0  0  0  0  0  0  0  0  0  0  0
  184.7170  177.3400  137.8460 C   0  0  0  0  0  3  0  0  0  0  0  0
  183.3680  179.6580  139.3090 C   0  0  0  0  0  2  0  0  0  0  0  0
  181.5960  178.2860  137.6760 C   0  0  0  0  0  2  0  0  0  0  0  0
  185.4790  175.3500  136.6930 C   0  0  0  0  0  0  0  0  0  0  0  0
  181.0910  179.6810  138.0900 C   0  0  1  0  0  0  0  0  0  0  0  0
  186.4970  174.6830  136.0070 O   0  0  0  0  0  0  0  0  0  0  0  0
  186.6800  173.2750  136.0840 C   0  0  0  0  0  1  0  0  0  0  0  0
  179.3520  174.0440  139.8430 C   0  0  0  0  0  1  0  0  0  0  0  0
  179.8020  174.6770  138.6550 O   0  0  0  0  0  0  0  0  0  0  0  0
  179.9970  179.5230  139.1640 C   0  0  0  0  0  2  0  0  0  0  0  0
  180.0930  180.5710  140.1670 N   0  0  0  0  0  2  0  0  0  0  0  0
  179.8940  179.9840  142.6970 C   0  0  0  0  0  3  0  0  0  0  0  0
  179.9860  180.2560  141.5260 C   0  0  0  0  0  0  0  0  0  0  0  0
  180.5790  180.2980  136.9180 O   0  0  0  0  0  0  0  0  0  0  0  0
  180.8360  181.6820  136.9410 C   0  0  0  0  0  2  0  0  0  0  0  0
  180.4300  182.2910  135.6150 C   0  0  0  0  0  2  0  0  0  0  0  0
  181.1650  183.9390  136.8810 C   0  0  0  0  0  1  0  0  0  0  0  0
  180.8680  183.6130  135.5590 O   0  0  0  0  0  0  0  0  0  0  0  0
  183.7970  177.8240  140.7450 C   0  0  0  0  0  2  0  0  0  0  0  0
  184.6730  178.9020  141.3600 C   0  0  0  0  0  2  0  0  0  0  0  0
  183.5630  179.1220  143.5910 C   0  0  0  0  0  3  0  0  0  0  0  0
  184.6860  178.7570  142.8400 C   0  0  0  0  0  0  0  0  0  0  0  0
  185.8350  178.2880  143.4860 C   0  0  0  0  0  3  0  0  0  0  0  0
  187.2950  177.5860  145.6850 Cl  0  0  0  0  0  0  0  0  0  0  0  0
  184.7320  178.5330  145.6290 C   0  0  0  0  0  3  0  0  0  0  0  0
  185.8570  178.1730  144.8790 C   0  0  0  0  0  0  0  0  0  0  0  0
  183.5850  179.0080  144.9850 C   0  0  0  0  0  3  0  0  0  0  0  0
  2 12  1  0  0  0  0
  3  5  1  0  0  0  0
  4 13  1  6  0  0  0
  4  1  1  0  0  0  0
  4  6  1  0  0  0  0
  5  7  1  0  0  0  0
  5  8  2  0  0  0  0
  6 29  1  0  0  0  0
  7 10  2  0  0  0  0
  8  4  1  0  0  0  0
  9 11  2  0  0  0  0
 10 19  1  0  0  0  0
 10  1  1  0  0  0  0
 11  8  1  0  0  0  0
 12  6  1  0  0  0  0
 13 15  1  0  0  0  0
 14  3  2  0  0  0  0
 14  9  1  0  0  0  0
 15  2  1  0  0  0  0
 15 20  1  1  0  0  0
 16 17  1  0  0  0  0
 16 14  1  0  0  0  0
 19 18  1  0  0  0  0
 20 21  1  0  0  0  0
 21 23  1  0  0  0  0
 23 22  3  0  0  0  0
 24 25  1  0  0  0  0
 24 15  1  0  0  0  0
 26 25  1  0  0  0  0
 28 26  1  0  0  0  0
 28 27  1  0  0  0  0
 29 30  1  0  0  0  0
 30 32  1  0  0  0  0
 31 37  1  0  0  0  0
 32 33  1  0  0  0  0
 32 31  2  0  0  0  0
 33 36  2  0  0  0  0
 36 35  1  0  0  0  0
 36 34  1  0  0  0  0
 37 35  2  0  0  0  0
M  END
>  <MODEL>
1

>  <REMARK>
 VINA RESULT:      -6.2      0.000      0.000
  Name = 
  12 active torsions:
  status: ('A' for Active; 'I' for Inactive)
    1  A    between atoms: C_1  and  N_5
    2  A    between atoms: C_1  and  C_36
    3  A    between atoms: O_3  and  C_32
    4  A    between atoms: N_5  and  C_23
    5  A    between atoms: C_6  and  C_31
    6  A    between atoms: N_14  and  C_37
    7  A    between atoms: C_17  and  C_26
    8  A    between atoms: C_17  and  O_33
    9  A    between atoms: C_24  and  O_28
   10  A    between atoms: C_26  and  O_34
   11  A    between atoms: C_31  and  C_37
   12  A    between atoms: O_33  and  C_36
                            x       y       z     vdW  Elec       q    Type
                         _______ _______ _______ _____ _____    ______ ____

>  <TORSDO>
F 12

$$$$
=
 OpenBabel10262422593D

 37 40  0  0  1  0  0  0  0  0999 V2000
  183.1150  179.7540  139.7940 C   0  0  0  0  0  2  0  0  0  0  0  0
  179.2330  178.3200  139.4730 C   0  0  0  0  0  2  0  0  0  0  0  0
  184.9420  177.1660  137.0050 C   0  0  0  0  0  3  0  0  0  0  0  0
  182.1470  178.8550  139.0020 C   0  0  1  0  0  0  0  0  0  0  0  0
  184.2680  177.8880  137.9920 C   0  0  0  0  0  0  0  0  0  0  0  0
  181.0200  179.7170  138.5420 N   0  0  0  0  0  0  0  0  0  0  0  0
  184.9800  178.3200  139.1560 N   0  0  0  0  0  0  0  0  0  0  0  0
  182.8880  178.1510  137.8630 C   0  0  0  0  0  0  0  0  0  0  0  0
  182.8840  176.9230  135.7610 C   0  0  0  0  0  3  0  0  0  0  0  0
  184.4700  179.1340  140.0300 C   0  0  0  0  0  0  0  0  0  0  0  0
  182.2030  177.6360  136.7500 C   0  0  0  0  0  3  0  0  0  0  0  0
  179.8440  178.9200  138.2050 C   0  0  0  0  0  2  0  0  0  0  0  0
  181.6420  177.7530  139.9650 C   0  0  0  0  0  2  0  0  0  0  0  0
  184.2550  176.6880  135.8780 C   0  0  0  0  0  0  0  0  0  0  0  0
  180.2620  178.0260  140.5920 C   0  0  1  0  0  0  0  0  0  0  0  0
  184.9080  175.9740  134.8700 O   0  0  0  0  0  0  0  0  0  0  0  0
  186.0350  175.1460  135.1230 C   0  0  0  0  0  1  0  0  0  0  0  0
  186.4520  178.8280  141.4650 C   0  0  0  0  0  1  0  0  0  0  0  0
  185.2240  179.4700  141.1560 O   0  0  0  0  0  0  0  0  0  0  0  0
  180.3660  179.2500  141.5250 C   0  0  0  0  0  2  0  0  0  0  0  0
  180.6440  178.8430  142.8930 N   0  0  0  0  0  2  0  0  0  0  0  0
  183.0390  179.1220  143.8800 C   0  0  0  0  0  3  0  0  0  0  0  0
  181.9300  178.9920  143.4230 C   0  0  0  0  0  0  0  0  0  0  0  0
  179.8980  176.8590  141.3120 O   0  0  0  0  0  0  0  0  0  0  0  0
  178.9320  176.1240  140.5970 C   0  0  0  0  0  2  0  0  0  0  0  0
  179.2060  174.6430  140.7570 C   0  0  0  0  0  2  0  0  0  0  0  0
  179.5330  174.6980  138.5780 C   0  0  0  0  0  1  0  0  0  0  0  0
  180.0910  174.2250  139.7650 O   0  0  0  0  0  0  0  0  0  0  0  0
  181.3700  180.5330  137.3810 C   0  0  0  0  0  2  0  0  0  0  0  0
  180.1100  181.0850  136.7370 C   0  0  0  0  0  2  0  0  0  0  0  0
  180.7760  183.2200  135.6170 C   0  0  0  0  0  3  0  0  0  0  0  0
  180.1720  182.5700  136.6990 C   0  0  0  0  0  0  0  0  0  0  0  0
  179.6570  183.3190  137.7630 C   0  0  0  0  0  3  0  0  0  0  0  0
  179.0890  185.6480  139.0710 Cl  0  0  0  0  0  0  0  0  0  0  0  0
  180.3340  185.3640  136.6550 C   0  0  0  0  0  3  0  0  0  0  0  0
  179.7350  184.7140  137.7400 C   0  0  0  0  0  0  0  0  0  0  0  0
  180.8550  184.6160  135.5930 C   0  0  0  0  0  3  0  0  0  0  0  0
  1 10  1  0  0  0  0
  2 15  1  0  0  0  0
  3  5  1  0  0  0  0
  4  1  1  1  0  0  0
  4 13  1  0  0  0  0
  5  7  1  0  0  0  0
  6  4  1  0  0  0  0
  7 10  2  0  0  0  0
  8  5  2  0  0  0  0
  8  4  1  0  0  0  0
  9 14  1  0  0  0  0
  9 11  2  0  0  0  0
 10 19  1  0  0  0  0
 11  8  1  0  0  0  0
 12  6  1  0  0  0  0
 12  2  1  0  0  0  0
 13 15  1  0  0  0  0
 14  3  2  0  0  0  0
 15 24  1  0  0  0  0
 15 20  1  1  0  0  0
 16 17  1  0  0  0  0
 16 14  1  0  0  0  0
 19 18  1  0  0  0  0
 20 21  1  0  0  0  0
 21 23  1  0  0  0  0
 23 22  3  0  0  0  0
 25 26  1  0  0  0  0
 25 24  1  0  0  0  0
 27 28  1  0  0  0  0
 28 26  1  0  0  0  0
 29  6  1  0  0  0  0
 30 29  1  0  0  0  0
 31 32  1  0  0  0  0
 32 30  1  0  0  0  0
 32 33  2  0  0  0  0
 35 36  2  0  0  0  0
 36 33  1  0  0  0  0
 36 34  1  0  0  0  0
 37 31  2  0  0  0  0
 37 35  1  0  0  0  0
M  END
>  <MODEL>
2

>  <REMARK>
 VINA RESULT:      -5.8      3.244      6.597
  Name = 
  12 active torsions:
  status: ('A' for Active; 'I' for Inactive)
    1  A    between atoms: C_1  and  N_5
    2  A    between atoms: C_1  and  C_36
    3  A    between atoms: O_3  and  C_32
    4  A    between atoms: N_5  and  C_23
    5  A    between atoms: C_6  and  C_31
    6  A    between atoms: N_14  and  C_37
    7  A    between atoms: C_17  and  C_26
    8  A    between atoms: C_17  and  O_33
    9  A    between atoms: C_24  and  O_28
   10  A    between atoms: C_26  and  O_34
   11  A    between atoms: C_31  and  C_37
   12  A    between atoms: O_33  and  C_36
                            x       y       z     vdW  Elec       q    Type
                         _______ _______ _______ _____ _____    ______ ____

>  <TORSDO>
F 12

$$$$
=
 OpenBabel10262422593D

 37 40  0  0  1  0  0  0  0  0999 V2000
  182.0570  176.2040  138.1610 C   0  0  0  0  0  2  0  0  0  0  0  0
  181.5130  180.3160  138.3030 C   0  0  0  0  0  2  0  0  0  0  0  0
  186.1200  176.1760  137.0180 C   0  0  0  0  0  3  0  0  0  0  0  0
  182.7410  177.5840  138.1350 C   0  0  1  0  0  0  0  0  0  0  0  0
  184.7520  176.2940  137.2750 C   0  0  0  0  0  0  0  0  0  0  0  0
  182.3600  178.2900  139.3920 N   0  0  0  0  0  0  0  0  0  0  0  0
  183.8600  175.2780  136.8070 N   0  0  0  0  0  0  0  0  0  0  0  0
  184.2520  177.4250  137.9530 C   0  0  0  0  0  0  0  0  0  0  0  0
  186.5140  178.3170  138.0690 C   0  0  0  0  0  3  0  0  0  0  0  0
  182.6090  175.2300  137.1490 C   0  0  0  0  0  0  0  0  0  0  0  0
  185.1460  178.4440  138.3200 C   0  0  0  0  0  3  0  0  0  0  0  0
  182.5450  179.7330  139.2700 C   0  0  0  0  0  2  0  0  0  0  0  0
  182.2100  178.3420  136.8940 C   0  0  0  0  0  2  0  0  0  0  0  0
  187.0100  177.1830  137.4220 C   0  0  0  0  0  0  0  0  0  0  0  0
  181.0730  179.3400  137.1840 C   0  0  1  0  0  0  0  0  0  0  0  0
  188.3850  177.0850  137.1880 O   0  0  0  0  0  0  0  0  0  0  0  0
  189.2360  178.2210  137.1260 C   0  0  0  0  0  1  0  0  0  0  0  0
  181.6880  172.9430  137.2110 C   0  0  0  0  0  1  0  0  0  0  0  0
  181.8020  174.2250  136.6120 O   0  0  0  0  0  0  0  0  0  0  0  0
  179.8250  178.5610  137.6470 C   0  0  0  0  0  2  0  0  0  0  0  0
  178.9570  178.2480  136.5230 N   0  0  0  0  0  2  0  0  0  0  0  0
  178.9350  175.8460  135.5160 C   0  0  0  0  0  3  0  0  0  0  0  0
  178.9450  176.9580  135.9830 C   0  0  0  0  0  0  0  0  0  0  0  0
  180.8240  180.0430  135.9770 O   0  0  0  0  0  0  0  0  0  0  0  0
  180.6610  181.4180  136.2350 C   0  0  0  0  0  2  0  0  0  0  0  0
  180.4970  182.1600  134.9250 C   0  0  0  0  0  2  0  0  0  0  0  0
  180.3330  184.0940  135.9680 C   0  0  0  0  0  1  0  0  0  0  0  0
  181.0990  183.4130  135.0230 O   0  0  0  0  0  0  0  0  0  0  0  0
  183.1180  177.8260  140.5540 C   0  0  0  0  0  2  0  0  0  0  0  0
  182.7190  178.6220  141.7830 C   0  0  0  0  0  2  0  0  0  0  0  0
  183.5360  178.9410  144.1270 C   0  0  0  0  0  3  0  0  0  0  0  0
  183.7870  178.5240  142.8150 C   0  0  0  0  0  0  0  0  0  0  0  0
  185.0540  178.0450  142.4650 C   0  0  0  0  0  3  0  0  0  0  0  0
  187.6490  177.3740  142.9890 Cl  0  0  0  0  0  0  0  0  0  0  0  0
  185.8120  178.3860  144.7400 C   0  0  0  0  0  3  0  0  0  0  0  0
  186.0650  177.9740  143.4280 C   0  0  0  0  0  0  0  0  0  0  0  0
  184.5470  178.8700  145.0900 C   0  0  0  0  0  3  0  0  0  0  0  0
  2 12  1  0  0  0  0
  3  5  2  0  0  0  0
  3 14  1  0  0  0  0
  4 13  1  6  0  0  0
  4  1  1  0  0  0  0
  4  6  1  0  0  0  0
  5  8  1  0  0  0  0
  6 29  1  0  0  0  0
  7 10  2  0  0  0  0
  7  5  1  0  0  0  0
  8  4  1  0  0  0  0
  8 11  2  0  0  0  0
  9 11  1  0  0  0  0
 10  1  1  0  0  0  0
 12  6  1  0  0  0  0
 13 15  1  0  0  0  0
 14  9  2  0  0  0  0
 15 20  1  1  0  0  0
 15  2  1  0  0  0  0
 16 14  1  0  0  0  0
 17 16  1  0  0  0  0
 19 10  1  0  0  0  0
 19 18  1  0  0  0  0
 21 20  1  0  0  0  0
 22 23  3  0  0  0  0
 23 21  1  0  0  0  0
 24 25  1  0  0  0  0
 24 15  1  0  0  0  0
 26 28  1  0  0  0  0
 26 25  1  0  0  0  0
 28 27  1  0  0  0  0
 29 30  1  0  0  0  0
 30 32  1  0  0  0  0
 31 37  1  0  0  0  0
 32 31  2  0  0  0  0
 33 32  1  0  0  0  0
 33 36  2  0  0  0  0
 34 36  1  0  0  0  0
 35 37  2  0  0  0  0
 36 35  1  0  0  0  0
M  END
>  <MODEL>
3

>  <REMARK>
 VINA RESULT:      -5.7      1.871      2.663
  Name = 
  12 active torsions:
  status: ('A' for Active; 'I' for Inactive)
    1  A    between atoms: C_1  and  N_5
    2  A    between atoms: C_1  and  C_36
    3  A    between atoms: O_3  and  C_32
    4  A    between atoms: N_5  and  C_23
    5  A    between atoms: C_6  and  C_31
    6  A    between atoms: N_14  and  C_37
    7  A    between atoms: C_17  and  C_26
    8  A    between atoms: C_17  and  O_33
    9  A    between atoms: C_24  and  O_28
   10  A    between atoms: C_26  and  O_34
   11  A    between atoms: C_31  and  C_37
   12  A    between atoms: O_33  and  C_36
                            x       y       z     vdW  Elec       q    Type
                         _______ _______ _______ _____ _____    ______ ____

>  <TORSDO>
F 12

$$$$
=
 OpenBabel10262422593D

 37 40  0  0  1  0  0  0  0  0999 V2000
  184.1140  177.3690  137.8520 C   0  0  0  0  0  2  0  0  0  0  0  0
  182.3770  179.2870  141.0970 C   0  0  0  0  0  2  0  0  0  0  0  0
  181.4500  174.1050  137.5890 C   0  0  0  0  0  3  0  0  0  0  0  0
  182.8940  177.4410  138.7900 C   0  0  1  0  0  0  0  0  0  0  0  0
  182.3410  175.1520  137.8370 C   0  0  0  0  0  0  0  0  0  0  0  0
  182.3410  178.8210  138.6900 N   0  0  0  0  0  0  0  0  0  0  0  0
  183.7260  174.9850  137.5180 N   0  0  0  0  0  0  0  0  0  0  0  0
  181.8860  176.3460  138.4340 C   0  0  0  0  0  0  0  0  0  0  0  0
  179.6480  175.3950  138.5550 C   0  0  0  0  0  3  0  0  0  0  0  0
  184.5790  175.9630  137.5600 C   0  0  0  0  0  0  0  0  0  0  0  0
  180.5360  176.4400  138.8140 C   0  0  0  0  0  3  0  0  0  0  0  0
  181.5090  179.1470  139.8450 C   0  0  0  0  0  2  0  0  0  0  0  0
  183.3950  177.1490  140.2250 C   0  0  0  0  0  2  0  0  0  0  0  0
  180.0960  174.2250  137.9380 C   0  0  0  0  0  0  0  0  0  0  0  0
  183.6460  178.3990  141.0880 C   0  0  1  0  0  0  0  0  0  0  0  0
  179.1810  173.1980  137.6900 O   0  0  0  0  0  0  0  0  0  0  0  0
  179.5480  171.9800  137.0550 C   0  0  0  0  0  1  0  0  0  0  0  0
  186.8240  176.7180  136.8710 C   0  0  0  0  0  1  0  0  0  0  0  0
  185.9190  175.6990  137.2720 O   0  0  0  0  0  0  0  0  0  0  0  0
  184.8240  179.1960  140.4890 C   0  0  0  0  0  2  0  0  0  0  0  0
  186.0380  178.9950  141.2630 N   0  0  0  0  0  2  0  0  0  0  0  0
  188.2010  178.1250  140.1020 C   0  0  0  0  0  3  0  0  0  0  0  0
  187.2000  178.5290  140.6400 C   0  0  0  0  0  0  0  0  0  0  0  0
  183.9460  177.9430  142.3980 O   0  0  0  0  0  0  0  0  0  0  0  0
  183.2240  178.6850  143.3530 C   0  0  0  0  0  2  0  0  0  0  0  0
  184.1880  179.3110  144.3380 C   0  0  0  0  0  2  0  0  0  0  0  0
  184.9360  178.5570  146.2690 C   0  0  0  0  0  1  0  0  0  0  0  0
  183.7810  179.0150  145.6380 O   0  0  0  0  0  0  0  0  0  0  0  0
  181.5470  179.0260  137.4800 C   0  0  0  0  0  2  0  0  0  0  0  0
  180.4020  179.9810  137.7670 C   0  0  0  0  0  2  0  0  0  0  0  0
  180.3130  181.1410  135.5530 C   0  0  0  0  0  3  0  0  0  0  0  0
  180.5430  181.2030  136.9310 C   0  0  0  0  0  0  0  0  0  0  0  0
  180.9390  182.4100  137.5190 C   0  0  0  0  0  3  0  0  0  0  0  0
  181.5890  185.0620  137.4690 Cl  0  0  0  0  0  0  0  0  0  0  0  0
  180.8590  183.4930  135.3540 C   0  0  0  0  0  3  0  0  0  0  0  0
  181.0940  183.5540  136.7320 C   0  0  0  0  0  0  0  0  0  0  0  0
  180.4680  182.2860  134.7640 C   0  0  0  0  0  3  0  0  0  0  0  0
  3  5  2  0  0  0  0
  3 14  1  0  0  0  0
  4  1  1  6  0  0  0
  4 13  1  0  0  0  0
  5  8  1  0  0  0  0
  6  4  1  0  0  0  0
  6 12  1  0  0  0  0
  7 10  2  0  0  0  0
  7  5  1  0  0  0  0
  8  4  1  0  0  0  0
  8 11  2  0  0  0  0
  9 11  1  0  0  0  0
 10  1  1  0  0  0  0
 12  2  1  0  0  0  0
 13 15  1  0  0  0  0
 14  9  2  0  0  0  0
 15 20  1  6  0  0  0
 15  2  1  0  0  0  0
 15 24  1  0  0  0  0
 16 14  1  0  0  0  0
 17 16  1  0  0  0  0
 18 19  1  0  0  0  0
 19 10  1  0  0  0  0
 20 21  1  0  0  0  0
 22 23  3  0  0  0  0
 23 21  1  0  0  0  0
 24 25  1  0  0  0  0
 25 26  1  0  0  0  0
 26 28  1  0  0  0  0
 28 27  1  0  0  0  0
 29 30  1  0  0  0  0
 29  6  1  0  0  0  0
 31 32  1  0  0  0  0
 32 33  2  0  0  0  0
 32 30  1  0  0  0  0
 35 36  2  0  0  0  0
 36 34  1  0  0  0  0
 36 33  1  0  0  0  0
 37 35  1  0  0  0  0
 37 31  2  0  0  0  0
M  END
>  <MODEL>
4

>  <REMARK>
 VINA RESULT:      -5.6      3.205      7.106
  Name = 
  12 active torsions:
  status: ('A' for Active; 'I' for Inactive)
    1  A    between atoms: C_1  and  N_5
    2  A    between atoms: C_1  and  C_36
    3  A    between atoms: O_3  and  C_32
    4  A    between atoms: N_5  and  C_23
    5  A    between atoms: C_6  and  C_31
    6  A    between atoms: N_14  and  C_37
    7  A    between atoms: C_17  and  C_26
    8  A    between atoms: C_17  and  O_33
    9  A    between atoms: C_24  and  O_28
   10  A    between atoms: C_26  and  O_34
   11  A    between atoms: C_31  and  C_37
   12  A    between atoms: O_33  and  C_36
                            x       y       z     vdW  Elec       q    Type
                         _______ _______ _______ _____ _____    ______ ____

>  <TORSDO>
F 12

$$$$
=
 OpenBabel10262422593D

 37 40  0  0  1  0  0  0  0  0999 V2000
  180.4980  179.2080  140.3430 C   0  0  0  0  0  2  0  0  0  0  0  0
  183.9900  177.7960  138.6000 C   0  0  0  0  0  2  0  0  0  0  0  0
  179.6070  182.2310  137.5360 C   0  0  0  0  0  3  0  0  0  0  0  0
  181.4070  179.2360  139.1000 C   0  0  1  0  0  0  0  0  0  0  0  0
  180.0550  181.2910  138.4680 C   0  0  0  0  0  0  0  0  0  0  0  0
  181.5390  177.8320  138.6160 N   0  0  0  0  0  0  0  0  0  0  0  0
  179.7420  181.4730  139.8530 N   0  0  0  0  0  0  0  0  0  0  0  0
  180.8420  180.1980  138.0520 C   0  0  0  0  0  0  0  0  0  0  0  0
  180.7450  181.0370  135.7690 C   0  0  0  0  0  3  0  0  0  0  0  0
  179.9750  180.5630  140.7500 C   0  0  0  0  0  0  0  0  0  0  0  0
  181.2020  180.1010  136.6970 C   0  0  0  0  0  3  0  0  0  0  0  0
  182.7140  177.6700  137.7660 C   0  0  0  0  0  2  0  0  0  0  0  0
  182.7790  179.8000  139.5420 C   0  0  0  0  0  2  0  0  0  0  0  0
  179.9420  182.1030  136.1800 C   0  0  0  0  0  0  0  0  0  0  0  0
  183.8540  178.7330  139.8250 C   0  0  1  0  0  0  0  0  0  0  0  0
  179.4970  183.0230  135.2250 O   0  0  0  0  0  0  0  0  0  0  0  0
  180.1610  184.2550  134.9790 C   0  0  0  0  0  1  0  0  0  0  0  0
  179.8390  179.8810  143.1160 C   0  0  0  0  0  1  0  0  0  0  0  0
  179.6750  180.8430  142.0840 O   0  0  0  0  0  0  0  0  0  0  0  0
  183.4310  177.9080  141.0580 C   0  0  0  0  0  2  0  0  0  0  0  0
  183.2110  178.7650  142.2110 N   0  0  0  0  0  2  0  0  0  0  0  0
  184.7980  178.6220  144.2710 C   0  0  0  0  0  3  0  0  0  0  0  0
  184.0630  178.6870  143.3170 C   0  0  0  0  0  0  0  0  0  0  0  0
  185.0700  179.4260  140.0620 O   0  0  0  0  0  0  0  0  0  0  0  0
  186.1660  178.5500  139.9370 C   0  0  0  0  0  2  0  0  0  0  0  0
  187.0160  178.6260  141.1870 C   0  0  0  0  0  2  0  0  0  0  0  0
  188.3810  178.2440  139.5000 C   0  0  0  0  0  1  0  0  0  0  0  0
  188.3130  178.2130  140.8920 O   0  0  0  0  0  0  0  0  0  0  0  0
  180.3660  177.3780  137.8710 C   0  0  0  0  0  2  0  0  0  0  0  0
  180.7960  176.4670  136.7350 C   0  0  0  0  0  2  0  0  0  0  0  0
  179.3020  174.6960  137.6790 C   0  0  0  0  0  3  0  0  0  0  0  0
  180.5230  175.0500  137.0950 C   0  0  0  0  0  0  0  0  0  0  0  0
  181.5020  174.0740  136.8800 C   0  0  0  0  0  3  0  0  0  0  0  0
  182.4830  171.5260  136.9680 Cl  0  0  0  0  0  0  0  0  0  0  0  0
  180.0340  172.3910  137.8180 C   0  0  0  0  0  3  0  0  0  0  0  0
  181.2570  172.7450  137.2380 C   0  0  0  0  0  0  0  0  0  0  0  0
  179.0560  173.3670  138.0380 C   0  0  0  0  0  3  0  0  0  0  0  0
  1 10  1  0  0  0  0
  2 15  1  0  0  0  0
  3  5  1  0  0  0  0
  4 13  1  1  0  0  0
  4  1  1  0  0  0  0
  5  7  1  0  0  0  0
  6  4  1  0  0  0  0
  7 10  2  0  0  0  0
  8  5  2  0  0  0  0
  8  4  1  0  0  0  0
  9 14  1  0  0  0  0
  9 11  2  0  0  0  0
 10 19  1  0  0  0  0
 11  8  1  0  0  0  0
 12  2  1  0  0  0  0
 12  6  1  0  0  0  0
 13 15  1  0  0  0  0
 14  3  2  0  0  0  0
 15 24  1  0  0  0  0
 15 20  1  1  0  0  0
 16 14  1  0  0  0  0
 17 16  1  0  0  0  0
 19 18  1  0  0  0  0
 20 21  1  0  0  0  0
 21 23  1  0  0  0  0
 23 22  3  0  0  0  0
 25 24  1  0  0  0  0
 25 26  1  0  0  0  0
 27 28  1  0  0  0  0
 28 26  1  0  0  0  0
 29  6  1  0  0  0  0
 30 32  1  0  0  0  0
 30 29  1  0  0  0  0
 31 37  1  0  0  0  0
 32 31  2  0  0  0  0
 33 32  1  0  0  0  0
 33 36  2  0  0  0  0
 34 36  1  0  0  0  0
 35 37  2  0  0  0  0
 36 35  1  0  0  0  0
M  END
>  <MODEL>
5

>  <REMARK>
 VINA RESULT:      -5.3      3.086      7.360
  Name = 
  12 active torsions:
  status: ('A' for Active; 'I' for Inactive)
    1  A    between atoms: C_1  and  N_5
    2  A    between atoms: C_1  and  C_36
    3  A    between atoms: O_3  and  C_32
    4  A    between atoms: N_5  and  C_23
    5  A    between atoms: C_6  and  C_31
    6  A    between atoms: N_14  and  C_37
    7  A    between atoms: C_17  and  C_26
    8  A    between atoms: C_17  and  O_33
    9  A    between atoms: C_24  and  O_28
   10  A    between atoms: C_26  and  O_34
   11  A    between atoms: C_31  and  C_37
   12  A    between atoms: O_33  and  C_36
                            x       y       z     vdW  Elec       q    Type
                         _______ _______ _______ _____ _____    ______ ____

>  <TORSDO>
F 12

$$$$
=
 OpenBabel10262422593D

 37 40  0  0  1  0  0  0  0  0999 V2000
  188.3190  174.8570  137.8810 C   0  0  0  0  0  2  0  0  0  0  0  0
  188.6380  178.9900  137.6720 C   0  0  0  0  0  2  0  0  0  0  0  0
  191.8510  173.8760  135.7890 C   0  0  0  0  0  3  0  0  0  0  0  0
  189.2250  176.0510  137.5280 C   0  0  1  0  0  0  0  0  0  0  0  0
  190.6490  174.3040  136.3580 C   0  0  0  0  0  0  0  0  0  0  0  0
  189.3330  176.9000  138.7500 N   0  0  0  0  0  0  0  0  0  0  0  0
  189.4860  173.4780  136.2440 N   0  0  0  0  0  0  0  0  0  0  0  0
  190.5740  175.5570  137.0010 C   0  0  0  0  0  0  0  0  0  0  0  0
  192.9150  175.9420  136.4560 C   0  0  0  0  0  3  0  0  0  0  0  0
  188.3840  173.7250  136.8850 C   0  0  0  0  0  0  0  0  0  0  0  0
  191.7140  176.3780  137.0170 C   0  0  0  0  0  3  0  0  0  0  0  0
  189.7550  178.2580  138.4190 C   0  0  0  0  0  2  0  0  0  0  0  0
  188.5430  176.8270  136.3760 C   0  0  0  0  0  2  0  0  0  0  0  0
  192.9930  174.6890  135.8440 C   0  0  0  0  0  0  0  0  0  0  0  0
  187.7380  178.0640  136.8170 C   0  0  1  0  0  0  0  0  0  0  0  0
  194.2120  174.2800  135.2940 O   0  0  0  0  0  0  0  0  0  0  0  0
  195.4600  174.8230  135.7040 C   0  0  0  0  0  1  0  0  0  0  0  0
  186.0910  173.0070  137.4400 C   0  0  0  0  0  1  0  0  0  0  0  0
  187.2860  172.8880  136.6820 O   0  0  0  0  0  0  0  0  0  0  0  0
  186.5300  177.6050  137.6580 C   0  0  0  0  0  2  0  0  0  0  0  0
  186.1320  178.6320  138.6070 N   0  0  0  0  0  2  0  0  0  0  0  0
  183.6510  178.8100  139.3790 C   0  0  0  0  0  3  0  0  0  0  0  0
  184.8000  178.7280  139.0210 C   0  0  0  0  0  0  0  0  0  0  0  0
  187.3210  178.7280  135.6340 O   0  0  0  0  0  0  0  0  0  0  0  0
  187.0340  177.7920  134.6220 C   0  0  0  0  0  2  0  0  0  0  0  0
  185.5450  177.5190  134.5950 C   0  0  0  0  0  2  0  0  0  0  0  0
  183.9280  176.0390  134.8190 C   0  0  0  0  0  1  0  0  0  0  0  0
  185.3150  176.1700  134.8580 O   0  0  0  0  0  0  0  0  0  0  0  0
  190.2650  176.3560  139.7360 C   0  0  0  0  0  2  0  0  0  0  0  0
  190.9200  177.4870  140.5080 C   0  0  0  0  0  2  0  0  0  0  0  0
  191.6010  177.1020  142.8840 C   0  0  0  0  0  3  0  0  0  0  0  0
  190.5900  177.3680  141.9540 C   0  0  0  0  0  0  0  0  0  0  0  0
  189.2630  177.4870  142.3800 C   0  0  0  0  0  3  0  0  0  0  0  0
  187.2880  177.5030  144.2660 Cl  0  0  0  0  0  0  0  0  0  0  0  0
  189.9600  177.0920  144.6660 C   0  0  0  0  0  3  0  0  0  0  0  0
  188.9480  177.3520  143.7350 C   0  0  0  0  0  0  0  0  0  0  0  0
  191.2860  176.9670  144.2410 C   0  0  0  0  0  3  0  0  0  0  0  0
  2 12  1  0  0  0  0
  3 14  2  0  0  0  0
  3  5  1  0  0  0  0
  4 13  1  6  0  0  0
  4  1  1  0  0  0  0
  4  6  1  0  0  0  0
  5  8  2  0  0  0  0
  6 29  1  0  0  0  0
  7  5  1  0  0  0  0
  7 10  2  0  0  0  0
  8 11  1  0  0  0  0
  8  4  1  0  0  0  0
  9 11  2  0  0  0  0
 10  1  1  0  0  0  0
 12  6  1  0  0  0  0
 13 15  1  0  0  0  0
 14  9  1  0  0  0  0
 15 20  1  1  0  0  0
 15  2  1  0  0  0  0
 16 17  1  0  0  0  0
 16 14  1  0  0  0  0
 19 10  1  0  0  0  0
 19 18  1  0  0  0  0
 20 21  1  0  0  0  0
 21 23  1  0  0  0  0
 23 22  3  0  0  0  0
 24 15  1  0  0  0  0
 25 24  1  0  0  0  0
 26 25  1  0  0  0  0
 26 28  1  0  0  0  0
 27 28  1  0  0  0  0
 29 30  1  0  0  0  0
 30 32  1  0  0  0  0
 31 37  1  0  0  0  0
 32 33  1  0  0  0  0
 32 31  2  0  0  0  0
 33 36  2  0  0  0  0
 36 34  1  0  0  0  0
 36 35  1  0  0  0  0
 37 35  2  0  0  0  0
M  END
>  <MODEL>
6

>  <REMARK>
 VINA RESULT:      -5.0      4.592      7.013
  Name = 
  12 active torsions:
  status: ('A' for Active; 'I' for Inactive)
    1  A    between atoms: C_1  and  N_5
    2  A    between atoms: C_1  and  C_36
    3  A    between atoms: O_3  and  C_32
    4  A    between atoms: N_5  and  C_23
    5  A    between atoms: C_6  and  C_31
    6  A    between atoms: N_14  and  C_37
    7  A    between atoms: C_17  and  C_26
    8  A    between atoms: C_17  and  O_33
    9  A    between atoms: C_24  and  O_28
   10  A    between atoms: C_26  and  O_34
   11  A    between atoms: C_31  and  C_37
   12  A    between atoms: O_33  and  C_36
                            x       y       z     vdW  Elec       q    Type
                         _______ _______ _______ _____ _____    ______ ____

>  <TORSDO>
F 12

$$$$
=
 OpenBabel10262422593D

 37 40  0  0  1  0  0  0  0  0999 V2000
  181.0600  177.8500  139.2650 C   0  0  0  0  0  2  0  0  0  0  0  0
  183.6510  177.3200  136.0660 C   0  0  0  0  0  2  0  0  0  0  0  0
  180.2390  181.9510  138.6980 C   0  0  0  0  0  3  0  0  0  0  0  0
  181.6400  178.4630  137.9760 C   0  0  1  0  0  0  0  0  0  0  0  0
  180.6700  180.6330  138.8690 C   0  0  0  0  0  0  0  0  0  0  0  0
  181.3410  177.5160  136.8630 N   0  0  0  0  0  0  0  0  0  0  0  0
  180.7340  180.0830  140.1880 N   0  0  0  0  0  0  0  0  0  0  0  0
  181.0770  179.8690  137.7560 C   0  0  0  0  0  0  0  0  0  0  0  0
  180.6430  181.7850  136.3200 C   0  0  0  0  0  3  0  0  0  0  0  0
  180.9600  178.8240  140.4130 C   0  0  0  0  0  0  0  0  0  0  0  0
  181.0830  180.4710  136.4870 C   0  0  0  0  0  3  0  0  0  0  0  0
  182.2220  177.7420  135.7210 C   0  0  0  0  0  2  0  0  0  0  0  0
  183.1670  178.6110  138.1790 C   0  0  0  0  0  2  0  0  0  0  0  0
  180.2140  182.5310  137.4200 C   0  0  0  0  0  0  0  0  0  0  0  0
  184.0140  177.4820  137.5630 C   0  0  1  0  0  0  0  0  0  0  0  0
  179.7760  183.8440  137.2190 O   0  0  0  0  0  0  0  0  0  0  0  0
  180.6340  184.8750  136.7500 C   0  0  0  0  0  1  0  0  0  0  0  0
  180.5680  179.1540  142.8260 C   0  0  0  0  0  1  0  0  0  0  0  0
  181.0470  178.3810  141.7340 O   0  0  0  0  0  0  0  0  0  0  0  0
  183.7150  176.1650  138.3070 C   0  0  0  0  0  2  0  0  0  0  0  0
  183.7070  175.0360  137.3910 N   0  0  0  0  0  2  0  0  0  0  0  0
  185.2920  173.0090  137.7970 C   0  0  0  0  0  3  0  0  0  0  0  0
  184.5580  173.9480  137.6100 C   0  0  0  0  0  0  0  0  0  0  0  0
  185.3740  177.8600  137.7090 O   0  0  0  0  0  0  0  0  0  0  0  0
  186.1070  177.5070  136.5590 C   0  0  0  0  0  2  0  0  0  0  0  0
  187.2720  178.4610  136.3920 C   0  0  0  0  0  2  0  0  0  0  0  0
  189.0720  178.9830  137.5500 C   0  0  0  0  0  1  0  0  0  0  0  0
  187.6840  178.9130  137.6440 O   0  0  0  0  0  0  0  0  0  0  0  0
  179.9570  177.6050  136.4010 C   0  0  0  0  0  2  0  0  0  0  0  0
  179.5670  176.3260  135.6830 C   0  0  0  0  0  2  0  0  0  0  0  0
  178.9310  175.1460  137.7950 C   0  0  0  0  0  3  0  0  0  0  0  0
  179.6800  175.1710  136.6130 C   0  0  0  0  0  0  0  0  0  0  0  0
  180.5610  174.1240  136.3240 C   0  0  0  0  0  3  0  0  0  0  0  0
  181.7880  171.7400  136.8440 Cl  0  0  0  0  0  0  0  0  0  0  0  0
  179.9320  173.0220  138.3870 C   0  0  0  0  0  3  0  0  0  0  0  0
  180.6860  173.0490  137.2080 C   0  0  0  0  0  0  0  0  0  0  0  0
  179.0550  174.0710  138.6810 C   0  0  0  0  0  3  0  0  0  0  0  0
  1 10  1  0  0  0  0
  2 15  1  0  0  0  0
  3  5  1  0  0  0  0
  4 13  1  1  0  0  0
  4  1  1  0  0  0  0
  5  7  1  0  0  0  0
  6  4  1  0  0  0  0
  7 10  2  0  0  0  0
  8  4  1  0  0  0  0
  8  5  2  0  0  0  0
  9 11  2  0  0  0  0
  9 14  1  0  0  0  0
 10 19  1  0  0  0  0
 11  8  1  0  0  0  0
 12  2  1  0  0  0  0
 12  6  1  0  0  0  0
 14  3  2  0  0  0  0
 15 24  1  0  0  0  0
 15 13  1  0  0  0  0
 15 20  1  1  0  0  0
 16 14  1  0  0  0  0
 17 16  1  0  0  0  0
 19 18  1  0  0  0  0
 21 23  1  0  0  0  0
 21 20  1  0  0  0  0
 23 22  3  0  0  0  0
 25 24  1  0  0  0  0
 26 25  1  0  0  0  0
 26 28  1  0  0  0  0
 27 28  1  0  0  0  0
 29  6  1  0  0  0  0
 30 29  1  0  0  0  0
 30 32  1  0  0  0  0
 31 37  1  0  0  0  0
 32 31  2  0  0  0  0
 33 32  1  0  0  0  0
 33 36  2  0  0  0  0
 34 36  1  0  0  0  0
 35 37  2  0  0  0  0
 36 35  1  0  0  0  0
M  END
>  <MODEL>
7

>  <REMARK>
 VINA RESULT:      -4.8      3.270      7.538
  Name = 
  12 active torsions:
  status: ('A' for Active; 'I' for Inactive)
    1  A    between atoms: C_1  and  N_5
    2  A    between atoms: C_1  and  C_36
    3  A    between atoms: O_3  and  C_32
    4  A    between atoms: N_5  and  C_23
    5  A    between atoms: C_6  and  C_31
    6  A    between atoms: N_14  and  C_37
    7  A    between atoms: C_17  and  C_26
    8  A    between atoms: C_17  and  O_33
    9  A    between atoms: C_24  and  O_28
   10  A    between atoms: C_26  and  O_34
   11  A    between atoms: C_31  and  C_37
   12  A    between atoms: O_33  and  C_36
                            x       y       z     vdW  Elec       q    Type
                         _______ _______ _______ _____ _____    ______ ____

>  <TORSDO>
F 12

$$$$
=
 OpenBabel10262422593D

 37 40  0  0  1  0  0  0  0  0999 V2000
  191.6240  176.5350  138.0380 C   0  0  0  0  0  2  0  0  0  0  0  0
  188.7970  177.8490  140.7770 C   0  0  0  0  0  2  0  0  0  0  0  0
  189.3230  173.5070  136.2070 C   0  0  0  0  0  3  0  0  0  0  0  0
  190.1500  176.4730  138.4810 C   0  0  1  0  0  0  0  0  0  0  0  0
  190.0370  174.4450  136.9570 C   0  0  0  0  0  0  0  0  0  0  0  0
  189.6270  177.8700  138.4710 N   0  0  0  0  0  0  0  0  0  0  0  0
  191.4500  174.2830  137.1190 N   0  0  0  0  0  0  0  0  0  0  0  0
  189.3660  175.5150  137.5820 C   0  0  0  0  0  0  0  0  0  0  0  0
  187.2590  174.6580  136.7150 C   0  0  0  0  0  3  0  0  0  0  0  0
  192.2040  175.1950  137.6540 C   0  0  0  0  0  0  0  0  0  0  0  0
  187.9670  175.5920  137.4720 C   0  0  0  0  0  3  0  0  0  0  0  0
  188.4320  177.9960  139.2990 C   0  0  0  0  0  2  0  0  0  0  0  0
  190.1200  175.8830  139.9110 C   0  0  0  0  0  2  0  0  0  0  0  0
  187.9300  173.6150  136.0740 C   0  0  0  0  0  0  0  0  0  0  0  0
  190.0130  176.9260  141.0390 C   0  0  1  0  0  0  0  0  0  0  0  0
  187.1930  172.6970  135.3200 O   0  0  0  0  0  0  0  0  0  0  0  0
  186.1410  171.9180  135.8740 C   0  0  0  0  0  1  0  0  0  0  0  0
  194.1870  173.7850  137.2550 C   0  0  0  0  0  1  0  0  0  0  0  0
  193.5660  174.9360  137.8100 O   0  0  0  0  0  0  0  0  0  0  0  0
  191.3020  177.7730  141.0650 C   0  0  0  0  0  2  0  0  0  0  0  0
  192.0390  177.5650  142.3010 N   0  0  0  0  0  2  0  0  0  0  0  0
  191.6740  179.1600  144.3270 C   0  0  0  0  0  3  0  0  0  0  0  0
  191.8420  178.4210  143.3890 C   0  0  0  0  0  0  0  0  0  0  0  0
  189.8430  176.2070  142.2510 O   0  0  0  0  0  0  0  0  0  0  0  0
  188.6770  176.6340  142.9150 C   0  0  0  0  0  2  0  0  0  0  0  0
  188.9650  176.7850  144.3930 C   0  0  0  0  0  2  0  0  0  0  0  0
  187.6470  177.4930  146.0110 C   0  0  0  0  0  1  0  0  0  0  0  0
  188.3300  177.9270  144.8760 O   0  0  0  0  0  0  0  0  0  0  0  0
  189.3060  178.3440  137.1260 C   0  0  0  0  0  2  0  0  0  0  0  0
  188.0340  179.1710  137.1580 C   0  0  0  0  0  2  0  0  0  0  0  0
  187.0490  177.9240  135.2250 C   0  0  0  0  0  3  0  0  0  0  0  0
  186.9210  178.4080  136.5320 C   0  0  0  0  0  0  0  0  0  0  0  0
  185.7310  178.2030  137.2380 C   0  0  0  0  0  3  0  0  0  0  0  0
  183.1870  177.2500  137.5280 Cl  0  0  0  0  0  0  0  0  0  0  0  0
  184.8060  177.0180  135.3390 C   0  0  0  0  0  3  0  0  0  0  0  0
  184.6750  177.5060  136.6430 C   0  0  0  0  0  0  0  0  0  0  0  0
  185.9930  177.2260  134.6300 C   0  0  0  0  0  3  0  0  0  0  0  0
  2 15  1  0  0  0  0
  3  5  1  0  0  0  0
  4  1  1  6  0  0  0
  4 13  1  0  0  0  0
  5  7  1  0  0  0  0
  5  8  2  0  0  0  0
  6  4  1  0  0  0  0
  6 12  1  0  0  0  0
  7 10  2  0  0  0  0
  8  4  1  0  0  0  0
  9 11  2  0  0  0  0
 10 19  1  0  0  0  0
 10  1  1  0  0  0  0
 11  8  1  0  0  0  0
 12  2  1  0  0  0  0
 13 15  1  0  0  0  0
 14  3  2  0  0  0  0
 14  9  1  0  0  0  0
 15 20  1  1  0  0  0
 15 24  1  0  0  0  0
 16 17  1  0  0  0  0
 16 14  1  0  0  0  0
 18 19  1  0  0  0  0
 20 21  1  0  0  0  0
 21 23  1  0  0  0  0
 23 22  3  0  0  0  0
 24 25  1  0  0  0  0
 25 26  1  0  0  0  0
 26 28  1  0  0  0  0
 28 27  1  0  0  0  0
 29 30  1  0  0  0  0
 29  6  1  0  0  0  0
 31 32  1  0  0  0  0
 32 30  1  0  0  0  0
 32 33  2  0  0  0  0
 35 36  2  0  0  0  0
 36 33  1  0  0  0  0
 36 34  1  0  0  0  0
 37 31  2  0  0  0  0
 37 35  1  0  0  0  0
M  END
>  <MODEL>
8

>  <REMARK>
 VINA RESULT:      -4.8      5.781      9.353
  Name = 
  12 active torsions:
  status: ('A' for Active; 'I' for Inactive)
    1  A    between atoms: C_1  and  N_5
    2  A    between atoms: C_1  and  C_36
    3  A    between atoms: O_3  and  C_32
    4  A    between atoms: N_5  and  C_23
    5  A    between atoms: C_6  and  C_31
    6  A    between atoms: N_14  and  C_37
    7  A    between atoms: C_17  and  C_26
    8  A    between atoms: C_17  and  O_33
    9  A    between atoms: C_24  and  O_28
   10  A    between atoms: C_26  and  O_34
   11  A    between atoms: C_31  and  C_37
   12  A    between atoms: O_33  and  C_36
                            x       y       z     vdW  Elec       q    Type
                         _______ _______ _______ _____ _____    ______ ____

>  <TORSDO>
F 12

$$$$
=
 OpenBabel10262422593D

 37 40  0  0  1  0  0  0  0  0999 V2000
  190.4740  175.8060  139.0140 C   0  0  0  0  0  2  0  0  0  0  0  0
  193.0350  174.9350  135.8660 C   0  0  0  0  0  2  0  0  0  0  0  0
  187.4480  177.7490  136.8040 C   0  0  0  0  0  3  0  0  0  0  0  0
  190.6480  175.7620  137.4840 C   0  0  1  0  0  0  0  0  0  0  0  0
  188.5560  177.2020  137.4550 C   0  0  0  0  0  0  0  0  0  0  0  0
  191.0080  174.3610  137.1200 N   0  0  0  0  0  0  0  0  0  0  0  0
  188.8670  177.6250  138.7860 N   0  0  0  0  0  0  0  0  0  0  0  0
  189.3830  176.2730  136.7910 C   0  0  0  0  0  0  0  0  0  0  0  0
  187.9830  176.4890  134.8110 C   0  0  0  0  0  3  0  0  0  0  0  0
  189.7720  177.0450  139.5140 C   0  0  0  0  0  0  0  0  0  0  0  0
  189.0970  175.9470  135.4540 C   0  0  0  0  0  3  0  0  0  0  0  0
  191.6450  174.2990  135.8070 C   0  0  0  0  0  2  0  0  0  0  0  0
  191.7920  176.7380  137.1190 C   0  0  0  0  0  2  0  0  0  0  0  0
  187.1490  177.3870  135.4810 C   0  0  0  0  0  0  0  0  0  0  0  0
  193.1660  176.0740  136.9070 C   0  0  1  0  0  0  0  0  0  0  0  0
  186.0400  177.9110  134.8110 O   0  0  0  0  0  0  0  0  0  0  0  0
  184.8510  177.1620  134.5940 C   0  0  0  0  0  1  0  0  0  0  0  0
  189.0100  177.7990  141.7350 C   0  0  0  0  0  1  0  0  0  0  0  0
  190.0380  177.5510  140.7870 O   0  0  0  0  0  0  0  0  0  0  0  0
  193.6540  175.4890  138.2480 C   0  0  0  0  0  2  0  0  0  0  0  0
  195.0510  175.0950  138.1690 N   0  0  0  0  0  2  0  0  0  0  0  0
  195.7180  172.5860  138.3780 C   0  0  0  0  0  3  0  0  0  0  0  0
  195.4090  173.7480  138.2820 C   0  0  0  0  0  0  0  0  0  0  0  0
  194.0440  177.0840  136.4350 O   0  0  0  0  0  0  0  0  0  0  0  0
  194.5060  176.7670  135.1430 C   0  0  0  0  0  2  0  0  0  0  0  0
  195.8680  177.3930  134.9280 C   0  0  0  0  0  2  0  0  0  0  0  0
  197.1590  175.6180  135.1230 C   0  0  0  0  0  1  0  0  0  0  0  0
  196.7950  176.7940  135.7780 O   0  0  0  0  0  0  0  0  0  0  0  0
  189.8530  173.4640  137.1130 C   0  0  0  0  0  2  0  0  0  0  0  0
  189.8070  172.6900  135.8080 C   0  0  0  0  0  2  0  0  0  0  0  0
  188.3790  170.8430  134.9090 C   0  0  0  0  0  3  0  0  0  0  0  0
  188.4910  172.0110  135.6720 C   0  0  0  0  0  0  0  0  0  0  0  0
  187.3560  172.5570  136.2800 C   0  0  0  0  0  3  0  0  0  0  0  0
  184.6950  172.6180  136.8970 Cl  0  0  0  0  0  0  0  0  0  0  0  0
  186.0040  170.7620  135.3760 C   0  0  0  0  0  3  0  0  0  0  0  0
  186.1140  171.9330  136.1350 C   0  0  0  0  0  0  0  0  0  0  0  0
  187.1370  170.2170  134.7630 C   0  0  0  0  0  3  0  0  0  0  0  0
  1 10  1  0  0  0  0
  2 15  1  0  0  0  0
  3  5  1  0  0  0  0
  4 13  1  6  0  0  0
  4  1  1  0  0  0  0
  5  7  1  0  0  0  0
  6  4  1  0  0  0  0
  7 10  2  0  0  0  0
  8  5  2  0  0  0  0
  8  4  1  0  0  0  0
  9 11  2  0  0  0  0
  9 14  1  0  0  0  0
 10 19  1  0  0  0  0
 11  8  1  0  0  0  0
 12  2  1  0  0  0  0
 12  6  1  0  0  0  0
 14  3  2  0  0  0  0
 15 13  1  0  0  0  0
 15 20  1  1  0  0  0
 16 14  1  0  0  0  0
 17 16  1  0  0  0  0
 19 18  1  0  0  0  0
 21 20  1  0  0  0  0
 21 23  1  0  0  0  0
 23 22  3  0  0  0  0
 24 15  1  0  0  0  0
 25 24  1  0  0  0  0
 26 25  1  0  0  0  0
 26 28  1  0  0  0  0
 27 28  1  0  0  0  0
 29  6  1  0  0  0  0
 30 29  1  0  0  0  0
 31 32  1  0  0  0  0
 32 30  1  0  0  0  0
 32 33  2  0  0  0  0
 35 36  2  0  0  0  0
 36 33  1  0  0  0  0
 36 34  1  0  0  0  0
 37 31  2  0  0  0  0
 37 35  1  0  0  0  0
M  END
>  <MODEL>
9

>  <REMARK>
 VINA RESULT:      -4.6      6.384     11.391
  Name = 
  12 active torsions:
  status: ('A' for Active; 'I' for Inactive)
    1  A    between atoms: C_1  and  N_5
    2  A    between atoms: C_1  and  C_36
    3  A    between atoms: O_3  and  C_32
    4  A    between atoms: N_5  and  C_23
    5  A    between atoms: C_6  and  C_31
    6  A    between atoms: N_14  and  C_37
    7  A    between atoms: C_17  and  C_26
    8  A    between atoms: C_17  and  O_33
    9  A    between atoms: C_24  and  O_28
   10  A    between atoms: C_26  and  O_34
   11  A    between atoms: C_31  and  C_37
   12  A    between atoms: O_33  and  C_36
                            x       y       z     vdW  Elec       q    Type
                         _______ _______ _______ _____ _____    ______ ____

>  <TORSDO>
F 12

$$$$
