=
 OpenBabel10262422243D

 43 48  0  0  1  0  0  0  0  0999 V2000
  189.4080  177.4970  138.7820 C   0  0  2  0  0  3  0  0  0  0  0  0
  183.0070  178.6630  138.9040 C   0  0  0  0  0  0  0  0  0  0  0  0
  187.9330  177.6880  138.5590 C   0  0  0  0  0  0  0  0  0  0  0  0
  185.1900  177.9300  138.1610 C   0  0  0  0  0  0  0  0  0  0  0  0
  183.5760  179.1810  140.0720 C   0  0  0  0  0  3  0  0  0  0  0  0
  181.6050  178.7800  138.6850 N   0  0  0  0  0  1  0  0  0  0  0  0
  185.7700  178.4440  139.3400 C   0  0  0  0  0  0  0  0  0  0  0  0
  183.8130  178.0400  137.9480 C   0  0  0  0  0  3  0  0  0  0  0  0
  184.9530  179.0730  140.2900 C   0  0  0  0  0  3  0  0  0  0  0  0
  187.7400  178.7960  140.7110 O   0  0  0  0  0  1  0  0  0  0  0  0
  187.1500  178.3160  139.5430 C   0  0  0  0  0  0  0  0  0  0  0  0
  187.3400  177.2000  137.4350 N   0  0  0  0  0  0  0  0  0  0  0  0
  186.0040  177.3110  137.2140 C   0  0  0  0  0  3  0  0  0  0  0  0
  190.2650  177.4330  137.5070 C   0  0  0  0  0  2  0  0  0  0  0  0
  193.5550  175.5760  137.8970 C   0  0  0  0  0  3  0  0  0  0  0  0
  193.2020  174.2880  137.4590 C   0  0  0  0  0  0  0  0  0  0  0  0
  190.9350  175.0610  137.0720 C   0  0  0  0  0  3  0  0  0  0  0  0
  192.6020  176.5980  137.9190 C   0  0  0  0  0  3  0  0  0  0  0  0
  191.2910  176.3430  137.5010 C   0  0  0  0  0  0  0  0  0  0  0  0
  191.8880  174.0370  137.0510 C   0  0  0  0  0  3  0  0  0  0  0  0
  194.1310  173.2450  137.4210 O   0  0  0  0  0  0  0  0  0  0  0  0
  195.2050  173.1360  138.3490 C   0  0  0  0  0  1  0  0  0  0  0  0
  189.7520  176.4830  139.8780 C   0  0  0  0  0  2  0  0  0  0  0  0
  190.6010  177.0900  140.9850 C   0  0  0  0  0  2  0  0  0  0  0  0
  189.2100  176.2250  142.5280 O   0  0  0  0  0  1  0  0  0  0  0  0
  190.5180  176.2610  142.1760 N   0  0  0  0  0  0  0  0  0  0  0  0
  190.2690  177.7740  144.0880 C   0  0  2  0  0  3  0  0  0  0  0  0
  191.8610  178.2280  142.7200 C   0  0  0  0  0  2  0  0  0  0  0  0
  191.2380  176.9450  143.2480 C   0  0  2  0  0  3  0  0  0  0  0  0
  190.8920  179.0480  143.5480 C   0  0  0  0  0  2  0  0  0  0  0  0
  190.5660  177.6350  145.5860 C   0  0  2  0  0  3  0  0  0  0  0  0
  189.7060  176.5900  147.6100 C   0  0  0  0  0  2  0  0  0  0  0  0
  191.3980  176.4110  145.8910 C   0  0  0  0  0  2  0  0  0  0  0  0
  189.3130  177.4980  146.4490 C   0  0  1  0  0  0  0  0  0  0  0  0
  188.9410  178.7550  146.9290 O   0  0  0  0  0  1  0  0  0  0  0  0
  191.1270  176.1230  147.3510 C   0  0  0  0  0  2  0  0  0  0  0  0
  188.2390  176.9140  145.7020 O   0  0  0  0  0  0  0  0  0  0  0  0
  187.0050  177.5290  145.4480 C   0  0  0  0  0  0  0  0  0  0  0  0
  184.9330  178.5630  146.1890 C   0  0  0  0  0  3  0  0  0  0  0  0
  185.3930  178.3390  143.8230 C   0  0  0  0  0  3  0  0  0  0  0  0
  184.5520  178.7560  144.8590 C   0  0  0  0  0  3  0  0  0  0  0  0
  186.6170  177.7290  144.1180 C   0  0  0  0  0  3  0  0  0  0  0  0
  186.1550  177.9520  146.4840 C   0  0  0  0  0  3  0  0  0  0  0  0
  1 14  1  6  0  0  0
  1 23  1  0  0  0  0
  2  5  1  0  0  0  0
  3  1  1  0  0  0  0
  3 11  1  0  0  0  0
  4  7  1  0  0  0  0
  5  9  2  0  0  0  0
  6  2  1  0  0  0  0
  7 11  2  0  0  0  0
  7  9  1  0  0  0  0
  8  4  1  0  0  0  0
  8  2  2  0  0  0  0
 11 10  1  0  0  0  0
 12  3  2  0  0  0  0
 13 12  1  0  0  0  0
 13  4  2  0  0  0  0
 15 18  1  0  0  0  0
 16 15  2  0  0  0  0
 17 19  1  0  0  0  0
 19 14  1  0  0  0  0
 19 18  2  0  0  0  0
 20 17  2  0  0  0  0
 20 16  1  0  0  0  0
 21 16  1  0  0  0  0
 21 22  1  0  0  0  0
 23 24  1  0  0  0  0
 24 26  1  0  0  0  0
 26 25  1  0  0  0  0
 27 30  1  6  0  0  0
 27 31  1  0  0  0  0
 28 29  1  0  0  0  0
 28 30  1  0  0  0  0
 29 26  1  6  0  0  0
 29 27  1  0  0  0  0
 31 33  1  6  0  0  0
 31 34  1  0  0  0  0
 33 36  1  0  0  0  0
 34 35  1  1  0  0  0
 34 32  1  0  0  0  0
 36 32  1  0  0  0  0
 37 34  1  0  0  0  0
 38 37  1  0  0  0  0
 38 43  1  0  0  0  0
 39 43  2  0  0  0  0
 40 42  1  0  0  0  0
 40 41  2  0  0  0  0
 41 39  1  0  0  0  0
 42 38  2  0  0  0  0
M  END
>  <MODEL>
1

>  <REMARK>
 VINA RESULT:      -9.1      0.000      0.000
  Name = 
  11 active torsions:
  status: ('A' for Active; 'I' for Inactive)
    1  A    between atoms: C_1  and  C_34
    2  A    between atoms: C_1  and  C_35
    3  A    between atoms: C_3  and  C_4
    4  A    between atoms: N_6  and  C_12
    5  A    between atoms: N_6  and  C_13
    6  A    between atoms: C_8  and  C_34
    7  A    between atoms: C_11  and  O_14
    8  A    between atoms: C_13  and  C_38
    9  A    between atoms: O_14  and  C_22
   10  A    between atoms: C_19  and  O_25
   11  A    between atoms: C_34  and  C_38
                            x       y       z     vdW  Elec       q    Type
                         _______ _______ _______ _____ _____    ______ ____

>  <TORSDO>
F 11

$$$$
=
 OpenBabel10262422243D

 43 48  0  0  1  0  0  0  0  0999 V2000
  188.3180  177.3130  143.1960 C   0  0  2  0  0  3  0  0  0  0  0  0
  182.1250  179.3110  143.1830 C   0  0  0  0  0  0  0  0  0  0  0  0
  186.9400  177.8660  142.9520 C   0  0  0  0  0  0  0  0  0  0  0  0
  184.3690  178.7960  142.4400 C   0  0  0  0  0  0  0  0  0  0  0  0
  182.4560  178.8990  144.4780 C   0  0  0  0  0  3  0  0  0  0  0  0
  180.8130  179.7900  142.9050 N   0  0  0  0  0  1  0  0  0  0  0  0
  184.7080  178.3720  143.7420 C   0  0  0  0  0  0  0  0  0  0  0  0
  183.0800  179.2610  142.1650 C   0  0  0  0  0  3  0  0  0  0  0  0
  183.7440  178.4310  144.7580 C   0  0  0  0  0  3  0  0  0  0  0  0
  186.3520  177.4530  145.2710 O   0  0  0  0  0  1  0  0  0  0  0  0
  186.0010  177.8970  143.9980 C   0  0  0  0  0  0  0  0  0  0  0  0
  186.5770  178.2790  141.7070 N   0  0  0  0  0  0  0  0  0  0  0  0
  185.3300  178.7420  141.4320 C   0  0  0  0  0  3  0  0  0  0  0  0
  189.2590  178.2210  144.0040 C   0  0  0  0  0  2  0  0  0  0  0  0
  190.3300  176.9110  147.4050 C   0  0  0  0  0  3  0  0  0  0  0  0
  191.5070  176.2160  147.0780 C   0  0  0  0  0  0  0  0  0  0  0  0
  191.1970  176.8230  144.7490 C   0  0  0  0  0  3  0  0  0  0  0  0
  189.5940  177.5580  146.4080 C   0  0  0  0  0  3  0  0  0  0  0  0
  190.0300  177.5200  145.0790 C   0  0  0  0  0  0  0  0  0  0  0  0
  191.9320  176.1740  145.7450 C   0  0  0  0  0  3  0  0  0  0  0  0
  192.2670  175.5620  148.0500 O   0  0  0  0  0  0  0  0  0  0  0  0
  193.1060  176.2550  148.9680 C   0  0  0  0  0  1  0  0  0  0  0  0
  188.9360  176.6080  141.9840 C   0  0  0  0  0  2  0  0  0  0  0  0
  189.7200  177.5630  141.0950 C   0  0  0  0  0  2  0  0  0  0  0  0
  191.9630  177.4840  141.2670 O   0  0  0  0  0  1  0  0  0  0  0  0
  190.9250  176.9050  140.6150 N   0  0  0  0  0  0  0  0  0  0  0  0
  190.0960  176.3920  138.3670 C   0  0  2  0  0  3  0  0  0  0  0  0
  192.2300  176.4340  138.6040 C   0  0  0  0  0  2  0  0  0  0  0  0
  191.0720  177.2230  139.1970 C   0  0  2  0  0  3  0  0  0  0  0  0
  191.2570  175.6050  137.7890 C   0  0  0  0  0  2  0  0  0  0  0  0
  189.4330  177.2370  137.2720 C   0  0  2  0  0  3  0  0  0  0  0  0
  187.2670  177.6670  136.2470 C   0  0  0  0  0  2  0  0  0  0  0  0
  188.8930  178.5430  137.8070 C   0  0  0  0  0  2  0  0  0  0  0  0
  188.2420  176.5500  136.6050 C   0  0  1  0  0  0  0  0  0  0  0  0
  188.6710  175.9000  135.4470 O   0  0  0  0  0  1  0  0  0  0  0  0
  187.8400  178.9570  136.8050 C   0  0  0  0  0  2  0  0  0  0  0  0
  187.6240  175.6160  137.4990 O   0  0  0  0  0  0  0  0  0  0  0  0
  186.8690  174.5030  137.1080 C   0  0  0  0  0  0  0  0  0  0  0  0
  184.7520  173.4210  136.5960 C   0  0  0  0  0  3  0  0  0  0  0  0
  186.8190  172.1740  136.4250 C   0  0  0  0  0  3  0  0  0  0  0  0
  185.4270  172.2310  136.3130 C   0  0  0  0  0  3  0  0  0  0  0  0
  187.5370  173.3070  136.8200 C   0  0  0  0  0  3  0  0  0  0  0  0
  185.4690  174.5540  136.9910 C   0  0  0  0  0  3  0  0  0  0  0  0
  1 23  1  6  0  0  0
  1 14  1  0  0  0  0
  2  5  1  0  0  0  0
  3  1  1  0  0  0  0
  3 11  1  0  0  0  0
  4  7  1  0  0  0  0
  5  9  2  0  0  0  0
  6  2  1  0  0  0  0
  7 11  2  0  0  0  0
  7  9  1  0  0  0  0
  8  4  1  0  0  0  0
  8  2  2  0  0  0  0
 11 10  1  0  0  0  0
 12  3  2  0  0  0  0
 13 12  1  0  0  0  0
 13  4  2  0  0  0  0
 14 19  1  0  0  0  0
 16 15  1  0  0  0  0
 16 21  1  0  0  0  0
 17 19  2  0  0  0  0
 17 20  1  0  0  0  0
 18 15  2  0  0  0  0
 19 18  1  0  0  0  0
 20 16  2  0  0  0  0
 21 22  1  0  0  0  0
 24 23  1  0  0  0  0
 26 24  1  0  0  0  0
 26 25  1  0  0  0  0
 27 30  1  6  0  0  0
 27 29  1  0  0  0  0
 28 29  1  0  0  0  0
 29 26  1  1  0  0  0
 30 28  1  0  0  0  0
 31 33  1  1  0  0  0
 31 27  1  0  0  0  0
 32 34  1  0  0  0  0
 32 36  1  0  0  0  0
 34 35  1  6  0  0  0
 34 31  1  0  0  0  0
 34 37  1  0  0  0  0
 36 33  1  0  0  0  0
 38 37  1  0  0  0  0
 39 43  2  0  0  0  0
 40 42  1  0  0  0  0
 41 40  2  0  0  0  0
 41 39  1  0  0  0  0
 42 38  2  0  0  0  0
 43 38  1  0  0  0  0
M  END
>  <MODEL>
2

>  <REMARK>
 VINA RESULT:      -9.1      2.665      7.609
  Name = 
  11 active torsions:
  status: ('A' for Active; 'I' for Inactive)
    1  A    between atoms: C_1  and  C_34
    2  A    between atoms: C_1  and  C_35
    3  A    between atoms: C_3  and  C_4
    4  A    between atoms: N_6  and  C_12
    5  A    between atoms: N_6  and  C_13
    6  A    between atoms: C_8  and  C_34
    7  A    between atoms: C_11  and  O_14
    8  A    between atoms: C_13  and  C_38
    9  A    between atoms: O_14  and  C_22
   10  A    between atoms: C_19  and  O_25
   11  A    between atoms: C_34  and  C_38
                            x       y       z     vdW  Elec       q    Type
                         _______ _______ _______ _____ _____    ______ ____

>  <TORSDO>
F 11

$$$$
=
 OpenBabel10262422243D

 43 48  0  0  1  0  0  0  0  0999 V2000
  188.5540  177.9530  141.5350 C   0  0  2  0  0  3  0  0  0  0  0  0
  192.3520  176.0330  136.6120 C   0  0  0  0  0  0  0  0  0  0  0  0
  189.2060  177.4510  140.2760 C   0  0  0  0  0  0  0  0  0  0  0  0
  190.3890  176.6220  137.8980 C   0  0  0  0  0  0  0  0  0  0  0  0
  193.1580  176.2640  137.7310 C   0  0  0  0  0  3  0  0  0  0  0  0
  192.9420  175.6080  135.3880 N   0  0  0  0  0  1  0  0  0  0  0  0
  191.1970  176.8640  139.0300 C   0  0  0  0  0  0  0  0  0  0  0  0
  190.9700  176.2100  136.6950 C   0  0  0  0  0  3  0  0  0  0  0  0
  192.5830  176.6780  138.9370 C   0  0  0  0  0  3  0  0  0  0  0  0
  191.3820  177.5530  141.3480 O   0  0  0  0  0  1  0  0  0  0  0  0
  190.6010  177.2880  140.2250 C   0  0  0  0  0  0  0  0  0  0  0  0
  188.4580  177.2130  139.1640 N   0  0  0  0  0  0  0  0  0  0  0  0
  189.0100  176.8020  137.9930 C   0  0  0  0  0  3  0  0  0  0  0  0
  187.9890  176.8650  142.4630 C   0  0  0  0  0  2  0  0  0  0  0  0
  187.5740  177.5040  146.1840 C   0  0  0  0  0  3  0  0  0  0  0  0
  188.9080  177.4530  146.6260 C   0  0  0  0  0  0  0  0  0  0  0  0
  189.6250  177.0040  144.3520 C   0  0  0  0  0  3  0  0  0  0  0  0
  187.2720  177.3070  144.8340 C   0  0  0  0  0  3  0  0  0  0  0  0
  188.2980  177.0630  143.9140 C   0  0  0  0  0  0  0  0  0  0  0  0
  189.9270  177.1990  145.7030 C   0  0  0  0  0  3  0  0  0  0  0  0
  189.2440  177.6490  147.9680 O   0  0  0  0  0  0  0  0  0  0  0  0
  188.3380  178.2010  148.9170 C   0  0  0  0  0  1  0  0  0  0  0  0
  187.6780  179.1940  141.3370 C   0  0  0  0  0  2  0  0  0  0  0  0
  186.2400  178.9660  141.7780 C   0  0  0  0  0  2  0  0  0  0  0  0
  184.9540  179.7980  140.1290 O   0  0  0  0  0  1  0  0  0  0  0  0
  185.4230  178.6270  140.6230 N   0  0  0  0  0  0  0  0  0  0  0  0
  182.9760  178.5930  140.7510 C   0  0  2  0  0  3  0  0  0  0  0  0
  184.0270  178.1550  142.5720 C   0  0  0  0  0  2  0  0  0  0  0  0
  184.2720  177.8640  141.0990 C   0  0  2  0  0  3  0  0  0  0  0  0
  182.7460  178.8860  142.2220 C   0  0  0  0  0  2  0  0  0  0  0  0
  181.9080  177.6200  140.2340 C   0  0  2  0  0  3  0  0  0  0  0  0
  180.8030  176.9220  138.1800 C   0  0  0  0  0  2  0  0  0  0  0  0
  182.5040  176.3060  139.7850 C   0  0  0  0  0  2  0  0  0  0  0  0
  181.1330  178.1470  139.0270 C   0  0  1  0  0  0  0  0  0  0  0  0
  179.9580  178.7590  139.4630 O   0  0  0  0  0  1  0  0  0  0  0  0
  181.4780  175.7300  138.8340 C   0  0  0  0  0  2  0  0  0  0  0  0
  181.9270  179.0730  138.2750 O   0  0  0  0  0  0  0  0  0  0  0  0
  181.4540  180.2630  137.7050 C   0  0  0  0  0  0  0  0  0  0  0  0
  181.0820  182.6660  137.7610 C   0  0  0  0  0  3  0  0  0  0  0  0
  180.3770  181.3780  135.8370 C   0  0  0  0  0  3  0  0  0  0  0  0
  180.4880  182.6050  136.4980 C   0  0  0  0  0  3  0  0  0  0  0  0
  180.8600  180.2120  136.4390 C   0  0  0  0  0  3  0  0  0  0  0  0
  181.5640  181.5000  138.3630 C   0  0  0  0  0  3  0  0  0  0  0  0
  1 23  1  6  0  0  0
  1 14  1  0  0  0  0
  2  8  2  0  0  0  0
  2  5  1  0  0  0  0
  3  1  1  0  0  0  0
  4 13  2  0  0  0  0
  4  7  1  0  0  0  0
  5  9  2  0  0  0  0
  6  2  1  0  0  0  0
  7 11  2  0  0  0  0
  8  4  1  0  0  0  0
  9  7  1  0  0  0  0
 11  3  1  0  0  0  0
 11 10  1  0  0  0  0
 12  3  2  0  0  0  0
 13 12  1  0  0  0  0
 14 19  1  0  0  0  0
 15 16  1  0  0  0  0
 16 21  1  0  0  0  0
 17 20  1  0  0  0  0
 18 15  2  0  0  0  0
 19 17  2  0  0  0  0
 19 18  1  0  0  0  0
 20 16  2  0  0  0  0
 21 22  1  0  0  0  0
 23 24  1  0  0  0  0
 25 26  1  0  0  0  0
 26 24  1  0  0  0  0
 27 29  1  0  0  0  0
 27 30  1  1  0  0  0
 29 26  1  6  0  0  0
 29 28  1  0  0  0  0
 30 28  1  0  0  0  0
 31 33  1  6  0  0  0
 31 27  1  0  0  0  0
 32 36  1  0  0  0  0
 32 34  1  0  0  0  0
 34 35  1  1  0  0  0
 34 31  1  0  0  0  0
 36 33  1  0  0  0  0
 37 34  1  0  0  0  0
 38 37  1  0  0  0  0
 38 43  1  0  0  0  0
 39 43  2  0  0  0  0
 40 42  1  0  0  0  0
 40 41  2  0  0  0  0
 41 39  1  0  0  0  0
 42 38  2  0  0  0  0
M  END
>  <MODEL>
3

>  <REMARK>
 VINA RESULT:      -9.0      2.936      8.793
  Name = 
  11 active torsions:
  status: ('A' for Active; 'I' for Inactive)
    1  A    between atoms: C_1  and  C_34
    2  A    between atoms: C_1  and  C_35
    3  A    between atoms: C_3  and  C_4
    4  A    between atoms: N_6  and  C_12
    5  A    between atoms: N_6  and  C_13
    6  A    between atoms: C_8  and  C_34
    7  A    between atoms: C_11  and  O_14
    8  A    between atoms: C_13  and  C_38
    9  A    between atoms: O_14  and  C_22
   10  A    between atoms: C_19  and  O_25
   11  A    between atoms: C_34  and  C_38
                            x       y       z     vdW  Elec       q    Type
                         _______ _______ _______ _____ _____    ______ ____

>  <TORSDO>
F 11

$$$$
=
 OpenBabel10262422243D

 43 48  0  0  1  0  0  0  0  0999 V2000
  186.3880  177.9400  142.5910 C   0  0  2  0  0  3  0  0  0  0  0  0
  191.2390  176.6970  146.7460 C   0  0  0  0  0  0  0  0  0  0  0  0
  187.3570  177.7740  143.7290 C   0  0  0  0  0  0  0  0  0  0  0  0
  189.0890  177.3800  145.8700 C   0  0  0  0  0  0  0  0  0  0  0  0
  191.6790  176.4110  145.4500 C   0  0  0  0  0  3  0  0  0  0  0  0
  192.1140  176.5020  147.8520 N   0  0  0  0  0  1  0  0  0  0  0  0
  189.5250  177.0860  144.5600 C   0  0  0  0  0  0  0  0  0  0  0  0
  189.9470  177.1820  146.9560 C   0  0  0  0  0  3  0  0  0  0  0  0
  190.8260  176.6060  144.3590 C   0  0  0  0  0  3  0  0  0  0  0  0
  189.0510  176.9750  142.1830 O   0  0  0  0  0  1  0  0  0  0  0  0
  188.6500  177.2790  143.4830 C   0  0  0  0  0  0  0  0  0  0  0  0
  186.9690  178.0420  145.0060 N   0  0  0  0  0  0  0  0  0  0  0  0
  187.7980  177.8640  146.0670 C   0  0  0  0  0  3  0  0  0  0  0  0
  186.7570  179.0210  141.5620 C   0  0  0  0  0  2  0  0  0  0  0  0
  187.7980  177.7380  138.1420 C   0  0  0  0  0  3  0  0  0  0  0  0
  186.5710  177.7470  137.4550 C   0  0  0  0  0  0  0  0  0  0  0  0
  185.4770  178.5700  139.4590 C   0  0  0  0  0  3  0  0  0  0  0  0
  187.8600  178.1460  139.4770 C   0  0  0  0  0  3  0  0  0  0  0  0
  186.7010  178.5680  140.1360 C   0  0  0  0  0  0  0  0  0  0  0  0
  185.4140  178.1610  138.1230 C   0  0  0  0  0  3  0  0  0  0  0  0
  186.4740  177.3490  136.1200 O   0  0  0  0  0  0  0  0  0  0  0  0
  185.8840  176.1160  135.7230 C   0  0  0  0  0  1  0  0  0  0  0  0
  184.9140  177.8790  143.0070 C   0  0  0  0  0  2  0  0  0  0  0  0
  184.1270  179.0920  142.5330 C   0  0  0  0  0  2  0  0  0  0  0  0
  183.2110  178.6270  144.5360 O   0  0  0  0  0  1  0  0  0  0  0  0
  182.9530  179.2720  143.3730 N   0  0  0  0  0  0  0  0  0  0  0  0
  181.7200  179.0110  141.2720 C   0  0  2  0  0  3  0  0  0  0  0  0
  180.5340  179.3090  143.0370 C   0  0  0  0  0  2  0  0  0  0  0  0
  181.8350  178.5830  142.7320 C   0  0  2  0  0  3  0  0  0  0  0  0
  180.4270  179.7400  141.5870 C   0  0  0  0  0  2  0  0  0  0  0  0
  181.4400  177.8120  140.3570 C   0  0  2  0  0  3  0  0  0  0  0  0
  181.8200  177.0190  138.0870 C   0  0  0  0  0  2  0  0  0  0  0  0
  182.5670  176.8050  140.3770 C   0  0  0  0  0  2  0  0  0  0  0  0
  181.2620  178.1900  138.8880 C   0  0  1  0  0  0  0  0  0  0  0  0
  179.9040  178.3540  138.6130 O   0  0  0  0  0  1  0  0  0  0  0  0
  182.4130  176.0380  139.0830 C   0  0  0  0  0  2  0  0  0  0  0  0
  181.9790  179.3920  138.5780 O   0  0  0  0  0  0  0  0  0  0  0  0
  181.4630  180.4770  137.8580 C   0  0  0  0  0  0  0  0  0  0  0  0
  180.8160  182.8140  137.6740 C   0  0  0  0  0  3  0  0  0  0  0  0
  180.5490  181.3330  135.7780 C   0  0  0  0  0  3  0  0  0  0  0  0
  180.4230  182.6030  136.3500 C   0  0  0  0  0  3  0  0  0  0  0  0
  181.0690  180.2750  136.5310 C   0  0  0  0  0  3  0  0  0  0  0  0
  181.3350  181.7570  138.4260 C   0  0  0  0  0  3  0  0  0  0  0  0
  1 14  1  1  0  0  0
  1 23  1  0  0  0  0
  1  3  1  0  0  0  0
  2  8  1  0  0  0  0
  2  6  1  0  0  0  0
  3 12  1  0  0  0  0
  4 13  1  0  0  0  0
  4  8  2  0  0  0  0
  5  2  2  0  0  0  0
  7  4  1  0  0  0  0
  9  7  2  0  0  0  0
  9  5  1  0  0  0  0
 10 11  1  0  0  0  0
 11  3  2  0  0  0  0
 11  7  1  0  0  0  0
 12 13  2  0  0  0  0
 15 18  1  0  0  0  0
 16 20  1  0  0  0  0
 16 15  2  0  0  0  0
 17 19  1  0  0  0  0
 18 19  2  0  0  0  0
 19 14  1  0  0  0  0
 20 17  2  0  0  0  0
 21 16  1  0  0  0  0
 22 21  1  0  0  0  0
 24 23  1  0  0  0  0
 24 26  1  0  0  0  0
 26 25  1  0  0  0  0
 27 30  1  1  0  0  0
 27 29  1  0  0  0  0
 29 28  1  0  0  0  0
 29 26  1  1  0  0  0
 30 28  1  0  0  0  0
 31 33  1  6  0  0  0
 31 27  1  0  0  0  0
 32 34  1  0  0  0  0
 32 36  1  0  0  0  0
 34 35  1  6  0  0  0
 34 31  1  0  0  0  0
 36 33  1  0  0  0  0
 37 34  1  0  0  0  0
 38 43  1  0  0  0  0
 38 37  1  0  0  0  0
 39 43  2  0  0  0  0
 40 41  2  0  0  0  0
 40 42  1  0  0  0  0
 41 39  1  0  0  0  0
 42 38  2  0  0  0  0
M  END
>  <MODEL>
4

>  <REMARK>
 VINA RESULT:      -8.9      3.507      9.052
  Name = 
  11 active torsions:
  status: ('A' for Active; 'I' for Inactive)
    1  A    between atoms: C_1  and  C_34
    2  A    between atoms: C_1  and  C_35
    3  A    between atoms: C_3  and  C_4
    4  A    between atoms: N_6  and  C_12
    5  A    between atoms: N_6  and  C_13
    6  A    between atoms: C_8  and  C_34
    7  A    between atoms: C_11  and  O_14
    8  A    between atoms: C_13  and  C_38
    9  A    between atoms: O_14  and  C_22
   10  A    between atoms: C_19  and  O_25
   11  A    between atoms: C_34  and  C_38
                            x       y       z     vdW  Elec       q    Type
                         _______ _______ _______ _____ _____    ______ ____

>  <TORSDO>
F 11

$$$$
=
 OpenBabel10262422243D

 43 48  0  0  1  0  0  0  0  0999 V2000
  188.9220  178.0000  139.2900 C   0  0  2  0  0  3  0  0  0  0  0  0
  182.5290  178.9760  140.0140 C   0  0  0  0  0  0  0  0  0  0  0  0
  187.4380  178.2270  139.1940 C   0  0  0  0  0  0  0  0  0  0  0  0
  184.6800  178.5360  138.9970 C   0  0  0  0  0  0  0  0  0  0  0  0
  183.1450  179.1230  141.2600 C   0  0  0  0  0  3  0  0  0  0  0  0
  181.1180  179.1320  139.8960 N   0  0  0  0  0  1  0  0  0  0  0  0
  185.3080  178.6770  140.2530 C   0  0  0  0  0  0  0  0  0  0  0  0
  183.2940  178.6840  138.8830 C   0  0  0  0  0  3  0  0  0  0  0  0
  184.5310  178.9760  141.3800 C   0  0  0  0  0  3  0  0  0  0  0  0
  187.3330  178.6270  141.5860 O   0  0  0  0  0  1  0  0  0  0  0  0
  186.6950  178.5150  140.3520 C   0  0  0  0  0  0  0  0  0  0  0  0
  186.7990  178.0930  137.9990 N   0  0  0  0  0  0  0  0  0  0  0  0
  185.4550  178.2460  137.8760 C   0  0  0  0  0  3  0  0  0  0  0  0
  189.6970  178.1410  137.9700 C   0  0  0  0  0  2  0  0  0  0  0  0
  189.7850  174.7290  136.3040 C   0  0  0  0  0  3  0  0  0  0  0  0
  191.1570  174.4270  136.3600 C   0  0  0  0  0  0  0  0  0  0  0  0
  191.5630  176.5570  137.4490 C   0  0  0  0  0  3  0  0  0  0  0  0
  189.3090  175.9370  136.8210 C   0  0  0  0  0  3  0  0  0  0  0  0
  190.1970  176.8510  137.4000 C   0  0  0  0  0  0  0  0  0  0  0  0
  192.0400  175.3490  136.9310 C   0  0  0  0  0  3  0  0  0  0  0  0
  191.6650  173.2270  135.8560 O   0  0  0  0  0  0  0  0  0  0  0  0
  190.9390  172.4030  134.9500 C   0  0  0  0  0  1  0  0  0  0  0  0
  189.3200  176.8210  140.1840 C   0  0  0  0  0  2  0  0  0  0  0  0
  190.5750  177.1060  140.9950 C   0  0  0  0  0  2  0  0  0  0  0  0
  189.3030  176.1830  142.6060 O   0  0  0  0  0  1  0  0  0  0  0  0
  190.5880  176.2710  142.1860 N   0  0  0  0  0  0  0  0  0  0  0  0
  190.3750  177.6300  144.2140 C   0  0  2  0  0  3  0  0  0  0  0  0
  191.7340  178.3610  142.7210 C   0  0  0  0  0  2  0  0  0  0  0  0
  191.3360  176.9810  143.2210 C   0  0  2  0  0  3  0  0  0  0  0  0
  190.7730  179.0020  143.7020 C   0  0  0  0  0  2  0  0  0  0  0  0
  190.8560  177.4470  145.6600 C   0  0  2  0  0  3  0  0  0  0  0  0
  190.2260  176.3790  147.7550 C   0  0  0  0  0  2  0  0  0  0  0  0
  191.6800  176.1920  145.8310 C   0  0  0  0  0  2  0  0  0  0  0  0
  189.7190  177.3260  146.6730 C   0  0  1  0  0  0  0  0  0  0  0  0
  189.4520  178.5810  147.2210 O   0  0  0  0  0  1  0  0  0  0  0  0
  191.5880  175.8770  147.3080 C   0  0  0  0  0  2  0  0  0  0  0  0
  188.5400  176.7920  146.0570 O   0  0  0  0  0  0  0  0  0  0  0  0
  187.3070  177.4520  145.9660 C   0  0  0  0  0  0  0  0  0  0  0  0
  185.4240  178.6220  146.9670 C   0  0  0  0  0  3  0  0  0  0  0  0
  185.4880  178.2570  144.5750 C   0  0  0  0  0  3  0  0  0  0  0  0
  184.8420  178.7660  145.7050 C   0  0  0  0  0  3  0  0  0  0  0  0
  186.7180  177.6040  144.7060 C   0  0  0  0  0  3  0  0  0  0  0  0
  186.6520  177.9680  147.0980 C   0  0  0  0  0  3  0  0  0  0  0  0
  1 14  1  6  0  0  0
  1 23  1  0  0  0  0
  2  5  1  0  0  0  0
  3  1  1  0  0  0  0
  3 11  1  0  0  0  0
  4  7  1  0  0  0  0
  5  9  2  0  0  0  0
  6  2  1  0  0  0  0
  7 11  2  0  0  0  0
  7  9  1  0  0  0  0
  8  4  1  0  0  0  0
  8  2  2  0  0  0  0
 11 10  1  0  0  0  0
 12  3  2  0  0  0  0
 13 12  1  0  0  0  0
 13  4  2  0  0  0  0
 15 16  2  0  0  0  0
 15 18  1  0  0  0  0
 16 20  1  0  0  0  0
 18 19  2  0  0  0  0
 19 17  1  0  0  0  0
 19 14  1  0  0  0  0
 20 17  2  0  0  0  0
 21 16  1  0  0  0  0
 22 21  1  0  0  0  0
 23 24  1  0  0  0  0
 24 26  1  0  0  0  0
 26 25  1  0  0  0  0
 27 30  1  6  0  0  0
 27 31  1  0  0  0  0
 28 29  1  0  0  0  0
 28 30  1  0  0  0  0
 29 26  1  6  0  0  0
 29 27  1  0  0  0  0
 31 33  1  6  0  0  0
 31 34  1  0  0  0  0
 33 36  1  0  0  0  0
 34 35  1  1  0  0  0
 34 32  1  0  0  0  0
 36 32  1  0  0  0  0
 37 34  1  0  0  0  0
 38 37  1  0  0  0  0
 38 43  1  0  0  0  0
 39 43  2  0  0  0  0
 40 42  1  0  0  0  0
 40 41  2  0  0  0  0
 41 39  1  0  0  0  0
 42 38  2  0  0  0  0
M  END
>  <MODEL>
5

>  <REMARK>
 VINA RESULT:      -8.8      1.108      1.555
  Name = 
  11 active torsions:
  status: ('A' for Active; 'I' for Inactive)
    1  A    between atoms: C_1  and  C_34
    2  A    between atoms: C_1  and  C_35
    3  A    between atoms: C_3  and  C_4
    4  A    between atoms: N_6  and  C_12
    5  A    between atoms: N_6  and  C_13
    6  A    between atoms: C_8  and  C_34
    7  A    between atoms: C_11  and  O_14
    8  A    between atoms: C_13  and  C_38
    9  A    between atoms: O_14  and  C_22
   10  A    between atoms: C_19  and  O_25
   11  A    between atoms: C_34  and  C_38
                            x       y       z     vdW  Elec       q    Type
                         _______ _______ _______ _____ _____    ______ ____

>  <TORSDO>
F 11

$$$$
=
 OpenBabel10262422243D

 43 48  0  0  1  0  0  0  0  0999 V2000
  189.5670  176.9770  138.6590 C   0  0  2  0  0  3  0  0  0  0  0  0
  194.4210  173.3040  136.3570 C   0  0  0  0  0  0  0  0  0  0  0  0
  190.8400  176.3380  138.1740 C   0  0  0  0  0  0  0  0  0  0  0  0
  193.2220  175.1380  137.3850 C   0  0  0  0  0  0  0  0  0  0  0  0
  193.2100  172.6550  136.0980 C   0  0  0  0  0  3  0  0  0  0  0  0
  195.6490  172.7040  135.9590 N   0  0  0  0  0  1  0  0  0  0  0  0
  191.9970  174.4840  137.1320 C   0  0  0  0  0  0  0  0  0  0  0  0
  194.4280  174.5450  136.9980 C   0  0  0  0  0  3  0  0  0  0  0  0
  192.0010  173.2420  136.4840 C   0  0  0  0  0  3  0  0  0  0  0  0
  189.5790  174.4480  137.3170 O   0  0  0  0  0  1  0  0  0  0  0  0
  190.7980  175.0860  137.5360 C   0  0  0  0  0  0  0  0  0  0  0  0
  192.0400  176.9380  138.4050 N   0  0  0  0  0  0  0  0  0  0  0  0
  193.2160  176.3760  138.0240 C   0  0  0  0  0  3  0  0  0  0  0  0
  188.7670  177.7440  137.5940 C   0  0  0  0  0  2  0  0  0  0  0  0
  185.0470  177.9710  138.3270 C   0  0  0  0  0  3  0  0  0  0  0  0
  184.5510  176.8830  137.5890 C   0  0  0  0  0  0  0  0  0  0  0  0
  186.8060  176.3790  136.8490 C   0  0  0  0  0  3  0  0  0  0  0  0
  186.4150  178.2560  138.3260 C   0  0  0  0  0  3  0  0  0  0  0  0
  187.2980  177.4570  137.5920 C   0  0  0  0  0  0  0  0  0  0  0  0
  185.4370  176.0930  136.8490 C   0  0  0  0  0  3  0  0  0  0  0  0
  183.1900  176.5680  137.5710 O   0  0  0  0  0  0  0  0  0  0  0  0
  182.7090  175.2280  137.5890 C   0  0  0  0  0  1  0  0  0  0  0  0
  189.6850  177.6500  140.0310 C   0  0  0  0  0  2  0  0  0  0  0  0
  190.1200  176.6790  141.1180 C   0  0  0  0  0  2  0  0  0  0  0  0
  188.9240  178.2450  142.2040 O   0  0  0  0  0  1  0  0  0  0  0  0
  189.4460  177.0060  142.3650 N   0  0  0  0  0  0  0  0  0  0  0  0
  190.1530  178.2590  144.3490 C   0  0  2  0  0  3  0  0  0  0  0  0
  191.6780  177.8470  142.8940 C   0  0  0  0  0  2  0  0  0  0  0  0
  190.4620  177.0940  143.4110 C   0  0  2  0  0  3  0  0  0  0  0  0
  191.3630  179.0050  143.8200 C   0  0  0  0  0  2  0  0  0  0  0  0
  190.3720  177.8700  145.8170 C   0  0  2  0  0  3  0  0  0  0  0  0
  189.4410  176.4680  147.5750 C   0  0  0  0  0  2  0  0  0  0  0  0
  191.2300  176.6340  145.9570 C   0  0  0  0  0  2  0  0  0  0  0  0
  189.0800  177.5530  146.5660 C   0  0  1  0  0  0  0  0  0  0  0  0
  188.6370  178.6970  147.2320 O   0  0  0  0  0  1  0  0  0  0  0  0
  190.8900  176.0900  147.3260 C   0  0  0  0  0  2  0  0  0  0  0  0
  188.0700  177.0790  145.6670 O   0  0  0  0  0  0  0  0  0  0  0  0
  186.8090  177.6640  145.4890 C   0  0  0  0  0  0  0  0  0  0  0  0
  184.7490  178.6230  146.3590 C   0  0  0  0  0  3  0  0  0  0  0  0
  185.0940  178.4620  143.9680 C   0  0  0  0  0  3  0  0  0  0  0  0
  184.2950  178.8330  145.0540 C   0  0  0  0  0  3  0  0  0  0  0  0
  186.3470  177.8810  144.1860 C   0  0  0  0  0  3  0  0  0  0  0  0
  186.0020  178.0410  146.5770 C   0  0  0  0  0  3  0  0  0  0  0  0
  1 14  1  6  0  0  0
  1 23  1  0  0  0  0
  2  8  1  0  0  0  0
  3 12  1  0  0  0  0
  3  1  1  0  0  0  0
  4 13  1  0  0  0  0
  5  2  2  0  0  0  0
  5  9  1  0  0  0  0
  6  2  1  0  0  0  0
  7  4  1  0  0  0  0
  7 11  1  0  0  0  0
  8  4  2  0  0  0  0
  9  7  2  0  0  0  0
 10 11  1  0  0  0  0
 11  3  2  0  0  0  0
 13 12  2  0  0  0  0
 16 15  2  0  0  0  0
 17 19  1  0  0  0  0
 18 15  1  0  0  0  0
 19 14  1  0  0  0  0
 19 18  2  0  0  0  0
 20 17  2  0  0  0  0
 20 16  1  0  0  0  0
 21 22  1  0  0  0  0
 21 16  1  0  0  0  0
 23 24  1  0  0  0  0
 24 26  1  0  0  0  0
 25 26  1  0  0  0  0
 27 30  1  6  0  0  0
 27 31  1  0  0  0  0
 28 29  1  0  0  0  0
 28 30  1  0  0  0  0
 29 26  1  6  0  0  0
 29 27  1  0  0  0  0
 31 33  1  6  0  0  0
 31 34  1  0  0  0  0
 33 36  1  0  0  0  0
 34 35  1  1  0  0  0
 34 32  1  0  0  0  0
 36 32  1  0  0  0  0
 37 34  1  0  0  0  0
 38 37  1  0  0  0  0
 38 43  1  0  0  0  0
 39 43  2  0  0  0  0
 40 42  1  0  0  0  0
 40 41  2  0  0  0  0
 41 39  1  0  0  0  0
 42 38  2  0  0  0  0
M  END
>  <MODEL>
6

>  <REMARK>
 VINA RESULT:      -8.5      2.130      6.197
  Name = 
  11 active torsions:
  status: ('A' for Active; 'I' for Inactive)
    1  A    between atoms: C_1  and  C_34
    2  A    between atoms: C_1  and  C_35
    3  A    between atoms: C_3  and  C_4
    4  A    between atoms: N_6  and  C_12
    5  A    between atoms: N_6  and  C_13
    6  A    between atoms: C_8  and  C_34
    7  A    between atoms: C_11  and  O_14
    8  A    between atoms: C_13  and  C_38
    9  A    between atoms: O_14  and  C_22
   10  A    between atoms: C_19  and  O_25
   11  A    between atoms: C_34  and  C_38
                            x       y       z     vdW  Elec       q    Type
                         _______ _______ _______ _____ _____    ______ ____

>  <TORSDO>
F 11

$$$$
=
 OpenBabel10262422243D

 43 48  0  0  1  0  0  0  0  0999 V2000
  187.2970  178.2580  142.6240 C   0  0  2  0  0  3  0  0  0  0  0  0
  191.6540  176.3880  147.0810 C   0  0  0  0  0  0  0  0  0  0  0  0
  188.4340  177.7220  143.4500 C   0  0  0  0  0  0  0  0  0  0  0  0
  190.5980  176.8180  144.9470 C   0  0  0  0  0  0  0  0  0  0  0  0
  190.5160  176.8590  147.7420 C   0  0  0  0  0  3  0  0  0  0  0  0
  192.7700  175.9210  147.8320 N   0  0  0  0  0  1  0  0  0  0  0  0
  189.4490  177.3020  145.6080 C   0  0  0  0  0  0  0  0  0  0  0  0
  191.6950  176.3650  145.6850 C   0  0  0  0  0  3  0  0  0  0  0  0
  189.4160  177.3140  147.0090 C   0  0  0  0  0  3  0  0  0  0  0  0
  187.2260  178.2650  145.4860 O   0  0  0  0  0  1  0  0  0  0  0  0
  188.3620  177.7630  144.8540 C   0  0  0  0  0  0  0  0  0  0  0  0
  189.5600  177.2530  142.8460 N   0  0  0  0  0  0  0  0  0  0  0  0
  190.6270  176.8010  143.5540 C   0  0  0  0  0  3  0  0  0  0  0  0
  186.0650  177.3440  142.5250 C   0  0  0  0  0  2  0  0  0  0  0  0
  183.2610  179.3740  144.0870 C   0  0  0  0  0  3  0  0  0  0  0  0
  182.2810  179.3180  143.0800 C   0  0  0  0  0  0  0  0  0  0  0  0
  183.7860  177.9900  141.7160 C   0  0  0  0  0  3  0  0  0  0  0  0
  184.4920  178.7390  143.9070 C   0  0  0  0  0  3  0  0  0  0  0  0
  184.7550  178.0400  142.7240 C   0  0  0  0  0  0  0  0  0  0  0  0
  182.5540  178.6270  141.8950 C   0  0  0  0  0  3  0  0  0  0  0  0
  181.0390  179.9390  143.2290 O   0  0  0  0  0  0  0  0  0  0  0  0
  180.0560  179.9540  142.2000 C   0  0  0  0  0  1  0  0  0  0  0  0
  187.7330  178.9470  141.3260 C   0  0  0  0  0  2  0  0  0  0  0  0
  186.8100  178.6250  140.1600 C   0  0  0  0  0  2  0  0  0  0  0  0
  188.6760  179.0020  138.9600 O   0  0  0  0  0  1  0  0  0  0  0  0
  187.5980  178.1850  139.0200 N   0  0  0  0  0  0  0  0  0  0  0  0
  186.0440  177.1540  137.4300 C   0  0  2  0  0  3  0  0  0  0  0  0
  187.6810  178.2540  136.5800 C   0  0  0  0  0  2  0  0  0  0  0  0
  186.8080  178.4190  137.8140 C   0  0  2  0  0  3  0  0  0  0  0  0
  186.9260  176.9940  136.2060 C   0  0  0  0  0  2  0  0  0  0  0  0
  184.6060  177.4750  137.0050 C   0  0  2  0  0  3  0  0  0  0  0  0
  182.3390  176.5970  137.1400 C   0  0  0  0  0  2  0  0  0  0  0  0
  183.8530  178.2360  138.0720 C   0  0  0  0  0  2  0  0  0  0  0  0
  183.7600  176.2350  136.7200 C   0  0  1  0  0  0  0  0  0  0  0  0
  183.7980  175.9530  135.3540 O   0  0  0  0  0  1  0  0  0  0  0  0
  182.3950  177.9800  137.7630 C   0  0  0  0  0  2  0  0  0  0  0  0
  184.2310  175.1110  137.4730 O   0  0  0  0  0  0  0  0  0  0  0  0
  184.2430  173.7850  137.0200 C   0  0  0  0  0  0  0  0  0  0  0  0
  183.1410  171.6640  136.5690 C   0  0  0  0  0  3  0  0  0  0  0  0
  185.4960  171.9310  136.0780 C   0  0  0  0  0  3  0  0  0  0  0  0
  184.3440  171.1380  136.0930 C   0  0  0  0  0  3  0  0  0  0  0  0
  185.4430  173.2510  136.5390 C   0  0  0  0  0  3  0  0  0  0  0  0
  183.0890  172.9820  137.0310 C   0  0  0  0  0  3  0  0  0  0  0  0
  1 23  1  6  0  0  0
  1  3  1  0  0  0  0
  2  5  1  0  0  0  0
  2  6  1  0  0  0  0
  3 11  1  0  0  0  0
  4  7  1  0  0  0  0
  4  8  1  0  0  0  0
  7  9  1  0  0  0  0
  8  2  2  0  0  0  0
  9  5  2  0  0  0  0
 11 10  1  0  0  0  0
 11  7  2  0  0  0  0
 12  3  2  0  0  0  0
 12 13  1  0  0  0  0
 13  4  2  0  0  0  0
 14  1  1  0  0  0  0
 14 19  1  0  0  0  0
 16 21  1  0  0  0  0
 16 15  2  0  0  0  0
 17 20  2  0  0  0  0
 17 19  1  0  0  0  0
 18 15  1  0  0  0  0
 19 18  2  0  0  0  0
 20 16  1  0  0  0  0
 22 21  1  0  0  0  0
 24 23  1  0  0  0  0
 25 26  1  0  0  0  0
 26 24  1  0  0  0  0
 27 30  1  6  0  0  0
 27 29  1  0  0  0  0
 28 29  1  0  0  0  0
 29 26  1  1  0  0  0
 30 28  1  0  0  0  0
 31 27  1  0  0  0  0
 31 33  1  1  0  0  0
 32 36  1  0  0  0  0
 34 35  1  6  0  0  0
 34 31  1  0  0  0  0
 34 32  1  0  0  0  0
 34 37  1  0  0  0  0
 36 33  1  0  0  0  0
 38 43  1  0  0  0  0
 38 37  1  0  0  0  0
 39 43  2  0  0  0  0
 40 41  2  0  0  0  0
 40 42  1  0  0  0  0
 41 39  1  0  0  0  0
 42 38  2  0  0  0  0
M  END
>  <MODEL>
7

>  <REMARK>
 VINA RESULT:      -8.5      3.319      9.932
  Name = 
  11 active torsions:
  status: ('A' for Active; 'I' for Inactive)
    1  A    between atoms: C_1  and  C_34
    2  A    between atoms: C_1  and  C_35
    3  A    between atoms: C_3  and  C_4
    4  A    between atoms: N_6  and  C_12
    5  A    between atoms: N_6  and  C_13
    6  A    between atoms: C_8  and  C_34
    7  A    between atoms: C_11  and  O_14
    8  A    between atoms: C_13  and  C_38
    9  A    between atoms: O_14  and  C_22
   10  A    between atoms: C_19  and  O_25
   11  A    between atoms: C_34  and  C_38
                            x       y       z     vdW  Elec       q    Type
                         _______ _______ _______ _____ _____    ______ ____

>  <TORSDO>
F 11

$$$$
=
 OpenBabel10262422243D

 43 48  0  0  1  0  0  0  0  0999 V2000
  188.3720  177.9620  141.0520 C   0  0  2  0  0  3  0  0  0  0  0  0
  191.1880  176.7160  146.7850 C   0  0  0  0  0  0  0  0  0  0  0  0
  189.2370  177.6190  142.2340 C   0  0  0  0  0  0  0  0  0  0  0  0
  190.8820  177.0880  144.4130 C   0  0  0  0  0  0  0  0  0  0  0  0
  189.8130  176.8650  146.9880 C   0  0  0  0  0  3  0  0  0  0  0  0
  192.0440  176.4430  147.8890 N   0  0  0  0  0  1  0  0  0  0  0  0
  189.4940  177.2460  144.6120 C   0  0  0  0  0  0  0  0  0  0  0  0
  191.7230  176.8250  145.4990 C   0  0  0  0  0  3  0  0  0  0  0  0
  188.9670  177.1290  145.9050 C   0  0  0  0  0  3  0  0  0  0  0  0
  187.2970  177.7030  143.6920 O   0  0  0  0  0  1  0  0  0  0  0  0
  188.6670  177.5210  143.5150 C   0  0  0  0  0  0  0  0  0  0  0  0
  190.5810  177.4640  142.0790 N   0  0  0  0  0  0  0  0  0  0  0  0
  191.4040  177.1990  143.1260 C   0  0  0  0  0  3  0  0  0  0  0  0
  189.1250  178.2330  139.7400 C   0  0  0  0  0  2  0  0  0  0  0  0
  190.1660  175.2570  137.6230 C   0  0  0  0  0  3  0  0  0  0  0  0
  188.9940  175.0150  136.8850 C   0  0  0  0  0  0  0  0  0  0  0  0
  187.9160  176.8640  138.0290 C   0  0  0  0  0  3  0  0  0  0  0  0
  190.2100  176.2980  138.5540 C   0  0  0  0  0  3  0  0  0  0  0  0
  189.0860  177.1070  138.7550 C   0  0  0  0  0  0  0  0  0  0  0  0
  187.8710  175.8220  137.0980 C   0  0  0  0  0  3  0  0  0  0  0  0
  188.9180  173.9860  135.9440 O   0  0  0  0  0  0  0  0  0  0  0  0
  188.2940  172.7360  136.2170 C   0  0  0  0  0  1  0  0  0  0  0  0
  187.2140  178.9130  141.3760 C   0  0  0  0  0  2  0  0  0  0  0  0
  185.9770  178.6270  140.5380 C   0  0  0  0  0  2  0  0  0  0  0  0
  185.2370  179.8200  142.2980 O   0  0  0  0  0  1  0  0  0  0  0  0
  184.8320  179.3250  141.1030 N   0  0  0  0  0  0  0  0  0  0  0  0
  182.4670  178.7820  140.7650 C   0  0  2  0  0  3  0  0  0  0  0  0
  183.2170  178.5490  142.7640 C   0  0  0  0  0  2  0  0  0  0  0  0
  183.7940  178.3330  141.3730 C   0  0  2  0  0  3  0  0  0  0  0  0
  181.9040  179.0020  142.1570 C   0  0  0  0  0  2  0  0  0  0  0  0
  181.7410  177.6160  140.0810 C   0  0  2  0  0  3  0  0  0  0  0  0
  181.2720  176.6940  137.8770 C   0  0  0  0  0  2  0  0  0  0  0  0
  182.6560  176.4360  139.8440 C   0  0  0  0  0  2  0  0  0  0  0  0
  181.1720  177.9690  138.7090 C   0  0  1  0  0  0  0  0  0  0  0  0
  179.8360  178.3470  138.8450 O   0  0  0  0  0  1  0  0  0  0  0  0
  181.9940  175.6620  138.7250 C   0  0  0  0  0  2  0  0  0  0  0  0
  181.9270  179.0230  138.0980 O   0  0  0  0  0  0  0  0  0  0  0  0
  181.3850  180.2030  137.5720 C   0  0  0  0  0  0  0  0  0  0  0  0
  180.2700  181.4490  135.8060 C   0  0  0  0  0  3  0  0  0  0  0  0
  180.8940  182.5630  137.8620 C   0  0  0  0  0  3  0  0  0  0  0  0
  180.3160  182.6050  136.5890 C   0  0  0  0  0  3  0  0  0  0  0  0
  181.4250  181.3650  138.3510 C   0  0  0  0  0  3  0  0  0  0  0  0
  180.8010  180.2520  136.2940 C   0  0  0  0  0  3  0  0  0  0  0  0
  1 14  1  6  0  0  0
  1 23  1  0  0  0  0
  1  3  1  0  0  0  0
  2  5  1  0  0  0  0
  2  6  1  0  0  0  0
  3 11  1  0  0  0  0
  4  7  1  0  0  0  0
  4  8  1  0  0  0  0
  7  9  1  0  0  0  0
  8  2  2  0  0  0  0
  9  5  2  0  0  0  0
 11 10  1  0  0  0  0
 11  7  2  0  0  0  0
 12  3  2  0  0  0  0
 12 13  1  0  0  0  0
 13  4  2  0  0  0  0
 15 18  1  0  0  0  0
 16 20  1  0  0  0  0
 16 15  2  0  0  0  0
 17 19  1  0  0  0  0
 18 19  2  0  0  0  0
 19 14  1  0  0  0  0
 20 17  2  0  0  0  0
 21 22  1  0  0  0  0
 21 16  1  0  0  0  0
 24 26  1  0  0  0  0
 24 23  1  0  0  0  0
 26 25  1  0  0  0  0
 27 29  1  0  0  0  0
 27 30  1  1  0  0  0
 29 26  1  6  0  0  0
 29 28  1  0  0  0  0
 30 28  1  0  0  0  0
 31 33  1  6  0  0  0
 31 27  1  0  0  0  0
 32 34  1  0  0  0  0
 32 36  1  0  0  0  0
 34 35  1  1  0  0  0
 34 31  1  0  0  0  0
 36 33  1  0  0  0  0
 37 34  1  0  0  0  0
 38 37  1  0  0  0  0
 38 42  1  0  0  0  0
 39 43  1  0  0  0  0
 39 41  2  0  0  0  0
 40 42  2  0  0  0  0
 41 40  1  0  0  0  0
 43 38  2  0  0  0  0
M  END
>  <MODEL>
8

>  <REMARK>
 VINA RESULT:      -8.4      3.076      8.314
  Name = 
  11 active torsions:
  status: ('A' for Active; 'I' for Inactive)
    1  A    between atoms: C_1  and  C_34
    2  A    between atoms: C_1  and  C_35
    3  A    between atoms: C_3  and  C_4
    4  A    between atoms: N_6  and  C_12
    5  A    between atoms: N_6  and  C_13
    6  A    between atoms: C_8  and  C_34
    7  A    between atoms: C_11  and  O_14
    8  A    between atoms: C_13  and  C_38
    9  A    between atoms: O_14  and  C_22
   10  A    between atoms: C_19  and  O_25
   11  A    between atoms: C_34  and  C_38
                            x       y       z     vdW  Elec       q    Type
                         _______ _______ _______ _____ _____    ______ ____

>  <TORSDO>
F 11

$$$$
=
 OpenBabel10262422243D

 43 48  0  0  1  0  0  0  0  0999 V2000
  184.8510  178.1690  142.1200 C   0  0  2  0  0  3  0  0  0  0  0  0
  188.0300  177.8930  147.7920 C   0  0  0  0  0  0  0  0  0  0  0  0
  185.4040  178.2750  143.5150 C   0  0  0  0  0  0  0  0  0  0  0  0
  186.3470  178.4010  146.1300 C   0  0  0  0  0  0  0  0  0  0  0  0
  188.8020  177.2520  146.8170 C   0  0  0  0  0  3  0  0  0  0  0  0
  188.4990  177.9670  149.1340 N   0  0  0  0  0  1  0  0  0  0  0  0
  187.1170  177.7500  145.1430 C   0  0  0  0  0  0  0  0  0  0  0  0
  186.8050  178.4680  147.4490 C   0  0  0  0  0  3  0  0  0  0  0  0
  188.3480  177.1810  145.4960 C   0  0  0  0  0  3  0  0  0  0  0  0
  187.3730  177.0240  142.8430 O   0  0  0  0  0  1  0  0  0  0  0  0
  186.6390  177.6810  143.8280 C   0  0  0  0  0  0  0  0  0  0  0  0
  184.6850  178.8920  144.4930 N   0  0  0  0  0  0  0  0  0  0  0  0
  185.1260  178.9720  145.7750 C   0  0  0  0  0  3  0  0  0  0  0  0
  185.3790  179.2100  141.1200 C   0  0  0  0  0  2  0  0  0  0  0  0
  185.8210  177.9070  137.5800 C   0  0  0  0  0  3  0  0  0  0  0  0
  187.1730  177.5200  137.5920 C   0  0  0  0  0  0  0  0  0  0  0  0
  187.3430  178.2530  139.8990 C   0  0  0  0  0  3  0  0  0  0  0  0
  185.2380  178.4620  138.7220 C   0  0  0  0  0  3  0  0  0  0  0  0
  185.9970  178.6300  139.8860 C   0  0  0  0  0  0  0  0  0  0  0  0
  187.9280  177.7000  138.7550 C   0  0  0  0  0  3  0  0  0  0  0  0
  187.7850  176.9590  136.4680 O   0  0  0  0  0  0  0  0  0  0  0  0
  187.1890  176.9770  135.1760 C   0  0  0  0  0  1  0  0  0  0  0  0
  183.3480  177.8770  142.0610 C   0  0  0  0  0  2  0  0  0  0  0  0
  182.5640  179.0040  141.4040 C   0  0  0  0  0  2  0  0  0  0  0  0
  181.7500  178.8370  143.4960 O   0  0  0  0  0  1  0  0  0  0  0  0
  181.5920  179.5360  142.3460 N   0  0  0  0  0  0  0  0  0  0  0  0
  180.3000  179.0910  140.3130 C   0  0  2  0  0  3  0  0  0  0  0  0
  179.4540  180.5140  141.6810 C   0  0  0  0  0  2  0  0  0  0  0  0
  180.2590  179.2320  141.8320 C   0  0  2  0  0  3  0  0  0  0  0  0
  179.5040  180.3750  140.1720 C   0  0  0  0  0  2  0  0  0  0  0  0
  179.4620  177.8970  139.8380 C   0  0  2  0  0  3  0  0  0  0  0  0
  179.6520  175.8050  138.6070 C   0  0  0  0  0  2  0  0  0  0  0  0
  179.4880  176.7530  140.8260 C   0  0  0  0  0  2  0  0  0  0  0  0
  179.9380  177.3000  138.5150 C   0  0  1  0  0  0  0  0  0  0  0  0
  179.2130  177.8630  137.4650 O   0  0  0  0  0  1  0  0  0  0  0  0
  179.1260  175.5350  140.0060 C   0  0  0  0  0  2  0  0  0  0  0  0
  181.3410  177.5280  138.3280 O   0  0  0  0  0  0  0  0  0  0  0  0
  182.2310  176.6290  137.7240 C   0  0  0  0  0  0  0  0  0  0  0  0
  183.3630  175.7180  135.7740 C   0  0  0  0  0  3  0  0  0  0  0  0
  183.8020  174.7950  137.9690 C   0  0  0  0  0  3  0  0  0  0  0  0
  184.0310  174.8000  136.5890 C   0  0  0  0  0  3  0  0  0  0  0  0
  182.9060  175.7080  138.5330 C   0  0  0  0  0  3  0  0  0  0  0  0
  182.4660  176.6300  136.3390 C   0  0  0  0  0  3  0  0  0  0  0  0
  1 14  1  1  0  0  0
  1  3  1  0  0  0  0
  2  6  1  0  0  0  0
  3 11  2  0  0  0  0
  3 12  1  0  0  0  0
  4  8  2  0  0  0  0
  5  2  2  0  0  0  0
  7  9  2  0  0  0  0
  7  4  1  0  0  0  0
  8  2  1  0  0  0  0
  9  5  1  0  0  0  0
 10 11  1  0  0  0  0
 11  7  1  0  0  0  0
 12 13  2  0  0  0  0
 13  4  1  0  0  0  0
 15 16  2  0  0  0  0
 15 18  1  0  0  0  0
 16 20  1  0  0  0  0
 18 19  2  0  0  0  0
 19 17  1  0  0  0  0
 19 14  1  0  0  0  0
 20 17  2  0  0  0  0
 21 16  1  0  0  0  0
 22 21  1  0  0  0  0
 23  1  1  0  0  0  0
 24 23  1  0  0  0  0
 24 26  1  0  0  0  0
 26 25  1  0  0  0  0
 27 30  1  6  0  0  0
 27 29  1  0  0  0  0
 28 29  1  0  0  0  0
 29 26  1  6  0  0  0
 30 28  1  0  0  0  0
 31 27  1  0  0  0  0
 31 33  1  1  0  0  0
 32 36  1  0  0  0  0
 34 35  1  6  0  0  0
 34 32  1  0  0  0  0
 34 31  1  0  0  0  0
 36 33  1  0  0  0  0
 37 34  1  0  0  0  0
 38 37  1  0  0  0  0
 38 42  1  0  0  0  0
 39 43  1  0  0  0  0
 39 41  2  0  0  0  0
 40 42  2  0  0  0  0
 41 40  1  0  0  0  0
 43 38  2  0  0  0  0
M  END
>  <MODEL>
9

>  <REMARK>
 VINA RESULT:      -8.3      3.671      9.311
  Name = 
  11 active torsions:
  status: ('A' for Active; 'I' for Inactive)
    1  A    between atoms: C_1  and  C_34
    2  A    between atoms: C_1  and  C_35
    3  A    between atoms: C_3  and  C_4
    4  A    between atoms: N_6  and  C_12
    5  A    between atoms: N_6  and  C_13
    6  A    between atoms: C_8  and  C_34
    7  A    between atoms: C_11  and  O_14
    8  A    between atoms: C_13  and  C_38
    9  A    between atoms: O_14  and  C_22
   10  A    between atoms: C_19  and  O_25
   11  A    between atoms: C_34  and  C_38
                            x       y       z     vdW  Elec       q    Type
                         _______ _______ _______ _____ _____    ______ ____

>  <TORSDO>
F 11

$$$$
