=
 OpenBabel10262422463D

 37 43  0  0  1  0  0  0  0  0999 V2000
  187.5680  178.3470  142.2970 C   0  0  0  0  0  2  0  0  0  0  0  0
  189.6790  177.4100  137.2570 C   0  0  2  0  0  3  0  0  0  0  0  0
  185.3500  177.9430  137.9780 C   0  0  1  0  0  3  0  0  0  0  0  0
  187.8070  177.5800  143.6010 C   0  0  2  0  0  3  0  0  0  0  0  0
  183.2440  178.6050  140.9510 O   0  0  0  0  0  0  0  0  0  0  0  0
  187.2640  176.3480  137.4250 C   0  0  1  0  0  3  0  0  0  0  0  0
  184.9840  177.9600  139.4370 C   0  0  2  0  0  3  0  0  0  0  0  0
  186.8410  177.6910  137.9600 C   0  0  2  0  0  3  0  0  0  0  0  0
  183.8630  178.9560  139.7450 C   0  0  1  0  0  3  0  0  0  0  0  0
  186.5940  176.0790  136.0990 C   0  0  0  0  0  2  0  0  0  0  0  0
  186.5250  177.2550  144.3860 C   0  0  0  0  0  2  0  0  0  0  0  0
  187.3560  177.7970  139.3200 N   0  0  1  0  0  0  0  0  0  0  0  0
  189.3120  178.7290  137.9820 C   0  0  0  0  0  2  0  0  0  0  0  0
  183.1420  176.6650  137.7280 C   0  0  0  0  0  2  0  0  0  0  0  0
  185.1120  175.8720  136.4010 C   0  0  0  0  0  2  0  0  0  0  0  0
  188.5700  178.6310  139.3410 C   0  0  0  0  0  2  0  0  0  0  0  0
  185.2980  178.0720  143.9630 C   0  0  2  0  0  3  0  0  0  0  0  0
  184.0670  179.1260  141.9590 C   0  0  0  0  0  2  0  0  0  0  0  0
  184.4400  177.1050  137.0350 C   0  0  2  0  0  3  0  0  0  0  0  0
  186.2760  178.3730  140.1280 C   0  0  2  0  0  3  0  0  0  0  0  0
  188.7900  176.1620  137.4610 C   0  0  0  0  0  2  0  0  0  0  0  0
  182.8390  179.1040  138.6000 C   0  0  1  0  0  3  0  0  0  0  0  0
  191.1180  177.0500  137.5600 C   0  0  0  0  0  1  0  0  0  0  0  0
  185.0490  178.0490  142.4380 C   0  0  1  0  0  3  0  0  0  0  0  0
  186.3270  177.8360  141.5730 C   0  0  2  0  0  3  0  0  0  0  0  0
  182.1800  177.8100  138.0870 C   0  0  0  0  0  2  0  0  0  0  0  0
  181.8510  181.3860  138.1530 C   0  0  0  0  0  3  0  0  0  0  0  0
  181.8340  180.1800  138.8680 C   0  0  0  0  0  0  0  0  0  0  0  0
  180.8460  179.9640  139.8350 C   0  0  0  0  0  3  0  0  0  0  0  0
  178.9320  180.7340  141.0300 F   0  0  0  0  0  0  0  0  0  0  0  0
  179.9090  182.1500  139.3790 C   0  0  0  0  0  3  0  0  0  0  0  0
  179.8860  180.9470  140.0920 C   0  0  0  0  0  0  0  0  0  0  0  0
  180.8920  182.3690  138.4090 C   0  0  0  0  0  3  0  0  0  0  0  0
  185.2120  179.4400  144.6570 C   0  0  0  0  0  2  0  0  0  0  0  0
  185.5410  179.3900  146.1390 C   0  0  0  0  0  1  0  0  0  0  0  0
  188.8040  177.5330  145.5760 C   0  0  0  0  0  1  0  0  0  0  0  0
  188.6920  178.2950  144.4100 O   0  0  0  0  0  0  0  0  0  0  0  0
  1  4  1  0  0  0  0
  2 21  1  0  0  0  0
  2 23  1  1  0  0  0
  2 13  1  0  0  0  0
  3  7  1  0  0  0  0
  4 11  1  0  0  0  0
  4 37  1  0  0  0  0
  5 18  1  0  0  0  0
  6 21  1  0  0  0  0
  6  8  1  0  0  0  0
  7  9  1  0  0  0  0
  7 20  1  0  0  0  0
  8  3  1  0  0  0  0
  8 12  1  0  0  0  0
  9  5  1  0  0  0  0
 10 15  1  0  0  0  0
 10  6  1  0  0  0  0
 12 16  1  0  0  0  0
 12 20  1  0  0  0  0
 13 16  1  0  0  0  0
 14 26  1  0  0  0  0
 15 19  1  0  0  0  0
 17 11  1  0  0  0  0
 17 34  1  0  0  0  0
 18 24  1  0  0  0  0
 19 14  1  0  0  0  0
 19  3  1  0  0  0  0
 20 25  1  0  0  0  0
 22 28  1  0  0  0  0
 22  9  1  0  0  0  0
 24 17  1  0  0  0  0
 25  1  1  0  0  0  0
 25 24  1  0  0  0  0
 26 22  1  0  0  0  0
 27 33  2  0  0  0  0
 27 28  1  0  0  0  0
 28 29  2  0  0  0  0
 29 32  1  0  0  0  0
 31 32  2  0  0  0  0
 32 30  1  0  0  0  0
 33 31  1  0  0  0  0
 34 35  1  0  0  0  0
 37 36  1  0  0  0  0
M  END
>  <MODEL>
1

>  <REMARK>
 VINA RESULT:      -7.4      0.000      0.000
  Name = 
  3 active torsions:
  status: ('A' for Active; 'I' for Inactive)
    1  A    between atoms: C_5  and  O_23
    2  A    between atoms: C_6  and  C_31
    3  A    between atoms: C_11  and  C_26
                            x       y       z     vdW  Elec       q    Type
                         _______ _______ _______ _____ _____    ______ ____

>  <TORSDO>
F 3

$$$$
=
 OpenBabel10262422463D

 37 43  0  0  1  0  0  0  0  0999 V2000
  182.5630  177.3670  140.1720 C   0  0  0  0  0  2  0  0  0  0  0  0
  183.4310  175.1740  135.1540 C   0  0  2  0  0  3  0  0  0  0  0  0
  186.6240  177.1520  137.4870 C   0  0  1  0  0  3  0  0  0  0  0  0
  181.4720  178.3420  140.6230 C   0  0  2  0  0  3  0  0  0  0  0  0
  186.8260  178.7820  140.8060 O   0  0  0  0  0  0  0  0  0  0  0  0
  185.0200  177.2580  135.5050 C   0  0  1  0  0  3  0  0  0  0  0  0
  186.1160  177.8670  138.7100 C   0  0  2  0  0  3  0  0  0  0  0  0
  185.3810  176.6110  136.8160 C   0  0  2  0  0  3  0  0  0  0  0  0
  187.0790  177.7500  139.8940 C   0  0  1  0  0  3  0  0  0  0  0  0
  186.2230  177.3010  134.5940 C   0  0  0  0  0  2  0  0  0  0  0  0
  181.9880  179.5220  141.4640 C   0  0  0  0  0  2  0  0  0  0  0  0
  184.2440  176.7850  137.7130 N   0  0  1  0  0  0  0  0  0  0  0  0
  183.6380  174.5900  136.5740 C   0  0  0  0  0  2  0  0  0  0  0  0
  188.2260  179.1470  137.3310 C   0  0  0  0  0  2  0  0  0  0  0  0
  187.1930  178.3050  135.2110 C   0  0  0  0  0  2  0  0  0  0  0  0
  183.4590  175.5410  137.7860 C   0  0  0  0  0  2  0  0  0  0  0  0
  183.3970  179.3240  142.0380 C   0  0  2  0  0  3  0  0  0  0  0  0
  185.7350  178.3470  141.5700 C   0  0  0  0  0  2  0  0  0  0  0  0
  187.6730  177.9040  136.6190 C   0  0  2  0  0  3  0  0  0  0  0  0
  184.7990  177.1660  139.0160 C   0  0  2  0  0  3  0  0  0  0  0  0
  183.7340  176.6690  134.9000 C   0  0  0  0  0  2  0  0  0  0  0  0
  188.5650  177.7060  139.4780 C   0  0  1  0  0  3  0  0  0  0  0  0
  182.0280  174.8640  134.6790 C   0  0  0  0  0  1  0  0  0  0  0  0
  184.4310  178.8910  140.9740 C   0  0  1  0  0  3  0  0  0  0  0  0
  183.8340  178.1060  139.7680 C   0  0  2  0  0  3  0  0  0  0  0  0
  189.0680  178.8550  138.5840 C   0  0  0  0  0  2  0  0  0  0  0  0
  190.8620  177.6370  140.5290 C   0  0  0  0  0  3  0  0  0  0  0  0
  189.4750  177.4550  140.6390 C   0  0  0  0  0  0  0  0  0  0  0  0
  188.9260  177.0550  141.8620 C   0  0  0  0  0  3  0  0  0  0  0  0
  189.2170  176.4410  144.1470 F   0  0  0  0  0  0  0  0  0  0  0  0
  191.1360  177.0080  142.8500 C   0  0  0  0  0  3  0  0  0  0  0  0
  189.7540  176.8300  142.9650 C   0  0  0  0  0  0  0  0  0  0  0  0
  191.6890  177.4120  141.6320 C   0  0  0  0  0  3  0  0  0  0  0  0
  183.4060  178.5510  143.3660 C   0  0  0  0  0  2  0  0  0  0  0  0
  183.8240  179.3960  144.5560 C   0  0  0  0  0  1  0  0  0  0  0  0
  179.7570  178.6410  141.9880 C   0  0  0  0  0  1  0  0  0  0  0  0
  180.4870  177.6500  141.3290 O   0  0  0  0  0  0  0  0  0  0  0  0
  1  4  1  0  0  0  0
  2 23  1  1  0  0  0
  2 13  1  0  0  0  0
  3  7  1  0  0  0  0
  4 37  1  0  0  0  0
  4 11  1  0  0  0  0
  5 18  1  0  0  0  0
  6  8  1  0  0  0  0
  7 20  1  0  0  0  0
  7  9  1  0  0  0  0
  8  3  1  0  0  0  0
  8 12  1  0  0  0  0
  9  5  1  0  0  0  0
 10 15  1  0  0  0  0
 10  6  1  0  0  0  0
 11 17  1  0  0  0  0
 12 16  1  0  0  0  0
 12 20  1  0  0  0  0
 13 16  1  0  0  0  0
 14 26  1  0  0  0  0
 15 19  1  0  0  0  0
 17 34  1  0  0  0  0
 19 14  1  0  0  0  0
 19  3  1  0  0  0  0
 20 25  1  0  0  0  0
 21  2  1  0  0  0  0
 21  6  1  0  0  0  0
 22  9  1  0  0  0  0
 22 28  1  0  0  0  0
 24 18  1  0  0  0  0
 24 17  1  0  0  0  0
 25  1  1  0  0  0  0
 25 24  1  0  0  0  0
 26 22  1  0  0  0  0
 27 28  2  0  0  0  0
 27 33  1  0  0  0  0
 28 29  1  0  0  0  0
 29 32  2  0  0  0  0
 31 32  1  0  0  0  0
 32 30  1  0  0  0  0
 33 31  2  0  0  0  0
 34 35  1  0  0  0  0
 37 36  1  0  0  0  0
M  END
>  <MODEL>
2

>  <REMARK>
 VINA RESULT:      -6.0      2.932      6.606
  Name = 
  3 active torsions:
  status: ('A' for Active; 'I' for Inactive)
    1  A    between atoms: C_5  and  O_23
    2  A    between atoms: C_6  and  C_31
    3  A    between atoms: C_11  and  C_26
                            x       y       z     vdW  Elec       q    Type
                         _______ _______ _______ _____ _____    ______ ____

>  <TORSDO>
F 3

$$$$
=
 OpenBabel10262422463D

 37 43  0  0  1  0  0  0  0  0999 V2000
  185.3160  175.5040  136.9390 C   0  0  0  0  0  2  0  0  0  0  0  0
  188.3110  171.0740  135.4780 C   0  0  2  0  0  3  0  0  0  0  0  0
  190.0580  174.5680  137.5470 C   0  0  1  0  0  3  0  0  0  0  0  0
  184.3560  176.3430  136.0890 C   0  0  2  0  0  3  0  0  0  0  0  0
  188.7500  177.7870  138.8280 O   0  0  0  0  0  0  0  0  0  0  0  0
  189.8190  173.2430  135.3790 C   0  0  1  0  0  3  0  0  0  0  0  0
  189.1180  175.7390  137.6420 C   0  0  2  0  0  3  0  0  0  0  0  0
  189.2940  173.5260  136.7620 C   0  0  2  0  0  3  0  0  0  0  0  0
  189.2540  176.4890  138.9690 C   0  0  1  0  0  3  0  0  0  0  0  0
  191.3060  172.9860  135.4270 C   0  0  0  0  0  2  0  0  0  0  0  0
  184.5500  177.8620  136.2320 C   0  0  0  0  0  2  0  0  0  0  0  0
  187.9090  173.9610  136.6190 N   0  0  1  0  0  0  0  0  0  0  0  0
  187.6120  171.4400  136.8120 C   0  0  0  0  0  2  0  0  0  0  0  0
  191.8320  176.3840  137.1860 C   0  0  0  0  0  2  0  0  0  0  0  0
  191.9610  174.3220  135.7710 C   0  0  0  0  0  2  0  0  0  0  0  0
  186.9920  172.8560  136.9440 C   0  0  0  0  0  2  0  0  0  0  0  0
  185.3650  178.2850  137.4600 C   0  0  2  0  0  3  0  0  0  0  0  0
  187.3610  177.6660  138.9690 C   0  0  0  0  0  2  0  0  0  0  0  0
  191.5270  174.8790  137.1400 C   0  0  2  0  0  3  0  0  0  0  0  0
  187.7390  175.1040  137.5220 C   0  0  2  0  0  3  0  0  0  0  0  0
  188.9750  172.1910  134.6400 C   0  0  0  0  0  2  0  0  0  0  0  0
  190.6940  176.4940  139.5290 C   0  0  1  0  0  3  0  0  0  0  0  0
  187.3520  170.2980  134.6010 C   0  0  0  0  0  1  0  0  0  0  0  0
  186.7070  177.5280  137.5880 C   0  0  1  0  0  3  0  0  0  0  0  0
  186.7160  176.1070  136.9500 C   0  0  2  0  0  3  0  0  0  0  0  0
  191.8000  177.0080  138.5900 C   0  0  0  0  0  2  0  0  0  0  0  0
  192.0050  177.5030  141.4380 C   0  0  0  0  0  3  0  0  0  0  0  0
  190.7750  177.1120  140.8890 C   0  0  0  0  0  0  0  0  0  0  0  0
  189.5960  177.3250  141.6130 C   0  0  0  0  0  3  0  0  0  0  0  0
  188.5010  178.1180  143.5760 F   0  0  0  0  0  0  0  0  0  0  0  0
  190.8740  178.3000  143.4240 C   0  0  0  0  0  3  0  0  0  0  0  0
  189.6450  177.9160  142.8790 C   0  0  0  0  0  0  0  0  0  0  0  0
  192.0530  178.0940  142.7040 C   0  0  0  0  0  3  0  0  0  0  0  0
  184.5190  178.4110  138.7360 C   0  0  0  0  0  2  0  0  0  0  0  0
  183.7960  179.7410  138.8540 C   0  0  0  0  0  1  0  0  0  0  0  0
  183.1340  175.1680  137.5120 C   0  0  0  0  0  1  0  0  0  0  0  0
  183.0380  176.0010  136.3950 O   0  0  0  0  0  0  0  0  0  0  0  0
  1 25  1  0  0  0  0
  2 23  1  6  0  0  0
  2 13  1  0  0  0  0
  3  7  1  0  0  0  0
  4 11  1  0  0  0  0
  4 37  1  0  0  0  0
  4  1  1  0  0  0  0
  5 18  1  0  0  0  0
  5  9  1  0  0  0  0
  6 10  1  0  0  0  0
  6  8  1  0  0  0  0
  7  9  1  0  0  0  0
  8  3  1  0  0  0  0
  9 22  1  0  0  0  0
 10 15  1  0  0  0  0
 11 17  1  0  0  0  0
 12  8  1  0  0  0  0
 12 16  1  0  0  0  0
 12 20  1  0  0  0  0
 13 16  1  0  0  0  0
 14 26  1  0  0  0  0
 15 19  1  0  0  0  0
 17 24  1  0  0  0  0
 17 34  1  0  0  0  0
 19 14  1  0  0  0  0
 19  3  1  0  0  0  0
 20  7  1  0  0  0  0
 21  6  1  0  0  0  0
 21  2  1  0  0  0  0
 22 28  1  0  0  0  0
 24 18  1  0  0  0  0
 25 20  1  0  0  0  0
 25 24  1  0  0  0  0
 26 22  1  0  0  0  0
 27 33  1  0  0  0  0
 28 27  2  0  0  0  0
 28 29  1  0  0  0  0
 29 32  2  0  0  0  0
 32 31  1  0  0  0  0
 32 30  1  0  0  0  0
 33 31  2  0  0  0  0
 34 35  1  0  0  0  0
 37 36  1  0  0  0  0
M  END
>  <MODEL>
3

>  <REMARK>
 VINA RESULT:      -5.9      3.510      7.821
  Name = 
  3 active torsions:
  status: ('A' for Active; 'I' for Inactive)
    1  A    between atoms: C_5  and  O_23
    2  A    between atoms: C_6  and  C_31
    3  A    between atoms: C_11  and  C_26
                            x       y       z     vdW  Elec       q    Type
                         _______ _______ _______ _____ _____    ______ ____

>  <TORSDO>
F 3

$$$$
=
 OpenBabel10262422463D

 37 43  0  0  1  0  0  0  0  0999 V2000
  186.8270  176.4580  137.1870 C   0  0  0  0  0  2  0  0  0  0  0  0
  191.2490  173.3370  135.9840 C   0  0  2  0  0  3  0  0  0  0  0  0
  191.0830  175.9920  139.5140 C   0  0  1  0  0  3  0  0  0  0  0  0
  186.0520  177.4210  136.2840 C   0  0  2  0  0  3  0  0  0  0  0  0
  188.5630  178.2910  140.9560 O   0  0  0  0  0  0  0  0  0  0  0  0
  192.0260  175.5610  137.1820 C   0  0  1  0  0  3  0  0  0  0  0  0
  189.8880  176.9070  139.5200 C   0  0  2  0  0  3  0  0  0  0  0  0
  190.9770  175.2320  138.2120 C   0  0  2  0  0  3  0  0  0  0  0  0
  189.3190  177.1130  140.9250 C   0  0  1  0  0  3  0  0  0  0  0  0
  193.4020  175.5030  137.8010 C   0  0  0  0  0  2  0  0  0  0  0  0
  185.7520  178.7860  136.9270 C   0  0  0  0  0  2  0  0  0  0  0  0
  189.6770  175.5030  137.6080 N   0  0  1  0  0  0  0  0  0  0  0  0
  190.0400  173.0790  136.9190 C   0  0  0  0  0  2  0  0  0  0  0  0
  192.2900  178.0260  140.5040 C   0  0  0  0  0  2  0  0  0  0  0  0
  193.4900  176.6840  138.7640 C   0  0  0  0  0  2  0  0  0  0  0  0
  189.0490  174.2470  137.1660 C   0  0  0  0  0  2  0  0  0  0  0  0
  185.9130  178.8180  138.4510 C   0  0  2  0  0  3  0  0  0  0  0  0
  187.3100  177.9450  140.4330 C   0  0  0  0  0  2  0  0  0  0  0  0
  192.4520  176.6230  139.9000 C   0  0  2  0  0  3  0  0  0  0  0  0
  188.8810  176.1890  138.6320 C   0  0  2  0  0  3  0  0  0  0  0  0
  191.8350  174.7630  135.8810 C   0  0  0  0  0  2  0  0  0  0  0  0
  190.3940  177.0960  142.0340 C   0  0  1  0  0  3  0  0  0  0  0  0
  190.9300  172.8290  134.5940 C   0  0  0  0  0  1  0  0  0  0  0  0
  187.2690  178.2520  138.9310 C   0  0  1  0  0  3  0  0  0  0  0  0
  187.9030  177.1900  137.9830 C   0  0  2  0  0  3  0  0  0  0  0  0
  191.5780  178.0660  141.8660 C   0  0  0  0  0  2  0  0  0  0  0  0
  190.5920  177.4460  144.5280 C   0  0  0  0  0  3  0  0  0  0  0  0
  189.8000  177.1610  143.4060 C   0  0  0  0  0  0  0  0  0  0  0  0
  188.4250  176.9590  143.5630 C   0  0  0  0  0  3  0  0  0  0  0  0
  186.5120  176.8330  144.9810 F   0  0  0  0  0  0  0  0  0  0  0  0
  188.6370  177.3120  145.9500 C   0  0  0  0  0  3  0  0  0  0  0  0
  187.8440  177.0310  144.8330 C   0  0  0  0  0  0  0  0  0  0  0  0
  190.0110  177.5200  145.7970 C   0  0  0  0  0  3  0  0  0  0  0  0
  184.6610  178.3430  139.2040 C   0  0  0  0  0  2  0  0  0  0  0  0
  183.6060  179.4230  139.3670 C   0  0  0  0  0  1  0  0  0  0  0  0
  184.8920  175.5420  136.4330 C   0  0  0  0  0  1  0  0  0  0  0  0
  184.8620  176.8190  135.8690 O   0  0  0  0  0  0  0  0  0  0  0  0
  1 25  1  0  0  0  0
  2 23  1  6  0  0  0
  2 13  1  0  0  0  0
  3  7  1  0  0  0  0
  3 19  1  0  0  0  0
  4 11  1  0  0  0  0
  4  1  1  0  0  0  0
  6 10  1  0  0  0  0
  6  8  1  0  0  0  0
  7  9  1  0  0  0  0
  8  3  1  0  0  0  0
  9  5  1  0  0  0  0
  9 22  1  0  0  0  0
 10 15  1  0  0  0  0
 11 17  1  0  0  0  0
 12  8  1  0  0  0  0
 12 20  1  0  0  0  0
 13 16  1  0  0  0  0
 14 26  1  0  0  0  0
 15 19  1  0  0  0  0
 16 12  1  0  0  0  0
 17 24  1  0  0  0  0
 17 34  1  0  0  0  0
 18  5  1  0  0  0  0
 19 14  1  0  0  0  0
 20  7  1  0  0  0  0
 21  2  1  0  0  0  0
 21  6  1  0  0  0  0
 22 28  1  0  0  0  0
 24 18  1  0  0  0  0
 25 20  1  0  0  0  0
 25 24  1  0  0  0  0
 26 22  1  0  0  0  0
 27 33  1  0  0  0  0
 28 29  1  0  0  0  0
 28 27  2  0  0  0  0
 29 32  2  0  0  0  0
 32 30  1  0  0  0  0
 32 31  1  0  0  0  0
 33 31  2  0  0  0  0
 34 35  1  0  0  0  0
 37  4  1  0  0  0  0
 37 36  1  0  0  0  0
M  END
>  <MODEL>
4

>  <REMARK>
 VINA RESULT:      -5.7      2.916      7.506
  Name = 
  3 active torsions:
  status: ('A' for Active; 'I' for Inactive)
    1  A    between atoms: C_5  and  O_23
    2  A    between atoms: C_6  and  C_31
    3  A    between atoms: C_11  and  C_26
                            x       y       z     vdW  Elec       q    Type
                         _______ _______ _______ _____ _____    ______ ____

>  <TORSDO>
F 3

$$$$
=
 OpenBabel10262422463D

 37 43  0  0  1  0  0  0  0  0999 V2000
  188.0800  177.9040  139.9610 C   0  0  0  0  0  2  0  0  0  0  0  0
  186.6460  177.9160  145.3160 C   0  0  2  0  0  3  0  0  0  0  0  0
  183.6750  177.9100  142.0420 C   0  0  1  0  0  3  0  0  0  0  0  0
  189.0620  178.8190  139.2230 C   0  0  2  0  0  3  0  0  0  0  0  0
  183.8430  177.8790  138.3430 O   0  0  0  0  0  0  0  0  0  0  0  0
  184.8310  179.2190  143.9030 C   0  0  1  0  0  3  0  0  0  0  0  0
  184.2810  178.1350  140.6830 C   0  0  2  0  0  3  0  0  0  0  0  0
  184.8390  178.0120  143.0020 C   0  0  2  0  0  3  0  0  0  0  0  0
  183.5950  177.3050  139.5950 C   0  0  1  0  0  3  0  0  0  0  0  0
  183.4860  179.3630  144.5730 C   0  0  0  0  0  2  0  0  0  0  0  0
  188.5270  179.3740  137.8910 C   0  0  0  0  0  2  0  0  0  0  0  0
  186.0810  178.0480  142.2390 N   0  0  1  0  0  0  0  0  0  0  0  0
  186.8130  176.7530  144.3060 C   0  0  0  0  0  2  0  0  0  0  0  0
  181.7660  179.3490  141.1160 C   0  0  0  0  0  2  0  0  0  0  0  0
  182.5000  179.7530  143.4750 C   0  0  0  0  0  2  0  0  0  0  0  0
  187.0600  177.1120  142.8170 C   0  0  0  0  0  2  0  0  0  0  0  0
  187.3070  178.6280  137.3370 C   0  0  2  0  0  3  0  0  0  0  0  0
  185.1160  177.4280  137.9700 C   0  0  0  0  0  2  0  0  0  0  0  0
  182.3700  178.6930  142.3660 C   0  0  2  0  0  3  0  0  0  0  0  0
  185.7290  177.6990  140.8590 C   0  0  2  0  0  3  0  0  0  0  0  0
  186.0570  179.2600  144.8310 C   0  0  0  0  0  2  0  0  0  0  0  0
  182.0850  177.0970  139.8400 C   0  0  1  0  0  3  0  0  0  0  0  0
  187.9640  178.1740  146.0140 C   0  0  0  0  0  1  0  0  0  0  0  0
  186.1740  178.4610  138.3750 C   0  0  1  0  0  3  0  0  0  0  0  0
  186.6510  178.4260  139.8590 C   0  0  2  0  0  3  0  0  0  0  0  0
  181.2380  178.3640  140.0590 C   0  0  0  0  0  2  0  0  0  0  0  0
  180.1710  176.3910  138.3500 C   0  0  0  0  0  3  0  0  0  0  0  0
  181.4670  176.1720  138.8390 C   0  0  0  0  0  0  0  0  0  0  0  0
  182.2090  175.0840  138.3680 C   0  0  0  0  0  3  0  0  0  0  0  0
  182.3810  173.1600  136.9690 F   0  0  0  0  0  0  0  0  0  0  0  0
  180.3660  174.4340  136.9380 C   0  0  0  0  0  3  0  0  0  0  0  0
  181.6600  174.2140  137.4210 C   0  0  0  0  0  0  0  0  0  0  0  0
  179.6220  175.5220  137.4020 C   0  0  0  0  0  3  0  0  0  0  0  0
  187.6780  177.3860  136.5130 C   0  0  0  0  0  2  0  0  0  0  0  0
  188.9730  177.5390  135.7350 C   0  0  0  0  0  1  0  0  0  0  0  0
  190.0570  176.8680  139.5410 C   0  0  0  0  0  1  0  0  0  0  0  0
  190.2640  178.1430  139.0080 O   0  0  0  0  0  0  0  0  0  0  0  0
  2 23  1  6  0  0  0
  3 19  1  0  0  0  0
  3  8  1  0  0  0  0
  4  1  1  0  0  0  0
  5  9  1  0  0  0  0
  6 10  1  0  0  0  0
  6 21  1  0  0  0  0
  7 20  1  0  0  0  0
  7  3  1  0  0  0  0
  8  6  1  0  0  0  0
  9 22  1  0  0  0  0
  9  7  1  0  0  0  0
 11  4  1  0  0  0  0
 12 16  1  0  0  0  0
 12  8  1  0  0  0  0
 13  2  1  0  0  0  0
 14 19  1  0  0  0  0
 15 10  1  0  0  0  0
 16 13  1  0  0  0  0
 17 11  1  0  0  0  0
 17 24  1  0  0  0  0
 18  5  1  0  0  0  0
 18 24  1  0  0  0  0
 19 15  1  0  0  0  0
 20 12  1  0  0  0  0
 21  2  1  0  0  0  0
 22 26  1  0  0  0  0
 24 25  1  0  0  0  0
 25  1  1  0  0  0  0
 25 20  1  0  0  0  0
 26 14  1  0  0  0  0
 27 28  1  0  0  0  0
 28 22  1  0  0  0  0
 29 28  2  0  0  0  0
 30 32  1  0  0  0  0
 31 33  1  0  0  0  0
 31 32  2  0  0  0  0
 32 29  1  0  0  0  0
 33 27  2  0  0  0  0
 34 17  1  0  0  0  0
 35 34  1  0  0  0  0
 37  4  1  0  0  0  0
 37 36  1  0  0  0  0
M  END
>  <MODEL>
5

>  <REMARK>
 VINA RESULT:      -5.7      2.592      6.200
  Name = 
  3 active torsions:
  status: ('A' for Active; 'I' for Inactive)
    1  A    between atoms: C_5  and  O_23
    2  A    between atoms: C_6  and  C_31
    3  A    between atoms: C_11  and  C_26
                            x       y       z     vdW  Elec       q    Type
                         _______ _______ _______ _____ _____    ______ ____

>  <TORSDO>
F 3

$$$$
=
 OpenBabel10262422463D

 37 43  0  0  1  0  0  0  0  0999 V2000
  188.7110  177.6030  139.2810 C   0  0  0  0  0  2  0  0  0  0  0  0
  189.0700  176.8840  144.7670 C   0  0  2  0  0  3  0  0  0  0  0  0
  185.2630  177.8090  142.7180 C   0  0  1  0  0  3  0  0  0  0  0  0
  189.5530  178.5000  138.3690 C   0  0  2  0  0  3  0  0  0  0  0  0
  184.2440  178.3870  139.2050 O   0  0  0  0  0  0  0  0  0  0  0  0
  187.1590  178.6260  144.2180 C   0  0  1  0  0  3  0  0  0  0  0  0
  185.4380  178.1830  141.2710 C   0  0  2  0  0  3  0  0  0  0  0  0
  186.6700  177.5990  143.2320 C   0  0  2  0  0  3  0  0  0  0  0  0
  184.3090  177.6440  140.3890 C   0  0  1  0  0  3  0  0  0  0  0  0
  186.1420  178.8220  145.3170 C   0  0  0  0  0  2  0  0  0  0  0  0
  188.7300  179.3360  137.3730 C   0  0  0  0  0  2  0  0  0  0  0  0
  187.5930  177.6080  142.1030 N   0  0  1  0  0  0  0  0  0  0  0  0
  188.7030  175.8980  143.6290 C   0  0  0  0  0  2  0  0  0  0  0  0
  183.4410  179.6120  142.6720 C   0  0  0  0  0  2  0  0  0  0  0  0
  184.9430  179.5130  144.6730 C   0  0  0  0  0  2  0  0  0  0  0  0
  188.5250  176.4710  142.1980 C   0  0  0  0  0  2  0  0  0  0  0  0
  187.2870  178.8550  137.1810 C   0  0  2  0  0  3  0  0  0  0  0  0
  185.2340  177.8490  138.3720 C   0  0  0  0  0  2  0  0  0  0  0  0
  184.2860  178.6820  143.5560 C   0  0  2  0  0  3  0  0  0  0  0  0
  186.7670  177.5450  140.8920 C   0  0  2  0  0  3  0  0  0  0  0  0
  188.6030  178.3540  144.6740 C   0  0  0  0  0  2  0  0  0  0  0  0
  182.9420  177.5890  141.1050 C   0  0  1  0  0  3  0  0  0  0  0  0
  190.5650  176.8510  145.0020 C   0  0  0  0  0  1  0  0  0  0  0  0
  186.5300  178.6570  138.5140 C   0  0  1  0  0  3  0  0  0  0  0  0
  187.4380  178.3110  139.7330 C   0  0  2  0  0  3  0  0  0  0  0  0
  182.4430  178.8960  141.7480 C   0  0  0  0  0  2  0  0  0  0  0  0
  180.5660  177.4030  140.2660 C   0  0  0  0  0  3  0  0  0  0  0  0
  181.8870  176.9320  140.2710 C   0  0  0  0  0  0  0  0  0  0  0  0
  182.2360  175.8440  139.4630 C   0  0  0  0  0  3  0  0  0  0  0  0
  181.6140  174.1690  137.8840 F   0  0  0  0  0  0  0  0  0  0  0  0
  179.9550  175.6940  138.6630 C   0  0  0  0  0  3  0  0  0  0  0  0
  181.2720  175.2240  138.6620 C   0  0  0  0  0  0  0  0  0  0  0  0
  179.6030  176.7840  139.4650 C   0  0  0  0  0  3  0  0  0  0  0  0
  187.1550  177.7340  136.1390 C   0  0  0  0  0  2  0  0  0  0  0  0
  188.1940  177.8090  135.0340 C   0  0  0  0  0  1  0  0  0  0  0  0
  190.7810  176.6680  138.5460 C   0  0  0  0  0  1  0  0  0  0  0  0
  190.4870  177.7250  137.6810 O   0  0  0  0  0  0  0  0  0  0  0  0
  1 25  1  0  0  0  0
  2 23  1  6  0  0  0
  3  8  1  0  0  0  0
  3 19  1  0  0  0  0
  4  1  1  0  0  0  0
  5  9  1  0  0  0  0
  6 21  1  0  0  0  0
  6 10  1  0  0  0  0
  7  3  1  0  0  0  0
  8  6  1  0  0  0  0
  9 22  1  0  0  0  0
  9  7  1  0  0  0  0
 11  4  1  0  0  0  0
 12 16  1  0  0  0  0
 12  8  1  0  0  0  0
 13  2  1  0  0  0  0
 14 19  1  0  0  0  0
 15 10  1  0  0  0  0
 16 13  1  0  0  0  0
 17 11  1  0  0  0  0
 17 24  1  0  0  0  0
 18 24  1  0  0  0  0
 18  5  1  0  0  0  0
 19 15  1  0  0  0  0
 20  7  1  0  0  0  0
 20 12  1  0  0  0  0
 21  2  1  0  0  0  0
 22 26  1  0  0  0  0
 24 25  1  0  0  0  0
 25 20  1  0  0  0  0
 26 14  1  0  0  0  0
 27 28  1  0  0  0  0
 28 22  1  0  0  0  0
 29 28  2  0  0  0  0
 30 32  1  0  0  0  0
 31 33  1  0  0  0  0
 32 31  2  0  0  0  0
 32 29  1  0  0  0  0
 33 27  2  0  0  0  0
 34 17  1  0  0  0  0
 35 34  1  0  0  0  0
 37  4  1  0  0  0  0
 37 36  1  0  0  0  0
M  END
>  <MODEL>
6

>  <REMARK>
 VINA RESULT:      -5.1      2.751      6.043
  Name = 
  3 active torsions:
  status: ('A' for Active; 'I' for Inactive)
    1  A    between atoms: C_5  and  O_23
    2  A    between atoms: C_6  and  C_31
    3  A    between atoms: C_11  and  C_26
                            x       y       z     vdW  Elec       q    Type
                         _______ _______ _______ _____ _____    ______ ____

>  <TORSDO>
F 3

$$$$
=
 OpenBabel10262422463D

 37 43  0  0  1  0  0  0  0  0999 V2000
  182.6410  176.7570  138.5790 C   0  0  0  0  0  2  0  0  0  0  0  0
  184.6280  172.6530  135.4250 C   0  0  2  0  0  3  0  0  0  0  0  0
  187.2170  175.7340  137.2540 C   0  0  1  0  0  3  0  0  0  0  0  0
  181.4950  177.7300  138.2860 C   0  0  2  0  0  3  0  0  0  0  0  0
  186.6610  178.6790  139.4300 O   0  0  0  0  0  0  0  0  0  0  0  0
  186.1330  174.8070  135.1390 C   0  0  1  0  0  3  0  0  0  0  0  0
  186.4500  176.8690  137.8750 C   0  0  2  0  0  3  0  0  0  0  0  0
  186.1580  174.8440  136.6440 C   0  0  2  0  0  3  0  0  0  0  0  0
  187.1000  177.3760  139.1650 C   0  0  1  0  0  3  0  0  0  0  0  0
  187.5180  174.5480  134.5980 C   0  0  0  0  0  2  0  0  0  0  0  0
  181.8230  179.2010  138.5940 C   0  0  0  0  0  2  0  0  0  0  0  0
  184.8450  175.2960  137.0880 N   0  0  1  0  0  0  0  0  0  0  0  0
  184.4790  172.7800  136.9630 C   0  0  0  0  0  2  0  0  0  0  0  0
  188.8530  177.5870  136.5730 C   0  0  0  0  0  2  0  0  0  0  0  0
  188.3360  175.8030  134.8930 C   0  0  0  0  0  2  0  0  0  0  0  0
  184.0380  174.1500  137.5410 C   0  0  0  0  0  2  0  0  0  0  0  0
  183.0500  179.4040  139.4920 C   0  0  2  0  0  3  0  0  0  0  0  0
  185.4110  178.5330  140.0460 C   0  0  0  0  0  2  0  0  0  0  0  0
  188.4590  176.1130  136.3960 C   0  0  2  0  0  3  0  0  0  0  0  0
  185.0830  176.2640  138.1650 C   0  0  2  0  0  3  0  0  0  0  0  0
  185.0150  173.8990  134.5980 C   0  0  0  0  0  2  0  0  0  0  0  0
  188.6420  177.2840  139.1540 C   0  0  1  0  0  3  0  0  0  0  0  0
  183.3710  172.0410  134.8440 C   0  0  0  0  0  1  0  0  0  0  0  0
  184.2980  178.6380  138.9970 C   0  0  1  0  0  3  0  0  0  0  0  0
  183.9880  177.3500  138.1770 C   0  0  2  0  0  3  0  0  0  0  0  0
  189.3670  177.9560  137.9740 C   0  0  0  0  0  2  0  0  0  0  0  0
  188.5010  178.3380  141.4460 C   0  0  0  0  0  3  0  0  0  0  0  0
  189.2450  177.6560  140.4720 C   0  0  0  0  0  0  0  0  0  0  0  0
  190.5690  177.2910  140.7420 C   0  0  0  0  0  3  0  0  0  0  0  0
  192.4320  177.2600  142.2300 F   0  0  0  0  0  0  0  0  0  0  0  0
  190.4060  178.2960  142.9400 C   0  0  0  0  0  3  0  0  0  0  0  0
  191.1490  177.6130  141.9730 C   0  0  0  0  0  0  0  0  0  0  0  0
  189.0820  178.6580  142.6760 C   0  0  0  0  0  3  0  0  0  0  0  0
  182.7270  179.3050  140.9900 C   0  0  0  0  0  2  0  0  0  0  0  0
  181.2660  179.5590  141.3150 C   0  0  0  0  0  1  0  0  0  0  0  0
  180.7610  176.2300  139.7380 C   0  0  0  0  0  1  0  0  0  0  0  0
  180.3560  177.3390  138.9920 O   0  0  0  0  0  0  0  0  0  0  0  0
  2 23  1  6  0  0  0
  2 13  1  0  0  0  0
  3  7  1  0  0  0  0
  4  1  1  0  0  0  0
  4 11  1  0  0  0  0
  4 37  1  0  0  0  0
  5 18  1  0  0  0  0
  6  8  1  0  0  0  0
  7 20  1  0  0  0  0
  7  9  1  0  0  0  0
  8 12  1  0  0  0  0
  8  3  1  0  0  0  0
  9  5  1  0  0  0  0
 10 15  1  0  0  0  0
 10  6  1  0  0  0  0
 11 17  1  0  0  0  0
 12 16  1  0  0  0  0
 12 20  1  0  0  0  0
 13 16  1  0  0  0  0
 14 26  1  0  0  0  0
 15 19  1  0  0  0  0
 17 34  1  0  0  0  0
 19 14  1  0  0  0  0
 19  3  1  0  0  0  0
 20 25  1  0  0  0  0
 21  6  1  0  0  0  0
 21  2  1  0  0  0  0
 22  9  1  0  0  0  0
 22 28  1  0  0  0  0
 24 17  1  0  0  0  0
 24 18  1  0  0  0  0
 25  1  1  0  0  0  0
 25 24  1  0  0  0  0
 26 22  1  0  0  0  0
 27 33  1  0  0  0  0
 28 29  1  0  0  0  0
 28 27  2  0  0  0  0
 29 32  2  0  0  0  0
 32 30  1  0  0  0  0
 32 31  1  0  0  0  0
 33 31  2  0  0  0  0
 34 35  1  0  0  0  0
 37 36  1  0  0  0  0
M  END
>  <MODEL>
7

>  <REMARK>
 VINA RESULT:      -5.1      3.349      7.014
  Name = 
  3 active torsions:
  status: ('A' for Active; 'I' for Inactive)
    1  A    between atoms: C_5  and  O_23
    2  A    between atoms: C_6  and  C_31
    3  A    between atoms: C_11  and  C_26
                            x       y       z     vdW  Elec       q    Type
                         _______ _______ _______ _____ _____    ______ ____

>  <TORSDO>
F 3

$$$$
=
 OpenBabel10262422463D

 37 43  0  0  1  0  0  0  0  0999 V2000
  191.5530  177.2770  140.2050 C   0  0  0  0  0  2  0  0  0  0  0  0
  195.0030  175.0540  136.4780 C   0  0  2  0  0  3  0  0  0  0  0  0
  190.6050  174.7590  136.1430 C   0  0  1  0  0  3  0  0  0  0  0  0
  191.5610  177.1380  141.7300 C   0  0  2  0  0  3  0  0  0  0  0  0
  187.7310  175.9600  138.1460 O   0  0  0  0  0  0  0  0  0  0  0  0
  192.8120  173.5850  136.6540 C   0  0  1  0  0  3  0  0  0  0  0  0
  189.8780  175.2330  137.3720 C   0  0  2  0  0  3  0  0  0  0  0  0
  192.0710  174.8850  136.4920 C   0  0  2  0  0  3  0  0  0  0  0  0
  188.5800  175.9700  137.0330 C   0  0  1  0  0  3  0  0  0  0  0  0
  192.5540  172.6850  135.4700 C   0  0  0  0  0  2  0  0  0  0  0  0
  190.1830  176.8330  142.3420 C   0  0  0  0  0  2  0  0  0  0  0  0
  192.1970  175.6160  137.7480 N   0  0  1  0  0  0  0  0  0  0  0  0
  194.2690  176.4180  136.5040 C   0  0  0  0  0  2  0  0  0  0  0  0
  188.7510  172.9890  136.0740 C   0  0  0  0  0  2  0  0  0  0  0  0
  191.0920  172.2560  135.5690 C   0  0  0  0  0  2  0  0  0  0  0  0
  193.2260  176.6620  137.6270 C   0  0  0  0  0  2  0  0  0  0  0  0
  188.9980  177.1100  141.4090 C   0  0  2  0  0  3  0  0  0  0  0  0
  188.1810  177.0030  138.9670 C   0  0  0  0  0  2  0  0  0  0  0  0
  190.1040  173.4350  135.4980 C   0  0  2  0  0  3  0  0  0  0  0  0
  190.8720  176.1740  138.0380 C   0  0  2  0  0  3  0  0  0  0  0  0
  194.2880  173.8000  137.0300 C   0  0  0  0  0  2  0  0  0  0  0  0
  187.8740  175.4260  135.7720 C   0  0  1  0  0  3  0  0  0  0  0  0
  196.3530  175.1930  137.1490 C   0  0  0  0  0  1  0  0  0  0  0  0
  189.1550  176.4560  140.0170 C   0  0  1  0  0  3  0  0  0  0  0  0
  190.6300  176.2480  139.5590 C   0  0  2  0  0  3  0  0  0  0  0  0
  187.5700  173.9170  135.7450 C   0  0  0  0  0  2  0  0  0  0  0  0
  186.8240  177.5850  134.9850 C   0  0  0  0  0  3  0  0  0  0  0  0
  186.6850  176.2470  135.3840 C   0  0  0  0  0  0  0  0  0  0  0  0
  185.4160  175.6580  135.3970 C   0  0  0  0  0  3  0  0  0  0  0  0
  183.0650  175.8270  135.0390 F   0  0  0  0  0  0  0  0  0  0  0  0
  184.4340  177.7350  134.6290 C   0  0  0  0  0  3  0  0  0  0  0  0
  184.2920  176.4000  135.0230 C   0  0  0  0  0  0  0  0  0  0  0  0
  185.7000  178.3260  134.6100 C   0  0  0  0  0  3  0  0  0  0  0  0
  188.5340  178.5740  141.4360 C   0  0  0  0  0  2  0  0  0  0  0  0
  187.0540  178.7350  141.7380 C   0  0  0  0  0  1  0  0  0  0  0  0
  191.6550  178.2680  143.6300 C   0  0  0  0  0  1  0  0  0  0  0  0
  192.0910  178.2950  142.3040 O   0  0  0  0  0  0  0  0  0  0  0  0
  1  4  1  0  0  0  0
  2 13  1  0  0  0  0
  2 21  1  0  0  0  0
  2 23  1  1  0  0  0
  3  8  1  0  0  0  0
  3  7  1  0  0  0  0
  4 37  1  0  0  0  0
  4 11  1  0  0  0  0
  5 18  1  0  0  0  0
  6 21  1  0  0  0  0
  7 20  1  0  0  0  0
  8  6  1  0  0  0  0
  8 12  1  0  0  0  0
  9  7  1  0  0  0  0
  9  5  1  0  0  0  0
 10 15  1  0  0  0  0
 10  6  1  0  0  0  0
 12 20  1  0  0  0  0
 13 16  1  0  0  0  0
 16 12  1  0  0  0  0
 17 34  1  0  0  0  0
 17 11  1  0  0  0  0
 18 24  1  0  0  0  0
 19 15  1  0  0  0  0
 19 14  1  0  0  0  0
 19  3  1  0  0  0  0
 20 25  1  0  0  0  0
 22  9  1  0  0  0  0
 24 17  1  0  0  0  0
 25 24  1  0  0  0  0
 25  1  1  0  0  0  0
 26 22  1  0  0  0  0
 26 14  1  0  0  0  0
 27 28  1  0  0  0  0
 28 29  2  0  0  0  0
 28 22  1  0  0  0  0
 31 32  2  0  0  0  0
 32 30  1  0  0  0  0
 32 29  1  0  0  0  0
 33 31  1  0  0  0  0
 33 27  2  0  0  0  0
 34 35  1  0  0  0  0
 37 36  1  0  0  0  0
M  END
>  <MODEL>
8

>  <REMARK>
 VINA RESULT:      -4.7      4.121      6.127
  Name = 
  3 active torsions:
  status: ('A' for Active; 'I' for Inactive)
    1  A    between atoms: C_5  and  O_23
    2  A    between atoms: C_6  and  C_31
    3  A    between atoms: C_11  and  C_26
                            x       y       z     vdW  Elec       q    Type
                         _______ _______ _______ _____ _____    ______ ____

>  <TORSDO>
F 3

$$$$
=
 OpenBabel10262422463D

 37 43  0  0  1  0  0  0  0  0999 V2000
  182.3940  177.2850  139.6350 C   0  0  0  0  0  2  0  0  0  0  0  0
  184.6610  174.5320  135.3900 C   0  0  2  0  0  3  0  0  0  0  0  0
  187.0410  176.9740  138.2040 C   0  0  1  0  0  3  0  0  0  0  0  0
  181.1990  178.2420  139.6360 C   0  0  2  0  0  3  0  0  0  0  0  0
  186.2840  179.0200  141.1960 O   0  0  0  0  0  0  0  0  0  0  0  0
  186.0440  176.7340  135.8670 C   0  0  1  0  0  3  0  0  0  0  0  0
  186.2000  177.8060  139.1330 C   0  0  2  0  0  3  0  0  0  0  0  0
  186.0440  176.2800  137.3030 C   0  0  2  0  0  3  0  0  0  0  0  0
  186.8000  177.8980  140.5380 C   0  0  1  0  0  3  0  0  0  0  0  0
  187.4500  176.7320  135.3180 C   0  0  0  0  0  2  0  0  0  0  0  0
  181.4370  179.5480  140.4140 C   0  0  0  0  0  2  0  0  0  0  0  0
  184.7000  176.4980  137.8260 N   0  0  1  0  0  0  0  0  0  0  0  0
  184.4810  174.1450  136.8800 C   0  0  0  0  0  2  0  0  0  0  0  0
  188.5780  179.0250  138.2130 C   0  0  0  0  0  2  0  0  0  0  0  0
  188.1900  177.8620  136.0300 C   0  0  0  0  0  2  0  0  0  0  0  0
  183.9530  175.2290  137.8550 C   0  0  0  0  0  2  0  0  0  0  0  0
  182.6360  179.5080  141.3690 C   0  0  2  0  0  3  0  0  0  0  0  0
  185.0340  178.6210  141.6900 C   0  0  0  0  0  2  0  0  0  0  0  0
  188.2710  177.6720  137.5560 C   0  0  2  0  0  3  0  0  0  0  0  0
  184.8660  177.0730  139.1650 C   0  0  2  0  0  3  0  0  0  0  0  0
  184.9890  175.9980  135.0240 C   0  0  0  0  0  2  0  0  0  0  0  0
  188.3440  177.8900  140.5490 C   0  0  1  0  0  3  0  0  0  0  0  0
  183.4500  174.0810  134.6010 C   0  0  0  0  0  1  0  0  0  0  0  0
  183.9330  179.0070  140.6950 C   0  0  1  0  0  3  0  0  0  0  0  0
  183.7100  178.0420  139.4920 C   0  0  2  0  0  3  0  0  0  0  0  0
  189.0490  178.9440  139.6750 C   0  0  0  0  0  2  0  0  0  0  0  0
  188.5030  176.8550  142.8490 C   0  0  0  0  0  3  0  0  0  0  0  0
  188.9050  177.8420  141.9360 C   0  0  0  0  0  0  0  0  0  0  0  0
  189.8660  178.7850  142.3160 C   0  0  0  0  0  3  0  0  0  0  0  0
  191.3450  179.6670  143.9650 F   0  0  0  0  0  0  0  0  0  0  0  0
  190.0100  177.7680  144.5090 C   0  0  0  0  0  3  0  0  0  0  0  0
  190.4160  178.7510  143.6000 C   0  0  0  0  0  0  0  0  0  0  0  0
  189.0540  176.8200  144.1320 C   0  0  0  0  0  3  0  0  0  0  0  0
  182.2970  178.9110  142.7430 C   0  0  0  0  0  2  0  0  0  0  0  0
  181.0100  179.4550  143.3400 C   0  0  0  0  0  1  0  0  0  0  0  0
  180.2490  176.2490  139.7800 C   0  0  0  0  0  1  0  0  0  0  0  0
  180.0730  177.5880  140.1380 O   0  0  0  0  0  0  0  0  0  0  0  0
  1  4  1  0  0  0  0
  2 23  1  6  0  0  0
  2 13  1  0  0  0  0
  3  7  1  0  0  0  0
  4 37  1  0  0  0  0
  4 11  1  0  0  0  0
  5 18  1  0  0  0  0
  6  8  1  0  0  0  0
  7 20  1  0  0  0  0
  7  9  1  0  0  0  0
  8 12  1  0  0  0  0
  8  3  1  0  0  0  0
  9 22  1  0  0  0  0
  9  5  1  0  0  0  0
 10  6  1  0  0  0  0
 10 15  1  0  0  0  0
 11 17  1  0  0  0  0
 12 16  1  0  0  0  0
 12 20  1  0  0  0  0
 13 16  1  0  0  0  0
 14 26  1  0  0  0  0
 15 19  1  0  0  0  0
 17 34  1  0  0  0  0
 19  3  1  0  0  0  0
 19 14  1  0  0  0  0
 20 25  1  0  0  0  0
 21  2  1  0  0  0  0
 21  6  1  0  0  0  0
 22 28  1  0  0  0  0
 24 17  1  0  0  0  0
 24 18  1  0  0  0  0
 25  1  1  0  0  0  0
 25 24  1  0  0  0  0
 26 22  1  0  0  0  0
 27 33  1  0  0  0  0
 28 29  1  0  0  0  0
 28 27  2  0  0  0  0
 29 32  2  0  0  0  0
 32 30  1  0  0  0  0
 32 31  1  0  0  0  0
 33 31  2  0  0  0  0
 34 35  1  0  0  0  0
 36 37  1  0  0  0  0
M  END
>  <MODEL>
9

>  <REMARK>
 VINA RESULT:      -4.6      2.972      6.663
  Name = 
  3 active torsions:
  status: ('A' for Active; 'I' for Inactive)
    1  A    between atoms: C_5  and  O_23
    2  A    between atoms: C_6  and  C_31
    3  A    between atoms: C_11  and  C_26
                            x       y       z     vdW  Elec       q    Type
                         _______ _______ _______ _____ _____    ______ ____

>  <TORSDO>
F 3

$$$$
