=
 OpenBabel10262419093D

 34 40  0  0  1  0  0  0  0  0999 V2000
  189.8250  176.8720  140.2710 C   0  0  0  0  0  0  0  0  0  0  0  0
  187.8800  178.2330  139.7190 C   0  0  0  0  0  0  0  0  0  0  0  0
  188.1860  177.4040  141.9820 C   0  0  0  0  0  0  0  0  0  0  0  0
  186.5730  178.0540  143.8280 C   0  0  1  0  0  3  0  0  0  0  0  0
  189.4780  177.6360  137.9970 C   0  0  0  0  0  3  0  0  0  0  0  0
  188.3000  178.2850  138.3860 C   0  0  0  0  0  3  0  0  0  0  0  0
  186.4410  179.1210  141.5100 C   0  0  0  0  0  2  0  0  0  0  0  0
  188.6280  177.5050  140.6570 C   0  0  0  0  0  0  0  0  0  0  0  0
  190.2430  176.9350  138.9380 C   0  0  0  0  0  3  0  0  0  0  0  0
  188.9820  176.7230  142.9240 C   0  0  0  0  0  0  0  0  0  0  0  0
  190.5590  176.1950  141.1920 N   0  0  0  0  0  0  0  0  0  0  0  0
  186.7230  178.9090  140.1250 O   0  0  0  0  0  0  0  0  0  0  0  0
  187.0950  176.8220  144.5630 C   0  0  0  0  0  2  0  0  0  0  0  0
  188.6120  176.6870  144.3880 C   0  0  2  0  0  3  0  0  0  0  0  0
  186.7820  177.8660  142.3200 C   0  0  1  0  0  3  0  0  0  0  0  0
  190.1700  176.1150  142.4940 C   0  0  0  0  0  3  0  0  0  0  0  0
  190.8070  177.5540  145.3300 C   0  0  0  0  0  0  0  0  0  0  0  0
  191.3060  176.8130  146.8610 S   0  0  0  0  0  0  0  0  0  0  0  0
  188.7770  177.9210  146.6370 C   0  0  1  0  0  3  0  0  0  0  0  0
  189.8340  177.5180  147.6670 C   0  0  1  0  0  3  0  0  0  0  0  0
  189.3400  177.7710  145.2150 C   0  0  2  0  0  3  0  0  0  0  0  0
  188.6610  176.6040  147.3900 C   0  0  0  0  0  2  0  0  0  0  0  0
  191.6330  178.3950  144.7170 C   0  0  0  0  0  2  0  0  0  0  0  0
  185.0970  178.2200  144.1710 C   0  0  0  0  0  2  0  0  0  0  0  0
  184.8070  179.5520  144.4800 O   0  0  0  0  0  0  0  0  0  0  0  0
  183.4550  179.6330  144.4390 N   0  0  0  0  0  2  0  0  0  0  0  0
  183.0270  178.9530  143.2300 C   0  0  0  0  0  2  0  0  0  0  0  0
  181.0320  179.5980  140.6890 O   0  0  0  0  0  1  0  0  0  0  0  0
  181.5420  179.1790  143.0080 C   0  0  1  0  0  3  0  0  0  0  0  0
  181.1230  178.5890  141.6520 C   0  0  1  0  0  3  0  0  0  0  0  0
  178.9540  178.6320  142.4400 C   0  0  0  0  0  2  0  0  0  0  0  0
  179.4520  178.9670  143.8590 C   0  0  0  0  0  2  0  0  0  0  0  0
  180.7960  178.5810  144.0420 O   0  0  0  0  0  0  0  0  0  0  0  0
  179.9070  177.8660  141.7330 O   0  0  0  0  0  0  0  0  0  0  0  0
  1  8  2  0  0  0  0
  1 11  1  0  0  0  0
  2 12  1  0  0  0  0
  2  8  1  0  0  0  0
  3 15  1  0  0  0  0
  3 10  2  0  0  0  0
  4 24  1  6  0  0  0
  4 13  1  0  0  0  0
  5  6  1  0  0  0  0
  5  9  2  0  0  0  0
  6  2  2  0  0  0  0
  8  3  1  0  0  0  0
  9  1  1  0  0  0  0
 10 14  1  0  0  0  0
 11 16  2  0  0  0  0
 12  7  1  0  0  0  0
 14 13  1  6  0  0  0
 14 21  1  0  0  0  0
 15  7  1  6  0  0  0
 15  4  1  0  0  0  0
 16 10  1  0  0  0  0
 17 18  1  0  0  0  0
 18 20  1  0  0  0  0
 19 22  1  6  0  0  0
 19 20  1  0  0  0  0
 20 22  1  1  0  0  0
 21 17  1  1  0  0  0
 21 19  1  0  0  0  0
 23 17  2  0  0  0  0
 24 25  1  0  0  0  0
 26 25  1  0  0  0  0
 27 26  1  0  0  0  0
 29 27  1  1  0  0  0
 29 33  1  0  0  0  0
 30 28  1  6  0  0  0
 30 34  1  0  0  0  0
 30 29  1  0  0  0  0
 31 32  1  0  0  0  0
 32 33  1  0  0  0  0
 34 31  1  0  0  0  0
M  END
>  <MODEL>
1

>  <REMARK>
 VINA RESULT:      -9.6      0.000      0.000
  Name = 
  6 active torsions:
  status: ('A' for Active; 'I' for Inactive)
    1  A    between atoms: C_3  and  C_13
    2  A    between atoms: C_3  and  N_17
    3  A    between atoms: C_5  and  C_18
    4  A    between atoms: N_17  and  O_29
    5  A    between atoms: C_18  and  O_29
    6  A    between atoms: C_23  and  C_28
                            x       y       z     vdW  Elec       q    Type
                         _______ _______ _______ _____ _____    ______ ____

>  <TORSDO>
F 6

$$$$
=
 OpenBabel10262419093D

 34 40  0  0  1  0  0  0  0  0999 V2000
  189.9430  176.6710  140.4890 C   0  0  0  0  0  0  0  0  0  0  0  0
  188.1690  178.1620  139.7380 C   0  0  0  0  0  0  0  0  0  0  0  0
  188.2420  177.4230  142.0510 C   0  0  0  0  0  0  0  0  0  0  0  0
  186.5690  178.2970  143.7440 C   0  0  1  0  0  3  0  0  0  0  0  0
  189.8230  177.3480  138.1650 C   0  0  0  0  0  3  0  0  0  0  0  0
  188.6830  178.1120  138.4390 C   0  0  0  0  0  3  0  0  0  0  0  0
  186.6920  179.2560  141.3790 C   0  0  0  0  0  2  0  0  0  0  0  0
  188.7830  177.4210  140.7580 C   0  0  0  0  0  0  0  0  0  0  0  0
  190.4570  176.6320  139.1890 C   0  0  0  0  0  3  0  0  0  0  0  0
  188.9090  176.7240  143.0770 C   0  0  0  0  0  0  0  0  0  0  0  0
  190.5490  175.9800  141.4900 N   0  0  0  0  0  0  0  0  0  0  0  0
  187.0500  178.9530  140.0280 O   0  0  0  0  0  0  0  0  0  0  0  0
  186.9280  177.0630  144.5680 C   0  0  0  0  0  2  0  0  0  0  0  0
  188.4360  176.7920  144.5100 C   0  0  2  0  0  3  0  0  0  0  0  0
  186.8640  178.0170  142.2650 C   0  0  1  0  0  3  0  0  0  0  0  0
  190.0660  175.9980  142.7630 C   0  0  0  0  0  3  0  0  0  0  0  0
  190.6680  177.6340  145.3850 C   0  0  0  0  0  0  0  0  0  0  0  0
  191.2350  176.8440  146.8680 S   0  0  0  0  0  0  0  0  0  0  0  0
  188.6960  177.9510  146.7900 C   0  0  1  0  0  3  0  0  0  0  0  0
  189.7980  177.5160  147.7600 C   0  0  1  0  0  3  0  0  0  0  0  0
  189.1980  177.8500  145.3410 C   0  0  2  0  0  3  0  0  0  0  0  0
  188.6150  176.6090  147.5030 C   0  0  0  0  0  2  0  0  0  0  0  0
  191.4660  178.4980  144.7660 C   0  0  0  0  0  2  0  0  0  0  0  0
  185.0930  178.6040  143.9710 C   0  0  0  0  0  2  0  0  0  0  0  0
  184.2900  177.8330  143.1250 O   0  0  0  0  0  0  0  0  0  0  0  0
  183.4200  178.7120  142.5710 N   0  0  0  0  0  2  0  0  0  0  0  0
  183.1180  178.2260  141.2370 C   0  0  0  0  0  2  0  0  0  0  0  0
  184.2050  180.3850  139.0000 O   0  0  0  0  0  1  0  0  0  0  0  0
  182.5360  179.3480  140.3980 C   0  0  1  0  0  3  0  0  0  0  0  0
  183.2290  179.3850  139.0260 C   0  0  1  0  0  3  0  0  0  0  0  0
  181.4210  180.6120  138.2810 C   0  0  0  0  0  2  0  0  0  0  0  0
  180.6560  180.3190  139.5850 C   0  0  0  0  0  2  0  0  0  0  0  0
  181.1500  179.1660  140.2300 O   0  0  0  0  0  0  0  0  0  0  0  0
  182.3080  179.5600  137.9630 O   0  0  0  0  0  0  0  0  0  0  0  0
  1  8  2  0  0  0  0
  1 11  1  0  0  0  0
  2 12  1  0  0  0  0
  2  8  1  0  0  0  0
  3 15  1  0  0  0  0
  3 10  2  0  0  0  0
  4 24  1  6  0  0  0
  4 13  1  0  0  0  0
  5  6  1  0  0  0  0
  5  9  2  0  0  0  0
  6  2  2  0  0  0  0
  8  3  1  0  0  0  0
  9  1  1  0  0  0  0
 10 14  1  0  0  0  0
 11 16  2  0  0  0  0
 12  7  1  0  0  0  0
 14 13  1  6  0  0  0
 14 21  1  0  0  0  0
 15  7  1  6  0  0  0
 15  4  1  0  0  0  0
 16 10  1  0  0  0  0
 17 18  1  0  0  0  0
 18 20  1  0  0  0  0
 19 22  1  6  0  0  0
 19 20  1  0  0  0  0
 20 22  1  1  0  0  0
 21 17  1  1  0  0  0
 21 19  1  0  0  0  0
 23 17  2  0  0  0  0
 25 24  1  0  0  0  0
 26 25  1  0  0  0  0
 27 26  1  0  0  0  0
 29 27  1  1  0  0  0
 30 28  1  1  0  0  0
 30 29  1  0  0  0  0
 31 32  1  0  0  0  0
 32 33  1  0  0  0  0
 33 29  1  0  0  0  0
 34 31  1  0  0  0  0
 34 30  1  0  0  0  0
M  END
>  <MODEL>
2

>  <REMARK>
 VINA RESULT:      -9.2      1.541      1.999
  Name = 
  6 active torsions:
  status: ('A' for Active; 'I' for Inactive)
    1  A    between atoms: C_3  and  C_13
    2  A    between atoms: C_3  and  N_17
    3  A    between atoms: C_5  and  C_18
    4  A    between atoms: N_17  and  O_29
    5  A    between atoms: C_18  and  O_29
    6  A    between atoms: C_23  and  C_28
                            x       y       z     vdW  Elec       q    Type
                         _______ _______ _______ _____ _____    ______ ____

>  <TORSDO>
F 6

$$$$
=
 OpenBabel10262419093D

 34 40  0  0  1  0  0  0  0  0999 V2000
  187.7980  177.8770  137.8900 C   0  0  0  0  0  0  0  0  0  0  0  0
  188.7950  177.9010  140.1130 C   0  0  0  0  0  0  0  0  0  0  0  0
  186.4160  178.3100  139.8400 C   0  0  0  0  0  0  0  0  0  0  0  0
  184.9160  178.6260  141.8600 C   0  0  1  0  0  3  0  0  0  0  0  0
  190.1830  177.5460  138.1580 C   0  0  0  0  0  3  0  0  0  0  0  0
  190.0530  177.6740  139.5460 C   0  0  0  0  0  3  0  0  0  0  0  0
  187.3600  177.9250  142.1150 C   0  0  0  0  0  2  0  0  0  0  0  0
  187.6710  178.0290  139.2830 C   0  0  0  0  0  0  0  0  0  0  0  0
  189.0570  177.6410  137.3310 C   0  0  0  0  0  3  0  0  0  0  0  0
  185.2880  178.3710  138.9980 C   0  0  0  0  0  0  0  0  0  0  0  0
  186.6980  177.9710  137.0970 N   0  0  0  0  0  0  0  0  0  0  0  0
  188.6500  177.9950  141.5020 O   0  0  0  0  0  0  0  0  0  0  0  0
  183.9480  179.3040  140.8940 C   0  0  0  0  0  2  0  0  0  0  0  0
  183.8970  178.5520  139.5590 C   0  0  2  0  0  3  0  0  0  0  0  0
  186.3390  178.7240  141.2970 C   0  0  1  0  0  3  0  0  0  0  0  0
  185.4620  178.2050  137.6170 C   0  0  0  0  0  3  0  0  0  0  0  0
  182.8900  176.4970  138.4550 C   0  0  0  0  0  0  0  0  0  0  0  0
  181.2500  176.7190  137.8200 S   0  0  0  0  0  0  0  0  0  0  0  0
  181.7980  177.3700  140.4570 C   0  0  1  0  0  3  0  0  0  0  0  0
  180.6480  177.0090  139.5130 C   0  0  1  0  0  3  0  0  0  0  0  0
  183.1440  177.2120  139.7330 C   0  0  2  0  0  3  0  0  0  0  0  0
  180.9100  178.4560  139.8670 C   0  0  0  0  0  2  0  0  0  0  0  0
  183.5280  175.3550  138.2170 C   0  0  0  0  0  2  0  0  0  0  0  0
  184.8010  179.3220  143.2110 C   0  0  0  0  0  2  0  0  0  0  0  0
  184.7790  178.3870  144.2500 O   0  0  0  0  0  0  0  0  0  0  0  0
  185.4460  178.9820  145.2690 N   0  0  0  0  0  2  0  0  0  0  0  0
  185.9130  177.9210  146.1440 C   0  0  0  0  0  2  0  0  0  0  0  0
  188.1940  178.5780  148.4270 O   0  0  0  0  0  1  0  0  0  0  0  0
  187.4290  177.9520  146.2280 C   0  0  1  0  0  3  0  0  0  0  0  0
  187.8820  177.4810  147.6200 C   0  0  1  0  0  3  0  0  0  0  0  0
  189.9580  177.1070  146.6840 C   0  0  0  0  0  2  0  0  0  0  0  0
  189.3860  177.3310  145.2710 C   0  0  0  0  0  2  0  0  0  0  0  0
  187.9920  177.1270  145.2360 O   0  0  0  0  0  0  0  0  0  0  0  0
  188.9760  176.5830  147.5530 O   0  0  0  0  0  0  0  0  0  0  0  0
  1  8  1  0  0  0  0
  2 12  1  0  0  0  0
  3 15  1  0  0  0  0
  4 24  1  1  0  0  0
  5  6  2  0  0  0  0
  6  2  1  0  0  0  0
  8  3  1  0  0  0  0
  8  2  2  0  0  0  0
  9  1  2  0  0  0  0
  9  5  1  0  0  0  0
 10 14  1  0  0  0  0
 10  3  2  0  0  0  0
 11 16  2  0  0  0  0
 11  1  1  0  0  0  0
 12  7  1  0  0  0  0
 13  4  1  0  0  0  0
 14 21  1  0  0  0  0
 14 13  1  1  0  0  0
 15  4  1  0  0  0  0
 15  7  1  1  0  0  0
 16 10  1  0  0  0  0
 18 17  1  0  0  0  0
 18 20  1  0  0  0  0
 19 22  1  6  0  0  0
 20 22  1  6  0  0  0
 20 19  1  0  0  0  0
 21 17  1  6  0  0  0
 21 19  1  0  0  0  0
 23 17  2  0  0  0  0
 24 25  1  0  0  0  0
 25 26  1  0  0  0  0
 26 27  1  0  0  0  0
 29 27  1  1  0  0  0
 29 30  1  0  0  0  0
 30 28  1  1  0  0  0
 31 34  1  0  0  0  0
 32 31  1  0  0  0  0
 33 32  1  0  0  0  0
 33 29  1  0  0  0  0
 34 30  1  0  0  0  0
M  END
>  <MODEL>
3

>  <REMARK>
 VINA RESULT:      -7.9      3.572      7.217
  Name = 
  6 active torsions:
  status: ('A' for Active; 'I' for Inactive)
    1  A    between atoms: C_3  and  C_13
    2  A    between atoms: C_3  and  N_17
    3  A    between atoms: C_5  and  C_18
    4  A    between atoms: N_17  and  O_29
    5  A    between atoms: C_18  and  O_29
    6  A    between atoms: C_23  and  C_28
                            x       y       z     vdW  Elec       q    Type
                         _______ _______ _______ _____ _____    ______ ____

>  <TORSDO>
F 6

$$$$
=
 OpenBabel10262419093D

 34 40  0  0  1  0  0  0  0  0999 V2000
  187.7410  177.4670  146.2720 C   0  0  0  0  0  0  0  0  0  0  0  0
  190.1360  177.8410  146.5270 C   0  0  0  0  0  0  0  0  0  0  0  0
  189.2020  177.3720  144.3340 C   0  0  0  0  0  0  0  0  0  0  0  0
  190.6710  177.4030  142.2670 C   0  0  1  0  0  3  0  0  0  0  0  0
  188.6860  177.8590  148.4690 C   0  0  0  0  0  3  0  0  0  0  0  0
  189.9630  177.9750  147.9080 C   0  0  0  0  0  3  0  0  0  0  0  0
  191.5580  178.1580  144.5410 C   0  0  0  0  0  2  0  0  0  0  0  0
  189.0290  177.5610  145.7110 C   0  0  0  0  0  0  0  0  0  0  0  0
  187.5750  177.6100  147.6530 C   0  0  0  0  0  3  0  0  0  0  0  0
  188.0710  177.1550  143.5220 C   0  0  0  0  0  0  0  0  0  0  0  0
  186.6710  177.2250  145.4710 N   0  0  0  0  0  0  0  0  0  0  0  0
  191.4040  177.9920  145.9530 O   0  0  0  0  0  0  0  0  0  0  0  0
  189.5790  176.5590  141.6160 C   0  0  0  0  0  2  0  0  0  0  0  0
  188.1880  177.0640  142.0180 C   0  0  2  0  0  3  0  0  0  0  0  0
  190.6080  177.2200  143.7890 C   0  0  1  0  0  3  0  0  0  0  0  0
  186.8080  177.0770  144.1240 C   0  0  0  0  0  3  0  0  0  0  0  0
  186.4450  178.6210  141.0210 C   0  0  0  0  0  0  0  0  0  0  0  0
  185.9900  178.2560  139.3470 S   0  0  0  0  0  0  0  0  0  0  0  0
  188.6630  178.5820  139.9990 C   0  0  1  0  0  3  0  0  0  0  0  0
  187.6910  178.6270  138.8170 C   0  0  1  0  0  3  0  0  0  0  0  0
  187.8870  178.4070  141.3140 C   0  0  2  0  0  3  0  0  0  0  0  0
  188.5390  177.3960  139.0540 C   0  0  0  0  0  2  0  0  0  0  0  0
  185.7870  179.5690  141.6800 C   0  0  0  0  0  2  0  0  0  0  0  0
  192.0150  176.9550  141.7050 C   0  0  0  0  0  2  0  0  0  0  0  0
  192.4650  177.8460  140.7260 O   0  0  0  0  0  0  0  0  0  0  0  0
  193.3350  177.1280  139.9750 N   0  0  0  0  0  2  0  0  0  0  0  0
  192.6350  176.7530  138.7590 C   0  0  0  0  0  2  0  0  0  0  0  0
  192.8910  175.7700  135.6260 O   0  0  0  0  0  1  0  0  0  0  0  0
  193.4700  175.7640  137.9670 C   0  0  1  0  0  3  0  0  0  0  0  0
  193.7590  176.3300  136.5670 C   0  0  1  0  0  3  0  0  0  0  0  0
  195.4850  174.8040  136.4370 C   0  0  0  0  0  2  0  0  0  0  0  0
  195.3240  174.4610  137.9310 C   0  0  0  0  0  2  0  0  0  0  0  0
  194.6810  175.4990  138.6360 O   0  0  0  0  0  0  0  0  0  0  0  0
  195.1080  176.1400  136.1780 O   0  0  0  0  0  0  0  0  0  0  0  0
  1  9  2  0  0  0  0
  2  6  1  0  0  0  0
  3  8  1  0  0  0  0
  4 24  1  6  0  0  0
  4 15  1  0  0  0  0
  6  5  2  0  0  0  0
  7 12  1  0  0  0  0
  8  1  1  0  0  0  0
  8  2  2  0  0  0  0
  9  5  1  0  0  0  0
 10 16  1  0  0  0  0
 10  3  2  0  0  0  0
 11  1  1  0  0  0  0
 12  2  1  0  0  0  0
 13  4  1  0  0  0  0
 14 13  1  1  0  0  0
 14 10  1  0  0  0  0
 15  3  1  0  0  0  0
 15  7  1  1  0  0  0
 16 11  2  0  0  0  0
 17 23  2  0  0  0  0
 18 17  1  0  0  0  0
 19 22  1  6  0  0  0
 19 21  1  0  0  0  0
 20 22  1  6  0  0  0
 20 18  1  0  0  0  0
 20 19  1  0  0  0  0
 21 17  1  6  0  0  0
 21 14  1  0  0  0  0
 25 24  1  0  0  0  0
 26 25  1  0  0  0  0
 27 26  1  0  0  0  0
 29 33  1  0  0  0  0
 29 27  1  1  0  0  0
 30 28  1  6  0  0  0
 30 29  1  0  0  0  0
 31 32  1  0  0  0  0
 32 33  1  0  0  0  0
 34 31  1  0  0  0  0
 34 30  1  0  0  0  0
M  END
>  <MODEL>
4

>  <REMARK>
 VINA RESULT:      -7.8      4.763      9.473
  Name = 
  6 active torsions:
  status: ('A' for Active; 'I' for Inactive)
    1  A    between atoms: C_3  and  C_13
    2  A    between atoms: C_3  and  N_17
    3  A    between atoms: C_5  and  C_18
    4  A    between atoms: N_17  and  O_29
    5  A    between atoms: C_18  and  O_29
    6  A    between atoms: C_23  and  C_28
                            x       y       z     vdW  Elec       q    Type
                         _______ _______ _______ _____ _____    ______ ____

>  <TORSDO>
F 6

$$$$
=
 OpenBabel10262419093D

 34 40  0  0  1  0  0  0  0  0999 V2000
  181.8770  178.6280  142.5200 C   0  0  0  0  0  0  0  0  0  0  0  0
  184.3030  178.8370  142.6170 C   0  0  0  0  0  0  0  0  0  0  0  0
  183.2010  178.3810  140.5000 C   0  0  0  0  0  0  0  0  0  0  0  0
  184.5350  178.2560  138.3460 C   0  0  1  0  0  3  0  0  0  0  0  0
  182.9830  179.0060  144.6430 C   0  0  0  0  0  3  0  0  0  0  0  0
  184.2280  179.0180  144.0010 C   0  0  0  0  0  3  0  0  0  0  0  0
  185.6150  179.0030  140.5380 C   0  0  0  0  0  2  0  0  0  0  0  0
  183.1300  178.6160  141.8790 C   0  0  0  0  0  0  0  0  0  0  0  0
  181.8090  178.8170  143.9040 C   0  0  0  0  0  3  0  0  0  0  0  0
  182.0090  178.2250  139.7650 C   0  0  0  0  0  0  0  0  0  0  0  0
  180.7430  178.4430  141.7930 N   0  0  0  0  0  0  0  0  0  0  0  0
  185.5390  178.8830  141.9610 O   0  0  0  0  0  0  0  0  0  0  0  0
  183.3480  177.4760  137.7890 C   0  0  0  0  0  2  0  0  0  0  0  0
  182.0240  178.0880  138.2610 C   0  0  2  0  0  3  0  0  0  0  0  0
  184.5560  178.1160  139.8740 C   0  0  1  0  0  3  0  0  0  0  0  0
  180.7840  178.2520  140.4460 C   0  0  0  0  0  3  0  0  0  0  0  0
  181.2090  180.4900  138.4160 C   0  0  0  0  0  0  0  0  0  0  0  0
  179.4550  180.6940  138.2610 S   0  0  0  0  0  0  0  0  0  0  0  0
  180.8470  179.2930  136.3180 C   0  0  1  0  0  3  0  0  0  0  0  0
  179.5450  180.0600  136.5570 C   0  0  1  0  0  3  0  0  0  0  0  0
  181.7730  179.4320  137.5370 C   0  0  2  0  0  3  0  0  0  0  0  0
  179.5540  178.5490  136.6150 C   0  0  0  0  0  2  0  0  0  0  0  0
  181.9600  181.5440  138.7190 C   0  0  0  0  0  2  0  0  0  0  0  0
  185.8060  177.7000  137.7160 C   0  0  0  0  0  2  0  0  0  0  0  0
  186.8130  178.6690  137.6910 O   0  0  0  0  0  0  0  0  0  0  0  0
  187.9730  177.9680  137.6900 N   0  0  0  0  0  2  0  0  0  0  0  0
  188.8420  178.5880  138.6740 C   0  0  0  0  0  2  0  0  0  0  0  0
  190.6640  175.9030  139.2420 O   0  0  0  0  0  1  0  0  0  0  0  0
  189.0840  177.6290  139.8260 C   0  0  1  0  0  3  0  0  0  0  0  0
  190.5510  177.1700  139.8210 C   0  0  1  0  0  3  0  0  0  0  0  0
  190.2380  176.5470  142.0210 C   0  0  0  0  0  2  0  0  0  0  0  0
  188.8720  177.2590  142.0510 C   0  0  0  0  0  2  0  0  0  0  0  0
  188.7800  178.2500  141.0520 O   0  0  0  0  0  0  0  0  0  0  0  0
  191.1210  177.1780  141.1180 O   0  0  0  0  0  0  0  0  0  0  0  0
  1  9  2  0  0  0  0
  2  6  1  0  0  0  0
  3  8  1  0  0  0  0
  4 24  1  6  0  0  0
  4 15  1  0  0  0  0
  6  5  2  0  0  0  0
  7 12  1  0  0  0  0
  8  1  1  0  0  0  0
  8  2  2  0  0  0  0
  9  5  1  0  0  0  0
 10 16  1  0  0  0  0
 10  3  2  0  0  0  0
 11  1  1  0  0  0  0
 12  2  1  0  0  0  0
 13  4  1  0  0  0  0
 14 13  1  6  0  0  0
 14 10  1  0  0  0  0
 15  3  1  0  0  0  0
 15  7  1  1  0  0  0
 16 11  2  0  0  0  0
 17 23  2  0  0  0  0
 18 17  1  0  0  0  0
 19 20  1  0  0  0  0
 19 22  1  1  0  0  0
 19 21  1  0  0  0  0
 20 22  1  1  0  0  0
 20 18  1  0  0  0  0
 21 14  1  0  0  0  0
 21 17  1  1  0  0  0
 25 24  1  0  0  0  0
 26 25  1  0  0  0  0
 26 27  1  0  0  0  0
 29 27  1  6  0  0  0
 29 33  1  0  0  0  0
 30 28  1  1  0  0  0
 30 29  1  0  0  0  0
 30 34  1  0  0  0  0
 31 32  1  0  0  0  0
 33 32  1  0  0  0  0
 34 31  1  0  0  0  0
M  END
>  <MODEL>
5

>  <REMARK>
 VINA RESULT:      -7.7      4.046      9.403
  Name = 
  6 active torsions:
  status: ('A' for Active; 'I' for Inactive)
    1  A    between atoms: C_3  and  C_13
    2  A    between atoms: C_3  and  N_17
    3  A    between atoms: C_5  and  C_18
    4  A    between atoms: N_17  and  O_29
    5  A    between atoms: C_18  and  O_29
    6  A    between atoms: C_23  and  C_28
                            x       y       z     vdW  Elec       q    Type
                         _______ _______ _______ _____ _____    ______ ____

>  <TORSDO>
F 6

$$$$
=
 OpenBabel10262419093D

 34 40  0  0  1  0  0  0  0  0999 V2000
  185.5970  178.6200  139.6560 C   0  0  0  0  0  0  0  0  0  0  0  0
  186.2290  177.3190  137.6940 C   0  0  0  0  0  0  0  0  0  0  0  0
  187.8560  177.7510  139.4460 C   0  0  0  0  0  0  0  0  0  0  0  0
  190.1800  176.7440  139.3310 C   0  0  1  0  0  3  0  0  0  0  0  0
  183.9990  178.2530  137.8720 C   0  0  0  0  0  3  0  0  0  0  0  0
  184.9510  177.5130  137.1610 C   0  0  0  0  0  3  0  0  0  0  0  0
  188.3640  176.0920  137.6560 C   0  0  0  0  0  2  0  0  0  0  0  0
  186.5610  177.8950  138.9300 C   0  0  0  0  0  0  0  0  0  0  0  0
  184.3190  178.8020  139.1200 C   0  0  0  0  0  3  0  0  0  0  0  0
  188.1530  178.2810  140.7170 C   0  0  0  0  0  0  0  0  0  0  0  0
  185.9190  179.1480  140.8660 N   0  0  0  0  0  0  0  0  0  0  0  0
  187.1750  176.5500  137.0070 O   0  0  0  0  0  0  0  0  0  0  0  0
  190.5820  177.8440  140.3110 C   0  0  0  0  0  2  0  0  0  0  0  0
  189.4950  178.0510  141.3710 C   0  0  2  0  0  3  0  0  0  0  0  0
  188.9430  177.1970  138.5460 C   0  0  1  0  0  3  0  0  0  0  0  0
  187.1580  178.9880  141.4070 C   0  0  0  0  0  3  0  0  0  0  0  0
  188.6210  177.0790  143.5500 C   0  0  0  0  0  0  0  0  0  0  0  0
  189.5100  177.5780  145.0000 S   0  0  0  0  0  0  0  0  0  0  0  0
  190.8850  176.4820  142.8590 C   0  0  1  0  0  3  0  0  0  0  0  0
  190.9920  176.7340  144.3650 C   0  0  1  0  0  3  0  0  0  0  0  0
  189.4830  176.8610  142.3580 C   0  0  2  0  0  3  0  0  0  0  0  0
  191.6840  177.6630  143.3910 C   0  0  0  0  0  2  0  0  0  0  0  0
  187.5130  176.3560  143.6860 C   0  0  0  0  0  2  0  0  0  0  0  0
  191.3620  176.4780  138.4060 C   0  0  0  0  0  2  0  0  0  0  0  0
  192.5700  176.7650  139.0500 O   0  0  0  0  0  0  0  0  0  0  0  0
  193.5060  176.7170  138.0720 N   0  0  0  0  0  2  0  0  0  0  0  0
  193.5000  175.3630  137.5470 C   0  0  0  0  0  2  0  0  0  0  0  0
  196.0990  175.1400  139.5580 O   0  0  0  0  0  1  0  0  0  0  0  0
  194.9200  174.8300  137.4780 C   0  0  1  0  0  3  0  0  0  0  0  0
  195.3180  174.2330  138.8380 C   0  0  1  0  0  3  0  0  0  0  0  0
  196.9930  173.1080  137.7180 C   0  0  0  0  0  2  0  0  0  0  0  0
  196.3920  173.5190  136.3610 C   0  0  0  0  0  2  0  0  0  0  0  0
  195.0260  173.8470  136.4750 O   0  0  0  0  0  0  0  0  0  0  0  0
  195.9890  172.9930  138.7050 O   0  0  0  0  0  0  0  0  0  0  0  0
  1 11  1  0  0  0  0
  2  8  1  0  0  0  0
  3 10  2  0  0  0  0
  4 24  1  6  0  0  0
  4 13  1  0  0  0  0
  5  9  2  0  0  0  0
  6  2  2  0  0  0  0
  6  5  1  0  0  0  0
  8  3  1  0  0  0  0
  8  1  2  0  0  0  0
  9  1  1  0  0  0  0
 10 14  1  0  0  0  0
 10 16  1  0  0  0  0
 11 16  2  0  0  0  0
 12  7  1  0  0  0  0
 12  2  1  0  0  0  0
 14 13  1  6  0  0  0
 14 21  1  0  0  0  0
 15  7  1  1  0  0  0
 15  4  1  0  0  0  0
 15  3  1  0  0  0  0
 17 23  2  0  0  0  0
 17 18  1  0  0  0  0
 19 22  1  6  0  0  0
 19 20  1  0  0  0  0
 20 22  1  6  0  0  0
 20 18  1  0  0  0  0
 21 19  1  0  0  0  0
 21 17  1  1  0  0  0
 24 25  1  0  0  0  0
 26 25  1  0  0  0  0
 27 26  1  0  0  0  0
 29 27  1  1  0  0  0
 29 30  1  0  0  0  0
 30 28  1  6  0  0  0
 31 34  1  0  0  0  0
 32 33  1  0  0  0  0
 32 31  1  0  0  0  0
 33 29  1  0  0  0  0
 34 30  1  0  0  0  0
M  END
>  <MODEL>
6

>  <REMARK>
 VINA RESULT:      -7.6      4.541      9.295
  Name = 
  6 active torsions:
  status: ('A' for Active; 'I' for Inactive)
    1  A    between atoms: C_3  and  C_13
    2  A    between atoms: C_3  and  N_17
    3  A    between atoms: C_5  and  C_18
    4  A    between atoms: N_17  and  O_29
    5  A    between atoms: C_18  and  O_29
    6  A    between atoms: C_23  and  C_28
                            x       y       z     vdW  Elec       q    Type
                         _______ _______ _______ _____ _____    ______ ____

>  <TORSDO>
F 6

$$$$
=
 OpenBabel10262419093D

 34 40  0  0  1  0  0  0  0  0999 V2000
  191.0820  177.2280  144.4740 C   0  0  0  0  0  0  0  0  0  0  0  0
  188.8860  177.1190  145.5250 C   0  0  0  0  0  0  0  0  0  0  0  0
  189.0910  177.7750  143.1940 C   0  0  0  0  0  0  0  0  0  0  0  0
  187.0290  178.2170  141.7870 C   0  0  1  0  0  3  0  0  0  0  0  0
  190.8810  176.6490  146.8190 C   0  0  0  0  0  3  0  0  0  0  0  0
  189.4890  176.7710  146.7380 C   0  0  0  0  0  3  0  0  0  0  0  0
  186.8470  177.2630  144.1510 C   0  0  0  0  0  2  0  0  0  0  0  0
  189.6840  177.3730  144.3990 C   0  0  0  0  0  0  0  0  0  0  0  0
  191.6770  176.8710  145.6880 C   0  0  0  0  0  3  0  0  0  0  0  0
  189.9020  177.9630  142.0580 C   0  0  0  0  0  0  0  0  0  0  0  0
  191.8450  177.4470  143.3700 N   0  0  0  0  0  0  0  0  0  0  0  0
  187.4920  177.2080  145.4250 O   0  0  0  0  0  0  0  0  0  0  0  0
  187.9610  179.0030  140.8700 C   0  0  0  0  0  2  0  0  0  0  0  0
  189.3020  178.2790  140.7080 C   0  0  2  0  0  3  0  0  0  0  0  0
  187.6290  178.1740  143.1980 C   0  0  1  0  0  3  0  0  0  0  0  0
  191.2890  177.7990  142.1790 C   0  0  0  0  0  3  0  0  0  0  0  0
  190.2640  176.7670  138.9060 C   0  0  0  0  0  0  0  0  0  0  0  0
  189.9850  177.3160  137.2440 S   0  0  0  0  0  0  0  0  0  0  0  0
  187.8410  177.0610  138.9790 C   0  0  1  0  0  3  0  0  0  0  0  0
  188.1930  177.1130  137.4910 C   0  0  1  0  0  3  0  0  0  0  0  0
  189.1230  177.0220  139.8250 C   0  0  2  0  0  3  0  0  0  0  0  0
  187.6690  178.3490  138.1880 C   0  0  0  0  0  2  0  0  0  0  0  0
  191.0370  175.7070  139.1170 C   0  0  0  0  0  2  0  0  0  0  0  0
  185.6670  178.9020  141.7790 C   0  0  0  0  0  2  0  0  0  0  0  0
  185.4040  179.4670  140.5280 O   0  0  0  0  0  0  0  0  0  0  0  0
  184.0580  179.3990  140.3910 N   0  0  0  0  0  2  0  0  0  0  0  0
  183.7810  179.3330  138.9670 C   0  0  0  0  0  2  0  0  0  0  0  0
  183.4930  177.4670  136.2680 O   0  0  0  0  0  1  0  0  0  0  0  0
  183.2240  177.9660  138.6120 C   0  0  1  0  0  3  0  0  0  0  0  0
  184.0920  177.3180  137.5220 C   0  0  1  0  0  3  0  0  0  0  0  0
  183.1560  175.3020  138.1440 C   0  0  0  0  0  2  0  0  0  0  0  0
  182.5170  175.9570  139.3840 C   0  0  0  0  0  2  0  0  0  0  0  0
  183.1890  177.1400  139.7520 O   0  0  0  0  0  0  0  0  0  0  0  0
  184.3580  175.9520  137.7880 O   0  0  0  0  0  0  0  0  0  0  0  0
  1  9  2  0  0  0  0
  2  6  1  0  0  0  0
  3 15  1  0  0  0  0
  3  8  1  0  0  0  0
  4 24  1  1  0  0  0
  4 15  1  0  0  0  0
  6  5  2  0  0  0  0
  7 12  1  0  0  0  0
  8  1  1  0  0  0  0
  8  2  2  0  0  0  0
  9  5  1  0  0  0  0
 10 16  1  0  0  0  0
 10  3  2  0  0  0  0
 11  1  1  0  0  0  0
 12  2  1  0  0  0  0
 13  4  1  0  0  0  0
 14 13  1  1  0  0  0
 14 10  1  0  0  0  0
 15  7  1  1  0  0  0
 16 11  2  0  0  0  0
 17 23  2  0  0  0  0
 18 20  1  0  0  0  0
 18 17  1  0  0  0  0
 19 22  1  1  0  0  0
 19 21  1  0  0  0  0
 20 22  1  1  0  0  0
 20 19  1  0  0  0  0
 21 17  1  6  0  0  0
 21 14  1  0  0  0  0
 25 24  1  0  0  0  0
 26 25  1  0  0  0  0
 27 26  1  0  0  0  0
 29 27  1  1  0  0  0
 29 33  1  0  0  0  0
 30 28  1  6  0  0  0
 30 34  1  0  0  0  0
 30 29  1  0  0  0  0
 31 32  1  0  0  0  0
 32 33  1  0  0  0  0
 34 31  1  0  0  0  0
M  END
>  <MODEL>
7

>  <REMARK>
 VINA RESULT:      -7.5      3.099      5.752
  Name = 
  6 active torsions:
  status: ('A' for Active; 'I' for Inactive)
    1  A    between atoms: C_3  and  C_13
    2  A    between atoms: C_3  and  N_17
    3  A    between atoms: C_5  and  C_18
    4  A    between atoms: N_17  and  O_29
    5  A    between atoms: C_18  and  O_29
    6  A    between atoms: C_23  and  C_28
                            x       y       z     vdW  Elec       q    Type
                         _______ _______ _______ _____ _____    ______ ____

>  <TORSDO>
F 6

$$$$
=
 OpenBabel10262419093D

 34 40  0  0  1  0  0  0  0  0999 V2000
  187.5800  177.5690  147.0830 C   0  0  0  0  0  0  0  0  0  0  0  0
  189.9070  178.0260  146.5180 C   0  0  0  0  0  0  0  0  0  0  0  0
  188.2700  177.6770  144.7560 C   0  0  0  0  0  0  0  0  0  0  0  0
  188.9220  177.9200  142.3180 C   0  0  1  0  0  3  0  0  0  0  0  0
  189.2290  177.8410  148.8380 C   0  0  0  0  0  3  0  0  0  0  0  0
  190.2270  178.0530  147.8790 C   0  0  0  0  0  3  0  0  0  0  0  0
  190.5380  178.5450  144.1940 C   0  0  0  0  0  2  0  0  0  0  0  0
  188.5880  177.7580  146.1190 C   0  0  0  0  0  0  0  0  0  0  0  0
  187.9060  177.6060  148.4420 C   0  0  0  0  0  3  0  0  0  0  0  0
  186.9300  177.4710  144.3740 C   0  0  0  0  0  0  0  0  0  0  0  0
  186.3010  177.3410  146.6870 N   0  0  0  0  0  0  0  0  0  0  0  0
  190.8910  178.2720  145.5530 O   0  0  0  0  0  0  0  0  0  0  0  0
  187.6830  177.0790  142.0200 C   0  0  0  0  0  2  0  0  0  0  0  0
  186.5150  177.4940  142.9210 C   0  0  2  0  0  3  0  0  0  0  0  0
  189.3990  177.6250  143.7450 C   0  0  1  0  0  3  0  0  0  0  0  0
  185.9590  177.2960  145.3700 C   0  0  0  0  0  3  0  0  0  0  0  0
  184.6810  179.2410  143.1290 C   0  0  0  0  0  0  0  0  0  0  0  0
  183.2540  178.9490  142.1190 S   0  0  0  0  0  0  0  0  0  0  0  0
  185.7700  178.9780  140.9590 C   0  0  1  0  0  3  0  0  0  0  0  0
  184.2840  179.1420  140.6310 C   0  0  1  0  0  3  0  0  0  0  0  0
  185.9660  178.8700  142.4790 C   0  0  2  0  0  3  0  0  0  0  0  0
  184.9770  177.8240  140.3620 C   0  0  0  0  0  2  0  0  0  0  0  0
  184.6650  180.2470  143.9990 C   0  0  0  0  0  2  0  0  0  0  0  0
  189.9900  177.5700  141.2880 C   0  0  0  0  0  2  0  0  0  0  0  0
  189.4180  176.9600  140.1680 O   0  0  0  0  0  0  0  0  0  0  0  0
  190.4410  176.3080  139.5650 N   0  0  0  0  0  2  0  0  0  0  0  0
  190.1300  176.2510  138.1480 C   0  0  0  0  0  2  0  0  0  0  0  0
  189.0380  179.3370  137.7810 O   0  0  0  0  0  1  0  0  0  0  0  0
  188.8030  176.9390  137.8830 C   0  0  1  0  0  3  0  0  0  0  0  0
  189.0260  178.1780  137.0000 C   0  0  1  0  0  3  0  0  0  0  0  0
  186.7740  178.0840  136.5080 C   0  0  0  0  0  2  0  0  0  0  0  0
  186.6610  176.7040  137.1820 C   0  0  0  0  0  2  0  0  0  0  0  0
  187.9100  176.0540  137.2490 O   0  0  0  0  0  0  0  0  0  0  0  0
  188.0630  178.2830  135.9670 O   0  0  0  0  0  0  0  0  0  0  0  0
  1  9  2  0  0  0  0
  2  6  1  0  0  0  0
  3  8  1  0  0  0  0
  4 24  1  6  0  0  0
  4 15  1  0  0  0  0
  6  5  2  0  0  0  0
  7 12  1  0  0  0  0
  8  2  2  0  0  0  0
  8  1  1  0  0  0  0
  9  5  1  0  0  0  0
 10  3  2  0  0  0  0
 10 16  1  0  0  0  0
 11  1  1  0  0  0  0
 12  2  1  0  0  0  0
 13  4  1  0  0  0  0
 14 13  1  6  0  0  0
 14 10  1  0  0  0  0
 15  7  1  1  0  0  0
 15  3  1  0  0  0  0
 16 11  2  0  0  0  0
 17 23  2  0  0  0  0
 18 17  1  0  0  0  0
 19 22  1  6  0  0  0
 19 21  1  0  0  0  0
 20 22  1  6  0  0  0
 20 19  1  0  0  0  0
 20 18  1  0  0  0  0
 21 14  1  0  0  0  0
 21 17  1  1  0  0  0
 25 24  1  0  0  0  0
 26 25  1  0  0  0  0
 27 26  1  0  0  0  0
 29 27  1  6  0  0  0
 30 28  1  1  0  0  0
 30 29  1  0  0  0  0
 31 32  1  0  0  0  0
 32 33  1  0  0  0  0
 33 29  1  0  0  0  0
 34 31  1  0  0  0  0
 34 30  1  0  0  0  0
M  END
>  <MODEL>
8

>  <REMARK>
 VINA RESULT:      -7.4      3.959      7.519
  Name = 
  6 active torsions:
  status: ('A' for Active; 'I' for Inactive)
    1  A    between atoms: C_3  and  C_13
    2  A    between atoms: C_3  and  N_17
    3  A    between atoms: C_5  and  C_18
    4  A    between atoms: N_17  and  O_29
    5  A    between atoms: C_18  and  O_29
    6  A    between atoms: C_23  and  C_28
                            x       y       z     vdW  Elec       q    Type
                         _______ _______ _______ _____ _____    ______ ____

>  <TORSDO>
F 6

$$$$
=
 OpenBabel10262419093D

 34 40  0  0  1  0  0  0  0  0999 V2000
  184.5130  178.9810  140.3280 C   0  0  0  0  0  0  0  0  0  0  0  0
  184.6450  177.9550  138.1220 C   0  0  0  0  0  0  0  0  0  0  0  0
  186.6490  178.2030  139.4730 C   0  0  0  0  0  0  0  0  0  0  0  0
  188.8720  177.2790  138.6750 C   0  0  1  0  0  3  0  0  0  0  0  0
  182.5300  178.8010  138.9480 C   0  0  0  0  0  3  0  0  0  0  0  0
  183.2780  178.1810  137.9400 C   0  0  0  0  0  3  0  0  0  0  0  0
  186.7020  176.7970  137.4160 C   0  0  0  0  0  2  0  0  0  0  0  0
  185.2690  178.3780  139.3050 C   0  0  0  0  0  0  0  0  0  0  0  0
  183.1440  179.1960  140.1430 C   0  0  0  0  0  3  0  0  0  0  0  0
  187.2470  178.5770  140.6930 C   0  0  0  0  0  0  0  0  0  0  0  0
  185.1200  179.3600  141.4840 N   0  0  0  0  0  0  0  0  0  0  0  0
  185.3940  177.3020  137.1350 O   0  0  0  0  0  0  0  0  0  0  0  0
  189.5040  178.2560  139.6630 C   0  0  0  0  0  2  0  0  0  0  0  0
  188.7060  178.3010  140.9710 C   0  0  2  0  0  3  0  0  0  0  0  0
  187.4840  177.7960  138.2750 C   0  0  1  0  0  3  0  0  0  0  0  0
  186.4520  179.1660  141.6860 C   0  0  0  0  0  3  0  0  0  0  0  0
  188.5620  177.1050  143.2080 C   0  0  0  0  0  0  0  0  0  0  0  0
  189.9470  177.3630  144.2830 S   0  0  0  0  0  0  0  0  0  0  0  0
  190.3710  176.4790  141.6920 C   0  0  1  0  0  3  0  0  0  0  0  0
  191.0240  176.5290  143.0760 C   0  0  1  0  0  3  0  0  0  0  0  0
  188.9260  176.9960  141.7710 C   0  0  2  0  0  3  0  0  0  0  0  0
  191.4160  177.5360  142.0170 C   0  0  0  0  0  2  0  0  0  0  0  0
  187.5080  176.4320  143.6600 C   0  0  0  0  0  2  0  0  0  0  0  0
  189.7940  177.1620  137.4680 C   0  0  0  0  0  2  0  0  0  0  0  0
  190.0020  175.8210  137.1310 O   0  0  0  0  0  0  0  0  0  0  0  0
  190.9000  175.3680  138.0390 N   0  0  0  0  0  2  0  0  0  0  0  0
  191.5470  174.2080  137.4520 C   0  0  0  0  0  2  0  0  0  0  0  0
  193.5360  176.8330  137.5210 O   0  0  0  0  0  1  0  0  0  0  0  0
  192.8800  174.6120  136.8480 C   0  0  1  0  0  3  0  0  0  0  0  0
  193.6620  175.4800  137.8480 C   0  0  1  0  0  3  0  0  0  0  0  0
  195.5510  174.9770  136.6210 C   0  0  0  0  0  2  0  0  0  0  0  0
  194.7740  173.9160  135.8180 C   0  0  0  0  0  2  0  0  0  0  0  0
  193.6320  173.4700  136.5140 O   0  0  0  0  0  0  0  0  0  0  0  0
  195.0280  175.1110  137.9260 O   0  0  0  0  0  0  0  0  0  0  0  0
  1 11  1  0  0  0  0
  2  8  1  0  0  0  0
  3 10  2  0  0  0  0
  4 24  1  6  0  0  0
  4 13  1  0  0  0  0
  5  9  2  0  0  0  0
  6  2  2  0  0  0  0
  6  5  1  0  0  0  0
  8  3  1  0  0  0  0
  8  1  2  0  0  0  0
  9  1  1  0  0  0  0
 10 14  1  0  0  0  0
 10 16  1  0  0  0  0
 11 16  2  0  0  0  0
 12  7  1  0  0  0  0
 12  2  1  0  0  0  0
 14 13  1  6  0  0  0
 14 21  1  0  0  0  0
 15  7  1  1  0  0  0
 15  4  1  0  0  0  0
 15  3  1  0  0  0  0
 17 23  2  0  0  0  0
 17 18  1  0  0  0  0
 19 21  1  0  0  0  0
 19 22  1  6  0  0  0
 19 20  1  0  0  0  0
 20 22  1  6  0  0  0
 20 18  1  0  0  0  0
 21 17  1  1  0  0  0
 25 24  1  0  0  0  0
 25 26  1  0  0  0  0
 27 26  1  0  0  0  0
 29 27  1  1  0  0  0
 29 30  1  0  0  0  0
 30 28  1  6  0  0  0
 30 34  1  0  0  0  0
 31 34  1  0  0  0  0
 32 33  1  0  0  0  0
 32 31  1  0  0  0  0
 33 29  1  0  0  0  0
M  END
>  <MODEL>
9

>  <REMARK>
 VINA RESULT:      -7.4      3.880      8.821
  Name = 
  6 active torsions:
  status: ('A' for Active; 'I' for Inactive)
    1  A    between atoms: C_3  and  C_13
    2  A    between atoms: C_3  and  N_17
    3  A    between atoms: C_5  and  C_18
    4  A    between atoms: N_17  and  O_29
    5  A    between atoms: C_18  and  O_29
    6  A    between atoms: C_23  and  C_28
                            x       y       z     vdW  Elec       q    Type
                         _______ _______ _______ _____ _____    ______ ____

>  <TORSDO>
F 6

$$$$
