=
 OpenBabel10262421403D

 32 36  0  0  1  0  0  0  0  0999 V2000
  188.3390  177.5120  144.5360 C   0  0  0  0  0  0  0  0  0  0  0  0
  189.8270  177.4410  139.8280 C   0  0  1  0  0  3  0  0  0  0  0  0
  191.8380  176.6600  138.5540 C   0  0  0  0  0  0  0  0  0  0  0  0
  192.4930  176.2840  137.2920 C   0  0  0  0  0  0  0  0  0  0  0  0
  189.5620  176.9660  142.0180 C   0  0  1  0  0  3  0  0  0  0  0  0
  187.7860  178.4180  140.9740 C   0  0  0  0  0  2  0  0  0  0  0  0
  193.6650  175.4820  134.8780 C   0  0  0  0  0  3  0  0  0  0  0  0
  187.7040  177.9100  143.4210 C   0  0  0  0  0  3  0  0  0  0  0  0
  188.3990  177.9360  139.6920 C   0  0  0  0  0  0  0  0  0  0  0  0
  187.6950  177.8200  138.5530 C   0  0  0  0  0  0  0  0  0  0  0  0
  189.7790  177.3700  137.2850 C   0  0  2  0  0  3  0  0  0  0  0  0
  194.4250  175.5000  136.0510 C   0  0  0  0  0  3  0  0  0  0  0  0
  189.5700  176.6310  144.4940 C   0  0  0  0  0  2  0  0  0  0  0  0
  188.0810  177.3880  142.0640 C   0  0  2  0  0  3  0  0  0  0  0  0
  193.8400  175.8970  137.2570 C   0  0  0  0  0  3  0  0  0  0  0  0
  189.8040  175.9640  143.1350 C   0  0  0  0  0  2  0  0  0  0  0  0
  188.2720  177.1070  137.3680 C   0  0  1  0  0  3  0  0  0  0  0  0
  190.3660  176.6650  136.1440 N   0  0  0  0  0  2  0  0  0  0  0  0
  189.8650  176.3890  140.7680 O   0  0  0  0  0  0  0  0  0  0  0  0
  192.4950  176.6430  139.6310 O   0  0  0  0  0  0  0  0  0  0  0  0
  192.3210  175.8670  134.9090 C   0  0  0  0  0  3  0  0  0  0  0  0
  190.4450  177.0300  138.5560 N   0  0  0  0  0  0  0  0  0  0  0  0
  191.7390  176.2770  136.1130 C   0  0  0  0  0  0  0  0  0  0  0  0
  185.2450  178.6750  138.3860 N   0  0  0  0  0  0  0  0  0  0  0  0
  186.3360  178.2950  138.4600 C   0  0  0  0  0  0  0  0  0  0  0  0
  186.9720  175.2080  136.3940 C   0  0  0  0  0  1  0  0  0  0  0  0
  187.9540  175.6170  137.4750 C   0  0  0  0  0  2  0  0  0  0  0  0
  187.8930  178.0570  145.8490 C   0  0  0  0  0  2  0  0  0  0  0  0
  185.6350  178.6300  146.7890 C   0  0  0  0  0  0  0  0  0  0  0  0
  186.4880  177.7530  146.0550 N   0  0  0  0  0  2  0  0  0  0  0  0
  184.4240  178.3310  146.9520 O   0  0  0  0  0  0  0  0  0  0  0  0
  186.1310  179.8120  147.3250 O   0  0  0  0  0  1  0  0  0  0  0  0
  1 28  1  0  0  0  0
  2  9  1  6  0  0  0
  2 19  1  0  0  0  0
  3 22  1  0  0  0  0
  3 20  2  0  0  0  0
  4  3  1  0  0  0  0
  5 14  1  0  0  0  0
  5 16  1  1  0  0  0
  7 21  2  0  0  0  0
  7 12  1  0  0  0  0
  8  1  2  0  0  0  0
  9  6  1  0  0  0  0
 10  9  2  0  0  0  0
 11 18  1  6  0  0  0
 11 17  1  0  0  0  0
 11 22  1  0  0  0  0
 12 15  2  0  0  0  0
 13  1  1  0  0  0  0
 14  6  1  6  0  0  0
 14  8  1  0  0  0  0
 15  4  1  0  0  0  0
 16 13  1  0  0  0  0
 17 27  1  1  0  0  0
 17 10  1  0  0  0  0
 19  5  1  0  0  0  0
 21 23  1  0  0  0  0
 22  2  1  0  0  0  0
 23 18  1  0  0  0  0
 23  4  2  0  0  0  0
 24 25  3  0  0  0  0
 25 10  1  0  0  0  0
 26 27  1  0  0  0  0
 28 30  1  0  0  0  0
 29 31  2  0  0  0  0
 29 32  1  0  0  0  0
 30 29  1  0  0  0  0
M  END
>  <MODEL>
1

>  <REMARK>
 VINA RESULT:      -8.4      0.000      0.000
  Name = 
  4 active torsions:
  status: ('A' for Active; 'I' for Inactive)
    1  A    between atoms: C_2  and  C_24
    2  A    between atoms: N_10  and  C_24
    3  A    between atoms: C_13  and  C_15
    4  A    between atoms: C_25  and  C_26
                            x       y       z     vdW  Elec       q    Type
                         _______ _______ _______ _____ _____    ______ ____

>  <TORSDO>
F 4

$$$$
=
 OpenBabel10262421403D

 32 36  0  0  1  0  0  0  0  0999 V2000
  185.9500  178.5340  146.0410 C   0  0  0  0  0  0  0  0  0  0  0  0
  184.9550  178.6490  141.2050 C   0  0  1  0  0  3  0  0  0  0  0  0
  186.2180  178.3260  139.0660 C   0  0  0  0  0  0  0  0  0  0  0  0
  186.2500  178.0710  137.6180 C   0  0  0  0  0  0  0  0  0  0  0  0
  185.8950  178.2060  143.2080 C   0  0  1  0  0  3  0  0  0  0  0  0
  183.5590  179.1510  143.2630 C   0  0  0  0  0  2  0  0  0  0  0  0
  186.2580  177.4850  134.8790 C   0  0  0  0  0  3  0  0  0  0  0  0
  184.7840  178.7290  145.4000 C   0  0  0  0  0  3  0  0  0  0  0  0
  183.5690  178.7830  141.8080 C   0  0  0  0  0  0  0  0  0  0  0  0
  182.4490  178.4610  141.1360 C   0  0  0  0  0  0  0  0  0  0  0  0
  183.7030  178.4760  138.9960 C   0  0  2  0  0  3  0  0  0  0  0  0
  187.4630  177.7280  135.5450 C   0  0  0  0  0  3  0  0  0  0  0  0
  187.1720  177.9730  145.3430 C   0  0  0  0  0  2  0  0  0  0  0  0
  184.5670  178.2620  143.9890 C   0  0  2  0  0  3  0  0  0  0  0  0
  187.4600  178.0170  136.9130 C   0  0  0  0  0  3  0  0  0  0  0  0
  186.8650  177.3320  143.9860 C   0  0  0  0  0  2  0  0  0  0  0  0
  182.5280  177.8640  139.7640 C   0  0  1  0  0  3  0  0  0  0  0  0
  183.8100  177.8900  137.6590 N   0  0  0  0  0  2  0  0  0  0  0  0
  185.6780  177.6720  141.9210 O   0  0  0  0  0  0  0  0  0  0  0  0
  187.2980  178.5060  139.6950 O   0  0  0  0  0  0  0  0  0  0  0  0
  185.0490  177.5390  135.5790 C   0  0  0  0  0  3  0  0  0  0  0  0
  184.9570  178.3520  139.7630 N   0  0  0  0  0  0  0  0  0  0  0  0
  185.0440  177.8410  136.9450 C   0  0  0  0  0  0  0  0  0  0  0  0
  180.1020  178.6990  142.2290 N   0  0  0  0  0  0  0  0  0  0  0  0
  181.1470  178.5930  141.7430 C   0  0  0  0  0  0  0  0  0  0  0  0
  181.3690  175.6760  139.4200 C   0  0  0  0  0  1  0  0  0  0  0  0
  182.6480  176.3460  139.8840 C   0  0  0  0  0  2  0  0  0  0  0  0
  186.0830  179.0050  147.4480 C   0  0  0  0  0  2  0  0  0  0  0  0
  188.2300  178.1870  148.4650 C   0  0  0  0  0  0  0  0  0  0  0  0
  187.4880  179.1890  147.7730 N   0  0  0  0  0  2  0  0  0  0  0  0
  189.4430  178.3840  148.7340 O   0  0  0  0  0  0  0  0  0  0  0  0
  187.6250  176.9960  148.8450 O   0  0  0  0  0  1  0  0  0  0  0  0
  1 28  1  0  0  0  0
  2  9  1  1  0  0  0
  2 19  1  0  0  0  0
  3 20  2  0  0  0  0
  3 22  1  0  0  0  0
  4  3  1  0  0  0  0
  5 16  1  1  0  0  0
  5 14  1  0  0  0  0
  7 12  2  0  0  0  0
  7 21  1  0  0  0  0
  8  1  2  0  0  0  0
  9  6  1  0  0  0  0
 10 25  1  0  0  0  0
 10  9  2  0  0  0  0
 11 18  1  6  0  0  0
 11 22  1  0  0  0  0
 11 17  1  0  0  0  0
 12 15  1  0  0  0  0
 13  1  1  0  0  0  0
 14  6  1  6  0  0  0
 14  8  1  0  0  0  0
 15  4  2  0  0  0  0
 16 13  1  0  0  0  0
 17 27  1  1  0  0  0
 17 10  1  0  0  0  0
 19  5  1  0  0  0  0
 21 23  2  0  0  0  0
 22  2  1  0  0  0  0
 23  4  1  0  0  0  0
 23 18  1  0  0  0  0
 25 24  3  0  0  0  0
 26 27  1  0  0  0  0
 28 30  1  0  0  0  0
 29 31  2  0  0  0  0
 29 32  1  0  0  0  0
 30 29  1  0  0  0  0
M  END
>  <MODEL>
2

>  <REMARK>
 VINA RESULT:      -7.7      3.920      5.468
  Name = 
  4 active torsions:
  status: ('A' for Active; 'I' for Inactive)
    1  A    between atoms: C_2  and  C_24
    2  A    between atoms: N_10  and  C_24
    3  A    between atoms: C_13  and  C_15
    4  A    between atoms: C_25  and  C_26
                            x       y       z     vdW  Elec       q    Type
                         _______ _______ _______ _____ _____    ______ ____

>  <TORSDO>
F 4

$$$$
=
 OpenBabel10262421403D

 32 36  0  0  1  0  0  0  0  0999 V2000
  193.1000  175.7080  137.1400 C   0  0  0  0  0  0  0  0  0  0  0  0
  189.3340  177.8090  139.5450 C   0  0  1  0  0  3  0  0  0  0  0  0
  186.9030  178.2430  139.1210 C   0  0  0  0  0  0  0  0  0  0  0  0
  185.5540  178.5780  139.6030 C   0  0  0  0  0  0  0  0  0  0  0  0
  190.5630  176.5300  138.1510 C   0  0  1  0  0  3  0  0  0  0  0  0
  191.8040  177.5830  140.0760 C   0  0  0  0  0  2  0  0  0  0  0  0
  182.9880  179.1210  140.5840 C   0  0  0  0  0  3  0  0  0  0  0  0
  193.0490  176.2440  138.3720 C   0  0  0  0  0  3  0  0  0  0  0  0
  190.4200  177.8190  140.6050 C   0  0  0  0  0  0  0  0  0  0  0  0
  190.1510  177.8910  141.9200 C   0  0  0  0  0  0  0  0  0  0  0  0
  187.8360  178.6340  141.4290 C   0  0  2  0  0  3  0  0  0  0  0  0
  183.1930  178.9720  139.2090 C   0  0  0  0  0  3  0  0  0  0  0  0
  191.8510  175.3600  136.3580 C   0  0  0  0  0  2  0  0  0  0  0  0
  191.7550  176.3930  139.1190 C   0  0  2  0  0  3  0  0  0  0  0  0
  184.4730  178.6970  138.7190 C   0  0  0  0  0  3  0  0  0  0  0  0
  190.5780  175.3360  137.2100 C   0  0  0  0  0  2  0  0  0  0  0  0
  188.7350  177.8780  142.4120 C   0  0  1  0  0  3  0  0  0  0  0  0
  186.4440  178.6170  141.8820 N   0  0  0  0  0  2  0  0  0  0  0  0
  189.3530  176.5690  138.8740 O   0  0  0  0  0  0  0  0  0  0  0  0
  187.1010  178.0630  137.8880 O   0  0  0  0  0  0  0  0  0  0  0  0
  184.0640  179.0030  141.4690 C   0  0  0  0  0  3  0  0  0  0  0  0
  187.9870  178.1060  140.0610 N   0  0  0  0  0  0  0  0  0  0  0  0
  185.3480  178.7410  140.9780 C   0  0  0  0  0  0  0  0  0  0  0  0
  192.0550  177.8890  143.6910 N   0  0  0  0  0  0  0  0  0  0  0  0
  191.2080  177.8890  142.9020 C   0  0  0  0  0  0  0  0  0  0  0  0
  187.6420  176.2570  143.9690 C   0  0  0  0  0  1  0  0  0  0  0  0
  188.2840  176.4320  142.6060 C   0  0  0  0  0  2  0  0  0  0  0  0
  194.4240  175.5720  136.4710 C   0  0  0  0  0  2  0  0  0  0  0  0
  196.0290  177.1440  135.3440 C   0  0  0  0  0  0  0  0  0  0  0  0
  194.6960  176.7580  135.6760 N   0  0  0  0  0  2  0  0  0  0  0  0
  196.2260  178.1800  134.6590 O   0  0  0  0  0  0  0  0  0  0  0  0
  197.1110  176.3850  135.7730 O   0  0  0  0  0  1  0  0  0  0  0  0
  1  8  2  0  0  0  0
  2 19  1  1  0  0  0
  2 22  1  0  0  0  0
  2  9  1  0  0  0  0
  3  4  1  0  0  0  0
  3 22  1  0  0  0  0
  4 23  1  0  0  0  0
  5 16  1  6  0  0  0
  5 19  1  0  0  0  0
  5 14  1  0  0  0  0
  6  9  1  0  0  0  0
  7 21  1  0  0  0  0
  9 10  2  0  0  0  0
 10 17  1  0  0  0  0
 10 25  1  0  0  0  0
 11 18  1  1  0  0  0
 11 17  1  0  0  0  0
 12  7  2  0  0  0  0
 13  1  1  0  0  0  0
 13 16  1  0  0  0  0
 14  8  1  6  0  0  0
 14  6  1  0  0  0  0
 15 12  1  0  0  0  0
 15  4  2  0  0  0  0
 17 27  1  6  0  0  0
 20  3  2  0  0  0  0
 22 11  1  0  0  0  0
 23 21  2  0  0  0  0
 23 18  1  0  0  0  0
 25 24  3  0  0  0  0
 27 26  1  0  0  0  0
 28  1  1  0  0  0  0
 29 30  1  0  0  0  0
 29 32  1  0  0  0  0
 30 28  1  0  0  0  0
 31 29  2  0  0  0  0
M  END
>  <MODEL>
3

>  <REMARK>
 VINA RESULT:      -7.1      3.222      8.791
  Name = 
  4 active torsions:
  status: ('A' for Active; 'I' for Inactive)
    1  A    between atoms: C_2  and  C_24
    2  A    between atoms: N_10  and  C_24
    3  A    between atoms: C_13  and  C_15
    4  A    between atoms: C_25  and  C_26
                            x       y       z     vdW  Elec       q    Type
                         _______ _______ _______ _____ _____    ______ ____

>  <TORSDO>
F 4

$$$$
=
 OpenBabel10262421403D

 32 36  0  0  1  0  0  0  0  0999 V2000
  185.5670  178.8440  145.3280 C   0  0  0  0  0  0  0  0  0  0  0  0
  183.3560  178.5710  140.9210 C   0  0  1  0  0  3  0  0  0  0  0  0
  184.0260  178.0450  138.5640 C   0  0  0  0  0  0  0  0  0  0  0  0
  183.6830  177.6690  137.1850 C   0  0  0  0  0  0  0  0  0  0  0  0
  184.7830  178.2800  142.6440 C   0  0  1  0  0  3  0  0  0  0  0  0
  182.5370  179.2700  143.2170 C   0  0  0  0  0  2  0  0  0  0  0  0
  182.9860  176.8540  134.5970 C   0  0  0  0  0  3  0  0  0  0  0  0
  184.2750  179.0060  144.9950 C   0  0  0  0  0  3  0  0  0  0  0  0
  182.1720  178.7810  141.8470 C   0  0  0  0  0  0  0  0  0  0  0  0
  180.9190  178.4250  141.5160 C   0  0  0  0  0  0  0  0  0  0  0  0
  181.5780  178.2360  139.1320 C   0  0  2  0  0  3  0  0  0  0  0  0
  184.3210  177.1300  134.9070 C   0  0  0  0  0  3  0  0  0  0  0  0
  186.5690  178.2040  144.3900 C   0  0  0  0  0  2  0  0  0  0  0  0
  183.7020  178.4270  143.7330 C   0  0  2  0  0  3  0  0  0  0  0  0
  184.6700  177.5330  136.1990 C   0  0  0  0  0  3  0  0  0  0  0  0
  185.9250  177.4570  143.2180 C   0  0  0  0  0  2  0  0  0  0  0  0
  180.6430  177.7120  140.2270 C   0  0  1  0  0  3  0  0  0  0  0  0
  181.3370  177.5380  137.8680 N   0  0  0  0  0  2  0  0  0  0  0  0
  184.2430  177.6440  141.5070 O   0  0  0  0  0  0  0  0  0  0  0  0
  185.2300  178.2570  138.8760 O   0  0  0  0  0  0  0  0  0  0  0  0
  181.9980  176.9890  135.5780 C   0  0  0  0  0  3  0  0  0  0  0  0
  182.9870  178.1530  139.5580 N   0  0  0  0  0  0  0  0  0  0  0  0
  182.3450  177.4050  136.8680 C   0  0  0  0  0  0  0  0  0  0  0  0
  178.9320  178.7970  143.1520 N   0  0  0  0  0  0  0  0  0  0  0  0
  179.8170  178.6310  142.4240 C   0  0  0  0  0  0  0  0  0  0  0  0
  179.4330  175.5480  140.5450 C   0  0  0  0  0  1  0  0  0  0  0  0
  180.7950  176.2080  140.4410 C   0  0  0  0  0  2  0  0  0  0  0  0
  186.0570  179.4290  146.6080 C   0  0  0  0  0  2  0  0  0  0  0  0
  187.7100  177.9330  147.7660 C   0  0  0  0  0  0  0  0  0  0  0  0
  186.3680  178.3640  147.5460 N   0  0  0  0  0  2  0  0  0  0  0  0
  187.9410  177.0030  148.5810 O   0  0  0  0  0  1  0  0  0  0  0  0
  188.7640  178.5300  147.0850 O   0  0  0  0  0  0  0  0  0  0  0  0
  1 28  1  0  0  0  0
  2 19  1  1  0  0  0
  2  9  1  0  0  0  0
  3 20  2  0  0  0  0
  3 22  1  0  0  0  0
  4  3  1  0  0  0  0
  5 16  1  1  0  0  0
  5 14  1  0  0  0  0
  7 12  2  0  0  0  0
  7 21  1  0  0  0  0
  8  1  2  0  0  0  0
  9  6  1  0  0  0  0
 10  9  2  0  0  0  0
 10 25  1  0  0  0  0
 11 18  1  6  0  0  0
 11 22  1  0  0  0  0
 11 17  1  0  0  0  0
 12 15  1  0  0  0  0
 13  1  1  0  0  0  0
 14  6  1  6  0  0  0
 14  8  1  0  0  0  0
 15  4  2  0  0  0  0
 16 13  1  0  0  0  0
 17 27  1  1  0  0  0
 17 10  1  0  0  0  0
 19  5  1  0  0  0  0
 21 23  2  0  0  0  0
 22  2  1  0  0  0  0
 23  4  1  0  0  0  0
 23 18  1  0  0  0  0
 25 24  3  0  0  0  0
 27 26  1  0  0  0  0
 28 30  1  0  0  0  0
 29 31  1  0  0  0  0
 30 29  1  0  0  0  0
 32 29  2  0  0  0  0
M  END
>  <MODEL>
4

>  <REMARK>
 VINA RESULT:      -6.9      5.471      7.062
  Name = 
  4 active torsions:
  status: ('A' for Active; 'I' for Inactive)
    1  A    between atoms: C_2  and  C_24
    2  A    between atoms: N_10  and  C_24
    3  A    between atoms: C_13  and  C_15
    4  A    between atoms: C_25  and  C_26
                            x       y       z     vdW  Elec       q    Type
                         _______ _______ _______ _____ _____    ______ ____

>  <TORSDO>
F 4

$$$$
=
 OpenBabel10262421403D

 32 36  0  0  1  0  0  0  0  0999 V2000
  182.5070  178.6110  139.3100 C   0  0  0  0  0  0  0  0  0  0  0  0
  186.2130  178.6540  142.5730 C   0  0  1  0  0  3  0  0  0  0  0  0
  186.4700  178.4540  145.0570 C   0  0  0  0  0  0  0  0  0  0  0  0
  187.2980  178.2090  146.2470 C   0  0  0  0  0  0  0  0  0  0  0  0
  184.2300  178.2890  141.5600 C   0  0  1  0  0  3  0  0  0  0  0  0
  186.1230  179.0200  140.0640 C   0  0  0  0  0  2  0  0  0  0  0  0
  188.8960  177.6360  148.4750 C   0  0  0  0  0  3  0  0  0  0  0  0
  183.8330  178.7020  139.1130 C   0  0  0  0  0  3  0  0  0  0  0  0
  186.9640  178.6600  141.2540 C   0  0  0  0  0  0  0  0  0  0  0  0
  188.2360  178.2410  141.1390 C   0  0  0  0  0  0  0  0  0  0  0  0
  188.5250  178.3770  143.5990 C   0  0  2  0  0  3  0  0  0  0  0  0
  187.5540  177.9840  148.6500 C   0  0  0  0  0  3  0  0  0  0  0  0
  181.9140  178.1640  140.6310 C   0  0  0  0  0  2  0  0  0  0  0  0
  184.8210  178.2230  140.1380 C   0  0  2  0  0  3  0  0  0  0  0  0
  186.7540  178.2660  147.5380 C   0  0  0  0  0  3  0  0  0  0  0  0
  182.9290  177.5030  141.5690 C   0  0  0  0  0  2  0  0  0  0  0  0
  188.9570  177.6580  142.3170 C   0  0  1  0  0  3  0  0  0  0  0  0
  189.2030  177.8090  144.7660 N   0  0  0  0  0  2  0  0  0  0  0  0
  185.1390  177.7430  142.4890 O   0  0  0  0  0  0  0  0  0  0  0  0
  185.2450  178.7280  145.1900 O   0  0  0  0  0  0  0  0  0  0  0  0
  189.4420  177.5780  147.1890 C   0  0  0  0  0  3  0  0  0  0  0  0
  187.0580  178.3630  143.7440 N   0  0  0  0  0  0  0  0  0  0  0  0
  188.6460  177.8730  146.0770 C   0  0  0  0  0  0  0  0  0  0  0  0
  189.4650  178.2620  138.8480 N   0  0  0  0  0  0  0  0  0  0  0  0
  188.9180  178.2530  139.8680 C   0  0  0  0  0  0  0  0  0  0  0  0
  189.9220  175.4140  142.8430 C   0  0  0  0  0  1  0  0  0  0  0  0
  188.6840  176.1570  142.3800 C   0  0  0  0  0  2  0  0  0  0  0  0
  181.5880  179.0860  138.2380 C   0  0  0  0  0  2  0  0  0  0  0  0
  180.6380  181.3260  138.8650 C   0  0  0  0  0  0  0  0  0  0  0  0
  180.5370  179.9040  138.8200 N   0  0  0  0  0  2  0  0  0  0  0  0
  179.7100  182.0010  139.3830 O   0  0  0  0  0  1  0  0  0  0  0  0
  181.7520  181.9720  138.3430 O   0  0  0  0  0  0  0  0  0  0  0  0
  1 13  1  0  0  0  0
  2  9  1  6  0  0  0
  2 22  1  0  0  0  0
  3 20  2  0  0  0  0
  3  4  1  0  0  0  0
  4 15  1  0  0  0  0
  5 16  1  6  0  0  0
  5 19  1  0  0  0  0
  6 14  1  0  0  0  0
  6  9  1  0  0  0  0
  7 12  1  0  0  0  0
  8  1  2  0  0  0  0
 10  9  2  0  0  0  0
 10 17  1  0  0  0  0
 11 22  1  0  0  0  0
 11 18  1  1  0  0  0
 13 16  1  0  0  0  0
 14  8  1  6  0  0  0
 14  5  1  0  0  0  0
 15 12  2  0  0  0  0
 17 27  1  1  0  0  0
 17 11  1  0  0  0  0
 18 23  1  0  0  0  0
 19  2  1  0  0  0  0
 21  7  2  0  0  0  0
 22  3  1  0  0  0  0
 23  4  2  0  0  0  0
 23 21  1  0  0  0  0
 24 25  3  0  0  0  0
 25 10  1  0  0  0  0
 27 26  1  0  0  0  0
 28 30  1  0  0  0  0
 28  1  1  0  0  0  0
 29 31  1  0  0  0  0
 30 29  1  0  0  0  0
 32 29  2  0  0  0  0
M  END
>  <MODEL>
5

>  <REMARK>
 VINA RESULT:      -6.8      3.799      8.364
  Name = 
  4 active torsions:
  status: ('A' for Active; 'I' for Inactive)
    1  A    between atoms: C_2  and  C_24
    2  A    between atoms: N_10  and  C_24
    3  A    between atoms: C_13  and  C_15
    4  A    between atoms: C_25  and  C_26
                            x       y       z     vdW  Elec       q    Type
                         _______ _______ _______ _____ _____    ______ ____

>  <TORSDO>
F 4

$$$$
=
 OpenBabel10262421403D

 32 36  0  0  1  0  0  0  0  0999 V2000
  189.0410  177.6160  135.6930 C   0  0  0  0  0  0  0  0  0  0  0  0
  185.5330  177.7490  139.1660 C   0  0  1  0  0  3  0  0  0  0  0  0
  185.4140  178.1470  141.6360 C   0  0  0  0  0  0  0  0  0  0  0  0
  184.6500  178.4690  142.8510 C   0  0  0  0  0  0  0  0  0  0  0  0
  187.4420  178.0780  138.0090 C   0  0  1  0  0  3  0  0  0  0  0  0
  185.4880  177.1790  136.6940 C   0  0  0  0  0  2  0  0  0  0  0  0
  183.1660  179.1830  145.1170 C   0  0  0  0  0  3  0  0  0  0  0  0
  187.7090  177.4760  135.5850 C   0  0  0  0  0  3  0  0  0  0  0  0
  184.7070  177.6150  137.8990 C   0  0  0  0  0  0  0  0  0  0  0  0
  183.4190  177.9910  137.8280 C   0  0  0  0  0  0  0  0  0  0  0  0
  183.2770  178.0520  140.3040 C   0  0  2  0  0  3  0  0  0  0  0  0
  184.5270  178.8850  145.2380 C   0  0  0  0  0  3  0  0  0  0  0  0
  189.6960  178.1840  136.9350 C   0  0  0  0  0  2  0  0  0  0  0  0
  186.7680  178.0120  136.6250 C   0  0  2  0  0  3  0  0  0  0  0  0
  185.2690  178.5320  144.1070 C   0  0  0  0  0  3  0  0  0  0  0  0
  188.7170  178.8950  137.8760 C   0  0  0  0  0  2  0  0  0  0  0  0
  182.7510  178.6510  138.9960 C   0  0  1  0  0  3  0  0  0  0  0  0
  182.6510  178.6970  141.4590 N   0  0  0  0  0  2  0  0  0  0  0  0
  186.5720  178.6760  138.9440 O   0  0  0  0  0  0  0  0  0  0  0  0
  186.6520  177.9150  141.7170 O   0  0  0  0  0  0  0  0  0  0  0  0
  182.5460  179.1210  143.8660 C   0  0  0  0  0  3  0  0  0  0  0  0
  184.7490  178.1140  140.3580 N   0  0  0  0  0  0  0  0  0  0  0  0
  183.2840  178.7550  142.7350 C   0  0  0  0  0  0  0  0  0  0  0  0
  182.0610  177.7510  135.6230 N   0  0  0  0  0  0  0  0  0  0  0  0
  182.6650  177.8580  136.6050 C   0  0  0  0  0  0  0  0  0  0  0  0
  181.7100  180.8680  138.4990 C   0  0  0  0  0  1  0  0  0  0  0  0
  182.9820  180.1590  138.9210 C   0  0  0  0  0  2  0  0  0  0  0  0
  189.9100  177.0760  134.6100 C   0  0  0  0  0  2  0  0  0  0  0  0
  191.3030  175.1410  135.4010 C   0  0  0  0  0  0  0  0  0  0  0  0
  190.1110  175.6510  134.8060 N   0  0  0  0  0  2  0  0  0  0  0  0
  191.4440  173.8990  135.5490 O   0  0  0  0  0  0  0  0  0  0  0  0
  192.3100  176.0030  135.8160 O   0  0  0  0  0  1  0  0  0  0  0  0
  1 13  1  0  0  0  0
  2  9  1  6  0  0  0
  2 22  1  0  0  0  0
  3 20  2  0  0  0  0
  3  4  1  0  0  0  0
  4 15  1  0  0  0  0
  5 16  1  6  0  0  0
  5 19  1  0  0  0  0
  6  9  1  0  0  0  0
  7 12  1  0  0  0  0
  8  1  2  0  0  0  0
 10  9  2  0  0  0  0
 10 17  1  0  0  0  0
 11 22  1  0  0  0  0
 11 18  1  1  0  0  0
 13 16  1  0  0  0  0
 14  8  1  6  0  0  0
 14  6  1  0  0  0  0
 14  5  1  0  0  0  0
 15 12  2  0  0  0  0
 17 27  1  1  0  0  0
 17 11  1  0  0  0  0
 18 23  1  0  0  0  0
 19  2  1  0  0  0  0
 21  7  2  0  0  0  0
 22  3  1  0  0  0  0
 23  4  2  0  0  0  0
 23 21  1  0  0  0  0
 24 25  3  0  0  0  0
 25 10  1  0  0  0  0
 26 27  1  0  0  0  0
 28 30  1  0  0  0  0
 28  1  1  0  0  0  0
 29 31  2  0  0  0  0
 29 32  1  0  0  0  0
 30 29  1  0  0  0  0
M  END
>  <MODEL>
6

>  <REMARK>
 VINA RESULT:      -6.6      3.273      9.075
  Name = 
  4 active torsions:
  status: ('A' for Active; 'I' for Inactive)
    1  A    between atoms: C_2  and  C_24
    2  A    between atoms: N_10  and  C_24
    3  A    between atoms: C_13  and  C_15
    4  A    between atoms: C_25  and  C_26
                            x       y       z     vdW  Elec       q    Type
                         _______ _______ _______ _____ _____    ______ ____

>  <TORSDO>
F 4

$$$$
=
 OpenBabel10262421403D

 32 36  0  0  1  0  0  0  0  0999 V2000
  191.0020  176.3740  136.9260 C   0  0  0  0  0  0  0  0  0  0  0  0
  187.9660  178.0880  140.4230 C   0  0  1  0  0  3  0  0  0  0  0  0
  185.5020  178.4500  140.6950 C   0  0  0  0  0  0  0  0  0  0  0  0
  184.3230  178.6820  141.5420 C   0  0  0  0  0  0  0  0  0  0  0  0
  188.8080  176.9910  138.6410 C   0  0  1  0  0  3  0  0  0  0  0  0
  190.4930  177.9250  140.2660 C   0  0  0  0  0  2  0  0  0  0  0  0
  182.0980  179.0230  143.2080 C   0  0  0  0  0  3  0  0  0  0  0  0
  191.2690  176.7960  138.1740 C   0  0  0  0  0  3  0  0  0  0  0  0
  189.2940  178.0530  141.1580 C   0  0  0  0  0  0  0  0  0  0  0  0
  189.3810  177.9960  142.4990 C   0  0  0  0  0  0  0  0  0  0  0  0
  187.0050  178.6780  142.7050 C   0  0  2  0  0  3  0  0  0  0  0  0
  181.9340  179.0040  141.8200 C   0  0  0  0  0  3  0  0  0  0  0  0
  189.5970  176.0410  136.4690 C   0  0  0  0  0  2  0  0  0  0  0  0
  190.2160  176.8220  139.2450 C   0  0  2  0  0  3  0  0  0  0  0  0
  183.0440  178.8300  140.9880 C   0  0  0  0  0  3  0  0  0  0  0  0
  188.5960  175.8870  137.6170 C   0  0  0  0  0  2  0  0  0  0  0  0
  188.1470  177.8780  143.3400 C   0  0  1  0  0  3  0  0  0  0  0  0
  185.7830  178.5590  143.5020 N   0  0  0  0  0  2  0  0  0  0  0  0
  187.8320  176.9130  139.6550 O   0  0  0  0  0  0  0  0  0  0  0  0
  185.3710  178.3880  139.4410 O   0  0  0  0  0  0  0  0  0  0  0  0
  183.3720  178.8750  143.7650 C   0  0  0  0  0  3  0  0  0  0  0  0
  186.7990  178.2780  141.3010 N   0  0  0  0  0  0  0  0  0  0  0  0
  184.4850  178.7150  142.9320 C   0  0  0  0  0  0  0  0  0  0  0  0
  191.6860  177.9220  143.7010 N   0  0  0  0  0  0  0  0  0  0  0  0
  190.6600  177.9550  143.1650 C   0  0  0  0  0  0  0  0  0  0  0  0
  189.0000  175.5320  143.2180 C   0  0  0  0  0  1  0  0  0  0  0  0
  187.7910  176.4020  143.5060 C   0  0  0  0  0  2  0  0  0  0  0  0
  192.1050  176.3550  135.9240 C   0  0  0  0  0  2  0  0  0  0  0  0
  193.4670  174.3430  136.5600 C   0  0  0  0  0  0  0  0  0  0  0  0
  193.2910  175.7580  136.5120 N   0  0  0  0  0  2  0  0  0  0  0  0
  194.5060  173.8610  137.0830 O   0  0  0  0  0  1  0  0  0  0  0  0
  192.5010  173.4930  136.0370 O   0  0  0  0  0  0  0  0  0  0  0  0
  1  8  2  0  0  0  0
  2 19  1  1  0  0  0
  2  9  1  0  0  0  0
  2 22  1  0  0  0  0
  3 22  1  0  0  0  0
  3  4  1  0  0  0  0
  4 23  1  0  0  0  0
  5 16  1  6  0  0  0
  5 14  1  0  0  0  0
  5 19  1  0  0  0  0
  6  9  1  0  0  0  0
  7 21  1  0  0  0  0
  9 10  2  0  0  0  0
 10 25  1  0  0  0  0
 10 17  1  0  0  0  0
 11 17  1  0  0  0  0
 11 18  1  1  0  0  0
 12  7  2  0  0  0  0
 13  1  1  0  0  0  0
 13 16  1  0  0  0  0
 14  8  1  6  0  0  0
 14  6  1  0  0  0  0
 15  4  2  0  0  0  0
 15 12  1  0  0  0  0
 17 27  1  6  0  0  0
 20  3  2  0  0  0  0
 22 11  1  0  0  0  0
 23 18  1  0  0  0  0
 23 21  2  0  0  0  0
 25 24  3  0  0  0  0
 26 27  1  0  0  0  0
 28 30  1  0  0  0  0
 28  1  1  0  0  0  0
 29 31  1  0  0  0  0
 30 29  1  0  0  0  0
 32 29  2  0  0  0  0
M  END
>  <MODEL>
7

>  <REMARK>
 VINA RESULT:      -5.8      2.907      8.904
  Name = 
  4 active torsions:
  status: ('A' for Active; 'I' for Inactive)
    1  A    between atoms: C_2  and  C_24
    2  A    between atoms: N_10  and  C_24
    3  A    between atoms: C_13  and  C_15
    4  A    between atoms: C_25  and  C_26
                            x       y       z     vdW  Elec       q    Type
                         _______ _______ _______ _____ _____    ______ ____

>  <TORSDO>
F 4

$$$$
=
 OpenBabel10262421403D

 32 36  0  0  1  0  0  0  0  0999 V2000
  187.7380  178.3310  136.9330 C   0  0  0  0  0  0  0  0  0  0  0  0
  187.0200  177.6600  141.7720 C   0  0  1  0  0  3  0  0  0  0  0  0
  188.4430  177.3990  143.8170 C   0  0  0  0  0  0  0  0  0  0  0  0
  188.6090  177.4160  145.2780 C   0  0  0  0  0  0  0  0  0  0  0  0
  187.9130  178.2210  139.7780 C   0  0  1  0  0  3  0  0  0  0  0  0
  185.4350  177.7590  139.7940 C   0  0  0  0  0  2  0  0  0  0  0  0
  188.8930  177.5570  148.0610 C   0  0  0  0  0  3  0  0  0  0  0  0
  186.5960  178.2660  137.6380 C   0  0  0  0  0  3  0  0  0  0  0  0
  185.6030  177.8880  141.2790 C   0  0  0  0  0  0  0  0  0  0  0  0
  184.6120  178.3100  142.0840 C   0  0  0  0  0  0  0  0  0  0  0  0
  185.9580  177.7240  144.0840 C   0  0  2  0  0  3  0  0  0  0  0  0
  189.9830  177.1950  147.2660 C   0  0  0  0  0  3  0  0  0  0  0  0
  189.0860  178.5340  137.5940 C   0  0  0  0  0  2  0  0  0  0  0  0
  186.5590  178.5410  139.1150 C   0  0  2  0  0  3  0  0  0  0  0  0
  189.8440  177.1280  145.8760 C   0  0  0  0  0  3  0  0  0  0  0  0
  188.9940  179.0030  139.0490 C   0  0  0  0  0  2  0  0  0  0  0  0
  184.8890  178.6610  143.5150 C   0  0  1  0  0  3  0  0  0  0  0  0
  186.2570  178.0630  145.4760 N   0  0  0  0  0  2  0  0  0  0  0  0
  187.8830  178.5790  141.1410 O   0  0  0  0  0  0  0  0  0  0  0  0
  189.4260  177.1160  143.0780 O   0  0  0  0  0  0  0  0  0  0  0  0
  187.6590  177.8450  147.4690 C   0  0  0  0  0  3  0  0  0  0  0  0
  187.1650  177.7240  143.2360 N   0  0  0  0  0  0  0  0  0  0  0  0
  187.5150  177.7650  146.0790 C   0  0  0  0  0  0  0  0  0  0  0  0
  182.2060  178.6980  141.1780 N   0  0  0  0  0  0  0  0  0  0  0  0
  183.2770  178.5250  141.5810 C   0  0  0  0  0  0  0  0  0  0  0  0
  184.5560  180.8260  144.7180 C   0  0  0  0  0  1  0  0  0  0  0  0
  185.3060  180.1280  143.6000 C   0  0  0  0  0  2  0  0  0  0  0  0
  187.6930  178.0680  135.4670 C   0  0  0  0  0  2  0  0  0  0  0  0
  188.4060  175.6760  135.1810 C   0  0  0  0  0  0  0  0  0  0  0  0
  188.6910  177.0720  135.1160 N   0  0  0  0  0  2  0  0  0  0  0  0
  189.2980  174.8430  134.8760 O   0  0  0  0  0  0  0  0  0  0  0  0
  187.1520  175.2290  135.5800 O   0  0  0  0  0  1  0  0  0  0  0  0
  1 13  1  0  0  0  0
  1  8  2  0  0  0  0
  2 19  1  6  0  0  0
  2 22  1  0  0  0  0
  3  4  1  0  0  0  0
  4 15  2  0  0  0  0
  4 23  1  0  0  0  0
  5 16  1  6  0  0  0
  5 19  1  0  0  0  0
  6  9  1  0  0  0  0
  9  2  1  0  0  0  0
  9 10  2  0  0  0  0
 10 17  1  0  0  0  0
 11 18  1  1  0  0  0
 12  7  2  0  0  0  0
 13 16  1  0  0  0  0
 14  8  1  6  0  0  0
 14  5  1  0  0  0  0
 14  6  1  0  0  0  0
 15 12  1  0  0  0  0
 17 27  1  6  0  0  0
 17 11  1  0  0  0  0
 18 23  1  0  0  0  0
 20  3  2  0  0  0  0
 21  7  1  0  0  0  0
 22  3  1  0  0  0  0
 22 11  1  0  0  0  0
 23 21  2  0  0  0  0
 24 25  3  0  0  0  0
 25 10  1  0  0  0  0
 27 26  1  0  0  0  0
 28  1  1  0  0  0  0
 29 32  1  0  0  0  0
 30 29  1  0  0  0  0
 30 28  1  0  0  0  0
 31 29  2  0  0  0  0
M  END
>  <MODEL>
8

>  <REMARK>
 VINA RESULT:      -5.7      3.224      8.522
  Name = 
  4 active torsions:
  status: ('A' for Active; 'I' for Inactive)
    1  A    between atoms: C_2  and  C_24
    2  A    between atoms: N_10  and  C_24
    3  A    between atoms: C_13  and  C_15
    4  A    between atoms: C_25  and  C_26
                            x       y       z     vdW  Elec       q    Type
                         _______ _______ _______ _____ _____    ______ ____

>  <TORSDO>
F 4

$$$$
=
 OpenBabel10262421403D

 32 36  0  0  1  0  0  0  0  0999 V2000
  190.6350  177.0600  145.4640 C   0  0  0  0  0  0  0  0  0  0  0  0
  190.8210  177.3940  140.5410 C   0  0  1  0  0  3  0  0  0  0  0  0
  192.3660  176.6580  138.7110 C   0  0  0  0  0  0  0  0  0  0  0  0
  192.6380  176.3810  137.2930 C   0  0  0  0  0  0  0  0  0  0  0  0
  191.1110  176.7160  142.6730 C   0  0  1  0  0  3  0  0  0  0  0  0
  189.2260  178.3400  142.2720 C   0  0  0  0  0  2  0  0  0  0  0  0
  193.0730  175.7740  134.5940 C   0  0  0  0  0  3  0  0  0  0  0  0
  189.7570  177.5950  144.5980 C   0  0  0  0  0  3  0  0  0  0  0  0
  189.4450  177.9620  140.8360 C   0  0  0  0  0  0  0  0  0  0  0  0
  188.4590  177.9920  139.9230 C   0  0  0  0  0  0  0  0  0  0  0  0
  190.0990  177.5800  138.1080 C   0  0  2  0  0  3  0  0  0  0  0  0
  194.1150  175.6420  135.5160 C   0  0  0  0  0  3  0  0  0  0  0  0
  191.7480  176.1350  145.0180 C   0  0  0  0  0  2  0  0  0  0  0  0
  189.7260  177.1950  143.1510 C   0  0  2  0  0  3  0  0  0  0  0  0
  193.8980  175.9410  136.8640 C   0  0  0  0  0  3  0  0  0  0  0  0
  191.5690  175.5970  143.5950 C   0  0  0  0  0  2  0  0  0  0  0  0
  188.6530  177.3760  138.5700 C   0  0  1  0  0  3  0  0  0  0  0  0
  190.3150  176.9670  136.7960 N   0  0  0  0  0  2  0  0  0  0  0  0
  191.0320  176.2540  141.3430 O   0  0  0  0  0  0  0  0  0  0  0  0
  193.2810  176.5050  139.5670 O   0  0  0  0  0  0  0  0  0  0  0  0
  191.8150  176.2120  135.0170 C   0  0  0  0  0  3  0  0  0  0  0  0
  191.0510  177.0860  139.1200 N   0  0  0  0  0  0  0  0  0  0  0  0
  191.6000  176.5250  136.3640 C   0  0  0  0  0  0  0  0  0  0  0  0
  186.1160  178.9660  140.4930 N   0  0  0  0  0  0  0  0  0  0  0  0
  187.1590  178.5320  140.2390 C   0  0  0  0  0  0  0  0  0  0  0  0
  187.5550  175.4830  137.3620 C   0  0  0  0  0  1  0  0  0  0  0  0
  188.2720  175.8980  138.6330 C   0  0  0  0  0  2  0  0  0  0  0  0
  190.5900  177.4900  146.8900 C   0  0  0  0  0  2  0  0  0  0  0  0
  192.1180  175.8950  148.0870 C   0  0  0  0  0  0  0  0  0  0  0  0
  191.8560  177.1840  147.5340 N   0  0  0  0  0  2  0  0  0  0  0  0
  193.2240  175.6680  148.6430 O   0  0  0  0  0  1  0  0  0  0  0  0
  191.1620  174.8890  148.0180 O   0  0  0  0  0  0  0  0  0  0  0  0
  1 28  1  0  0  0  0
  2  9  1  6  0  0  0
  2 19  1  0  0  0  0
  3 22  1  0  0  0  0
  3 20  2  0  0  0  0
  4  3  1  0  0  0  0
  5 14  1  0  0  0  0
  5 16  1  1  0  0  0
  7 21  2  0  0  0  0
  7 12  1  0  0  0  0
  8  1  2  0  0  0  0
  9  6  1  0  0  0  0
 10 25  1  0  0  0  0
 10  9  2  0  0  0  0
 11 18  1  6  0  0  0
 11 17  1  0  0  0  0
 11 22  1  0  0  0  0
 12 15  2  0  0  0  0
 13  1  1  0  0  0  0
 14  6  1  6  0  0  0
 14  8  1  0  0  0  0
 15  4  1  0  0  0  0
 16 13  1  0  0  0  0
 17 27  1  1  0  0  0
 17 10  1  0  0  0  0
 19  5  1  0  0  0  0
 21 23  1  0  0  0  0
 22  2  1  0  0  0  0
 23 18  1  0  0  0  0
 23  4  2  0  0  0  0
 25 24  3  0  0  0  0
 26 27  1  0  0  0  0
 28 30  1  0  0  0  0
 29 31  1  0  0  0  0
 30 29  1  0  0  0  0
 32 29  2  0  0  0  0
M  END
>  <MODEL>
9

>  <REMARK>
 VINA RESULT:      -5.5      2.588      2.992
  Name = 
  4 active torsions:
  status: ('A' for Active; 'I' for Inactive)
    1  A    between atoms: C_2  and  C_24
    2  A    between atoms: N_10  and  C_24
    3  A    between atoms: C_13  and  C_15
    4  A    between atoms: C_25  and  C_26
                            x       y       z     vdW  Elec       q    Type
                         _______ _______ _______ _____ _____    ______ ____

>  <TORSDO>
F 4

$$$$
