=
 OpenBabel10262420513D

 28 31  0  0  1  0  0  0  0  0999 V2000
  190.4880  176.5480  143.7810 C   0  0  1  0  0  3  0  0  0  0  0  0
  185.5520  177.9530  143.1420 C   0  0  0  0  0  3  0  0  0  0  0  0
  188.9600  177.9420  148.3860 C   0  0  0  0  0  1  0  0  0  0  0  0
  184.8520  178.6460  145.3630 C   0  0  0  0  0  0  0  0  0  0  0  0
  187.1300  177.8310  145.0240 C   0  0  0  0  0  0  0  0  0  0  0  0
  183.3010  178.7650  143.5070 C   0  0  0  0  0  0  0  0  0  0  0  0
  185.8550  178.1390  144.5010 C   0  0  0  0  0  0  0  0  0  0  0  0
  186.3820  178.5400  147.2310 C   0  0  0  0  0  3  0  0  0  0  0  0
  183.5840  178.9550  144.8610 C   0  0  0  0  0  3  0  0  0  0  0  0
  189.6710  177.2160  146.0820 C   0  0  0  0  0  0  0  0  0  0  0  0
  188.1450  177.3330  144.1960 C   0  0  0  0  0  3  0  0  0  0  0  0
  185.1220  178.8420  146.7160 C   0  0  0  0  0  3  0  0  0  0  0  0
  191.8960  176.2080  145.8620 C   0  0  0  0  0  3  0  0  0  0  0  0
  188.6700  177.7300  146.9290 C   0  0  0  0  0  0  0  0  0  0  0  0
  191.0130  176.8800  146.6030 C   0  0  0  0  0  3  0  0  0  0  0  0
  181.7110  179.1530  142.8850 Cl  0  0  0  0  0  0  0  0  0  0  0  0
  184.2820  178.2640  142.6480 C   0  0  0  0  0  3  0  0  0  0  0  0
  187.3960  178.0350  146.4020 C   0  0  0  0  0  0  0  0  0  0  0  0
  191.5430  175.6870  144.4950 C   0  0  0  0  0  2  0  0  0  0  0  0
  189.4040  177.0250  144.7130 C   0  0  0  0  0  0  0  0  0  0  0  0
  191.0800  177.6880  142.9440 C   0  0  2  0  0  3  0  0  0  0  0  0
  191.2110  178.8490  143.7120 O   0  0  0  0  0  1  0  0  0  0  0  0
  190.3550  177.9300  141.6080 C   0  0  0  0  0  2  0  0  0  0  0  0
  192.3660  177.4730  140.3020 C   0  0  0  0  0  2  0  0  0  0  0  0
  191.0480  177.3500  140.4120 C   0  0  0  0  0  0  0  0  0  0  0  0
  190.2730  176.6350  139.3830 C   0  0  0  0  0  0  0  0  0  0  0  0
  190.7960  175.4940  138.7860 O   0  0  0  0  0  0  0  0  0  0  0  0
  189.1330  177.0450  139.0350 O   0  0  0  0  0  1  0  0  0  0  0  0
  1 21  1  1  0  0  0
  1 19  1  0  0  0  0
  1 20  1  0  0  0  0
  2  7  1  0  0  0  0
  4 12  1  0  0  0  0
  5 18  1  0  0  0  0
  6  9  2  0  0  0  0
  7  5  1  0  0  0  0
  7  4  2  0  0  0  0
  9  4  1  0  0  0  0
 10 15  1  0  0  0  0
 10 14  1  0  0  0  0
 11 20  1  0  0  0  0
 11  5  2  0  0  0  0
 12  8  2  0  0  0  0
 13 15  2  0  0  0  0
 14  3  1  0  0  0  0
 16  6  1  0  0  0  0
 17  2  2  0  0  0  0
 17  6  1  0  0  0  0
 18 14  2  0  0  0  0
 18  8  1  0  0  0  0
 19 13  1  0  0  0  0
 20 10  2  0  0  0  0
 21 22  1  1  0  0  0
 23 21  1  0  0  0  0
 24 25  2  0  0  0  0
 25 23  1  0  0  0  0
 26 25  1  0  0  0  0
 27 26  2  0  0  0  0
 28 26  1  0  0  0  0
M  END
>  <MODEL>
1

>  <REMARK>
 VINA RESULT:     -11.8      0.000      0.000
  Name = 
  4 active torsions:
  status: ('A' for Active; 'I' for Inactive)
    1  A    between atoms: C_1  and  C_2
    2  A    between atoms: C_2  and  C_3
    3  A    between atoms: C_3  and  C_11
    4  A    between atoms: C_6  and  C_11
                            x       y       z     vdW  Elec       q    Type
                         _______ _______ _______ _____ _____    ______ ____

>  <TORSDO>
F 4

$$$$
=
 OpenBabel10262420513D

 28 31  0  0  1  0  0  0  0  0999 V2000
  190.2550  176.4770  143.3360 C   0  0  1  0  0  3  0  0  0  0  0  0
  185.3110  177.9830  143.1440 C   0  0  0  0  0  3  0  0  0  0  0  0
  189.1540  177.8240  148.0750 C   0  0  0  0  0  1  0  0  0  0  0  0
  184.8170  178.6530  145.4270 C   0  0  0  0  0  0  0  0  0  0  0  0
  187.0420  177.8020  144.8810 C   0  0  0  0  0  0  0  0  0  0  0  0
  183.1150  178.8310  143.7120 C   0  0  0  0  0  0  0  0  0  0  0  0
  185.7320  178.1410  144.4750 C   0  0  0  0  0  0  0  0  0  0  0  0
  186.4990  178.4880  147.1550 C   0  0  0  0  0  3  0  0  0  0  0  0
  183.5180  178.9930  145.0400 C   0  0  0  0  0  3  0  0  0  0  0  0
  189.6510  177.1230  145.7080 C   0  0  0  0  0  0  0  0  0  0  0  0
  187.9720  177.2980  143.9620 C   0  0  0  0  0  3  0  0  0  0  0  0
  185.2060  178.8220  146.7550 C   0  0  0  0  0  3  0  0  0  0  0  0
  191.8280  176.0780  145.2840 C   0  0  0  0  0  3  0  0  0  0  0  0
  188.7360  177.6410  146.6460 C   0  0  0  0  0  0  0  0  0  0  0  0
  191.0250  176.7540  146.1070 C   0  0  0  0  0  3  0  0  0  0  0  0
  181.4870  179.2580  143.2350 Cl  0  0  0  0  0  0  0  0  0  0  0  0
  184.0100  178.3260  142.7660 C   0  0  0  0  0  3  0  0  0  0  0  0
  187.4280  177.9780  146.2350 C   0  0  0  0  0  0  0  0  0  0  0  0
  191.3500  175.5860  143.9450 C   0  0  0  0  0  2  0  0  0  0  0  0
  189.2640  176.9590  144.3650 C   0  0  0  0  0  0  0  0  0  0  0  0
  190.7950  177.6200  142.4690 C   0  0  2  0  0  3  0  0  0  0  0  0
  191.5810  178.4910  143.2300 O   0  0  0  0  0  1  0  0  0  0  0  0
  189.7180  178.3480  141.6440 C   0  0  0  0  0  2  0  0  0  0  0  0
  190.2900  176.8040  139.8410 C   0  0  0  0  0  2  0  0  0  0  0  0
  189.5660  177.8440  140.2400 C   0  0  0  0  0  0  0  0  0  0  0  0
  188.6070  178.4870  139.3250 C   0  0  0  0  0  0  0  0  0  0  0  0
  189.0680  179.2250  138.2410 O   0  0  0  0  0  0  0  0  0  0  0  0
  187.3650  178.3740  139.5100 O   0  0  0  0  0  1  0  0  0  0  0  0
  1 21  1  1  0  0  0
  1 19  1  0  0  0  0
  1 20  1  0  0  0  0
  2  7  1  0  0  0  0
  4 12  1  0  0  0  0
  5 18  1  0  0  0  0
  6  9  2  0  0  0  0
  7  5  1  0  0  0  0
  7  4  2  0  0  0  0
  9  4  1  0  0  0  0
 10 15  1  0  0  0  0
 10 14  1  0  0  0  0
 11 20  1  0  0  0  0
 11  5  2  0  0  0  0
 12  8  2  0  0  0  0
 13 15  2  0  0  0  0
 14  3  1  0  0  0  0
 16  6  1  0  0  0  0
 17  2  2  0  0  0  0
 17  6  1  0  0  0  0
 18 14  2  0  0  0  0
 18  8  1  0  0  0  0
 19 13  1  0  0  0  0
 20 10  2  0  0  0  0
 21 22  1  1  0  0  0
 23 21  1  0  0  0  0
 24 25  2  0  0  0  0
 25 23  1  0  0  0  0
 26 28  1  0  0  0  0
 26 25  1  0  0  0  0
 27 26  2  0  0  0  0
M  END
>  <MODEL>
2

>  <REMARK>
 VINA RESULT:     -11.6      1.078      1.192
  Name = 
  4 active torsions:
  status: ('A' for Active; 'I' for Inactive)
    1  A    between atoms: C_1  and  C_2
    2  A    between atoms: C_2  and  C_3
    3  A    between atoms: C_3  and  C_11
    4  A    between atoms: C_6  and  C_11
                            x       y       z     vdW  Elec       q    Type
                         _______ _______ _______ _____ _____    ______ ____

>  <TORSDO>
F 4

$$$$
=
 OpenBabel10262420513D

 28 31  0  0  1  0  0  0  0  0999 V2000
  189.9710  176.3160  142.8640 C   0  0  1  0  0  3  0  0  0  0  0  0
  185.0690  177.9640  142.9320 C   0  0  0  0  0  3  0  0  0  0  0  0
  189.1990  177.8040  147.6260 C   0  0  0  0  0  1  0  0  0  0  0  0
  184.7340  178.7010  145.2240 C   0  0  0  0  0  0  0  0  0  0  0  0
  186.8970  177.7710  144.5660 C   0  0  0  0  0  0  0  0  0  0  0  0
  182.9370  178.8890  143.6110 C   0  0  0  0  0  0  0  0  0  0  0  0
  185.5750  178.1400  144.2310 C   0  0  0  0  0  0  0  0  0  0  0  0
  186.5130  178.5250  146.8510 C   0  0  0  0  0  3  0  0  0  0  0  0
  183.4240  179.0700  144.9070 C   0  0  0  0  0  3  0  0  0  0  0  0
  189.5310  177.0340  145.2510 C   0  0  0  0  0  0  0  0  0  0  0  0
  187.7550  177.2190  143.6060 C   0  0  0  0  0  3  0  0  0  0  0  0
  185.2080  178.8880  146.5210 C   0  0  0  0  0  3  0  0  0  0  0  0
  191.6490  175.9150  144.7230 C   0  0  0  0  0  3  0  0  0  0  0  0
  188.6900  177.6000  146.2290 C   0  0  0  0  0  0  0  0  0  0  0  0
  190.9160  176.6340  145.5760 C   0  0  0  0  0  3  0  0  0  0  0  0
  181.2950  179.3530  143.2220 Cl  0  0  0  0  0  0  0  0  0  0  0  0
  183.7580  178.3360  142.6250 C   0  0  0  0  0  3  0  0  0  0  0  0
  187.3690  177.9670  145.8900 C   0  0  0  0  0  0  0  0  0  0  0  0
  191.0750  175.4070  143.4280 C   0  0  0  0  0  2  0  0  0  0  0  0
  189.0590  176.8510  143.9380 C   0  0  0  0  0  0  0  0  0  0  0  0
  190.4900  177.4230  141.9370 C   0  0  2  0  0  3  0  0  0  0  0  0
  190.9740  178.5040  142.6800 O   0  0  0  0  0  1  0  0  0  0  0  0
  189.4940  177.8430  140.8410 C   0  0  0  0  0  2  0  0  0  0  0  0
  189.5020  178.4230  138.4690 C   0  0  0  0  0  2  0  0  0  0  0  0
  190.0020  177.6680  139.4410 C   0  0  0  0  0  0  0  0  0  0  0  0
  191.0590  176.6810  139.1570 C   0  0  0  0  0  0  0  0  0  0  0  0
  190.7180  175.3870  138.7830 O   0  0  0  0  0  0  0  0  0  0  0  0
  192.2750  176.9980  139.2450 O   0  0  0  0  0  1  0  0  0  0  0  0
  1 21  1  1  0  0  0
  1 19  1  0  0  0  0
  1 20  1  0  0  0  0
  2  7  1  0  0  0  0
  4 12  1  0  0  0  0
  5 18  1  0  0  0  0
  6  9  2  0  0  0  0
  7  5  1  0  0  0  0
  7  4  2  0  0  0  0
  9  4  1  0  0  0  0
 10 15  1  0  0  0  0
 10 14  1  0  0  0  0
 11 20  1  0  0  0  0
 11  5  2  0  0  0  0
 12  8  2  0  0  0  0
 13 15  2  0  0  0  0
 14  3  1  0  0  0  0
 16  6  1  0  0  0  0
 17  2  2  0  0  0  0
 17  6  1  0  0  0  0
 18 14  2  0  0  0  0
 18  8  1  0  0  0  0
 19 13  1  0  0  0  0
 20 10  2  0  0  0  0
 21 22  1  1  0  0  0
 23 21  1  0  0  0  0
 24 25  2  0  0  0  0
 25 23  1  0  0  0  0
 26 28  1  0  0  0  0
 26 25  1  0  0  0  0
 27 26  2  0  0  0  0
M  END
>  <MODEL>
3

>  <REMARK>
 VINA RESULT:     -11.1      0.908      1.189
  Name = 
  4 active torsions:
  status: ('A' for Active; 'I' for Inactive)
    1  A    between atoms: C_1  and  C_2
    2  A    between atoms: C_2  and  C_3
    3  A    between atoms: C_3  and  C_11
    4  A    between atoms: C_6  and  C_11
                            x       y       z     vdW  Elec       q    Type
                         _______ _______ _______ _____ _____    ______ ____

>  <TORSDO>
F 4

$$$$
=
 OpenBabel10262420513D

 28 31  0  0  1  0  0  0  0  0999 V2000
  189.6320  176.6020  142.5910 C   0  0  1  0  0  3  0  0  0  0  0  0
  184.7210  178.2220  142.7230 C   0  0  0  0  0  3  0  0  0  0  0  0
  188.7370  177.5410  147.4700 C   0  0  0  0  0  1  0  0  0  0  0  0
  184.3270  178.6940  145.0740 C   0  0  0  0  0  0  0  0  0  0  0  0
  186.5090  177.8490  144.3700 C   0  0  0  0  0  0  0  0  0  0  0  0
  182.5690  179.0600  143.4490 C   0  0  0  0  0  0  0  0  0  0  0  0
  185.1950  178.2510  144.0460 C   0  0  0  0  0  0  0  0  0  0  0  0
  186.0660  178.3400  146.7150 C   0  0  0  0  0  3  0  0  0  0  0  0
  183.0230  179.0950  144.7690 C   0  0  0  0  0  3  0  0  0  0  0  0
  189.1300  177.0450  145.0320 C   0  0  0  0  0  0  0  0  0  0  0  0
  187.3930  177.4110  143.3750 C   0  0  0  0  0  3  0  0  0  0  0  0
  184.7680  178.7350  146.3960 C   0  0  0  0  0  3  0  0  0  0  0  0
  191.2650  175.9970  144.4340 C   0  0  0  0  0  3  0  0  0  0  0  0
  188.2630  177.4950  146.0470 C   0  0  0  0  0  0  0  0  0  0  0  0
  190.5090  176.6130  145.3440 C   0  0  0  0  0  3  0  0  0  0  0  0
  180.9350  179.5620  143.0740 Cl  0  0  0  0  0  0  0  0  0  0  0  0
  183.4160  178.6240  142.4270 C   0  0  0  0  0  3  0  0  0  0  0  0
  186.9490  177.8950  145.7180 C   0  0  0  0  0  0  0  0  0  0  0  0
  190.7260  175.6370  143.0750 C   0  0  0  0  0  2  0  0  0  0  0  0
  188.6900  177.0110  143.6950 C   0  0  0  0  0  0  0  0  0  0  0  0
  190.1670  177.8070  141.8080 C   0  0  2  0  0  3  0  0  0  0  0  0
  190.4070  178.8860  142.6640 O   0  0  0  0  0  1  0  0  0  0  0  0
  189.3190  178.1880  140.5810 C   0  0  0  0  0  2  0  0  0  0  0  0
  190.9530  176.9370  139.2680 C   0  0  0  0  0  2  0  0  0  0  0  0
  189.8570  177.6880  139.2750 C   0  0  0  0  0  0  0  0  0  0  0  0
  189.1620  178.0120  138.0170 C   0  0  0  0  0  0  0  0  0  0  0  0
  188.6910  179.3000  137.7950 O   0  0  0  0  0  1  0  0  0  0  0  0
  188.9890  177.1310  137.1320 O   0  0  0  0  0  0  0  0  0  0  0  0
  1 21  1  1  0  0  0
  1 19  1  0  0  0  0
  1 20  1  0  0  0  0
  2  7  1  0  0  0  0
  4 12  1  0  0  0  0
  5 18  1  0  0  0  0
  6  9  2  0  0  0  0
  7  5  1  0  0  0  0
  7  4  2  0  0  0  0
  9  4  1  0  0  0  0
 10 15  1  0  0  0  0
 10 14  1  0  0  0  0
 11 20  1  0  0  0  0
 11  5  2  0  0  0  0
 12  8  2  0  0  0  0
 13 15  2  0  0  0  0
 14  3  1  0  0  0  0
 16  6  1  0  0  0  0
 17  2  2  0  0  0  0
 17  6  1  0  0  0  0
 18 14  2  0  0  0  0
 18  8  1  0  0  0  0
 19 13  1  0  0  0  0
 20 10  2  0  0  0  0
 21 22  1  1  0  0  0
 23 21  1  0  0  0  0
 24 25  2  0  0  0  0
 25 23  1  0  0  0  0
 26 25  1  0  0  0  0
 27 26  1  0  0  0  0
 28 26  2  0  0  0  0
M  END
>  <MODEL>
4

>  <REMARK>
 VINA RESULT:     -10.7      1.146      1.501
  Name = 
  4 active torsions:
  status: ('A' for Active; 'I' for Inactive)
    1  A    between atoms: C_1  and  C_2
    2  A    between atoms: C_2  and  C_3
    3  A    between atoms: C_3  and  C_11
    4  A    between atoms: C_6  and  C_11
                            x       y       z     vdW  Elec       q    Type
                         _______ _______ _______ _____ _____    ______ ____

>  <TORSDO>
F 4

$$$$
=
 OpenBabel10262420513D

 28 31  0  0  1  0  0  0  0  0999 V2000
  189.4820  177.9620  138.9830 C   0  0  1  0  0  3  0  0  0  0  0  0
  189.1020  177.6530  144.1320 C   0  0  0  0  0  3  0  0  0  0  0  0
  184.5720  178.6410  139.9360 C   0  0  0  0  0  1  0  0  0  0  0  0
  186.7290  177.9530  144.5600 C   0  0  0  0  0  0  0  0  0  0  0  0
  187.5530  178.0290  142.2600 C   0  0  0  0  0  0  0  0  0  0  0  0
  188.2590  177.5810  146.4010 C   0  0  0  0  0  0  0  0  0  0  0  0
  187.8050  177.8770  143.6420 C   0  0  0  0  0  0  0  0  0  0  0  0
  185.1820  178.3220  142.7400 C   0  0  0  0  0  3  0  0  0  0  0  0
  186.9630  177.8050  145.9300 C   0  0  0  0  0  3  0  0  0  0  0  0
  187.0350  178.3400  139.5060 C   0  0  0  0  0  0  0  0  0  0  0  0
  188.5940  177.9540  141.3260 C   0  0  0  0  0  3  0  0  0  0  0  0
  185.4310  178.1730  144.1030 C   0  0  0  0  0  3  0  0  0  0  0  0
  187.8140  178.6450  137.2010 C   0  0  0  0  0  3  0  0  0  0  0  0
  185.9700  178.4050  140.4260 C   0  0  0  0  0  0  0  0  0  0  0  0
  186.8000  178.5010  138.0550 C   0  0  0  0  0  3  0  0  0  0  0  0
  188.5450  177.3980  148.1170 Cl  0  0  0  0  0  0  0  0  0  0  0  0
  189.3270  177.5060  145.5040 C   0  0  0  0  0  3  0  0  0  0  0  0
  186.2270  178.2530  141.8060 C   0  0  0  0  0  0  0  0  0  0  0  0
  189.2390  178.7350  137.6770 C   0  0  0  0  0  2  0  0  0  0  0  0
  188.3460  178.1080  139.9630 C   0  0  0  0  0  0  0  0  0  0  0  0
  189.8840  176.4970  138.7730 C   0  0  2  0  0  3  0  0  0  0  0  0
  190.5570  176.0030  139.8950 O   0  0  0  0  0  1  0  0  0  0  0  0
  190.6370  176.2340  137.4560 C   0  0  0  0  0  2  0  0  0  0  0  0
  192.1160  174.2960  137.5920 C   0  0  0  0  0  2  0  0  0  0  0  0
  191.9930  175.6190  137.6290 C   0  0  0  0  0  0  0  0  0  0  0  0
  193.1750  176.4770  137.8160 C   0  0  0  0  0  0  0  0  0  0  0  0
  193.4690  176.9920  139.0740 O   0  0  0  0  0  1  0  0  0  0  0  0
  193.9310  176.7530  136.8460 O   0  0  0  0  0  0  0  0  0  0  0  0
  1 21  1  6  0  0  0
  1 20  1  0  0  0  0
  2 17  1  0  0  0  0
  3 14  1  0  0  0  0
  4  9  2  0  0  0  0
  5  7  1  0  0  0  0
  6 16  1  0  0  0  0
  7  2  2  0  0  0  0
  7  4  1  0  0  0  0
  8 12  2  0  0  0  0
  9  6  1  0  0  0  0
 10 20  2  0  0  0  0
 10 14  1  0  0  0  0
 11  5  2  0  0  0  0
 12  4  1  0  0  0  0
 13 19  1  0  0  0  0
 13 15  2  0  0  0  0
 14 18  2  0  0  0  0
 15 10  1  0  0  0  0
 17  6  2  0  0  0  0
 18  5  1  0  0  0  0
 18  8  1  0  0  0  0
 19  1  1  0  0  0  0
 20 11  1  0  0  0  0
 21 22  1  1  0  0  0
 23 25  1  0  0  0  0
 23 21  1  0  0  0  0
 24 25  2  0  0  0  0
 25 26  1  0  0  0  0
 26 27  1  0  0  0  0
 28 26  2  0  0  0  0
M  END
>  <MODEL>
5

>  <REMARK>
 VINA RESULT:      -9.0      2.848      5.630
  Name = 
  4 active torsions:
  status: ('A' for Active; 'I' for Inactive)
    1  A    between atoms: C_1  and  C_2
    2  A    between atoms: C_2  and  C_3
    3  A    between atoms: C_3  and  C_11
    4  A    between atoms: C_6  and  C_11
                            x       y       z     vdW  Elec       q    Type
                         _______ _______ _______ _____ _____    ______ ____

>  <TORSDO>
F 4

$$$$
=
 OpenBabel10262420513D

 28 31  0  0  1  0  0  0  0  0999 V2000
  189.1900  178.3580  143.8670 C   0  0  1  0  0  3  0  0  0  0  0  0
  185.1580  178.9260  140.6780 C   0  0  0  0  0  3  0  0  0  0  0  0
  190.9470  176.9720  139.3420 C   0  0  0  0  0  1  0  0  0  0  0  0
  186.0220  178.2250  138.5170 C   0  0  0  0  0  0  0  0  0  0  0  0
  187.4990  178.2050  140.4630 C   0  0  0  0  0  0  0  0  0  0  0  0
  183.7160  178.9340  138.7330 C   0  0  0  0  0  0  0  0  0  0  0  0
  186.2290  178.4540  139.8990 C   0  0  0  0  0  0  0  0  0  0  0  0
  188.3180  177.5100  138.2760 C   0  0  0  0  0  3  0  0  0  0  0  0
  184.7690  178.4660  137.9450 C   0  0  0  0  0  3  0  0  0  0  0  0
  190.0440  177.7110  141.5740 C   0  0  0  0  0  0  0  0  0  0  0  0
  187.7340  178.4170  141.8280 C   0  0  0  0  0  3  0  0  0  0  0  0
  187.0640  177.7560  137.7190 C   0  0  0  0  0  3  0  0  0  0  0  0
  191.6390  177.8720  143.4290 C   0  0  0  0  0  3  0  0  0  0  0  0
  189.8260  177.4780  140.2020 C   0  0  0  0  0  0  0  0  0  0  0  0
  191.3660  177.4650  142.1890 C   0  0  0  0  0  3  0  0  0  0  0  0
  182.1510  179.2350  138.0090 Cl  0  0  0  0  0  0  0  0  0  0  0  0
  183.9090  179.1640  140.0970 C   0  0  0  0  0  3  0  0  0  0  0  0
  188.5540  177.7280  139.6430 C   0  0  0  0  0  0  0  0  0  0  0  0
  190.6490  178.6720  144.2320 C   0  0  0  0  0  2  0  0  0  0  0  0
  188.9910  178.1760  142.3840 C   0  0  0  0  0  0  0  0  0  0  0  0
  188.5780  177.2110  144.6810 C   0  0  2  0  0  3  0  0  0  0  0  0
  188.7260  175.9940  144.0090 O   0  0  0  0  0  1  0  0  0  0  0  0
  187.1340  177.4700  145.1470 C   0  0  0  0  0  2  0  0  0  0  0  0
  187.9970  177.7880  147.4080 C   0  0  0  0  0  2  0  0  0  0  0  0
  187.0190  178.0150  146.5380 C   0  0  0  0  0  0  0  0  0  0  0  0
  185.8410  178.8110  146.9250 C   0  0  0  0  0  0  0  0  0  0  0  0
  184.5700  178.4030  146.5380 O   0  0  0  0  0  0  0  0  0  0  0  0
  185.9700  179.8620  147.6090 O   0  0  0  0  0  1  0  0  0  0  0  0
  1 19  1  0  0  0  0
  1 21  1  1  0  0  0
  3 14  1  0  0  0  0
  4  7  1  0  0  0  0
  5 11  1  0  0  0  0
  6 17  2  0  0  0  0
  7  5  1  0  0  0  0
  7  2  2  0  0  0  0
  8 18  1  0  0  0  0
  9  4  2  0  0  0  0
  9  6  1  0  0  0  0
 10 15  1  0  0  0  0
 10 20  1  0  0  0  0
 11 20  2  0  0  0  0
 12  8  2  0  0  0  0
 12  4  1  0  0  0  0
 13 19  1  0  0  0  0
 14 10  2  0  0  0  0
 15 13  2  0  0  0  0
 16  6  1  0  0  0  0
 17  2  1  0  0  0  0
 18 14  1  0  0  0  0
 18  5  2  0  0  0  0
 20  1  1  0  0  0  0
 21 22  1  6  0  0  0
 21 23  1  0  0  0  0
 23 25  1  0  0  0  0
 25 26  1  0  0  0  0
 25 24  2  0  0  0  0
 26 28  1  0  0  0  0
 27 26  2  0  0  0  0
M  END
>  <MODEL>
6

>  <REMARK>
 VINA RESULT:      -8.9      3.107      6.217
  Name = 
  4 active torsions:
  status: ('A' for Active; 'I' for Inactive)
    1  A    between atoms: C_1  and  C_2
    2  A    between atoms: C_2  and  C_3
    3  A    between atoms: C_3  and  C_11
    4  A    between atoms: C_6  and  C_11
                            x       y       z     vdW  Elec       q    Type
                         _______ _______ _______ _____ _____    ______ ____

>  <TORSDO>
F 4

$$$$
