=
 OpenBabel10262423203D

 34 39  0  0  1  0  0  0  0  0999 V2000
  190.6950  177.4330  139.8830 C   0  0  0  0  0  0  0  0  0  0  0  0
  188.2640  176.9060  139.6630 C   0  0  0  0  0  2  0  0  0  0  0  0
  189.8650  177.6390  142.6380 C   0  0  2  0  0  0  0  0  0  0  0  0
  191.3390  177.8070  142.2550 C   0  0  0  0  0  2  0  0  0  0  0  0
  191.6140  177.3420  140.8530 C   0  0  0  0  0  3  0  0  0  0  0  0
  189.0050  178.3590  141.5910 C   0  0  0  0  0  2  0  0  0  0  0  0
  189.2890  177.9280  140.1430 C   0  0  1  0  0  3  0  0  0  0  0  0
  189.6500  178.3200  143.9740 C   0  0  0  0  0  1  0  0  0  0  0  0
  188.6040  176.2650  138.3040 C   0  0  0  0  0  2  0  0  0  0  0  0
  191.0340  176.9040  138.5180 C   0  0  0  0  0  2  0  0  0  0  0  0
  189.8330  176.8410  137.5480 C   0  0  1  0  0  0  0  0  0  0  0  0
  189.1550  175.9770  135.1940 C   0  0  0  0  0  2  0  0  0  0  0  0
  191.7930  174.1570  137.2880 C   0  0  0  0  0  2  0  0  0  0  0  0
  194.1220  175.0390  137.0080 C   0  0  0  0  0  2  0  0  0  0  0  0
  189.2630  173.7180  137.1900 C   0  0  0  0  0  2  0  0  0  0  0  0
  186.8230  175.2450  134.6760 C   0  0  0  0  0  3  0  0  0  0  0  0
  185.8050  173.3070  135.7060 C   0  0  0  0  0  3  0  0  0  0  0  0
  193.8550  176.2220  135.0230 N   0  0  0  0  0  2  0  0  0  0  0  0
  185.7350  174.3810  134.8170 C   0  0  0  0  0  3  0  0  0  0  0  0
  188.0640  173.9430  136.3120 C   0  0  0  0  0  0  0  0  0  0  0  0
  187.9860  175.0460  135.4250 C   0  0  0  0  0  0  0  0  0  0  0  0
  186.9640  173.0920  136.4550 C   0  0  0  0  0  3  0  0  0  0  0  0
  192.9230  174.4710  136.3050 C   0  0  2  0  0  3  0  0  0  0  0  0
  194.5860  176.1830  136.2290 N   0  0  0  0  0  2  0  0  0  0  0  0
  191.5320  176.5370  135.6870 C   0  0  0  0  0  2  0  0  0  0  0  0
  192.6040  175.5200  135.2520 C   0  0  1  0  0  3  0  0  0  0  0  0
  190.4650  174.4450  136.6150 C   0  0  1  0  0  3  0  0  0  0  0  0
  190.2340  175.9460  136.2950 C   0  0  1  0  0  0  0  0  0  0  0  0
  189.4800  176.1860  142.7760 C   0  0  0  0  0  0  0  0  0  0  0  0
  188.2710  175.8620  142.9310 O   0  0  0  0  0  1  0  0  0  0  0  0
  190.4560  175.1970  142.8120 O   0  0  0  0  0  0  0  0  0  0  0  0
  189.5340  178.3030  137.1240 C   0  0  0  0  0  2  0  0  0  0  0  0
  187.6870  178.6110  135.6580 F   0  0  0  0  0  0  0  0  0  0  0  0
  188.0560  178.6460  136.9900 C   0  0  0  0  0  2  0  0  0  0  0  0
  1  7  1  0  0  0  0
  1  5  2  0  0  0  0
  3 29  1  0  0  0  0
  3  8  1  1  0  0  0
  4  3  1  0  0  0  0
  5  4  1  0  0  0  0
  6  3  1  0  0  0  0
  7  2  1  1  0  0  0
  7  6  1  0  0  0  0
  9  2  1  0  0  0  0
 10  1  1  0  0  0  0
 11 32  1  6  0  0  0
 11  9  1  0  0  0  0
 11 10  1  0  0  0  0
 12 21  1  0  0  0  0
 16 19  2  0  0  0  0
 16 21  1  0  0  0  0
 17 22  2  0  0  0  0
 18 26  1  0  0  0  0
 18 24  1  0  0  0  0
 19 17  1  0  0  0  0
 20 22  1  0  0  0  0
 20 15  1  0  0  0  0
 21 20  2  0  0  0  0
 23 14  1  1  0  0  0
 23 13  1  0  0  0  0
 24 14  1  0  0  0  0
 25 28  1  0  0  0  0
 26 25  1  1  0  0  0
 26 23  1  0  0  0  0
 27 15  1  1  0  0  0
 27 13  1  0  0  0  0
 28 12  1  6  0  0  0
 28 27  1  0  0  0  0
 28 11  1  0  0  0  0
 29 31  2  0  0  0  0
 29 30  1  0  0  0  0
 33 34  1  0  0  0  0
 34 32  1  0  0  0  0
M  END
>  <MODEL>
1

>  <REMARK>
 VINA RESULT:      -6.5      0.000      0.000
  Name = 
  4 active torsions:
  status: ('A' for Active; 'I' for Inactive)
    1  A    between atoms: C_7  and  C_11
    2  A    between atoms: C_9  and  C_18
    3  A    between atoms: C_9  and  C_33
    4  A    between atoms: C_33  and  C_34
                            x       y       z     vdW  Elec       q    Type
                         _______ _______ _______ _____ _____    ______ ____

>  <TORSDO>
F 4

$$$$
=
 OpenBabel10262423203D

 34 39  0  0  1  0  0  0  0  0999 V2000
  182.7810  175.3580  138.3590 C   0  0  0  0  0  0  0  0  0  0  0  0
  180.5170  176.0120  137.5310 C   0  0  0  0  0  2  0  0  0  0  0  0
  182.2820  173.2340  136.4720 C   0  0  2  0  0  0  0  0  0  0  0  0
  183.6230  173.3210  137.2090 C   0  0  0  0  0  2  0  0  0  0  0  0
  183.8130  174.6530  137.8780 C   0  0  0  0  0  3  0  0  0  0  0  0
  181.1590  173.5700  137.4620 C   0  0  0  0  0  2  0  0  0  0  0  0
  181.3460  174.9120  138.1880 C   0  0  1  0  0  3  0  0  0  0  0  0
  182.0940  171.8030  136.0130 C   0  0  0  0  0  1  0  0  0  0  0  0
  180.8150  177.4270  138.0630 C   0  0  0  0  0  2  0  0  0  0  0  0
  183.0530  176.7020  138.9730 C   0  0  0  0  0  2  0  0  0  0  0  0
  181.7820  177.5270  139.2750 C   0  0  1  0  0  0  0  0  0  0  0  0
  183.7100  179.1530  139.8950 C   0  0  0  0  0  2  0  0  0  0  0  0
  180.0480  180.1230  140.4460 C   0  0  0  0  0  2  0  0  0  0  0  0
  178.9440  181.1620  138.4490 C   0  0  0  0  0  2  0  0  0  0  0  0
  181.6610  179.0060  142.1040 C   0  0  0  0  0  2  0  0  0  0  0  0
  185.4270  178.5720  141.6160 C   0  0  0  0  0  3  0  0  0  0  0  0
  184.8830  178.2850  143.9560 C   0  0  0  0  0  3  0  0  0  0  0  0
  180.8310  181.7490  137.2220 N   0  0  0  0  0  2  0  0  0  0  0  0
  185.8260  178.3040  142.9270 C   0  0  0  0  0  3  0  0  0  0  0  0
  183.1280  178.8160  142.3710 C   0  0  0  0  0  0  0  0  0  0  0  0
  184.0810  178.8150  141.3220 C   0  0  0  0  0  0  0  0  0  0  0  0
  183.5370  178.5350  143.6780 C   0  0  0  0  0  3  0  0  0  0  0  0
  180.0950  181.2490  139.4090 C   0  0  2  0  0  3  0  0  0  0  0  0
  179.4770  181.3680  137.1060 N   0  0  0  0  0  2  0  0  0  0  0  0
  181.9420  179.8620  138.2910 C   0  0  0  0  0  2  0  0  0  0  0  0
  181.3120  181.2520  138.4990 C   0  0  1  0  0  3  0  0  0  0  0  0
  181.4660  179.6930  140.7650 C   0  0  1  0  0  3  0  0  0  0  0  0
  182.2070  179.0310  139.5730 C   0  0  1  0  0  0  0  0  0  0  0  0
  182.2460  174.1310  135.2580 C   0  0  0  0  0  0  0  0  0  0  0  0
  181.1550  174.3550  134.6680 O   0  0  0  0  0  0  0  0  0  0  0  0
  183.4210  174.6570  134.7330 O   0  0  0  0  0  1  0  0  0  0  0  0
  181.1180  176.8740  140.5160 C   0  0  0  0  0  2  0  0  0  0  0  0
  179.2400  175.4380  140.7700 F   0  0  0  0  0  0  0  0  0  0  0  0
  179.6040  176.7290  140.4360 C   0  0  0  0  0  2  0  0  0  0  0  0
  1 10  1  0  0  0  0
  2  9  1  0  0  0  0
  2  7  1  0  0  0  0
  3  8  1  6  0  0  0
  3  4  1  0  0  0  0
  3  6  1  0  0  0  0
  4  5  1  0  0  0  0
  5  1  2  0  0  0  0
  7  6  1  6  0  0  0
  7  1  1  0  0  0  0
  9 11  1  0  0  0  0
 10 11  1  0  0  0  0
 11 28  1  0  0  0  0
 11 32  1  1  0  0  0
 12 21  1  0  0  0  0
 15 20  1  0  0  0  0
 16 19  1  0  0  0  0
 18 26  1  0  0  0  0
 19 17  2  0  0  0  0
 20 22  2  0  0  0  0
 21 16  2  0  0  0  0
 21 20  1  0  0  0  0
 22 17  1  0  0  0  0
 23 14  1  6  0  0  0
 23 13  1  0  0  0  0
 24 18  1  0  0  0  0
 24 14  1  0  0  0  0
 26 25  1  6  0  0  0
 26 23  1  0  0  0  0
 27 13  1  6  0  0  0
 27 15  1  0  0  0  0
 28 25  1  6  0  0  0
 28 12  1  0  0  0  0
 28 27  1  0  0  0  0
 29  3  1  0  0  0  0
 30 29  2  0  0  0  0
 31 29  1  0  0  0  0
 34 32  1  0  0  0  0
 34 33  1  0  0  0  0
M  END
>  <MODEL>
2

>  <REMARK>
 VINA RESULT:      -6.1      7.336     10.670
  Name = 
  4 active torsions:
  status: ('A' for Active; 'I' for Inactive)
    1  A    between atoms: C_7  and  C_11
    2  A    between atoms: C_9  and  C_18
    3  A    between atoms: C_9  and  C_33
    4  A    between atoms: C_33  and  C_34
                            x       y       z     vdW  Elec       q    Type
                         _______ _______ _______ _____ _____    ______ ____

>  <TORSDO>
F 4

$$$$
=
 OpenBabel10262423203D

 34 39  0  0  1  0  0  0  0  0999 V2000
  182.1360  176.1780  136.6980 C   0  0  0  0  0  0  0  0  0  0  0  0
  182.4790  175.0100  138.8790 C   0  0  0  0  0  2  0  0  0  0  0  0
  180.8720  173.6460  136.1390 C   0  0  2  0  0  0  0  0  0  0  0  0
  180.8540  174.7710  135.0980 C   0  0  0  0  0  2  0  0  0  0  0  0
  181.2590  176.0910  135.6900 C   0  0  0  0  0  3  0  0  0  0  0  0
  182.2610  173.6070  136.7900 C   0  0  0  0  0  2  0  0  0  0  0  0
  182.7170  174.9550  137.3730 C   0  0  1  0  0  3  0  0  0  0  0  0
  180.6560  172.3340  135.4110 C   0  0  0  0  0  1  0  0  0  0  0  0
  182.7070  176.4020  139.5010 C   0  0  0  0  0  2  0  0  0  0  0  0
  182.4540  177.5330  137.2610 C   0  0  0  0  0  2  0  0  0  0  0  0
  183.2840  177.4980  138.5640 C   0  0  1  0  0  0  0  0  0  0  0  0
  184.6450  179.4320  139.6390 C   0  0  0  0  0  2  0  0  0  0  0  0
  180.8850  179.0690  140.2640 C   0  0  0  0  0  2  0  0  0  0  0  0
  179.4410  180.1760  138.5400 C   0  0  0  0  0  2  0  0  0  0  0  0
  182.8250  178.1290  141.6610 C   0  0  0  0  0  2  0  0  0  0  0  0
  186.5220  179.0010  141.2320 C   0  0  0  0  0  3  0  0  0  0  0  0
  186.1810  177.9970  143.4080 C   0  0  0  0  0  3  0  0  0  0  0  0
  181.0090  181.5940  137.5700 N   0  0  0  0  0  2  0  0  0  0  0  0
  187.0330  178.5560  142.4540 C   0  0  0  0  0  3  0  0  0  0  0  0
  184.2880  178.3370  141.9320 C   0  0  0  0  0  0  0  0  0  0  0  0
  185.1560  178.8850  140.9540 C   0  0  0  0  0  0  0  0  0  0  0  0
  184.8140  177.8830  143.1450 C   0  0  0  0  0  3  0  0  0  0  0  0
  180.5460  180.3730  139.5370 C   0  0  2  0  0  3  0  0  0  0  0  0
  179.8330  180.8580  137.3100 N   0  0  0  0  0  2  0  0  0  0  0  0
  182.6840  179.9360  138.1880 C   0  0  0  0  0  2  0  0  0  0  0  0
  181.6670  180.9710  138.7050 C   0  0  1  0  0  3  0  0  0  0  0  0
  182.3780  179.0290  140.5250 C   0  0  1  0  0  3  0  0  0  0  0  0
  183.2410  178.9390  139.2370 C   0  0  1  0  0  0  0  0  0  0  0  0
  179.7770  173.8080  137.1640 C   0  0  0  0  0  0  0  0  0  0  0  0
  178.9330  174.7370  137.0500 O   0  0  0  0  0  0  0  0  0  0  0  0
  179.7310  172.9860  138.2850 O   0  0  0  0  0  1  0  0  0  0  0  0
  184.7300  177.1130  138.1520 C   0  0  0  0  0  2  0  0  0  0  0  0
  186.4000  178.1550  136.8190 F   0  0  0  0  0  0  0  0  0  0  0  0
  185.1480  177.5730  136.7610 C   0  0  0  0  0  2  0  0  0  0  0  0
  1 10  1  0  0  0  0
  1  7  1  0  0  0  0
  2  9  1  0  0  0  0
  3  8  1  6  0  0  0
  3  6  1  0  0  0  0
  3 29  1  0  0  0  0
  4  5  1  0  0  0  0
  4  3  1  0  0  0  0
  5  1  2  0  0  0  0
  7  6  1  6  0  0  0
  7  2  1  0  0  0  0
 10 11  1  0  0  0  0
 11 32  1  6  0  0  0
 11 28  1  0  0  0  0
 11  9  1  0  0  0  0
 12 21  1  0  0  0  0
 15 20  1  0  0  0  0
 16 19  1  0  0  0  0
 18 26  1  0  0  0  0
 19 17  2  0  0  0  0
 20 22  2  0  0  0  0
 21 16  2  0  0  0  0
 21 20  1  0  0  0  0
 22 17  1  0  0  0  0
 23 14  1  6  0  0  0
 23 13  1  0  0  0  0
 24 18  1  0  0  0  0
 24 14  1  0  0  0  0
 26 25  1  6  0  0  0
 26 23  1  0  0  0  0
 27 13  1  6  0  0  0
 27 15  1  0  0  0  0
 28 25  1  6  0  0  0
 28 12  1  0  0  0  0
 28 27  1  0  0  0  0
 29 31  1  0  0  0  0
 30 29  2  0  0  0  0
 34 33  1  0  0  0  0
 34 32  1  0  0  0  0
M  END
>  <MODEL>
3

>  <REMARK>
 VINA RESULT:      -5.7      6.556     10.144
  Name = 
  4 active torsions:
  status: ('A' for Active; 'I' for Inactive)
    1  A    between atoms: C_7  and  C_11
    2  A    between atoms: C_9  and  C_18
    3  A    between atoms: C_9  and  C_33
    4  A    between atoms: C_33  and  C_34
                            x       y       z     vdW  Elec       q    Type
                         _______ _______ _______ _____ _____    ______ ____

>  <TORSDO>
F 4

$$$$
=
 OpenBabel10262423203D

 34 39  0  0  1  0  0  0  0  0999 V2000
  190.0020  176.8510  140.2790 C   0  0  0  0  0  0  0  0  0  0  0  0
  187.7650  177.8750  139.8450 C   0  0  0  0  0  2  0  0  0  0  0  0
  189.3510  177.8210  142.9160 C   0  0  2  0  0  0  0  0  0  0  0  0
  190.6370  177.0230  142.6770 C   0  0  0  0  0  2  0  0  0  0  0  0
  190.6310  176.3340  141.3410 C   0  0  0  0  0  3  0  0  0  0  0  0
  189.1550  178.7920  141.7440 C   0  0  0  0  0  2  0  0  0  0  0  0
  189.1800  178.1180  140.3630 C   0  0  1  0  0  3  0  0  0  0  0  0
  189.5380  178.6370  144.1790 C   0  0  0  0  0  1  0  0  0  0  0  0
  187.7020  177.0120  138.5700 C   0  0  0  0  0  2  0  0  0  0  0  0
  190.0070  176.0760  138.9920 C   0  0  0  0  0  2  0  0  0  0  0  0
  189.0590  176.6420  137.9100 C   0  0  1  0  0  0  0  0  0  0  0  0
  189.8540  174.3680  136.9400 C   0  0  0  0  0  2  0  0  0  0  0  0
  187.9750  176.8990  134.7680 C   0  0  0  0  0  2  0  0  0  0  0  0
  185.4790  176.7130  134.8900 C   0  0  0  0  0  2  0  0  0  0  0  0
  190.5140  176.6370  135.0660 C   0  0  0  0  0  2  0  0  0  0  0  0
  192.2720  173.7450  136.8420 C   0  0  0  0  0  3  0  0  0  0  0  0
  193.8670  174.9220  135.4530 C   0  0  0  0  0  3  0  0  0  0  0  0
  185.2910  174.5770  135.7940 N   0  0  0  0  0  2  0  0  0  0  0  0
  193.5730  173.9010  136.3580 C   0  0  0  0  0  3  0  0  0  0  0  0
  191.5500  175.6370  135.4940 C   0  0  0  0  0  0  0  0  0  0  0  0
  191.2560  174.6130  136.4290 C   0  0  0  0  0  0  0  0  0  0  0  0
  192.8590  175.7910  135.0270 C   0  0  0  0  0  3  0  0  0  0  0  0
  186.7590  175.9860  134.5950 C   0  0  2  0  0  3  0  0  0  0  0  0
  184.6600  175.8380  135.7240 N   0  0  0  0  0  2  0  0  0  0  0  0
  187.4440  174.9900  136.8580 C   0  0  0  0  0  2  0  0  0  0  0  0
  186.7030  174.7850  135.5230 C   0  0  1  0  0  3  0  0  0  0  0  0
  189.1250  176.0810  135.3230 C   0  0  1  0  0  3  0  0  0  0  0  0
  188.8850  175.5540  136.7630 C   0  0  1  0  0  0  0  0  0  0  0  0
  188.1550  176.9200  143.1050 C   0  0  0  0  0  0  0  0  0  0  0  0
  188.3090  175.6740  143.2080 O   0  0  0  0  0  1  0  0  0  0  0  0
  186.8670  177.4450  143.0890 O   0  0  0  0  0  0  0  0  0  0  0  0
  189.7330  177.9300  137.3670 C   0  0  0  0  0  2  0  0  0  0  0  0
  189.1960  180.2330  137.6120 F   0  0  0  0  0  0  0  0  0  0  0  0
  188.7730  179.0600  137.0160 C   0  0  0  0  0  2  0  0  0  0  0  0
  1  7  1  0  0  0  0
  1  5  2  0  0  0  0
  3 29  1  0  0  0  0
  3  8  1  1  0  0  0
  4  3  1  0  0  0  0
  5  4  1  0  0  0  0
  6  3  1  0  0  0  0
  7  2  1  1  0  0  0
  7  6  1  0  0  0  0
  9  2  1  0  0  0  0
 10  1  1  0  0  0  0
 11 32  1  6  0  0  0
 11  9  1  0  0  0  0
 11 10  1  0  0  0  0
 14 24  1  0  0  0  0
 15 27  1  0  0  0  0
 15 20  1  0  0  0  0
 17 19  1  0  0  0  0
 19 16  2  0  0  0  0
 20 21  2  0  0  0  0
 21 16  1  0  0  0  0
 21 12  1  0  0  0  0
 22 17  2  0  0  0  0
 22 20  1  0  0  0  0
 23 13  1  1  0  0  0
 23 14  1  0  0  0  0
 23 26  1  0  0  0  0
 24 18  1  0  0  0  0
 26 18  1  0  0  0  0
 26 25  1  1  0  0  0
 27 13  1  1  0  0  0
 27 28  1  0  0  0  0
 28 25  1  1  0  0  0
 28 12  1  0  0  0  0
 28 11  1  0  0  0  0
 29 30  1  0  0  0  0
 31 29  2  0  0  0  0
 34 32  1  0  0  0  0
 34 33  1  0  0  0  0
M  END
>  <MODEL>
4

>  <REMARK>
 VINA RESULT:      -5.6      2.501      4.521
  Name = 
  4 active torsions:
  status: ('A' for Active; 'I' for Inactive)
    1  A    between atoms: C_7  and  C_11
    2  A    between atoms: C_9  and  C_18
    3  A    between atoms: C_9  and  C_33
    4  A    between atoms: C_33  and  C_34
                            x       y       z     vdW  Elec       q    Type
                         _______ _______ _______ _____ _____    ______ ____

>  <TORSDO>
F 4

$$$$
=
 OpenBabel10262423203D

 34 39  0  0  1  0  0  0  0  0999 V2000
  188.7600  177.2280  139.2320 C   0  0  0  0  0  0  0  0  0  0  0  0
  186.5030  178.1250  139.8140 C   0  0  0  0  0  2  0  0  0  0  0  0
  189.1660  177.9030  142.0070 C   0  0  2  0  0  0  0  0  0  0  0  0
  190.2790  177.2250  141.2010 C   0  0  0  0  0  2  0  0  0  0  0  0
  189.7710  176.6610  139.9040 C   0  0  0  0  0  3  0  0  0  0  0  0
  188.4970  178.9610  141.1190 C   0  0  0  0  0  2  0  0  0  0  0  0
  187.9990  178.4200  139.7690 C   0  0  1  0  0  3  0  0  0  0  0  0
  189.8080  178.6130  143.1820 C   0  0  0  0  0  1  0  0  0  0  0  0
  185.9720  177.3790  138.5740 C   0  0  0  0  0  2  0  0  0  0  0  0
  188.2840  176.5760  137.9660 C   0  0  0  0  0  2  0  0  0  0  0  0
  186.9720  177.1690  137.4040 C   0  0  1  0  0  0  0  0  0  0  0  0
  185.4190  176.8910  135.3410 C   0  0  0  0  0  2  0  0  0  0  0  0
  186.5120  173.8670  137.4200 C   0  0  0  0  0  2  0  0  0  0  0  0
  188.7030  172.8710  136.7190 C   0  0  0  0  0  2  0  0  0  0  0  0
  184.3970  175.3010  137.6910 C   0  0  0  0  0  2  0  0  0  0  0  0
  183.1600  177.9540  135.2340 C   0  0  0  0  0  3  0  0  0  0  0  0
  181.3500  177.3230  136.7120 C   0  0  0  0  0  3  0  0  0  0  0  0
  188.8910  173.7990  134.5940 N   0  0  0  0  0  2  0  0  0  0  0  0
  181.8350  178.0950  135.6550 C   0  0  0  0  0  3  0  0  0  0  0  0
  183.5110  176.2460  136.9300 C   0  0  0  0  0  0  0  0  0  0  0  0
  184.0110  177.0450  135.8700 C   0  0  0  0  0  0  0  0  0  0  0  0
  182.1870  176.4050  137.3510 C   0  0  0  0  0  3  0  0  0  0  0  0
  187.3210  173.2570  136.2730 C   0  0  2  0  0  3  0  0  0  0  0  0
  189.6380  173.3290  135.6960 N   0  0  0  0  0  2  0  0  0  0  0  0
  187.5880  175.6720  135.4490 C   0  0  0  0  0  2  0  0  0  0  0  0
  187.5780  174.1740  135.0890 C   0  0  1  0  0  3  0  0  0  0  0  0
  185.6200  174.9590  136.8600 C   0  0  1  0  0  3  0  0  0  0  0  0
  186.3950  176.1810  136.2990 C   0  0  1  0  0  0  0  0  0  0  0  0
  188.1670  176.9060  142.5410 C   0  0  0  0  0  0  0  0  0  0  0  0
  186.9920  177.2710  142.8150 O   0  0  0  0  0  1  0  0  0  0  0  0
  188.5490  175.5970  142.8100 O   0  0  0  0  0  0  0  0  0  0  0  0
  187.3400  178.5460  136.7910 C   0  0  0  0  0  2  0  0  0  0  0  0
  189.3930  179.7060  137.0970 F   0  0  0  0  0  0  0  0  0  0  0  0
  188.7960  178.6940  136.3690 C   0  0  0  0  0  2  0  0  0  0  0  0
  1  7  1  0  0  0  0
  1  5  2  0  0  0  0
  3 29  1  0  0  0  0
  3  8  1  1  0  0  0
  4  3  1  0  0  0  0
  5  4  1  0  0  0  0
  6  3  1  0  0  0  0
  7  2  1  1  0  0  0
  7  6  1  0  0  0  0
  9  2  1  0  0  0  0
 10  1  1  0  0  0  0
 11 32  1  6  0  0  0
 11 10  1  0  0  0  0
 11  9  1  0  0  0  0
 12 21  1  0  0  0  0
 16 19  2  0  0  0  0
 16 21  1  0  0  0  0
 17 22  2  0  0  0  0
 18 26  1  0  0  0  0
 18 24  1  0  0  0  0
 19 17  1  0  0  0  0
 20 22  1  0  0  0  0
 20 15  1  0  0  0  0
 21 20  2  0  0  0  0
 23 14  1  1  0  0  0
 23 13  1  0  0  0  0
 24 14  1  0  0  0  0
 25 28  1  0  0  0  0
 26 25  1  1  0  0  0
 26 23  1  0  0  0  0
 27 13  1  1  0  0  0
 27 15  1  0  0  0  0
 28 12  1  6  0  0  0
 28 27  1  0  0  0  0
 28 11  1  0  0  0  0
 29 31  2  0  0  0  0
 29 30  1  0  0  0  0
 34 32  1  0  0  0  0
 34 33  1  0  0  0  0
M  END
>  <MODEL>
5

>  <REMARK>
 VINA RESULT:      -5.2      2.709      3.902
  Name = 
  4 active torsions:
  status: ('A' for Active; 'I' for Inactive)
    1  A    between atoms: C_7  and  C_11
    2  A    between atoms: C_9  and  C_18
    3  A    between atoms: C_9  and  C_33
    4  A    between atoms: C_33  and  C_34
                            x       y       z     vdW  Elec       q    Type
                         _______ _______ _______ _____ _____    ______ ____

>  <TORSDO>
F 4

$$$$
=
 OpenBabel10262423203D

 34 39  0  0  1  0  0  0  0  0999 V2000
  183.5010  176.5910  136.7720 C   0  0  0  0  0  0  0  0  0  0  0  0
  182.5350  175.1960  138.6050 C   0  0  0  0  0  2  0  0  0  0  0  0
  184.0110  173.9460  135.7400 C   0  0  2  0  0  0  0  0  0  0  0  0
  184.3650  175.1850  134.9120 C   0  0  0  0  0  2  0  0  0  0  0  0
  183.7300  176.4300  135.4620 C   0  0  0  0  0  3  0  0  0  0  0  0
  184.3910  174.2130  137.2030 C   0  0  0  0  0  2  0  0  0  0  0  0
  183.7830  175.5000  137.7820 C   0  0  1  0  0  3  0  0  0  0  0  0
  184.8560  172.7920  135.2380 C   0  0  0  0  0  1  0  0  0  0  0  0
  181.7460  176.4480  139.0370 C   0  0  0  0  0  2  0  0  0  0  0  0
  182.8210  177.8470  137.2350 C   0  0  0  0  0  2  0  0  0  0  0  0
  182.3930  177.8240  138.7200 C   0  0  1  0  0  0  0  0  0  0  0  0
  181.6620  179.7310  140.3250 C   0  0  0  0  0  2  0  0  0  0  0  0
  179.2860  178.3780  137.6450 C   0  0  0  0  0  2  0  0  0  0  0  0
  179.5250  179.4750  135.4050 C   0  0  0  0  0  2  0  0  0  0  0  0
  179.5150  177.6250  140.0920 C   0  0  0  0  0  2  0  0  0  0  0  0
  181.5440  179.4020  142.8000 C   0  0  0  0  0  3  0  0  0  0  0  0
  179.9680  177.8890  143.8410 C   0  0  0  0  0  3  0  0  0  0  0  0
  180.6750  181.3970  136.0330 N   0  0  0  0  0  2  0  0  0  0  0  0
  180.9960  178.8280  143.9490 C   0  0  0  0  0  3  0  0  0  0  0  0
  180.0150  178.1010  141.4260 C   0  0  0  0  0  0  0  0  0  0  0  0
  181.0730  179.0390  141.5340 C   0  0  0  0  0  0  0  0  0  0  0  0
  179.4840  177.5230  142.5830 C   0  0  0  0  0  3  0  0  0  0  0  0
  179.2660  179.6960  136.8680 C   0  0  2  0  0  3  0  0  0  0  0  0
  180.4850  180.4860  134.9720 N   0  0  0  0  0  2  0  0  0  0  0  0
  181.6010  180.0780  137.8590 C   0  0  0  0  0  2  0  0  0  0  0  0
  180.3280  180.7070  137.2630 C   0  0  1  0  0  3  0  0  0  0  0  0
  179.8870  178.6280  139.0150 C   0  0  1  0  0  3  0  0  0  0  0  0
  181.3860  179.0280  138.9810 C   0  0  1  0  0  0  0  0  0  0  0  0
  182.5570  173.5680  135.5990 C   0  0  0  0  0  0  0  0  0  0  0  0
  181.8400  174.1230  134.7230 O   0  0  0  0  0  0  0  0  0  0  0  0
  181.9730  172.6640  136.4790 O   0  0  0  0  0  1  0  0  0  0  0  0
  183.6920  177.9850  139.5530 C   0  0  0  0  0  2  0  0  0  0  0  0
  185.8650  178.1540  138.6020 F   0  0  0  0  0  0  0  0  0  0  0  0
  184.7460  178.8940  138.9330 C   0  0  0  0  0  2  0  0  0  0  0  0
  1 10  1  0  0  0  0
  1  7  1  0  0  0  0
  2  9  1  0  0  0  0
  3  8  1  6  0  0  0
  3  6  1  0  0  0  0
  4  5  1  0  0  0  0
  4  3  1  0  0  0  0
  5  1  2  0  0  0  0
  7  6  1  6  0  0  0
  7  2  1  0  0  0  0
 10 11  1  0  0  0  0
 11 28  1  0  0  0  0
 11  9  1  0  0  0  0
 11 32  1  1  0  0  0
 12 21  1  0  0  0  0
 15 20  1  0  0  0  0
 16 19  1  0  0  0  0
 17 19  2  0  0  0  0
 18 26  1  0  0  0  0
 20 21  1  0  0  0  0
 20 22  2  0  0  0  0
 21 16  2  0  0  0  0
 22 17  1  0  0  0  0
 23 14  1  6  0  0  0
 23 26  1  0  0  0  0
 23 13  1  0  0  0  0
 24 14  1  0  0  0  0
 24 18  1  0  0  0  0
 26 25  1  6  0  0  0
 27 13  1  6  0  0  0
 27 15  1  0  0  0  0
 28 25  1  6  0  0  0
 28 27  1  0  0  0  0
 28 12  1  0  0  0  0
 29  3  1  0  0  0  0
 29 31  1  0  0  0  0
 30 29  2  0  0  0  0
 33 34  1  0  0  0  0
 34 32  1  0  0  0  0
M  END
>  <MODEL>
6

>  <REMARK>
 VINA RESULT:      -5.1      7.328     10.392
  Name = 
  4 active torsions:
  status: ('A' for Active; 'I' for Inactive)
    1  A    between atoms: C_7  and  C_11
    2  A    between atoms: C_9  and  C_18
    3  A    between atoms: C_9  and  C_33
    4  A    between atoms: C_33  and  C_34
                            x       y       z     vdW  Elec       q    Type
                         _______ _______ _______ _____ _____    ______ ____

>  <TORSDO>
F 4

$$$$
=
 OpenBabel10262423203D

 34 39  0  0  1  0  0  0  0  0999 V2000
  183.0600  176.9500  138.5730 C   0  0  0  0  0  0  0  0  0  0  0  0
  181.9790  177.7140  136.4550 C   0  0  0  0  0  2  0  0  0  0  0  0
  180.9430  178.5990  139.6320 C   0  0  2  0  0  0  0  0  0  0  0  0
  181.8680  177.8200  140.5740 C   0  0  0  0  0  2  0  0  0  0  0  0
  182.6700  176.7810  139.8430 C   0  0  0  0  0  3  0  0  0  0  0  0
  181.7900  179.1880  138.4960 C   0  0  0  0  0  2  0  0  0  0  0  0
  182.6490  178.1530  137.7530 C   0  0  1  0  0  3  0  0  0  0  0  0
  180.3400  179.7470  140.4150 C   0  0  0  0  0  1  0  0  0  0  0  0
  182.6690  176.5230  135.7620 C   0  0  0  0  0  2  0  0  0  0  0  0
  183.8210  175.8430  137.9010 C   0  0  0  0  0  2  0  0  0  0  0  0
  184.0100  176.0390  136.3790 C   0  0  1  0  0  0  0  0  0  0  0  0
  183.4680  174.0960  134.7430 C   0  0  0  0  0  2  0  0  0  0  0  0
  186.0580  173.6740  137.5310 C   0  0  0  0  0  2  0  0  0  0  0  0
  188.3720  174.4150  136.9120 C   0  0  0  0  0  2  0  0  0  0  0  0
  183.5500  173.1220  137.5960 C   0  0  0  0  0  2  0  0  0  0  0  0
  181.1850  173.0910  134.5940 C   0  0  0  0  0  3  0  0  0  0  0  0
  180.1780  171.8650  136.4210 C   0  0  0  0  0  3  0  0  0  0  0  0
  188.1620  174.4510  134.5950 N   0  0  0  0  0  2  0  0  0  0  0  0
  180.1180  172.3570  135.1160 C   0  0  0  0  0  3  0  0  0  0  0  0
  182.3870  172.8260  136.6920 C   0  0  0  0  0  0  0  0  0  0  0  0
  182.3180  173.3430  135.3740 C   0  0  0  0  0  0  0  0  0  0  0  0
  181.3070  172.1040  137.2080 C   0  0  0  0  0  3  0  0  0  0  0  0
  187.2230  173.5170  136.5500 C   0  0  2  0  0  3  0  0  0  0  0  0
  188.8370  175.0480  135.6820 N   0  0  0  0  0  2  0  0  0  0  0  0
  185.8020  174.9390  134.9560 C   0  0  0  0  0  2  0  0  0  0  0  0
  186.9230  173.8940  135.1090 C   0  0  1  0  0  3  0  0  0  0  0  0
  184.7560  173.5280  136.7690 C   0  0  1  0  0  3  0  0  0  0  0  0
  184.4950  174.6630  135.7430 C   0  0  1  0  0  0  0  0  0  0  0  0
  179.8200  177.7390  139.1050 C   0  0  0  0  0  0  0  0  0  0  0  0
  179.0910  178.1540  138.1640 O   0  0  0  0  0  0  0  0  0  0  0  0
  179.5260  176.5180  139.7010 O   0  0  0  0  0  1  0  0  0  0  0  0
  185.0830  177.1470  136.2100 C   0  0  0  0  0  2  0  0  0  0  0  0
  186.8910  178.3600  137.1640 F   0  0  0  0  0  0  0  0  0  0  0  0
  186.0820  177.2560  137.3540 C   0  0  0  0  0  2  0  0  0  0  0  0
  1  5  2  0  0  0  0
  3  8  1  1  0  0  0
  3  4  1  0  0  0  0
  5  4  1  0  0  0  0
  6  3  1  0  0  0  0
  7  2  1  6  0  0  0
  7  6  1  0  0  0  0
  7  1  1  0  0  0  0
  9 11  1  0  0  0  0
  9  2  1  0  0  0  0
 10  1  1  0  0  0  0
 11 32  1  6  0  0  0
 11 10  1  0  0  0  0
 12 21  1  0  0  0  0
 16 19  2  0  0  0  0
 16 21  1  0  0  0  0
 17 22  2  0  0  0  0
 18 26  1  0  0  0  0
 18 24  1  0  0  0  0
 19 17  1  0  0  0  0
 20 22  1  0  0  0  0
 20 15  1  0  0  0  0
 21 20  2  0  0  0  0
 23 14  1  1  0  0  0
 23 13  1  0  0  0  0
 24 14  1  0  0  0  0
 25 28  1  0  0  0  0
 26 25  1  1  0  0  0
 26 23  1  0  0  0  0
 27 13  1  1  0  0  0
 27 15  1  0  0  0  0
 28 12  1  6  0  0  0
 28 11  1  0  0  0  0
 28 27  1  0  0  0  0
 29  3  1  0  0  0  0
 29 31  1  0  0  0  0
 30 29  2  0  0  0  0
 32 34  1  0  0  0  0
 33 34  1  0  0  0  0
M  END
>  <MODEL>
7

>  <REMARK>
 VINA RESULT:      -4.7      5.075      7.050
  Name = 
  4 active torsions:
  status: ('A' for Active; 'I' for Inactive)
    1  A    between atoms: C_7  and  C_11
    2  A    between atoms: C_9  and  C_18
    3  A    between atoms: C_9  and  C_33
    4  A    between atoms: C_33  and  C_34
                            x       y       z     vdW  Elec       q    Type
                         _______ _______ _______ _____ _____    ______ ____

>  <TORSDO>
F 4

$$$$
=
 OpenBabel10262423203D

 34 39  0  0  1  0  0  0  0  0999 V2000
  191.5820  174.4140  136.7200 C   0  0  0  0  0  0  0  0  0  0  0  0
  191.0650  175.6200  134.5950 C   0  0  0  0  0  2  0  0  0  0  0  0
  194.2470  174.8490  135.7040 C   0  0  2  0  0  0  0  0  0  0  0  0
  194.0330  174.1890  137.0710 C   0  0  0  0  0  2  0  0  0  0  0  0
  192.6220  174.3530  137.5610 C   0  0  0  0  0  3  0  0  0  0  0  0
  193.2060  174.2880  134.7260 C   0  0  0  0  0  2  0  0  0  0  0  0
  191.7550  174.4110  135.2170 C   0  0  1  0  0  3  0  0  0  0  0  0
  195.6230  174.4550  135.2070 C   0  0  0  0  0  1  0  0  0  0  0  0
  189.6830  175.9360  135.2000 C   0  0  0  0  0  2  0  0  0  0  0  0
  190.2080  174.6240  137.2890 C   0  0  0  0  0  2  0  0  0  0  0  0
  189.1220  174.9160  136.2280 C   0  0  1  0  0  0  0  0  0  0  0  0
  187.0010  174.3340  137.6100 C   0  0  0  0  0  2  0  0  0  0  0  0
  187.2790  177.6450  135.7080 C   0  0  0  0  0  2  0  0  0  0  0  0
  188.4030  179.4820  136.9920 C   0  0  0  0  0  2  0  0  0  0  0  0
  186.2640  175.4290  134.8980 C   0  0  0  0  0  2  0  0  0  0  0  0
  185.5710  172.3590  137.0660 C   0  0  0  0  0  3  0  0  0  0  0  0
  184.3070  172.1900  135.0090 C   0  0  0  0  0  3  0  0  0  0  0  0
  188.2360  178.6120  139.1430 N   0  0  0  0  0  2  0  0  0  0  0  0
  184.6850  171.6590  136.2430 C   0  0  0  0  0  3  0  0  0  0  0  0
  185.6880  174.1410  135.4140 C   0  0  0  0  0  0  0  0  0  0  0  0
  186.0890  173.5920  136.6590 C   0  0  0  0  0  0  0  0  0  0  0  0
  184.8110  173.4250  134.5940 C   0  0  0  0  0  3  0  0  0  0  0  0
  187.2800  178.4850  136.9880 C   0  0  2  0  0  3  0  0  0  0  0  0
  189.0250  179.4350  138.3110 N   0  0  0  0  0  2  0  0  0  0  0  0
  188.2880  176.4080  138.1050 C   0  0  0  0  0  2  0  0  0  0  0  0
  187.4900  177.7140  138.2790 C   0  0  1  0  0  3  0  0  0  0  0  0
  186.8340  176.2370  136.0490 C   0  0  1  0  0  3  0  0  0  0  0  0
  187.8240  175.4670  136.9640 C   0  0  1  0  0  0  0  0  0  0  0  0
  194.1840  176.3540  135.7870 C   0  0  0  0  0  0  0  0  0  0  0  0
  194.2740  177.0520  134.7410 O   0  0  0  0  0  0  0  0  0  0  0  0
  194.1050  176.9910  137.0210 O   0  0  0  0  0  1  0  0  0  0  0  0
  188.8350  173.5700  135.5120 C   0  0  0  0  0  2  0  0  0  0  0  0
  188.6500  171.2190  135.8110 F   0  0  0  0  0  0  0  0  0  0  0  0
  189.3480  172.3330  136.2370 C   0  0  0  0  0  2  0  0  0  0  0  0
  1 10  1  0  0  0  0
  1  5  2  0  0  0  0
  2  9  1  0  0  0  0
  3  8  1  6  0  0  0
  3 29  1  0  0  0  0
  3  4  1  0  0  0  0
  4  5  1  0  0  0  0
  6  7  1  0  0  0  0
  6  3  1  0  0  0  0
  7  2  1  1  0  0  0
  7  1  1  0  0  0  0
  9 11  1  0  0  0  0
 11 32  1  6  0  0  0
 11 28  1  0  0  0  0
 11 10  1  0  0  0  0
 13 27  1  0  0  0  0
 14 24  1  0  0  0  0
 15 20  1  0  0  0  0
 17 19  1  0  0  0  0
 19 16  2  0  0  0  0
 20 21  2  0  0  0  0
 21 16  1  0  0  0  0
 21 12  1  0  0  0  0
 22 17  2  0  0  0  0
 22 20  1  0  0  0  0
 23 13  1  6  0  0  0
 23 14  1  0  0  0  0
 23 26  1  0  0  0  0
 24 18  1  0  0  0  0
 26 25  1  6  0  0  0
 26 18  1  0  0  0  0
 27 15  1  6  0  0  0
 27 28  1  0  0  0  0
 28 12  1  1  0  0  0
 28 25  1  0  0  0  0
 29 31  1  0  0  0  0
 30 29  2  0  0  0  0
 32 34  1  0  0  0  0
 33 34  1  0  0  0  0
M  END
>  <MODEL>
8

>  <REMARK>
 VINA RESULT:      -4.7      3.692      5.992
  Name = 
  4 active torsions:
  status: ('A' for Active; 'I' for Inactive)
    1  A    between atoms: C_7  and  C_11
    2  A    between atoms: C_9  and  C_18
    3  A    between atoms: C_9  and  C_33
    4  A    between atoms: C_33  and  C_34
                            x       y       z     vdW  Elec       q    Type
                         _______ _______ _______ _____ _____    ______ ____

>  <TORSDO>
F 4

$$$$
=
 OpenBabel10262423203D

 34 39  0  0  1  0  0  0  0  0999 V2000
  184.8920  177.9600  138.6330 C   0  0  0  0  0  0  0  0  0  0  0  0
  183.9430  177.2070  136.4480 C   0  0  0  0  0  2  0  0  0  0  0  0
  187.3110  177.2540  137.2280 C   0  0  2  0  0  0  0  0  0  0  0  0
  187.3770  177.8620  138.6330 C   0  0  0  0  0  2  0  0  0  0  0  0
  186.0620  178.4590  139.0500 C   0  0  0  0  0  3  0  0  0  0  0  0
  186.1570  176.2430  137.1890 C   0  0  0  0  0  2  0  0  0  0  0  0
  184.8060  176.8170  137.6450 C   0  0  1  0  0  3  0  0  0  0  0  0
  188.6040  176.5030  136.9840 C   0  0  0  0  0  1  0  0  0  0  0  0
  182.6680  177.9870  136.8210 C   0  0  0  0  0  2  0  0  0  0  0  0
  183.6250  178.6430  139.0600 C   0  0  0  0  0  2  0  0  0  0  0  0
  182.3570  178.1350  138.3360 C   0  0  1  0  0  0  0  0  0  0  0  0
  181.3510  179.9200  139.9320 C   0  0  0  0  0  2  0  0  0  0  0  0
  179.1820  178.1510  137.3190 C   0  0  0  0  0  2  0  0  0  0  0  0
  179.1950  179.2370  135.0600 C   0  0  0  0  0  2  0  0  0  0  0  0
  179.5780  177.4860  139.7690 C   0  0  0  0  0  2  0  0  0  0  0  0
  181.3340  179.6160  142.4120 C   0  0  0  0  0  3  0  0  0  0  0  0
  180.0500  177.8800  143.5040 C   0  0  0  0  0  3  0  0  0  0  0  0
  180.0230  181.3330  135.6400 N   0  0  0  0  0  2  0  0  0  0  0  0
  180.9100  178.9770  143.5790 C   0  0  0  0  0  3  0  0  0  0  0  0
  180.0170  178.0590  141.0870 C   0  0  0  0  0  0  0  0  0  0  0  0
  180.9070  179.1600  141.1610 C   0  0  0  0  0  0  0  0  0  0  0  0
  179.6090  177.4190  142.2620 C   0  0  0  0  0  3  0  0  0  0  0  0
  178.9310  179.4350  136.5250 C   0  0  2  0  0  3  0  0  0  0  0  0
  179.9670  180.3860  134.5950 N   0  0  0  0  0  2  0  0  0  0  0  0
  181.1880  180.2130  137.4630 C   0  0  0  0  0  2  0  0  0  0  0  0
  179.8180  180.6150  136.8860 C   0  0  1  0  0  3  0  0  0  0  0  0
  179.7590  178.5190  138.6720 C   0  0  1  0  0  3  0  0  0  0  0  0
  181.1710  179.1610  138.6020 C   0  0  1  0  0  0  0  0  0  0  0  0
  187.1660  178.3120  136.1610 C   0  0  0  0  0  0  0  0  0  0  0  0
  186.9140  177.9810  134.9710 O   0  0  0  0  0  0  0  0  0  0  0  0
  187.3840  179.6520  136.4600 O   0  0  0  0  0  1  0  0  0  0  0  0
  182.0400  176.7390  138.9330 C   0  0  0  0  0  2  0  0  0  0  0  0
  180.9240  174.6780  138.5310 F   0  0  0  0  0  0  0  0  0  0  0  0
  181.6580  175.6740  137.9130 C   0  0  0  0  0  2  0  0  0  0  0  0
  1  5  2  0  0  0  0
  1 10  1  0  0  0  0
  2  9  1  0  0  0  0
  3  8  1  6  0  0  0
  3  4  1  0  0  0  0
  4  5  1  0  0  0  0
  6  3  1  0  0  0  0
  6  7  1  0  0  0  0
  7  2  1  6  0  0  0
  7  1  1  0  0  0  0
  9 11  1  0  0  0  0
 11 28  1  0  0  0  0
 11 32  1  1  0  0  0
 11 10  1  0  0  0  0
 12 21  1  0  0  0  0
 15 20  1  0  0  0  0
 16 19  1  0  0  0  0
 17 19  2  0  0  0  0
 18 26  1  0  0  0  0
 20 21  1  0  0  0  0
 20 22  2  0  0  0  0
 21 16  2  0  0  0  0
 22 17  1  0  0  0  0
 23 14  1  6  0  0  0
 23 26  1  0  0  0  0
 23 13  1  0  0  0  0
 24 14  1  0  0  0  0
 24 18  1  0  0  0  0
 26 25  1  6  0  0  0
 27 13  1  6  0  0  0
 27 15  1  0  0  0  0
 28 25  1  6  0  0  0
 28 27  1  0  0  0  0
 28 12  1  0  0  0  0
 29 31  1  0  0  0  0
 29  3  1  0  0  0  0
 30 29  2  0  0  0  0
 34 33  1  0  0  0  0
 34 32  1  0  0  0  0
M  END
>  <MODEL>
9

>  <REMARK>
 VINA RESULT:      -4.6      7.353      9.881
  Name = 
  4 active torsions:
  status: ('A' for Active; 'I' for Inactive)
    1  A    between atoms: C_7  and  C_11
    2  A    between atoms: C_9  and  C_18
    3  A    between atoms: C_9  and  C_33
    4  A    between atoms: C_33  and  C_34
                            x       y       z     vdW  Elec       q    Type
                         _______ _______ _______ _____ _____    ______ ____

>  <TORSDO>
F 4

$$$$
