=
 OpenBabel10262423103D

 34 39  0  0  0  0  0  0  0  0999 V2000
  186.5270  178.1330  144.0490 C   0  0  0  0  0  0  0  0  0  0  0  0
  187.9470  177.5720  147.5090 C   0  0  0  0  0  3  0  0  0  0  0  0
  185.8130  178.2600  146.7930 C   0  0  0  0  0  3  0  0  0  0  0  0
  185.4910  178.5500  141.7270 C   0  0  0  0  0  0  0  0  0  0  0  0
  186.7320  178.1270  142.5390 C   0  0  0  0  0  2  0  0  0  0  0  0
  184.2320  178.8610  143.7650 C   0  0  0  0  0  0  0  0  0  0  0  0
  183.2030  179.1580  144.5920 N   0  0  0  0  0  0  0  0  0  0  0  0
  184.3180  178.9000  142.3050 C   0  0  0  0  0  3  0  0  0  0  0  0
  184.9160  178.5720  145.7820 C   0  0  0  0  0  0  0  0  0  0  0  0
  185.2900  178.5000  144.5010 C   0  0  0  0  0  0  0  0  0  0  0  0
  183.6300  178.9780  145.8490 N   0  0  0  0  0  0  0  0  0  0  0  0
  189.2680  177.1610  147.5700 C   0  0  0  0  0  3  0  0  0  0  0  0
  190.1780  176.9150  146.5520 C   0  0  0  0  0  0  0  0  0  0  0  0
  189.9140  177.0460  145.1940 C   0  0  0  0  0  3  0  0  0  0  0  0
  187.1280  177.8640  146.4250 C   0  0  0  0  0  0  0  0  0  0  0  0
  188.7530  177.4280  144.5410 C   0  0  0  0  0  3  0  0  0  0  0  0
  187.5010  177.7970  145.0300 C   0  0  0  0  0  0  0  0  0  0  0  0
  191.5320  176.4820  146.9480 C   0  0  0  0  0  0  0  0  0  0  0  0
  192.1280  176.9960  148.0950 O   0  0  0  0  0  1  0  0  0  0  0  0
  192.1670  175.6420  146.2540 O   0  0  0  0  0  0  0  0  0  0  0  0
  185.6020  178.6100  140.2410 C   0  0  0  0  0  2  0  0  0  0  0  0
  188.5270  177.6230  138.0410 C   0  0  0  0  0  3  0  0  0  0  0  0
  188.0200  178.1920  140.7410 C   0  0  0  0  0  3  0  0  0  0  0  0
  191.8990  177.1380  139.5020 C   0  0  0  0  0  0  0  0  0  0  0  0
  190.8560  177.2070  138.5670 C   0  0  0  0  0  3  0  0  0  0  0  0
  189.5660  177.5570  138.9730 C   0  0  0  0  0  0  0  0  0  0  0  0
  190.3480  177.7740  141.2660 C   0  0  0  0  0  3  0  0  0  0  0  0
  189.3100  177.8440  140.3330 C   0  0  0  0  0  0  0  0  0  0  0  0
  191.6360  177.4240  140.8510 C   0  0  0  0  0  3  0  0  0  0  0  0
  186.9850  178.2620  139.8020 C   0  0  0  0  0  0  0  0  0  0  0  0
  187.2390  177.9730  138.4550 C   0  0  0  0  0  3  0  0  0  0  0  0
  193.2550  176.7690  139.0670 C   0  0  0  0  0  0  0  0  0  0  0  0
  193.4800  176.4680  137.8650 O   0  0  0  0  0  0  0  0  0  0  0  0
  194.3020  176.7490  139.9810 O   0  0  0  0  0  1  0  0  0  0  0  0
  1 10  1  0  0  0  0
  1 17  2  0  0  0  0
  2 12  1  0  0  0  0
  4  8  2  0  0  0  0
  4  5  1  0  0  0  0
  5  1  1  0  0  0  0
  6 10  2  0  0  0  0
  6  7  1  0  0  0  0
  7 11  2  0  0  0  0
  8  6  1  0  0  0  0
  9 11  1  0  0  0  0
  9  3  2  0  0  0  0
 10  9  1  0  0  0  0
 13 18  1  0  0  0  0
 13 12  2  0  0  0  0
 14 13  1  0  0  0  0
 15  3  1  0  0  0  0
 15  2  2  0  0  0  0
 16 17  1  0  0  0  0
 16 14  2  0  0  0  0
 17 15  1  0  0  0  0
 18 19  1  0  0  0  0
 20 18  2  0  0  0  0
 21  4  1  0  0  0  0
 22 31  2  0  0  0  0
 22 26  1  0  0  0  0
 24 29  1  0  0  0  0
 25 26  1  0  0  0  0
 25 24  2  0  0  0  0
 26 28  2  0  0  0  0
 28 23  1  0  0  0  0
 28 27  1  0  0  0  0
 29 27  2  0  0  0  0
 30 21  1  0  0  0  0
 30 23  2  0  0  0  0
 31 30  1  0  0  0  0
 32 24  1  0  0  0  0
 32 34  1  0  0  0  0
 33 32  2  0  0  0  0
M  END
>  <MODEL>
1

>  <REMARK>
 VINA RESULT:     -12.5      0.000      0.000
  Name = 
  4 active torsions:
  status: ('A' for Active; 'I' for Inactive)
    1  A    between atoms: C_3  and  C_25
    2  A    between atoms: C_7  and  C_11
    3  A    between atoms: C_8  and  C_18
    4  A    between atoms: C_18  and  C_30
                            x       y       z     vdW  Elec       q    Type
                         _______ _______ _______ _____ _____    ______ ____

>  <TORSDO>
F 4

$$$$
=
 OpenBabel10262423103D

 34 39  0  0  0  0  0  0  0  0999 V2000
  184.4630  178.6640  141.6630 C   0  0  0  0  0  0  0  0  0  0  0  0
  185.6870  178.3120  138.1020 C   0  0  0  0  0  3  0  0  0  0  0  0
  183.5200  178.5410  138.9900 C   0  0  0  0  0  3  0  0  0  0  0  0
  183.5510  178.8930  144.0610 C   0  0  0  0  0  0  0  0  0  0  0  0
  184.7850  178.7420  143.1510 C   0  0  0  0  0  2  0  0  0  0  0  0
  182.0950  178.8720  142.1340 C   0  0  0  0  0  0  0  0  0  0  0  0
  180.9610  178.8990  141.3960 N   0  0  0  0  0  0  0  0  0  0  0  0
  182.2860  178.9490  143.5830 C   0  0  0  0  0  3  0  0  0  0  0  0
  182.6610  178.6860  140.0690 C   0  0  0  0  0  0  0  0  0  0  0  0
  183.1440  178.7410  141.3140 C   0  0  0  0  0  0  0  0  0  0  0  0
  181.3140  178.7820  140.1090 N   0  0  0  0  0  0  0  0  0  0  0  0
  187.0580  178.1950  137.9330 C   0  0  0  0  0  3  0  0  0  0  0  0
  188.0780  178.1840  138.8740 C   0  0  0  0  0  0  0  0  0  0  0  0
  187.9020  178.2960  140.2470 C   0  0  0  0  0  3  0  0  0  0  0  0
  184.9150  178.4540  139.2480 C   0  0  0  0  0  0  0  0  0  0  0  0
  186.7420  178.4400  140.9920 C   0  0  0  0  0  3  0  0  0  0  0  0
  185.4050  178.5150  140.6070 C   0  0  0  0  0  0  0  0  0  0  0  0
  189.4580  178.0420  138.3690 C   0  0  0  0  0  0  0  0  0  0  0  0
  190.4930  177.7050  139.2350 O   0  0  0  0  0  1  0  0  0  0  0  0
  189.7170  178.2220  137.1480 O   0  0  0  0  0  0  0  0  0  0  0  0
  183.7590  178.9440  145.5370 C   0  0  0  0  0  2  0  0  0  0  0  0
  186.9310  178.3510  147.5260 C   0  0  0  0  0  3  0  0  0  0  0  0
  186.0060  178.0440  144.8950 C   0  0  0  0  0  3  0  0  0  0  0  0
  189.9580  176.9900  145.8750 C   0  0  0  0  0  0  0  0  0  0  0  0
  189.1000  177.4950  146.8620 C   0  0  0  0  0  3  0  0  0  0  0  0
  187.7860  177.8460  146.5410 C   0  0  0  0  0  0  0  0  0  0  0  0
  188.1740  177.1900  144.2320 C   0  0  0  0  0  3  0  0  0  0  0  0
  187.3200  177.6910  145.2160 C   0  0  0  0  0  0  0  0  0  0  0  0
  189.4880  176.8400  144.5610 C   0  0  0  0  0  3  0  0  0  0  0  0
  185.1540  178.5440  145.8860 C   0  0  0  0  0  0  0  0  0  0  0  0
  185.6190  178.7010  147.1980 C   0  0  0  0  0  3  0  0  0  0  0  0
  191.3410  176.6220  146.2190 C   0  0  0  0  0  0  0  0  0  0  0  0
  192.0670  176.0190  145.3850 O   0  0  0  0  0  0  0  0  0  0  0  0
  191.8590  176.9370  147.4700 O   0  0  0  0  0  1  0  0  0  0  0  0
  1  5  1  0  0  0  0
  2 15  1  0  0  0  0
  3 15  2  0  0  0  0
  3  9  1  0  0  0  0
  4 21  1  0  0  0  0
  5  4  1  0  0  0  0
  6  8  1  0  0  0  0
  7  6  2  0  0  0  0
  8  4  2  0  0  0  0
  9 11  2  0  0  0  0
  9 10  1  0  0  0  0
 10  1  2  0  0  0  0
 10  6  1  0  0  0  0
 11  7  1  0  0  0  0
 12  2  2  0  0  0  0
 12 13  1  0  0  0  0
 13 14  2  0  0  0  0
 14 16  1  0  0  0  0
 15 17  1  0  0  0  0
 17 16  2  0  0  0  0
 17  1  1  0  0  0  0
 18 13  1  0  0  0  0
 18 19  1  0  0  0  0
 20 18  2  0  0  0  0
 21 30  1  0  0  0  0
 23 28  2  0  0  0  0
 23 30  1  0  0  0  0
 24 32  1  0  0  0  0
 24 25  2  0  0  0  0
 26 25  1  0  0  0  0
 26 22  2  0  0  0  0
 27 29  2  0  0  0  0
 27 28  1  0  0  0  0
 28 26  1  0  0  0  0
 29 24  1  0  0  0  0
 30 31  2  0  0  0  0
 31 22  1  0  0  0  0
 32 34  1  0  0  0  0
 33 32  2  0  0  0  0
M  END
>  <MODEL>
2

>  <REMARK>
 VINA RESULT:     -12.5      1.991      6.715
  Name = 
  4 active torsions:
  status: ('A' for Active; 'I' for Inactive)
    1  A    between atoms: C_3  and  C_25
    2  A    between atoms: C_7  and  C_11
    3  A    between atoms: C_8  and  C_18
    4  A    between atoms: C_18  and  C_30
                            x       y       z     vdW  Elec       q    Type
                         _______ _______ _______ _____ _____    ______ ____

>  <TORSDO>
F 4

$$$$
=
 OpenBabel10262423103D

 34 39  0  0  0  0  0  0  0  0999 V2000
  189.0600  177.5930  143.9390 C   0  0  0  0  0  0  0  0  0  0  0  0
  191.4230  177.1930  141.0120 C   0  0  0  0  0  3  0  0  0  0  0  0
  191.7200  176.8230  143.3170 C   0  0  0  0  0  3  0  0  0  0  0  0
  187.5160  177.8530  145.9840 C   0  0  0  0  0  0  0  0  0  0  0  0
  187.6790  177.9750  144.4570 C   0  0  0  0  0  3  0  0  0  0  0  0
  189.8000  177.0940  146.1930 C   0  0  0  0  0  0  0  0  0  0  0  0
  190.9520  176.6670  146.7590 N   0  0  0  0  0  2  0  0  0  0  0  0
  188.5160  177.4440  146.8010 C   0  0  0  0  0  3  0  0  0  0  0  0
  191.2360  176.8200  144.6170 C   0  0  0  0  0  0  0  0  0  0  0  0
  189.9760  177.1890  144.8690 C   0  0  0  0  0  0  0  0  0  0  0  0
  191.8470  176.4960  145.7770 N   0  0  0  0  0  0  0  0  0  0  0  0
  190.9100  177.5060  139.7630 C   0  0  0  0  0  3  0  0  0  0  0  0
  189.6470  177.9520  139.3990 C   0  0  0  0  0  0  0  0  0  0  0  0
  188.5960  178.1820  140.2780 C   0  0  0  0  0  3  0  0  0  0  0  0
  190.8420  177.2270  142.2740 C   0  0  0  0  0  0  0  0  0  0  0  0
  188.5310  178.0370  141.6550 C   0  0  0  0  0  3  0  0  0  0  0  0
  189.4850  177.6210  142.5810 C   0  0  0  0  0  0  0  0  0  0  0  0
  189.4090  178.2010  137.9640 C   0  0  0  0  0  0  0  0  0  0  0  0
  188.9700  179.4470  137.5300 O   0  0  0  0  0  1  0  0  0  0  0  0
  189.5990  177.2900  137.1140 O   0  0  0  0  0  0  0  0  0  0  0  0
  186.2100  178.2380  146.5930 C   0  0  0  0  0  2  0  0  0  0  0  0
  182.9040  179.0130  144.9070 C   0  0  0  0  0  3  0  0  0  0  0  0
  185.4880  178.1840  144.1950 C   0  0  0  0  0  3  0  0  0  0  0  0
  182.5440  178.6790  141.2330 C   0  0  0  0  0  0  0  0  0  0  0  0
  182.2370  178.9280  142.5780 C   0  0  0  0  0  3  0  0  0  0  0  0
  183.2120  178.7660  143.5660 C   0  0  0  0  0  0  0  0  0  0  0  0
  184.8200  178.0980  141.8680 C   0  0  0  0  0  3  0  0  0  0  0  0
  184.5130  178.3480  143.2070 C   0  0  0  0  0  0  0  0  0  0  0  0
  183.8390  178.2640  140.8850 C   0  0  0  0  0  3  0  0  0  0  0  0
  185.1760  178.4370  145.5360 C   0  0  0  0  0  0  0  0  0  0  0  0
  183.8840  178.8470  145.8890 C   0  0  0  0  0  3  0  0  0  0  0  0
  181.5130  178.8530  140.1970 C   0  0  0  0  0  0  0  0  0  0  0  0
  180.5550  179.6500  140.3780 O   0  0  0  0  0  1  0  0  0  0  0  0
  181.5870  178.1360  139.0080 O   0  0  0  0  0  0  0  0  0  0  0  0
  1  5  2  0  0  0  0
  1 10  1  0  0  0  0
  2 15  1  0  0  0  0
  3  9  1  0  0  0  0
  4 21  1  0  0  0  0
  4  8  2  0  0  0  0
  5  4  1  0  0  0  0
  6  7  1  0  0  0  0
  6  8  1  0  0  0  0
  9 10  1  0  0  0  0
  9 11  2  0  0  0  0
 10  6  2  0  0  0  0
 11  7  1  0  0  0  0
 12  2  2  0  0  0  0
 13 12  1  0  0  0  0
 13 14  2  0  0  0  0
 14 16  1  0  0  0  0
 15 17  1  0  0  0  0
 15  3  2  0  0  0  0
 16 17  2  0  0  0  0
 17  1  1  0  0  0  0
 18 13  1  0  0  0  0
 19 18  1  0  0  0  0
 20 18  2  0  0  0  0
 22 31  1  0  0  0  0
 23 30  1  0  0  0  0
 24 25  2  0  0  0  0
 25 26  1  0  0  0  0
 26 22  2  0  0  0  0
 27 28  1  0  0  0  0
 28 26  1  0  0  0  0
 28 23  2  0  0  0  0
 29 24  1  0  0  0  0
 29 27  2  0  0  0  0
 30 31  2  0  0  0  0
 30 21  1  0  0  0  0
 32 33  1  0  0  0  0
 32 24  1  0  0  0  0
 34 32  2  0  0  0  0
M  END
>  <MODEL>
3

>  <REMARK>
 VINA RESULT:     -12.4      4.053      7.747
  Name = 
  4 active torsions:
  status: ('A' for Active; 'I' for Inactive)
    1  A    between atoms: C_3  and  C_25
    2  A    between atoms: C_7  and  C_11
    3  A    between atoms: C_8  and  C_18
    4  A    between atoms: C_18  and  C_30
                            x       y       z     vdW  Elec       q    Type
                         _______ _______ _______ _____ _____    ______ ____

>  <TORSDO>
F 4

$$$$
=
 OpenBabel10262423103D

 34 39  0  0  0  0  0  0  0  0999 V2000
  187.6500  177.8550  145.2680 C   0  0  0  0  0  0  0  0  0  0  0  0
  184.0630  178.8990  145.8540 C   0  0  0  0  0  3  0  0  0  0  0  0
  185.8580  178.5830  147.3430 C   0  0  0  0  0  3  0  0  0  0  0  0
  190.1040  177.1360  144.9510 C   0  0  0  0  0  0  0  0  0  0  0  0
  188.7440  177.4390  144.2910 C   0  0  0  0  0  3  0  0  0  0  0  0
  189.1900  177.6460  147.1280 C   0  0  0  0  0  0  0  0  0  0  0  0
  189.1150  177.8150  148.4680 N   0  0  0  0  0  2  0  0  0  0  0  0
  190.3110  177.2290  146.2860 C   0  0  0  0  0  3  0  0  0  0  0  0
  187.1810  178.2530  147.5940 C   0  0  0  0  0  0  0  0  0  0  0  0
  187.9950  177.9160  146.5890 C   0  0  0  0  0  0  0  0  0  0  0  0
  187.8630  178.1940  148.7580 N   0  0  0  0  0  0  0  0  0  0  0  0
  183.2580  178.9870  144.7300 C   0  0  0  0  0  3  0  0  0  0  0  0
  183.5550  178.7490  143.3950 C   0  0  0  0  0  0  0  0  0  0  0  0
  184.7950  178.3540  142.9090 C   0  0  0  0  0  3  0  0  0  0  0  0
  185.4000  178.5510  145.9970 C   0  0  0  0  0  0  0  0  0  0  0  0
  185.9830  178.1100  143.5790 C   0  0  0  0  0  3  0  0  0  0  0  0
  186.3060  178.1810  144.9330 C   0  0  0  0  0  0  0  0  0  0  0  0
  182.4630  178.9320  142.4190 C   0  0  0  0  0  0  0  0  0  0  0  0
  181.2360  179.4470  142.8240 O   0  0  0  0  0  1  0  0  0  0  0  0
  182.6260  178.6260  141.2070 O   0  0  0  0  0  0  0  0  0  0  0  0
  191.2310  176.6870  144.0830 C   0  0  0  0  0  2  0  0  0  0  0  0
  191.7450  177.4350  140.4030 C   0  0  0  0  0  3  0  0  0  0  0  0
  189.6270  177.1880  142.2260 C   0  0  0  0  0  3  0  0  0  0  0  0
  188.8440  178.1290  138.2020 C   0  0  0  0  0  0  0  0  0  0  0  0
  190.1640  177.9380  138.6350 C   0  0  0  0  0  3  0  0  0  0  0  0
  190.4290  177.6240  139.9710 C   0  0  0  0  0  0  0  0  0  0  0  0
  188.0480  177.6930  140.4590 C   0  0  0  0  0  3  0  0  0  0  0  0
  189.3620  177.5000  140.8890 C   0  0  0  0  0  0  0  0  0  0  0  0
  187.7910  178.0050  139.1210 C   0  0  0  0  0  3  0  0  0  0  0  0
  190.9460  176.9950  142.6510 C   0  0  0  0  0  0  0  0  0  0  0  0
  192.0020  177.1230  141.7400 C   0  0  0  0  0  3  0  0  0  0  0  0
  188.5720  178.4590  136.7940 C   0  0  0  0  0  0  0  0  0  0  0  0
  189.2330  177.9130  135.8710 O   0  0  0  0  0  0  0  0  0  0  0  0
  187.5800  179.3780  136.4690 O   0  0  0  0  0  1  0  0  0  0  0  0
  1 10  1  0  0  0  0
  2 15  1  0  0  0  0
  3  9  1  0  0  0  0
  4  8  2  0  0  0  0
  5  4  1  0  0  0  0
  5  1  2  0  0  0  0
  6  7  1  0  0  0  0
  7 11  1  0  0  0  0
  8  6  1  0  0  0  0
  9 11  2  0  0  0  0
 10  6  2  0  0  0  0
 10  9  1  0  0  0  0
 12  2  2  0  0  0  0
 13 12  1  0  0  0  0
 14 13  2  0  0  0  0
 14 16  1  0  0  0  0
 15  3  2  0  0  0  0
 16 17  2  0  0  0  0
 17  1  1  0  0  0  0
 17 15  1  0  0  0  0
 18 19  1  0  0  0  0
 18 13  1  0  0  0  0
 20 18  2  0  0  0  0
 21  4  1  0  0  0  0
 22 31  1  0  0  0  0
 23 30  1  0  0  0  0
 24 25  2  0  0  0  0
 24 29  1  0  0  0  0
 25 26  1  0  0  0  0
 26 22  2  0  0  0  0
 26 28  1  0  0  0  0
 27 28  1  0  0  0  0
 28 23  2  0  0  0  0
 29 27  2  0  0  0  0
 30 21  1  0  0  0  0
 31 30  2  0  0  0  0
 32 24  1  0  0  0  0
 33 32  2  0  0  0  0
 34 32  1  0  0  0  0
M  END
>  <MODEL>
4

>  <REMARK>
 VINA RESULT:     -12.3      3.570      5.645
  Name = 
  4 active torsions:
  status: ('A' for Active; 'I' for Inactive)
    1  A    between atoms: C_3  and  C_25
    2  A    between atoms: C_7  and  C_11
    3  A    between atoms: C_8  and  C_18
    4  A    between atoms: C_18  and  C_30
                            x       y       z     vdW  Elec       q    Type
                         _______ _______ _______ _____ _____    ______ ____

>  <TORSDO>
F 4

$$$$
=
 OpenBabel10262423103D

 34 39  0  0  0  0  0  0  0  0999 V2000
  188.1420  177.6960  144.8770 C   0  0  0  0  0  0  0  0  0  0  0  0
  191.3520  176.8690  143.0580 C   0  0  0  0  0  3  0  0  0  0  0  0
  190.8820  177.1320  145.3480 C   0  0  0  0  0  3  0  0  0  0  0  0
  185.9990  178.2690  146.1870 C   0  0  0  0  0  0  0  0  0  0  0  0
  186.6540  178.0210  144.8140 C   0  0  0  0  0  3  0  0  0  0  0  0
  188.1100  177.8780  147.2940 C   0  0  0  0  0  0  0  0  0  0  0  0
  189.0230  177.7540  148.2840 N   0  0  0  0  0  2  0  0  0  0  0  0
  186.6850  178.2070  147.3520 C   0  0  0  0  0  3  0  0  0  0  0  0
  189.9950  177.3960  146.3810 C   0  0  0  0  0  0  0  0  0  0  0  0
  188.7110  177.6570  146.1190 C   0  0  0  0  0  0  0  0  0  0  0  0
  190.1980  177.4540  147.7160 N   0  0  0  0  0  0  0  0  0  0  0  0
  191.2720  176.7900  141.6760 C   0  0  0  0  0  3  0  0  0  0  0  0
  190.1860  176.9700  140.8310 C   0  0  0  0  0  0  0  0  0  0  0  0
  188.8960  177.2810  141.2400 C   0  0  0  0  0  3  0  0  0  0  0  0
  190.3860  177.1470  144.0160 C   0  0  0  0  0  0  0  0  0  0  0  0
  188.3840  177.4800  142.5130 C   0  0  0  0  0  3  0  0  0  0  0  0
  188.9910  177.4340  143.7660 C   0  0  0  0  0  0  0  0  0  0  0  0
  190.4280  176.8170  139.3830 C   0  0  0  0  0  0  0  0  0  0  0  0
  190.9340  175.6250  138.8760 O   0  0  0  0  0  1  0  0  0  0  0  0
  190.1790  177.7620  138.5870 O   0  0  0  0  0  0  0  0  0  0  0  0
  184.5520  178.6290  146.2290 C   0  0  0  0  0  2  0  0  0  0  0  0
  182.0680  178.6700  143.3650 C   0  0  0  0  0  3  0  0  0  0  0  0
  184.8440  178.8070  143.7480 C   0  0  0  0  0  3  0  0  0  0  0  0
  183.2440  178.9330  139.8600 C   0  0  0  0  0  0  0  0  0  0  0  0
  182.3920  178.8230  140.9680 C   0  0  0  0  0  3  0  0  0  0  0  0
  182.9190  178.7810  142.2620 C   0  0  0  0  0  0  0  0  0  0  0  0
  185.1670  178.9580  141.3520 C   0  0  0  0  0  3  0  0  0  0  0  0
  184.3170  178.8510  142.4550 C   0  0  0  0  0  0  0  0  0  0  0  0
  184.6320  179.0010  140.0600 C   0  0  0  0  0  3  0  0  0  0  0  0
  183.9870  178.7010  144.8500 C   0  0  0  0  0  0  0  0  0  0  0  0
  182.6020  178.6280  144.6560 C   0  0  0  0  0  3  0  0  0  0  0  0
  182.6830  178.9770  138.5010 C   0  0  0  0  0  0  0  0  0  0  0  0
  182.9620  178.0750  137.6660 O   0  0  0  0  0  0  0  0  0  0  0  0
  181.8400  180.0160  138.1240 O   0  0  0  0  0  1  0  0  0  0  0  0
  1 10  1  0  0  0  0
  2 15  1  0  0  0  0
  3  9  1  0  0  0  0
  4 21  1  0  0  0  0
  4  8  2  0  0  0  0
  5  1  2  0  0  0  0
  5  4  1  0  0  0  0
  6  8  1  0  0  0  0
  6  7  1  0  0  0  0
  9 11  2  0  0  0  0
 10  9  1  0  0  0  0
 10  6  2  0  0  0  0
 11  7  1  0  0  0  0
 12  2  2  0  0  0  0
 13 14  2  0  0  0  0
 13 12  1  0  0  0  0
 14 16  1  0  0  0  0
 15  3  2  0  0  0  0
 16 17  2  0  0  0  0
 17 15  1  0  0  0  0
 17  1  1  0  0  0  0
 18 13  1  0  0  0  0
 19 18  1  0  0  0  0
 20 18  2  0  0  0  0
 22 31  1  0  0  0  0
 23 30  1  0  0  0  0
 24 29  1  0  0  0  0
 24 25  2  0  0  0  0
 25 26  1  0  0  0  0
 26 28  1  0  0  0  0
 26 22  2  0  0  0  0
 27 28  1  0  0  0  0
 28 23  2  0  0  0  0
 29 27  2  0  0  0  0
 30 21  1  0  0  0  0
 31 30  2  0  0  0  0
 32 24  1  0  0  0  0
 33 32  2  0  0  0  0
 34 32  1  0  0  0  0
M  END
>  <MODEL>
5

>  <REMARK>
 VINA RESULT:     -12.1      3.541      6.788
  Name = 
  4 active torsions:
  status: ('A' for Active; 'I' for Inactive)
    1  A    between atoms: C_3  and  C_25
    2  A    between atoms: C_7  and  C_11
    3  A    between atoms: C_8  and  C_18
    4  A    between atoms: C_18  and  C_30
                            x       y       z     vdW  Elec       q    Type
                         _______ _______ _______ _____ _____    ______ ____

>  <TORSDO>
F 4

$$$$
=
 OpenBabel10262423103D

 34 39  0  0  0  0  0  0  0  0999 V2000
  184.4490  178.6640  141.6620 C   0  0  0  0  0  0  0  0  0  0  0  0
  185.2400  178.4120  137.9720 C   0  0  0  0  0  3  0  0  0  0  0  0
  183.1960  178.6380  139.1160 C   0  0  0  0  0  3  0  0  0  0  0  0
  183.8280  178.8280  144.1570 C   0  0  0  0  0  0  0  0  0  0  0  0
  184.9440  178.6920  143.1030 C   0  0  0  0  0  2  0  0  0  0  0  0
  182.1550  178.8850  142.4160 C   0  0  0  0  0  0  0  0  0  0  0  0
  180.9440  178.9490  141.8170 N   0  0  0  0  0  0  0  0  0  0  0  0
  182.5160  178.9140  143.8330 C   0  0  0  0  0  3  0  0  0  0  0  0
  182.4720  178.7580  140.2940 C   0  0  0  0  0  0  0  0  0  0  0  0
  183.0990  178.7680  141.4740 C   0  0  0  0  0  0  0  0  0  0  0  0
  181.1410  178.8690  140.4950 N   0  0  0  0  0  0  0  0  0  0  0  0
  186.5790  178.2850  137.6400 C   0  0  0  0  0  3  0  0  0  0  0  0
  187.7030  178.2320  138.4520 C   0  0  0  0  0  0  0  0  0  0  0  0
  187.6910  178.3020  139.8400 C   0  0  0  0  0  3  0  0  0  0  0  0
  184.6100  178.5260  139.2060 C   0  0  0  0  0  0  0  0  0  0  0  0
  186.6290  178.4350  140.7210 C   0  0  0  0  0  3  0  0  0  0  0  0
  185.2570  178.5380  140.4980 C   0  0  0  0  0  0  0  0  0  0  0  0
  189.0110  178.0900  137.7840 C   0  0  0  0  0  0  0  0  0  0  0  0
  189.1330  178.3220  136.4180 O   0  0  0  0  0  0  0  0  0  0  0  0
  190.0340  177.7570  138.4400 O   0  0  0  0  0  1  0  0  0  0  0  0
  184.2090  178.8290  145.5990 C   0  0  0  0  0  2  0  0  0  0  0  0
  187.5480  177.1720  144.9070 C   0  0  0  0  0  3  0  0  0  0  0  0
  186.2860  178.5840  146.9780 C   0  0  0  0  0  3  0  0  0  0  0  0
  190.2140  177.1690  147.4820 C   0  0  0  0  0  0  0  0  0  0  0  0
  189.5320  176.9370  146.2790 C   0  0  0  0  0  3  0  0  0  0  0  0
  188.2270  177.4050  146.1060 C   0  0  0  0  0  0  0  0  0  0  0  0
  188.2690  178.3460  148.3480 C   0  0  0  0  0  3  0  0  0  0  0  0
  187.5920  178.1160  147.1490 C   0  0  0  0  0  0  0  0  0  0  0  0
  189.5760  177.8750  148.5130 C   0  0  0  0  0  3  0  0  0  0  0  0
  185.6120  178.3510  145.7730 C   0  0  0  0  0  0  0  0  0  0  0  0
  186.2420  177.6430  144.7420 C   0  0  0  0  0  3  0  0  0  0  0  0
  191.5890  176.6730  147.6570 C   0  0  0  0  0  0  0  0  0  0  0  0
  192.3310  177.1540  148.5530 O   0  0  0  0  0  1  0  0  0  0  0  0
  192.0810  175.6680  146.8320 O   0  0  0  0  0  0  0  0  0  0  0  0
  1  5  1  0  0  0  0
  2 15  1  0  0  0  0
  3 15  2  0  0  0  0
  3  9  1  0  0  0  0
  4 21  1  0  0  0  0
  5  4  1  0  0  0  0
  6  8  1  0  0  0  0
  7  6  2  0  0  0  0
  8  4  2  0  0  0  0
  9 11  2  0  0  0  0
  9 10  1  0  0  0  0
 10  1  2  0  0  0  0
 10  6  1  0  0  0  0
 11  7  1  0  0  0  0
 12  2  2  0  0  0  0
 12 13  1  0  0  0  0
 13 14  2  0  0  0  0
 14 16  1  0  0  0  0
 15 17  1  0  0  0  0
 17 16  2  0  0  0  0
 17  1  1  0  0  0  0
 18 20  1  0  0  0  0
 18 13  1  0  0  0  0
 19 18  2  0  0  0  0
 21 30  1  0  0  0  0
 22 26  1  0  0  0  0
 23 28  1  0  0  0  0
 24 32  1  0  0  0  0
 24 29  1  0  0  0  0
 25 24  2  0  0  0  0
 26 25  1  0  0  0  0
 26 28  2  0  0  0  0
 27 29  2  0  0  0  0
 28 27  1  0  0  0  0
 30 23  2  0  0  0  0
 31 22  2  0  0  0  0
 31 30  1  0  0  0  0
 32 33  1  0  0  0  0
 34 32  2  0  0  0  0
M  END
>  <MODEL>
6

>  <REMARK>
 VINA RESULT:     -12.1      2.168      7.115
  Name = 
  4 active torsions:
  status: ('A' for Active; 'I' for Inactive)
    1  A    between atoms: C_3  and  C_25
    2  A    between atoms: C_7  and  C_11
    3  A    between atoms: C_8  and  C_18
    4  A    between atoms: C_18  and  C_30
                            x       y       z     vdW  Elec       q    Type
                         _______ _______ _______ _____ _____    ______ ____

>  <TORSDO>
F 4

$$$$
=
 OpenBabel10262423103D

 34 39  0  0  0  0  0  0  0  0999 V2000
  186.6130  178.1690  143.8810 C   0  0  0  0  0  0  0  0  0  0  0  0
  187.8760  177.5600  147.3930 C   0  0  0  0  0  3  0  0  0  0  0  0
  185.7760  178.2560  146.5910 C   0  0  0  0  0  3  0  0  0  0  0  0
  185.6820  178.6190  141.5210 C   0  0  0  0  0  0  0  0  0  0  0  0
  186.8850  178.1850  142.3820 C   0  0  0  0  0  2  0  0  0  0  0  0
  184.3320  178.9000  143.5040 C   0  0  0  0  0  0  0  0  0  0  0  0
  183.2670  179.1850  144.2880 N   0  0  0  0  0  0  0  0  0  0  0  0
  184.4840  178.9600  142.0500 C   0  0  0  0  0  3  0  0  0  0  0  0
  184.9250  178.5830  145.5460 C   0  0  0  0  0  0  0  0  0  0  0  0
  185.3560  178.5280  144.2820 C   0  0  0  0  0  0  0  0  0  0  0  0
  183.6360  178.9870  145.5600 N   0  0  0  0  0  0  0  0  0  0  0  0
  189.1940  177.1480  147.5080 C   0  0  0  0  0  3  0  0  0  0  0  0
  190.1490  176.9170  146.5280 C   0  0  0  0  0  0  0  0  0  0  0  0
  189.9460  177.0670  145.1620 C   0  0  0  0  0  3  0  0  0  0  0  0
  187.1070  177.8670  146.2780 C   0  0  0  0  0  0  0  0  0  0  0  0
  188.8150  177.4580  144.4620 C   0  0  0  0  0  3  0  0  0  0  0  0
  187.5420  177.8200  144.9000 C   0  0  0  0  0  0  0  0  0  0  0  0
  191.4840  176.4790  146.9780 C   0  0  0  0  0  0  0  0  0  0  0  0
  192.1740  175.4940  146.2810 O   0  0  0  0  0  0  0  0  0  0  0  0
  192.0180  176.9920  147.9990 O   0  0  0  0  0  1  0  0  0  0  0  0
  185.8590  178.7000  140.0420 C   0  0  0  0  0  2  0  0  0  0  0  0
  189.5630  177.8950  140.0750 C   0  0  0  0  0  3  0  0  0  0  0  0
  187.3280  177.4610  138.4360 C   0  0  0  0  0  3  0  0  0  0  0  0
  191.1010  176.0050  137.2820 C   0  0  0  0  0  0  0  0  0  0  0  0
  190.9570  176.7080  138.4870 C   0  0  0  0  0  3  0  0  0  0  0  0
  189.7060  177.1930  138.8750 C   0  0  0  0  0  0  0  0  0  0  0  0
  188.7230  176.2760  136.8490 C   0  0  0  0  0  3  0  0  0  0  0  0
  188.5800  176.9740  138.0500 C   0  0  0  0  0  0  0  0  0  0  0  0
  189.9780  175.7930  136.4680 C   0  0  0  0  0  3  0  0  0  0  0  0
  187.1910  178.1590  139.6420 C   0  0  0  0  0  0  0  0  0  0  0  0
  188.3090  178.3790  140.4560 C   0  0  0  0  0  3  0  0  0  0  0  0
  192.4220  175.4970  136.8800 C   0  0  0  0  0  0  0  0  0  0  0  0
  193.0280  174.6560  137.5950 O   0  0  0  0  0  1  0  0  0  0  0  0
  193.0150  175.9410  135.7030 O   0  0  0  0  0  0  0  0  0  0  0  0
  1 10  1  0  0  0  0
  1 17  2  0  0  0  0
  2 12  1  0  0  0  0
  4  8  2  0  0  0  0
  4  5  1  0  0  0  0
  5  1  1  0  0  0  0
  6 10  2  0  0  0  0
  6  7  1  0  0  0  0
  7 11  2  0  0  0  0
  8  6  1  0  0  0  0
  9 11  1  0  0  0  0
  9  3  2  0  0  0  0
 10  9  1  0  0  0  0
 13 18  1  0  0  0  0
 13 12  2  0  0  0  0
 14 13  1  0  0  0  0
 15  3  1  0  0  0  0
 15  2  2  0  0  0  0
 16 17  1  0  0  0  0
 16 14  2  0  0  0  0
 17 15  1  0  0  0  0
 18 20  1  0  0  0  0
 19 18  2  0  0  0  0
 21  4  1  0  0  0  0
 22 31  1  0  0  0  0
 23 30  1  0  0  0  0
 24 25  2  0  0  0  0
 25 26  1  0  0  0  0
 26 22  2  0  0  0  0
 27 28  1  0  0  0  0
 28 23  2  0  0  0  0
 28 26  1  0  0  0  0
 29 27  2  0  0  0  0
 29 24  1  0  0  0  0
 30 21  1  0  0  0  0
 30 31  2  0  0  0  0
 32 24  1  0  0  0  0
 32 33  1  0  0  0  0
 34 32  2  0  0  0  0
M  END
>  <MODEL>
7

>  <REMARK>
 VINA RESULT:     -11.7      0.979      1.897
  Name = 
  4 active torsions:
  status: ('A' for Active; 'I' for Inactive)
    1  A    between atoms: C_3  and  C_25
    2  A    between atoms: C_7  and  C_11
    3  A    between atoms: C_8  and  C_18
    4  A    between atoms: C_18  and  C_30
                            x       y       z     vdW  Elec       q    Type
                         _______ _______ _______ _____ _____    ______ ____

>  <TORSDO>
F 4

$$$$
=
 OpenBabel10262423103D

 34 39  0  0  0  0  0  0  0  0999 V2000
  188.9160  177.7170  143.8220 C   0  0  0  0  0  0  0  0  0  0  0  0
  185.8790  178.0320  146.0530 C   0  0  0  0  0  3  0  0  0  0  0  0
  188.1410  177.6130  146.5490 C   0  0  0  0  0  3  0  0  0  0  0  0
  191.0300  177.4740  142.3680 C   0  0  0  0  0  0  0  0  0  0  0  0
  189.5110  177.7320  142.4180 C   0  0  0  0  0  3  0  0  0  0  0  0
  191.1000  177.2660  144.7730 C   0  0  0  0  0  0  0  0  0  0  0  0
  191.5890  177.0720  146.0200 N   0  0  0  0  0  2  0  0  0  0  0  0
  191.7750  177.2500  143.4760 C   0  0  0  0  0  3  0  0  0  0  0  0
  189.4560  177.4290  146.1490 C   0  0  0  0  0  0  0  0  0  0  0  0
  189.7820  177.4860  144.8540 C   0  0  0  0  0  0  0  0  0  0  0  0
  190.5650  177.1740  146.8770 N   0  0  0  0  0  0  0  0  0  0  0  0
  184.6750  178.2860  145.4170 C   0  0  0  0  0  3  0  0  0  0  0  0
  184.3910  178.4470  144.0680 C   0  0  0  0  0  0  0  0  0  0  0  0
  185.3230  178.3780  143.0400 C   0  0  0  0  0  3  0  0  0  0  0  0
  187.1620  177.8610  145.5490 C   0  0  0  0  0  0  0  0  0  0  0  0
  186.6890  178.1480  143.0840 C   0  0  0  0  0  3  0  0  0  0  0  0
  187.5480  177.9150  144.1560 C   0  0  0  0  0  0  0  0  0  0  0  0
  182.9850  178.7110  143.7030 C   0  0  0  0  0  0  0  0  0  0  0  0
  182.6110  178.8040  142.3660 O   0  0  0  0  0  0  0  0  0  0  0  0
  182.1060  178.8550  144.5940 O   0  0  0  0  0  1  0  0  0  0  0  0
  191.7000  177.4350  141.0360 C   0  0  0  0  0  2  0  0  0  0  0  0
  190.1260  175.7860  138.0070 C   0  0  0  0  0  3  0  0  0  0  0  0
  189.5070  177.7840  139.8770 C   0  0  0  0  0  3  0  0  0  0  0  0
  186.7860  176.8550  136.8080 C   0  0  0  0  0  0  0  0  0  0  0  0
  188.0050  176.1670  136.8990 C   0  0  0  0  0  3  0  0  0  0  0  0
  188.9120  176.4720  137.9170 C   0  0  0  0  0  0  0  0  0  0  0  0
  187.3870  178.1650  138.7680 C   0  0  0  0  0  3  0  0  0  0  0  0
  188.6000  177.4780  138.8590 C   0  0  0  0  0  0  0  0  0  0  0  0
  186.4840  177.8540  137.7470 C   0  0  0  0  0  3  0  0  0  0  0  0
  190.7200  177.0910  139.9650 C   0  0  0  0  0  0  0  0  0  0  0  0
  191.0290  176.0970  139.0270 C   0  0  0  0  0  3  0  0  0  0  0  0
  185.8350  176.5300  135.7330 C   0  0  0  0  0  0  0  0  0  0  0  0
  186.1020  175.6270  134.8960 O   0  0  0  0  0  0  0  0  0  0  0  0
  184.6310  177.2170  135.6310 O   0  0  0  0  0  1  0  0  0  0  0  0
  1 17  1  0  0  0  0
  1 10  1  0  0  0  0
  4  5  1  0  0  0  0
  4  8  2  0  0  0  0
  5  1  2  0  0  0  0
  6 10  2  0  0  0  0
  6  7  1  0  0  0  0
  7 11  1  0  0  0  0
  8  6  1  0  0  0  0
  9  3  1  0  0  0  0
  9 11  2  0  0  0  0
 10  9  1  0  0  0  0
 12  2  2  0  0  0  0
 13 12  1  0  0  0  0
 14 16  1  0  0  0  0
 14 13  2  0  0  0  0
 15  2  1  0  0  0  0
 15  3  2  0  0  0  0
 16 17  2  0  0  0  0
 17 15  1  0  0  0  0
 18 13  1  0  0  0  0
 18 20  1  0  0  0  0
 19 18  2  0  0  0  0
 21  4  1  0  0  0  0
 22 31  1  0  0  0  0
 23 30  1  0  0  0  0
 24 25  2  0  0  0  0
 24 29  1  0  0  0  0
 25 26  1  0  0  0  0
 26 22  2  0  0  0  0
 26 28  1  0  0  0  0
 27 28  1  0  0  0  0
 28 23  2  0  0  0  0
 29 27  2  0  0  0  0
 30 21  1  0  0  0  0
 31 30  2  0  0  0  0
 32 24  1  0  0  0  0
 33 32  2  0  0  0  0
 34 32  1  0  0  0  0
M  END
>  <MODEL>
8

>  <REMARK>
 VINA RESULT:     -11.5      4.014      5.949
  Name = 
  4 active torsions:
  status: ('A' for Active; 'I' for Inactive)
    1  A    between atoms: C_3  and  C_25
    2  A    between atoms: C_7  and  C_11
    3  A    between atoms: C_8  and  C_18
    4  A    between atoms: C_18  and  C_30
                            x       y       z     vdW  Elec       q    Type
                         _______ _______ _______ _____ _____    ______ ____

>  <TORSDO>
F 4

$$$$
=
 OpenBabel10262423103D

 34 39  0  0  0  0  0  0  0  0999 V2000
  188.5500  177.8940  141.4990 C   0  0  0  0  0  0  0  0  0  0  0  0
  188.2320  177.7870  145.2650 C   0  0  0  0  0  3  0  0  0  0  0  0
  190.0790  177.4470  143.8470 C   0  0  0  0  0  3  0  0  0  0  0  0
  188.8450  177.9350  138.9390 C   0  0  0  0  0  0  0  0  0  0  0  0
  187.8910  178.0980  140.1390 C   0  0  0  0  0  2  0  0  0  0  0  0
  190.6850  177.4680  140.4320 C   0  0  0  0  0  0  0  0  0  0  0  0
  191.9340  177.1660  140.8570 N   0  0  0  0  0  0  0  0  0  0  0  0
  190.1570  177.6340  139.0780 C   0  0  0  0  0  3  0  0  0  0  0  0
  190.6380  177.3840  142.5790 C   0  0  0  0  0  0  0  0  0  0  0  0
  189.8860  177.6020  141.4970 C   0  0  0  0  0  0  0  0  0  0  0  0
  191.9050  177.1140  142.1950 N   0  0  0  0  0  0  0  0  0  0  0  0
  186.9710  178.0410  145.7820 C   0  0  0  0  0  3  0  0  0  0  0  0
  185.7800  178.3320  145.1330 C   0  0  0  0  0  0  0  0  0  0  0  0
  185.6210  178.4310  143.7560 C   0  0  0  0  0  3  0  0  0  0  0  0
  188.6930  177.7470  143.9550 C   0  0  0  0  0  0  0  0  0  0  0  0
  186.5460  178.2760  142.7350 C   0  0  0  0  0  3  0  0  0  0  0  0
  187.9060  177.9760  142.7640 C   0  0  0  0  0  0  0  0  0  0  0  0
  184.5900  178.5540  145.9770 C   0  0  0  0  0  0  0  0  0  0  0  0
  183.4140  179.0480  145.4220 O   0  0  0  0  0  0  0  0  0  0  0  0
  184.6210  178.2990  147.2110 O   0  0  0  0  0  1  0  0  0  0  0  0
  188.2870  178.0810  137.5640 C   0  0  0  0  0  2  0  0  0  0  0  0
  184.7550  176.7830  137.1010 C   0  0  0  0  0  3  0  0  0  0  0  0
  187.3640  175.7690  137.2920 C   0  0  0  0  0  3  0  0  0  0  0  0
  184.1150  173.1460  136.7900 C   0  0  0  0  0  0  0  0  0  0  0  0
  183.8970  174.5290  136.8620 C   0  0  0  0  0  3  0  0  0  0  0  0
  184.9730  175.4050  137.0280 C   0  0  0  0  0  0  0  0  0  0  0  0
  186.5050  173.5160  137.0550 C   0  0  0  0  0  3  0  0  0  0  0  0
  186.2870  174.8940  137.1240 C   0  0  0  0  0  0  0  0  0  0  0  0
  185.4230  172.6470  136.8870 C   0  0  0  0  0  3  0  0  0  0  0  0
  187.1400  177.1490  137.3600 C   0  0  0  0  0  0  0  0  0  0  0  0
  185.8360  177.6530  137.2690 C   0  0  0  0  0  3  0  0  0  0  0  0
  182.9770  172.2290  136.6150 C   0  0  0  0  0  0  0  0  0  0  0  0
  182.9760  171.1000  137.1730 O   0  0  0  0  0  1  0  0  0  0  0  0
  181.8910  172.6030  135.8310 O   0  0  0  0  0  0  0  0  0  0  0  0
  1 17  2  0  0  0  0
  2 12  1  0  0  0  0
  3 15  1  0  0  0  0
  4  8  2  0  0  0  0
  4  5  1  0  0  0  0
  5  1  1  0  0  0  0
  6  7  1  0  0  0  0
  6 10  2  0  0  0  0
  7 11  2  0  0  0  0
  8  6  1  0  0  0  0
  9  3  2  0  0  0  0
 10  1  1  0  0  0  0
 10  9  1  0  0  0  0
 11  9  1  0  0  0  0
 13 12  2  0  0  0  0
 13 18  1  0  0  0  0
 14 13  1  0  0  0  0
 15  2  2  0  0  0  0
 16 17  1  0  0  0  0
 16 14  2  0  0  0  0
 17 15  1  0  0  0  0
 18 20  1  0  0  0  0
 19 18  2  0  0  0  0
 21  4  1  0  0  0  0
 22 31  1  0  0  0  0
 23 30  1  0  0  0  0
 24 25  2  0  0  0  0
 24 29  1  0  0  0  0
 25 26  1  0  0  0  0
 26 22  2  0  0  0  0
 26 28  1  0  0  0  0
 27 28  1  0  0  0  0
 28 23  2  0  0  0  0
 29 27  2  0  0  0  0
 30 21  1  0  0  0  0
 31 30  2  0  0  0  0
 32 24  1  0  0  0  0
 32 33  1  0  0  0  0
 34 32  2  0  0  0  0
M  END
>  <MODEL>
9

>  <REMARK>
 VINA RESULT:     -11.3      4.998      6.766
  Name = 
  4 active torsions:
  status: ('A' for Active; 'I' for Inactive)
    1  A    between atoms: C_3  and  C_25
    2  A    between atoms: C_7  and  C_11
    3  A    between atoms: C_8  and  C_18
    4  A    between atoms: C_18  and  C_30
                            x       y       z     vdW  Elec       q    Type
                         _______ _______ _______ _____ _____    ______ ____

>  <TORSDO>
F 4

$$$$
