=
 OpenBabel10262419373D

 31 34  0  0  1  0  0  0  0  0999 V2000
  187.4930  178.4550  136.9240 C   0  0  0  0  0  0  0  0  0  0  0  0
  190.7010  177.2990  138.5850 C   0  0  1  0  0  3  0  0  0  0  0  0
  190.9670  175.9270  138.0130 C   0  0  0  0  0  0  0  0  0  0  0  0
  190.7100  173.7970  137.1230 N   0  0  0  0  0  0  0  0  0  0  0  0
  189.2680  177.7270  138.4090 C   0  0  0  0  0  0  0  0  0  0  0  0
  186.5830  178.4050  137.9820 C   0  0  0  0  0  3  0  0  0  0  0  0
  189.9240  174.9310  137.5940 C   0  0  0  0  0  3  0  0  0  0  0  0
  190.1750  176.7600  140.9990 C   0  0  1  0  0  3  0  0  0  0  0  0
  187.0570  178.8460  135.6280 N   0  0  0  0  0  1  0  0  0  0  0  0
  193.5070  177.1960  139.0810 C   0  0  0  0  0  2  0  0  0  0  0  0
  191.9590  174.0810  137.2610 C   0  0  0  0  0  0  0  0  0  0  0  0
  188.7670  177.3570  140.8840 C   0  0  0  0  0  2  0  0  0  0  0  0
  191.1740  177.4410  140.0480 C   0  0  1  0  0  3  0  0  0  0  0  0
  188.8310  178.1170  137.1370 C   0  0  0  0  0  3  0  0  0  0  0  0
  192.9990  173.1810  136.8900 N   0  0  0  0  0  1  0  0  0  0  0  0
  188.3450  177.6680  139.4760 C   0  0  0  0  0  0  0  0  0  0  0  0
  187.0110  178.0200  139.2540 C   0  0  0  0  0  3  0  0  0  0  0  0
  192.6080  176.9360  140.2830 C   0  0  0  0  0  2  0  0  0  0  0  0
  193.5210  175.9970  138.1260 C   0  0  0  0  0  2  0  0  0  0  0  0
  192.1710  175.3980  137.8190 C   0  0  2  0  0  3  0  0  0  0  0  0
  190.6250  176.7500  142.3970 N   0  0  0  0  0  2  0  0  0  0  0  0
  189.8590  177.7020  143.2010 C   0  0  2  0  0  3  0  0  0  0  0  0
  191.7050  178.4260  144.4840 O   0  0  0  0  0  0  0  0  0  0  0  0
  190.7910  178.7390  143.7400 C   0  0  0  0  0  3  0  0  0  0  0  0
  189.1710  176.9580  144.3440 C   0  0  0  0  0  2  0  0  0  0  0  0
  188.5160  177.8360  146.4910 O   0  0  0  0  0  1  0  0  0  0  0  0
  188.1990  177.8380  145.1320 C   0  0  2  0  0  3  0  0  0  0  0  0
  186.7500  177.4180  144.9330 C   0  0  0  0  0  2  0  0  0  0  0  0
  185.9740  178.5310  144.4090 N   0  0  0  0  0  0  0  0  0  0  0  0
  184.8610  178.7370  145.3190 C   0  0  0  0  0  1  0  0  0  0  0  0
  185.3990  178.0850  143.1530 C   0  0  0  0  0  1  0  0  0  0  0  0
  1 14  2  0  0  0  0
  1  6  1  0  0  0  0
  2  3  1  1  0  0  0
  2 13  1  0  0  0  0
  4 11  2  0  0  0  0
  4  7  1  0  0  0  0
  5  2  1  0  0  0  0
  5 16  2  0  0  0  0
  6 17  2  0  0  0  0
  7  3  2  0  0  0  0
  8 21  1  1  0  0  0
  9  1  1  0  0  0  0
 10 18  1  0  0  0  0
 11 20  1  0  0  0  0
 12  8  1  0  0  0  0
 13 18  1  6  0  0  0
 13  8  1  0  0  0  0
 14  5  1  0  0  0  0
 15 11  1  0  0  0  0
 16 12  1  0  0  0  0
 17 16  1  0  0  0  0
 19 10  1  0  0  0  0
 20  3  1  0  0  0  0
 20 19  1  1  0  0  0
 21 22  1  0  0  0  0
 22 24  1  1  0  0  0
 22 25  1  0  0  0  0
 24 23  2  0  0  0  0
 25 27  1  0  0  0  0
 27 26  1  1  0  0  0
 28 27  1  0  0  0  0
 29 28  1  0  0  0  0
 29 30  1  0  0  0  0
 31 29  1  0  0  0  0
M  END
>  <MODEL>
1

>  <REMARK>
 VINA RESULT:      -6.4      0.000      0.000
  Name = 
  7 active torsions:
  status: ('A' for Active; 'I' for Inactive)
    1  A    between atoms: N_1  and  C_24
    2  A    between atoms: C_7  and  CA_9
    3  A    between atoms: C_7  and  C_19
    4  A    between atoms: CA_9  and  C_22
    5  A    between atoms: CA_9  and  N_23
    6  A    between atoms: C_15  and  N_23
    7  A    between atoms: C_19  and  C_24
                            x       y       z     vdW  Elec       q    Type
                         _______ _______ _______ _____ _____    ______ ____

>  <TORSDO>
F 7

$$$$
=
 OpenBabel10262419373D

 31 34  0  0  1  0  0  0  0  0999 V2000
  192.1240  177.5300  140.7060 C   0  0  0  0  0  0  0  0  0  0  0  0
  190.5600  177.6190  144.1590 C   0  0  1  0  0  3  0  0  0  0  0  0
  191.2610  176.5290  144.9360 C   0  0  0  0  0  0  0  0  0  0  0  0
  192.3560  174.5690  145.5290 N   0  0  0  0  0  0  0  0  0  0  0  0
  190.7050  177.4460  142.6710 C   0  0  0  0  0  0  0  0  0  0  0  0
  191.0830  177.0200  139.9280 C   0  0  0  0  0  3  0  0  0  0  0  0
  191.7830  175.2400  144.3680 C   0  0  0  0  0  3  0  0  0  0  0  0
  188.2140  176.6930  143.9740 C   0  0  1  0  0  3  0  0  0  0  0  0
  193.3800  177.8290  140.1070 N   0  0  0  0  0  1  0  0  0  0  0  0
  190.0560  178.6110  146.7850 C   0  0  0  0  0  2  0  0  0  0  0  0
  192.1820  175.3190  146.5620 C   0  0  0  0  0  0  0  0  0  0  0  0
  188.2800  176.6800  142.4420 C   0  0  0  0  0  2  0  0  0  0  0  0
  189.0870  177.8040  144.5830 C   0  0  1  0  0  3  0  0  0  0  0  0
  191.9350  177.7420  142.0720 C   0  0  0  0  0  3  0  0  0  0  0  0
  192.6310  174.9530  147.8630 N   0  0  0  0  0  1  0  0  0  0  0  0
  189.6550  176.9220  141.8850 C   0  0  0  0  0  0  0  0  0  0  0  0
  189.8520  176.7240  140.5150 C   0  0  0  0  0  3  0  0  0  0  0  0
  188.8910  177.9010  146.1050 C   0  0  0  0  0  2  0  0  0  0  0  0
  191.1230  177.6140  147.2480 C   0  0  0  0  0  2  0  0  0  0  0  0
  191.4960  176.5520  146.2440 C   0  0  2  0  0  3  0  0  0  0  0  0
  186.8200  176.7370  144.4350 N   0  0  0  0  0  2  0  0  0  0  0  0
  186.2090  178.0320  144.1350 C   0  0  2  0  0  3  0  0  0  0  0  0
  184.5860  179.2640  145.3290 O   0  0  0  0  0  0  0  0  0  0  0  0
  185.5910  178.5750  145.3830 C   0  0  0  0  0  3  0  0  0  0  0  0
  185.1500  177.8510  143.0500 C   0  0  0  0  0  2  0  0  0  0  0  0
  185.8020  179.9760  142.1160 O   0  0  0  0  0  1  0  0  0  0  0  0
  185.4380  178.6690  141.7900 C   0  0  2  0  0  3  0  0  0  0  0  0
  184.2590  178.6800  140.8280 C   0  0  0  0  0  2  0  0  0  0  0  0
  184.5730  179.4860  139.6590 N   0  0  0  0  0  0  0  0  0  0  0  0
  183.3090  179.8520  139.0440 C   0  0  0  0  0  1  0  0  0  0  0  0
  185.2490  178.6120  138.7170 C   0  0  0  0  0  1  0  0  0  0  0  0
  1 14  1  0  0  0  0
  2  5  1  6  0  0  0
  2 13  1  0  0  0  0
  2  3  1  0  0  0  0
  3 20  1  0  0  0  0
  4 11  2  0  0  0  0
  6 17  1  0  0  0  0
  6  1  2  0  0  0  0
  7  3  2  0  0  0  0
  7  4  1  0  0  0  0
  8 21  1  6  0  0  0
  8 13  1  0  0  0  0
  9  1  1  0  0  0  0
 10 19  1  0  0  0  0
 11 15  1  0  0  0  0
 12  8  1  0  0  0  0
 13 18  1  1  0  0  0
 14  5  2  0  0  0  0
 16 12  1  0  0  0  0
 16  5  1  0  0  0  0
 17 16  2  0  0  0  0
 18 10  1  0  0  0  0
 20 11  1  0  0  0  0
 20 19  1  1  0  0  0
 22 25  1  6  0  0  0
 22 21  1  0  0  0  0
 22 24  1  0  0  0  0
 23 24  2  0  0  0  0
 27 26  1  1  0  0  0
 27 25  1  0  0  0  0
 28 27  1  0  0  0  0
 29 28  1  0  0  0  0
 30 29  1  0  0  0  0
 31 29  1  0  0  0  0
M  END
>  <MODEL>
2

>  <REMARK>
 VINA RESULT:      -6.4      2.965      6.316
  Name = 
  7 active torsions:
  status: ('A' for Active; 'I' for Inactive)
    1  A    between atoms: N_1  and  C_24
    2  A    between atoms: C_7  and  CA_9
    3  A    between atoms: C_7  and  C_19
    4  A    between atoms: CA_9  and  C_22
    5  A    between atoms: CA_9  and  N_23
    6  A    between atoms: C_15  and  N_23
    7  A    between atoms: C_19  and  C_24
                            x       y       z     vdW  Elec       q    Type
                         _______ _______ _______ _____ _____    ______ ____

>  <TORSDO>
F 7

$$$$
=
 OpenBabel10262419373D

 31 34  0  0  1  0  0  0  0  0999 V2000
  190.8160  176.5340  143.7800 C   0  0  0  0  0  0  0  0  0  0  0  0
  190.1600  176.2580  140.0550 C   0  0  1  0  0  3  0  0  0  0  0  0
  191.4730  176.6160  139.3980 C   0  0  0  0  0  0  0  0  0  0  0  0
  193.5400  177.5620  138.9210 N   0  0  0  0  0  0  0  0  0  0  0  0
  190.0800  176.7430  141.4770 C   0  0  0  0  0  0  0  0  0  0  0  0
  190.0830  177.6730  144.1210 C   0  0  0  0  0  3  0  0  0  0  0  0
  192.4820  177.5960  139.9240 C   0  0  0  0  0  2  0  0  0  0  0  0
  188.6950  178.2040  139.3770 C   0  0  1  0  0  3  0  0  0  0  0  0
  191.5680  175.8480  144.7730 N   0  0  0  0  0  1  0  0  0  0  0  0
  189.7280  174.9490  137.5580 C   0  0  0  0  0  2  0  0  0  0  0  0
  193.1970  176.7350  137.9940 C   0  0  0  0  0  0  0  0  0  0  0  0
  188.4570  178.6060  140.8380 C   0  0  0  0  0  2  0  0  0  0  0  0
  188.9350  176.6930  139.2220 C   0  0  1  0  0  3  0  0  0  0  0  0
  190.8140  176.0710  142.4630 C   0  0  0  0  0  3  0  0  0  0  0  0
  194.0160  176.4660  136.8600 N   0  0  0  0  0  1  0  0  0  0  0  0
  189.3460  177.8990  141.8220 C   0  0  0  0  0  0  0  0  0  0  0  0
  189.3450  178.3470  143.1460 C   0  0  0  0  0  3  0  0  0  0  0  0
  189.0200  176.2860  137.7410 C   0  0  0  0  0  2  0  0  0  0  0  0
  191.2300  175.1410  137.3220 C   0  0  0  0  0  2  0  0  0  0  0  0
  191.9100  176.1240  138.2430 C   0  0  0  0  0  0  0  0  0  0  0  0
  187.6180  178.7090  138.5150 N   0  0  0  0  0  2  0  0  0  0  0  0
  186.3460  178.0600  138.8320 C   0  0  2  0  0  3  0  0  0  0  0  0
  186.2110  177.8620  136.4830 O   0  0  0  0  0  0  0  0  0  0  0  0
  185.7200  177.5790  137.5630 C   0  0  0  0  0  3  0  0  0  0  0  0
  185.4300  179.0610  139.5330 C   0  0  0  0  0  2  0  0  0  0  0  0
  183.2900  178.4750  140.4770 O   0  0  0  0  0  1  0  0  0  0  0  0
  184.6660  178.4510  140.7100 C   0  0  2  0  0  3  0  0  0  0  0  0
  184.9850  179.1450  142.0260 C   0  0  0  0  0  2  0  0  0  0  0  0
  184.5330  178.3320  143.1440 N   0  0  0  0  0  0  0  0  0  0  0  0
  183.6120  179.1480  143.9160 C   0  0  0  0  0  1  0  0  0  0  0  0
  185.6900  178.1060  143.9910 C   0  0  0  0  0  1  0  0  0  0  0  0
  1  6  1  0  0  0  0
  1  9  1  0  0  0  0
  2  3  1  6  0  0  0
  2  5  1  0  0  0  0
  3  7  1  0  0  0  0
  4  7  1  0  0  0  0
  5 16  2  0  0  0  0
  5 14  1  0  0  0  0
  8 21  1  6  0  0  0
  8 12  1  0  0  0  0
 10 18  1  0  0  0  0
 11 20  1  0  0  0  0
 11  4  2  0  0  0  0
 12 16  1  0  0  0  0
 13 18  1  6  0  0  0
 13  8  1  0  0  0  0
 13  2  1  0  0  0  0
 14  1  2  0  0  0  0
 15 11  1  0  0  0  0
 16 17  1  0  0  0  0
 17  6  2  0  0  0  0
 19 10  1  0  0  0  0
 19 20  1  0  0  0  0
 20  3  2  0  0  0  0
 21 22  1  0  0  0  0
 22 24  1  6  0  0  0
 22 25  1  0  0  0  0
 23 24  2  0  0  0  0
 25 27  1  0  0  0  0
 27 26  1  6  0  0  0
 27 28  1  0  0  0  0
 28 29  1  0  0  0  0
 29 30  1  0  0  0  0
 29 31  1  0  0  0  0
M  END
>  <MODEL>
3

>  <REMARK>
 VINA RESULT:      -6.0      2.847      5.128
  Name = 
  7 active torsions:
  status: ('A' for Active; 'I' for Inactive)
    1  A    between atoms: N_1  and  C_24
    2  A    between atoms: C_7  and  CA_9
    3  A    between atoms: C_7  and  C_19
    4  A    between atoms: CA_9  and  C_22
    5  A    between atoms: CA_9  and  N_23
    6  A    between atoms: C_15  and  N_23
    7  A    between atoms: C_19  and  C_24
                            x       y       z     vdW  Elec       q    Type
                         _______ _______ _______ _____ _____    ______ ____

>  <TORSDO>
F 7

$$$$
=
 OpenBabel10262419373D

 31 34  0  0  1  0  0  0  0  0999 V2000
  187.2790  178.0760  136.0220 C   0  0  0  0  0  0  0  0  0  0  0  0
  190.5490  176.9810  137.6000 C   0  0  1  0  0  3  0  0  0  0  0  0
  190.6820  175.5170  137.2500 C   0  0  0  0  0  0  0  0  0  0  0  0
  190.2230  173.2940  136.7600 N   0  0  0  0  0  0  0  0  0  0  0  0
  189.1340  177.4760  137.4660 C   0  0  0  0  0  0  0  0  0  0  0  0
  186.4660  178.2680  137.1410 C   0  0  0  0  0  3  0  0  0  0  0  0
  189.5490  174.5440  137.0900 C   0  0  0  0  0  2  0  0  0  0  0  0
  190.2120  176.8870  140.1040 C   0  0  1  0  0  3  0  0  0  0  0  0
  186.7520  178.2790  134.7170 N   0  0  0  0  0  1  0  0  0  0  0  0
  193.3780  176.7560  137.8840 C   0  0  0  0  0  2  0  0  0  0  0  0
  191.4940  173.5050  136.7490 C   0  0  0  0  0  0  0  0  0  0  0  0
  188.8360  177.5580  139.9990 C   0  0  0  0  0  2  0  0  0  0  0  0
  191.1600  177.3270  138.9750 C   0  0  1  0  0  3  0  0  0  0  0  0
  188.6080  177.6820  136.1840 C   0  0  0  0  0  3  0  0  0  0  0  0
  192.4420  172.4830  136.4570 N   0  0  0  0  0  1  0  0  0  0  0  0
  188.3090  177.6620  138.5960 C   0  0  0  0  0  0  0  0  0  0  0  0
  186.9820  178.0680  138.4230 C   0  0  0  0  0  3  0  0  0  0  0  0
  192.5760  176.7650  139.1790 C   0  0  0  0  0  2  0  0  0  0  0  0
  193.2360  175.4190  137.1490 C   0  0  0  0  0  2  0  0  0  0  0  0
  191.8310  174.8770  137.0560 C   0  0  0  0  0  0  0  0  0  0  0  0
  190.7840  177.0750  141.4430 N   0  0  0  0  0  2  0  0  0  0  0  0
  190.1680  176.1660  142.4090 C   0  0  2  0  0  3  0  0  0  0  0  0
  187.9650  175.8490  143.1980 O   0  0  0  0  0  0  0  0  0  0  0  0
  188.7540  176.5920  142.6400 C   0  0  0  0  0  3  0  0  0  0  0  0
  190.9580  176.2070  143.7160 C   0  0  0  0  0  2  0  0  0  0  0  0
  191.3800  178.5150  144.2680 O   0  0  0  0  0  1  0  0  0  0  0  0
  190.6000  177.4060  144.5960 C   0  0  2  0  0  3  0  0  0  0  0  0
  190.7340  177.0920  146.0790 C   0  0  0  0  0  2  0  0  0  0  0  0
  189.4190  177.0060  146.6940 N   0  0  0  0  0  0  0  0  0  0  0  0
  188.5340  177.8620  145.9230 C   0  0  0  0  0  1  0  0  0  0  0  0
  189.5320  177.6100  148.0090 C   0  0  0  0  0  1  0  0  0  0  0  0
  1 14  2  0  0  0  0
  1  6  1  0  0  0  0
  2  3  1  1  0  0  0
  2 13  1  0  0  0  0
  4  7  1  0  0  0  0
  5  2  1  0  0  0  0
  5 16  2  0  0  0  0
  6 17  2  0  0  0  0
  7  3  1  0  0  0  0
  8 21  1  1  0  0  0
  9  1  1  0  0  0  0
 10 18  1  0  0  0  0
 11  4  2  0  0  0  0
 11 20  1  0  0  0  0
 12  8  1  0  0  0  0
 13 18  1  1  0  0  0
 13  8  1  0  0  0  0
 14  5  1  0  0  0  0
 15 11  1  0  0  0  0
 16 12  1  0  0  0  0
 17 16  1  0  0  0  0
 19 10  1  0  0  0  0
 20 19  1  0  0  0  0
 20  3  2  0  0  0  0
 21 22  1  0  0  0  0
 22 24  1  1  0  0  0
 22 25  1  0  0  0  0
 24 23  2  0  0  0  0
 25 27  1  0  0  0  0
 27 26  1  6  0  0  0
 27 28  1  0  0  0  0
 28 29  1  0  0  0  0
 29 31  1  0  0  0  0
 30 29  1  0  0  0  0
M  END
>  <MODEL>
4

>  <REMARK>
 VINA RESULT:      -6.0      1.717      2.356
  Name = 
  7 active torsions:
  status: ('A' for Active; 'I' for Inactive)
    1  A    between atoms: N_1  and  C_24
    2  A    between atoms: C_7  and  CA_9
    3  A    between atoms: C_7  and  C_19
    4  A    between atoms: CA_9  and  C_22
    5  A    between atoms: CA_9  and  N_23
    6  A    between atoms: C_15  and  N_23
    7  A    between atoms: C_19  and  C_24
                            x       y       z     vdW  Elec       q    Type
                         _______ _______ _______ _____ _____    ______ ____

>  <TORSDO>
F 7

$$$$
=
 OpenBabel10262419373D

 31 34  0  0  1  0  0  0  0  0999 V2000
  181.5570  175.3730  137.9400 C   0  0  0  0  0  0  0  0  0  0  0  0
  182.1830  177.7460  140.8310 C   0  0  1  0  0  3  0  0  0  0  0  0
  181.2320  178.8990  140.6050 C   0  0  0  0  0  0  0  0  0  0  0  0
  179.8910  180.5190  139.6210 N   0  0  0  0  0  0  0  0  0  0  0  0
  182.4140  176.9410  139.5800 C   0  0  0  0  0  0  0  0  0  0  0  0
  182.7250  175.5140  137.1890 C   0  0  0  0  0  3  0  0  0  0  0  0
  180.7870  179.4240  139.2700 C   0  0  0  0  0  3  0  0  0  0  0  0
  184.4290  178.8480  140.4600 C   0  0  1  0  0  3  0  0  0  0  0  0
  180.5210  174.5080  137.4890 N   0  0  0  0  0  1  0  0  0  0  0  0
  182.0610  178.6970  143.5170 C   0  0  0  0  0  2  0  0  0  0  0  0
  179.8440  180.6130  140.9050 C   0  0  0  0  0  0  0  0  0  0  0  0
  184.7580  177.9110  139.2910 C   0  0  0  0  0  2  0  0  0  0  0  0
  183.5060  178.1820  141.4960 C   0  0  1  0  0  3  0  0  0  0  0  0
  181.4020  176.0830  139.1310 C   0  0  0  0  0  3  0  0  0  0  0  0
  179.0520  181.5870  141.5770 N   0  0  0  0  0  1  0  0  0  0  0  0
  183.5920  177.0890  138.8160 C   0  0  0  0  0  0  0  0  0  0  0  0
  183.7410  176.3630  137.6300 C   0  0  0  0  0  3  0  0  0  0  0  0
  183.3100  179.0770  142.7310 C   0  0  0  0  0  2  0  0  0  0  0  0
  180.8460  179.5090  143.0590 C   0  0  0  0  0  2  0  0  0  0  0  0
  180.6710  179.6270  141.5650 C   0  0  2  0  0  3  0  0  0  0  0  0
  185.6570  179.3970  141.0500 N   0  0  0  0  0  2  0  0  0  0  0  0
  186.6390  178.3410  141.2940 C   0  0  2  0  0  3  0  0  0  0  0  0
  187.2530  177.1360  143.2300 O   0  0  0  0  0  0  0  0  0  0  0  0
  186.8110  178.1750  142.7690 C   0  0  0  0  0  3  0  0  0  0  0  0
  187.9650  178.7230  140.6410 C   0  0  0  0  0  2  0  0  0  0  0  0
  190.0400  177.5650  141.0450 O   0  0  0  0  0  1  0  0  0  0  0  0
  188.8470  177.5140  140.3230 C   0  0  2  0  0  3  0  0  0  0  0  0
  189.1410  177.3910  138.8350 C   0  0  0  0  0  2  0  0  0  0  0  0
  188.2250  178.2230  138.0730 N   0  0  0  0  0  0  0  0  0  0  0  0
  187.5640  177.3560  137.1130 C   0  0  0  0  0  1  0  0  0  0  0  0
  189.0390  179.1430  137.3000 C   0  0  0  0  0  1  0  0  0  0  0  0
  1 14  1  0  0  0  0
  2  5  1  6  0  0  0
  2 13  1  0  0  0  0
  3  2  1  0  0  0  0
  3 20  1  0  0  0  0
  4 11  2  0  0  0  0
  6 17  1  0  0  0  0
  6  1  2  0  0  0  0
  7  4  1  0  0  0  0
  7  3  2  0  0  0  0
  8 21  1  1  0  0  0
  8 13  1  0  0  0  0
  9  1  1  0  0  0  0
 11 20  1  0  0  0  0
 11 15  1  0  0  0  0
 12  8  1  0  0  0  0
 13 18  1  1  0  0  0
 14  5  2  0  0  0  0
 16 12  1  0  0  0  0
 16  5  1  0  0  0  0
 17 16  2  0  0  0  0
 18 10  1  0  0  0  0
 19 10  1  0  0  0  0
 20 19  1  6  0  0  0
 21 22  1  0  0  0  0
 22 25  1  6  0  0  0
 22 24  1  0  0  0  0
 24 23  2  0  0  0  0
 27 25  1  0  0  0  0
 27 26  1  1  0  0  0
 28 27  1  0  0  0  0
 29 28  1  0  0  0  0
 30 29  1  0  0  0  0
 31 29  1  0  0  0  0
M  END
>  <MODEL>
5

>  <REMARK>
 VINA RESULT:      -5.9      4.388      8.696
  Name = 
  7 active torsions:
  status: ('A' for Active; 'I' for Inactive)
    1  A    between atoms: N_1  and  C_24
    2  A    between atoms: C_7  and  CA_9
    3  A    between atoms: C_7  and  C_19
    4  A    between atoms: CA_9  and  C_22
    5  A    between atoms: CA_9  and  N_23
    6  A    between atoms: C_15  and  N_23
    7  A    between atoms: C_19  and  C_24
                            x       y       z     vdW  Elec       q    Type
                         _______ _______ _______ _____ _____    ______ ____

>  <TORSDO>
F 7

$$$$
=
 OpenBabel10262419373D

 31 34  0  0  1  0  0  0  0  0999 V2000
  180.2660  179.5410  142.2070 C   0  0  0  0  0  0  0  0  0  0  0  0
  183.5730  178.7820  140.5110 C   0  0  1  0  0  3  0  0  0  0  0  0
  183.3550  177.4690  139.7970 C   0  0  0  0  0  0  0  0  0  0  0  0
  182.6190  175.3430  139.2190 N   0  0  0  0  0  0  0  0  0  0  0  0
  182.5550  179.0210  141.5950 C   0  0  0  0  0  0  0  0  0  0  0  0
  180.5790  179.3490  143.5540 C   0  0  0  0  0  3  0  0  0  0  0  0
  182.4610  176.3540  140.2590 C   0  0  0  0  0  2  0  0  0  0  0  0
  185.2330  178.1270  142.3030 C   0  0  1  0  0  3  0  0  0  0  0  0
  178.9430  179.8980  141.8280 N   0  0  0  0  0  1  0  0  0  0  0  0
  185.6400  179.0380  138.5640 C   0  0  0  0  0  2  0  0  0  0  0  0
  183.4530  175.7860  138.3430 C   0  0  0  0  0  0  0  0  0  0  0  0
  184.2690  178.5370  143.4240 C   0  0  0  0  0  2  0  0  0  0  0  0
  185.0190  178.9540  141.0230 C   0  0  1  0  0  3  0  0  0  0  0  0
  181.2510  179.3780  141.2310 C   0  0  0  0  0  3  0  0  0  0  0  0
  183.8270  175.0390  137.1890 N   0  0  0  0  0  1  0  0  0  0  0  0
  182.8690  178.8190  142.9570 C   0  0  0  0  0  0  0  0  0  0  0  0
  181.8780  178.9970  143.9270 C   0  0  0  0  0  3  0  0  0  0  0  0
  186.0890  178.6370  139.9640 C   0  0  0  0  0  2  0  0  0  0  0  0
  184.9560  177.8730  137.8430 C   0  0  0  0  0  2  0  0  0  0  0  0
  183.9460  177.1070  138.6630 C   0  0  0  0  0  0  0  0  0  0  0  0
  186.6230  178.1480  142.7770 N   0  0  0  0  0  2  0  0  0  0  0  0
  186.8890  177.0200  143.6700 C   0  0  2  0  0  3  0  0  0  0  0  0
  188.0790  178.2590  145.2900 O   0  0  0  0  0  0  0  0  0  0  0  0
  187.1220  177.5430  145.0500 C   0  0  0  0  0  3  0  0  0  0  0  0
  188.1170  176.2610  143.1720 C   0  0  0  0  0  2  0  0  0  0  0  0
  188.6890  177.0180  140.9560 O   0  0  0  0  0  1  0  0  0  0  0  0
  189.0400  177.1170  142.3040 C   0  0  2  0  0  3  0  0  0  0  0  0
  190.5060  176.7540  142.4900 C   0  0  0  0  0  2  0  0  0  0  0  0
  190.8040  176.5840  143.9030 N   0  0  0  0  0  0  0  0  0  0  0  0
  191.3510  177.8440  144.3760 C   0  0  0  0  0  1  0  0  0  0  0  0
  191.8790  175.6120  143.9900 C   0  0  0  0  0  1  0  0  0  0  0  0
  1  6  1  0  0  0  0
  2  3  1  1  0  0  0
  2 13  1  0  0  0  0
  2  5  1  0  0  0  0
  3  7  1  0  0  0  0
  4  7  1  0  0  0  0
  5 16  2  0  0  0  0
  6 17  2  0  0  0  0
  8 21  1  1  0  0  0
  8 12  1  0  0  0  0
  9  1  1  0  0  0  0
 10 18  1  0  0  0  0
 11 20  1  0  0  0  0
 11  4  2  0  0  0  0
 13 18  1  6  0  0  0
 13  8  1  0  0  0  0
 14  5  1  0  0  0  0
 14  1  2  0  0  0  0
 15 11  1  0  0  0  0
 16 12  1  0  0  0  0
 16 17  1  0  0  0  0
 19 10  1  0  0  0  0
 19 20  1  0  0  0  0
 20  3  2  0  0  0  0
 21 22  1  0  0  0  0
 22 25  1  6  0  0  0
 22 24  1  0  0  0  0
 24 23  2  0  0  0  0
 27 26  1  6  0  0  0
 27 28  1  0  0  0  0
 27 25  1  0  0  0  0
 28 29  1  0  0  0  0
 29 31  1  0  0  0  0
 29 30  1  0  0  0  0
M  END
>  <MODEL>
6

>  <REMARK>
 VINA RESULT:      -5.9      3.661      6.956
  Name = 
  7 active torsions:
  status: ('A' for Active; 'I' for Inactive)
    1  A    between atoms: N_1  and  C_24
    2  A    between atoms: C_7  and  CA_9
    3  A    between atoms: C_7  and  C_19
    4  A    between atoms: CA_9  and  C_22
    5  A    between atoms: CA_9  and  N_23
    6  A    between atoms: C_15  and  N_23
    7  A    between atoms: C_19  and  C_24
                            x       y       z     vdW  Elec       q    Type
                         _______ _______ _______ _____ _____    ______ ____

>  <TORSDO>
F 7

$$$$
=
 OpenBabel10262419373D

 31 34  0  0  1  0  0  0  0  0999 V2000
  182.1370  178.3170  140.9030 C   0  0  0  0  0  0  0  0  0  0  0  0
  185.4340  177.7240  142.6810 C   0  0  1  0  0  3  0  0  0  0  0  0
  185.3690  178.5810  143.9230 C   0  0  0  0  0  0  0  0  0  0  0  0
  184.9140  180.2900  145.4280 N   0  0  0  0  0  0  0  0  0  0  0  0
  184.4450  178.1580  141.6320 C   0  0  0  0  0  0  0  0  0  0  0  0
  182.5370  179.0550  139.7870 C   0  0  0  0  0  3  0  0  0  0  0  0
  184.6640  179.9010  144.0450 C   0  0  0  0  0  3  0  0  0  0  0  0
  187.2520  178.8730  141.3520 C   0  0  1  0  0  3  0  0  0  0  0  0
  180.7600  178.0240  141.1060 N   0  0  0  0  0  1  0  0  0  0  0  0
  187.3510  176.3060  144.2460 C   0  0  0  0  0  2  0  0  0  0  0  0
  185.6350  179.3790  145.9850 C   0  0  0  0  0  0  0  0  0  0  0  0
  186.2950  179.1670  140.1910 C   0  0  0  0  0  2  0  0  0  0  0  0
  186.8640  177.5950  142.1150 C   0  0  1  0  0  3  0  0  0  0  0  0
  183.0880  177.8700  141.8220 C   0  0  0  0  0  3  0  0  0  0  0  0
  186.0550  179.4530  147.3430 N   0  0  0  0  0  1  0  0  0  0  0  0
  184.8480  178.9120  140.5080 C   0  0  0  0  0  0  0  0  0  0  0  0
  183.8880  179.3440  139.5880 C   0  0  0  0  0  3  0  0  0  0  0  0
  187.9170  177.2320  143.1760 C   0  0  0  0  0  2  0  0  0  0  0  0
  186.8040  177.1000  145.4360 C   0  0  0  0  0  2  0  0  0  0  0  0
  185.9510  178.2930  145.0830 C   0  0  2  0  0  3  0  0  0  0  0  0
  188.6460  178.8680  140.8900 N   0  0  0  0  0  2  0  0  0  0  0  0
  188.8380  177.8990  139.8120 C   0  0  2  0  0  3  0  0  0  0  0  0
  190.4440  176.2120  139.4210 O   0  0  0  0  0  0  0  0  0  0  0  0
  189.8530  176.8910  140.2450 C   0  0  0  0  0  3  0  0  0  0  0  0
  189.3110  178.6270  138.5560 C   0  0  0  0  0  2  0  0  0  0  0  0
  187.7280  179.3770  136.8990 O   0  0  0  0  0  1  0  0  0  0  0  0
  188.4850  178.2810  137.3160 C   0  0  2  0  0  3  0  0  0  0  0  0
  187.5800  177.0780  137.5430 C   0  0  0  0  0  2  0  0  0  0  0  0
  186.5400  177.0350  136.5290 N   0  0  0  0  0  0  0  0  0  0  0  0
  185.2840  176.7930  137.2190 C   0  0  0  0  0  1  0  0  0  0  0  0
  186.7940  175.8580  135.7180 C   0  0  0  0  0  1  0  0  0  0  0  0
  1  9  1  0  0  0  0
  1 14  1  0  0  0  0
  2  5  1  6  0  0  0
  2  3  1  0  0  0  0
  3  7  2  0  0  0  0
  3 20  1  0  0  0  0
  4 11  2  0  0  0  0
  5 14  2  0  0  0  0
  6  1  2  0  0  0  0
  7  4  1  0  0  0  0
  8 21  1  6  0  0  0
  8 13  1  0  0  0  0
 10 19  1  0  0  0  0
 11 15  1  0  0  0  0
 12 16  1  0  0  0  0
 12  8  1  0  0  0  0
 13  2  1  0  0  0  0
 13 18  1  1  0  0  0
 16  5  1  0  0  0  0
 17  6  1  0  0  0  0
 17 16  2  0  0  0  0
 18 10  1  0  0  0  0
 20 19  1  6  0  0  0
 20 11  1  0  0  0  0
 22 25  1  6  0  0  0
 22 24  1  0  0  0  0
 22 21  1  0  0  0  0
 23 24  2  0  0  0  0
 27 26  1  1  0  0  0
 27 28  1  0  0  0  0
 27 25  1  0  0  0  0
 29 30  1  0  0  0  0
 29 28  1  0  0  0  0
 31 29  1  0  0  0  0
M  END
>  <MODEL>
7

>  <REMARK>
 VINA RESULT:      -5.8      3.240      7.632
  Name = 
  7 active torsions:
  status: ('A' for Active; 'I' for Inactive)
    1  A    between atoms: N_1  and  C_24
    2  A    between atoms: C_7  and  CA_9
    3  A    between atoms: C_7  and  C_19
    4  A    between atoms: CA_9  and  C_22
    5  A    between atoms: CA_9  and  N_23
    6  A    between atoms: C_15  and  N_23
    7  A    between atoms: C_19  and  C_24
                            x       y       z     vdW  Elec       q    Type
                         _______ _______ _______ _____ _____    ______ ____

>  <TORSDO>
F 7

$$$$
=
 OpenBabel10262419373D

 31 34  0  0  1  0  0  0  0  0999 V2000
  190.8440  176.4980  143.8230 C   0  0  0  0  0  0  0  0  0  0  0  0
  190.1640  176.2530  140.1000 C   0  0  1  0  0  3  0  0  0  0  0  0
  191.4790  176.5930  139.4380 C   0  0  0  0  0  0  0  0  0  0  0  0
  193.5580  177.5080  138.9550 N   0  0  0  0  0  0  0  0  0  0  0  0
  190.1000  176.7310  141.5260 C   0  0  0  0  0  0  0  0  0  0  0  0
  190.1320  177.6460  144.1750 C   0  0  0  0  0  3  0  0  0  0  0  0
  192.5070  177.5540  139.9640 C   0  0  0  0  0  2  0  0  0  0  0  0
  188.7280  178.2270  139.4410 C   0  0  1  0  0  3  0  0  0  0  0  0
  191.5910  175.7940  144.8090 N   0  0  0  0  0  1  0  0  0  0  0  0
  189.6970  174.9650  137.5990 C   0  0  0  0  0  2  0  0  0  0  0  0
  193.1970  176.6920  138.0250 C   0  0  0  0  0  0  0  0  0  0  0  0
  188.5040  178.6240  140.9060 C   0  0  0  0  0  2  0  0  0  0  0  0
  188.9420  176.7120  139.2770 C   0  0  1  0  0  3  0  0  0  0  0  0
  190.8280  176.0420  142.5040 C   0  0  0  0  0  3  0  0  0  0  0  0
  194.0060  176.4160  136.8860 N   0  0  0  0  0  1  0  0  0  0  0  0
  189.3870  177.8970  141.8810 C   0  0  0  0  0  0  0  0  0  0  0  0
  189.4000  178.3380  143.2080 C   0  0  0  0  0  3  0  0  0  0  0  0
  189.0120  176.3130  137.7940 C   0  0  0  0  0  2  0  0  0  0  0  0
  191.2000  175.1340  137.3560 C   0  0  0  0  0  2  0  0  0  0  0  0
  191.9020  176.1010  138.2780 C   0  0  0  0  0  0  0  0  0  0  0  0
  187.6540  178.7530  138.5880 N   0  0  0  0  0  2  0  0  0  0  0  0
  186.4280  177.9720  138.7460 C   0  0  2  0  0  3  0  0  0  0  0  0
  185.5020  176.8410  136.8910 O   0  0  0  0  0  0  0  0  0  0  0  0
  185.7210  177.9130  137.4310 C   0  0  0  0  0  3  0  0  0  0  0  0
  185.5410  178.6320  139.8000 C   0  0  0  0  0  2  0  0  0  0  0  0
  184.1860  180.4960  139.0920 O   0  0  0  0  0  1  0  0  0  0  0  0
  184.1990  179.1080  139.2410 C   0  0  2  0  0  3  0  0  0  0  0  0
  183.0260  178.6640  140.1020 C   0  0  0  0  0  2  0  0  0  0  0  0
  182.1450  177.7950  139.3380 N   0  0  0  0  0  0  0  0  0  0  0  0
  182.6840  176.4500  139.4390 C   0  0  0  0  0  1  0  0  0  0  0  0
  182.2760  178.1850  137.9460 C   0  0  0  0  0  1  0  0  0  0  0  0
  1  6  1  0  0  0  0
  1  9  1  0  0  0  0
  2  3  1  6  0  0  0
  2  5  1  0  0  0  0
  3  7  1  0  0  0  0
  4  7  1  0  0  0  0
  5 16  2  0  0  0  0
  5 14  1  0  0  0  0
  8 21  1  6  0  0  0
  8 12  1  0  0  0  0
 10 18  1  0  0  0  0
 11 20  1  0  0  0  0
 11  4  2  0  0  0  0
 12 16  1  0  0  0  0
 13 18  1  6  0  0  0
 13  8  1  0  0  0  0
 13  2  1  0  0  0  0
 14  1  2  0  0  0  0
 15 11  1  0  0  0  0
 16 17  1  0  0  0  0
 17  6  2  0  0  0  0
 19 10  1  0  0  0  0
 19 20  1  0  0  0  0
 20  3  2  0  0  0  0
 21 22  1  0  0  0  0
 22 24  1  6  0  0  0
 22 25  1  0  0  0  0
 23 24  2  0  0  0  0
 27 26  1  1  0  0  0
 27 25  1  0  0  0  0
 27 28  1  0  0  0  0
 29 30  1  0  0  0  0
 29 28  1  0  0  0  0
 31 29  1  0  0  0  0
M  END
>  <MODEL>
8

>  <REMARK>
 VINA RESULT:      -5.7      3.388      5.663
  Name = 
  7 active torsions:
  status: ('A' for Active; 'I' for Inactive)
    1  A    between atoms: N_1  and  C_24
    2  A    between atoms: C_7  and  CA_9
    3  A    between atoms: C_7  and  C_19
    4  A    between atoms: CA_9  and  C_22
    5  A    between atoms: CA_9  and  N_23
    6  A    between atoms: C_15  and  N_23
    7  A    between atoms: C_19  and  C_24
                            x       y       z     vdW  Elec       q    Type
                         _______ _______ _______ _____ _____    ______ ____

>  <TORSDO>
F 7

$$$$
=
 OpenBabel10262419373D

 31 34  0  0  1  0  0  0  0  0999 V2000
  182.0630  178.2710  140.9090 C   0  0  0  0  0  0  0  0  0  0  0  0
  185.3530  177.6980  142.7070 C   0  0  1  0  0  3  0  0  0  0  0  0
  185.2810  178.5650  143.9420 C   0  0  0  0  0  0  0  0  0  0  0  0
  184.8160  180.2870  145.4300 N   0  0  0  0  0  0  0  0  0  0  0  0
  184.3680  178.1220  141.6500 C   0  0  0  0  0  0  0  0  0  0  0  0
  182.4670  179.0000  139.7890 C   0  0  0  0  0  3  0  0  0  0  0  0
  184.5740  179.8860  144.0490 C   0  0  0  0  0  3  0  0  0  0  0  0
  187.1750  178.8390  141.3770 C   0  0  1  0  0  3  0  0  0  0  0  0
  180.6860  177.9770  141.1090 N   0  0  0  0  0  1  0  0  0  0  0  0
  187.2650  176.2970  144.2930 C   0  0  0  0  0  2  0  0  0  0  0  0
  185.5360  179.3810  145.9980 C   0  0  0  0  0  0  0  0  0  0  0  0
  186.2220  179.1220  140.2090 C   0  0  0  0  0  2  0  0  0  0  0  0
  186.7860  177.5660  142.1490 C   0  0  1  0  0  3  0  0  0  0  0  0
  183.0100  177.8330  141.8360 C   0  0  0  0  0  3  0  0  0  0  0  0
  185.9500  179.4670  147.3580 N   0  0  0  0  0  1  0  0  0  0  0  0
  184.7740  178.8660  140.5220 C   0  0  0  0  0  0  0  0  0  0  0  0
  183.8190  179.2890  139.5930 C   0  0  0  0  0  3  0  0  0  0  0  0
  187.8340  177.2140  143.2170 C   0  0  0  0  0  2  0  0  0  0  0  0
  186.7110  177.1000  145.4740 C   0  0  0  0  0  2  0  0  0  0  0  0
  185.8580  178.2890  145.1070 C   0  0  2  0  0  3  0  0  0  0  0  0
  188.5710  178.8320  140.9210 N   0  0  0  0  0  2  0  0  0  0  0  0
  188.7610  177.8820  139.8260 C   0  0  2  0  0  3  0  0  0  0  0  0
  190.6430  177.2250  141.0920 O   0  0  0  0  0  0  0  0  0  0  0  0
  189.8810  176.9570  140.1780 C   0  0  0  0  0  3  0  0  0  0  0  0
  189.0840  178.6470  138.5440 C   0  0  0  0  0  2  0  0  0  0  0  0
  187.4010  177.1420  137.6980 O   0  0  0  0  0  1  0  0  0  0  0  0
  188.3220  178.1220  137.3250 C   0  0  2  0  0  3  0  0  0  0  0  0
  189.2550  177.5810  136.2520 C   0  0  0  0  0  2  0  0  0  0  0  0
  189.6940  176.2390  136.5990 N   0  0  0  0  0  0  0  0  0  0  0  0
  191.1430  176.2760  136.6860 C   0  0  0  0  0  1  0  0  0  0  0  0
  189.3730  175.3880  135.4680 C   0  0  0  0  0  1  0  0  0  0  0  0
  1  9  1  0  0  0  0
  1 14  1  0  0  0  0
  2  5  1  6  0  0  0
  2  3  1  0  0  0  0
  3  7  2  0  0  0  0
  3 20  1  0  0  0  0
  4 11  2  0  0  0  0
  5 14  2  0  0  0  0
  6  1  2  0  0  0  0
  7  4  1  0  0  0  0
  8 21  1  6  0  0  0
  8 13  1  0  0  0  0
 10 19  1  0  0  0  0
 11 15  1  0  0  0  0
 12 16  1  0  0  0  0
 12  8  1  0  0  0  0
 13  2  1  0  0  0  0
 13 18  1  1  0  0  0
 16  5  1  0  0  0  0
 17  6  1  0  0  0  0
 17 16  2  0  0  0  0
 18 10  1  0  0  0  0
 20 19  1  6  0  0  0
 20 11  1  0  0  0  0
 22 25  1  6  0  0  0
 22 24  1  0  0  0  0
 22 21  1  0  0  0  0
 24 23  2  0  0  0  0
 27 26  1  1  0  0  0
 27 25  1  0  0  0  0
 28 29  1  0  0  0  0
 28 27  1  0  0  0  0
 29 30  1  0  0  0  0
 31 29  1  0  0  0  0
M  END
>  <MODEL>
9

>  <REMARK>
 VINA RESULT:      -5.5      2.852      7.837
  Name = 
  7 active torsions:
  status: ('A' for Active; 'I' for Inactive)
    1  A    between atoms: N_1  and  C_24
    2  A    between atoms: C_7  and  CA_9
    3  A    between atoms: C_7  and  C_19
    4  A    between atoms: CA_9  and  C_22
    5  A    between atoms: CA_9  and  N_23
    6  A    between atoms: C_15  and  N_23
    7  A    between atoms: C_19  and  C_24
                            x       y       z     vdW  Elec       q    Type
                         _______ _______ _______ _____ _____    ______ ____

>  <TORSDO>
F 7

$$$$
