=
 OpenBabel10262420263D

 55 60  0  0  1  0  0  0  0  0999 V2000
  187.8770  177.1970  142.5240 C   0  0  2  0  0  3  0  0  0  0  0  0
  184.3090  178.2730  138.1840 C   0  0  0  0  0  2  0  0  0  0  0  0
  185.9870  176.3060  136.9380 O   0  0  0  0  0  1  0  0  0  0  0  0
  182.4430  178.7440  139.7420 C   0  0  1  0  0  3  0  0  0  0  0  0
  190.7240  176.4890  136.7770 C   0  0  0  0  0  2  0  0  0  0  0  0
  192.1400  176.5420  136.8200 O   0  0  0  0  0  0  0  0  0  0  0  0
  190.6370  176.5110  139.2530 C   0  0  2  0  0  3  0  0  0  0  0  0
  191.7900  175.7290  139.0060 O   0  0  0  0  0  0  0  0  0  0  0  0
  187.8970  177.7630  136.8640 C   0  0  0  0  0  2  0  0  0  0  0  0
  192.6420  176.4570  138.1450 C   0  0  0  0  0  2  0  0  0  0  0  0
  187.2680  177.9540  144.8490 C   0  0  0  0  0  2  0  0  0  0  0  0
  190.0620  177.1520  137.9860 C   0  0  2  0  0  3  0  0  0  0  0  0
  184.6240  178.5070  143.8060 C   0  0  0  0  0  0  0  0  0  0  0  0
  187.8360  177.6120  141.0670 C   0  0  0  0  0  2  0  0  0  0  0  0
  185.5420  177.9080  143.0390 C   0  0  0  0  0  3  0  0  0  0  0  0
  190.2070  177.1050  141.6280 C   0  0  2  0  0  3  0  0  0  0  0  0
  183.7500  179.2710  139.1760 C   0  0  0  0  0  2  0  0  0  0  0  0
  190.8860  177.5450  140.3400 C   0  0  0  0  0  2  0  0  0  0  0  0
  185.8200  178.4010  138.1160 C   0  0  0  0  0  2  0  0  0  0  0  0
  186.3770  177.6490  136.9140 C   0  0  2  0  0  3  0  0  0  0  0  0
  186.1750  178.5640  145.7550 C   0  0  0  0  0  2  0  0  0  0  0  0
  182.6730  178.1810  141.1140 C   0  0  0  0  0  3  0  0  0  0  0  0
  186.9960  178.1240  143.3470 C   0  0  2  0  0  3  0  0  0  0  0  0
  188.5590  176.9340  137.9580 C   0  0  0  0  0  2  0  0  0  0  0  0
  189.0150  178.0100  141.9320 C   0  0  2  0  0  3  0  0  0  0  0  0
  182.8510  178.9660  142.1790 C   0  0  0  0  0  3  0  0  0  0  0  0
  183.1630  178.3650  143.5110 C   0  0  0  0  0  2  0  0  0  0  0  0
  185.0800  179.3180  144.9870 C   0  0  0  0  0  2  0  0  0  0  0  0
  191.0880  175.7600  143.5840 C   0  0  0  0  0  2  0  0  0  0  0  0
  191.6490  176.6740  145.5590 C   0  0  2  0  0  3  0  0  0  0  0  0
  191.1560  178.3100  143.6720 C   0  0  0  0  0  2  0  0  0  0  0  0
  191.8860  178.0930  144.9990 C   0  0  0  0  0  2  0  0  0  0  0  0
  190.6080  176.0160  144.8810 O   0  0  0  0  0  0  0  0  0  0  0  0
  191.2210  177.0610  142.7750 C   0  0  2  0  0  3  0  0  0  0  0  0
  191.3680  176.6870  147.0580 C   0  0  2  0  0  3  0  0  0  0  0  0
  191.7700  175.4880  147.6500 O   0  0  0  0  0  1  0  0  0  0  0  0
  189.8970  176.9350  147.3370 C   0  0  0  0  0  1  0  0  0  0  0  0
  181.4480  179.8080  139.7720 N   0  0  0  0  0  2  0  0  0  0  0  0
  179.1310  180.1790  138.5310 O   0  0  0  0  0  0  0  0  0  0  0  0
  180.5560  179.7630  138.2860 S   0  0  0  0  0  0  0  0  0  0  0  0
  181.1930  180.7230  137.3240 O   0  0  0  0  0  0  0  0  0  0  0  0
  180.5920  178.1310  137.6070 C   0  0  0  0  0  0  0  0  0  0  0  0
  181.2610  177.9140  136.6100 O   0  0  0  0  0  0  0  0  0  0  0  0
  179.0660  177.4680  139.4580 C   0  0  0  0  0  1  0  0  0  0  0  0
  179.8190  176.9960  138.2210 C   0  0  2  0  0  3  0  0  0  0  0  0
  179.6320  174.1670  140.1260 C   0  0  0  0  0  0  0  0  0  0  0  0
  182.0070  176.0160  138.2580 O   0  0  0  0  0  1  0  0  0  0  0  0
  179.5360  173.7410  141.5470 C   0  0  0  0  0  1  0  0  0  0  0  0
  180.2940  174.6030  137.4220 C   0  0  1  0  0  3  0  0  0  0  0  0
  178.9320  173.5130  139.1990 C   0  0  0  0  0  3  0  0  0  0  0  0
  180.6570  175.7100  138.4410 C   0  0  2  0  0  0  0  0  0  0  0  0
  178.9610  173.9400  137.7640 C   0  0  0  0  0  2  0  0  0  0  0  0
  180.4850  175.2250  139.7800 O   0  0  0  0  0  0  0  0  0  0  0  0
  180.2650  175.1030  136.1160 O   0  0  0  0  0  0  0  0  0  0  0  0
  181.2240  174.3590  135.4270 C   0  0  0  0  0  1  0  0  0  0  0  0
  1 14  1  6  0  0  0
  1 23  1  0  0  0  0
  2 17  1  0  0  0  0
  4 38  1  1  0  0  0
  4 22  1  0  0  0  0
  5  6  1  0  0  0  0
  6 10  1  0  0  0  0
  7 18  1  1  0  0  0
  8  7  1  0  0  0  0
  9 20  1  0  0  0  0
  9 24  1  0  0  0  0
 10  8  1  0  0  0  0
 11 21  1  0  0  0  0
 12  5  1  6  0  0  0
 12  7  1  0  0  0  0
 13 28  1  0  0  0  0
 15 13  2  0  0  0  0
 16 18  1  6  0  0  0
 16 25  1  0  0  0  0
 16 34  1  0  0  0  0
 17  4  1  0  0  0  0
 19  2  1  0  0  0  0
 20  3  1  1  0  0  0
 20 19  1  0  0  0  0
 22 26  2  0  0  0  0
 23 15  1  1  0  0  0
 23 11  1  0  0  0  0
 24 12  1  0  0  0  0
 25 14  1  6  0  0  0
 25  1  1  0  0  0  0
 26 27  1  0  0  0  0
 27 13  1  0  0  0  0
 28 21  1  0  0  0  0
 29 33  1  0  0  0  0
 30 35  1  1  0  0  0
 31 32  1  0  0  0  0
 32 30  1  0  0  0  0
 33 30  1  0  0  0  0
 34 29  1  1  0  0  0
 34 31  1  0  0  0  0
 35 37  1  6  0  0  0
 35 36  1  0  0  0  0
 40 39  2  0  0  0  0
 40 38  1  0  0  0  0
 41 40  2  0  0  0  0
 42 45  1  0  0  0  0
 42 40  1  0  0  0  0
 43 42  2  0  0  0  0
 45 51  1  0  0  0  0
 45 44  1  1  0  0  0
 46 48  1  0  0  0  0
 49 54  1  6  0  0  0
 49 52  1  0  0  0  0
 49 51  1  0  0  0  0
 50 46  2  0  0  0  0
 51 47  1  6  0  0  0
 51 53  1  0  0  0  0
 52 50  1  0  0  0  0
 53 46  1  0  0  0  0
 55 54  1  0  0  0  0
M  END
>  <MODEL>
1

>  <REMARK>
 VINA RESULT:     -10.5      0.000      0.000
  Name = 
  8 active torsions:
  status: ('A' for Active; 'I' for Inactive)
    1  A    between atoms: C_6  and  C_14
    2  A    between atoms: C_6  and  S_20
    3  A    between atoms: C_8  and  N_22
    4  A    between atoms: C_10  and  C_32
    5  A    between atoms: O_11  and  C_29
    6  A    between atoms: C_14  and  C_38
    7  A    between atoms: S_20  and  N_22
    8  A    between atoms: C_33  and  C_52
                            x       y       z     vdW  Elec       q    Type
                         _______ _______ _______ _____ _____    ______ ____

>  <TORSDO>
F 8

$$$$
=
 OpenBabel10262420263D

 55 60  0  0  1  0  0  0  0  0999 V2000
  187.7700  177.2680  142.6560 C   0  0  2  0  0  3  0  0  0  0  0  0
  184.0520  178.1410  138.3970 C   0  0  0  0  0  2  0  0  0  0  0  0
  185.7070  176.1410  137.1750 O   0  0  0  0  0  1  0  0  0  0  0  0
  182.2330  178.6580  139.9970 C   0  0  1  0  0  3  0  0  0  0  0  0
  190.4350  176.3570  136.8500 C   0  0  0  0  0  2  0  0  0  0  0  0
  191.8510  176.4240  136.8430 O   0  0  0  0  0  0  0  0  0  0  0  0
  190.4280  176.4770  139.3240 C   0  0  2  0  0  3  0  0  0  0  0  0
  191.5800  175.6950  139.0700 O   0  0  0  0  0  0  0  0  0  0  0  0
  187.6000  177.6100  136.9800 C   0  0  0  0  0  2  0  0  0  0  0  0
  192.3960  176.3950  138.1540 C   0  0  0  0  0  2  0  0  0  0  0  0
  187.2300  178.1100  144.9680 C   0  0  0  0  0  2  0  0  0  0  0  0
  189.8060  177.0620  138.0530 C   0  0  2  0  0  3  0  0  0  0  0  0
  184.5480  178.6000  143.9930 C   0  0  0  0  0  0  0  0  0  0  0  0
  187.6780  177.6250  141.1860 C   0  0  0  0  0  2  0  0  0  0  0  0
  185.4470  177.9790  143.2190 C   0  0  0  0  0  3  0  0  0  0  0  0
  190.0700  177.1600  141.6870 C   0  0  2  0  0  3  0  0  0  0  0  0
  183.5160  179.1730  139.3670 C   0  0  0  0  0  2  0  0  0  0  0  0
  190.7030  177.5550  140.3610 C   0  0  0  0  0  2  0  0  0  0  0  0
  185.5590  178.2790  138.2750 C   0  0  0  0  0  2  0  0  0  0  0  0
  186.0830  177.4850  137.0850 C   0  0  2  0  0  3  0  0  0  0  0  0
  186.1620  178.7470  145.8850 C   0  0  0  0  0  2  0  0  0  0  0  0
  182.5140  178.1520  141.3810 C   0  0  0  0  0  3  0  0  0  0  0  0
  186.9080  178.2190  143.4700 C   0  0  2  0  0  3  0  0  0  0  0  0
  188.3050  176.8300  138.0840 C   0  0  0  0  0  2  0  0  0  0  0  0
  188.8800  178.0660  141.9940 C   0  0  2  0  0  3  0  0  0  0  0  0
  182.7190  178.9800  142.4080 C   0  0  0  0  0  3  0  0  0  0  0  0
  183.0800  178.4340  143.7520 C   0  0  0  0  0  2  0  0  0  0  0  0
  185.0350  179.4600  145.1250 C   0  0  0  0  0  2  0  0  0  0  0  0
  191.1430  175.8310  143.5570 C   0  0  0  0  0  2  0  0  0  0  0  0
  191.6790  176.7160  145.5520 C   0  0  2  0  0  3  0  0  0  0  0  0
  190.9660  178.3690  143.7520 C   0  0  0  0  0  2  0  0  0  0  0  0
  191.7580  178.1720  145.0470 C   0  0  0  0  0  2  0  0  0  0  0  0
  190.6840  175.9870  144.8770 O   0  0  0  0  0  0  0  0  0  0  0  0
  191.1220  177.1700  142.8010 C   0  0  2  0  0  3  0  0  0  0  0  0
  191.4490  176.6410  147.0580 C   0  0  2  0  0  3  0  0  0  0  0  0
  191.7380  175.3640  147.5430 O   0  0  0  0  0  1  0  0  0  0  0  0
  190.0220  177.0180  147.4130 C   0  0  0  0  0  1  0  0  0  0  0  0
  181.2290  179.7150  140.0180 N   0  0  0  0  0  2  0  0  0  0  0  0
  178.9850  178.3040  140.1480 O   0  0  0  0  0  0  0  0  0  0  0  0
  179.8110  179.1350  139.2050 S   0  0  0  0  0  0  0  0  0  0  0  0
  179.0070  180.3210  138.7570 O   0  0  0  0  0  0  0  0  0  0  0  0
  180.2710  178.1650  137.8010 C   0  0  0  0  0  0  0  0  0  0  0  0
  180.7510  178.7160  136.8250 O   0  0  0  0  0  0  0  0  0  0  0  0
  181.0280  175.9960  138.7580 C   0  0  0  0  0  1  0  0  0  0  0  0
  180.0870  176.6720  137.7710 C   0  0  2  0  0  3  0  0  0  0  0  0
  182.4330  175.9450  135.3970 C   0  0  0  0  0  0  0  0  0  0  0  0
  178.9310  176.3940  135.6880 O   0  0  0  0  0  1  0  0  0  0  0  0
  183.4980  176.6000  134.5940 C   0  0  0  0  0  1  0  0  0  0  0  0
  180.2090  174.5190  136.3780 C   0  0  1  0  0  3  0  0  0  0  0  0
  182.6420  174.7220  135.8870 C   0  0  0  0  0  3  0  0  0  0  0  0
  180.1180  176.0630  136.3450 C   0  0  2  0  0  0  0  0  0  0  0  0
  181.6160  174.0470  136.7440 C   0  0  0  0  0  2  0  0  0  0  0  0
  181.2120  176.6070  135.5940 O   0  0  0  0  0  0  0  0  0  0  0  0
  179.2720  173.9720  137.2600 O   0  0  0  0  0  0  0  0  0  0  0  0
  179.0720  172.6670  136.8060 C   0  0  0  0  0  1  0  0  0  0  0  0
  1 14  1  6  0  0  0
  1 23  1  0  0  0  0
  2 17  1  0  0  0  0
  4 38  1  1  0  0  0
  4 22  1  0  0  0  0
  6  5  1  0  0  0  0
  6 10  1  0  0  0  0
  7 18  1  1  0  0  0
  8  7  1  0  0  0  0
  9 20  1  0  0  0  0
  9 24  1  0  0  0  0
 10  8  1  0  0  0  0
 11 21  1  0  0  0  0
 12  5  1  6  0  0  0
 12 24  1  0  0  0  0
 12  7  1  0  0  0  0
 13 28  1  0  0  0  0
 15 13  2  0  0  0  0
 16 18  1  6  0  0  0
 16 25  1  0  0  0  0
 16 34  1  0  0  0  0
 17  4  1  0  0  0  0
 19  2  1  0  0  0  0
 20  3  1  1  0  0  0
 20 19  1  0  0  0  0
 22 26  2  0  0  0  0
 23 15  1  1  0  0  0
 23 11  1  0  0  0  0
 25 14  1  6  0  0  0
 25  1  1  0  0  0  0
 26 27  1  0  0  0  0
 27 13  1  0  0  0  0
 28 21  1  0  0  0  0
 29 33  1  0  0  0  0
 30 35  1  1  0  0  0
 31 32  1  0  0  0  0
 32 30  1  0  0  0  0
 33 30  1  0  0  0  0
 34 29  1  1  0  0  0
 34 31  1  0  0  0  0
 35 37  1  6  0  0  0
 35 36  1  0  0  0  0
 40 38  1  0  0  0  0
 40 39  2  0  0  0  0
 41 40  2  0  0  0  0
 42 40  1  0  0  0  0
 43 42  2  0  0  0  0
 45 42  1  0  0  0  0
 45 44  1  1  0  0  0
 46 53  1  0  0  0  0
 46 50  2  0  0  0  0
 48 46  1  0  0  0  0
 49 52  1  0  0  0  0
 49 54  1  1  0  0  0
 50 52  1  0  0  0  0
 51 47  1  6  0  0  0
 51 49  1  0  0  0  0
 51 45  1  0  0  0  0
 53 51  1  0  0  0  0
 55 54  1  0  0  0  0
M  END
>  <MODEL>
2

>  <REMARK>
 VINA RESULT:      -9.6      1.130      2.001
  Name = 
  8 active torsions:
  status: ('A' for Active; 'I' for Inactive)
    1  A    between atoms: C_6  and  C_14
    2  A    between atoms: C_6  and  S_20
    3  A    between atoms: C_8  and  N_22
    4  A    between atoms: C_10  and  C_32
    5  A    between atoms: O_11  and  C_29
    6  A    between atoms: C_14  and  C_38
    7  A    between atoms: S_20  and  N_22
    8  A    between atoms: C_33  and  C_52
                            x       y       z     vdW  Elec       q    Type
                         _______ _______ _______ _____ _____    ______ ____

>  <TORSDO>
F 8

$$$$
=
 OpenBabel10262420263D

 55 60  0  0  1  0  0  0  0  0999 V2000
  186.4150  177.7260  143.0660 C   0  0  2  0  0  3  0  0  0  0  0  0
  184.7090  177.8600  137.6070 C   0  0  0  0  0  2  0  0  0  0  0  0
  186.9210  176.0470  137.3650 O   0  0  0  0  0  1  0  0  0  0  0  0
  182.3500  178.2010  138.2790 C   0  0  1  0  0  3  0  0  0  0  0  0
  191.3120  176.8980  138.9460 C   0  0  0  0  0  2  0  0  0  0  0  0
  192.5900  177.1600  139.5020 O   0  0  0  0  0  0  0  0  0  0  0  0
  190.2750  177.1410  141.1830 C   0  0  2  0  0  3  0  0  0  0  0  0
  191.5050  176.5140  141.4950 O   0  0  0  0  0  0  0  0  0  0  0  0
  188.5600  177.7520  137.7970 C   0  0  0  0  0  2  0  0  0  0  0  0
  192.5470  177.2730  140.9170 C   0  0  0  0  0  2  0  0  0  0  0  0
  184.8860  178.6020  144.8660 C   0  0  0  0  0  2  0  0  0  0  0  0
  190.1730  177.5690  139.7150 C   0  0  2  0  0  3  0  0  0  0  0  0
  182.8070  178.6660  142.8510 C   0  0  0  0  0  0  0  0  0  0  0  0
  186.8990  177.9920  141.6540 C   0  0  0  0  0  2  0  0  0  0  0  0
  184.0040  178.1370  142.5720 C   0  0  0  0  0  3  0  0  0  0  0  0
  188.9070  177.8880  143.1190 C   0  0  2  0  0  3  0  0  0  0  0  0
  183.7150  178.8560  138.1680 C   0  0  0  0  0  2  0  0  0  0  0  0
  189.9840  178.2980  142.1260 C   0  0  0  0  0  2  0  0  0  0  0  0
  186.1090  178.1980  138.0860 C   0  0  0  0  0  2  0  0  0  0  0  0
  187.1560  177.4240  137.2960 C   0  0  2  0  0  3  0  0  0  0  0  0
  183.4740  179.1310  145.2060 C   0  0  0  0  0  2  0  0  0  0  0  0
  182.0880  177.8090  139.7040 C   0  0  0  0  0  3  0  0  0  0  0  0
  185.1990  178.5890  143.3620 C   0  0  2  0  0  3  0  0  0  0  0  0
  188.8260  177.1350  139.1650 C   0  0  0  0  0  2  0  0  0  0  0  0
  187.6080  178.6350  142.8270 C   0  0  2  0  0  3  0  0  0  0  0  0
  181.7630  178.7080  140.6350 C   0  0  0  0  0  3  0  0  0  0  0  0
  181.5950  178.2870  142.0590 C   0  0  0  0  0  2  0  0  0  0  0  0
  182.6920  179.6420  143.9880 C   0  0  0  0  0  2  0  0  0  0  0  0
  190.9350  178.0380  144.6280 C   0  0  0  0  0  2  0  0  0  0  0  0
  191.0170  177.1300  146.6820 C   0  0  2  0  0  3  0  0  0  0  0  0
  188.7330  177.1430  145.5580 C   0  0  0  0  0  2  0  0  0  0  0  0
  189.4870  177.1020  146.8880 C   0  0  0  0  0  2  0  0  0  0  0  0
  191.3620  176.9020  145.3380 O   0  0  0  0  0  0  0  0  0  0  0  0
  189.4000  178.1000  144.5540 C   0  0  2  0  0  3  0  0  0  0  0  0
  191.7360  176.1310  147.5820 C   0  0  2  0  0  3  0  0  0  0  0  0
  192.6340  176.7820  148.4300 O   0  0  0  0  0  1  0  0  0  0  0  0
  192.4650  175.0820  146.7630 C   0  0  0  0  0  1  0  0  0  0  0  0
  181.3210  179.1080  137.7860 N   0  0  0  0  0  2  0  0  0  0  0  0
  179.3970  178.9650  135.9640 O   0  0  0  0  0  0  0  0  0  0  0  0
  180.8260  178.5680  136.2150 S   0  0  0  0  0  0  0  0  0  0  0  0
  181.7080  179.2240  135.1910 O   0  0  0  0  0  0  0  0  0  0  0  0
  180.9860  176.8120  136.0980 C   0  0  0  0  0  0  0  0  0  0  0  0
  181.8560  176.3370  135.3880 O   0  0  0  0  0  0  0  0  0  0  0  0
  179.0350  176.6620  137.6360 C   0  0  0  0  0  1  0  0  0  0  0  0
  180.0770  175.8790  136.8500 C   0  0  2  0  0  3  0  0  0  0  0  0
  179.5620  174.1240  139.7360 C   0  0  0  0  0  0  0  0  0  0  0  0
  182.2020  175.0070  137.5430 O   0  0  0  0  0  1  0  0  0  0  0  0
  179.3020  174.3410  141.1830 C   0  0  0  0  0  1  0  0  0  0  0  0
  180.5180  173.3730  137.1940 C   0  0  1  0  0  3  0  0  0  0  0  0
  178.9310  173.1380  139.0980 C   0  0  0  0  0  3  0  0  0  0  0  0
  180.8260  174.8070  137.6840 C   0  0  2  0  0  0  0  0  0  0  0  0
  179.1260  172.9170  137.6300 C   0  0  0  0  0  2  0  0  0  0  0  0
  180.4960  174.9360  139.0740 O   0  0  0  0  0  0  0  0  0  0  0  0
  180.6460  173.2710  135.8040 O   0  0  0  0  0  0  0  0  0  0  0  0
  181.5280  172.2080  135.6030 C   0  0  0  0  0  1  0  0  0  0  0  0
  1 14  1  6  0  0  0
  1 23  1  0  0  0  0
  2 19  1  0  0  0  0
  2 17  1  0  0  0  0
  4 38  1  1  0  0  0
  4 22  1  0  0  0  0
  5  6  1  0  0  0  0
  6 10  1  0  0  0  0
  7  8  1  0  0  0  0
  7 18  1  1  0  0  0
  9 24  1  0  0  0  0
 10  8  1  0  0  0  0
 11 21  1  0  0  0  0
 12  5  1  6  0  0  0
 12  7  1  0  0  0  0
 13 28  1  0  0  0  0
 15 13  2  0  0  0  0
 16 18  1  6  0  0  0
 16 34  1  0  0  0  0
 17  4  1  0  0  0  0
 20  3  1  1  0  0  0
 20  9  1  0  0  0  0
 20 19  1  0  0  0  0
 22 26  2  0  0  0  0
 23 15  1  6  0  0  0
 23 11  1  0  0  0  0
 24 12  1  0  0  0  0
 25 14  1  6  0  0  0
 25  1  1  0  0  0  0
 25 16  1  0  0  0  0
 26 27  1  0  0  0  0
 27 13  1  0  0  0  0
 28 21  1  0  0  0  0
 29 33  1  0  0  0  0
 30 32  1  0  0  0  0
 30 35  1  1  0  0  0
 31 32  1  0  0  0  0
 33 30  1  0  0  0  0
 34 29  1  6  0  0  0
 34 31  1  0  0  0  0
 35 37  1  6  0  0  0
 35 36  1  0  0  0  0
 39 40  2  0  0  0  0
 40 38  1  0  0  0  0
 41 40  2  0  0  0  0
 42 40  1  0  0  0  0
 42 45  1  0  0  0  0
 43 42  2  0  0  0  0
 45 44  1  1  0  0  0
 45 51  1  0  0  0  0
 46 48  1  0  0  0  0
 49 54  1  6  0  0  0
 49 52  1  0  0  0  0
 49 51  1  0  0  0  0
 50 46  2  0  0  0  0
 51 47  1  6  0  0  0
 51 53  1  0  0  0  0
 52 50  1  0  0  0  0
 53 46  1  0  0  0  0
 55 54  1  0  0  0  0
M  END
>  <MODEL>
3

>  <REMARK>
 VINA RESULT:      -9.2      1.449      1.964
  Name = 
  8 active torsions:
  status: ('A' for Active; 'I' for Inactive)
    1  A    between atoms: C_6  and  C_14
    2  A    between atoms: C_6  and  S_20
    3  A    between atoms: C_8  and  N_22
    4  A    between atoms: C_10  and  C_32
    5  A    between atoms: O_11  and  C_29
    6  A    between atoms: C_14  and  C_38
    7  A    between atoms: S_20  and  N_22
    8  A    between atoms: C_33  and  C_52
                            x       y       z     vdW  Elec       q    Type
                         _______ _______ _______ _____ _____    ______ ____

>  <TORSDO>
F 8

$$$$
=
 OpenBabel10262420263D

 55 60  0  0  1  0  0  0  0  0999 V2000
  186.2130  177.8420  140.7390 C   0  0  2  0  0  3  0  0  0  0  0  0
  191.7460  176.4460  141.1440 C   0  0  0  0  0  2  0  0  0  0  0  0
  190.7860  175.2820  143.5850 O   0  0  0  0  0  1  0  0  0  0  0  0
  191.9530  176.2670  138.6830 C   0  0  1  0  0  3  0  0  0  0  0  0
  188.2310  177.5690  146.8620 C   0  0  0  0  0  2  0  0  0  0  0  0
  187.4040  178.2670  147.7790 O   0  0  0  0  0  0  0  0  0  0  0  0
  186.5800  177.9570  145.0570 C   0  0  2  0  0  3  0  0  0  0  0  0
  185.7450  177.7560  146.1820 O   0  0  0  0  0  0  0  0  0  0  0  0
  190.3590  177.4130  144.6110 C   0  0  0  0  0  2  0  0  0  0  0  0
  186.1600  178.6390  147.2040 C   0  0  0  0  0  2  0  0  0  0  0  0
  185.2850  178.6100  138.5270 C   0  0  0  0  0  2  0  0  0  0  0  0
  188.0660  178.0480  145.4190 C   0  0  2  0  0  3  0  0  0  0  0  0
  187.7770  177.7200  137.3510 C   0  0  0  0  0  0  0  0  0  0  0  0
  187.4230  177.9470  141.6460 C   0  0  0  0  0  2  0  0  0  0  0  0
  187.5170  177.4870  138.6430 C   0  0  0  0  0  3  0  0  0  0  0  0
  185.4430  178.6720  142.9660 C   0  0  2  0  0  3  0  0  0  0  0  0
  191.8150  177.2290  139.8490 C   0  0  0  0  0  2  0  0  0  0  0  0
  186.1290  179.1550  144.2350 C   0  0  0  0  0  2  0  0  0  0  0  0
  190.9720  177.2340  142.1850 C   0  0  0  0  0  2  0  0  0  0  0  0
  191.1570  176.6300  143.5720 C   0  0  2  0  0  3  0  0  0  0  0  0
  185.5550  178.7970  137.0170 C   0  0  0  0  0  2  0  0  0  0  0  0
  190.6290  176.1050  137.9970 C   0  0  0  0  0  3  0  0  0  0  0  0
  186.5540  178.3880  139.3620 C   0  0  2  0  0  3  0  0  0  0  0  0
  188.8620  177.1690  144.4700 C   0  0  0  0  0  2  0  0  0  0  0  0
  186.3140  178.9730  141.7480 C   0  0  2  0  0  3  0  0  0  0  0  0
  190.1280  177.0480  137.1960 C   0  0  0  0  0  3  0  0  0  0  0  0
  188.7670  176.8830  136.6020 C   0  0  0  0  0  2  0  0  0  0  0  0
  187.0460  178.8320  136.6520 C   0  0  0  0  0  2  0  0  0  0  0  0
  183.3850  179.4210  144.2380 C   0  0  0  0  0  2  0  0  0  0  0  0
  181.2880  179.0590  143.5180 C   0  0  2  0  0  3  0  0  0  0  0  0
  183.1440  178.5320  141.8580 C   0  0  0  0  0  2  0  0  0  0  0  0
  181.6700  178.9050  142.0310 C   0  0  0  0  0  2  0  0  0  0  0  0
  182.2880  178.5510  144.3660 O   0  0  0  0  0  0  0  0  0  0  0  0
  184.0420  179.2850  142.8540 C   0  0  2  0  0  3  0  0  0  0  0  0
  179.9490  178.4000  143.8390 C   0  0  2  0  0  3  0  0  0  0  0  0
  179.2670  178.0660  142.6680 O   0  0  0  0  0  1  0  0  0  0  0  0
  179.0870  179.3020  144.7010 C   0  0  0  0  0  1  0  0  0  0  0  0
  192.9680  176.7510  137.7550 N   0  0  0  0  0  2  0  0  0  0  0  0
  193.3690  174.1380  137.5120 O   0  0  0  0  0  0  0  0  0  0  0  0
  193.4580  175.4290  136.7450 S   0  0  0  0  0  0  0  0  0  0  0  0
  192.5310  175.3680  135.5660 O   0  0  0  0  0  0  0  0  0  0  0  0
  195.1160  175.6760  136.1850 C   0  0  0  0  0  0  0  0  0  0  0  0
  195.5250  176.8120  136.0120 O   0  0  0  0  0  0  0  0  0  0  0  0
  195.3290  173.4360  135.1220 C   0  0  0  0  0  1  0  0  0  0  0  0
  196.0440  174.5240  135.9110 C   0  0  2  0  0  3  0  0  0  0  0  0
  197.0600  171.5180  137.1750 C   0  0  0  0  0  0  0  0  0  0  0  0
  196.5030  174.8500  138.2430 O   0  0  0  0  0  1  0  0  0  0  0  0
  196.5140  170.1970  137.5790 C   0  0  0  0  0  1  0  0  0  0  0  0
  198.3290  174.0260  136.9710 C   0  0  1  0  0  3  0  0  0  0  0  0
  198.2320  171.5750  136.5410 C   0  0  0  0  0  3  0  0  0  0  0  0
  196.7940  174.0080  137.1670 C   0  0  2  0  0  0  0  0  0  0  0  0
  198.7940  172.8820  136.0720 C   0  0  0  0  0  2  0  0  0  0  0  0
  196.3530  172.6850  137.5020 O   0  0  0  0  0  0  0  0  0  0  0  0
  198.7620  175.2520  136.4560 O   0  0  0  0  0  0  0  0  0  0  0  0
  199.1800  174.9660  135.1560 C   0  0  0  0  0  1  0  0  0  0  0  0
  1 14  1  1  0  0  0
  1 25  1  0  0  0  0
  2 19  1  0  0  0  0
  4 38  1  6  0  0  0
  4 17  1  0  0  0  0
  5  6  1  0  0  0  0
  7 18  1  1  0  0  0
  7 12  1  0  0  0  0
  7  8  1  0  0  0  0
  8 10  1  0  0  0  0
 10  6  1  0  0  0  0
 12 24  1  6  0  0  0
 12  5  1  0  0  0  0
 13 15  2  0  0  0  0
 15 23  1  0  0  0  0
 16 18  1  1  0  0  0
 17  2  1  0  0  0  0
 19 20  1  0  0  0  0
 20  3  1  6  0  0  0
 20  9  1  0  0  0  0
 21 11  1  0  0  0  0
 22  4  1  0  0  0  0
 23 11  1  6  0  0  0
 23  1  1  0  0  0  0
 24  9  1  0  0  0  0
 25 14  1  1  0  0  0
 25 16  1  0  0  0  0
 26 22  2  0  0  0  0
 27 26  1  0  0  0  0
 27 13  1  0  0  0  0
 28 21  1  0  0  0  0
 28 13  1  0  0  0  0
 29 33  1  0  0  0  0
 30 35  1  6  0  0  0
 30 33  1  0  0  0  0
 31 32  1  0  0  0  0
 32 30  1  0  0  0  0
 34 31  1  6  0  0  0
 34 16  1  0  0  0  0
 34 29  1  0  0  0  0
 35 37  1  1  0  0  0
 36 35  1  0  0  0  0
 40 39  2  0  0  0  0
 40 38  1  0  0  0  0
 41 40  2  0  0  0  0
 42 40  1  0  0  0  0
 43 42  2  0  0  0  0
 45 44  1  1  0  0  0
 45 42  1  0  0  0  0
 45 51  1  0  0  0  0
 46 53  1  0  0  0  0
 46 48  1  0  0  0  0
 49 54  1  6  0  0  0
 49 51  1  0  0  0  0
 50 46  2  0  0  0  0
 51 53  1  0  0  0  0
 51 47  1  1  0  0  0
 52 50  1  0  0  0  0
 52 49  1  0  0  0  0
 55 54  1  0  0  0  0
M  END
>  <MODEL>
4

>  <REMARK>
 VINA RESULT:      -8.5      4.326     11.729
  Name = 
  8 active torsions:
  status: ('A' for Active; 'I' for Inactive)
    1  A    between atoms: C_6  and  C_14
    2  A    between atoms: C_6  and  S_20
    3  A    between atoms: C_8  and  N_22
    4  A    between atoms: C_10  and  C_32
    5  A    between atoms: O_11  and  C_29
    6  A    between atoms: C_14  and  C_38
    7  A    between atoms: S_20  and  N_22
    8  A    between atoms: C_33  and  C_52
                            x       y       z     vdW  Elec       q    Type
                         _______ _______ _______ _____ _____    ______ ____

>  <TORSDO>
F 8

$$$$
=
 OpenBabel10262420263D

 55 60  0  0  1  0  0  0  0  0999 V2000
  186.4630  177.8150  140.7930 C   0  0  2  0  0  3  0  0  0  0  0  0
  192.0330  176.7430  141.5360 C   0  0  0  0  0  2  0  0  0  0  0  0
  191.0050  175.5950  143.9570 O   0  0  0  0  0  1  0  0  0  0  0  0
  192.3850  176.5080  139.0960 C   0  0  1  0  0  3  0  0  0  0  0  0
  188.1520  177.8260  147.0210 C   0  0  0  0  0  2  0  0  0  0  0  0
  187.2390  178.5010  147.8700 O   0  0  0  0  0  0  0  0  0  0  0  0
  186.5840  178.0700  145.1180 C   0  0  2  0  0  3  0  0  0  0  0  0
  185.7010  177.8540  146.2020 O   0  0  0  0  0  0  0  0  0  0  0  0
  190.4060  177.7270  144.8920 C   0  0  0  0  0  2  0  0  0  0  0  0
  186.0100  178.7860  147.2180 C   0  0  0  0  0  2  0  0  0  0  0  0
  185.6180  178.4680  138.5120 C   0  0  0  0  0  2  0  0  0  0  0  0
  188.0410  178.2540  145.5570 C   0  0  2  0  0  3  0  0  0  0  0  0
  188.2160  177.6870  137.4980 C   0  0  0  0  0  0  0  0  0  0  0  0
  187.6140  178.0120  141.7600 C   0  0  0  0  0  2  0  0  0  0  0  0
  187.8990  177.4760  138.7810 C   0  0  0  0  0  3  0  0  0  0  0  0
  185.5270  178.6620  142.9480 C   0  0  2  0  0  3  0  0  0  0  0  0
  192.1300  177.4920  140.2240 C   0  0  0  0  0  2  0  0  0  0  0  0
  186.1150  179.2170  144.2370 C   0  0  0  0  0  2  0  0  0  0  0  0
  191.1610  177.5150  142.5100 C   0  0  0  0  0  2  0  0  0  0  0  0
  191.3010  176.9610  143.9220 C   0  0  2  0  0  3  0  0  0  0  0  0
  185.9610  178.6280  137.0130 C   0  0  0  0  0  2  0  0  0  0  0  0
  191.1110  176.2530  138.3460 C   0  0  0  0  0  3  0  0  0  0  0  0
  186.8500  178.3400  139.4200 C   0  0  2  0  0  3  0  0  0  0  0  0
  188.9340  177.3950  144.6790 C   0  0  0  0  0  2  0  0  0  0  0  0
  186.4460  178.9770  141.7700 C   0  0  2  0  0  3  0  0  0  0  0  0
  190.6050  177.1430  137.4910 C   0  0  0  0  0  3  0  0  0  0  0  0
  189.2900  176.8860  136.8300 C   0  0  0  0  0  2  0  0  0  0  0  0
  187.4650  178.7360  136.7270 C   0  0  0  0  0  2  0  0  0  0  0  0
  183.4320  179.5130  144.0890 C   0  0  0  0  0  2  0  0  0  0  0  0
  181.3560  178.9580  143.4340 C   0  0  2  0  0  3  0  0  0  0  0  0
  183.2430  178.2580  141.8750 C   0  0  0  0  0  2  0  0  0  0  0  0
  181.7540  178.5920  141.9880 C   0  0  0  0  0  2  0  0  0  0  0  0
  182.3710  178.6280  144.3500 O   0  0  0  0  0  0  0  0  0  0  0  0
  184.1040  179.1920  142.7430 C   0  0  2  0  0  3  0  0  0  0  0  0
  180.0440  178.3020  143.8520 C   0  0  2  0  0  3  0  0  0  0  0  0
  179.5210  177.5290  142.8130 O   0  0  0  0  0  1  0  0  0  0  0  0
  179.0260  179.3400  144.2860 C   0  0  0  0  0  1  0  0  0  0  0  0
  193.4220  177.0220  138.2100 N   0  0  0  0  0  2  0  0  0  0  0  0
  192.7390  174.8040  136.9220 O   0  0  0  0  0  0  0  0  0  0  0  0
  193.8880  175.7540  137.1230 S   0  0  0  0  0  0  0  0  0  0  0  0
  194.2530  176.3740  135.8050 O   0  0  0  0  0  0  0  0  0  0  0  0
  195.2790  174.8780  137.7720 C   0  0  0  0  0  0  0  0  0  0  0  0
  195.7370  175.2030  138.8550 O   0  0  0  0  0  0  0  0  0  0  0  0
  195.9230  174.0140  135.5290 C   0  0  0  0  0  1  0  0  0  0  0  0
  195.9210  173.7400  137.0270 C   0  0  2  0  0  3  0  0  0  0  0  0
  194.0170  171.2960  135.5890 C   0  0  0  0  0  0  0  0  0  0  0  0
  195.1320  172.3210  138.7920 O   0  0  0  0  0  1  0  0  0  0  0  0
  192.6800  171.0920  134.9740 C   0  0  0  0  0  1  0  0  0  0  0  0
  196.3880  171.2170  137.1100 C   0  0  1  0  0  3  0  0  0  0  0  0
  195.0800  170.6920  135.0570 C   0  0  0  0  0  3  0  0  0  0  0  0
  195.3730  172.3430  137.4160 C   0  0  2  0  0  0  0  0  0  0  0  0
  196.4530  170.9110  135.6140 C   0  0  0  0  0  2  0  0  0  0  0  0
  194.1330  172.0880  136.7410 O   0  0  0  0  0  0  0  0  0  0  0  0
  197.6620  171.5340  137.5930 O   0  0  0  0  0  0  0  0  0  0  0  0
  198.5200  171.3050  136.5170 C   0  0  0  0  0  1  0  0  0  0  0  0
  1 14  1  1  0  0  0
  1 25  1  0  0  0  0
  2 19  1  0  0  0  0
  4 38  1  6  0  0  0
  4 17  1  0  0  0  0
  5  6  1  0  0  0  0
  7 18  1  1  0  0  0
  7 12  1  0  0  0  0
  7  8  1  0  0  0  0
  8 10  1  0  0  0  0
 10  6  1  0  0  0  0
 12 24  1  6  0  0  0
 12  5  1  0  0  0  0
 13 15  2  0  0  0  0
 15 23  1  0  0  0  0
 16 18  1  1  0  0  0
 17  2  1  0  0  0  0
 19 20  1  0  0  0  0
 20  3  1  6  0  0  0
 20  9  1  0  0  0  0
 21 11  1  0  0  0  0
 22  4  1  0  0  0  0
 23 11  1  6  0  0  0
 23  1  1  0  0  0  0
 24  9  1  0  0  0  0
 25 14  1  1  0  0  0
 25 16  1  0  0  0  0
 26 22  2  0  0  0  0
 27 26  1  0  0  0  0
 27 13  1  0  0  0  0
 28 21  1  0  0  0  0
 28 13  1  0  0  0  0
 29 33  1  0  0  0  0
 30 35  1  1  0  0  0
 30 33  1  0  0  0  0
 31 32  1  0  0  0  0
 32 30  1  0  0  0  0
 34 31  1  1  0  0  0
 34 16  1  0  0  0  0
 34 29  1  0  0  0  0
 35 37  1  6  0  0  0
 36 35  1  0  0  0  0
 39 40  2  0  0  0  0
 40 42  1  0  0  0  0
 40 38  1  0  0  0  0
 41 40  2  0  0  0  0
 42 43  2  0  0  0  0
 45 44  1  6  0  0  0
 45 51  1  0  0  0  0
 45 42  1  0  0  0  0
 46 53  1  0  0  0  0
 48 46  1  0  0  0  0
 49 51  1  0  0  0  0
 49 54  1  6  0  0  0
 50 46  2  0  0  0  0
 50 52  1  0  0  0  0
 51 47  1  1  0  0  0
 52 49  1  0  0  0  0
 53 51  1  0  0  0  0
 55 54  1  0  0  0  0
M  END
>  <MODEL>
5

>  <REMARK>
 VINA RESULT:      -8.0      4.295     11.369
  Name = 
  8 active torsions:
  status: ('A' for Active; 'I' for Inactive)
    1  A    between atoms: C_6  and  C_14
    2  A    between atoms: C_6  and  S_20
    3  A    between atoms: C_8  and  N_22
    4  A    between atoms: C_10  and  C_32
    5  A    between atoms: O_11  and  C_29
    6  A    between atoms: C_14  and  C_38
    7  A    between atoms: S_20  and  N_22
    8  A    between atoms: C_33  and  C_52
                            x       y       z     vdW  Elec       q    Type
                         _______ _______ _______ _____ _____    ______ ____

>  <TORSDO>
F 8

$$$$
=
 OpenBabel10262420263D

 55 60  0  0  1  0  0  0  0  0999 V2000
  189.1360  178.3420  141.5670 C   0  0  2  0  0  3  0  0  0  0  0  0
  184.7790  177.9100  137.8850 C   0  0  0  0  0  2  0  0  0  0  0  0
  183.6340  179.7620  139.7550 O   0  0  0  0  0  1  0  0  0  0  0  0
  186.3270  177.5440  135.9880 C   0  0  1  0  0  3  0  0  0  0  0  0
  183.4100  179.0940  144.4460 C   0  0  0  0  0  2  0  0  0  0  0  0
  183.4330  178.8910  145.8490 O   0  0  0  0  0  0  0  0  0  0  0  0
  185.8810  178.9320  144.3680 C   0  0  2  0  0  3  0  0  0  0  0  0
  185.6680  179.6020  145.5960 O   0  0  0  0  0  0  0  0  0  0  0  0
  183.4520  178.1210  141.5010 C   0  0  0  0  0  2  0  0  0  0  0  0
  184.7560  178.8430  146.3630 C   0  0  0  0  0  2  0  0  0  0  0  0
  191.4170  177.5150  140.8930 C   0  0  0  0  0  2  0  0  0  0  0  0
  184.5840  178.4320  143.7230 C   0  0  2  0  0  3  0  0  0  0  0  0
  190.3740  177.3060  138.2010 C   0  0  0  0  0  0  0  0  0  0  0  0
  187.6570  178.0220  141.4770 C   0  0  0  0  0  2  0  0  0  0  0  0
  189.6330  177.8500  139.1730 C   0  0  0  0  0  3  0  0  0  0  0  0
  188.2210  178.2440  143.8900 C   0  0  2  0  0  3  0  0  0  0  0  0
  185.7160  176.9180  137.2290 C   0  0  0  0  0  2  0  0  0  0  0  0
  186.9010  177.8130  144.5130 C   0  0  0  0  0  2  0  0  0  0  0  0
  184.6870  177.6290  139.3740 C   0  0  0  0  0  2  0  0  0  0  0  0
  183.5250  178.3900  140.0010 C   0  0  2  0  0  3  0  0  0  0  0  0
  192.2980  176.9680  139.7470 C   0  0  0  0  0  2  0  0  0  0  0  0
  187.7270  177.9960  136.2830 C   0  0  0  0  0  3  0  0  0  0  0  0
  189.9110  177.4650  140.5980 C   0  0  2  0  0  3  0  0  0  0  0  0
  184.5860  178.8080  142.2520 C   0  0  0  0  0  2  0  0  0  0  0  0
  188.4830  177.4520  142.6110 C   0  0  2  0  0  3  0  0  0  0  0  0
  188.7420  177.1340  136.3820 C   0  0  0  0  0  3  0  0  0  0  0  0
  190.1030  177.6180  136.7610 C   0  0  0  0  0  2  0  0  0  0  0  0
  191.4980  176.3820  138.5750 C   0  0  0  0  0  2  0  0  0  0  0  0
  190.6390  177.5820  144.2440 C   0  0  0  0  0  2  0  0  0  0  0  0
  191.3560  176.4350  146.0380 C   0  0  2  0  0  3  0  0  0  0  0  0
  188.9560  177.2790  146.1390 C   0  0  0  0  0  2  0  0  0  0  0  0
  190.1780  176.8420  146.9490 C   0  0  0  0  0  2  0  0  0  0  0  0
  190.9490  176.2890  144.7000 O   0  0  0  0  0  0  0  0  0  0  0  0
  189.3570  178.1120  144.9090 C   0  0  2  0  0  3  0  0  0  0  0  0
  192.0390  175.1580  146.5180 C   0  0  2  0  0  3  0  0  0  0  0  0
  193.1410  175.4560  147.3210 O   0  0  0  0  0  1  0  0  0  0  0  0
  192.4710  174.2950  145.3470 C   0  0  0  0  0  1  0  0  0  0  0  0
  186.3050  176.5900  134.8860 N   0  0  0  0  0  2  0  0  0  0  0  0
  186.3040  173.9450  134.6620 O   0  0  0  0  0  0  0  0  0  0  0  0
  185.7470  175.0650  135.4970 S   0  0  0  0  0  0  0  0  0  0  0  0
  186.2320  174.9170  136.9100 O   0  0  0  0  0  0  0  0  0  0  0  0
  183.9810  175.0100  135.4670 C   0  0  0  0  0  0  0  0  0  0  0  0
  183.3510  176.0530  135.4200 O   0  0  0  0  0  0  0  0  0  0  0  0
  182.0000  173.7800  134.5960 C   0  0  0  0  0  1  0  0  0  0  0  0
  183.2240  173.7100  135.4980 C   0  0  2  0  0  3  0  0  0  0  0  0
  180.4850  172.8240  137.3370 C   0  0  0  0  0  0  0  0  0  0  0  0
  183.8840  173.7100  137.8040 O   0  0  0  0  0  1  0  0  0  0  0  0
  179.1950  173.3800  137.8190 C   0  0  0  0  0  1  0  0  0  0  0  0
  183.0240  171.6460  137.0120 C   0  0  1  0  0  3  0  0  0  0  0  0
  180.5380  171.5580  136.9220 C   0  0  0  0  0  3  0  0  0  0  0  0
  182.9290  173.1870  136.9280 C   0  0  2  0  0  0  0  0  0  0  0  0
  181.8060  170.9730  136.3820 C   0  0  0  0  0  2  0  0  0  0  0  0
  181.6350  173.6270  137.3630 O   0  0  0  0  0  0  0  0  0  0  0  0
  184.1990  171.1750  136.4150 O   0  0  0  0  0  0  0  0  0  0  0  0
  183.8100  170.0330  135.7120 C   0  0  0  0  0  1  0  0  0  0  0  0
  1 14  1  6  0  0  0
  1 25  1  0  0  0  0
  2 19  1  0  0  0  0
  4 38  1  6  0  0  0
  4 22  1  0  0  0  0
  4 17  1  0  0  0  0
  5  6  1  0  0  0  0
  6 10  1  0  0  0  0
  7 18  1  1  0  0  0
  7  8  1  0  0  0  0
  8 10  1  0  0  0  0
  9 24  1  0  0  0  0
 12 24  1  6  0  0  0
 12  7  1  0  0  0  0
 12  5  1  0  0  0  0
 13 28  1  0  0  0  0
 13 15  2  0  0  0  0
 16 18  1  1  0  0  0
 16 34  1  0  0  0  0
 17  2  1  0  0  0  0
 19 20  1  0  0  0  0
 20  3  1  1  0  0  0
 20  9  1  0  0  0  0
 21 11  1  0  0  0  0
 22 26  2  0  0  0  0
 23 15  1  6  0  0  0
 23 11  1  0  0  0  0
 23  1  1  0  0  0  0
 25 14  1  6  0  0  0
 25 16  1  0  0  0  0
 26 27  1  0  0  0  0
 27 13  1  0  0  0  0
 28 21  1  0  0  0  0
 29 33  1  0  0  0  0
 30 35  1  1  0  0  0
 30 32  1  0  0  0  0
 31 32  1  0  0  0  0
 33 30  1  0  0  0  0
 34 29  1  6  0  0  0
 34 31  1  0  0  0  0
 35 37  1  6  0  0  0
 35 36  1  0  0  0  0
 38 40  1  0  0  0  0
 39 40  2  0  0  0  0
 40 41  2  0  0  0  0
 42 40  1  0  0  0  0
 42 45  1  0  0  0  0
 43 42  2  0  0  0  0
 45 44  1  1  0  0  0
 45 51  1  0  0  0  0
 46 53  1  0  0  0  0
 46 48  1  0  0  0  0
 49 54  1  6  0  0  0
 50 46  2  0  0  0  0
 51 49  1  0  0  0  0
 51 53  1  0  0  0  0
 51 47  1  1  0  0  0
 52 50  1  0  0  0  0
 52 49  1  0  0  0  0
 55 54  1  0  0  0  0
M  END
>  <MODEL>
6

>  <REMARK>
 VINA RESULT:      -7.9      2.774      6.012
  Name = 
  8 active torsions:
  status: ('A' for Active; 'I' for Inactive)
    1  A    between atoms: C_6  and  C_14
    2  A    between atoms: C_6  and  S_20
    3  A    between atoms: C_8  and  N_22
    4  A    between atoms: C_10  and  C_32
    5  A    between atoms: O_11  and  C_29
    6  A    between atoms: C_14  and  C_38
    7  A    between atoms: S_20  and  N_22
    8  A    between atoms: C_33  and  C_52
                            x       y       z     vdW  Elec       q    Type
                         _______ _______ _______ _____ _____    ______ ____

>  <TORSDO>
F 8

$$$$
=
 OpenBabel10262420263D

 55 60  0  0  1  0  0  0  0  0999 V2000
  184.3390  177.3040  138.6610 C   0  0  2  0  0  3  0  0  0  0  0  0
  189.8570  176.7870  140.0770 C   0  0  0  0  0  2  0  0  0  0  0  0
  188.6580  176.0220  142.5690 O   0  0  0  0  0  1  0  0  0  0  0  0
  190.4630  176.1420  137.7640 C   0  0  1  0  0  3  0  0  0  0  0  0
  185.3960  178.5570  144.9020 C   0  0  0  0  0  2  0  0  0  0  0  0
  184.3680  179.3060  145.5270 O   0  0  0  0  0  0  0  0  0  0  0  0
  184.0140  178.3420  142.8570 C   0  0  2  0  0  3  0  0  0  0  0  0
  183.0410  178.2610  143.8810 O   0  0  0  0  0  0  0  0  0  0  0  0
  187.8530  178.2390  143.0360 C   0  0  0  0  0  2  0  0  0  0  0  0
  183.1960  179.3810  144.7280 C   0  0  0  0  0  2  0  0  0  0  0  0
  183.6910  177.4730  136.2330 C   0  0  0  0  0  2  0  0  0  0  0  0
  185.4080  178.7050  143.3800 C   0  0  2  0  0  3  0  0  0  0  0  0
  186.4150  176.7120  135.6150 C   0  0  0  0  0  0  0  0  0  0  0  0
  185.3750  177.7550  139.6710 C   0  0  0  0  0  2  0  0  0  0  0  0
  185.9840  176.7130  136.8810 C   0  0  0  0  0  3  0  0  0  0  0  0
  183.1480  178.4560  140.5310 C   0  0  2  0  0  3  0  0  0  0  0  0
  190.0440  177.2930  138.6620 C   0  0  0  0  0  2  0  0  0  0  0  0
  183.5740  179.2750  141.7400 C   0  0  0  0  0  2  0  0  0  0  0  0
  188.8520  177.6570  140.8100 C   0  0  0  0  0  2  0  0  0  0  0  0
  188.8810  177.3780  142.3070 C   0  0  2  0  0  3  0  0  0  0  0  0
  184.1710  177.3850  134.7670 C   0  0  0  0  0  2  0  0  0  0  0  0
  189.2860  175.6650  136.9650 C   0  0  0  0  0  3  0  0  0  0  0  0
  184.8310  177.6010  137.2540 C   0  0  2  0  0  3  0  0  0  0  0  0
  186.4300  177.7700  142.7590 C   0  0  0  0  0  2  0  0  0  0  0  0
  184.1620  178.6190  139.4000 C   0  0  2  0  0  3  0  0  0  0  0  0
  188.8190  176.3490  135.9180 C   0  0  0  0  0  3  0  0  0  0  0  0
  187.5920  175.8830  135.2030 C   0  0  0  0  0  2  0  0  0  0  0  0
  185.6890  177.5480  134.5990 C   0  0  0  0  0  2  0  0  0  0  0  0
  180.9330  177.5990  139.6530 C   0  0  0  0  0  2  0  0  0  0  0  0
  179.7190  178.6770  138.0990 C   0  0  2  0  0  3  0  0  0  0  0  0
  181.7010  179.9580  139.0540 C   0  0  0  0  0  2  0  0  0  0  0  0
  180.3350  180.0650  138.3730 C   0  0  0  0  0  2  0  0  0  0  0  0
  180.6620  177.6480  138.2740 O   0  0  0  0  0  0  0  0  0  0  0  0
  181.7250  178.8360  140.1060 C   0  0  2  0  0  3  0  0  0  0  0  0
  179.1010  178.5870  136.7070 C   0  0  2  0  0  3  0  0  0  0  0  0
  178.9470  177.2550  136.3170 O   0  0  0  0  0  1  0  0  0  0  0  0
  179.9410  179.3310  135.6860 C   0  0  0  0  0  1  0  0  0  0  0  0
  191.5530  176.5620  136.8920 N   0  0  0  0  0  2  0  0  0  0  0  0
  192.2990  174.0850  137.4870 O   0  0  0  0  0  0  0  0  0  0  0  0
  192.4650  175.1560  136.4440 S   0  0  0  0  0  0  0  0  0  0  0  0
  191.9400  174.6530  135.1300 O   0  0  0  0  0  0  0  0  0  0  0  0
  194.1750  175.5690  136.2800 C   0  0  0  0  0  0  0  0  0  0  0  0
  194.5070  176.7430  136.2600 O   0  0  0  0  0  0  0  0  0  0  0  0
  194.7870  173.3940  135.2380 C   0  0  0  0  0  1  0  0  0  0  0  0
  195.2410  174.5140  136.1640 C   0  0  2  0  0  3  0  0  0  0  0  0
  196.0380  171.5350  137.6330 C   0  0  0  0  0  0  0  0  0  0  0  0
  195.3570  174.8950  138.5290 O   0  0  0  0  0  1  0  0  0  0  0  0
  195.4290  170.2260  137.9840 C   0  0  0  0  0  1  0  0  0  0  0  0
  197.3420  174.0320  137.5590 C   0  0  1  0  0  3  0  0  0  0  0  0
  197.2900  171.5730  137.1760 C   0  0  0  0  0  3  0  0  0  0  0  0
  195.7960  174.0260  137.5270 C   0  0  2  0  0  0  0  0  0  0  0  0
  197.9250  172.8650  136.7640 C   0  0  0  0  0  2  0  0  0  0  0  0
  195.3000  172.7130  137.8250 O   0  0  0  0  0  0  0  0  0  0  0  0
  197.8560  175.2440  137.0840 O   0  0  0  0  0  0  0  0  0  0  0  0
  198.8340  174.8790  136.1570 C   0  0  0  0  0  1  0  0  0  0  0  0
  1 25  1  0  0  0  0
  1 14  1  1  0  0  0
  2 19  1  0  0  0  0
  4 38  1  6  0  0  0
  4 17  1  0  0  0  0
  5  6  1  0  0  0  0
  7 18  1  6  0  0  0
  7 12  1  0  0  0  0
  7  8  1  0  0  0  0
  8 10  1  0  0  0  0
 10  6  1  0  0  0  0
 12 24  1  6  0  0  0
 12  5  1  0  0  0  0
 13 15  2  0  0  0  0
 15 23  1  0  0  0  0
 16 18  1  1  0  0  0
 17  2  1  0  0  0  0
 19 20  1  0  0  0  0
 20  3  1  6  0  0  0
 20  9  1  0  0  0  0
 21 11  1  0  0  0  0
 22  4  1  0  0  0  0
 23 11  1  6  0  0  0
 23  1  1  0  0  0  0
 24  9  1  0  0  0  0
 25 14  1  1  0  0  0
 25 16  1  0  0  0  0
 26 22  2  0  0  0  0
 27 13  1  0  0  0  0
 27 26  1  0  0  0  0
 28 21  1  0  0  0  0
 28 13  1  0  0  0  0
 29 34  1  0  0  0  0
 30 35  1  6  0  0  0
 30 33  1  0  0  0  0
 30 32  1  0  0  0  0
 32 31  1  0  0  0  0
 33 29  1  0  0  0  0
 34 31  1  6  0  0  0
 34 16  1  0  0  0  0
 35 37  1  6  0  0  0
 36 35  1  0  0  0  0
 40 38  1  0  0  0  0
 40 39  2  0  0  0  0
 41 40  2  0  0  0  0
 42 40  1  0  0  0  0
 43 42  2  0  0  0  0
 45 44  1  1  0  0  0
 45 42  1  0  0  0  0
 45 51  1  0  0  0  0
 46 53  1  0  0  0  0
 46 48  1  0  0  0  0
 49 54  1  6  0  0  0
 50 46  2  0  0  0  0
 51 49  1  0  0  0  0
 51 53  1  0  0  0  0
 51 47  1  1  0  0  0
 52 50  1  0  0  0  0
 52 49  1  0  0  0  0
 55 54  1  0  0  0  0
M  END
>  <MODEL>
7

>  <REMARK>
 VINA RESULT:      -7.8      3.951     11.952
  Name = 
  8 active torsions:
  status: ('A' for Active; 'I' for Inactive)
    1  A    between atoms: C_6  and  C_14
    2  A    between atoms: C_6  and  S_20
    3  A    between atoms: C_8  and  N_22
    4  A    between atoms: C_10  and  C_32
    5  A    between atoms: O_11  and  C_29
    6  A    between atoms: C_14  and  C_38
    7  A    between atoms: S_20  and  N_22
    8  A    between atoms: C_33  and  C_52
                            x       y       z     vdW  Elec       q    Type
                         _______ _______ _______ _____ _____    ______ ____

>  <TORSDO>
F 8

$$$$
