=
 OpenBabel10262423083D

 37 39  0  0  1  0  0  0  0  0999 V2000
  190.7070  177.8890  141.8780 O   0  0  0  0  0  0  0  0  0  0  0  0
  188.8150  179.1380  141.6140 O   0  0  0  0  0  1  0  0  0  0  0  0
  190.4200  177.9130  144.5280 C   0  0  1  0  0  3  0  0  0  0  0  0
  189.3010  177.8300  141.6890 C   0  0  2  0  0  0  0  0  0  0  0  0
  191.0870  176.7450  142.4260 O   0  0  0  0  0  0  0  0  0  0  0  0
  191.4320  177.0210  143.7670 C   0  0  2  0  0  3  0  0  0  0  0  0
  188.5890  177.1090  142.8540 C   0  0  0  0  0  2  0  0  0  0  0  0
  190.7910  179.3800  144.4020 C   0  0  0  0  0  1  0  0  0  0  0  0
  188.9220  177.7070  144.2230 C   0  0  1  0  0  3  0  0  0  0  0  0
  191.6090  175.8200  144.4540 O   0  0  0  0  0  0  0  0  0  0  0  0
  191.8410  176.1920  145.7790 C   0  0  0  0  0  1  0  0  0  0  0  0
  190.1750  176.5640  139.8280 O   0  0  0  0  0  1  0  0  0  0  0  0
  188.9990  177.1050  140.3680 C   0  0  2  0  0  3  0  0  0  0  0  0
  187.3320  179.3420  136.7520 O   0  0  0  0  0  1  0  0  0  0  0  0
  188.1260  177.3610  137.9930 C   0  0  2  0  0  3  0  0  0  0  0  0
  188.3540  178.4100  136.9360 C   0  0  0  0  0  0  0  0  0  0  0  0
  189.0920  178.0210  135.8180 O   0  0  0  0  0  1  0  0  0  0  0  0
  188.2360  177.9990  139.3670 C   0  0  2  0  0  3  0  0  0  0  0  0
  189.1150  178.5020  138.2330 C   0  0  1  0  0  3  0  0  0  0  0  0
  188.2500  176.8960  145.3210 C   0  0  0  0  0  2  0  0  0  0  0  0
  187.8510  177.7900  146.4530 C   0  0  0  0  0  0  0  0  0  0  0  0
  188.7090  178.2850  147.1670 O   0  0  0  0  0  0  0  0  0  0  0  0
  186.2490  179.4440  147.0440 O   0  0  0  0  0  1  0  0  0  0  0  0
  186.4030  178.1040  146.6780 C   0  0  1  0  0  3  0  0  0  0  0  0
  185.6100  177.8070  145.4140 C   0  0  0  0  0  2  0  0  0  0  0  0
  184.6340  178.9010  145.1120 C   0  0  0  0  0  0  0  0  0  0  0  0
  183.6480  179.0570  145.8160 O   0  0  0  0  0  0  0  0  0  0  0  0
  184.8580  179.7840  143.9260 C   0  0  0  0  0  2  0  0  0  0  0  0
  184.6710  179.0050  142.6320 C   0  0  0  0  0  2  0  0  0  0  0  0
  183.2060  178.6470  142.4440 C   0  0  0  0  0  2  0  0  0  0  0  0
  181.3290  178.4200  140.7990 C   0  0  0  0  0  1  0  0  0  0  0  0
  182.8230  178.6500  140.9710 C   0  0  2  0  0  3  0  0  0  0  0  0
  182.6180  176.2260  139.6930 Cl  0  0  0  0  0  0  0  0  0  0  0  0
  183.6230  177.6270  140.1530 C   0  0  1  0  0  3  0  0  0  0  0  0
  184.3820  177.3750  137.3780 S   0  0  0  0  0  1  0  0  0  0  0  0
  184.9150  179.2880  139.0850 O   0  0  0  0  0  0  0  0  0  0  0  0
  184.3500  178.2110  138.9680 C   0  0  0  0  0  0  0  0  0  0  0  0
  1  5  1  0  0  0  0
  3  8  1  6  0  0  0
  4  2  1  6  0  0  0
  4  1  1  0  0  0  0
  4  7  1  0  0  0  0
  5  6  1  0  0  0  0
  6 10  1  1  0  0  0
  6  3  1  0  0  0  0
  7  9  1  0  0  0  0
  9  3  1  0  0  0  0
  9 20  1  1  0  0  0
 10 11  1  0  0  0  0
 13 12  1  6  0  0  0
 13  4  1  0  0  0  0
 14 16  1  0  0  0  0
 15 16  1  6  0  0  0
 15 19  1  0  0  0  0
 15 18  1  0  0  0  0
 17 16  1  0  0  0  0
 18 13  1  1  0  0  0
 19 16  1  6  0  0  0
 19 18  1  0  0  0  0
 20 21  1  0  0  0  0
 21 24  1  0  0  0  0
 21 22  2  0  0  0  0
 24 23  1  6  0  0  0
 25 24  1  0  0  0  0
 26 25  1  0  0  0  0
 26 27  2  0  0  0  0
 28 26  1  0  0  0  0
 29 28  1  0  0  0  0
 30 29  1  0  0  0  0
 32 31  1  1  0  0  0
 32 30  1  0  0  0  0
 34 33  1  6  0  0  0
 34 32  1  0  0  0  0
 35 37  1  0  0  0  0
 37 36  2  0  0  0  0
 37 34  1  0  0  0  0
M  END
>  <MODEL>
1

>  <REMARK>
 VINA RESULT:      -7.7      0.000      0.000
  Name = 
  14 active torsions:
  status: ('A' for Active; 'I' for Inactive)
    1  A    between atoms: C_1  and  C_5
    2  A    between atoms: C_1  and  C_36
    3  A    between atoms: O_4  and  C_28
    4  A    between atoms: C_5  and  C_17
    5  A    between atoms: C_7  and  C_27
    6  A    between atoms: C_7  and  C_33
    7  A    between atoms: C_11  and  C_26
    8  A    between atoms: C_11  and  C_33
    9  A    between atoms: C_17  and  C_26
   10  A    between atoms: C_18  and  C_19
   11  A    between atoms: C_18  and  C_35
   12  A    between atoms: C_20  and  C_24
   13  A    between atoms: C_24  and  C_30
   14  A    between atoms: C_27  and  C_35
                            x       y       z     vdW  Elec       q    Type
                         _______ _______ _______ _____ _____    ______ ____

>  <TORSDO>
F 14

$$$$
=
 OpenBabel10262423083D

 37 39  0  0  1  0  0  0  0  0999 V2000
  190.7420  177.8270  142.0580 O   0  0  0  0  0  0  0  0  0  0  0  0
  188.8610  179.0920  141.7900 O   0  0  0  0  0  1  0  0  0  0  0  0
  190.4770  177.8950  144.7100 C   0  0  1  0  0  3  0  0  0  0  0  0
  189.3340  177.7800  141.8820 C   0  0  2  0  0  0  0  0  0  0  0  0
  191.1140  176.6870  142.6210 O   0  0  0  0  0  0  0  0  0  0  0  0
  191.4730  176.9810  143.9540 C   0  0  2  0  0  3  0  0  0  0  0  0
  188.6240  177.0850  143.0640 C   0  0  0  0  0  2  0  0  0  0  0  0
  190.8630  179.3560  144.5580 C   0  0  0  0  0  1  0  0  0  0  0  0
  188.9750  177.7010  144.4210 C   0  0  1  0  0  3  0  0  0  0  0  0
  191.6430  175.7890  144.6590 O   0  0  0  0  0  0  0  0  0  0  0  0
  191.8740  176.1780  145.9790 C   0  0  0  0  0  1  0  0  0  0  0  0
  190.1650  176.4180  140.0700 O   0  0  0  0  0  1  0  0  0  0  0  0
  189.0130  177.0390  140.5750 C   0  0  2  0  0  3  0  0  0  0  0  0
  187.5710  179.3050  136.8820 O   0  0  0  0  0  1  0  0  0  0  0  0
  188.2630  177.3090  138.1600 C   0  0  2  0  0  3  0  0  0  0  0  0
  188.5640  178.3530  137.1150 C   0  0  0  0  0  0  0  0  0  0  0  0
  189.3480  177.9480  136.0350 O   0  0  0  0  0  1  0  0  0  0  0  0
  188.3180  177.9460  139.5380 C   0  0  2  0  0  3  0  0  0  0  0  0
  189.2620  178.4300  138.4490 C   0  0  1  0  0  3  0  0  0  0  0  0
  188.3030  176.9150  145.5370 C   0  0  0  0  0  2  0  0  0  0  0  0
  187.7340  177.8490  146.5570 C   0  0  0  0  0  0  0  0  0  0  0  0
  188.4550  178.3110  147.4270 O   0  0  0  0  0  0  0  0  0  0  0  0
  186.0700  179.4210  147.2020 O   0  0  0  0  0  1  0  0  0  0  0  0
  186.2900  178.2450  146.4790 C   0  0  1  0  0  3  0  0  0  0  0  0
  185.8860  178.4330  145.0250 C   0  0  0  0  0  2  0  0  0  0  0  0
  184.4450  178.8200  144.9050 C   0  0  0  0  0  0  0  0  0  0  0  0
  183.7460  178.9080  145.9020 O   0  0  0  0  0  0  0  0  0  0  0  0
  183.8590  179.0710  143.5520 C   0  0  0  0  0  2  0  0  0  0  0  0
  184.5390  178.2050  142.5010 C   0  0  0  0  0  2  0  0  0  0  0  0
  184.7920  179.0150  141.2400 C   0  0  0  0  0  2  0  0  0  0  0  0
  184.7580  178.7510  138.7490 C   0  0  0  0  0  1  0  0  0  0  0  0
  184.0410  178.4310  140.0510 C   0  0  2  0  0  3  0  0  0  0  0  0
  182.1960  179.6450  138.4160 Cl  0  0  0  0  0  0  0  0  0  0  0  0
  182.5800  178.8990  139.9910 C   0  0  1  0  0  3  0  0  0  0  0  0
  181.4470  176.2930  139.4750 S   0  0  0  0  0  1  0  0  0  0  0  0
  180.8390  178.0370  141.3310 O   0  0  0  0  0  0  0  0  0  0  0  0
  181.5740  177.8430  140.3740 C   0  0  0  0  0  0  0  0  0  0  0  0
  1  5  1  0  0  0  0
  3  8  1  6  0  0  0
  4  2  1  6  0  0  0
  4  1  1  0  0  0  0
  4  7  1  0  0  0  0
  5  6  1  0  0  0  0
  6 10  1  1  0  0  0
  6  3  1  0  0  0  0
  7  9  1  0  0  0  0
  9  3  1  0  0  0  0
  9 20  1  1  0  0  0
 10 11  1  0  0  0  0
 13 12  1  6  0  0  0
 13  4  1  0  0  0  0
 14 16  1  0  0  0  0
 15 16  1  6  0  0  0
 15 19  1  0  0  0  0
 15 18  1  0  0  0  0
 17 16  1  0  0  0  0
 18 13  1  1  0  0  0
 19 16  1  6  0  0  0
 19 18  1  0  0  0  0
 20 21  1  0  0  0  0
 21 22  2  0  0  0  0
 24 21  1  0  0  0  0
 24 23  1  1  0  0  0
 25 24  1  0  0  0  0
 26 25  1  0  0  0  0
 26 27  2  0  0  0  0
 28 26  1  0  0  0  0
 29 28  1  0  0  0  0
 30 29  1  0  0  0  0
 32 31  1  6  0  0  0
 32 30  1  0  0  0  0
 34 33  1  6  0  0  0
 34 32  1  0  0  0  0
 34 37  1  0  0  0  0
 35 37  1  0  0  0  0
 37 36  2  0  0  0  0
M  END
>  <MODEL>
2

>  <REMARK>
 VINA RESULT:      -7.6      1.275      1.563
  Name = 
  14 active torsions:
  status: ('A' for Active; 'I' for Inactive)
    1  A    between atoms: C_1  and  C_5
    2  A    between atoms: C_1  and  C_36
    3  A    between atoms: O_4  and  C_28
    4  A    between atoms: C_5  and  C_17
    5  A    between atoms: C_7  and  C_27
    6  A    between atoms: C_7  and  C_33
    7  A    between atoms: C_11  and  C_26
    8  A    between atoms: C_11  and  C_33
    9  A    between atoms: C_17  and  C_26
   10  A    between atoms: C_18  and  C_19
   11  A    between atoms: C_18  and  C_35
   12  A    between atoms: C_20  and  C_24
   13  A    between atoms: C_24  and  C_30
   14  A    between atoms: C_27  and  C_35
                            x       y       z     vdW  Elec       q    Type
                         _______ _______ _______ _____ _____    ______ ____

>  <TORSDO>
F 14

$$$$
=
 OpenBabel10262423083D

 37 39  0  0  1  0  0  0  0  0999 V2000
  183.1500  178.6510  140.2560 O   0  0  0  0  0  0  0  0  0  0  0  0
  184.4650  180.2910  139.3670 O   0  0  0  0  0  1  0  0  0  0  0  0
  182.9180  177.4700  137.8770 C   0  0  1  0  0  3  0  0  0  0  0  0
  184.4880  179.0340  139.9770 C   0  0  2  0  0  0  0  0  0  0  0  0
  183.1230  177.3310  140.3610 O   0  0  0  0  0  0  0  0  0  0  0  0
  182.4620  176.8370  139.2150 C   0  0  2  0  0  3  0  0  0  0  0  0
  185.1890  178.0410  139.0240 C   0  0  0  0  0  2  0  0  0  0  0  0
  182.0640  178.6770  137.5310 C   0  0  0  0  0  1  0  0  0  0  0  0
  184.4150  177.8070  137.7250 C   0  0  1  0  0  3  0  0  0  0  0  0
  182.6160  175.4520  139.1560 O   0  0  0  0  0  0  0  0  0  0  0  0
  181.3180  174.9470  139.0760 C   0  0  0  0  0  1  0  0  0  0  0  0
  186.3120  178.1900  141.3140 O   0  0  0  0  0  1  0  0  0  0  0  0
  185.2710  179.1300  141.2950 C   0  0  2  0  0  3  0  0  0  0  0  0
  183.3880  178.9450  145.4510 O   0  0  0  0  0  1  0  0  0  0  0  0
  184.8790  179.8480  143.7030 C   0  0  2  0  0  3  0  0  0  0  0  0
  184.6950  179.0650  144.9780 C   0  0  0  0  0  0  0  0  0  0  0  0
  185.7250  179.1460  145.9150 O   0  0  0  0  0  1  0  0  0  0  0  0
  184.3540  179.0340  142.5330 C   0  0  2  0  0  3  0  0  0  0  0  0
  185.0130  178.3250  143.7040 C   0  0  1  0  0  3  0  0  0  0  0  0
  185.1250  176.7610  136.8790 C   0  0  0  0  0  2  0  0  0  0  0  0
  186.5550  177.1490  136.6690 C   0  0  0  0  0  0  0  0  0  0  0  0
  186.8260  178.1080  135.9630 O   0  0  0  0  0  0  0  0  0  0  0  0
  187.9030  175.1900  136.6780 O   0  0  0  0  0  1  0  0  0  0  0  0
  187.6430  176.3830  137.3590 C   0  0  1  0  0  3  0  0  0  0  0  0
  188.9010  177.2330  137.4370 C   0  0  0  0  0  2  0  0  0  0  0  0
  189.1470  177.7160  138.8330 C   0  0  0  0  0  0  0  0  0  0  0  0
  188.7720  178.8260  139.1750 O   0  0  0  0  0  0  0  0  0  0  0  0
  189.8810  176.8410  139.7980 C   0  0  0  0  0  2  0  0  0  0  0  0
  189.7220  177.3570  141.2210 C   0  0  0  0  0  2  0  0  0  0  0  0
  190.3810  176.4000  142.2010 C   0  0  0  0  0  2  0  0  0  0  0  0
  188.6250  177.4520  143.6480 C   0  0  0  0  0  1  0  0  0  0  0  0
  189.9390  176.6850  143.6300 C   0  0  2  0  0  3  0  0  0  0  0  0
  190.8590  179.2000  144.2480 Cl  0  0  0  0  0  0  0  0  0  0  0  0
  191.0090  177.4310  144.4380 C   0  0  1  0  0  3  0  0  0  0  0  0
  189.6790  177.2010  146.9920 S   0  0  0  0  0  1  0  0  0  0  0  0
  192.1250  176.5500  146.3220 O   0  0  0  0  0  0  0  0  0  0  0  0
  191.0870  177.0270  145.8890 C   0  0  0  0  0  0  0  0  0  0  0  0
  1  5  1  0  0  0  0
  3  8  1  1  0  0  0
  3  6  1  0  0  0  0
  4  2  1  6  0  0  0
  4  1  1  0  0  0  0
  4 13  1  0  0  0  0
  6 10  1  6  0  0  0
  6  5  1  0  0  0  0
  7  4  1  0  0  0  0
  9 20  1  1  0  0  0
  9  3  1  0  0  0  0
  9  7  1  0  0  0  0
 11 10  1  0  0  0  0
 13 12  1  1  0  0  0
 15 19  1  0  0  0  0
 15 16  1  1  0  0  0
 16 14  1  0  0  0  0
 16 17  1  0  0  0  0
 18 13  1  6  0  0  0
 18 15  1  0  0  0  0
 18 19  1  0  0  0  0
 19 16  1  1  0  0  0
 21 20  1  0  0  0  0
 21 24  1  0  0  0  0
 22 21  2  0  0  0  0
 24 23  1  6  0  0  0
 24 25  1  0  0  0  0
 25 26  1  0  0  0  0
 26 27  2  0  0  0  0
 26 28  1  0  0  0  0
 28 29  1  0  0  0  0
 29 30  1  0  0  0  0
 30 32  1  0  0  0  0
 32 31  1  6  0  0  0
 32 34  1  0  0  0  0
 34 33  1  1  0  0  0
 34 37  1  0  0  0  0
 37 36  2  0  0  0  0
 37 35  1  0  0  0  0
M  END
>  <MODEL>
3

>  <REMARK>
 VINA RESULT:      -7.3      3.057      8.701
  Name = 
  14 active torsions:
  status: ('A' for Active; 'I' for Inactive)
    1  A    between atoms: C_1  and  C_5
    2  A    between atoms: C_1  and  C_36
    3  A    between atoms: O_4  and  C_28
    4  A    between atoms: C_5  and  C_17
    5  A    between atoms: C_7  and  C_27
    6  A    between atoms: C_7  and  C_33
    7  A    between atoms: C_11  and  C_26
    8  A    between atoms: C_11  and  C_33
    9  A    between atoms: C_17  and  C_26
   10  A    between atoms: C_18  and  C_19
   11  A    between atoms: C_18  and  C_35
   12  A    between atoms: C_20  and  C_24
   13  A    between atoms: C_24  and  C_30
   14  A    between atoms: C_27  and  C_35
                            x       y       z     vdW  Elec       q    Type
                         _______ _______ _______ _____ _____    ______ ____

>  <TORSDO>
F 14

$$$$
=
 OpenBabel10262423083D

 37 39  0  0  1  0  0  0  0  0999 V2000
  189.2820  176.7960  144.5100 O   0  0  0  0  0  0  0  0  0  0  0  0
  188.3270  175.2240  143.1590 O   0  0  0  0  0  1  0  0  0  0  0  0
  191.5620  176.6720  143.1360 C   0  0  1  0  0  3  0  0  0  0  0  0
  188.5170  176.5980  143.3310 C   0  0  2  0  0  0  0  0  0  0  0  0
  189.8660  177.9810  144.4160 O   0  0  0  0  0  0  0  0  0  0  0  0
  191.2420  177.7490  144.2030 C   0  0  2  0  0  3  0  0  0  0  0  0
  189.2290  177.1540  142.0780 C   0  0  0  0  0  2  0  0  0  0  0  0
  191.6960  175.3010  143.7760 C   0  0  0  0  0  1  0  0  0  0  0  0
  190.6460  176.6040  141.8990 C   0  0  1  0  0  3  0  0  0  0  0  0
  191.8640  178.9500  143.8590 O   0  0  0  0  0  0  0  0  0  0  0  0
  190.8390  179.8960  143.8430 C   0  0  0  0  0  1  0  0  0  0  0  0
  186.9240  178.1820  142.4470 O   0  0  0  0  0  1  0  0  0  0  0  0
  187.1490  177.2780  143.4950 C   0  0  2  0  0  3  0  0  0  0  0  0
  185.6940  179.2070  147.3700 O   0  0  0  0  0  1  0  0  0  0  0  0
  185.6350  177.5770  145.5170 C   0  0  2  0  0  3  0  0  0  0  0  0
  185.0720  178.8030  146.1900 C   0  0  0  0  0  0  0  0  0  0  0  0
  183.6950  179.0010  146.0750 O   0  0  0  0  0  1  0  0  0  0  0  0
  186.9750  177.9200  144.8880 C   0  0  2  0  0  3  0  0  0  0  0  0
  185.8730  178.9660  144.9240 C   0  0  1  0  0  3  0  0  0  0  0  0
  191.3070  177.2560  140.6940 C   0  0  0  0  0  2  0  0  0  0  0  0
  190.8020  176.6390  139.4280 C   0  0  0  0  0  0  0  0  0  0  0  0
  191.2820  175.5890  139.0310 O   0  0  0  0  0  0  0  0  0  0  0  0
  189.5450  178.6260  139.0730 O   0  0  0  0  0  1  0  0  0  0  0  0
  189.6800  177.2910  138.6790 C   0  0  1  0  0  3  0  0  0  0  0  0
  189.9420  177.2050  137.1830 C   0  0  0  0  0  2  0  0  0  0  0  0
  188.7230  176.7500  136.4410 C   0  0  0  0  0  0  0  0  0  0  0  0
  188.3250  175.6020  136.5560 O   0  0  0  0  0  0  0  0  0  0  0  0
  188.0110  177.7050  135.5370 C   0  0  0  0  0  2  0  0  0  0  0  0
  186.5440  177.8230  135.9260 C   0  0  0  0  0  2  0  0  0  0  0  0
  186.4210  178.2040  137.3920 C   0  0  0  0  0  2  0  0  0  0  0  0
  184.6860  176.4110  137.1660 C   0  0  0  0  0  1  0  0  0  0  0  0
  185.2060  177.5480  138.0320 C   0  0  2  0  0  3  0  0  0  0  0  0
  182.5020  177.9580  137.7600 Cl  0  0  0  0  0  0  0  0  0  0  0  0
  184.0850  178.5520  138.3320 C   0  0  1  0  0  3  0  0  0  0  0  0
  182.6790  178.5300  140.8560 S   0  0  0  0  0  1  0  0  0  0  0  0
  184.9290  179.7050  140.2110 O   0  0  0  0  0  0  0  0  0  0  0  0
  184.0270  179.0090  139.7680 C   0  0  0  0  0  0  0  0  0  0  0  0
  3  8  1  1  0  0  0
  3  6  1  0  0  0  0
  4  2  1  6  0  0  0
  4 13  1  0  0  0  0
  4  1  1  0  0  0  0
  5  1  1  0  0  0  0
  6 10  1  6  0  0  0
  6  5  1  0  0  0  0
  7  4  1  0  0  0  0
  9 20  1  6  0  0  0
  9  7  1  0  0  0  0
  9  3  1  0  0  0  0
 11 10  1  0  0  0  0
 13 12  1  6  0  0  0
 15 16  1  1  0  0  0
 16 14  1  0  0  0  0
 17 16  1  0  0  0  0
 18 13  1  6  0  0  0
 18 19  1  0  0  0  0
 18 15  1  0  0  0  0
 19 15  1  0  0  0  0
 19 16  1  1  0  0  0
 21 20  1  0  0  0  0
 22 21  2  0  0  0  0
 24 23  1  1  0  0  0
 24 21  1  0  0  0  0
 25 24  1  0  0  0  0
 26 27  2  0  0  0  0
 26 25  1  0  0  0  0
 28 29  1  0  0  0  0
 28 26  1  0  0  0  0
 29 30  1  0  0  0  0
 30 32  1  0  0  0  0
 32 31  1  6  0  0  0
 32 34  1  0  0  0  0
 34 33  1  1  0  0  0
 34 37  1  0  0  0  0
 37 36  2  0  0  0  0
 37 35  1  0  0  0  0
M  END
>  <MODEL>
4

>  <REMARK>
 VINA RESULT:      -7.0      1.978      6.372
  Name = 
  14 active torsions:
  status: ('A' for Active; 'I' for Inactive)
    1  A    between atoms: C_1  and  C_5
    2  A    between atoms: C_1  and  C_36
    3  A    between atoms: O_4  and  C_28
    4  A    between atoms: C_5  and  C_17
    5  A    between atoms: C_7  and  C_27
    6  A    between atoms: C_7  and  C_33
    7  A    between atoms: C_11  and  C_26
    8  A    between atoms: C_11  and  C_33
    9  A    between atoms: C_17  and  C_26
   10  A    between atoms: C_18  and  C_19
   11  A    between atoms: C_18  and  C_35
   12  A    between atoms: C_20  and  C_24
   13  A    between atoms: C_24  and  C_30
   14  A    between atoms: C_27  and  C_35
                            x       y       z     vdW  Elec       q    Type
                         _______ _______ _______ _____ _____    ______ ____

>  <TORSDO>
F 14

$$$$
=
 OpenBabel10262423083D

 37 39  0  0  1  0  0  0  0  0999 V2000
  189.1890  177.0020  144.6480 O   0  0  0  0  0  0  0  0  0  0  0  0
  187.9020  175.7120  143.2730 O   0  0  0  0  0  1  0  0  0  0  0  0
  191.3210  176.6320  143.0910 C   0  0  1  0  0  3  0  0  0  0  0  0
  188.3240  177.0210  143.5220 C   0  0  2  0  0  0  0  0  0  0  0  0
  189.9500  178.0840  144.5880 O   0  0  0  0  0  0  0  0  0  0  0  0
  191.2530  177.6570  144.2500 C   0  0  2  0  0  3  0  0  0  0  0  0
  189.0300  177.5570  142.2580 C   0  0  0  0  0  2  0  0  0  0  0  0
  191.2730  175.2110  143.6230 C   0  0  0  0  0  1  0  0  0  0  0  0
  190.3230  176.8080  141.9290 C   0  0  1  0  0  3  0  0  0  0  0  0
  192.0360  178.7700  143.9410 O   0  0  0  0  0  0  0  0  0  0  0  0
  191.2020  179.8680  144.1480 C   0  0  0  0  0  1  0  0  0  0  0  0
  186.2390  177.2210  144.7230 O   0  0  0  0  0  1  0  0  0  0  0  0
  187.0990  177.8920  143.8410 C   0  0  2  0  0  3  0  0  0  0  0  0
  184.1830  179.3170  140.6290 O   0  0  0  0  0  1  0  0  0  0  0  0
  185.1800  179.2610  142.8860 C   0  0  2  0  0  3  0  0  0  0  0  0
  184.0470  178.9100  141.9560 C   0  0  0  0  0  0  0  0  0  0  0  0
  182.7660  178.8960  142.5080 O   0  0  0  0  0  1  0  0  0  0  0  0
  186.3820  178.3880  142.5680 C   0  0  2  0  0  3  0  0  0  0  0  0
  184.9800  177.8200  142.4170 C   0  0  1  0  0  3  0  0  0  0  0  0
  190.9990  177.4430  140.7220 C   0  0  0  0  0  2  0  0  0  0  0  0
  190.5050  176.8090  139.4600 C   0  0  0  0  0  0  0  0  0  0  0  0
  190.8140  175.6570  139.1980 O   0  0  0  0  0  0  0  0  0  0  0  0
  190.1750  177.6920  137.2770 O   0  0  0  0  0  1  0  0  0  0  0  0
  189.6000  177.5790  138.5460 C   0  0  1  0  0  3  0  0  0  0  0  0
  188.2490  176.8850  138.4560 C   0  0  0  0  0  2  0  0  0  0  0  0
  187.1420  177.8720  138.2540 C   0  0  0  0  0  0  0  0  0  0  0  0
  186.8910  178.7000  139.1150 O   0  0  0  0  0  0  0  0  0  0  0  0
  186.3260  177.8200  137.0010 C   0  0  0  0  0  2  0  0  0  0  0  0
  186.7480  176.6430  136.1330 C   0  0  0  0  0  2  0  0  0  0  0  0
  185.5540  175.7460  135.8510 C   0  0  0  0  0  2  0  0  0  0  0  0
  186.3850  173.8400  137.2490 C   0  0  0  0  0  1  0  0  0  0  0  0
  185.2560  174.8370  137.0350 C   0  0  2  0  0  3  0  0  0  0  0  0
  184.0700  172.3680  137.2540 Cl  0  0  0  0  0  0  0  0  0  0  0  0
  183.9120  174.1090  136.8940 C   0  0  1  0  0  3  0  0  0  0  0  0
  183.0300  176.2020  138.6790 S   0  0  0  0  0  1  0  0  0  0  0  0
  181.6590  174.2610  137.5780 O   0  0  0  0  0  0  0  0  0  0  0  0
  182.7800  174.7410  137.6630 C   0  0  0  0  0  0  0  0  0  0  0  0
  3  8  1  1  0  0  0
  3  6  1  0  0  0  0
  4  2  1  6  0  0  0
  4 13  1  0  0  0  0
  4  1  1  0  0  0  0
  5  1  1  0  0  0  0
  6 10  1  6  0  0  0
  6  5  1  0  0  0  0
  7  4  1  0  0  0  0
  9 20  1  6  0  0  0
  9  7  1  0  0  0  0
  9  3  1  0  0  0  0
 10 11  1  0  0  0  0
 13 12  1  1  0  0  0
 14 16  1  0  0  0  0
 15 16  1  6  0  0  0
 16 17  1  0  0  0  0
 18 15  1  0  0  0  0
 18 13  1  1  0  0  0
 19 16  1  6  0  0  0
 19 18  1  0  0  0  0
 19 15  1  0  0  0  0
 21 20  1  0  0  0  0
 22 21  2  0  0  0  0
 24 23  1  6  0  0  0
 24 21  1  0  0  0  0
 25 24  1  0  0  0  0
 26 25  1  0  0  0  0
 26 27  2  0  0  0  0
 28 26  1  0  0  0  0
 29 28  1  0  0  0  0
 30 29  1  0  0  0  0
 30 32  1  0  0  0  0
 32 31  1  6  0  0  0
 34 32  1  0  0  0  0
 34 33  1  1  0  0  0
 34 37  1  0  0  0  0
 36 37  2  0  0  0  0
 37 35  1  0  0  0  0
M  END
>  <MODEL>
5

>  <REMARK>
 VINA RESULT:      -6.9      2.621      5.868
  Name = 
  14 active torsions:
  status: ('A' for Active; 'I' for Inactive)
    1  A    between atoms: C_1  and  C_5
    2  A    between atoms: C_1  and  C_36
    3  A    between atoms: O_4  and  C_28
    4  A    between atoms: C_5  and  C_17
    5  A    between atoms: C_7  and  C_27
    6  A    between atoms: C_7  and  C_33
    7  A    between atoms: C_11  and  C_26
    8  A    between atoms: C_11  and  C_33
    9  A    between atoms: C_17  and  C_26
   10  A    between atoms: C_18  and  C_19
   11  A    between atoms: C_18  and  C_35
   12  A    between atoms: C_20  and  C_24
   13  A    between atoms: C_24  and  C_30
   14  A    between atoms: C_27  and  C_35
                            x       y       z     vdW  Elec       q    Type
                         _______ _______ _______ _____ _____    ______ ____

>  <TORSDO>
F 14

$$$$
=
 OpenBabel10262423083D

 37 39  0  0  1  0  0  0  0  0999 V2000
  182.8150  176.3310  137.9060 O   0  0  0  0  0  0  0  0  0  0  0  0
  183.0690  178.5970  138.0170 O   0  0  0  0  0  1  0  0  0  0  0  0
  184.7430  176.1490  136.0740 C   0  0  1  0  0  3  0  0  0  0  0  0
  183.4950  177.3860  138.5700 C   0  0  2  0  0  0  0  0  0  0  0  0
  183.5360  175.2310  138.0560 O   0  0  0  0  0  0  0  0  0  0  0  0
  184.1100  174.9360  136.8000 C   0  0  2  0  0  3  0  0  0  0  0  0
  185.0270  177.2840  138.4040 C   0  0  0  0  0  2  0  0  0  0  0  0
  183.7300  176.8210  135.1630 C   0  0  0  0  0  1  0  0  0  0  0  0
  185.4680  177.1980  136.9410 C   0  0  1  0  0  3  0  0  0  0  0  0
  185.0660  173.9310  136.9550 O   0  0  0  0  0  0  0  0  0  0  0  0
  184.3730  172.8580  137.5160 C   0  0  0  0  0  1  0  0  0  0  0  0
  181.7470  177.5050  140.2300 O   0  0  0  0  0  1  0  0  0  0  0  0
  183.1320  177.3600  140.0620 C   0  0  2  0  0  3  0  0  0  0  0  0
  185.0910  179.9770  143.2510 O   0  0  0  0  0  1  0  0  0  0  0  0
  184.3180  177.8530  142.2570 C   0  0  2  0  0  3  0  0  0  0  0  0
  184.1480  178.9490  143.2780 C   0  0  0  0  0  0  0  0  0  0  0  0
  183.6250  178.5750  144.5160 O   0  0  0  0  0  1  0  0  0  0  0  0
  183.9450  178.3840  140.8840 C   0  0  2  0  0  3  0  0  0  0  0  0
  183.1990  178.8850  142.1100 C   0  0  1  0  0  3  0  0  0  0  0  0
  186.9770  177.0190  136.8630 C   0  0  0  0  0  2  0  0  0  0  0  0
  187.6680  178.3090  137.1750 C   0  0  0  0  0  0  0  0  0  0  0  0
  187.1980  179.3620  136.7720 O   0  0  0  0  0  0  0  0  0  0  0  0
  189.0530  179.5270  138.6750 O   0  0  0  0  0  1  0  0  0  0  0  0
  188.9090  178.3040  138.0150 C   0  0  1  0  0  3  0  0  0  0  0  0
  188.8440  177.1640  139.0200 C   0  0  0  0  0  2  0  0  0  0  0  0
  190.1900  176.8840  139.6140 C   0  0  0  0  0  0  0  0  0  0  0  0
  191.1470  176.6590  138.8900 O   0  0  0  0  0  0  0  0  0  0  0  0
  190.3490  176.8540  141.1010 C   0  0  0  0  0  2  0  0  0  0  0  0
  189.2520  177.6650  141.7760 C   0  0  0  0  0  2  0  0  0  0  0  0
  189.6300  177.9560  143.2190 C   0  0  0  0  0  2  0  0  0  0  0  0
  187.6430  176.4550  143.4890 C   0  0  0  0  0  1  0  0  0  0  0  0
  188.8460  177.0770  144.1820 C   0  0  2  0  0  3  0  0  0  0  0  0
  186.6510  177.6920  145.7170 Cl  0  0  0  0  0  0  0  0  0  0  0  0
  188.4100  177.8310  145.4450 C   0  0  1  0  0  3  0  0  0  0  0  0
  188.7530  178.1270  148.2980 S   0  0  0  0  0  1  0  0  0  0  0  0
  190.1530  176.7230  146.5870 O   0  0  0  0  0  0  0  0  0  0  0  0
  189.1990  177.4810  146.6820 C   0  0  0  0  0  0  0  0  0  0  0  0
  1  5  1  0  0  0  0
  1  4  1  0  0  0  0
  3  8  1  1  0  0  0
  3  6  1  0  0  0  0
  3  9  1  0  0  0  0
  4  2  1  6  0  0  0
  4 13  1  0  0  0  0
  6 10  1  1  0  0  0
  6  5  1  0  0  0  0
  7  4  1  0  0  0  0
  9 20  1  1  0  0  0
  9  7  1  0  0  0  0
 10 11  1  0  0  0  0
 13 12  1  6  0  0  0
 14 16  1  0  0  0  0
 15 16  1  1  0  0  0
 16 17  1  0  0  0  0
 18 13  1  6  0  0  0
 18 19  1  0  0  0  0
 18 15  1  0  0  0  0
 19 15  1  0  0  0  0
 19 16  1  1  0  0  0
 20 21  1  0  0  0  0
 21 24  1  0  0  0  0
 22 21  2  0  0  0  0
 24 23  1  1  0  0  0
 24 25  1  0  0  0  0
 25 26  1  0  0  0  0
 26 28  1  0  0  0  0
 27 26  2  0  0  0  0
 28 29  1  0  0  0  0
 29 30  1  0  0  0  0
 30 32  1  0  0  0  0
 32 31  1  6  0  0  0
 32 34  1  0  0  0  0
 34 33  1  1  0  0  0
 34 37  1  0  0  0  0
 36 37  2  0  0  0  0
 37 35  1  0  0  0  0
M  END
>  <MODEL>
6

>  <REMARK>
 VINA RESULT:      -6.9      3.328      8.463
  Name = 
  14 active torsions:
  status: ('A' for Active; 'I' for Inactive)
    1  A    between atoms: C_1  and  C_5
    2  A    between atoms: C_1  and  C_36
    3  A    between atoms: O_4  and  C_28
    4  A    between atoms: C_5  and  C_17
    5  A    between atoms: C_7  and  C_27
    6  A    between atoms: C_7  and  C_33
    7  A    between atoms: C_11  and  C_26
    8  A    between atoms: C_11  and  C_33
    9  A    between atoms: C_17  and  C_26
   10  A    between atoms: C_18  and  C_19
   11  A    between atoms: C_18  and  C_35
   12  A    between atoms: C_20  and  C_24
   13  A    between atoms: C_24  and  C_30
   14  A    between atoms: C_27  and  C_35
                            x       y       z     vdW  Elec       q    Type
                         _______ _______ _______ _____ _____    ______ ____

>  <TORSDO>
F 14

$$$$
=
 OpenBabel10262423083D

 37 39  0  0  1  0  0  0  0  0999 V2000
  189.2950  176.8180  144.5530 O   0  0  0  0  0  0  0  0  0  0  0  0
  188.3230  175.2970  143.1570 O   0  0  0  0  0  1  0  0  0  0  0  0
  191.5910  176.6710  143.2070 C   0  0  1  0  0  3  0  0  0  0  0  0
  188.5420  176.6620  143.3600 C   0  0  2  0  0  0  0  0  0  0  0  0
  189.9070  177.9910  144.4920 O   0  0  0  0  0  0  0  0  0  0  0  0
  191.2810  177.7320  144.2910 C   0  0  2  0  0  3  0  0  0  0  0  0
  189.2830  177.2270  142.1290 C   0  0  0  0  0  2  0  0  0  0  0  0
  191.6840  175.2840  143.8190 C   0  0  0  0  0  1  0  0  0  0  0  0
  190.6890  176.6490  141.9560 C   0  0  1  0  0  3  0  0  0  0  0  0
  191.9340  178.9250  143.9810 O   0  0  0  0  0  0  0  0  0  0  0  0
  190.9300  179.8950  143.9740 C   0  0  0  0  0  1  0  0  0  0  0  0
  186.9770  178.2660  142.4640 O   0  0  0  0  0  1  0  0  0  0  0  0
  187.1880  177.3690  143.5210 C   0  0  2  0  0  3  0  0  0  0  0  0
  185.7730  179.3070  147.4060 O   0  0  0  0  0  1  0  0  0  0  0  0
  185.7260  177.6430  145.5840 C   0  0  2  0  0  3  0  0  0  0  0  0
  185.1320  178.8560  146.2530 C   0  0  0  0  0  0  0  0  0  0  0  0
  183.7460  178.9960  146.1780 O   0  0  0  0  0  1  0  0  0  0  0  0
  187.0290  178.0290  144.9070 C   0  0  2  0  0  3  0  0  0  0  0  0
  185.8860  179.0290  144.9600 C   0  0  1  0  0  3  0  0  0  0  0  0
  191.3820  177.3110  140.7740 C   0  0  0  0  0  2  0  0  0  0  0  0
  190.9030  176.7090  139.4900 C   0  0  0  0  0  0  0  0  0  0  0  0
  190.8910  175.4950  139.3560 O   0  0  0  0  0  0  0  0  0  0  0  0
  190.8090  177.1100  137.1490 O   0  0  0  0  0  1  0  0  0  0  0  0
  190.4020  177.5990  138.3930 C   0  0  1  0  0  3  0  0  0  0  0  0
  188.8850  177.6890  138.4560 C   0  0  0  0  0  2  0  0  0  0  0  0
  188.3570  178.6940  137.4800 C   0  0  0  0  0  0  0  0  0  0  0  0
  188.8430  179.8130  137.4260 O   0  0  0  0  0  0  0  0  0  0  0  0
  187.2120  178.3280  136.5900 C   0  0  0  0  0  2  0  0  0  0  0  0
  186.2290  177.4260  137.3220 C   0  0  0  0  0  2  0  0  0  0  0  0
  185.0710  177.0640  136.4070 C   0  0  0  0  0  2  0  0  0  0  0  0
  183.4240  178.2510  137.8750 C   0  0  0  0  0  1  0  0  0  0  0  0
  183.7700  176.9390  137.1880 C   0  0  2  0  0  3  0  0  0  0  0  0
  182.5680  176.0050  139.4770 Cl  0  0  0  0  0  0  0  0  0  0  0  0
  183.8030  175.7900  138.2060 C   0  0  1  0  0  3  0  0  0  0  0  0
  182.2440  173.7900  136.8240 S   0  0  0  0  0  1  0  0  0  0  0  0
  184.7450  173.7140  137.5960 O   0  0  0  0  0  0  0  0  0  0  0  0
  183.7430  174.4150  137.5910 C   0  0  0  0  0  0  0  0  0  0  0  0
  3  8  1  1  0  0  0
  3  6  1  0  0  0  0
  4  2  1  6  0  0  0
  4 13  1  0  0  0  0
  4  1  1  0  0  0  0
  5  1  1  0  0  0  0
  6 10  1  6  0  0  0
  6  5  1  0  0  0  0
  7  4  1  0  0  0  0
  9 20  1  6  0  0  0
  9  7  1  0  0  0  0
  9  3  1  0  0  0  0
 11 10  1  0  0  0  0
 13 12  1  6  0  0  0
 15 16  1  1  0  0  0
 16 14  1  0  0  0  0
 17 16  1  0  0  0  0
 18 13  1  6  0  0  0
 18 19  1  0  0  0  0
 18 15  1  0  0  0  0
 19 15  1  0  0  0  0
 19 16  1  1  0  0  0
 21 20  1  0  0  0  0
 22 21  2  0  0  0  0
 24 23  1  6  0  0  0
 24 25  1  0  0  0  0
 24 21  1  0  0  0  0
 26 25  1  0  0  0  0
 27 26  2  0  0  0  0
 28 29  1  0  0  0  0
 28 26  1  0  0  0  0
 30 32  1  0  0  0  0
 30 29  1  0  0  0  0
 32 31  1  1  0  0  0
 32 34  1  0  0  0  0
 34 33  1  1  0  0  0
 35 37  1  0  0  0  0
 37 36  2  0  0  0  0
 37 34  1  0  0  0  0
M  END
>  <MODEL>
7

>  <REMARK>
 VINA RESULT:      -6.9      2.163      6.326
  Name = 
  14 active torsions:
  status: ('A' for Active; 'I' for Inactive)
    1  A    between atoms: C_1  and  C_5
    2  A    between atoms: C_1  and  C_36
    3  A    between atoms: O_4  and  C_28
    4  A    between atoms: C_5  and  C_17
    5  A    between atoms: C_7  and  C_27
    6  A    between atoms: C_7  and  C_33
    7  A    between atoms: C_11  and  C_26
    8  A    between atoms: C_11  and  C_33
    9  A    between atoms: C_17  and  C_26
   10  A    between atoms: C_18  and  C_19
   11  A    between atoms: C_18  and  C_35
   12  A    between atoms: C_20  and  C_24
   13  A    between atoms: C_24  and  C_30
   14  A    between atoms: C_27  and  C_35
                            x       y       z     vdW  Elec       q    Type
                         _______ _______ _______ _____ _____    ______ ____

>  <TORSDO>
F 14

$$$$
=
 OpenBabel10262423083D

 37 39  0  0  1  0  0  0  0  0999 V2000
  189.9640  174.8400  135.6510 O   0  0  0  0  0  0  0  0  0  0  0  0
  190.8170  173.7190  137.4470 O   0  0  0  0  0  1  0  0  0  0  0  0
  188.3820  176.2870  137.2340 C   0  0  1  0  0  3  0  0  0  0  0  0
  190.9970  174.8350  136.6250 C   0  0  2  0  0  0  0  0  0  0  0  0
  189.8310  176.0820  135.2120 O   0  0  0  0  0  0  0  0  0  0  0  0
  188.6140  176.5770  135.7300 C   0  0  2  0  0  3  0  0  0  0  0  0
  190.9680  176.1030  137.5060 C   0  0  0  0  0  2  0  0  0  0  0  0
  187.6310  174.9800  137.4220 C   0  0  0  0  0  1  0  0  0  0  0  0
  189.6080  176.3450  138.1660 C   0  0  1  0  0  3  0  0  0  0  0  0
  188.5390  177.9510  135.4990 O   0  0  0  0  0  0  0  0  0  0  0  0
  187.1960  178.2770  135.6890 C   0  0  0  0  0  1  0  0  0  0  0  0
  193.0780  173.6290  136.4170 O   0  0  0  0  0  1  0  0  0  0  0  0
  192.3560  174.7240  135.9190 C   0  0  2  0  0  3  0  0  0  0  0  0
  195.4030  178.1130  135.6110 O   0  0  0  0  0  1  0  0  0  0  0  0
  194.0670  176.2150  134.7690 C   0  0  2  0  0  3  0  0  0  0  0  0
  195.3920  176.7730  135.2200 C   0  0  0  0  0  0  0  0  0  0  0  0
  196.5310  176.2660  134.5940 O   0  0  0  0  0  1  0  0  0  0  0  0
  193.1580  176.0430  135.9730 C   0  0  2  0  0  3  0  0  0  0  0  0
  194.6530  175.8210  136.1250 C   0  0  1  0  0  3  0  0  0  0  0  0
  189.6360  177.6490  138.9490 C   0  0  0  0  0  2  0  0  0  0  0  0
  190.1580  177.4110  140.3310 C   0  0  0  0  0  0  0  0  0  0  0  0
  191.2420  176.8700  140.4850 O   0  0  0  0  0  0  0  0  0  0  0  0
  188.0120  177.9760  141.1850 O   0  0  0  0  0  1  0  0  0  0  0  0
  189.3670  177.8770  141.5160 C   0  0  1  0  0  3  0  0  0  0  0  0
  189.5590  176.9110  142.6750 C   0  0  0  0  0  2  0  0  0  0  0  0
  189.6500  177.6370  143.9810 C   0  0  0  0  0  0  0  0  0  0  0  0
  190.2740  178.6830  144.0610 O   0  0  0  0  0  0  0  0  0  0  0  0
  188.9930  177.0590  145.1940 C   0  0  0  0  0  2  0  0  0  0  0  0
  187.7080  177.8060  145.5180 C   0  0  0  0  0  2  0  0  0  0  0  0
  186.6940  177.6100  144.4030 C   0  0  0  0  0  2  0  0  0  0  0  0
  185.1330  178.8650  145.9090 C   0  0  0  0  0  1  0  0  0  0  0  0
  185.5900  178.6560  144.4730 C   0  0  2  0  0  3  0  0  0  0  0  0
  182.8450  178.7300  144.3520 Cl  0  0  0  0  0  0  0  0  0  0  0  0
  184.3950  178.3110  143.5730 C   0  0  1  0  0  3  0  0  0  0  0  0
  183.3700  178.3430  140.8730 S   0  0  0  0  0  1  0  0  0  0  0  0
  185.3360  179.7150  141.9250 O   0  0  0  0  0  0  0  0  0  0  0  0
  184.4900  178.8690  142.1750 C   0  0  0  0  0  0  0  0  0  0  0  0
  1  4  1  0  0  0  0
  3  8  1  6  0  0  0
  3  9  1  0  0  0  0
  4  2  1  1  0  0  0
  4  7  1  0  0  0  0
  5  1  1  0  0  0  0
  5  6  1  0  0  0  0
  6 10  1  1  0  0  0
  6  3  1  0  0  0  0
  7  9  1  0  0  0  0
  9 20  1  6  0  0  0
 10 11  1  0  0  0  0
 13 12  1  1  0  0  0
 13  4  1  0  0  0  0
 15 16  1  1  0  0  0
 15 18  1  0  0  0  0
 15 19  1  0  0  0  0
 16 14  1  0  0  0  0
 17 16  1  0  0  0  0
 18 13  1  6  0  0  0
 18 19  1  0  0  0  0
 19 16  1  1  0  0  0
 20 21  1  0  0  0  0
 21 22  2  0  0  0  0
 21 24  1  0  0  0  0
 24 23  1  6  0  0  0
 24 25  1  0  0  0  0
 25 26  1  0  0  0  0
 26 27  2  0  0  0  0
 26 28  1  0  0  0  0
 28 29  1  0  0  0  0
 30 32  1  0  0  0  0
 30 29  1  0  0  0  0
 32 31  1  1  0  0  0
 34 33  1  1  0  0  0
 34 32  1  0  0  0  0
 35 37  1  0  0  0  0
 36 37  2  0  0  0  0
 37 34  1  0  0  0  0
M  END
>  <MODEL>
8

>  <REMARK>
 VINA RESULT:      -6.8      3.558      6.546
  Name = 
  14 active torsions:
  status: ('A' for Active; 'I' for Inactive)
    1  A    between atoms: C_1  and  C_5
    2  A    between atoms: C_1  and  C_36
    3  A    between atoms: O_4  and  C_28
    4  A    between atoms: C_5  and  C_17
    5  A    between atoms: C_7  and  C_27
    6  A    between atoms: C_7  and  C_33
    7  A    between atoms: C_11  and  C_26
    8  A    between atoms: C_11  and  C_33
    9  A    between atoms: C_17  and  C_26
   10  A    between atoms: C_18  and  C_19
   11  A    between atoms: C_18  and  C_35
   12  A    between atoms: C_20  and  C_24
   13  A    between atoms: C_24  and  C_30
   14  A    between atoms: C_27  and  C_35
                            x       y       z     vdW  Elec       q    Type
                         _______ _______ _______ _____ _____    ______ ____

>  <TORSDO>
F 14

$$$$
=
 OpenBabel10262423083D

 37 39  0  0  1  0  0  0  0  0999 V2000
  190.2690  175.3810  135.9170 O   0  0  0  0  0  0  0  0  0  0  0  0
  190.9950  174.1300  137.6830 O   0  0  0  0  0  1  0  0  0  0  0  0
  188.5190  176.6580  137.4690 C   0  0  1  0  0  3  0  0  0  0  0  0
  191.2150  175.3140  136.9740 C   0  0  2  0  0  0  0  0  0  0  0  0
  190.1410  176.6530  135.5720 O   0  0  0  0  0  0  0  0  0  0  0  0
  188.8710  177.0780  136.0210 C   0  0  2  0  0  3  0  0  0  0  0  0
  191.0760  176.5020  137.9510 C   0  0  0  0  0  2  0  0  0  0  0  0
  187.7910  175.3260  137.4840 C   0  0  0  0  0  1  0  0  0  0  0  0
  189.6590  176.6620  138.5070 C   0  0  1  0  0  3  0  0  0  0  0  0
  188.7800  178.4650  135.8980 O   0  0  0  0  0  0  0  0  0  0  0  0
  187.4430  178.7640  136.1630 C   0  0  0  0  0  1  0  0  0  0  0  0
  192.8060  174.1560  135.5760 O   0  0  0  0  0  1  0  0  0  0  0  0
  192.6320  175.2900  136.3830 C   0  0  2  0  0  3  0  0  0  0  0  0
  196.2830  174.9620  139.1080 O   0  0  0  0  0  1  0  0  0  0  0  0
  195.1040  175.0680  136.9410 C   0  0  2  0  0  3  0  0  0  0  0  0
  195.8410  174.2660  137.9830 C   0  0  0  0  0  0  0  0  0  0  0  0
  196.6240  173.2090  137.5190 O   0  0  0  0  0  1  0  0  0  0  0  0
  193.7240  175.4270  137.4660 C   0  0  2  0  0  3  0  0  0  0  0  0
  194.3490  174.0950  137.8480 C   0  0  1  0  0  3  0  0  0  0  0  0
  189.5850  177.8950  139.3940 C   0  0  0  0  0  2  0  0  0  0  0  0
  189.4280  177.4930  140.8270 C   0  0  0  0  0  0  0  0  0  0  0  0
  188.4060  177.7830  141.4300 O   0  0  0  0  0  0  0  0  0  0  0  0
  191.6710  177.4690  141.6160 O   0  0  0  0  0  1  0  0  0  0  0  0
  190.5080  176.7020  141.4990 C   0  0  1  0  0  3  0  0  0  0  0  0
  190.0340  176.2470  142.8710 C   0  0  0  0  0  2  0  0  0  0  0  0
  191.1620  176.2160  143.8560 C   0  0  0  0  0  0  0  0  0  0  0  0
  191.9550  175.2880  143.8540 O   0  0  0  0  0  0  0  0  0  0  0  0
  191.2950  177.3170  144.8590 C   0  0  0  0  0  2  0  0  0  0  0  0
  190.2480  177.1760  145.9550 C   0  0  0  0  0  2  0  0  0  0  0  0
  189.0250  178.0150  145.6200 C   0  0  0  0  0  2  0  0  0  0  0  0
  188.4590  177.0320  147.8540 C   0  0  0  0  0  1  0  0  0  0  0  0
  187.9920  177.9520  146.7350 C   0  0  2  0  0  3  0  0  0  0  0  0
  185.3130  178.5300  146.9390 Cl  0  0  0  0  0  0  0  0  0  0  0  0
  186.6070  177.5250  146.2300 C   0  0  1  0  0  3  0  0  0  0  0  0
  185.5480  178.6420  143.7860 S   0  0  0  0  0  1  0  0  0  0  0  0
  187.0720  176.5420  144.1350 O   0  0  0  0  0  0  0  0  0  0  0  0
  186.4920  177.4390  144.7290 C   0  0  0  0  0  0  0  0  0  0  0  0
  1  4  1  0  0  0  0
  3  8  1  6  0  0  0
  3  9  1  0  0  0  0
  4  2  1  1  0  0  0
  4  7  1  0  0  0  0
  5  1  1  0  0  0  0
  5  6  1  0  0  0  0
  6 10  1  1  0  0  0
  6  3  1  0  0  0  0
  7  9  1  0  0  0  0
  9 20  1  6  0  0  0
 10 11  1  0  0  0  0
 13 12  1  1  0  0  0
 13  4  1  0  0  0  0
 15 18  1  0  0  0  0
 15 19  1  0  0  0  0
 15 16  1  1  0  0  0
 16 14  1  0  0  0  0
 17 16  1  0  0  0  0
 18 13  1  6  0  0  0
 18 19  1  0  0  0  0
 19 16  1  1  0  0  0
 20 21  1  0  0  0  0
 21 22  2  0  0  0  0
 21 24  1  0  0  0  0
 24 23  1  1  0  0  0
 24 25  1  0  0  0  0
 25 26  1  0  0  0  0
 26 28  1  0  0  0  0
 27 26  2  0  0  0  0
 28 29  1  0  0  0  0
 30 29  1  0  0  0  0
 30 32  1  0  0  0  0
 32 31  1  1  0  0  0
 34 32  1  0  0  0  0
 34 33  1  6  0  0  0
 35 37  1  0  0  0  0
 36 37  2  0  0  0  0
 37 34  1  0  0  0  0
M  END
>  <MODEL>
9

>  <REMARK>
 VINA RESULT:      -6.8      3.837      7.378
  Name = 
  14 active torsions:
  status: ('A' for Active; 'I' for Inactive)
    1  A    between atoms: C_1  and  C_5
    2  A    between atoms: C_1  and  C_36
    3  A    between atoms: O_4  and  C_28
    4  A    between atoms: C_5  and  C_17
    5  A    between atoms: C_7  and  C_27
    6  A    between atoms: C_7  and  C_33
    7  A    between atoms: C_11  and  C_26
    8  A    between atoms: C_11  and  C_33
    9  A    between atoms: C_17  and  C_26
   10  A    between atoms: C_18  and  C_19
   11  A    between atoms: C_18  and  C_35
   12  A    between atoms: C_20  and  C_24
   13  A    between atoms: C_24  and  C_30
   14  A    between atoms: C_27  and  C_35
                            x       y       z     vdW  Elec       q    Type
                         _______ _______ _______ _____ _____    ______ ____

>  <TORSDO>
F 14

$$$$
