=
 OpenBabel10262422143D

 43 48  0  0  1  0  0  0  0  0999 V2000
  186.5190  178.7320  137.0990 N   0  0  0  0  0  0  0  0  0  0  0  0
  186.4320  177.4670  137.3260 C   0  0  0  0  0  0  0  0  0  0  0  0
  187.7320  179.3150  136.5710 C   0  0  0  0  0  2  0  0  0  0  0  0
  187.6030  176.5590  137.0540 C   0  0  0  0  0  2  0  0  0  0  0  0
  188.9560  177.2360  137.3440 C   0  0  1  0  0  3  0  0  0  0  0  0
  188.9300  178.7780  137.3490 C   0  0  0  0  0  2  0  0  0  0  0  0
  185.1670  176.9030  137.8850 C   0  0  0  0  0  2  0  0  0  0  0  0
  182.8880  177.4720  137.8930 C   0  0  0  0  0  2  0  0  0  0  0  0
  183.3680  177.4860  139.2700 C   0  0  1  0  0  3  0  0  0  0  0  0
  184.2370  177.9770  138.1890 N   0  0  0  0  0  0  0  0  0  0  0  0
  182.7890  178.6760  140.0170 C   0  0  2  0  0  3  0  0  0  0  0  0
  183.2120  178.6550  141.4530 C   0  0  0  0  0  0  0  0  0  0  0  0
  184.9150  178.3870  143.1650 C   0  0  0  0  0  3  0  0  0  0  0  0
  182.6320  178.8860  143.7970 C   0  0  0  0  0  3  0  0  0  0  0  0
  183.9590  178.6290  144.1540 C   0  0  0  0  0  3  0  0  0  0  0  0
  182.2600  178.9020  142.4490 C   0  0  0  0  0  3  0  0  0  0  0  0
  184.5440  178.4020  141.8170 C   0  0  0  0  0  3  0  0  0  0  0  0
  180.9710  178.6950  139.8630 S   0  0  0  0  0  0  0  0  0  0  0  0
  180.9230  180.4800  139.5430 C   0  0  1  0  0  3  0  0  0  0  0  0
  179.9250  182.0850  137.9620 C   0  0  0  0  0  1  0  0  0  0  0  0
  181.9780  180.8330  138.5180 C   0  0  0  0  0  2  0  0  0  0  0  0
  180.5300  180.7050  138.0980 C   0  0  1  0  0  3  0  0  0  0  0  0
  189.6240  176.6220  138.5820 C   0  0  1  0  0  3  0  0  0  0  0  0
  193.5710  175.1000  137.7400 C   0  0  0  0  0  0  0  0  0  0  0  0
  191.1650  174.7870  137.6340 C   0  0  0  0  0  0  0  0  0  0  0  0
  193.3870  176.3330  138.3670 C   0  0  0  0  0  3  0  0  0  0  0  0
  194.9440  174.6060  137.4590 C   0  0  0  0  0  1  0  0  0  0  0  0
  190.9770  176.0400  138.2670 C   0  0  0  0  0  0  0  0  0  0  0  0
  192.4630  174.3310  137.3750 C   0  0  0  0  0  3  0  0  0  0  0  0
  192.0970  176.7990  138.6280 C   0  0  0  0  0  3  0  0  0  0  0  0
  189.8230  174.0200  135.8440 O   0  0  0  0  0  1  0  0  0  0  0  0
  190.0190  173.9220  137.2210 C   0  0  0  0  0  2  0  0  0  0  0  0
  189.5880  177.4650  139.8720 C   0  0  1  0  0  3  0  0  0  0  0  0
  188.3210  178.0100  140.0850 O   0  0  0  0  0  1  0  0  0  0  0  0
  190.0200  176.6590  141.0990 C   0  0  0  0  0  2  0  0  0  0  0  0
  188.0440  176.8010  144.3730 C   0  0  0  0  0  3  0  0  0  0  0  0
  188.9790  177.3000  145.1880 C   0  0  0  0  0  0  0  0  0  0  0  0
  190.6190  177.4480  143.3880 C   0  0  0  0  0  3  0  0  0  0  0  0
  188.4060  176.3530  142.9840 C   0  0  0  0  0  2  0  0  0  0  0  0
  189.4980  177.2550  142.3980 C   0  0  2  0  0  3  0  0  0  0  0  0
  190.3570  177.5060  144.6970 C   0  0  0  0  0  3  0  0  0  0  0  0
  188.3430  177.9690  147.6630 C   0  0  0  0  0  3  0  0  0  0  0  0
  188.6320  177.6670  146.5330 C   0  0  0  0  0  0  0  0  0  0  0  0
  1  2  2  0  0  0  0
  2  7  1  0  0  0  0
  3  1  1  0  0  0  0
  3  6  1  0  0  0  0
  4  2  1  0  0  0  0
  4  5  1  0  0  0  0
  5  6  1  0  0  0  0
  5 23  1  1  0  0  0
  7 10  1  0  0  0  0
  8 10  1  0  0  0  0
  8  9  1  0  0  0  0
  9 11  1  1  0  0  0
 10  9  1  0  0  0  0
 11 18  1  1  0  0  0
 11 12  1  0  0  0  0
 12 17  2  0  0  0  0
 12 16  1  0  0  0  0
 13 15  2  0  0  0  0
 14 15  1  0  0  0  0
 16 14  2  0  0  0  0
 17 13  1  0  0  0  0
 19 18  1  6  0  0  0
 21 19  1  0  0  0  0
 22 20  1  1  0  0  0
 22 21  1  0  0  0  0
 22 19  1  0  0  0  0
 23 33  1  1  0  0  0
 24 26  1  0  0  0  0
 25 28  2  0  0  0  0
 26 30  2  0  0  0  0
 27 24  1  0  0  0  0
 28 23  1  0  0  0  0
 28 30  1  0  0  0  0
 29 25  1  0  0  0  0
 29 24  2  0  0  0  0
 31 32  1  0  0  0  0
 32 25  1  0  0  0  0
 33 34  1  1  0  0  0
 33 35  1  0  0  0  0
 36 37  2  0  0  0  0
 37 43  1  0  0  0  0
 38 41  2  0  0  0  0
 39 36  1  0  0  0  0
 40 35  1  6  0  0  0
 40 39  1  0  0  0  0
 40 38  1  0  0  0  0
 41 37  1  0  0  0  0
 43 42  3  0  0  0  0
M  END
>  <MODEL>
1

>  <REMARK>
 VINA RESULT:      -8.2      0.000      0.000
  Name = 
  13 active torsions:
  status: ('A' for Active; 'I' for Inactive)
    1  A    between atoms: C_1  and  C_8
    2  A    between atoms: C_1  and  C_35
    3  A    between atoms: C_4  and  C_14
    4  A    between atoms: C_6  and  C_17
    5  A    between atoms: C_8  and  C_30
    6  A    between atoms: C_10  and  S_41
    7  A    between atoms: C_11  and  C_14
    8  A    between atoms: N_12  and  C_17
    9  A    between atoms: C_14  and  S_41
   10  A    between atoms: C_16  and  C_43
   11  A    between atoms: C_19  and  C_37
   12  A    between atoms: C_21  and  C_30
   13  A    between atoms: C_27  and  C_30
                            x       y       z     vdW  Elec       q    Type
                         _______ _______ _______ _____ _____    ______ ____

>  <TORSDO>
F 13

$$$$
=
 OpenBabel10262422143D

 43 48  0  0  1  0  0  0  0  0999 V2000
  184.5220  179.6950  143.6700 N   0  0  0  0  0  0  0  0  0  0  0  0
  184.8220  179.0250  142.6120 C   0  0  0  0  0  0  0  0  0  0  0  0
  183.3380  179.3860  144.4410 C   0  0  0  0  0  2  0  0  0  0  0  0
  183.9350  177.9010  142.1420 C   0  0  0  0  0  2  0  0  0  0  0  0
  182.4420  178.1780  142.4030 C   0  0  1  0  0  3  0  0  0  0  0  0
  182.1500  179.2240  143.4970 C   0  0  0  0  0  2  0  0  0  0  0  0
  186.0460  179.3830  141.8340 C   0  0  0  0  0  2  0  0  0  0  0  0
  187.5540  178.3880  140.3330 C   0  0  0  0  0  2  0  0  0  0  0  0
  188.2570  178.6490  141.5840 C   0  0  1  0  0  3  0  0  0  0  0  0
  186.8580  178.1980  141.6150 N   0  0  0  0  0  0  0  0  0  0  0  0
  189.1610  177.4780  141.9340 C   0  0  2  0  0  3  0  0  0  0  0  0
  189.3530  177.3830  143.4160 C   0  0  0  0  0  0  0  0  0  0  0  0
  190.7910  177.2700  145.3710 C   0  0  0  0  0  3  0  0  0  0  0  0
  188.3850  177.2340  145.6340 C   0  0  0  0  0  3  0  0  0  0  0  0
  189.6650  177.2060  146.1950 C   0  0  0  0  0  3  0  0  0  0  0  0
  188.2300  177.3250  144.2480 C   0  0  0  0  0  3  0  0  0  0  0  0
  190.6370  177.3600  143.9840 C   0  0  0  0  0  3  0  0  0  0  0  0
  190.7580  177.6310  141.0680 S   0  0  0  0  0  0  0  0  0  0  0  0
  190.2410  176.5320  139.7200 C   0  0  1  0  0  3  0  0  0  0  0  0
  191.2250  175.1230  137.9540 C   0  0  0  0  0  1  0  0  0  0  0  0
  190.1930  177.3150  138.4260 C   0  0  0  0  0  2  0  0  0  0  0  0
  191.3750  176.4180  138.7230 C   0  0  1  0  0  3  0  0  0  0  0  0
  181.6910  178.4280  141.0870 C   0  0  1  0  0  3  0  0  0  0  0  0
  183.5010  176.2990  137.8010 C   0  0  0  0  0  0  0  0  0  0  0  0
  183.1780  178.3950  138.9830 C   0  0  0  0  0  0  0  0  0  0  0  0
  182.6770  175.6490  138.7210 C   0  0  0  0  0  3  0  0  0  0  0  0
  184.1130  175.5360  136.6830 C   0  0  0  0  0  1  0  0  0  0  0  0
  182.3460  177.7360  139.9200 C   0  0  0  0  0  0  0  0  0  0  0  0
  183.7500  177.6670  137.9330 C   0  0  0  0  0  3  0  0  0  0  0  0
  182.1040  176.3650  139.7740 C   0  0  0  0  0  3  0  0  0  0  0  0
  184.8050  180.0890  138.7010 O   0  0  0  0  0  1  0  0  0  0  0  0
  183.4810  179.8550  139.0730 C   0  0  0  0  0  2  0  0  0  0  0  0
  180.1580  178.2710  141.1300 C   0  0  1  0  0  3  0  0  0  0  0  0
  179.7570  177.5320  142.2440 O   0  0  0  0  0  1  0  0  0  0  0  0
  179.4410  179.6230  141.1170 C   0  0  0  0  0  2  0  0  0  0  0  0
  180.4370  181.7520  138.0960 C   0  0  0  0  0  3  0  0  0  0  0  0
  180.2710  180.8570  137.1160 C   0  0  0  0  0  0  0  0  0  0  0  0
  179.5200  179.1350  138.6720 C   0  0  0  0  0  3  0  0  0  0  0  0
  180.3700  181.3230  139.5360 C   0  0  0  0  0  2  0  0  0  0  0  0
  179.3350  180.2080  139.7150 C   0  0  2  0  0  3  0  0  0  0  0  0
  179.9240  179.4580  137.4400 C   0  0  0  0  0  3  0  0  0  0  0  0
  180.5100  181.6130  134.5960 C   0  0  0  0  0  3  0  0  0  0  0  0
  180.3970  181.2680  135.7450 C   0  0  0  0  0  0  0  0  0  0  0  0
  1  3  1  0  0  0  0
  2  1  2  0  0  0  0
  4  5  1  0  0  0  0
  4  2  1  0  0  0  0
  5 23  1  6  0  0  0
  5  6  1  0  0  0  0
  6  3  1  0  0  0  0
  7  2  1  0  0  0  0
  8  9  1  0  0  0  0
  8 10  1  0  0  0  0
  9 10  1  0  0  0  0
  9 11  1  1  0  0  0
 10  7  1  0  0  0  0
 11 18  1  6  0  0  0
 11 12  1  0  0  0  0
 12 17  2  0  0  0  0
 12 16  1  0  0  0  0
 13 15  2  0  0  0  0
 14 15  1  0  0  0  0
 16 14  2  0  0  0  0
 17 13  1  0  0  0  0
 19 18  1  1  0  0  0
 21 22  1  0  0  0  0
 21 19  1  0  0  0  0
 22 20  1  6  0  0  0
 22 19  1  0  0  0  0
 23 33  1  1  0  0  0
 24 29  2  0  0  0  0
 24 26  1  0  0  0  0
 25 32  1  0  0  0  0
 25 28  2  0  0  0  0
 26 30  2  0  0  0  0
 27 24  1  0  0  0  0
 28 23  1  0  0  0  0
 29 25  1  0  0  0  0
 30 28  1  0  0  0  0
 31 32  1  0  0  0  0
 33 34  1  1  0  0  0
 35 33  1  0  0  0  0
 36 39  1  0  0  0  0
 37 41  1  0  0  0  0
 37 36  2  0  0  0  0
 38 40  1  0  0  0  0
 39 40  1  0  0  0  0
 40 35  1  1  0  0  0
 41 38  2  0  0  0  0
 42 43  3  0  0  0  0
 43 37  1  0  0  0  0
M  END
>  <MODEL>
2

>  <REMARK>
 VINA RESULT:      -7.5      2.782      9.391
  Name = 
  13 active torsions:
  status: ('A' for Active; 'I' for Inactive)
    1  A    between atoms: C_1  and  C_8
    2  A    between atoms: C_1  and  C_35
    3  A    between atoms: C_4  and  C_14
    4  A    between atoms: C_6  and  C_17
    5  A    between atoms: C_8  and  C_30
    6  A    between atoms: C_10  and  S_41
    7  A    between atoms: C_11  and  C_14
    8  A    between atoms: N_12  and  C_17
    9  A    between atoms: C_14  and  S_41
   10  A    between atoms: C_16  and  C_43
   11  A    between atoms: C_19  and  C_37
   12  A    between atoms: C_21  and  C_30
   13  A    between atoms: C_27  and  C_30
                            x       y       z     vdW  Elec       q    Type
                         _______ _______ _______ _____ _____    ______ ____

>  <TORSDO>
F 13

$$$$
=
 OpenBabel10262422143D

 43 48  0  0  1  0  0  0  0  0999 V2000
  186.6780  178.9920  137.5360 N   0  0  0  0  0  0  0  0  0  0  0  0
  186.5120  177.8750  138.1560 C   0  0  0  0  0  0  0  0  0  0  0  0
  187.7170  179.1480  136.5430 C   0  0  0  0  0  2  0  0  0  0  0  0
  187.4090  176.6990  137.8670 C   0  0  0  0  0  2  0  0  0  0  0  0
  188.8550  177.1220  137.5510 C   0  0  1  0  0  3  0  0  0  0  0  0
  189.0250  178.5830  137.0870 C   0  0  0  0  0  2  0  0  0  0  0  0
  185.4380  177.7550  139.1870 C   0  0  0  0  0  2  0  0  0  0  0  0
  184.1740  179.3860  140.3100 C   0  0  0  0  0  2  0  0  0  0  0  0
  184.7270  178.4710  141.3020 C   0  0  1  0  0  3  0  0  0  0  0  0
  185.5340  178.8540  140.1330 N   0  0  0  0  0  0  0  0  0  0  0  0
  185.2180  179.2440  142.5150 C   0  0  2  0  0  3  0  0  0  0  0  0
  186.0460  178.3660  143.4020 C   0  0  0  0  0  0  0  0  0  0  0  0
  187.7630  176.6770  143.7180 C   0  0  0  0  0  3  0  0  0  0  0  0
  186.6250  177.6200  145.6360 C   0  0  0  0  0  3  0  0  0  0  0  0
  187.5730  176.7430  145.1010 C   0  0  0  0  0  3  0  0  0  0  0  0
  185.8650  178.4310  144.7880 C   0  0  0  0  0  3  0  0  0  0  0  0
  187.0030  177.4880  142.8700 C   0  0  0  0  0  3  0  0  0  0  0  0
  183.8070  179.9590  143.4230 S   0  0  0  0  0  0  0  0  0  0  0  0
  182.6950  178.6060  142.9500 C   0  0  1  0  0  3  0  0  0  0  0  0
  180.6160  178.2300  141.6830 C   0  0  0  0  0  1  0  0  0  0  0  0
  181.5590  178.5220  143.9460 C   0  0  0  0  0  2  0  0  0  0  0  0
  181.3410  179.1870  142.6040 C   0  0  1  0  0  3  0  0  0  0  0  0
  189.8070  176.7150  138.6840 C   0  0  1  0  0  3  0  0  0  0  0  0
  193.4050  174.8070  137.2620 C   0  0  0  0  0  0  0  0  0  0  0  0
  190.9890  174.7580  137.4940 C   0  0  0  0  0  0  0  0  0  0  0  0
  193.4480  176.0310  137.9310 C   0  0  0  0  0  3  0  0  0  0  0  0
  194.6620  174.1780  136.7800 C   0  0  0  0  0  1  0  0  0  0  0  0
  191.0300  176.0010  138.1690 C   0  0  0  0  0  0  0  0  0  0  0  0
  192.1790  174.1740  137.0440 C   0  0  0  0  0  3  0  0  0  0  0  0
  192.2670  176.6240  138.3810 C   0  0  0  0  0  3  0  0  0  0  0  0
  189.9110  173.0410  136.2750 O   0  0  0  0  0  1  0  0  0  0  0  0
  189.7080  174.0340  137.2320 C   0  0  0  0  0  2  0  0  0  0  0  0
  190.1080  177.7880  139.7490 C   0  0  1  0  0  3  0  0  0  0  0  0
  188.9800  178.0600  140.5250 O   0  0  0  0  0  1  0  0  0  0  0  0
  191.2770  177.3910  140.6520 C   0  0  0  0  0  2  0  0  0  0  0  0
  191.2510  175.8800  144.1690 C   0  0  0  0  0  3  0  0  0  0  0  0
  191.2840  176.9980  144.9020 C   0  0  0  0  0  0  0  0  0  0  0  0
  191.2700  178.4240  142.9220 C   0  0  0  0  0  3  0  0  0  0  0  0
  191.4630  175.9410  142.6810 C   0  0  0  0  0  2  0  0  0  0  0  0
  190.8560  177.2250  142.1060 C   0  0  2  0  0  3  0  0  0  0  0  0
  191.4300  178.3120  144.2440 C   0  0  0  0  0  3  0  0  0  0  0  0
  191.0230  176.8470  147.5270 C   0  0  0  0  0  3  0  0  0  0  0  0
  191.1410  176.9190  146.3290 C   0  0  0  0  0  0  0  0  0  0  0  0
  1  2  2  0  0  0  0
  2  7  1  0  0  0  0
  3  6  1  0  0  0  0
  3  1  1  0  0  0  0
  4  2  1  0  0  0  0
  5  4  1  0  0  0  0
  5 23  1  1  0  0  0
  6  5  1  0  0  0  0
  7 10  1  0  0  0  0
  8  9  1  0  0  0  0
  9 11  1  1  0  0  0
 10  8  1  0  0  0  0
 10  9  1  0  0  0  0
 11 12  1  0  0  0  0
 11 18  1  1  0  0  0
 12 16  1  0  0  0  0
 13 15  2  0  0  0  0
 15 14  1  0  0  0  0
 16 14  2  0  0  0  0
 17 12  2  0  0  0  0
 17 13  1  0  0  0  0
 19 18  1  1  0  0  0
 19 21  1  0  0  0  0
 22 20  1  6  0  0  0
 22 19  1  0  0  0  0
 22 21  1  0  0  0  0
 23 33  1  6  0  0  0
 24 26  1  0  0  0  0
 25 28  2  0  0  0  0
 26 30  2  0  0  0  0
 27 24  1  0  0  0  0
 28 30  1  0  0  0  0
 28 23  1  0  0  0  0
 29 24  2  0  0  0  0
 29 25  1  0  0  0  0
 31 32  1  0  0  0  0
 32 25  1  0  0  0  0
 33 34  1  1  0  0  0
 33 35  1  0  0  0  0
 36 37  2  0  0  0  0
 37 43  1  0  0  0  0
 38 41  2  0  0  0  0
 39 36  1  0  0  0  0
 40 35  1  6  0  0  0
 40 39  1  0  0  0  0
 40 38  1  0  0  0  0
 41 37  1  0  0  0  0
 43 42  3  0  0  0  0
M  END
>  <MODEL>
3

>  <REMARK>
 VINA RESULT:      -7.5      1.870      2.691
  Name = 
  13 active torsions:
  status: ('A' for Active; 'I' for Inactive)
    1  A    between atoms: C_1  and  C_8
    2  A    between atoms: C_1  and  C_35
    3  A    between atoms: C_4  and  C_14
    4  A    between atoms: C_6  and  C_17
    5  A    between atoms: C_8  and  C_30
    6  A    between atoms: C_10  and  S_41
    7  A    between atoms: C_11  and  C_14
    8  A    between atoms: N_12  and  C_17
    9  A    between atoms: C_14  and  S_41
   10  A    between atoms: C_16  and  C_43
   11  A    between atoms: C_19  and  C_37
   12  A    between atoms: C_21  and  C_30
   13  A    between atoms: C_27  and  C_30
                            x       y       z     vdW  Elec       q    Type
                         _______ _______ _______ _____ _____    ______ ____

>  <TORSDO>
F 13

$$$$
=
 OpenBabel10262422143D

 43 48  0  0  1  0  0  0  0  0999 V2000
  182.9310  179.2840  142.5020 N   0  0  0  0  0  0  0  0  0  0  0  0
  183.6910  178.5090  141.8090 C   0  0  0  0  0  0  0  0  0  0  0  0
  181.5170  179.0180  142.6390 C   0  0  0  0  0  2  0  0  0  0  0  0
  183.1200  177.3020  141.1110 C   0  0  0  0  0  2  0  0  0  0  0  0
  181.6920  177.5440  140.5860 C   0  0  1  0  0  3  0  0  0  0  0  0
  180.9290  178.6970  141.2680 C   0  0  0  0  0  2  0  0  0  0  0  0
  185.1450  178.8250  141.6790 C   0  0  0  0  0  2  0  0  0  0  0  0
  185.3020  177.8300  143.8010 C   0  0  0  0  0  2  0  0  0  0  0  0
  186.6290  177.8270  143.1950 C   0  0  1  0  0  3  0  0  0  0  0  0
  185.7390  178.9810  142.9960 N   0  0  0  0  0  0  0  0  0  0  0  0
  187.6810  178.1880  144.2300 C   0  0  2  0  0  3  0  0  0  0  0  0
  189.0200  177.6440  143.8340 C   0  0  0  0  0  0  0  0  0  0  0  0
  190.4350  175.8220  143.0730 C   0  0  0  0  0  3  0  0  0  0  0  0
  191.3930  178.0050  143.4910 C   0  0  0  0  0  3  0  0  0  0  0  0
  191.5430  176.6710  143.1010 C   0  0  0  0  0  3  0  0  0  0  0  0
  190.1340  178.4910  143.8550 C   0  0  0  0  0  3  0  0  0  0  0  0
  189.1740  176.3060  143.4370 C   0  0  0  0  0  3  0  0  0  0  0  0
  187.1820  177.5830  145.8770 S   0  0  0  0  0  0  0  0  0  0  0  0
  188.7960  177.9650  146.6110 C   0  0  1  0  0  3  0  0  0  0  0  0
  190.8510  176.8210  147.3460 C   0  0  0  0  0  1  0  0  0  0  0  0
  188.7160  177.7940  148.1120 C   0  0  0  0  0  2  0  0  0  0  0  0
  189.3430  176.7120  147.2610 C   0  0  1  0  0  3  0  0  0  0  0  0
  181.6740  177.6080  139.0520 C   0  0  1  0  0  3  0  0  0  0  0  0
  181.1080  181.6620  137.6910 C   0  0  0  0  0  0  0  0  0  0  0  0
  180.3330  179.3610  137.7230 C   0  0  0  0  0  0  0  0  0  0  0  0
  182.1910  181.3120  138.4990 C   0  0  0  0  0  3  0  0  0  0  0  0
  180.9390  183.0680  137.2430 C   0  0  0  0  0  1  0  0  0  0  0  0
  181.4280  179.0050  138.5450 C   0  0  0  0  0  0  0  0  0  0  0  0
  180.1830  180.6890  137.3060 C   0  0  0  0  0  3  0  0  0  0  0  0
  182.3490  179.9910  138.9230 C   0  0  0  0  0  3  0  0  0  0  0  0
  179.7320  177.7460  136.1020 O   0  0  0  0  0  1  0  0  0  0  0  0
  179.3110  178.3650  137.2790 C   0  0  0  0  0  2  0  0  0  0  0  0
  182.8080  176.8640  138.3200 C   0  0  1  0  0  3  0  0  0  0  0  0
  182.4610  175.5350  138.0700 O   0  0  0  0  0  1  0  0  0  0  0  0
  183.1990  177.5550  137.0120 C   0  0  0  0  0  2  0  0  0  0  0  0
  186.8550  178.0250  138.0410 C   0  0  0  0  0  3  0  0  0  0  0  0
  187.4130  176.9950  137.3950 C   0  0  0  0  0  0  0  0  0  0  0  0
  185.2780  176.3030  136.4370 C   0  0  0  0  0  3  0  0  0  0  0  0
  185.3580  178.1520  138.1210 C   0  0  0  0  0  2  0  0  0  0  0  0
  184.7080  177.6430  136.8310 C   0  0  2  0  0  3  0  0  0  0  0  0
  186.5630  176.0250  136.6740 C   0  0  0  0  0  3  0  0  0  0  0  0
  190.0410  176.7360  137.3690 C   0  0  0  0  0  3  0  0  0  0  0  0
  188.8420  176.8530  137.3780 C   0  0  0  0  0  0  0  0  0  0  0  0
  1  3  1  0  0  0  0
  2  1  2  0  0  0  0
  4  2  1  0  0  0  0
  5 23  1  6  0  0  0
  5  4  1  0  0  0  0
  5  6  1  0  0  0  0
  6  3  1  0  0  0  0
  7  2  1  0  0  0  0
  7 10  1  0  0  0  0
  9  8  1  0  0  0  0
  9 11  1  1  0  0  0
 10  9  1  0  0  0  0
 10  8  1  0  0  0  0
 11 18  1  1  0  0  0
 12 16  1  0  0  0  0
 12 11  1  0  0  0  0
 13 15  2  0  0  0  0
 13 17  1  0  0  0  0
 14 16  2  0  0  0  0
 15 14  1  0  0  0  0
 17 12  2  0  0  0  0
 19 18  1  6  0  0  0
 19 22  1  0  0  0  0
 19 21  1  0  0  0  0
 22 20  1  1  0  0  0
 22 21  1  0  0  0  0
 23 33  1  6  0  0  0
 24 26  1  0  0  0  0
 25 28  2  0  0  0  0
 26 30  2  0  0  0  0
 27 24  1  0  0  0  0
 28 30  1  0  0  0  0
 28 23  1  0  0  0  0
 29 24  2  0  0  0  0
 29 25  1  0  0  0  0
 31 32  1  0  0  0  0
 32 25  1  0  0  0  0
 33 34  1  6  0  0  0
 35 33  1  0  0  0  0
 36 39  1  0  0  0  0
 37 36  2  0  0  0  0
 38 41  2  0  0  0  0
 38 40  1  0  0  0  0
 40 35  1  1  0  0  0
 40 39  1  0  0  0  0
 41 37  1  0  0  0  0
 42 43  3  0  0  0  0
 43 37  1  0  0  0  0
M  END
>  <MODEL>
4

>  <REMARK>
 VINA RESULT:      -7.1      2.977      9.298
  Name = 
  13 active torsions:
  status: ('A' for Active; 'I' for Inactive)
    1  A    between atoms: C_1  and  C_8
    2  A    between atoms: C_1  and  C_35
    3  A    between atoms: C_4  and  C_14
    4  A    between atoms: C_6  and  C_17
    5  A    between atoms: C_8  and  C_30
    6  A    between atoms: C_10  and  S_41
    7  A    between atoms: C_11  and  C_14
    8  A    between atoms: N_12  and  C_17
    9  A    between atoms: C_14  and  S_41
   10  A    between atoms: C_16  and  C_43
   11  A    between atoms: C_19  and  C_37
   12  A    between atoms: C_21  and  C_30
   13  A    between atoms: C_27  and  C_30
                            x       y       z     vdW  Elec       q    Type
                         _______ _______ _______ _____ _____    ______ ____

>  <TORSDO>
F 13

$$$$
=
 OpenBabel10262422143D

 43 48  0  0  1  0  0  0  0  0999 V2000
  181.1020  178.6830  142.1600 N   0  0  0  0  0  0  0  0  0  0  0  0
  182.2710  178.2760  141.8010 C   0  0  0  0  0  0  0  0  0  0  0  0
  179.9050  178.0130  141.7040 C   0  0  0  0  0  2  0  0  0  0  0  0
  182.4190  177.0910  140.8820 C   0  0  0  0  0  2  0  0  0  0  0  0
  181.2910  177.0090  139.8360 C   0  0  1  0  0  3  0  0  0  0  0  0
  180.0020  177.7740  140.2000 C   0  0  0  0  0  2  0  0  0  0  0  0
  183.4840  179.0020  142.2810 C   0  0  0  0  0  2  0  0  0  0  0  0
  185.5730  179.0840  141.2090 C   0  0  0  0  0  2  0  0  0  0  0  0
  185.7990  178.9170  142.6410 C   0  0  1  0  0  3  0  0  0  0  0  0
  184.6760  178.2220  141.9930 N   0  0  0  0  0  0  0  0  0  0  0  0
  186.9210  177.9210  142.8830 C   0  0  2  0  0  3  0  0  0  0  0  0
  187.2290  177.8180  144.3450 C   0  0  0  0  0  0  0  0  0  0  0  0
  188.8150  177.7430  146.1840 C   0  0  0  0  0  3  0  0  0  0  0  0
  186.4390  177.6060  146.6280 C   0  0  0  0  0  3  0  0  0  0  0  0
  187.7580  177.6240  147.0910 C   0  0  0  0  0  3  0  0  0  0  0  0
  186.1750  177.7050  145.2590 C   0  0  0  0  0  3  0  0  0  0  0  0
  188.5520  177.8420  144.8150 C   0  0  0  0  0  3  0  0  0  0  0  0
  188.4010  178.3920  141.9270 S   0  0  0  0  0  0  0  0  0  0  0  0
  189.1600  176.7550  142.1160 C   0  0  1  0  0  3  0  0  0  0  0  0
  191.1000  175.6900  143.1990 C   0  0  0  0  0  1  0  0  0  0  0  0
  190.2330  176.5770  141.0640 C   0  0  0  0  0  2  0  0  0  0  0  0
  190.6180  176.9340  142.4830 C   0  0  1  0  0  3  0  0  0  0  0  0
  181.8220  177.3190  138.4300 C   0  0  1  0  0  3  0  0  0  0  0  0
  181.1220  181.4440  137.3790 C   0  0  0  0  0  0  0  0  0  0  0  0
  180.6510  179.0960  136.9760 C   0  0  0  0  0  0  0  0  0  0  0  0
  182.0040  181.0950  138.4040 C   0  0  0  0  0  3  0  0  0  0  0  0
  180.9000  182.8740  137.0450 C   0  0  0  0  0  1  0  0  0  0  0  0
  181.5420  178.7410  138.0180 C   0  0  0  0  0  0  0  0  0  0  0  0
  180.4490  180.4470  136.6690 C   0  0  0  0  0  3  0  0  0  0  0  0
  182.2110  179.7510  138.7200 C   0  0  0  0  0  3  0  0  0  0  0  0
  179.8700  178.4490  134.8390 O   0  0  0  0  0  1  0  0  0  0  0  0
  179.9030  178.0750  136.1830 C   0  0  0  0  0  2  0  0  0  0  0  0
  183.2550  176.8450  138.1150 C   0  0  1  0  0  3  0  0  0  0  0  0
  183.3860  175.4690  138.3130 O   0  0  0  0  0  1  0  0  0  0  0  0
  183.6820  177.2090  136.6920 C   0  0  0  0  0  2  0  0  0  0  0  0
  187.2540  177.9640  137.8400 C   0  0  0  0  0  3  0  0  0  0  0  0
  187.9030  176.9430  137.2690 C   0  0  0  0  0  0  0  0  0  0  0  0
  185.8590  176.0700  136.2630 C   0  0  0  0  0  3  0  0  0  0  0  0
  185.7500  177.9970  137.8550 C   0  0  0  0  0  2  0  0  0  0  0  0
  185.1890  177.3860  136.5670 C   0  0  2  0  0  3  0  0  0  0  0  0
  187.1480  175.8880  136.5640 C   0  0  0  0  0  3  0  0  0  0  0  0
  190.5420  176.8590  137.3510 C   0  0  0  0  0  3  0  0  0  0  0  0
  189.3370  176.8950  137.3160 C   0  0  0  0  0  0  0  0  0  0  0  0
  2  1  2  0  0  0  0
  2  7  1  0  0  0  0
  3  1  1  0  0  0  0
  4  2  1  0  0  0  0
  5 23  1  6  0  0  0
  5  6  1  0  0  0  0
  5  4  1  0  0  0  0
  6  3  1  0  0  0  0
  8 10  1  0  0  0  0
  8  9  1  0  0  0  0
  9 11  1  6  0  0  0
 10  7  1  0  0  0  0
 10  9  1  0  0  0  0
 11 18  1  6  0  0  0
 11 12  1  0  0  0  0
 12 17  2  0  0  0  0
 12 16  1  0  0  0  0
 13 15  2  0  0  0  0
 14 15  1  0  0  0  0
 16 14  2  0  0  0  0
 17 13  1  0  0  0  0
 19 18  1  6  0  0  0
 19 22  1  0  0  0  0
 21 19  1  0  0  0  0
 21 22  1  0  0  0  0
 22 20  1  1  0  0  0
 23 33  1  1  0  0  0
 24 26  1  0  0  0  0
 25 28  2  0  0  0  0
 26 30  2  0  0  0  0
 27 24  1  0  0  0  0
 28 23  1  0  0  0  0
 28 30  1  0  0  0  0
 29 25  1  0  0  0  0
 29 24  2  0  0  0  0
 31 32  1  0  0  0  0
 32 25  1  0  0  0  0
 33 34  1  6  0  0  0
 35 33  1  0  0  0  0
 36 39  1  0  0  0  0
 37 43  1  0  0  0  0
 37 36  2  0  0  0  0
 38 41  2  0  0  0  0
 38 40  1  0  0  0  0
 40 35  1  1  0  0  0
 40 39  1  0  0  0  0
 41 37  1  0  0  0  0
 43 42  3  0  0  0  0
M  END
>  <MODEL>
5

>  <REMARK>
 VINA RESULT:      -7.1      2.749      8.787
  Name = 
  13 active torsions:
  status: ('A' for Active; 'I' for Inactive)
    1  A    between atoms: C_1  and  C_8
    2  A    between atoms: C_1  and  C_35
    3  A    between atoms: C_4  and  C_14
    4  A    between atoms: C_6  and  C_17
    5  A    between atoms: C_8  and  C_30
    6  A    between atoms: C_10  and  S_41
    7  A    between atoms: C_11  and  C_14
    8  A    between atoms: N_12  and  C_17
    9  A    between atoms: C_14  and  S_41
   10  A    between atoms: C_16  and  C_43
   11  A    between atoms: C_19  and  C_37
   12  A    between atoms: C_21  and  C_30
   13  A    between atoms: C_27  and  C_30
                            x       y       z     vdW  Elec       q    Type
                         _______ _______ _______ _____ _____    ______ ____

>  <TORSDO>
F 13

$$$$
=
 OpenBabel10262422143D

 43 48  0  0  1  0  0  0  0  0999 V2000
  186.6670  176.1550  137.5900 N   0  0  0  0  0  0  0  0  0  0  0  0
  186.6740  177.4350  137.7370 C   0  0  0  0  0  0  0  0  0  0  0  0
  185.5520  175.4810  136.9640 C   0  0  0  0  0  2  0  0  0  0  0  0
  185.5090  178.2660  137.2630 C   0  0  0  0  0  2  0  0  0  0  0  0
  184.1600  177.5430  137.4360 C   0  0  1  0  0  3  0  0  0  0  0  0
  184.2470  176.0090  137.5520 C   0  0  0  0  0  2  0  0  0  0  0  0
  187.8370  178.0950  138.4020 C   0  0  0  0  0  2  0  0  0  0  0  0
  190.0150  177.4920  137.7610 C   0  0  0  0  0  2  0  0  0  0  0  0
  190.0410  177.8710  139.1690 C   0  0  1  0  0  3  0  0  0  0  0  0
  188.8920  177.1230  138.6360 N   0  0  0  0  0  0  0  0  0  0  0  0
  190.9280  176.9190  139.9540 C   0  0  2  0  0  3  0  0  0  0  0  0
  190.7650  177.1380  141.4270 C   0  0  0  0  0  0  0  0  0  0  0  0
  191.7000  177.4630  143.6450 C   0  0  0  0  0  3  0  0  0  0  0  0
  189.2990  177.4330  143.3360 C   0  0  0  0  0  3  0  0  0  0  0  0
  190.4100  177.5480  144.1760 C   0  0  0  0  0  3  0  0  0  0  0  0
  189.4760  177.2300  141.9640 C   0  0  0  0  0  3  0  0  0  0  0  0
  191.8780  177.2600  142.2730 C   0  0  0  0  0  3  0  0  0  0  0  0
  192.6690  177.1130  139.4460 S   0  0  0  0  0  0  0  0  0  0  0  0
  192.5730  175.7470  138.2560 C   0  0  1  0  0  3  0  0  0  0  0  0
  193.8510  173.7580  137.5630 C   0  0  0  0  0  1  0  0  0  0  0  0
  193.3520  176.1120  137.0120 C   0  0  0  0  0  2  0  0  0  0  0  0
  193.9640  175.1890  138.0430 C   0  0  1  0  0  3  0  0  0  0  0  0
  183.3210  178.2040  138.5390 C   0  0  1  0  0  3  0  0  0  0  0  0
  180.0390  175.6610  139.7090 C   0  0  0  0  0  0  0  0  0  0  0  0
  180.7910  177.7760  138.7840 C   0  0  0  0  0  0  0  0  0  0  0  0
  181.3640  175.2510  139.8600 C   0  0  0  0  0  3  0  0  0  0  0  0
  178.9310  174.7600  140.1170 C   0  0  0  0  0  1  0  0  0  0  0  0
  182.1360  177.3600  138.9330 C   0  0  0  0  0  0  0  0  0  0  0  0
  179.7540  176.9190  139.1720 C   0  0  0  0  0  3  0  0  0  0  0  0
  182.4060  176.0970  139.4740 C   0  0  0  0  0  3  0  0  0  0  0  0
  179.7550  178.9410  137.0050 O   0  0  0  0  0  1  0  0  0  0  0  0
  180.4270  179.1090  138.2160 C   0  0  0  0  0  2  0  0  0  0  0  0
  184.0970  178.7940  139.7340 C   0  0  1  0  0  3  0  0  0  0  0  0
  184.5020  180.1040  139.4750 O   0  0  0  0  0  1  0  0  0  0  0  0
  183.2830  178.7460  141.0280 C   0  0  0  0  0  2  0  0  0  0  0  0
  184.2540  178.6370  144.7290 C   0  0  0  0  0  3  0  0  0  0  0  0
  185.5270  178.2380  144.6240 C   0  0  0  0  0  0  0  0  0  0  0  0
  185.4210  178.1900  142.1870 C   0  0  0  0  0  3  0  0  0  0  0  0
  183.3530  178.6280  143.5250 C   0  0  0  0  0  2  0  0  0  0  0  0
  184.1420  178.9870  142.2620 C   0  0  2  0  0  3  0  0  0  0  0  0
  186.0840  177.8780  143.3040 C   0  0  0  0  0  3  0  0  0  0  0  0
  187.0560  178.1640  146.7760 C   0  0  0  0  0  3  0  0  0  0  0  0
  186.3600  178.1950  145.7930 C   0  0  0  0  0  0  0  0  0  0  0  0
  1  2  2  0  0  0  0
  2  7  1  0  0  0  0
  3  6  1  0  0  0  0
  3  1  1  0  0  0  0
  4  5  1  0  0  0  0
  4  2  1  0  0  0  0
  5  6  1  0  0  0  0
  5 23  1  1  0  0  0
  7 10  1  0  0  0  0
  8 10  1  0  0  0  0
  8  9  1  0  0  0  0
  9 11  1  1  0  0  0
 10  9  1  0  0  0  0
 11 18  1  6  0  0  0
 11 12  1  0  0  0  0
 12 16  2  0  0  0  0
 12 17  1  0  0  0  0
 13 15  1  0  0  0  0
 14 15  2  0  0  0  0
 16 14  1  0  0  0  0
 17 13  2  0  0  0  0
 19 18  1  1  0  0  0
 21 22  1  0  0  0  0
 21 19  1  0  0  0  0
 22 20  1  6  0  0  0
 22 19  1  0  0  0  0
 23 28  1  0  0  0  0
 23 33  1  1  0  0  0
 24 26  1  0  0  0  0
 24 27  1  0  0  0  0
 25 28  2  0  0  0  0
 25 29  1  0  0  0  0
 28 30  1  0  0  0  0
 29 24  2  0  0  0  0
 30 26  2  0  0  0  0
 31 32  1  0  0  0  0
 32 25  1  0  0  0  0
 33 34  1  6  0  0  0
 33 35  1  0  0  0  0
 37 36  2  0  0  0  0
 37 43  1  0  0  0  0
 38 40  1  0  0  0  0
 38 41  2  0  0  0  0
 39 36  1  0  0  0  0
 40 35  1  6  0  0  0
 40 39  1  0  0  0  0
 41 37  1  0  0  0  0
 43 42  3  0  0  0  0
M  END
>  <MODEL>
6

>  <REMARK>
 VINA RESULT:      -7.0      2.976      8.521
  Name = 
  13 active torsions:
  status: ('A' for Active; 'I' for Inactive)
    1  A    between atoms: C_1  and  C_8
    2  A    between atoms: C_1  and  C_35
    3  A    between atoms: C_4  and  C_14
    4  A    between atoms: C_6  and  C_17
    5  A    between atoms: C_8  and  C_30
    6  A    between atoms: C_10  and  S_41
    7  A    between atoms: C_11  and  C_14
    8  A    between atoms: N_12  and  C_17
    9  A    between atoms: C_14  and  S_41
   10  A    between atoms: C_16  and  C_43
   11  A    between atoms: C_19  and  C_37
   12  A    between atoms: C_21  and  C_30
   13  A    between atoms: C_27  and  C_30
                            x       y       z     vdW  Elec       q    Type
                         _______ _______ _______ _____ _____    ______ ____

>  <TORSDO>
F 13

$$$$
=
 OpenBabel10262422143D

 43 48  0  0  1  0  0  0  0  0999 V2000
  190.1950  176.5970  140.3100 N   0  0  0  0  0  0  0  0  0  0  0  0
  189.4010  177.5920  140.1130 C   0  0  0  0  0  0  0  0  0  0  0  0
  191.1370  176.1790  139.2960 C   0  0  0  0  0  2  0  0  0  0  0  0
  189.4280  178.3450  138.8080 C   0  0  0  0  0  2  0  0  0  0  0  0
  189.7260  177.4310  137.6040 C   0  0  1  0  0  3  0  0  0  0  0  0
  190.4250  176.1000  137.9480 C   0  0  0  0  0  2  0  0  0  0  0  0
  188.4320  177.9850  141.1790 C   0  0  0  0  0  2  0  0  0  0  0  0
  189.9220  178.2830  142.9700 C   0  0  0  0  0  2  0  0  0  0  0  0
  188.5630  178.4500  143.4720 C   0  0  1  0  0  3  0  0  0  0  0  0
  188.8440  177.4250  142.4550 N   0  0  0  0  0  0  0  0  0  0  0  0
  188.4160  177.7740  144.8260 C   0  0  2  0  0  3  0  0  0  0  0  0
  187.0580  178.0350  145.4020 C   0  0  0  0  0  0  0  0  0  0  0  0
  184.6810  178.4610  145.1380 C   0  0  0  0  0  3  0  0  0  0  0  0
  185.6490  178.3320  147.3530 C   0  0  0  0  0  3  0  0  0  0  0  0
  184.5370  178.5190  146.5260 C   0  0  0  0  0  3  0  0  0  0  0  0
  186.9060  178.0880  146.7920 C   0  0  0  0  0  3  0  0  0  0  0  0
  185.9380  178.2180  144.5760 C   0  0  0  0  0  3  0  0  0  0  0  0
  189.7330  178.3310  145.9570 S   0  0  0  0  0  0  0  0  0  0  0  0
  190.2370  176.6350  146.3580 C   0  0  1  0  0  3  0  0  0  0  0  0
  192.0780  175.4270  147.4630 C   0  0  0  0  0  1  0  0  0  0  0  0
  191.1640  176.1200  145.2770 C   0  0  0  0  0  2  0  0  0  0  0  0
  191.7330  176.6140  146.5890 C   0  0  1  0  0  3  0  0  0  0  0  0
  188.4850  177.2700  136.7160 C   0  0  1  0  0  3  0  0  0  0  0  0
  187.3390  173.1380  136.2450 C   0  0  0  0  0  0  0  0  0  0  0  0
  188.7210  174.9990  135.5210 C   0  0  0  0  0  0  0  0  0  0  0  0
  186.7450  173.9500  137.2120 C   0  0  0  0  0  3  0  0  0  0  0  0
  186.9250  171.7180  136.1100 C   0  0  0  0  0  1  0  0  0  0  0  0
  188.1220  175.8230  136.5040 C   0  0  0  0  0  0  0  0  0  0  0  0
  188.3230  173.6620  135.4030 C   0  0  0  0  0  3  0  0  0  0  0  0
  187.1350  175.2850  137.3390 C   0  0  0  0  0  3  0  0  0  0  0  0
  190.9900  174.8690  134.8670 O   0  0  0  0  0  1  0  0  0  0  0  0
  189.7790  175.5030  134.5940 C   0  0  0  0  0  2  0  0  0  0  0  0
  187.2820  178.1770  137.0440 C   0  0  1  0  0  3  0  0  0  0  0  0
  187.3960  179.4150  136.4100 O   0  0  0  0  0  1  0  0  0  0  0  0
  185.9500  177.5230  136.6730 C   0  0  0  0  0  2  0  0  0  0  0  0
  182.9200  177.1690  138.9860 C   0  0  0  0  0  3  0  0  0  0  0  0
  183.2670  178.0240  139.9550 C   0  0  0  0  0  0  0  0  0  0  0  0
  185.3440  178.6270  138.8260 C   0  0  0  0  0  3  0  0  0  0  0  0
  183.9100  176.7880  137.9190 C   0  0  0  0  0  2  0  0  0  0  0  0
  184.8100  177.9790  137.5730 C   0  0  2  0  0  3  0  0  0  0  0  0
  184.5920  178.6750  139.9300 C   0  0  0  0  0  3  0  0  0  0  0  0
  181.5460  178.5850  141.8800 C   0  0  0  0  0  3  0  0  0  0  0  0
  182.3320  178.3320  141.0010 C   0  0  0  0  0  0  0  0  0  0  0  0
  2  1  2  0  0  0  0
  2  7  1  0  0  0  0
  3  1  1  0  0  0  0
  4  2  1  0  0  0  0
  5 23  1  1  0  0  0
  5  6  1  0  0  0  0
  5  4  1  0  0  0  0
  6  3  1  0  0  0  0
  7 10  1  0  0  0  0
  8  9  1  0  0  0  0
  9 11  1  1  0  0  0
 10  8  1  0  0  0  0
 10  9  1  0  0  0  0
 11 12  1  0  0  0  0
 11 18  1  1  0  0  0
 12 16  1  0  0  0  0
 13 15  2  0  0  0  0
 15 14  1  0  0  0  0
 16 14  2  0  0  0  0
 17 13  1  0  0  0  0
 17 12  2  0  0  0  0
 19 18  1  6  0  0  0
 19 22  1  0  0  0  0
 21 19  1  0  0  0  0
 21 22  1  0  0  0  0
 22 20  1  1  0  0  0
 23 33  1  1  0  0  0
 24 26  1  0  0  0  0
 25 28  2  0  0  0  0
 26 30  2  0  0  0  0
 27 24  1  0  0  0  0
 28 23  1  0  0  0  0
 28 30  1  0  0  0  0
 29 25  1  0  0  0  0
 29 24  2  0  0  0  0
 32 31  1  0  0  0  0
 32 25  1  0  0  0  0
 33 34  1  6  0  0  0
 35 33  1  0  0  0  0
 36 37  2  0  0  0  0
 37 43  1  0  0  0  0
 38 41  2  0  0  0  0
 39 36  1  0  0  0  0
 40 35  1  6  0  0  0
 40 39  1  0  0  0  0
 40 38  1  0  0  0  0
 41 37  1  0  0  0  0
 43 42  3  0  0  0  0
M  END
>  <MODEL>
7

>  <REMARK>
 VINA RESULT:      -6.8      2.930      7.072
  Name = 
  13 active torsions:
  status: ('A' for Active; 'I' for Inactive)
    1  A    between atoms: C_1  and  C_8
    2  A    between atoms: C_1  and  C_35
    3  A    between atoms: C_4  and  C_14
    4  A    between atoms: C_6  and  C_17
    5  A    between atoms: C_8  and  C_30
    6  A    between atoms: C_10  and  S_41
    7  A    between atoms: C_11  and  C_14
    8  A    between atoms: N_12  and  C_17
    9  A    between atoms: C_14  and  S_41
   10  A    between atoms: C_16  and  C_43
   11  A    between atoms: C_19  and  C_37
   12  A    between atoms: C_21  and  C_30
   13  A    between atoms: C_27  and  C_30
                            x       y       z     vdW  Elec       q    Type
                         _______ _______ _______ _____ _____    ______ ____

>  <TORSDO>
F 13

$$$$
=
 OpenBabel10262422143D

 43 48  0  0  1  0  0  0  0  0999 V2000
  192.5270  177.2250  140.7040 N   0  0  0  0  0  0  0  0  0  0  0  0
  191.2730  177.1550  140.9910 C   0  0  0  0  0  0  0  0  0  0  0  0
  192.9710  177.6120  139.3830 C   0  0  0  0  0  2  0  0  0  0  0  0
  190.2310  177.4680  139.9490 C   0  0  0  0  0  2  0  0  0  0  0  0
  190.6570  177.0250  138.5360 C   0  0  1  0  0  3  0  0  0  0  0  0
  192.1740  176.8390  138.3360 C   0  0  0  0  0  2  0  0  0  0  0  0
  190.8530  176.7370  142.3620 C   0  0  0  0  0  2  0  0  0  0  0  0
  188.6940  175.9790  142.8920 C   0  0  0  0  0  2  0  0  0  0  0  0
  189.1810  176.7870  144.0040 C   0  0  1  0  0  3  0  0  0  0  0  0
  189.4950  177.1830  142.6220 N   0  0  0  0  0  0  0  0  0  0  0  0
  188.0700  177.6800  144.5320 C   0  0  2  0  0  3  0  0  0  0  0  0
  188.1750  177.8310  146.0190 C   0  0  0  0  0  0  0  0  0  0  0  0
  187.1670  178.2370  148.1910 C   0  0  0  0  0  3  0  0  0  0  0  0
  189.5480  177.8320  148.0180 C   0  0  0  0  0  3  0  0  0  0  0  0
  188.4190  178.1040  148.7970 C   0  0  0  0  0  3  0  0  0  0  0  0
  189.4250  177.6930  146.6320 C   0  0  0  0  0  3  0  0  0  0  0  0
  187.0430  178.0990  146.8050 C   0  0  0  0  0  3  0  0  0  0  0  0
  186.4420  177.0160  144.0480 S   0  0  0  0  0  0  0  0  0  0  0  0
  185.6880  178.6640  143.9650 C   0  0  1  0  0  3  0  0  0  0  0  0
  183.4650  179.7250  144.0030 C   0  0  0  0  0  1  0  0  0  0  0  0
  185.2980  178.9640  142.5340 C   0  0  0  0  0  2  0  0  0  0  0  0
  184.2470  178.5190  143.5270 C   0  0  1  0  0  3  0  0  0  0  0  0
  189.8160  175.8340  138.0570 C   0  0  1  0  0  3  0  0  0  0  0  0
  186.0650  176.9320  136.2320 C   0  0  0  0  0  0  0  0  0  0  0  0
  188.3450  177.5390  136.8030 C   0  0  0  0  0  0  0  0  0  0  0  0
  186.2420  175.6840  136.8310 C   0  0  0  0  0  3  0  0  0  0  0  0
  184.7620  177.2780  135.6080 C   0  0  0  0  0  1  0  0  0  0  0  0
  188.5280  176.2730  137.4080 C   0  0  0  0  0  0  0  0  0  0  0  0
  187.1130  177.8550  136.2180 C   0  0  0  0  0  3  0  0  0  0  0  0
  187.4680  175.3580  137.4150 C   0  0  0  0  0  3  0  0  0  0  0  0
  188.9900  179.7470  137.3570 O   0  0  0  0  0  1  0  0  0  0  0  0
  189.4300  178.5660  136.7580 C   0  0  0  0  0  2  0  0  0  0  0  0
  190.5650  174.7310  137.2830 C   0  0  1  0  0  3  0  0  0  0  0  0
  190.0010  173.4760  137.5200 O   0  0  0  0  0  1  0  0  0  0  0  0
  190.6040  175.0080  135.7790 C   0  0  0  0  0  2  0  0  0  0  0  0
  194.0630  176.1920  134.6490 C   0  0  0  0  0  3  0  0  0  0  0  0
  194.8260  175.2390  135.1960 C   0  0  0  0  0  0  0  0  0  0  0  0
  192.8900  174.0680  136.1100 C   0  0  0  0  0  3  0  0  0  0  0  0
  192.6030  176.2890  134.9940 C   0  0  0  0  0  2  0  0  0  0  0  0
  192.0090  174.8920  135.2050 C   0  0  2  0  0  3  0  0  0  0  0  0
  194.2180  174.2140  136.0680 C   0  0  0  0  0  3  0  0  0  0  0  0
  197.4110  175.1530  134.6600 C   0  0  0  0  0  3  0  0  0  0  0  0
  196.2320  175.1950  134.9050 C   0  0  0  0  0  0  0  0  0  0  0  0
  1  2  2  0  0  0  0
  2  7  1  0  0  0  0
  3  1  1  0  0  0  0
  4  2  1  0  0  0  0
  5 23  1  1  0  0  0
  5  4  1  0  0  0  0
  6  5  1  0  0  0  0
  6  3  1  0  0  0  0
  7 10  1  0  0  0  0
  8  9  1  0  0  0  0
  9 11  1  6  0  0  0
 10  8  1  0  0  0  0
 10  9  1  0  0  0  0
 11 18  1  1  0  0  0
 11 12  1  0  0  0  0
 12 16  2  0  0  0  0
 12 17  1  0  0  0  0
 13 15  1  0  0  0  0
 14 15  2  0  0  0  0
 16 14  1  0  0  0  0
 17 13  2  0  0  0  0
 19 18  1  6  0  0  0
 21 22  1  0  0  0  0
 21 19  1  0  0  0  0
 22 19  1  0  0  0  0
 22 20  1  1  0  0  0
 23 33  1  6  0  0  0
 24 26  1  0  0  0  0
 25 28  2  0  0  0  0
 26 30  2  0  0  0  0
 27 24  1  0  0  0  0
 28 30  1  0  0  0  0
 28 23  1  0  0  0  0
 29 24  2  0  0  0  0
 29 25  1  0  0  0  0
 32 25  1  0  0  0  0
 32 31  1  0  0  0  0
 33 34  1  6  0  0  0
 35 33  1  0  0  0  0
 36 39  1  0  0  0  0
 36 37  2  0  0  0  0
 37 41  1  0  0  0  0
 39 40  1  0  0  0  0
 40 35  1  1  0  0  0
 40 38  1  0  0  0  0
 41 38  2  0  0  0  0
 42 43  3  0  0  0  0
 43 37  1  0  0  0  0
M  END
>  <MODEL>
8

>  <REMARK>
 VINA RESULT:      -6.7      2.992      7.538
  Name = 
  13 active torsions:
  status: ('A' for Active; 'I' for Inactive)
    1  A    between atoms: C_1  and  C_8
    2  A    between atoms: C_1  and  C_35
    3  A    between atoms: C_4  and  C_14
    4  A    between atoms: C_6  and  C_17
    5  A    between atoms: C_8  and  C_30
    6  A    between atoms: C_10  and  S_41
    7  A    between atoms: C_11  and  C_14
    8  A    between atoms: N_12  and  C_17
    9  A    between atoms: C_14  and  S_41
   10  A    between atoms: C_16  and  C_43
   11  A    between atoms: C_19  and  C_37
   12  A    between atoms: C_21  and  C_30
   13  A    between atoms: C_27  and  C_30
                            x       y       z     vdW  Elec       q    Type
                         _______ _______ _______ _____ _____    ______ ____

>  <TORSDO>
F 13

$$$$
=
 OpenBabel10262422143D

 43 48  0  0  1  0  0  0  0  0999 V2000
  182.6970  179.3670  143.4780 N   0  0  0  0  0  0  0  0  0  0  0  0
  183.4330  178.7320  142.6330 C   0  0  0  0  0  0  0  0  0  0  0  0
  181.2860  179.0780  143.6060 C   0  0  0  0  0  2  0  0  0  0  0  0
  182.8360  177.6720  141.7430 C   0  0  0  0  0  2  0  0  0  0  0  0
  181.3950  178.0050  141.3130 C   0  0  1  0  0  3  0  0  0  0  0  0
  180.6570  179.0130  142.2170 C   0  0  0  0  0  2  0  0  0  0  0  0
  184.8840  179.0680  142.5200 C   0  0  0  0  0  2  0  0  0  0  0  0
  186.9990  178.1250  142.1250 C   0  0  0  0  0  2  0  0  0  0  0  0
  186.8340  178.2940  143.5650 C   0  0  1  0  0  3  0  0  0  0  0  0
  185.6870  177.8780  142.7430 N   0  0  0  0  0  0  0  0  0  0  0  0
  187.3790  177.0820  144.3020 C   0  0  2  0  0  3  0  0  0  0  0  0
  187.5640  177.3870  145.7560 C   0  0  0  0  0  0  0  0  0  0  0  0
  188.7170  177.0540  147.8690 C   0  0  0  0  0  3  0  0  0  0  0  0
  186.8830  178.6280  147.7250 C   0  0  0  0  0  3  0  0  0  0  0  0
  187.8760  177.9910  148.4750 C   0  0  0  0  0  3  0  0  0  0  0  0
  186.7300  178.3280  146.3690 C   0  0  0  0  0  3  0  0  0  0  0  0
  188.5640  176.7530  146.5120 C   0  0  0  0  0  3  0  0  0  0  0  0
  188.9390  176.5260  143.5380 S   0  0  0  0  0  0  0  0  0  0  0  0
  189.9250  177.7640  144.4250 C   0  0  1  0  0  3  0  0  0  0  0  0
  191.3060  179.7530  143.9680 C   0  0  0  0  0  1  0  0  0  0  0  0
  191.3740  177.3310  144.4410 C   0  0  0  0  0  2  0  0  0  0  0  0
  190.9110  178.3830  143.4580 C   0  0  1  0  0  3  0  0  0  0  0  0
  181.3320  178.3480  139.8180 C   0  0  1  0  0  3  0  0  0  0  0  0
  185.1440  177.8620  137.8590 C   0  0  0  0  0  0  0  0  0  0  0  0
  183.0560  176.8690  138.6010 C   0  0  0  0  0  0  0  0  0  0  0  0
  184.7490  179.0940  138.3820 C   0  0  0  0  0  3  0  0  0  0  0  0
  186.4620  177.7290  137.1850 C   0  0  0  0  0  1  0  0  0  0  0  0
  182.6520  178.1190  139.1280 C   0  0  0  0  0  0  0  0  0  0  0  0
  184.3000  176.7550  137.9680 C   0  0  0  0  0  3  0  0  0  0  0  0
  183.5090  179.2210  139.0120 C   0  0  0  0  0  3  0  0  0  0  0  0
  182.3740  174.8620  137.5510 O   0  0  0  0  0  1  0  0  0  0  0  0
  182.1960  175.6510  138.6880 C   0  0  0  0  0  2  0  0  0  0  0  0
  180.1150  177.8110  139.0400 C   0  0  1  0  0  3  0  0  0  0  0  0
  179.3890  176.8970  139.8050 O   0  0  0  0  0  1  0  0  0  0  0  0
  179.1950  178.9370  138.5630 C   0  0  0  0  0  2  0  0  0  0  0  0
  180.5110  181.6280  136.1810 C   0  0  0  0  0  3  0  0  0  0  0  0
  180.2940  182.7210  136.9210 C   0  0  0  0  0  0  0  0  0  0  0  0
  179.3940  181.4140  138.7750 C   0  0  0  0  0  3  0  0  0  0  0  0
  179.9550  180.2970  136.6080 C   0  0  0  0  0  2  0  0  0  0  0  0
  179.9700  180.1760  138.1350 C   0  0  2  0  0  3  0  0  0  0  0  0
  179.5870  182.6110  138.2140 C   0  0  0  0  0  3  0  0  0  0  0  0
  181.1800  185.0680  136.0940 C   0  0  0  0  0  3  0  0  0  0  0  0
  180.7790  183.9950  136.4710 C   0  0  0  0  0  0  0  0  0  0  0  0
  1  3  1  0  0  0  0
  2  1  2  0  0  0  0
  4  2  1  0  0  0  0
  5 23  1  6  0  0  0
  5  4  1  0  0  0  0
  5  6  1  0  0  0  0
  6  3  1  0  0  0  0
  7  2  1  0  0  0  0
  7 10  1  0  0  0  0
  8 10  1  0  0  0  0
  8  9  1  0  0  0  0
  9 11  1  1  0  0  0
 10  9  1  0  0  0  0
 11 18  1  6  0  0  0
 11 12  1  0  0  0  0
 12 16  2  0  0  0  0
 12 17  1  0  0  0  0
 13 15  1  0  0  0  0
 14 15  2  0  0  0  0
 16 14  1  0  0  0  0
 17 13  2  0  0  0  0
 19 18  1  6  0  0  0
 19 21  1  0  0  0  0
 22 20  1  1  0  0  0
 22 19  1  0  0  0  0
 22 21  1  0  0  0  0
 23 33  1  6  0  0  0
 24 29  2  0  0  0  0
 24 26  1  0  0  0  0
 25 32  1  0  0  0  0
 25 28  2  0  0  0  0
 26 30  2  0  0  0  0
 27 24  1  0  0  0  0
 28 23  1  0  0  0  0
 29 25  1  0  0  0  0
 30 28  1  0  0  0  0
 31 32  1  0  0  0  0
 33 34  1  1  0  0  0
 35 33  1  0  0  0  0
 36 39  1  0  0  0  0
 36 37  2  0  0  0  0
 37 41  1  0  0  0  0
 39 40  1  0  0  0  0
 40 35  1  6  0  0  0
 40 38  1  0  0  0  0
 41 38  2  0  0  0  0
 42 43  3  0  0  0  0
 43 37  1  0  0  0  0
M  END
>  <MODEL>
9

>  <REMARK>
 VINA RESULT:      -6.7      3.886      9.413
  Name = 
  13 active torsions:
  status: ('A' for Active; 'I' for Inactive)
    1  A    between atoms: C_1  and  C_8
    2  A    between atoms: C_1  and  C_35
    3  A    between atoms: C_4  and  C_14
    4  A    between atoms: C_6  and  C_17
    5  A    between atoms: C_8  and  C_30
    6  A    between atoms: C_10  and  S_41
    7  A    between atoms: C_11  and  C_14
    8  A    between atoms: N_12  and  C_17
    9  A    between atoms: C_14  and  S_41
   10  A    between atoms: C_16  and  C_43
   11  A    between atoms: C_19  and  C_37
   12  A    between atoms: C_21  and  C_30
   13  A    between atoms: C_27  and  C_30
                            x       y       z     vdW  Elec       q    Type
                         _______ _______ _______ _____ _____    ______ ____

>  <TORSDO>
F 13

$$$$
