=
 OpenBabel10262419243D

 31 35  0  0  1  0  0  0  0  0999 V2000
  186.0500  178.1600  144.3240 C   0  0  0  0  0  0  0  0  0  0  0  0
  186.9920  177.9690  145.3840 C   0  0  0  0  0  0  0  0  0  0  0  0
  189.4490  177.4400  146.0710 C   0  0  0  0  0  2  0  0  0  0  0  0
  186.3930  177.8840  142.9250 C   0  0  0  0  0  0  0  0  0  0  0  0
  188.3130  177.2850  145.0710 C   0  0  0  0  0  2  0  0  0  0  0  0
  183.6280  178.8620  143.7450 C   0  0  0  0  0  0  0  0  0  0  0  0
  185.3240  178.7550  146.9820 C   0  0  0  0  0  3  0  0  0  0  0  0
  189.1660  176.6420  147.2370 N   0  0  0  0  0  0  0  0  0  0  0  0
  184.0250  178.5750  142.4870 C   0  0  0  0  0  0  0  0  0  0  0  0
  184.6900  178.6480  144.6980 C   0  0  0  0  0  0  0  0  0  0  0  0
  188.2700  177.0000  148.0830 C   0  0  0  0  0  3  0  0  0  0  0  0
  184.3300  178.3080  141.1460 C   0  0  0  0  0  2  0  0  0  0  0  0
  185.3400  178.1100  142.0960 C   0  0  0  0  0  0  0  0  0  0  0  0
  184.4150  178.9100  145.9970 N   0  0  0  0  0  0  0  0  0  0  0  0
  186.6040  178.2850  146.7210 C   0  0  0  0  0  0  0  0  0  0  0  0
  187.5180  178.2830  147.9120 C   0  0  0  0  0  2  0  0  0  0  0  0
  188.4060  178.0050  141.3400 C   0  0  0  0  0  0  0  0  0  0  0  0
  187.9330  178.9430  140.6460 O   0  0  0  0  0  0  0  0  0  0  0  0
  189.6820  177.4690  141.0120 N   0  0  0  0  0  1  0  0  0  0  0  0
  187.6840  177.4680  142.4550 N   0  0  0  0  0  2  0  0  0  0  0  0
  182.2520  179.3600  144.0870 C   0  0  0  0  0  2  0  0  0  0  0  0
  180.0420  178.1450  144.2310 C   0  0  0  0  0  1  0  0  0  0  0  0
  181.1340  178.6540  143.3080 C   0  0  1  0  0  3  0  0  0  0  0  0
  180.5350  179.5300  142.2130 C   0  0  0  0  0  2  0  0  0  0  0  0
  180.9700  177.0700  139.3750 C   0  0  0  0  0  0  0  0  0  0  0  0
  181.3690  179.2560  138.5350 C   0  0  0  0  0  3  0  0  0  0  0  0
  180.8800  175.6070  139.1340 C   0  0  0  0  0  1  0  0  0  0  0  0
  180.7250  177.5830  140.6510 C   0  0  0  0  0  3  0  0  0  0  0  0
  181.1320  179.8070  139.7960 C   0  0  0  0  0  3  0  0  0  0  0  0
  180.8100  178.9620  140.8610 C   0  0  0  0  0  0  0  0  0  0  0  0
  181.2850  177.9100  138.3520 N   0  0  0  0  0  0  0  0  0  0  0  0
  1 10  1  0  0  0  0
  1  2  2  0  0  0  0
  2 15  1  0  0  0  0
  3  8  1  0  0  0  0
  4  1  1  0  0  0  0
  5  2  1  0  0  0  0
  5  3  1  0  0  0  0
  6 21  1  0  0  0  0
  6 10  1  0  0  0  0
  8 11  2  0  0  0  0
  9  6  2  0  0  0  0
 10 14  2  0  0  0  0
 12 13  1  0  0  0  0
 12  9  1  0  0  0  0
 13  9  1  0  0  0  0
 13  4  2  0  0  0  0
 14  7  1  0  0  0  0
 15  7  2  0  0  0  0
 15 16  1  0  0  0  0
 16 11  1  0  0  0  0
 17 20  1  0  0  0  0
 18 17  2  0  0  0  0
 19 17  1  0  0  0  0
 20  4  1  0  0  0  0
 23 21  1  0  0  0  0
 23 22  1  1  0  0  0
 24 23  1  0  0  0  0
 25 28  1  0  0  0  0
 26 29  2  0  0  0  0
 27 25  1  0  0  0  0
 28 30  2  0  0  0  0
 29 30  1  0  0  0  0
 30 24  1  0  0  0  0
 31 26  1  0  0  0  0
 31 25  2  0  0  0  0
M  END
>  <MODEL>
1

>  <REMARK>
 VINA RESULT:      -9.9      0.000      0.000
  Name = 
  5 active torsions:
  status: ('A' for Active; 'I' for Inactive)
    1  A    between atoms: C_3  and  C_9
    2  A    between atoms: C_3  and  C_22
    3  A    between atoms: C_9  and  C_23
    4  A    between atoms: C_12  and  N_25
    5  A    between atoms: C_15  and  C_23
                            x       y       z     vdW  Elec       q    Type
                         _______ _______ _______ _____ _____    ______ ____

>  <TORSDO>
F 5

$$$$
=
 OpenBabel10262419243D

 31 35  0  0  1  0  0  0  0  0999 V2000
  187.0300  178.0960  141.9980 C   0  0  0  0  0  0  0  0  0  0  0  0
  187.9830  177.8780  140.9530 C   0  0  0  0  0  0  0  0  0  0  0  0
  188.7530  178.4420  138.5290 C   0  0  0  0  0  2  0  0  0  0  0  0
  185.8050  178.8730  141.7780 C   0  0  0  0  0  0  0  0  0  0  0  0
  187.6240  178.3020  139.5370 C   0  0  0  0  0  2  0  0  0  0  0  0
  186.4480  177.6020  144.4700 C   0  0  0  0  0  0  0  0  0  0  0  0
  189.3800  176.6270  142.5150 C   0  0  0  0  0  3  0  0  0  0  0  0
  189.2210  177.1310  138.1540 N   0  0  0  0  0  0  0  0  0  0  0  0
  185.3440  178.3230  144.1780 C   0  0  0  0  0  0  0  0  0  0  0  0
  187.3250  177.4920  143.3300 C   0  0  0  0  0  0  0  0  0  0  0  0
  189.9260  176.4240  138.9610 C   0  0  0  0  0  3  0  0  0  0  0  0
  184.1640  179.0530  143.9860 C   0  0  0  0  0  2  0  0  0  0  0  0
  185.0370  178.9270  142.8980 C   0  0  0  0  0  0  0  0  0  0  0  0
  188.4750  176.7980  143.5010 N   0  0  0  0  0  0  0  0  0  0  0  0
  189.1690  177.1390  141.2410 C   0  0  0  0  0  0  0  0  0  0  0  0
  190.3260  176.9560  140.3020 C   0  0  0  0  0  2  0  0  0  0  0  0
  184.2040  179.4610  139.8620 C   0  0  0  0  0  0  0  0  0  0  0  0
  183.2570  178.7560  140.3010 O   0  0  0  0  0  0  0  0  0  0  0  0
  184.0270  180.1940  138.6560 N   0  0  0  0  0  1  0  0  0  0  0  0
  185.4550  179.5410  140.5560 N   0  0  0  0  0  2  0  0  0  0  0  0
  186.7190  177.0150  145.8250 C   0  0  0  0  0  2  0  0  0  0  0  0
  186.2310  178.6890  147.6530 C   0  0  0  0  0  1  0  0  0  0  0  0
  187.3110  178.0200  146.8220 C   0  0  1  0  0  3  0  0  0  0  0  0
  188.3690  177.4000  147.7280 C   0  0  0  0  0  2  0  0  0  0  0  0
  191.2080  177.9270  145.2880 C   0  0  0  0  0  0  0  0  0  0  0  0
  191.7920  176.1380  146.7360 C   0  0  0  0  0  3  0  0  0  0  0  0
  191.5610  178.8180  144.1530 C   0  0  0  0  0  1  0  0  0  0  0  0
  189.9820  178.0820  145.9400 C   0  0  0  0  0  3  0  0  0  0  0  0
  190.5760  176.2610  147.4130 C   0  0  0  0  0  3  0  0  0  0  0  0
  189.6650  177.2390  147.0090 C   0  0  0  0  0  0  0  0  0  0  0  0
  192.0800  176.9660  145.6960 N   0  0  0  0  0  0  0  0  0  0  0  0
  1 10  1  0  0  0  0
  2 15  2  0  0  0  0
  2  1  1  0  0  0  0
  3  5  1  0  0  0  0
  4  1  2  0  0  0  0
  4 13  1  0  0  0  0
  5  2  1  0  0  0  0
  6 21  1  0  0  0  0
  7 14  2  0  0  0  0
  8  3  1  0  0  0  0
  8 11  2  0  0  0  0
  9  6  1  0  0  0  0
 10 14  1  0  0  0  0
 10  6  2  0  0  0  0
 11 16  1  0  0  0  0
 12  9  1  0  0  0  0
 13 12  1  0  0  0  0
 13  9  2  0  0  0  0
 15  7  1  0  0  0  0
 16 15  1  0  0  0  0
 17 18  2  0  0  0  0
 17 20  1  0  0  0  0
 19 17  1  0  0  0  0
 20  4  1  0  0  0  0
 21 23  1  0  0  0  0
 23 22  1  1  0  0  0
 23 24  1  0  0  0  0
 25 31  2  0  0  0  0
 25 28  1  0  0  0  0
 26 29  2  0  0  0  0
 27 25  1  0  0  0  0
 28 30  2  0  0  0  0
 30 29  1  0  0  0  0
 30 24  1  0  0  0  0
 31 26  1  0  0  0  0
M  END
>  <MODEL>
2

>  <REMARK>
 VINA RESULT:      -9.8      2.779      7.757
  Name = 
  5 active torsions:
  status: ('A' for Active; 'I' for Inactive)
    1  A    between atoms: C_3  and  C_9
    2  A    between atoms: C_3  and  C_22
    3  A    between atoms: C_9  and  C_23
    4  A    between atoms: C_12  and  N_25
    5  A    between atoms: C_15  and  C_23
                            x       y       z     vdW  Elec       q    Type
                         _______ _______ _______ _____ _____    ______ ____

>  <TORSDO>
F 5

$$$$
=
 OpenBabel10262419243D

 31 35  0  0  1  0  0  0  0  0999 V2000
  190.2950  177.1550  139.2270 C   0  0  0  0  0  0  0  0  0  0  0  0
  191.0240  176.7380  138.0690 C   0  0  0  0  0  0  0  0  0  0  0  0
  191.0020  176.2970  135.5010 C   0  0  0  0  0  2  0  0  0  0  0  0
  188.8480  177.3920  139.1880 C   0  0  0  0  0  0  0  0  0  0  0  0
  190.2480  176.3490  136.8200 C   0  0  0  0  0  2  0  0  0  0  0  0
  190.4680  177.7260  141.7450 C   0  0  0  0  0  0  0  0  0  0  0  0
  193.0830  176.7640  139.3780 C   0  0  0  0  0  3  0  0  0  0  0  0
  191.8550  175.1360  135.4870 N   0  0  0  0  0  0  0  0  0  0  0  0
  189.1360  177.9130  141.6210 C   0  0  0  0  0  0  0  0  0  0  0  0
  191.0670  177.3360  140.4920 C   0  0  0  0  0  0  0  0  0  0  0  0
  192.9280  175.0930  136.1910 C   0  0  0  0  0  3  0  0  0  0  0  0
  187.7530  178.1350  141.6060 C   0  0  0  0  0  2  0  0  0  0  0  0
  188.3650  177.7550  140.4050 C   0  0  0  0  0  0  0  0  0  0  0  0
  192.4040  177.1270  140.4860 N   0  0  0  0  0  0  0  0  0  0  0  0
  192.4350  176.5540  138.1680 C   0  0  0  0  0  0  0  0  0  0  0  0
  193.3550  176.2670  137.0150 C   0  0  0  0  0  2  0  0  0  0  0  0
  187.7240  178.3580  137.0930 C   0  0  0  0  0  0  0  0  0  0  0  0
  188.1890  179.5170  137.2530 O   0  0  0  0  0  0  0  0  0  0  0  0
  186.8850  178.0900  135.9760 N   0  0  0  0  0  1  0  0  0  0  0  0
  188.0250  177.3020  138.0140 N   0  0  0  0  0  2  0  0  0  0  0  0
  191.2160  177.9250  143.0320 C   0  0  0  0  0  2  0  0  0  0  0  0
  191.7680  175.6340  143.9440 C   0  0  0  0  0  1  0  0  0  0  0  0
  190.8960  176.8680  144.0970 C   0  0  1  0  0  3  0  0  0  0  0  0
  190.9950  177.4130  145.5180 C   0  0  0  0  0  2  0  0  0  0  0  0
  187.2610  177.8480  145.9170 C   0  0  0  0  0  0  0  0  0  0  0  0
  188.2190  177.6070  148.0770 C   0  0  0  0  0  3  0  0  0  0  0  0
  186.0550  178.0340  145.0690 C   0  0  0  0  0  1  0  0  0  0  0  0
  188.5200  177.7330  145.3230 C   0  0  0  0  0  3  0  0  0  0  0  0
  189.4950  177.4880  147.5210 C   0  0  0  0  0  3  0  0  0  0  0  0
  189.6440  177.5540  146.1340 C   0  0  0  0  0  0  0  0  0  0  0  0
  187.1370  177.7830  147.2710 N   0  0  0  0  0  0  0  0  0  0  0  0
  1 10  1  0  0  0  0
  2 15  2  0  0  0  0
  2  1  1  0  0  0  0
  3  5  1  0  0  0  0
  4  1  2  0  0  0  0
  4 13  1  0  0  0  0
  5  2  1  0  0  0  0
  6 21  1  0  0  0  0
  7 14  2  0  0  0  0
  8  3  1  0  0  0  0
  8 11  2  0  0  0  0
  9  6  1  0  0  0  0
 10  6  2  0  0  0  0
 11 16  1  0  0  0  0
 12  9  1  0  0  0  0
 13 12  1  0  0  0  0
 13  9  2  0  0  0  0
 14 10  1  0  0  0  0
 15  7  1  0  0  0  0
 16 15  1  0  0  0  0
 17 18  2  0  0  0  0
 17 20  1  0  0  0  0
 19 17  1  0  0  0  0
 20  4  1  0  0  0  0
 21 23  1  0  0  0  0
 23 22  1  1  0  0  0
 23 24  1  0  0  0  0
 24 30  1  0  0  0  0
 25 31  1  0  0  0  0
 27 25  1  0  0  0  0
 28 25  2  0  0  0  0
 28 30  1  0  0  0  0
 29 26  1  0  0  0  0
 30 29  2  0  0  0  0
 31 26  2  0  0  0  0
M  END
>  <MODEL>
3

>  <REMARK>
 VINA RESULT:      -9.0      4.272      9.079
  Name = 
  5 active torsions:
  status: ('A' for Active; 'I' for Inactive)
    1  A    between atoms: C_3  and  C_9
    2  A    between atoms: C_3  and  C_22
    3  A    between atoms: C_9  and  C_23
    4  A    between atoms: C_12  and  N_25
    5  A    between atoms: C_15  and  C_23
                            x       y       z     vdW  Elec       q    Type
                         _______ _______ _______ _____ _____    ______ ____

>  <TORSDO>
F 5

$$$$
=
 OpenBabel10262419243D

 31 35  0  0  1  0  0  0  0  0999 V2000
  187.2960  178.2270  139.0850 C   0  0  0  0  0  0  0  0  0  0  0  0
  187.5940  177.9900  137.7060 C   0  0  0  0  0  0  0  0  0  0  0  0
  186.7680  178.0690  135.2360 C   0  0  0  0  0  2  0  0  0  0  0  0
  185.9470  178.5830  139.5360 C   0  0  0  0  0  0  0  0  0  0  0  0
  186.4430  177.9190  136.7140 C   0  0  0  0  0  2  0  0  0  0  0  0
  188.2680  178.2730  141.4830 C   0  0  0  0  0  0  0  0  0  0  0  0
  189.9270  177.5900  138.2970 C   0  0  0  0  0  3  0  0  0  0  0  0
  187.4130  176.8680  134.7680 N   0  0  0  0  0  0  0  0  0  0  0  0
  186.9960  178.5880  141.8100 C   0  0  0  0  0  0  0  0  0  0  0  0
  188.4190  178.0910  140.0590 C   0  0  0  0  0  0  0  0  0  0  0  0
  188.6280  176.6010  135.0870 C   0  0  0  0  0  3  0  0  0  0  0  0
  185.7130  178.9190  142.2620 C   0  0  0  0  0  2  0  0  0  0  0  0
  185.8920  178.7350  140.8850 C   0  0  0  0  0  0  0  0  0  0  0  0
  189.6550  177.7810  139.6050 N   0  0  0  0  0  0  0  0  0  0  0  0
  188.9340  177.6770  137.3300 C   0  0  0  0  0  0  0  0  0  0  0  0
  189.4310  177.5510  135.9190 C   0  0  0  0  0  2  0  0  0  0  0  0
  183.6070  178.0220  138.6450 C   0  0  0  0  0  0  0  0  0  0  0  0
  183.4380  177.0410  139.4160 O   0  0  0  0  0  0  0  0  0  0  0  0
  182.5810  178.3730  137.7250 N   0  0  0  0  0  1  0  0  0  0  0  0
  184.8140  178.7930  138.6780 N   0  0  0  0  0  2  0  0  0  0  0  0
  189.3770  178.1530  142.4880 C   0  0  0  0  0  2  0  0  0  0  0  0
  189.6330  175.6660  142.8550 C   0  0  0  0  0  1  0  0  0  0  0  0
  189.1940  176.9850  143.4670 C   0  0  1  0  0  3  0  0  0  0  0  0
  189.9030  177.2130  144.7970 C   0  0  0  0  0  2  0  0  0  0  0  0
  186.7120  178.1890  146.5730 C   0  0  0  0  0  0  0  0  0  0  0  0
  188.3770  177.7650  148.2130 C   0  0  0  0  0  3  0  0  0  0  0  0
  185.3140  178.5700  146.2430 C   0  0  0  0  0  1  0  0  0  0  0  0
  187.6170  177.9010  145.5490 C   0  0  0  0  0  3  0  0  0  0  0  0
  189.3110  177.4690  147.2170 C   0  0  0  0  0  3  0  0  0  0  0  0
  188.9270  177.5410  145.8760 C   0  0  0  0  0  0  0  0  0  0  0  0
  187.1070  178.1160  147.8730 N   0  0  0  0  0  0  0  0  0  0  0  0
  1  4  2  0  0  0  0
  1 10  1  0  0  0  0
  2  1  1  0  0  0  0
  3  5  1  0  0  0  0
  4 13  1  0  0  0  0
  5  2  1  0  0  0  0
  6  9  1  0  0  0  0
  6 21  1  0  0  0  0
  7 14  2  0  0  0  0
  8 11  2  0  0  0  0
  8  3  1  0  0  0  0
  9 12  1  0  0  0  0
 10  6  2  0  0  0  0
 11 16  1  0  0  0  0
 13  9  2  0  0  0  0
 13 12  1  0  0  0  0
 14 10  1  0  0  0  0
 15  2  2  0  0  0  0
 15  7  1  0  0  0  0
 16 15  1  0  0  0  0
 17 20  1  0  0  0  0
 17 18  2  0  0  0  0
 19 17  1  0  0  0  0
 20  4  1  0  0  0  0
 21 23  1  0  0  0  0
 23 22  1  6  0  0  0
 23 24  1  0  0  0  0
 24 30  1  0  0  0  0
 25 31  1  0  0  0  0
 27 25  1  0  0  0  0
 28 30  1  0  0  0  0
 28 25  2  0  0  0  0
 29 26  1  0  0  0  0
 30 29  2  0  0  0  0
 31 26  2  0  0  0  0
M  END
>  <MODEL>
4

>  <REMARK>
 VINA RESULT:      -8.8      3.201      8.624
  Name = 
  5 active torsions:
  status: ('A' for Active; 'I' for Inactive)
    1  A    between atoms: C_3  and  C_9
    2  A    between atoms: C_3  and  C_22
    3  A    between atoms: C_9  and  C_23
    4  A    between atoms: C_12  and  N_25
    5  A    between atoms: C_15  and  C_23
                            x       y       z     vdW  Elec       q    Type
                         _______ _______ _______ _____ _____    ______ ____

>  <TORSDO>
F 5

$$$$
=
 OpenBabel10262419243D

 31 35  0  0  1  0  0  0  0  0999 V2000
  184.0410  178.8210  140.8830 C   0  0  0  0  0  0  0  0  0  0  0  0
  182.8550  179.0210  140.1070 C   0  0  0  0  0  0  0  0  0  0  0  0
  181.7820  179.1940  137.7400 C   0  0  0  0  0  2  0  0  0  0  0  0
  185.3700  178.7650  140.2640 C   0  0  0  0  0  0  0  0  0  0  0  0
  182.9970  179.3740  138.6350 C   0  0  0  0  0  2  0  0  0  0  0  0
  184.9790  178.4950  143.2720 C   0  0  0  0  0  0  0  0  0  0  0  0
  181.5210  178.8720  142.1440 C   0  0  0  0  0  3  0  0  0  0  0  0
  180.8230  180.2320  138.0270 N   0  0  0  0  0  0  0  0  0  0  0  0
  186.1610  178.4660  142.6220 C   0  0  0  0  0  0  0  0  0  0  0  0
  183.8760  178.6760  142.3590 C   0  0  0  0  0  0  0  0  0  0  0  0
  180.1280  180.2110  139.1060 C   0  0  0  0  0  3  0  0  0  0  0  0
  187.4400  178.4190  142.0520 C   0  0  0  0  0  2  0  0  0  0  0  0
  186.3480  178.5940  141.1910 C   0  0  0  0  0  0  0  0  0  0  0  0
  182.6330  178.7130  142.8920 N   0  0  0  0  0  0  0  0  0  0  0  0
  181.5900  179.0350  140.7680 C   0  0  0  0  0  0  0  0  0  0  0  0
  180.2550  179.0840  140.0820 C   0  0  0  0  0  2  0  0  0  0  0  0
  186.6680  178.1550  138.1370 C   0  0  0  0  0  0  0  0  0  0  0  0
  187.4780  177.3920  138.7270 O   0  0  0  0  0  0  0  0  0  0  0  0
  186.7830  178.3420  136.7320 N   0  0  0  0  0  1  0  0  0  0  0  0
  185.6320  178.8370  138.8540 N   0  0  0  0  0  2  0  0  0  0  0  0
  184.8470  178.3370  144.7600 C   0  0  0  0  0  2  0  0  0  0  0  0
  186.0180  179.4350  146.7110 C   0  0  0  0  0  1  0  0  0  0  0  0
  186.1710  178.5130  145.5150 C   0  0  1  0  0  3  0  0  0  0  0  0
  186.7850  177.1850  145.9450 C   0  0  0  0  0  2  0  0  0  0  0  0
  190.3700  177.9140  144.9920 C   0  0  0  0  0  0  0  0  0  0  0  0
  190.3590  176.9290  147.1530 C   0  0  0  0  0  3  0  0  0  0  0  0
  191.1340  178.5030  143.8620 C   0  0  0  0  0  1  0  0  0  0  0  0
  188.9780  177.8250  144.9220 C   0  0  0  0  0  3  0  0  0  0  0  0
  188.9670  176.8230  147.1200 C   0  0  0  0  0  3  0  0  0  0  0  0
  188.2730  177.2730  145.9940 C   0  0  0  0  0  0  0  0  0  0  0  0
  191.0270  177.4670  146.0970 N   0  0  0  0  0  0  0  0  0  0  0  0
  1 10  1  0  0  0  0
  2 15  2  0  0  0  0
  2  1  1  0  0  0  0
  3  8  1  0  0  0  0
  3  5  1  0  0  0  0
  4  1  2  0  0  0  0
  4 13  1  0  0  0  0
  5  2  1  0  0  0  0
  6 21  1  0  0  0  0
  7 14  2  0  0  0  0
  8 11  2  0  0  0  0
  9  6  1  0  0  0  0
 10 14  1  0  0  0  0
 10  6  2  0  0  0  0
 11 16  1  0  0  0  0
 12  9  1  0  0  0  0
 13 12  1  0  0  0  0
 13  9  2  0  0  0  0
 15  7  1  0  0  0  0
 16 15  1  0  0  0  0
 17 18  2  0  0  0  0
 17 20  1  0  0  0  0
 19 17  1  0  0  0  0
 20  4  1  0  0  0  0
 21 23  1  0  0  0  0
 23 24  1  0  0  0  0
 23 22  1  1  0  0  0
 24 30  1  0  0  0  0
 25 31  1  0  0  0  0
 27 25  1  0  0  0  0
 28 25  2  0  0  0  0
 28 30  1  0  0  0  0
 29 26  1  0  0  0  0
 30 29  2  0  0  0  0
 31 26  2  0  0  0  0
M  END
>  <MODEL>
5

>  <REMARK>
 VINA RESULT:      -8.7      2.051      7.885
  Name = 
  5 active torsions:
  status: ('A' for Active; 'I' for Inactive)
    1  A    between atoms: C_3  and  C_9
    2  A    between atoms: C_3  and  C_22
    3  A    between atoms: C_9  and  C_23
    4  A    between atoms: C_12  and  N_25
    5  A    between atoms: C_15  and  C_23
                            x       y       z     vdW  Elec       q    Type
                         _______ _______ _______ _____ _____    ______ ____

>  <TORSDO>
F 5

$$$$
=
 OpenBabel10262419243D

 31 35  0  0  1  0  0  0  0  0999 V2000
  188.4680  177.5740  143.4840 C   0  0  0  0  0  0  0  0  0  0  0  0
  189.1430  177.2190  144.6950 C   0  0  0  0  0  0  0  0  0  0  0  0
  188.9580  176.7000  147.2420 C   0  0  0  0  0  2  0  0  0  0  0  0
  187.0520  177.9560  143.4700 C   0  0  0  0  0  0  0  0  0  0  0  0
  188.4240  177.4290  146.0190 C   0  0  0  0  0  2  0  0  0  0  0  0
  188.7330  177.9030  140.9320 C   0  0  0  0  0  0  0  0  0  0  0  0
  191.1800  176.8080  143.4180 C   0  0  0  0  0  3  0  0  0  0  0  0
  190.1880  177.3220  147.6650 N   0  0  0  0  0  0  0  0  0  0  0  0
  187.4300  178.2500  141.0120 C   0  0  0  0  0  0  0  0  0  0  0  0
  189.2670  177.5470  142.2240 C   0  0  0  0  0  0  0  0  0  0  0  0
  191.2740  177.1620  147.0000 C   0  0  0  0  0  3  0  0  0  0  0  0
  186.0820  178.6280  140.9790 C   0  0  0  0  0  2  0  0  0  0  0  0
  186.6300  178.2760  142.2190 C   0  0  0  0  0  0  0  0  0  0  0  0
  190.5660  177.1700  142.2720 N   0  0  0  0  0  0  0  0  0  0  0  0
  190.5140  176.8280  144.6350 C   0  0  0  0  0  0  0  0  0  0  0  0
  191.3120  176.2870  145.7870 C   0  0  0  0  0  2  0  0  0  0  0  0
  185.1310  178.8930  144.8900 C   0  0  0  0  0  0  0  0  0  0  0  0
  184.8730  179.8390  144.1000 O   0  0  0  0  0  0  0  0  0  0  0  0
  184.3640  178.7470  146.0790 N   0  0  0  0  0  1  0  0  0  0  0  0
  186.1830  177.9600  144.6140 N   0  0  0  0  0  2  0  0  0  0  0  0
  189.5060  177.8780  139.6440 C   0  0  0  0  0  2  0  0  0  0  0  0
  189.0550  179.2680  137.5830 C   0  0  0  0  0  1  0  0  0  0  0  0
  188.6280  178.0610  138.3990 C   0  0  1  0  0  3  0  0  0  0  0  0
  188.5850  176.8160  137.5190 C   0  0  0  0  0  2  0  0  0  0  0  0
  185.6250  174.5050  137.0850 C   0  0  0  0  0  0  0  0  0  0  0  0
  184.8160  176.7330  137.2320 C   0  0  0  0  0  3  0  0  0  0  0  0
  185.3470  173.0530  136.9400 C   0  0  0  0  0  1  0  0  0  0  0  0
  186.9420  174.9520  137.2190 C   0  0  0  0  0  3  0  0  0  0  0  0
  186.1180  177.2190  137.3680 C   0  0  0  0  0  3  0  0  0  0  0  0
  187.1880  176.3200  137.3580 C   0  0  0  0  0  0  0  0  0  0  0  0
  184.5980  175.3970  137.0940 N   0  0  0  0  0  0  0  0  0  0  0  0
  1  2  2  0  0  0  0
  2  5  1  0  0  0  0
  3  8  1  0  0  0  0
  4  1  1  0  0  0  0
  4 20  1  0  0  0  0
  5  3  1  0  0  0  0
  6  9  2  0  0  0  0
  6 10  1  0  0  0  0
  7 15  2  0  0  0  0
  9 13  1  0  0  0  0
 10 14  2  0  0  0  0
 10  1  1  0  0  0  0
 11  8  2  0  0  0  0
 12  9  1  0  0  0  0
 12 13  1  0  0  0  0
 13  4  2  0  0  0  0
 14  7  1  0  0  0  0
 15  2  1  0  0  0  0
 15 16  1  0  0  0  0
 16 11  1  0  0  0  0
 17 19  1  0  0  0  0
 18 17  2  0  0  0  0
 20 17  1  0  0  0  0
 21  6  1  0  0  0  0
 23 22  1  6  0  0  0
 23 21  1  0  0  0  0
 24 23  1  0  0  0  0
 25 31  2  0  0  0  0
 25 28  1  0  0  0  0
 26 29  2  0  0  0  0
 27 25  1  0  0  0  0
 28 30  2  0  0  0  0
 30 29  1  0  0  0  0
 30 24  1  0  0  0  0
 31 26  1  0  0  0  0
M  END
>  <MODEL>
6

>  <REMARK>
 VINA RESULT:      -8.6      3.201      5.690
  Name = 
  5 active torsions:
  status: ('A' for Active; 'I' for Inactive)
    1  A    between atoms: C_3  and  C_9
    2  A    between atoms: C_3  and  C_22
    3  A    between atoms: C_9  and  C_23
    4  A    between atoms: C_12  and  N_25
    5  A    between atoms: C_15  and  C_23
                            x       y       z     vdW  Elec       q    Type
                         _______ _______ _______ _____ _____    ______ ____

>  <TORSDO>
F 5

$$$$
=
 OpenBabel10262419243D

 31 35  0  0  1  0  0  0  0  0999 V2000
  188.5820  177.5260  143.6370 C   0  0  0  0  0  0  0  0  0  0  0  0
  189.3170  177.1450  144.8050 C   0  0  0  0  0  0  0  0  0  0  0  0
  189.2610  176.5740  147.3460 C   0  0  0  0  0  2  0  0  0  0  0  0
  187.1690  177.9120  143.7040 C   0  0  0  0  0  0  0  0  0  0  0  0
  188.6680  177.3290  146.1680 C   0  0  0  0  0  2  0  0  0  0  0  0
  188.7170  177.9070  141.0820 C   0  0  0  0  0  0  0  0  0  0  0  0
  191.2850  176.7550  143.4160 C   0  0  0  0  0  3  0  0  0  0  0  0
  190.5130  177.1830  147.7180 N   0  0  0  0  0  0  0  0  0  0  0  0
  187.4220  178.2560  141.2360 C   0  0  0  0  0  0  0  0  0  0  0  0
  189.3150  177.5230  142.3370 C   0  0  0  0  0  0  0  0  0  0  0  0
  191.5640  177.0340  146.9950 C   0  0  0  0  0  3  0  0  0  0  0  0
  186.0750  178.6380  141.2800 C   0  0  0  0  0  2  0  0  0  0  0  0
  186.6850  178.2590  142.4830 C   0  0  0  0  0  0  0  0  0  0  0  0
  190.6140  177.1410  142.3110 N   0  0  0  0  0  0  0  0  0  0  0  0
  190.6820  176.7510  144.6660 C   0  0  0  0  0  0  0  0  0  0  0  0
  191.5360  176.1840  145.7640 C   0  0  0  0  0  2  0  0  0  0  0  0
  185.2780  178.7800  145.2060 C   0  0  0  0  0  0  0  0  0  0  0  0
  184.9330  179.6970  144.4140 O   0  0  0  0  0  0  0  0  0  0  0  0
  184.5800  178.6190  146.4340 N   0  0  0  0  0  1  0  0  0  0  0  0
  186.3600  177.8950  144.8910 N   0  0  0  0  0  2  0  0  0  0  0  0
  189.4230  177.9070  139.7560 C   0  0  0  0  0  2  0  0  0  0  0  0
  189.0570  179.0150  137.5150 C   0  0  0  0  0  1  0  0  0  0  0  0
  188.4780  178.0770  138.5590 C   0  0  1  0  0  3  0  0  0  0  0  0
  188.0910  176.7480  137.9190 C   0  0  0  0  0  2  0  0  0  0  0  0
  184.4740  177.4490  137.0740 C   0  0  0  0  0  0  0  0  0  0  0  0
  185.5630  176.6820  135.1080 C   0  0  0  0  0  3  0  0  0  0  0  0
  183.2400  177.9380  137.7410 C   0  0  0  0  0  1  0  0  0  0  0  0
  185.6590  177.3270  137.8040 C   0  0  0  0  0  3  0  0  0  0  0  0
  186.7670  176.5460  135.8030 C   0  0  0  0  0  3  0  0  0  0  0  0
  186.8120  176.8690  137.1610 C   0  0  0  0  0  0  0  0  0  0  0  0
  184.4500  177.1260  135.7530 N   0  0  0  0  0  0  0  0  0  0  0  0
  1  4  1  0  0  0  0
  1  2  2  0  0  0  0
  2  5  1  0  0  0  0
  3  8  1  0  0  0  0
  4 20  1  0  0  0  0
  5  3  1  0  0  0  0
  6  9  2  0  0  0  0
  6 10  1  0  0  0  0
  7 15  2  0  0  0  0
  9 12  1  0  0  0  0
  9 13  1  0  0  0  0
 10  1  1  0  0  0  0
 11  8  2  0  0  0  0
 12 13  1  0  0  0  0
 13  4  2  0  0  0  0
 14 10  2  0  0  0  0
 14  7  1  0  0  0  0
 15  2  1  0  0  0  0
 15 16  1  0  0  0  0
 16 11  1  0  0  0  0
 17 19  1  0  0  0  0
 18 17  2  0  0  0  0
 20 17  1  0  0  0  0
 21  6  1  0  0  0  0
 23 22  1  6  0  0  0
 23 21  1  0  0  0  0
 24 23  1  0  0  0  0
 25 27  1  0  0  0  0
 25 28  1  0  0  0  0
 26 31  1  0  0  0  0
 26 29  2  0  0  0  0
 29 30  1  0  0  0  0
 30 28  2  0  0  0  0
 30 24  1  0  0  0  0
 31 25  2  0  0  0  0
M  END
>  <MODEL>
7

>  <REMARK>
 VINA RESULT:      -8.6      2.895      5.598
  Name = 
  5 active torsions:
  status: ('A' for Active; 'I' for Inactive)
    1  A    between atoms: C_3  and  C_9
    2  A    between atoms: C_3  and  C_22
    3  A    between atoms: C_9  and  C_23
    4  A    between atoms: C_12  and  N_25
    5  A    between atoms: C_15  and  C_23
                            x       y       z     vdW  Elec       q    Type
                         _______ _______ _______ _____ _____    ______ ____

>  <TORSDO>
F 5

$$$$
=
 OpenBabel10262419243D

 31 35  0  0  1  0  0  0  0  0999 V2000
  187.1940  177.9580  143.3680 C   0  0  0  0  0  0  0  0  0  0  0  0
  188.5900  177.6420  143.3580 C   0  0  0  0  0  0  0  0  0  0  0  0
  190.6510  176.7530  144.6800 C   0  0  0  0  0  2  0  0  0  0  0  0
  186.4050  177.9360  144.6050 C   0  0  0  0  0  0  0  0  0  0  0  0
  189.3080  177.4660  144.6860 C   0  0  0  0  0  2  0  0  0  0  0  0
  185.1780  178.6900  141.9220 C   0  0  0  0  0  0  0  0  0  0  0  0
  188.6290  177.9820  140.9420 C   0  0  0  0  0  3  0  0  0  0  0  0
  191.6480  177.6240  144.1110 N   0  0  0  0  0  0  0  0  0  0  0  0
  184.5310  178.6530  143.1060 C   0  0  0  0  0  0  0  0  0  0  0  0
  186.5660  178.3220  142.0650 C   0  0  0  0  0  0  0  0  0  0  0  0
  191.6810  177.8600  142.8490 C   0  0  0  0  0  3  0  0  0  0  0  0
  183.7620  178.6470  144.2770 C   0  0  0  0  0  2  0  0  0  0  0  0
  185.1140  178.2950  144.3830 C   0  0  0  0  0  0  0  0  0  0  0  0
  187.3200  178.3120  140.9410 N   0  0  0  0  0  0  0  0  0  0  0  0
  189.2930  177.6530  142.1160 C   0  0  0  0  0  0  0  0  0  0  0  0
  190.7110  177.2010  141.9190 C   0  0  0  0  0  2  0  0  0  0  0  0
  186.7220  178.2530  147.1310 C   0  0  0  0  0  0  0  0  0  0  0  0
  186.0790  179.3340  147.1790 O   0  0  0  0  0  0  0  0  0  0  0  0
  187.2820  177.7200  148.3250 N   0  0  0  0  0  1  0  0  0  0  0  0
  186.8990  177.5470  145.8960 N   0  0  0  0  0  2  0  0  0  0  0  0
  184.5120  179.0520  140.6250 C   0  0  0  0  0  2  0  0  0  0  0  0
  182.6560  177.3810  140.2440 C   0  0  0  0  0  1  0  0  0  0  0  0
  184.0400  177.8350  139.8170 C   0  0  1  0  0  3  0  0  0  0  0  0
  184.0780  178.0760  138.3120 C   0  0  0  0  0  2  0  0  0  0  0  0
  187.6350  177.6900  137.0910 C   0  0  0  0  0  0  0  0  0  0  0  0
  186.4780  175.6590  136.6700 C   0  0  0  0  0  3  0  0  0  0  0  0
  188.8910  178.4810  137.0230 C   0  0  0  0  0  1  0  0  0  0  0  0
  186.4850  178.2540  137.6460 C   0  0  0  0  0  3  0  0  0  0  0  0
  185.3070  176.1880  137.2180 C   0  0  0  0  0  3  0  0  0  0  0  0
  185.3120  177.4960  137.7070 C   0  0  0  0  0  0  0  0  0  0  0  0
  187.6080  176.4140  136.6180 N   0  0  0  0  0  0  0  0  0  0  0  0
  1  4  1  0  0  0  0
  2  1  1  0  0  0  0
  2  5  1  0  0  0  0
  3  5  1  0  0  0  0
  4 20  1  0  0  0  0
  6 10  1  0  0  0  0
  6  9  2  0  0  0  0
  7 15  1  0  0  0  0
  8  3  1  0  0  0  0
  9 12  1  0  0  0  0
  9 13  1  0  0  0  0
 10  1  2  0  0  0  0
 11  8  2  0  0  0  0
 12 13  1  0  0  0  0
 13  4  2  0  0  0  0
 14  7  2  0  0  0  0
 14 10  1  0  0  0  0
 15  2  2  0  0  0  0
 16 15  1  0  0  0  0
 16 11  1  0  0  0  0
 17 18  2  0  0  0  0
 17 19  1  0  0  0  0
 20 17  1  0  0  0  0
 21  6  1  0  0  0  0
 23 22  1  1  0  0  0
 23 21  1  0  0  0  0
 24 23  1  0  0  0  0
 25 28  1  0  0  0  0
 26 29  2  0  0  0  0
 27 25  1  0  0  0  0
 28 30  2  0  0  0  0
 29 30  1  0  0  0  0
 30 24  1  0  0  0  0
 31 26  1  0  0  0  0
 31 25  2  0  0  0  0
M  END
>  <MODEL>
8

>  <REMARK>
 VINA RESULT:      -8.6      2.948      5.198
  Name = 
  5 active torsions:
  status: ('A' for Active; 'I' for Inactive)
    1  A    between atoms: C_3  and  C_9
    2  A    between atoms: C_3  and  C_22
    3  A    between atoms: C_9  and  C_23
    4  A    between atoms: C_12  and  N_25
    5  A    between atoms: C_15  and  C_23
                            x       y       z     vdW  Elec       q    Type
                         _______ _______ _______ _____ _____    ______ ____

>  <TORSDO>
F 5

$$$$
=
 OpenBabel10262419243D

 31 35  0  0  1  0  0  0  0  0999 V2000
  187.1710  177.9630  143.0880 C   0  0  0  0  0  0  0  0  0  0  0  0
  188.5550  177.6460  143.2660 C   0  0  0  0  0  0  0  0  0  0  0  0
  190.4250  176.7850  144.8630 C   0  0  0  0  0  2  0  0  0  0  0  0
  186.2280  177.9680  144.2120 C   0  0  0  0  0  0  0  0  0  0  0  0
  189.0950  177.4980  144.6800 C   0  0  0  0  0  2  0  0  0  0  0  0
  185.3620  178.6650  141.3770 C   0  0  0  0  0  0  0  0  0  0  0  0
  188.9090  177.9340  140.8690 C   0  0  0  0  0  3  0  0  0  0  0  0
  191.4900  177.6430  144.4100 N   0  0  0  0  0  0  0  0  0  0  0  0
  184.5670  178.6530  142.4680 C   0  0  0  0  0  0  0  0  0  0  0  0
  186.7190  178.2990  141.7070 C   0  0  0  0  0  0  0  0  0  0  0  0
  191.6870  177.8520  143.1590 C   0  0  0  0  0  3  0  0  0  0  0  0
  183.6530  178.6730  143.5290 C   0  0  0  0  0  2  0  0  0  0  0  0
  184.9780  178.3220  143.8160 C   0  0  0  0  0  0  0  0  0  0  0  0
  187.6120  178.2650  140.6910 N   0  0  0  0  0  0  0  0  0  0  0  0
  189.4140  177.6300  142.1250 C   0  0  0  0  0  0  0  0  0  0  0  0
  190.8440  177.1740  142.1240 C   0  0  0  0  0  2  0  0  0  0  0  0
  186.2680  178.3680  146.7460 C   0  0  0  0  0  0  0  0  0  0  0  0
  185.6800  179.4800  146.6820 O   0  0  0  0  0  0  0  0  0  0  0  0
  186.6580  177.8560  148.0140 N   0  0  0  0  0  1  0  0  0  0  0  0
  186.5490  177.6070  145.5650 N   0  0  0  0  0  2  0  0  0  0  0  0
  184.8720  178.9990  139.9970 C   0  0  0  0  0  2  0  0  0  0  0  0
  182.8400  180.0430  138.9190 C   0  0  0  0  0  1  0  0  0  0  0  0
  183.3430  178.9680  139.8660 C   0  0  1  0  0  3  0  0  0  0  0  0
  182.8150  177.6020  139.4440 C   0  0  0  0  0  2  0  0  0  0  0  0
  179.6530  175.8200  140.5020 C   0  0  0  0  0  0  0  0  0  0  0  0
  179.7780  177.8780  141.6800 C   0  0  0  0  0  3  0  0  0  0  0  0
  178.9340  174.5490  140.2260 C   0  0  0  0  0  1  0  0  0  0  0  0
  180.8550  176.0970  139.8470 C   0  0  0  0  0  3  0  0  0  0  0  0
  180.9820  178.1920  141.0460 C   0  0  0  0  0  3  0  0  0  0  0  0
  181.5220  177.2950  140.1210 C   0  0  0  0  0  0  0  0  0  0  0  0
  179.1440  176.7080  141.3980 N   0  0  0  0  0  0  0  0  0  0  0  0
  1  2  1  0  0  0  0
  1  4  1  0  0  0  0
  2  5  1  0  0  0  0
  4 20  1  0  0  0  0
  5  3  1  0  0  0  0
  6 10  1  0  0  0  0
  6  9  2  0  0  0  0
  7 15  1  0  0  0  0
  8  3  1  0  0  0  0
  9 12  1  0  0  0  0
  9 13  1  0  0  0  0
 10  1  2  0  0  0  0
 11  8  2  0  0  0  0
 12 13  1  0  0  0  0
 13  4  2  0  0  0  0
 14  7  2  0  0  0  0
 14 10  1  0  0  0  0
 15  2  2  0  0  0  0
 16 15  1  0  0  0  0
 16 11  1  0  0  0  0
 17 19  1  0  0  0  0
 18 17  2  0  0  0  0
 20 17  1  0  0  0  0
 21  6  1  0  0  0  0
 23 22  1  6  0  0  0
 23 21  1  0  0  0  0
 24 23  1  0  0  0  0
 24 30  1  0  0  0  0
 25 31  1  0  0  0  0
 27 25  1  0  0  0  0
 28 30  1  0  0  0  0
 28 25  2  0  0  0  0
 29 26  1  0  0  0  0
 30 29  2  0  0  0  0
 31 26  2  0  0  0  0
M  END
>  <MODEL>
9

>  <REMARK>
 VINA RESULT:      -8.5      2.205      4.234
  Name = 
  5 active torsions:
  status: ('A' for Active; 'I' for Inactive)
    1  A    between atoms: C_3  and  C_9
    2  A    between atoms: C_3  and  C_22
    3  A    between atoms: C_9  and  C_23
    4  A    between atoms: C_12  and  N_25
    5  A    between atoms: C_15  and  C_23
                            x       y       z     vdW  Elec       q    Type
                         _______ _______ _______ _____ _____    ______ ____

>  <TORSDO>
F 5

$$$$
