=
 OpenBabel10262419533D

 25 28  0  0  1  0  0  0  0  0999 V2000
  186.9580  177.7250  145.7830 C   0  0  0  0  0  0  0  0  0  0  0  0
  188.2700  177.3010  145.5420 C   0  0  0  0  0  0  0  0  0  0  0  0
  187.4810  178.3980  148.0440 C   0  0  0  0  0  3  0  0  0  0  0  0
  185.7680  177.7040  144.8800 C   0  0  1  0  0  3  0  0  0  0  0  0
  183.8160  179.5210  143.8740 C   0  0  0  0  0  3  0  0  0  0  0  0
  188.7990  177.9640  147.8420 C   0  0  0  0  0  3  0  0  0  0  0  0
  184.7380  178.3380  145.7130 N   0  0  0  0  0  0  0  0  0  0  0  0
  183.6720  179.0800  145.1230 C   0  0  0  0  0  3  0  0  0  0  0  0
  185.0880  179.2780  143.1640 C   0  0  0  0  0  3  0  0  0  0  0  0
  186.5810  178.2490  146.9960 C   0  0  0  0  0  0  0  0  0  0  0  0
  185.2210  178.6420  146.9930 N   0  0  0  0  0  2  0  0  0  0  0  0
  185.9960  178.4880  143.6610 N   0  0  0  0  0  0  0  0  0  0  0  0
  189.2050  177.4090  146.6110 C   0  0  0  0  0  0  0  0  0  0  0  0
  190.5330  176.8930  146.5190 N   0  0  0  0  0  0  0  0  0  0  0  0
  191.7630  176.3640  147.1780 C   0  0  0  0  0  2  0  0  0  0  0  0
  191.7530  176.4140  145.8020 C   0  0  0  0  0  2  0  0  0  0  0  0
  188.6050  176.8010  144.2400 N   0  0  0  0  0  2  0  0  0  0  0  0
  189.2990  177.5640  143.2160 C   0  0  0  0  0  2  0  0  0  0  0  0
  189.9280  176.6210  142.2070 C   0  0  0  0  0  2  0  0  0  0  0  0
  190.3380  177.3640  141.0270 N   0  0  0  0  0  2  0  0  0  0  0  0
  189.3630  177.0970  139.9800 C   0  0  2  0  0  3  0  0  0  0  0  0
  190.0100  176.6160  138.8400 O   0  0  0  0  0  1  0  0  0  0  0  0
  188.6180  178.3450  139.6500 C   0  0  0  0  0  0  0  0  0  0  0  0
  187.4570  178.6580  140.3420 O   0  0  0  0  0  1  0  0  0  0  0  0
  189.0360  179.1200  138.7490 O   0  0  0  0  0  0  0  0  0  0  0  0
  1 10  1  0  0  0  0
  2  1  2  0  0  0  0
  2 13  1  0  0  0  0
  4 12  1  6  0  0  0
  4  7  1  0  0  0  0
  4  1  1  0  0  0  0
  5  8  2  0  0  0  0
  6  3  1  0  0  0  0
  7 11  1  0  0  0  0
  8  7  1  0  0  0  0
  9 12  2  0  0  0  0
  9  5  1  0  0  0  0
 10  3  2  0  0  0  0
 11 10  1  0  0  0  0
 13  6  2  0  0  0  0
 14 13  1  0  0  0  0
 14 15  1  0  0  0  0
 16 14  1  0  0  0  0
 16 15  1  0  0  0  0
 17  2  1  0  0  0  0
 18 17  1  0  0  0  0
 19 18  1  0  0  0  0
 20 19  1  0  0  0  0
 21 22  1  6  0  0  0
 21 20  1  0  0  0  0
 23 21  1  0  0  0  0
 23 24  1  0  0  0  0
 25 23  2  0  0  0  0
M  END
>  <MODEL>
1

>  <REMARK>
 VINA RESULT:      -8.3      0.000      0.000
  Name = 
  7 active torsions:
  status: ('A' for Active; 'I' for Inactive)
    1  A    between atoms: C_2  and  C_21
    2  A    between atoms: C_3  and  N_16
    3  A    between atoms: C_6  and  N_15
    4  A    between atoms: C_6  and  C_23
    5  A    between atoms: N_13  and  C_24
    6  A    between atoms: N_15  and  C_21
    7  A    between atoms: N_16  and  C_23
                            x       y       z     vdW  Elec       q    Type
                         _______ _______ _______ _____ _____    ______ ____

>  <TORSDO>
F 7

$$$$
=
 OpenBabel10262419533D

 25 28  0  0  1  0  0  0  0  0999 V2000
  188.2210  177.6920  144.4990 C   0  0  0  0  0  0  0  0  0  0  0  0
  186.9720  177.8450  143.8870 C   0  0  0  0  0  0  0  0  0  0  0  0
  187.2900  177.9910  146.7080 C   0  0  0  0  0  3  0  0  0  0  0  0
  189.5600  177.4430  143.8840 C   0  0  1  0  0  3  0  0  0  0  0  0
  191.6970  175.5690  144.0990 C   0  0  0  0  0  3  0  0  0  0  0  0
  186.0280  178.1700  146.1250 C   0  0  0  0  0  3  0  0  0  0  0  0
  190.4230  177.3240  145.0660 N   0  0  0  0  0  0  0  0  0  0  0  0
  191.5940  176.5080  145.0390 C   0  0  0  0  0  3  0  0  0  0  0  0
  190.5780  175.3650  143.1570 C   0  0  0  0  0  3  0  0  0  0  0  0
  188.3700  177.7690  145.8630 C   0  0  0  0  0  0  0  0  0  0  0  0
  189.7120  177.5440  146.2530 N   0  0  0  0  0  2  0  0  0  0  0  0
  189.5800  176.2000  143.1060 N   0  0  0  0  0  0  0  0  0  0  0  0
  185.8530  178.1100  144.7260 C   0  0  0  0  0  0  0  0  0  0  0  0
  184.5590  178.4080  144.2040 N   0  0  0  0  0  0  0  0  0  0  0  0
  183.1430  178.8270  144.4190 C   0  0  0  0  0  2  0  0  0  0  0  0
  183.5490  178.6090  143.1220 C   0  0  0  0  0  2  0  0  0  0  0  0
  186.8820  177.7130  142.4610 N   0  0  0  0  0  2  0  0  0  0  0  0
  187.0670  178.8040  141.5180 C   0  0  0  0  0  2  0  0  0  0  0  0
  188.2860  178.5370  140.6530 C   0  0  0  0  0  2  0  0  0  0  0  0
  187.8970  178.4920  139.2530 N   0  0  0  0  0  2  0  0  0  0  0  0
  189.1080  178.6300  138.4570 C   0  0  2  0  0  3  0  0  0  0  0  0
  188.9440  179.6490  137.5180 O   0  0  0  0  0  1  0  0  0  0  0  0
  189.4080  177.3450  137.7630 C   0  0  0  0  0  0  0  0  0  0  0  0
  190.0380  176.3200  138.4540 O   0  0  0  0  0  1  0  0  0  0  0  0
  189.0920  177.1830  136.5550 O   0  0  0  0  0  0  0  0  0  0  0  0
  1 10  1  0  0  0  0
  2  1  2  0  0  0  0
  2 13  1  0  0  0  0
  4 12  1  1  0  0  0
  4  1  1  0  0  0  0
  4  7  1  0  0  0  0
  5  8  2  0  0  0  0
  6  3  1  0  0  0  0
  7 11  1  0  0  0  0
  8  7  1  0  0  0  0
  9  5  1  0  0  0  0
 10 11  1  0  0  0  0
 10  3  2  0  0  0  0
 12  9  2  0  0  0  0
 13  6  2  0  0  0  0
 14 15  1  0  0  0  0
 14 13  1  0  0  0  0
 16 14  1  0  0  0  0
 16 15  1  0  0  0  0
 17  2  1  0  0  0  0
 18 17  1  0  0  0  0
 19 18  1  0  0  0  0
 20 19  1  0  0  0  0
 21 22  1  6  0  0  0
 21 20  1  0  0  0  0
 23 24  1  0  0  0  0
 23 21  1  0  0  0  0
 25 23  2  0  0  0  0
M  END
>  <MODEL>
2

>  <REMARK>
 VINA RESULT:      -7.6      1.597      4.961
  Name = 
  7 active torsions:
  status: ('A' for Active; 'I' for Inactive)
    1  A    between atoms: C_2  and  C_21
    2  A    between atoms: C_3  and  N_16
    3  A    between atoms: C_6  and  N_15
    4  A    between atoms: C_6  and  C_23
    5  A    between atoms: N_13  and  C_24
    6  A    between atoms: N_15  and  C_21
    7  A    between atoms: N_16  and  C_23
                            x       y       z     vdW  Elec       q    Type
                         _______ _______ _______ _____ _____    ______ ____

>  <TORSDO>
F 7

$$$$
=
 OpenBabel10262419533D

 25 28  0  0  1  0  0  0  0  0999 V2000
  188.8730  177.6640  145.2010 C   0  0  0  0  0  0  0  0  0  0  0  0
  188.1940  177.8850  143.9980 C   0  0  0  0  0  0  0  0  0  0  0  0
  186.8130  177.5190  146.4560 C   0  0  0  0  0  3  0  0  0  0  0  0
  190.3410  177.5790  145.4660 C   0  0  1  0  0  3  0  0  0  0  0  0
  192.1990  175.7720  146.6530 C   0  0  0  0  0  3  0  0  0  0  0  0
  186.1030  177.7590  145.2710 C   0  0  0  0  0  3  0  0  0  0  0  0
  190.3770  177.2730  146.9020 N   0  0  0  0  0  0  0  0  0  0  0  0
  191.4500  176.5180  147.4640 C   0  0  0  0  0  3  0  0  0  0  0  0
  191.8640  175.7070  145.2160 C   0  0  0  0  0  3  0  0  0  0  0  0
  188.2010  177.4940  146.3870 C   0  0  0  0  0  0  0  0  0  0  0  0
  189.0910  177.2470  147.4600 N   0  0  0  0  0  2  0  0  0  0  0  0
  190.9720  176.5020  144.6960 N   0  0  0  0  0  0  0  0  0  0  0  0
  186.7730  177.9520  144.0440 C   0  0  0  0  0  0  0  0  0  0  0  0
  185.9860  178.2970  142.9040 N   0  0  0  0  0  0  0  0  0  0  0  0
  185.7990  179.0890  141.6540 C   0  0  0  0  0  2  0  0  0  0  0  0
  184.8150  178.1840  141.9830 C   0  0  0  0  0  2  0  0  0  0  0  0
  188.9570  178.0150  142.7900 N   0  0  0  0  0  2  0  0  0  0  0  0
  189.1250  176.9620  141.8020 C   0  0  0  0  0  2  0  0  0  0  0  0
  188.7700  177.4870  140.4220 C   0  0  0  0  0  2  0  0  0  0  0  0
  189.9680  177.9730  139.7570 N   0  0  0  0  0  2  0  0  0  0  0  0
  191.0160  176.9840  139.9660 C   0  0  2  0  0  3  0  0  0  0  0  0
  192.1770  177.6130  140.4200 O   0  0  0  0  0  1  0  0  0  0  0  0
  191.2960  176.2640  138.6920 C   0  0  0  0  0  0  0  0  0  0  0  0
  190.5990  175.1030  138.3890 O   0  0  0  0  0  1  0  0  0  0  0  0
  192.1590  176.7030  137.8860 O   0  0  0  0  0  0  0  0  0  0  0  0
  1  4  1  0  0  0  0
  1 10  1  0  0  0  0
  2 13  1  0  0  0  0
  2  1  2  0  0  0  0
  4 12  1  6  0  0  0
  4  7  1  0  0  0  0
  5  8  2  0  0  0  0
  6  3  1  0  0  0  0
  7 11  1  0  0  0  0
  7  8  1  0  0  0  0
  9  5  1  0  0  0  0
 10  3  2  0  0  0  0
 10 11  1  0  0  0  0
 12  9  2  0  0  0  0
 13  6  2  0  0  0  0
 14 13  1  0  0  0  0
 15 16  1  0  0  0  0
 15 14  1  0  0  0  0
 16 14  1  0  0  0  0
 17  2  1  0  0  0  0
 18 17  1  0  0  0  0
 19 18  1  0  0  0  0
 20 21  1  0  0  0  0
 20 19  1  0  0  0  0
 21 22  1  6  0  0  0
 23 21  1  0  0  0  0
 24 23  1  0  0  0  0
 25 23  2  0  0  0  0
M  END
>  <MODEL>
3

>  <REMARK>
 VINA RESULT:      -7.5      2.068      5.001
  Name = 
  7 active torsions:
  status: ('A' for Active; 'I' for Inactive)
    1  A    between atoms: C_2  and  C_21
    2  A    between atoms: C_3  and  N_16
    3  A    between atoms: C_6  and  N_15
    4  A    between atoms: C_6  and  C_23
    5  A    between atoms: N_13  and  C_24
    6  A    between atoms: N_15  and  C_21
    7  A    between atoms: N_16  and  C_23
                            x       y       z     vdW  Elec       q    Type
                         _______ _______ _______ _____ _____    ______ ____

>  <TORSDO>
F 7

$$$$
=
 OpenBabel10262419533D

 25 28  0  0  1  0  0  0  0  0999 V2000
  188.5970  177.7470  144.8900 C   0  0  0  0  0  0  0  0  0  0  0  0
  187.9060  177.9420  143.6890 C   0  0  0  0  0  0  0  0  0  0  0  0
  186.5480  177.5310  146.1520 C   0  0  0  0  0  3  0  0  0  0  0  0
  190.0670  177.7130  145.1500 C   0  0  1  0  0  3  0  0  0  0  0  0
  191.9910  175.9730  146.3320 C   0  0  0  0  0  3  0  0  0  0  0  0
  185.8260  177.7440  144.9700 C   0  0  0  0  0  3  0  0  0  0  0  0
  190.1190  177.4100  146.5860 N   0  0  0  0  0  0  0  0  0  0  0  0
  191.2190  176.6930  147.1450 C   0  0  0  0  0  3  0  0  0  0  0  0
  191.6540  175.8950  144.8960 C   0  0  0  0  0  3  0  0  0  0  0  0
  187.9350  177.5540  146.0790 C   0  0  0  0  0  0  0  0  0  0  0  0
  188.8370  177.3390  147.1480 N   0  0  0  0  0  2  0  0  0  0  0  0
  190.7330  176.6580  144.3790 N   0  0  0  0  0  0  0  0  0  0  0  0
  186.4840  177.9600  143.7400 C   0  0  0  0  0  0  0  0  0  0  0  0
  185.6810  178.2750  142.6030 N   0  0  0  0  0  0  0  0  0  0  0  0
  185.4720  179.0450  141.3420 C   0  0  0  0  0  2  0  0  0  0  0  0
  184.5040  178.1320  141.6950 C   0  0  0  0  0  2  0  0  0  0  0  0
  188.6600  178.0980  142.4780 N   0  0  0  0  0  2  0  0  0  0  0  0
  188.8220  177.0650  141.4680 C   0  0  0  0  0  2  0  0  0  0  0  0
  189.5370  177.6350  140.2560 C   0  0  0  0  0  2  0  0  0  0  0  0
  188.7080  178.6500  139.6270 N   0  0  0  0  0  2  0  0  0  0  0  0
  188.8290  178.4820  138.1860 C   0  0  2  0  0  3  0  0  0  0  0  0
  188.9380  179.7310  137.5720 O   0  0  0  0  0  1  0  0  0  0  0  0
  187.6380  177.7600  137.6560 C   0  0  0  0  0  0  0  0  0  0  0  0
  187.7910  176.8420  136.6270 O   0  0  0  0  0  0  0  0  0  0  0  0
  186.4940  177.9740  138.1380 O   0  0  0  0  0  1  0  0  0  0  0  0
  1  4  1  0  0  0  0
  1 10  1  0  0  0  0
  2 13  1  0  0  0  0
  2  1  2  0  0  0  0
  4 12  1  6  0  0  0
  4  7  1  0  0  0  0
  5  8  2  0  0  0  0
  6  3  1  0  0  0  0
  7  8  1  0  0  0  0
  7 11  1  0  0  0  0
  9  5  1  0  0  0  0
 10  3  2  0  0  0  0
 10 11  1  0  0  0  0
 12  9  2  0  0  0  0
 13  6  2  0  0  0  0
 14 13  1  0  0  0  0
 15 16  1  0  0  0  0
 15 14  1  0  0  0  0
 16 14  1  0  0  0  0
 17  2  1  0  0  0  0
 18 17  1  0  0  0  0
 19 18  1  0  0  0  0
 20 19  1  0  0  0  0
 21 22  1  6  0  0  0
 21 20  1  0  0  0  0
 23 25  1  0  0  0  0
 23 21  1  0  0  0  0
 24 23  2  0  0  0  0
M  END
>  <MODEL>
4

>  <REMARK>
 VINA RESULT:      -7.5      1.921      4.944
  Name = 
  7 active torsions:
  status: ('A' for Active; 'I' for Inactive)
    1  A    between atoms: C_2  and  C_21
    2  A    between atoms: C_3  and  N_16
    3  A    between atoms: C_6  and  N_15
    4  A    between atoms: C_6  and  C_23
    5  A    between atoms: N_13  and  C_24
    6  A    between atoms: N_15  and  C_21
    7  A    between atoms: N_16  and  C_23
                            x       y       z     vdW  Elec       q    Type
                         _______ _______ _______ _____ _____    ______ ____

>  <TORSDO>
F 7

$$$$
=
 OpenBabel10262419533D

 25 28  0  0  1  0  0  0  0  0999 V2000
  185.7290  178.0400  144.2600 C   0  0  0  0  0  0  0  0  0  0  0  0
  186.9230  177.8450  144.9630 C   0  0  0  0  0  0  0  0  0  0  0  0
  184.5930  178.8850  146.2180 C   0  0  0  0  0  3  0  0  0  0  0  0
  185.4130  177.7740  142.8240 C   0  0  1  0  0  3  0  0  0  0  0  0
  184.3870  179.1780  140.5640 C   0  0  0  0  0  3  0  0  0  0  0  0
  185.7680  178.6810  146.9560 C   0  0  0  0  0  3  0  0  0  0  0  0
  184.0280  178.2500  142.7200 N   0  0  0  0  0  0  0  0  0  0  0  0
  183.5210  178.7680  141.4910 C   0  0  0  0  0  3  0  0  0  0  0  0
  185.8330  179.1340  140.8590 C   0  0  0  0  0  3  0  0  0  0  0  0
  184.6040  178.5380  144.8730 C   0  0  0  0  0  0  0  0  0  0  0  0
  183.5350  178.6850  143.9570 N   0  0  0  0  0  2  0  0  0  0  0  0
  186.2860  178.5360  141.9240 N   0  0  0  0  0  0  0  0  0  0  0  0
  186.9300  178.1580  146.3510 C   0  0  0  0  0  0  0  0  0  0  0  0
  188.0500  177.8800  147.1920 N   0  0  0  0  0  0  0  0  0  0  0  0
  188.9260  178.2490  148.3430 C   0  0  0  0  0  2  0  0  0  0  0  0
  189.2020  177.0690  147.6880 C   0  0  0  0  0  2  0  0  0  0  0  0
  188.0700  177.3590  144.2510 N   0  0  0  0  0  2  0  0  0  0  0  0
  188.1460  176.0670  143.5900 C   0  0  0  0  0  2  0  0  0  0  0  0
  189.4890  175.9190  142.8980 C   0  0  0  0  0  2  0  0  0  0  0  0
  190.0410  177.2320  142.6060 N   0  0  0  0  0  2  0  0  0  0  0  0
  191.3950  177.2660  143.1380 C   0  0  2  0  0  3  0  0  0  0  0  0
  191.7530  176.0000  143.6040 O   0  0  0  0  0  1  0  0  0  0  0  0
  191.4790  178.2570  144.2480 C   0  0  0  0  0  0  0  0  0  0  0  0
  191.3010  179.6070  143.9810 O   0  0  0  0  0  0  0  0  0  0  0  0
  191.7070  177.8770  145.4270 O   0  0  0  0  0  1  0  0  0  0  0  0
  1 10  2  0  0  0  0
  1  2  1  0  0  0  0
  2 13  2  0  0  0  0
  3  6  2  0  0  0  0
  4 12  1  6  0  0  0
  4  1  1  0  0  0  0
  5  9  1  0  0  0  0
  5  8  2  0  0  0  0
  7  4  1  0  0  0  0
  7 11  1  0  0  0  0
  8  7  1  0  0  0  0
  9 12  2  0  0  0  0
 10  3  1  0  0  0  0
 11 10  1  0  0  0  0
 13  6  1  0  0  0  0
 13 14  1  0  0  0  0
 14 16  1  0  0  0  0
 14 15  1  0  0  0  0
 16 15  1  0  0  0  0
 17  2  1  0  0  0  0
 18 17  1  0  0  0  0
 19 18  1  0  0  0  0
 20 19  1  0  0  0  0
 20 21  1  0  0  0  0
 21 22  1  1  0  0  0
 21 23  1  0  0  0  0
 23 25  1  0  0  0  0
 24 23  2  0  0  0  0
M  END
>  <MODEL>
5

>  <REMARK>
 VINA RESULT:      -7.4      2.577      3.427
  Name = 
  7 active torsions:
  status: ('A' for Active; 'I' for Inactive)
    1  A    between atoms: C_2  and  C_21
    2  A    between atoms: C_3  and  N_16
    3  A    between atoms: C_6  and  N_15
    4  A    between atoms: C_6  and  C_23
    5  A    between atoms: N_13  and  C_24
    6  A    between atoms: N_15  and  C_21
    7  A    between atoms: N_16  and  C_23
                            x       y       z     vdW  Elec       q    Type
                         _______ _______ _______ _____ _____    ______ ____

>  <TORSDO>
F 7

$$$$
=
 OpenBabel10262419533D

 25 28  0  0  1  0  0  0  0  0999 V2000
  188.2090  177.7200  144.6450 C   0  0  0  0  0  0  0  0  0  0  0  0
  186.9320  177.8960  144.1010 C   0  0  0  0  0  0  0  0  0  0  0  0
  187.3940  177.9720  146.9050 C   0  0  0  0  0  3  0  0  0  0  0  0
  189.5130  177.4770  143.9580 C   0  0  1  0  0  3  0  0  0  0  0  0
  191.6430  175.5830  144.0190 C   0  0  0  0  0  3  0  0  0  0  0  0
  186.1050  178.1730  146.3920 C   0  0  0  0  0  3  0  0  0  0  0  0
  190.4350  177.3230  145.0910 N   0  0  0  0  0  0  0  0  0  0  0  0
  191.5960  176.5010  144.9850 C   0  0  0  0  0  3  0  0  0  0  0  0
  190.4770  175.4100  143.1300 C   0  0  0  0  0  3  0  0  0  0  0  0
  188.4280  177.7630  146.0010 C   0  0  0  0  0  0  0  0  0  0  0  0
  189.7860  177.5200  146.3170 N   0  0  0  0  0  2  0  0  0  0  0  0
  189.4840  176.2530  143.1500 N   0  0  0  0  0  0  0  0  0  0  0  0
  185.8600  178.1480  145.0030 C   0  0  0  0  0  0  0  0  0  0  0  0
  184.5430  178.4680  144.5540 N   0  0  0  0  0  0  0  0  0  0  0  0
  183.2560  179.2010  144.7380 C   0  0  0  0  0  2  0  0  0  0  0  0
  183.3890  178.4300  143.6060 C   0  0  0  0  0  2  0  0  0  0  0  0
  186.7690  177.7990  142.6790 N   0  0  0  0  0  2  0  0  0  0  0  0
  186.8780  178.9180  141.7570 C   0  0  0  0  0  2  0  0  0  0  0  0
  185.5470  179.1470  141.0640 C   0  0  0  0  0  2  0  0  0  0  0  0
  185.6360  178.7260  139.6750 N   0  0  0  0  0  2  0  0  0  0  0  0
  184.3810  179.0800  139.0290 C   0  0  2  0  0  3  0  0  0  0  0  0
  184.2180  180.4670  139.0380 O   0  0  0  0  0  1  0  0  0  0  0  0
  183.2430  178.4330  139.7420 C   0  0  0  0  0  0  0  0  0  0  0  0
  183.2360  177.0570  139.9220 O   0  0  0  0  0  0  0  0  0  0  0  0
  182.2890  179.1260  140.1850 O   0  0  0  0  0  1  0  0  0  0  0  0
  1 10  1  0  0  0  0
  2  1  2  0  0  0  0
  2 13  1  0  0  0  0
  4 12  1  1  0  0  0
  4  1  1  0  0  0  0
  4  7  1  0  0  0  0
  5  8  2  0  0  0  0
  6  3  1  0  0  0  0
  7 11  1  0  0  0  0
  8  7  1  0  0  0  0
  9 12  2  0  0  0  0
  9  5  1  0  0  0  0
 10 11  1  0  0  0  0
 10  3  2  0  0  0  0
 13  6  2  0  0  0  0
 14 15  1  0  0  0  0
 14 13  1  0  0  0  0
 16 14  1  0  0  0  0
 16 15  1  0  0  0  0
 17  2  1  0  0  0  0
 18 17  1  0  0  0  0
 19 18  1  0  0  0  0
 20 19  1  0  0  0  0
 21 22  1  1  0  0  0
 21 20  1  0  0  0  0
 21 23  1  0  0  0  0
 23 24  2  0  0  0  0
 23 25  1  0  0  0  0
M  END
>  <MODEL>
6

>  <REMARK>
 VINA RESULT:      -7.3      2.449      5.542
  Name = 
  7 active torsions:
  status: ('A' for Active; 'I' for Inactive)
    1  A    between atoms: C_2  and  C_21
    2  A    between atoms: C_3  and  N_16
    3  A    between atoms: C_6  and  N_15
    4  A    between atoms: C_6  and  C_23
    5  A    between atoms: N_13  and  C_24
    6  A    between atoms: N_15  and  C_21
    7  A    between atoms: N_16  and  C_23
                            x       y       z     vdW  Elec       q    Type
                         _______ _______ _______ _____ _____    ______ ____

>  <TORSDO>
F 7

$$$$
=
 OpenBabel10262419533D

 25 28  0  0  1  0  0  0  0  0999 V2000
  184.7140  178.2350  142.8980 C   0  0  0  0  0  0  0  0  0  0  0  0
  185.9710  178.0100  143.4700 C   0  0  0  0  0  0  0  0  0  0  0  0
  183.8030  179.0630  144.9770 C   0  0  0  0  0  3  0  0  0  0  0  0
  184.2460  177.9980  141.4990 C   0  0  1  0  0  3  0  0  0  0  0  0
  183.0120  179.4540  139.3810 C   0  0  0  0  0  3  0  0  0  0  0  0
  185.0450  178.8300  145.5850 C   0  0  0  0  0  3  0  0  0  0  0  0
  182.8650  178.4960  141.5490 N   0  0  0  0  0  0  0  0  0  0  0  0
  182.2410  179.0420  140.3870 C   0  0  0  0  0  3  0  0  0  0  0  0
  184.4810  179.3840  139.5220 C   0  0  0  0  0  3  0  0  0  0  0  0
  183.6680  178.7380  143.6330 C   0  0  0  0  0  0  0  0  0  0  0  0
  182.5110  178.9170  142.8370 N   0  0  0  0  0  2  0  0  0  0  0  0
  185.0320  178.7620  140.5250 N   0  0  0  0  0  0  0  0  0  0  0  0
  186.1280  178.2990  144.8550 C   0  0  0  0  0  0  0  0  0  0  0  0
  187.3250  177.9910  145.5690 N   0  0  0  0  0  0  0  0  0  0  0  0
  188.0030  177.4660  146.7900 C   0  0  0  0  0  2  0  0  0  0  0  0
  188.8040  177.8640  145.7430 C   0  0  0  0  0  2  0  0  0  0  0  0
  187.0300  177.5190  142.6340 N   0  0  0  0  0  2  0  0  0  0  0  0
  188.1430  178.3220  142.1570 C   0  0  0  0  0  2  0  0  0  0  0  0
  188.5710  177.8460  140.7800 C   0  0  0  0  0  2  0  0  0  0  0  0
  189.6230  176.8510  140.9070 N   0  0  0  0  0  2  0  0  0  0  0  0
  190.5880  177.3550  141.8720 C   0  0  2  0  0  3  0  0  0  0  0  0
  191.7900  177.6550  141.2280 O   0  0  0  0  0  1  0  0  0  0  0  0
  190.8240  176.3360  142.9340 C   0  0  0  0  0  0  0  0  0  0  0  0
  191.6190  176.6520  144.0270 O   0  0  0  0  0  1  0  0  0  0  0  0
  190.3040  175.1920  142.8490 O   0  0  0  0  0  0  0  0  0  0  0  0
  1  2  2  0  0  0  0
  1 10  1  0  0  0  0
  2 13  1  0  0  0  0
  3  6  1  0  0  0  0
  4 12  1  6  0  0  0
  4  7  1  0  0  0  0
  4  1  1  0  0  0  0
  5  9  1  0  0  0  0
  5  8  2  0  0  0  0
  7 11  1  0  0  0  0
  8  7  1  0  0  0  0
  9 12  2  0  0  0  0
 10  3  2  0  0  0  0
 11 10  1  0  0  0  0
 13 14  1  0  0  0  0
 13  6  2  0  0  0  0
 14 16  1  0  0  0  0
 14 15  1  0  0  0  0
 16 15  1  0  0  0  0
 17  2  1  0  0  0  0
 18 17  1  0  0  0  0
 19 20  1  0  0  0  0
 19 18  1  0  0  0  0
 20 21  1  0  0  0  0
 21 22  1  6  0  0  0
 21 23  1  0  0  0  0
 23 24  1  0  0  0  0
 25 23  2  0  0  0  0
M  END
>  <MODEL>
7

>  <REMARK>
 VINA RESULT:      -7.3      2.628      3.933
  Name = 
  7 active torsions:
  status: ('A' for Active; 'I' for Inactive)
    1  A    between atoms: C_2  and  C_21
    2  A    between atoms: C_3  and  N_16
    3  A    between atoms: C_6  and  N_15
    4  A    between atoms: C_6  and  C_23
    5  A    between atoms: N_13  and  C_24
    6  A    between atoms: N_15  and  C_21
    7  A    between atoms: N_16  and  C_23
                            x       y       z     vdW  Elec       q    Type
                         _______ _______ _______ _____ _____    ______ ____

>  <TORSDO>
F 7

$$$$
=
 OpenBabel10262419533D

 25 28  0  0  1  0  0  0  0  0999 V2000
  187.8330  177.3270  145.0500 C   0  0  0  0  0  0  0  0  0  0  0  0
  189.1330  176.9280  145.3810 C   0  0  0  0  0  0  0  0  0  0  0  0
  187.3940  178.1140  147.2920 C   0  0  0  0  0  3  0  0  0  0  0  0
  187.1100  177.2340  143.7460 C   0  0  1  0  0  3  0  0  0  0  0  0
  185.7190  178.9510  141.9450 C   0  0  0  0  0  3  0  0  0  0  0  0
  188.6830  177.7070  147.6610 C   0  0  0  0  0  3  0  0  0  0  0  0
  185.8270  177.8770  144.0600 N   0  0  0  0  0  0  0  0  0  0  0  0
  185.0850  178.5620  143.0510 C   0  0  0  0  0  3  0  0  0  0  0  0
  187.1710  178.7100  141.8220 C   0  0  0  0  0  3  0  0  0  0  0  0
  186.9950  177.8940  145.9790 C   0  0  0  0  0  0  0  0  0  0  0  0
  185.7500  178.2510  145.4080 N   0  0  0  0  0  2  0  0  0  0  0  0
  187.8060  177.9670  142.6840 N   0  0  0  0  0  0  0  0  0  0  0  0
  189.5560  177.1080  146.7280 C   0  0  0  0  0  0  0  0  0  0  0  0
  190.8110  176.6240  147.2070 N   0  0  0  0  0  0  0  0  0  0  0  0
  192.0220  176.7960  148.0610 C   0  0  0  0  0  2  0  0  0  0  0  0
  191.9160  175.6280  147.3390 C   0  0  0  0  0  2  0  0  0  0  0  0
  189.9680  176.3780  144.3520 N   0  0  0  0  0  2  0  0  0  0  0  0
  191.2780  176.8940  143.9900 C   0  0  0  0  0  2  0  0  0  0  0  0
  191.1490  177.8610  142.8260 C   0  0  0  0  0  2  0  0  0  0  0  0
  192.0520  177.4690  141.7570 N   0  0  0  0  0  2  0  0  0  0  0  0
  191.2830  177.4420  140.5220 C   0  0  2  0  0  3  0  0  0  0  0  0
  190.2510  176.5070  140.6270 O   0  0  0  0  0  1  0  0  0  0  0  0
  192.1710  177.0890  139.3780 C   0  0  0  0  0  0  0  0  0  0  0  0
  193.5490  177.1290  139.5390 O   0  0  0  0  0  1  0  0  0  0  0  0
  191.6800  176.7500  138.2690 O   0  0  0  0  0  0  0  0  0  0  0  0
  1  2  2  0  0  0  0
  1 10  1  0  0  0  0
  2 13  1  0  0  0  0
  3  6  1  0  0  0  0
  4 12  1  6  0  0  0
  4  7  1  0  0  0  0
  4  1  1  0  0  0  0
  5  8  2  0  0  0  0
  7 11  1  0  0  0  0
  8  7  1  0  0  0  0
  9  5  1  0  0  0  0
  9 12  2  0  0  0  0
 10  3  2  0  0  0  0
 11 10  1  0  0  0  0
 13 14  1  0  0  0  0
 13  6  2  0  0  0  0
 14 16  1  0  0  0  0
 14 15  1  0  0  0  0
 16 15  1  0  0  0  0
 17  2  1  0  0  0  0
 18 17  1  0  0  0  0
 19 18  1  0  0  0  0
 20 19  1  0  0  0  0
 21 22  1  1  0  0  0
 21 20  1  0  0  0  0
 23 24  1  0  0  0  0
 23 21  1  0  0  0  0
 25 23  2  0  0  0  0
M  END
>  <MODEL>
8

>  <REMARK>
 VINA RESULT:      -7.3      1.735      2.310
  Name = 
  7 active torsions:
  status: ('A' for Active; 'I' for Inactive)
    1  A    between atoms: C_2  and  C_21
    2  A    between atoms: C_3  and  N_16
    3  A    between atoms: C_6  and  N_15
    4  A    between atoms: C_6  and  C_23
    5  A    between atoms: N_13  and  C_24
    6  A    between atoms: N_15  and  C_21
    7  A    between atoms: N_16  and  C_23
                            x       y       z     vdW  Elec       q    Type
                         _______ _______ _______ _____ _____    ______ ____

>  <TORSDO>
F 7

$$$$
=
 OpenBabel10262419533D

 25 28  0  0  1  0  0  0  0  0999 V2000
  185.8310  178.4950  144.8660 C   0  0  0  0  0  0  0  0  0  0  0  0
  185.5730  178.2070  143.5210 C   0  0  0  0  0  0  0  0  0  0  0  0
  183.5060  178.9730  145.3170 C   0  0  0  0  0  3  0  0  0  0  0  0
  187.1250  178.4770  145.6130 C   0  0  1  0  0  3  0  0  0  0  0  0
  188.2250  177.2790  147.9550 C   0  0  0  0  0  3  0  0  0  0  0  0
  183.2170  178.7120  143.9710 C   0  0  0  0  0  3  0  0  0  0  0  0
  186.6960  178.8100  146.9780 N   0  0  0  0  0  0  0  0  0  0  0  0
  187.4160  178.3270  148.1110 C   0  0  0  0  0  3  0  0  0  0  0  0
  188.3080  176.6210  146.6350 C   0  0  0  0  0  3  0  0  0  0  0  0
  184.8290  178.8700  145.7280 C   0  0  0  0  0  0  0  0  0  0  0  0
  185.3200  179.0710  147.0410 N   0  0  0  0  0  2  0  0  0  0  0  0
  187.7530  177.1520  145.5820 N   0  0  0  0  0  0  0  0  0  0  0  0
  184.2310  178.3400  143.0640 C   0  0  0  0  0  0  0  0  0  0  0  0
  183.8740  178.1950  141.6890 N   0  0  0  0  0  0  0  0  0  0  0  0
  183.8360  178.7370  140.2990 C   0  0  0  0  0  2  0  0  0  0  0  0
  183.3360  177.4700  140.4990 C   0  0  0  0  0  2  0  0  0  0  0  0
  186.6600  177.7830  142.6860 N   0  0  0  0  0  2  0  0  0  0  0  0
  187.3350  178.6290  141.7170 C   0  0  0  0  0  2  0  0  0  0  0  0
  188.7570  178.1400  141.5060 C   0  0  0  0  0  2  0  0  0  0  0  0
  189.0810  177.1270  142.4970 N   0  0  0  0  0  2  0  0  0  0  0  0
  190.2450  176.3990  142.0130 C   0  0  2  0  0  3  0  0  0  0  0  0
  190.4650  175.2730  142.8100 O   0  0  0  0  0  1  0  0  0  0  0  0
  191.4460  177.2820  142.0440 C   0  0  0  0  0  0  0  0  0  0  0  0
  192.0960  177.6020  140.8610 O   0  0  0  0  0  0  0  0  0  0  0  0
  191.8710  177.7440  143.1360 O   0  0  0  0  0  1  0  0  0  0  0  0
  1 10  1  0  0  0  0
  2  1  2  0  0  0  0
  3 10  2  0  0  0  0
  4  1  1  6  0  0  0
  4  7  1  0  0  0  0
  5  8  2  0  0  0  0
  6  3  1  0  0  0  0
  7 11  1  0  0  0  0
  7  8  1  0  0  0  0
  9  5  1  0  0  0  0
 10 11  1  0  0  0  0
 12  4  1  0  0  0  0
 12  9  2  0  0  0  0
 13  2  1  0  0  0  0
 13  6  2  0  0  0  0
 14 13  1  0  0  0  0
 15 16  1  0  0  0  0
 15 14  1  0  0  0  0
 16 14  1  0  0  0  0
 17  2  1  0  0  0  0
 18 17  1  0  0  0  0
 19 18  1  0  0  0  0
 19 20  1  0  0  0  0
 21 23  1  0  0  0  0
 21 20  1  0  0  0  0
 21 22  1  1  0  0  0
 23 25  1  0  0  0  0
 24 23  2  0  0  0  0
M  END
>  <MODEL>
9

>  <REMARK>
 VINA RESULT:      -7.2      2.141      5.050
  Name = 
  7 active torsions:
  status: ('A' for Active; 'I' for Inactive)
    1  A    between atoms: C_2  and  C_21
    2  A    between atoms: C_3  and  N_16
    3  A    between atoms: C_6  and  N_15
    4  A    between atoms: C_6  and  C_23
    5  A    between atoms: N_13  and  C_24
    6  A    between atoms: N_15  and  C_21
    7  A    between atoms: N_16  and  C_23
                            x       y       z     vdW  Elec       q    Type
                         _______ _______ _______ _____ _____    ______ ____

>  <TORSDO>
F 7

$$$$
