=
 OpenBabel10262420453D

 28 30  0  0  1  0  0  0  0  0999 V2000
  191.5930  178.7530  144.0550 C   0  0  0  0  0  1  0  0  0  0  0  0
  190.8380  177.5290  144.5660 C   0  0  2  0  0  0  0  0  0  0  0  0
  190.1160  176.7920  142.2390 C   0  0  2  0  0  3  0  0  0  0  0  0
  190.9160  176.4180  143.4810 C   0  0  2  0  0  3  0  0  0  0  0  0
  189.6130  175.7010  143.1630 C   0  0  0  0  0  2  0  0  0  0  0  0
  190.7050  176.2100  141.1120 O   0  0  0  0  0  0  0  0  0  0  0  0
  190.4880  177.1240  140.0740 C   0  0  2  0  0  3  0  0  0  0  0  0
  189.1520  178.4100  137.9090 C   0  0  0  0  0  2  0  0  0  0  0  0
  189.1980  177.8700  140.3100 C   0  0  0  0  0  3  0  0  0  0  0  0
  191.0770  175.3860  138.5620 O   0  0  0  0  0  0  0  0  0  0  0  0
  190.4460  176.4180  138.7360 C   0  0  0  0  0  0  0  0  0  0  0  0
  189.6480  176.9960  137.5920 C   0  0  0  0  0  2  0  0  0  0  0  0
  188.5700  178.4750  139.2940 C   0  0  0  0  0  3  0  0  0  0  0  0
  189.3610  177.9030  144.7830 C   0  0  0  0  0  2  0  0  0  0  0  0
  189.2020  178.2880  147.1690 O   0  0  0  0  0  1  0  0  0  0  0  0
  188.7570  177.4710  146.1290 C   0  0  1  0  0  3  0  0  0  0  0  0
  187.2230  177.4520  146.0950 C   0  0  1  0  0  3  0  0  0  0  0  0
  186.6420  177.9940  147.4000 C   0  0  0  0  0  1  0  0  0  0  0  0
  186.0190  178.0550  142.5010 C   0  0  0  0  0  3  0  0  0  0  0  0
  186.6570  178.1960  144.8760 C   0  0  1  0  0  3  0  0  0  0  0  0
  184.2410  178.5430  144.0080 C   0  0  1  0  0  3  0  0  0  0  0  0
  186.7010  177.3230  143.6160 C   0  0  0  0  0  2  0  0  0  0  0  0
  185.2400  178.7490  145.1590 C   0  0  0  0  0  2  0  0  0  0  0  0
  183.1290  179.5660  144.0980 C   0  0  0  0  0  1  0  0  0  0  0  0
  184.8860  178.6290  142.7140 N   0  0  0  0  0  0  0  0  0  0  0  0
  191.3770  177.1300  145.9590 C   0  0  0  0  0  2  0  0  0  0  0  0
  192.0240  175.7480  146.0390 C   0  0  0  0  0  2  0  0  0  0  0  0
  192.5900  175.5500  147.2990 O   0  0  0  0  0  1  0  0  0  0  0  0
  2  1  1  6  0  0  0
  2 14  1  0  0  0  0
  2 26  1  0  0  0  0
  3  6  1  6  0  0  0
  3  5  1  0  0  0  0
  3  4  1  0  0  0  0
  4  2  1  1  0  0  0
  5  4  1  0  0  0  0
  7  9  1  0  0  0  0
  7  6  1  1  0  0  0
  8 13  1  0  0  0  0
 10 11  2  0  0  0  0
 11  7  1  0  0  0  0
 12  8  1  0  0  0  0
 12 11  1  0  0  0  0
 13  9  2  0  0  0  0
 14 16  1  0  0  0  0
 16 15  1  1  0  0  0
 17 16  1  0  0  0  0
 17 18  1  1  0  0  0
 19 25  2  0  0  0  0
 19 22  1  0  0  0  0
 20 23  1  0  0  0  0
 20 17  1  1  0  0  0
 21 24  1  6  0  0  0
 21 23  1  0  0  0  0
 22 20  1  0  0  0  0
 25 21  1  0  0  0  0
 26 27  1  0  0  0  0
 27 28  1  0  0  0  0
M  END
>  <MODEL>
1

>  <REMARK>
 VINA RESULT:      -8.4      0.000      0.000
  Name = 
  9 active torsions:
  status: ('A' for Active; 'I' for Inactive)
    1  A    between atoms: C_1  and  O_2
    2  A    between atoms: O_2  and  C_3
    3  A    between atoms: C_9  and  C_14
    4  A    between atoms: C_10  and  C_25
    5  A    between atoms: C_10  and  C_27
    6  A    between atoms: C_14  and  C_25
    7  A    between atoms: C_16  and  C_21
    8  A    between atoms: C_17  and  C_27
    9  A    between atoms: C_21  and  C_27
                            x       y       z     vdW  Elec       q    Type
                         _______ _______ _______ _____ _____    ______ ____

>  <TORSDO>
F 9

$$$$
=
 OpenBabel10262420453D

 28 30  0  0  1  0  0  0  0  0999 V2000
  191.4090  177.6800  139.8670 C   0  0  0  0  0  1  0  0  0  0  0  0
  190.0170  177.1650  139.5120 C   0  0  2  0  0  0  0  0  0  0  0  0
  187.9720  177.8570  138.1640 C   0  0  2  0  0  3  0  0  0  0  0  0
  189.1880  178.3490  138.9390 C   0  0  2  0  0  3  0  0  0  0  0  0
  189.1470  178.4640  137.4230 C   0  0  0  0  0  2  0  0  0  0  0  0
  186.9460  178.8020  138.2580 O   0  0  0  0  0  0  0  0  0  0  0  0
  185.7640  178.0530  138.3070 C   0  0  2  0  0  3  0  0  0  0  0  0
  183.1130  177.2350  137.6520 C   0  0  0  0  0  2  0  0  0  0  0  0
  185.4560  177.4910  136.9420 C   0  0  0  0  0  3  0  0  0  0  0  0
  184.8100  179.8380  139.5560 O   0  0  0  0  0  0  0  0  0  0  0  0
  184.6090  178.9020  138.7960 C   0  0  0  0  0  0  0  0  0  0  0  0
  183.1950  178.5830  138.3750 C   0  0  0  0  0  2  0  0  0  0  0  0
  184.2110  177.1060  136.6330 C   0  0  0  0  0  3  0  0  0  0  0  0
  189.3290  176.6560  140.7910 C   0  0  0  0  0  2  0  0  0  0  0  0
  188.4630  178.5910  141.9640 O   0  0  0  0  0  1  0  0  0  0  0  0
  189.4280  177.5830  142.0140 C   0  0  1  0  0  3  0  0  0  0  0  0
  189.3150  176.8110  143.3360 C   0  0  1  0  0  3  0  0  0  0  0  0
  190.6960  176.4220  143.8590 C   0  0  0  0  0  1  0  0  0  0  0  0
  186.4100  177.7180  145.6740 C   0  0  0  0  0  3  0  0  0  0  0  0
  188.5100  177.5820  144.3930 C   0  0  1  0  0  3  0  0  0  0  0  0
  188.3780  177.3840  146.9740 C   0  0  1  0  0  3  0  0  0  0  0  0
  187.0920  177.0130  144.5430 C   0  0  0  0  0  2  0  0  0  0  0  0
  189.2640  177.6430  145.7430 C   0  0  0  0  0  2  0  0  0  0  0  0
  189.0000  178.0110  148.2020 C   0  0  0  0  0  1  0  0  0  0  0  0
  187.0350  177.8940  146.7870 N   0  0  0  0  0  0  0  0  0  0  0  0
  190.1390  175.9340  138.5850 C   0  0  0  0  0  2  0  0  0  0  0  0
  191.5130  175.7260  137.9510 C   0  0  0  0  0  2  0  0  0  0  0  0
  191.8260  174.3670  137.9060 O   0  0  0  0  0  1  0  0  0  0  0  0
  2  1  1  1  0  0  0
  2 14  1  0  0  0  0
  3  6  1  1  0  0  0
  3  4  1  0  0  0  0
  4  2  1  6  0  0  0
  5  3  1  0  0  0  0
  5  4  1  0  0  0  0
  7  6  1  6  0  0  0
  7 11  1  0  0  0  0
  8 12  1  0  0  0  0
  9  7  1  0  0  0  0
 11 10  2  0  0  0  0
 12 11  1  0  0  0  0
 13  9  2  0  0  0  0
 13  8  1  0  0  0  0
 14 16  1  0  0  0  0
 16 15  1  6  0  0  0
 16 17  1  0  0  0  0
 17 18  1  1  0  0  0
 19 25  2  0  0  0  0
 20 17  1  6  0  0  0
 20 22  1  0  0  0  0
 20 23  1  0  0  0  0
 21 24  1  1  0  0  0
 22 19  1  0  0  0  0
 23 21  1  0  0  0  0
 25 21  1  0  0  0  0
 26  2  1  0  0  0  0
 27 26  1  0  0  0  0
 28 27  1  0  0  0  0
M  END
>  <MODEL>
2

>  <REMARK>
 VINA RESULT:      -7.7      3.052      5.616
  Name = 
  9 active torsions:
  status: ('A' for Active; 'I' for Inactive)
    1  A    between atoms: C_1  and  O_2
    2  A    between atoms: O_2  and  C_3
    3  A    between atoms: C_9  and  C_14
    4  A    between atoms: C_10  and  C_25
    5  A    between atoms: C_10  and  C_27
    6  A    between atoms: C_14  and  C_25
    7  A    between atoms: C_16  and  C_21
    8  A    between atoms: C_17  and  C_27
    9  A    between atoms: C_21  and  C_27
                            x       y       z     vdW  Elec       q    Type
                         _______ _______ _______ _____ _____    ______ ____

>  <TORSDO>
F 9

$$$$
=
 OpenBabel10262420453D

 28 30  0  0  1  0  0  0  0  0999 V2000
  189.2100  175.5040  142.9550 C   0  0  0  0  0  1  0  0  0  0  0  0
  190.1830  176.5040  143.5740 C   0  0  2  0  0  0  0  0  0  0  0  0
  188.3840  177.9160  144.6920 C   0  0  2  0  0  3  0  0  0  0  0  0
  189.5840  177.0040  144.9180 C   0  0  2  0  0  3  0  0  0  0  0  0
  189.6950  178.4960  145.1860 C   0  0  0  0  0  2  0  0  0  0  0  0
  187.4970  177.7950  145.7650 O   0  0  0  0  0  0  0  0  0  0  0  0
  186.2260  177.7290  145.1810 C   0  0  2  0  0  3  0  0  0  0  0  0
  183.9720  178.5390  143.6350 C   0  0  0  0  0  2  0  0  0  0  0  0
  186.3420  177.8750  143.6840 C   0  0  0  0  0  3  0  0  0  0  0  0
  185.4830  179.2150  146.8810 O   0  0  0  0  0  0  0  0  0  0  0  0
  185.3190  178.8030  145.7430 C   0  0  0  0  0  0  0  0  0  0  0  0
  184.1850  179.3550  144.9140 C   0  0  0  0  0  2  0  0  0  0  0  0
  185.2840  178.2550  142.9570 C   0  0  0  0  0  3  0  0  0  0  0  0
  190.3380  177.7060  142.6260 C   0  0  0  0  0  2  0  0  0  0  0  0
  188.6460  178.6450  141.1700 O   0  0  0  0  0  1  0  0  0  0  0  0
  189.5720  177.6080  141.2960 C   0  0  1  0  0  3  0  0  0  0  0  0
  190.5140  177.5940  140.0850 C   0  0  1  0  0  3  0  0  0  0  0  0
  191.9740  177.5350  140.5310 C   0  0  0  0  0  1  0  0  0  0  0  0
  188.8560  175.7710  137.1430 C   0  0  0  0  0  3  0  0  0  0  0  0
  190.1820  176.4620  139.1010 C   0  0  1  0  0  3  0  0  0  0  0  0
  191.2180  175.7600  136.8320 C   0  0  1  0  0  3  0  0  0  0  0  0
  189.0410  176.8590  138.1550 C   0  0  0  0  0  2  0  0  0  0  0  0
  191.4410  175.9900  138.3370 C   0  0  0  0  0  2  0  0  0  0  0  0
  192.2490  174.7910  136.2970 C   0  0  0  0  0  1  0  0  0  0  0  0
  189.8850  175.2640  136.5560 N   0  0  0  0  0  0  0  0  0  0  0  0
  191.5890  175.8660  143.6740 C   0  0  0  0  0  2  0  0  0  0  0  0
  192.0240  175.4610  145.0810 C   0  0  0  0  0  2  0  0  0  0  0  0
  192.5520  174.1690  145.0720 O   0  0  0  0  0  1  0  0  0  0  0  0
  2  1  1  6  0  0  0
  2 26  1  0  0  0  0
  3  4  1  0  0  0  0
  3  5  1  0  0  0  0
  3  6  1  1  0  0  0
  4  2  1  6  0  0  0
  4  5  1  0  0  0  0
  7 11  1  0  0  0  0
  7  6  1  1  0  0  0
  8 12  1  0  0  0  0
  9  7  1  0  0  0  0
 11 10  2  0  0  0  0
 12 11  1  0  0  0  0
 13  8  1  0  0  0  0
 13  9  2  0  0  0  0
 14  2  1  0  0  0  0
 16 15  1  6  0  0  0
 16 14  1  0  0  0  0
 17 18  1  1  0  0  0
 17 16  1  0  0  0  0
 19 22  1  0  0  0  0
 20 17  1  6  0  0  0
 21 24  1  1  0  0  0
 21 23  1  0  0  0  0
 22 20  1  0  0  0  0
 23 20  1  0  0  0  0
 25 21  1  0  0  0  0
 25 19  2  0  0  0  0
 26 27  1  0  0  0  0
 28 27  1  0  0  0  0
M  END
>  <MODEL>
3

>  <REMARK>
 VINA RESULT:      -7.7      2.363      6.776
  Name = 
  9 active torsions:
  status: ('A' for Active; 'I' for Inactive)
    1  A    between atoms: C_1  and  O_2
    2  A    between atoms: O_2  and  C_3
    3  A    between atoms: C_9  and  C_14
    4  A    between atoms: C_10  and  C_25
    5  A    between atoms: C_10  and  C_27
    6  A    between atoms: C_14  and  C_25
    7  A    between atoms: C_16  and  C_21
    8  A    between atoms: C_17  and  C_27
    9  A    between atoms: C_21  and  C_27
                            x       y       z     vdW  Elec       q    Type
                         _______ _______ _______ _____ _____    ______ ____

>  <TORSDO>
F 9

$$$$
=
 OpenBabel10262420453D

 28 30  0  0  1  0  0  0  0  0999 V2000
  185.7480  179.8180  142.5870 C   0  0  0  0  0  1  0  0  0  0  0  0
  185.3510  178.3460  142.6670 C   0  0  2  0  0  0  0  0  0  0  0  0
  187.4630  177.9170  144.0200 C   0  0  2  0  0  3  0  0  0  0  0  0
  186.6450  177.4970  142.8060 C   0  0  2  0  0  3  0  0  0  0  0  0
  187.9580  178.2430  142.6250 C   0  0  0  0  0  2  0  0  0  0  0  0
  188.1660  176.8140  144.5150 O   0  0  0  0  0  0  0  0  0  0  0  0
  188.0140  176.8790  145.9050 C   0  0  2  0  0  3  0  0  0  0  0  0
  187.9410  178.0240  148.5150 C   0  0  0  0  0  2  0  0  0  0  0  0
  186.9640  177.9040  146.2590 C   0  0  0  0  0  3  0  0  0  0  0  0
  190.3860  176.8990  146.0580 O   0  0  0  0  0  0  0  0  0  0  0  0
  189.3270  177.2230  146.5750 C   0  0  0  0  0  0  0  0  0  0  0  0
  189.3420  177.9420  147.9010 C   0  0  0  0  0  2  0  0  0  0  0  0
  186.9290  178.4420  147.4840 C   0  0  0  0  0  3  0  0  0  0  0  0
  184.6360  177.9460  141.3640 C   0  0  0  0  0  2  0  0  0  0  0  0
  185.1310  179.0530  139.2680 O   0  0  0  0  0  1  0  0  0  0  0  0
  184.3160  179.1010  140.4000 C   0  0  1  0  0  3  0  0  0  0  0  0
  182.8390  179.1160  139.9850 C   0  0  1  0  0  3  0  0  0  0  0  0
  182.6730  178.6350  138.5440 C   0  0  0  0  0  1  0  0  0  0  0  0
  180.1640  178.3960  142.6410 C   0  0  0  0  0  3  0  0  0  0  0  0
  181.9540  178.3130  140.9500 C   0  0  1  0  0  3  0  0  0  0  0  0
  179.6450  177.1730  140.6640 C   0  0  1  0  0  3  0  0  0  0  0  0
  181.0930  179.2370  141.8210 C   0  0  0  0  0  2  0  0  0  0  0  0
  181.1080  177.2590  140.1970 C   0  0  0  0  0  2  0  0  0  0  0  0
  179.0750  175.8100  140.3350 C   0  0  0  0  0  1  0  0  0  0  0  0
  179.5170  177.4310  142.0840 N   0  0  0  0  0  0  0  0  0  0  0  0
  184.3080  178.1500  143.7930 C   0  0  0  0  0  2  0  0  0  0  0  0
  183.8990  179.4220  144.5340 C   0  0  0  0  0  2  0  0  0  0  0  0
  183.7020  179.1510  145.8880 O   0  0  0  0  0  1  0  0  0  0  0  0
  2  1  1  6  0  0  0
  2 26  1  0  0  0  0
  3  6  1  6  0  0  0
  4  2  1  1  0  0  0
  4  3  1  0  0  0  0
  5  4  1  0  0  0  0
  5  3  1  0  0  0  0
  7  6  1  6  0  0  0
  7  9  1  0  0  0  0
  7 11  1  0  0  0  0
  9 13  2  0  0  0  0
 10 11  2  0  0  0  0
 11 12  1  0  0  0  0
 12  8  1  0  0  0  0
 13  8  1  0  0  0  0
 14  2  1  0  0  0  0
 16 15  1  6  0  0  0
 16 14  1  0  0  0  0
 17 18  1  6  0  0  0
 17 16  1  0  0  0  0
 20 17  1  6  0  0  0
 20 22  1  0  0  0  0
 21 24  1  1  0  0  0
 21 25  1  0  0  0  0
 22 19  1  0  0  0  0
 23 21  1  0  0  0  0
 23 20  1  0  0  0  0
 25 19  2  0  0  0  0
 26 27  1  0  0  0  0
 27 28  1  0  0  0  0
M  END
>  <MODEL>
4

>  <REMARK>
 VINA RESULT:      -7.7      3.428      7.179
  Name = 
  9 active torsions:
  status: ('A' for Active; 'I' for Inactive)
    1  A    between atoms: C_1  and  O_2
    2  A    between atoms: O_2  and  C_3
    3  A    between atoms: C_9  and  C_14
    4  A    between atoms: C_10  and  C_25
    5  A    between atoms: C_10  and  C_27
    6  A    between atoms: C_14  and  C_25
    7  A    between atoms: C_16  and  C_21
    8  A    between atoms: C_17  and  C_27
    9  A    between atoms: C_21  and  C_27
                            x       y       z     vdW  Elec       q    Type
                         _______ _______ _______ _____ _____    ______ ____

>  <TORSDO>
F 9

$$$$
=
 OpenBabel10262420453D

 28 30  0  0  1  0  0  0  0  0999 V2000
  186.0890  179.4450  141.5710 C   0  0  0  0  0  1  0  0  0  0  0  0
  185.1400  178.5570  142.3710 C   0  0  2  0  0  0  0  0  0  0  0  0
  186.8980  178.0980  144.1530 C   0  0  2  0  0  3  0  0  0  0  0  0
  185.9820  177.4770  143.1060 C   0  0  2  0  0  3  0  0  0  0  0  0
  187.4840  177.5300  142.8760 C   0  0  0  0  0  2  0  0  0  0  0  0
  187.0960  177.1910  145.1980 O   0  0  0  0  0  0  0  0  0  0  0  0
  187.9270  177.8570  146.1060 C   0  0  2  0  0  3  0  0  0  0  0  0
  189.4590  178.2960  148.4710 C   0  0  0  0  0  2  0  0  0  0  0  0
  189.1530  177.0220  146.3860 C   0  0  0  0  0  3  0  0  0  0  0  0
  185.9790  178.3200  147.3880 O   0  0  0  0  0  0  0  0  0  0  0  0
  187.1900  178.1520  147.3950 C   0  0  0  0  0  0  0  0  0  0  0  0
  187.9440  178.2690  148.6970 C   0  0  0  0  0  2  0  0  0  0  0  0
  189.8730  177.2280  147.4960 C   0  0  0  0  0  3  0  0  0  0  0  0
  184.1740  177.8530  141.4010 C   0  0  0  0  0  2  0  0  0  0  0  0
  184.1660  177.7220  138.9830 O   0  0  0  0  0  1  0  0  0  0  0  0
  183.9320  178.5730  140.0640 C   0  0  1  0  0  3  0  0  0  0  0  0
  182.5180  179.1630  139.9720 C   0  0  1  0  0  3  0  0  0  0  0  0
  182.0210  179.1630  138.5280 C   0  0  0  0  0  1  0  0  0  0  0  0
  179.4710  178.6520  142.2480 C   0  0  0  0  0  3  0  0  0  0  0  0
  181.5280  178.4530  140.9070 C   0  0  1  0  0  3  0  0  0  0  0  0
  179.3730  177.0860  140.4560 C   0  0  1  0  0  3  0  0  0  0  0  0
  180.4770  179.4270  141.4550 C   0  0  0  0  0  2  0  0  0  0  0  0
  180.8880  177.2220  140.2220 C   0  0  0  0  0  2  0  0  0  0  0  0
  178.9490  175.6440  140.2820 C   0  0  0  0  0  1  0  0  0  0  0  0
  178.9870  177.5580  141.7700 N   0  0  0  0  0  0  0  0  0  0  0  0
  184.2510  179.4350  143.2820 C   0  0  0  0  0  2  0  0  0  0  0  0
  183.2920  178.6710  144.1930 C   0  0  0  0  0  2  0  0  0  0  0  0
  183.3700  179.1590  145.4980 O   0  0  0  0  0  1  0  0  0  0  0  0
  2  1  1  6  0  0  0
  2 26  1  0  0  0  0
  3  6  1  1  0  0  0
  4  2  1  6  0  0  0
  4  3  1  0  0  0  0
  5  4  1  0  0  0  0
  5  3  1  0  0  0  0
  7  6  1  6  0  0  0
  7  9  1  0  0  0  0
  7 11  1  0  0  0  0
  8 12  1  0  0  0  0
  9 13  2  0  0  0  0
 10 11  2  0  0  0  0
 11 12  1  0  0  0  0
 13  8  1  0  0  0  0
 14  2  1  0  0  0  0
 16 15  1  6  0  0  0
 16 14  1  0  0  0  0
 17 18  1  6  0  0  0
 17 16  1  0  0  0  0
 20 17  1  6  0  0  0
 20 22  1  0  0  0  0
 21 24  1  1  0  0  0
 21 25  1  0  0  0  0
 22 19  1  0  0  0  0
 23 21  1  0  0  0  0
 23 20  1  0  0  0  0
 25 19  2  0  0  0  0
 26 27  1  0  0  0  0
 27 28  1  0  0  0  0
M  END
>  <MODEL>
5

>  <REMARK>
 VINA RESULT:      -7.6      3.705      7.696
  Name = 
  9 active torsions:
  status: ('A' for Active; 'I' for Inactive)
    1  A    between atoms: C_1  and  O_2
    2  A    between atoms: O_2  and  C_3
    3  A    between atoms: C_9  and  C_14
    4  A    between atoms: C_10  and  C_25
    5  A    between atoms: C_10  and  C_27
    6  A    between atoms: C_14  and  C_25
    7  A    between atoms: C_16  and  C_21
    8  A    between atoms: C_17  and  C_27
    9  A    between atoms: C_21  and  C_27
                            x       y       z     vdW  Elec       q    Type
                         _______ _______ _______ _____ _____    ______ ____

>  <TORSDO>
F 9

$$$$
=
 OpenBabel10262420453D

 28 30  0  0  1  0  0  0  0  0999 V2000
  185.4990  179.9980  143.6220 C   0  0  0  0  0  1  0  0  0  0  0  0
  185.8080  178.6510  142.9740 C   0  0  2  0  0  0  0  0  0  0  0  0
  183.5880  178.6320  141.7300 C   0  0  2  0  0  3  0  0  0  0  0  0
  184.4670  177.9020  142.7380 C   0  0  2  0  0  3  0  0  0  0  0  0
  183.2080  178.6220  143.1970 C   0  0  0  0  0  2  0  0  0  0  0  0
  182.7980  177.7050  141.0410 O   0  0  0  0  0  0  0  0  0  0  0  0
  182.3030  178.4020  139.9330 C   0  0  2  0  0  3  0  0  0  0  0  0
  181.5040  180.6250  138.3370 C   0  0  0  0  0  2  0  0  0  0  0  0
  183.3240  179.4070  139.4600 C   0  0  0  0  0  3  0  0  0  0  0  0
  180.2600  178.6360  141.1260 O   0  0  0  0  0  0  0  0  0  0  0  0
  181.0020  179.0980  140.2710 C   0  0  0  0  0  0  0  0  0  0  0  0
  180.5940  180.3530  139.5390 C   0  0  0  0  0  2  0  0  0  0  0  0
  182.9500  180.4510  138.7110 C   0  0  0  0  0  3  0  0  0  0  0  0
  186.6750  177.8180  143.9340 C   0  0  0  0  0  2  0  0  0  0  0  0
  185.7340  177.0210  146.0190 O   0  0  0  0  0  1  0  0  0  0  0  0
  186.4410  178.0720  145.4320 C   0  0  1  0  0  3  0  0  0  0  0  0
  187.7540  178.3110  146.1910 C   0  0  1  0  0  3  0  0  0  0  0  0
  187.5670  178.0780  147.6890 C   0  0  0  0  0  1  0  0  0  0  0  0
  190.9920  177.4670  144.3120 C   0  0  0  0  0  3  0  0  0  0  0  0
  188.9120  177.4710  145.6310 C   0  0  1  0  0  3  0  0  0  0  0  0
  191.2310  176.8320  146.5950 C   0  0  1  0  0  3  0  0  0  0  0  0
  189.8170  178.3040  144.7150 C   0  0  0  0  0  2  0  0  0  0  0  0
  189.7030  176.7740  146.7640 C   0  0  0  0  0  2  0  0  0  0  0  0
  191.8800  175.6970  147.3560 C   0  0  0  0  0  1  0  0  0  0  0  0
  191.6200  176.7780  145.2010 N   0  0  0  0  0  0  0  0  0  0  0  0
  186.6740  178.8690  141.7110 C   0  0  0  0  0  2  0  0  0  0  0  0
  187.9360  178.0130  141.6280 C   0  0  0  0  0  2  0  0  0  0  0  0
  188.5770  178.2110  140.4040 O   0  0  0  0  0  1  0  0  0  0  0  0
  2  1  1  1  0  0  0
  2 14  1  0  0  0  0
  3  6  1  6  0  0  0
  3  4  1  0  0  0  0
  3  5  1  0  0  0  0
  4  2  1  1  0  0  0
  4  5  1  0  0  0  0
  7 11  1  0  0  0  0
  7  6  1  1  0  0  0
  8 13  1  0  0  0  0
  8 12  1  0  0  0  0
  9  7  1  0  0  0  0
 11 10  2  0  0  0  0
 12 11  1  0  0  0  0
 13  9  2  0  0  0  0
 14 16  1  0  0  0  0
 16 15  1  1  0  0  0
 16 17  1  0  0  0  0
 17 18  1  1  0  0  0
 19 22  1  0  0  0  0
 19 25  2  0  0  0  0
 20 17  1  1  0  0  0
 20 23  1  0  0  0  0
 21 23  1  0  0  0  0
 21 24  1  1  0  0  0
 22 20  1  0  0  0  0
 25 21  1  0  0  0  0
 26  2  1  0  0  0  0
 27 26  1  0  0  0  0
 28 27  1  0  0  0  0
M  END
>  <MODEL>
6

>  <REMARK>
 VINA RESULT:      -7.4      3.949      6.770
  Name = 
  9 active torsions:
  status: ('A' for Active; 'I' for Inactive)
    1  A    between atoms: C_1  and  O_2
    2  A    between atoms: O_2  and  C_3
    3  A    between atoms: C_9  and  C_14
    4  A    between atoms: C_10  and  C_25
    5  A    between atoms: C_10  and  C_27
    6  A    between atoms: C_14  and  C_25
    7  A    between atoms: C_16  and  C_21
    8  A    between atoms: C_17  and  C_27
    9  A    between atoms: C_21  and  C_27
                            x       y       z     vdW  Elec       q    Type
                         _______ _______ _______ _____ _____    ______ ____

>  <TORSDO>
F 9

$$$$
=
 OpenBabel10262420453D

 28 30  0  0  1  0  0  0  0  0999 V2000
  190.4270  178.5050  143.0830 C   0  0  0  0  0  1  0  0  0  0  0  0
  190.2590  177.3930  142.0510 C   0  0  2  0  0  0  0  0  0  0  0  0
  190.7000  176.8360  139.6070 C   0  0  2  0  0  3  0  0  0  0  0  0
  190.8620  177.8810  140.7040 C   0  0  2  0  0  3  0  0  0  0  0  0
  192.0710  177.1100  140.1950 C   0  0  0  0  0  2  0  0  0  0  0  0
  190.5920  177.4730  138.3670 O   0  0  0  0  0  0  0  0  0  0  0  0
  189.2660  177.2680  137.9670 C   0  0  2  0  0  3  0  0  0  0  0  0
  187.0250  177.0690  136.2170 C   0  0  0  0  0  2  0  0  0  0  0  0
  189.2080  176.1790  136.9250 C   0  0  0  0  0  3  0  0  0  0  0  0
  189.0550  179.6320  137.8250 O   0  0  0  0  0  0  0  0  0  0  0  0
  188.6650  178.5460  137.4220 C   0  0  0  0  0  0  0  0  0  0  0  0
  187.5580  178.4930  136.3970 C   0  0  0  0  0  2  0  0  0  0  0  0
  188.1550  176.0840  136.1030 C   0  0  0  0  0  3  0  0  0  0  0  0
  188.7590  177.1190  141.8480 C   0  0  0  0  0  2  0  0  0  0  0  0
  186.9720  178.7320  141.5820 O   0  0  0  0  0  1  0  0  0  0  0  0
  187.8030  178.1180  142.5210 C   0  0  1  0  0  3  0  0  0  0  0  0
  186.9580  177.4600  143.6210 C   0  0  1  0  0  3  0  0  0  0  0  0
  187.3980  176.0160  143.8550 C   0  0  0  0  0  1  0  0  0  0  0  0
  185.7430  178.8700  146.9770 C   0  0  0  0  0  3  0  0  0  0  0  0
  186.9690  178.2690  144.9270 C   0  0  1  0  0  3  0  0  0  0  0  0
  187.7980  177.7140  147.3180 C   0  0  1  0  0  3  0  0  0  0  0  0
  185.6230  178.1730  145.6570 C   0  0  0  0  0  2  0  0  0  0  0  0
  188.1590  177.8660  145.8300 C   0  0  0  0  0  2  0  0  0  0  0  0
  189.0320  177.9000  148.1730 C   0  0  0  0  0  1  0  0  0  0  0  0
  186.7720  178.6540  147.7220 N   0  0  0  0  0  0  0  0  0  0  0  0
  190.8540  176.0770  142.6030 C   0  0  0  0  0  2  0  0  0  0  0  0
  191.5630  176.1950  143.9510 C   0  0  0  0  0  2  0  0  0  0  0  0
  192.0560  174.9520  144.3500 O   0  0  0  0  0  1  0  0  0  0  0  0
  2 26  1  0  0  0  0
  2  1  1  1  0  0  0
  3  6  1  6  0  0  0
  3  5  1  0  0  0  0
  3  4  1  0  0  0  0
  4  2  1  1  0  0  0
  5  4  1  0  0  0  0
  7  6  1  6  0  0  0
  8 12  1  0  0  0  0
  9  7  1  0  0  0  0
 11 10  2  0  0  0  0
 11  7  1  0  0  0  0
 12 11  1  0  0  0  0
 13  8  1  0  0  0  0
 13  9  2  0  0  0  0
 14  2  1  0  0  0  0
 14 16  1  0  0  0  0
 16 15  1  6  0  0  0
 16 17  1  0  0  0  0
 17 18  1  1  0  0  0
 19 25  2  0  0  0  0
 20 17  1  6  0  0  0
 20 22  1  0  0  0  0
 20 23  1  0  0  0  0
 21 25  1  0  0  0  0
 21 24  1  1  0  0  0
 22 19  1  0  0  0  0
 23 21  1  0  0  0  0
 26 27  1  0  0  0  0
 27 28  1  0  0  0  0
M  END
>  <MODEL>
7

>  <REMARK>
 VINA RESULT:      -7.4      2.169      3.742
  Name = 
  9 active torsions:
  status: ('A' for Active; 'I' for Inactive)
    1  A    between atoms: C_1  and  O_2
    2  A    between atoms: O_2  and  C_3
    3  A    between atoms: C_9  and  C_14
    4  A    between atoms: C_10  and  C_25
    5  A    between atoms: C_10  and  C_27
    6  A    between atoms: C_14  and  C_25
    7  A    between atoms: C_16  and  C_21
    8  A    between atoms: C_17  and  C_27
    9  A    between atoms: C_21  and  C_27
                            x       y       z     vdW  Elec       q    Type
                         _______ _______ _______ _____ _____    ______ ____

>  <TORSDO>
F 9

$$$$
=
 OpenBabel10262420453D

 28 30  0  0  1  0  0  0  0  0999 V2000
  191.8560  177.5660  142.0320 C   0  0  0  0  0  1  0  0  0  0  0  0
  190.4970  176.9040  142.2370 C   0  0  2  0  0  0  0  0  0  0  0  0
  190.8740  176.7560  139.7240 C   0  0  2  0  0  3  0  0  0  0  0  0
  189.8430  176.6860  140.8440 C   0  0  2  0  0  3  0  0  0  0  0  0
  189.8690  177.8770  139.8990 C   0  0  0  0  0  2  0  0  0  0  0  0
  190.4730  175.9340  138.6670 O   0  0  0  0  0  0  0  0  0  0  0  0
  191.6500  175.3330  138.2050 C   0  0  2  0  0  3  0  0  0  0  0  0
  193.6950  174.5700  136.3720 C   0  0  0  0  0  2  0  0  0  0  0  0
  192.5510  176.3760  137.5920 C   0  0  0  0  0  3  0  0  0  0  0  0
  190.2840  173.6360  137.2510 O   0  0  0  0  0  0  0  0  0  0  0  0
  191.3400  174.2490  137.1940 C   0  0  0  0  0  0  0  0  0  0  0  0
  192.3430  173.8950  136.1240 C   0  0  0  0  0  2  0  0  0  0  0  0
  193.5120  176.0190  136.7310 C   0  0  0  0  0  3  0  0  0  0  0  0
  189.5990  177.8440  143.0610 C   0  0  0  0  0  2  0  0  0  0  0  0
  187.9920  176.0440  142.8540 O   0  0  0  0  0  1  0  0  0  0  0  0
  188.2410  177.2620  143.4880 C   0  0  1  0  0  3  0  0  0  0  0  0
  188.1360  177.0950  145.0100 C   0  0  1  0  0  3  0  0  0  0  0  0
  189.1730  177.9590  145.7260 C   0  0  0  0  0  1  0  0  0  0  0  0
  185.3310  178.6280  147.1330 C   0  0  0  0  0  3  0  0  0  0  0  0
  186.7180  177.3720  145.5300 C   0  0  1  0  0  3  0  0  0  0  0  0
  184.9080  179.0910  144.8350 C   0  0  1  0  0  3  0  0  0  0  0  0
  186.7410  178.2930  146.7580 C   0  0  0  0  0  2  0  0  0  0  0  0
  185.8000  177.9120  144.4080 C   0  0  0  0  0  2  0  0  0  0  0  0
  183.6910  179.1700  143.9380 C   0  0  0  0  0  1  0  0  0  0  0  0
  184.4940  178.9780  146.2190 N   0  0  0  0  0  0  0  0  0  0  0  0
  190.6650  175.6280  143.0950 C   0  0  0  0  0  2  0  0  0  0  0  0
  191.6810  175.7330  144.2310 C   0  0  0  0  0  2  0  0  0  0  0  0
  192.4070  174.5470  144.3430 O   0  0  0  0  0  1  0  0  0  0  0  0
  2  1  1  6  0  0  0
  2 14  1  0  0  0  0
  2 26  1  0  0  0  0
  3  6  1  6  0  0  0
  3  5  1  0  0  0  0
  3  4  1  0  0  0  0
  4  2  1  1  0  0  0
  5  4  1  0  0  0  0
  7  6  1  6  0  0  0
  8 13  1  0  0  0  0
  9  7  1  0  0  0  0
 11 10  2  0  0  0  0
 11  7  1  0  0  0  0
 12  8  1  0  0  0  0
 12 11  1  0  0  0  0
 13  9  2  0  0  0  0
 14 16  1  0  0  0  0
 16 15  1  6  0  0  0
 16 17  1  0  0  0  0
 17 18  1  1  0  0  0
 20 17  1  6  0  0  0
 20 22  1  0  0  0  0
 21 24  1  6  0  0  0
 21 25  1  0  0  0  0
 22 19  1  0  0  0  0
 23 21  1  0  0  0  0
 23 20  1  0  0  0  0
 25 19  2  0  0  0  0
 26 27  1  0  0  0  0
 27 28  1  0  0  0  0
M  END
>  <MODEL>
8

>  <REMARK>
 VINA RESULT:      -7.4      2.119      3.302
  Name = 
  9 active torsions:
  status: ('A' for Active; 'I' for Inactive)
    1  A    between atoms: C_1  and  O_2
    2  A    between atoms: O_2  and  C_3
    3  A    between atoms: C_9  and  C_14
    4  A    between atoms: C_10  and  C_25
    5  A    between atoms: C_10  and  C_27
    6  A    between atoms: C_14  and  C_25
    7  A    between atoms: C_16  and  C_21
    8  A    between atoms: C_17  and  C_27
    9  A    between atoms: C_21  and  C_27
                            x       y       z     vdW  Elec       q    Type
                         _______ _______ _______ _____ _____    ______ ____

>  <TORSDO>
F 9

$$$$
=
 OpenBabel10262420453D

 28 30  0  0  1  0  0  0  0  0999 V2000
  190.8960  177.3060  137.2720 C   0  0  0  0  0  1  0  0  0  0  0  0
  189.7880  177.3030  138.3220 C   0  0  2  0  0  0  0  0  0  0  0  0
  187.4350  177.9990  137.6470 C   0  0  2  0  0  3  0  0  0  0  0  0
  188.8270  178.4880  138.0240 C   0  0  2  0  0  3  0  0  0  0  0  0
  188.3360  178.6060  136.5890 C   0  0  0  0  0  2  0  0  0  0  0  0
  186.4840  178.9440  138.0440 O   0  0  0  0  0  0  0  0  0  0  0  0
  185.3350  178.2020  138.3430 C   0  0  2  0  0  3  0  0  0  0  0  0
  182.6390  177.2940  138.1530 C   0  0  0  0  0  2  0  0  0  0  0  0
  184.8630  177.4690  137.1120 C   0  0  0  0  0  3  0  0  0  0  0  0
  184.5150  180.1260  139.4740 O   0  0  0  0  0  0  0  0  0  0  0  0
  184.2370  179.1000  138.8710 C   0  0  0  0  0  0  0  0  0  0  0  0
  182.7870  178.7240  138.6840 C   0  0  0  0  0  2  0  0  0  0  0  0
  183.5970  177.0420  137.0220 C   0  0  0  0  0  3  0  0  0  0  0  0
  190.4120  177.5130  139.7130 C   0  0  0  0  0  2  0  0  0  0  0  0
  190.4740  175.9880  141.5940 O   0  0  0  0  0  1  0  0  0  0  0  0
  189.6550  176.8690  140.8860 C   0  0  1  0  0  3  0  0  0  0  0  0
  189.0630  177.9170  141.8380 C   0  0  1  0  0  3  0  0  0  0  0  0
  187.6820  178.3660  141.3630 C   0  0  0  0  0  1  0  0  0  0  0  0
  189.8430  177.7650  145.5920 C   0  0  0  0  0  3  0  0  0  0  0  0
  189.0250  177.4270  143.2930 C   0  0  1  0  0  3  0  0  0  0  0  0
  187.4940  178.0230  145.2970 C   0  0  1  0  0  3  0  0  0  0  0  0
  190.0230  178.1960  144.1700 C   0  0  0  0  0  2  0  0  0  0  0  0
  187.5880  177.4670  143.8650 C   0  0  0  0  0  2  0  0  0  0  0  0
  186.2410  177.5080  145.9710 C   0  0  0  0  0  1  0  0  0  0  0  0
  188.6570  177.6750  146.0870 N   0  0  0  0  0  0  0  0  0  0  0  0
  189.1220  175.9080  138.3690 C   0  0  0  0  0  2  0  0  0  0  0  0
  189.4550  174.9840  137.1990 C   0  0  0  0  0  2  0  0  0  0  0  0
  190.3830  174.0190  137.5920 O   0  0  0  0  0  1  0  0  0  0  0  0
  2  1  1  6  0  0  0
  2 26  1  0  0  0  0
  2 14  1  0  0  0  0
  3  4  1  0  0  0  0
  3  6  1  1  0  0  0
  4  2  1  6  0  0  0
  5  3  1  0  0  0  0
  5  4  1  0  0  0  0
  7  6  1  6  0  0  0
  7 11  1  0  0  0  0
  8 12  1  0  0  0  0
  9  7  1  0  0  0  0
 11 10  2  0  0  0  0
 12 11  1  0  0  0  0
 13  9  2  0  0  0  0
 13  8  1  0  0  0  0
 14 16  1  0  0  0  0
 16 15  1  1  0  0  0
 16 17  1  0  0  0  0
 17 18  1  6  0  0  0
 19 25  2  0  0  0  0
 20 17  1  6  0  0  0
 20 23  1  0  0  0  0
 20 22  1  0  0  0  0
 21 24  1  1  0  0  0
 21 25  1  0  0  0  0
 22 19  1  0  0  0  0
 23 21  1  0  0  0  0
 27 28  1  0  0  0  0
 27 26  1  0  0  0  0
M  END
>  <MODEL>
9

>  <REMARK>
 VINA RESULT:      -7.4      3.199      6.147
  Name = 
  9 active torsions:
  status: ('A' for Active; 'I' for Inactive)
    1  A    between atoms: C_1  and  O_2
    2  A    between atoms: O_2  and  C_3
    3  A    between atoms: C_9  and  C_14
    4  A    between atoms: C_10  and  C_25
    5  A    between atoms: C_10  and  C_27
    6  A    between atoms: C_14  and  C_25
    7  A    between atoms: C_16  and  C_21
    8  A    between atoms: C_17  and  C_27
    9  A    between atoms: C_21  and  C_27
                            x       y       z     vdW  Elec       q    Type
                         _______ _______ _______ _____ _____    ______ ____

>  <TORSDO>
F 9

$$$$
