=
 OpenBabel10262423113D

 34 38  0  0  1  0  0  0  0  0999 V2000
  183.1050  178.9790  141.6670 C   0  0  0  0  0  0  0  0  0  0  0  0
  180.2420  180.2750  139.6050 C   0  0  0  0  0  3  0  0  0  0  0  0
  180.2630  179.2920  141.7250 O   0  0  0  0  0  0  0  0  0  0  0  0
  185.0350  178.0820  142.9020 C   0  0  0  0  0  0  0  0  0  0  0  0
  184.3250  178.4190  141.6590 C   0  0  0  0  0  3  0  0  0  0  0  0
  183.1550  178.8110  144.1890 C   0  0  0  0  0  0  0  0  0  0  0  0
  182.6560  178.9460  145.3370 O   0  0  0  0  0  0  0  0  0  0  0  0
  184.4650  178.2510  144.0570 N   0  0  0  0  0  0  0  0  0  0  0  0
  186.3510  177.5220  142.8140 N   0  0  0  0  0  2  0  0  0  0  0  0
  180.9610  179.0240  142.9050 C   0  0  0  0  0  0  0  0  0  0  0  0
  182.4330  179.3510  142.9740 C   0  0  2  0  0  3  0  0  0  0  0  0
  180.3350  178.5950  143.9100 O   0  0  0  0  0  0  0  0  0  0  0  0
  180.8460  180.8040  138.3500 C   0  0  0  0  0  2  0  0  0  0  0  0
  181.3470  179.7030  137.4760 C   0  0  0  0  0  0  0  0  0  0  0  0
  182.3350  178.9010  137.8800 C   0  0  0  0  0  3  0  0  0  0  0  0
  180.9290  179.6090  140.5360 C   0  0  0  0  0  0  0  0  0  0  0  0
  182.9360  178.8760  139.2280 C   0  0  0  0  0  3  0  0  0  0  0  0
  182.3650  179.2220  140.3990 C   0  0  0  0  0  0  0  0  0  0  0  0
  187.6540  177.4940  146.3730 C   0  0  0  0  0  2  0  0  0  0  0  0
  188.6530  177.1050  143.5790 C   0  0  0  0  0  2  0  0  0  0  0  0
  191.3150  176.6880  146.9470 C   0  0  0  0  0  0  0  0  0  0  0  0
  189.9770  177.0480  147.1610 C   0  0  0  0  0  3  0  0  0  0  0  0
  189.0940  177.1800  146.0850 C   0  0  0  0  0  0  0  0  0  0  0  0
  190.8820  176.5680  144.5600 C   0  0  0  0  0  3  0  0  0  0  0  0
  189.5460  176.9170  144.7730 C   0  0  0  0  0  0  0  0  0  0  0  0
  191.7610  176.4500  145.6390 C   0  0  0  0  0  3  0  0  0  0  0  0
  187.1700  177.1220  143.9550 C   0  0  1  0  0  3  0  0  0  0  0  0
  186.9260  178.0390  145.1490 C   0  0  0  0  0  2  0  0  0  0  0  0
  192.2420  176.5590  148.0850 C   0  0  0  0  0  0  0  0  0  0  0  0
  192.4000  177.5170  148.8880 O   0  0  0  0  0  0  0  0  0  0  0  0
  192.9710  175.3520  148.2900 N   0  0  0  0  0  1  0  0  0  0  0  0
  180.8170  179.5850  136.1060 C   0  0  0  0  0  0  0  0  0  0  0  0
  180.8030  180.6930  135.2670 O   0  0  0  0  0  0  0  0  0  0  0  0
  180.3720  178.4850  135.6810 O   0  0  0  0  0  1  0  0  0  0  0  0
  2 16  2  0  0  0  0
  3 10  1  0  0  0  0
  4  8  2  0  0  0  0
  5  1  2  0  0  0  0
  5  4  1  0  0  0  0
  6  7  2  0  0  0  0
  8  6  1  0  0  0  0
  9  4  1  0  0  0  0
 10 11  1  0  0  0  0
 10 12  2  0  0  0  0
 11  1  1  6  0  0  0
 11  6  1  0  0  0  0
 13  2  1  0  0  0  0
 14 15  2  0  0  0  0
 14 13  1  0  0  0  0
 15 17  1  0  0  0  0
 16  3  1  0  0  0  0
 17 18  2  0  0  0  0
 18 16  1  0  0  0  0
 18  1  1  0  0  0  0
 20 27  1  0  0  0  0
 20 25  1  0  0  0  0
 21 22  1  0  0  0  0
 21 29  1  0  0  0  0
 23 19  1  0  0  0  0
 23 22  2  0  0  0  0
 24 25  2  0  0  0  0
 24 26  1  0  0  0  0
 25 23  1  0  0  0  0
 26 21  2  0  0  0  0
 27  9  1  6  0  0  0
 27 28  1  0  0  0  0
 28 19  1  0  0  0  0
 29 31  1  0  0  0  0
 29 30  2  0  0  0  0
 32 14  1  0  0  0  0
 33 32  2  0  0  0  0
 34 32  1  0  0  0  0
M  END
>  <MODEL>
1

>  <REMARK>
 VINA RESULT:      -9.8      0.000      0.000
  Name = 
  3 active torsions:
  status: ('A' for Active; 'I' for Inactive)
    1  A    between atoms: C_3  and  C_25
    2  A    between atoms: C_7  and  C_11
    3  A    between atoms: N_18  and  C_30
                            x       y       z     vdW  Elec       q    Type
                         _______ _______ _______ _____ _____    ______ ____

>  <TORSDO>
F 3

$$$$
=
 OpenBabel10262423113D

 34 38  0  0  1  0  0  0  0  0999 V2000
  183.1200  178.6170  141.7170 C   0  0  0  0  0  0  0  0  0  0  0  0
  179.6100  178.9270  140.4110 C   0  0  0  0  0  3  0  0  0  0  0  0
  180.3930  178.4850  142.5670 O   0  0  0  0  0  0  0  0  0  0  0  0
  185.4520  178.3510  142.4560 C   0  0  0  0  0  0  0  0  0  0  0  0
  184.3880  178.2710  141.4440 C   0  0  0  0  0  3  0  0  0  0  0  0
  183.8580  179.0580  144.0940 C   0  0  0  0  0  0  0  0  0  0  0  0
  183.6570  179.3780  145.2950 O   0  0  0  0  0  0  0  0  0  0  0  0
  185.1780  178.6950  143.6790 N   0  0  0  0  0  0  0  0  0  0  0  0
  186.7900  177.9990  142.0790 N   0  0  0  0  0  2  0  0  0  0  0  0
  181.4150  178.6150  143.5110 C   0  0  0  0  0  0  0  0  0  0  0  0
  182.7470  179.1760  143.0760 C   0  0  2  0  0  3  0  0  0  0  0  0
  181.1800  178.3410  144.7180 O   0  0  0  0  0  0  0  0  0  0  0  0
  179.7370  179.2340  138.9580 C   0  0  0  0  0  2  0  0  0  0  0  0
  180.2210  178.0510  138.1880 C   0  0  0  0  0  0  0  0  0  0  0  0
  181.4300  177.5310  138.4150 C   0  0  0  0  0  3  0  0  0  0  0  0
  180.6420  178.6140  141.1970 C   0  0  0  0  0  0  0  0  0  0  0  0
  182.3500  177.9180  139.5010 C   0  0  0  0  0  3  0  0  0  0  0  0
  182.0420  178.4370  140.7070 C   0  0  0  0  0  0  0  0  0  0  0  0
  190.3360  177.3720  143.2600 C   0  0  0  0  0  2  0  0  0  0  0  0
  187.5570  177.4970  144.3630 C   0  0  0  0  0  2  0  0  0  0  0  0
  190.9210  176.7370  146.9540 C   0  0  0  0  0  0  0  0  0  0  0  0
  191.1270  176.8880  145.5750 C   0  0  0  0  0  3  0  0  0  0  0  0
  190.0530  177.1450  144.7180 C   0  0  0  0  0  0  0  0  0  0  0  0
  188.5450  177.1230  146.6220 C   0  0  0  0  0  3  0  0  0  0  0  0
  188.7520  177.2840  145.2490 C   0  0  0  0  0  0  0  0  0  0  0  0
  189.6230  176.8550  147.4700 C   0  0  0  0  0  3  0  0  0  0  0  0
  187.9430  178.0120  142.9750 C   0  0  1  0  0  3  0  0  0  0  0  0
  189.0930  177.1950  142.3960 C   0  0  0  0  0  2  0  0  0  0  0  0
  192.0570  176.4590  147.8500 C   0  0  0  0  0  0  0  0  0  0  0  0
  192.3800  177.2850  148.7440 O   0  0  0  0  0  0  0  0  0  0  0  0
  192.8040  175.2530  147.7150 N   0  0  0  0  0  1  0  0  0  0  0  0
  179.3930  177.5330  137.0850 C   0  0  0  0  0  0  0  0  0  0  0  0
  179.0110  178.3730  136.0460 O   0  0  0  0  0  0  0  0  0  0  0  0
  179.0220  176.3280  137.0710 O   0  0  0  0  0  1  0  0  0  0  0  0
  2 16  2  0  0  0  0
  3 10  1  0  0  0  0
  4  8  2  0  0  0  0
  5  1  2  0  0  0  0
  5  4  1  0  0  0  0
  6  7  2  0  0  0  0
  8  6  1  0  0  0  0
  9  4  1  0  0  0  0
 10 12  2  0  0  0  0
 11  1  1  6  0  0  0
 11 10  1  0  0  0  0
 11  6  1  0  0  0  0
 13  2  1  0  0  0  0
 14 15  2  0  0  0  0
 14 13  1  0  0  0  0
 15 17  1  0  0  0  0
 16  3  1  0  0  0  0
 17 18  2  0  0  0  0
 18 16  1  0  0  0  0
 18  1  1  0  0  0  0
 19 23  1  0  0  0  0
 20 25  1  0  0  0  0
 21 26  1  0  0  0  0
 21 29  1  0  0  0  0
 22 21  2  0  0  0  0
 23 25  2  0  0  0  0
 23 22  1  0  0  0  0
 24 26  2  0  0  0  0
 25 24  1  0  0  0  0
 27  9  1  6  0  0  0
 27 20  1  0  0  0  0
 28 27  1  0  0  0  0
 28 19  1  0  0  0  0
 29 30  2  0  0  0  0
 31 29  1  0  0  0  0
 32 14  1  0  0  0  0
 33 32  2  0  0  0  0
 34 32  1  0  0  0  0
M  END
>  <MODEL>
2

>  <REMARK>
 VINA RESULT:      -9.7      1.224      1.810
  Name = 
  3 active torsions:
  status: ('A' for Active; 'I' for Inactive)
    1  A    between atoms: C_3  and  C_25
    2  A    between atoms: C_7  and  C_11
    3  A    between atoms: N_18  and  C_30
                            x       y       z     vdW  Elec       q    Type
                         _______ _______ _______ _____ _____    ______ ____

>  <TORSDO>
F 3

$$$$
=
 OpenBabel10262423113D

 34 38  0  0  1  0  0  0  0  0999 V2000
  191.9860  176.1080  137.3370 C   0  0  0  0  0  0  0  0  0  0  0  0
  194.4910  175.5060  134.6000 C   0  0  0  0  0  3  0  0  0  0  0  0
  192.1760  175.1900  134.6350 O   0  0  0  0  0  0  0  0  0  0  0  0
  190.4380  176.4550  139.2180 C   0  0  0  0  0  0  0  0  0  0  0  0
  191.7610  176.1360  138.6590 C   0  0  0  0  0  3  0  0  0  0  0  0
  189.5310  176.6150  137.0100 C   0  0  0  0  0  0  0  0  0  0  0  0
  188.5040  176.8080  136.3070 O   0  0  0  0  0  0  0  0  0  0  0  0
  189.4190  176.6490  138.4360 N   0  0  0  0  0  0  0  0  0  0  0  0
  190.2840  176.5030  140.6420 N   0  0  0  0  0  2  0  0  0  0  0  0
  190.9340  175.5480  135.1670 C   0  0  0  0  0  0  0  0  0  0  0  0
  190.8880  176.4740  136.3580 C   0  0  2  0  0  3  0  0  0  0  0  0
  189.8810  175.1610  134.5940 O   0  0  0  0  0  0  0  0  0  0  0  0
  195.8130  175.9080  135.1570 C   0  0  0  0  0  2  0  0  0  0  0  0
  196.2890  174.9430  136.1920 C   0  0  0  0  0  0  0  0  0  0  0  0
  195.6100  174.7650  137.3280 C   0  0  0  0  0  3  0  0  0  0  0  0
  193.3680  175.4500  135.3200 C   0  0  0  0  0  0  0  0  0  0  0  0
  194.2870  175.3350  137.6470 C   0  0  0  0  0  3  0  0  0  0  0  0
  193.3060  175.6880  136.7920 C   0  0  0  0  0  0  0  0  0  0  0  0
  187.0920  178.3410  141.5360 C   0  0  0  0  0  2  0  0  0  0  0  0
  189.2300  176.7150  142.8560 C   0  0  0  0  0  2  0  0  0  0  0  0
  185.9000  178.2380  145.1350 C   0  0  0  0  0  0  0  0  0  0  0  0
  186.0030  178.5410  143.7700 C   0  0  0  0  0  3  0  0  0  0  0  0
  187.0680  178.0500  143.0090 C   0  0  0  0  0  0  0  0  0  0  0  0
  187.9370  176.9240  144.9780 C   0  0  0  0  0  3  0  0  0  0  0  0
  188.0340  177.2170  143.6150 C   0  0  0  0  0  0  0  0  0  0  0  0
  186.8750  177.4280  145.7330 C   0  0  0  0  0  3  0  0  0  0  0  0
  189.0330  176.7880  141.3410 C   0  0  1  0  0  3  0  0  0  0  0  0
  188.4790  178.1490  140.9320 C   0  0  0  0  0  2  0  0  0  0  0  0
  184.7790  178.7660  145.9320 C   0  0  0  0  0  0  0  0  0  0  0  0
  184.9090  178.9480  147.1720 O   0  0  0  0  0  0  0  0  0  0  0  0
  183.5350  179.0750  145.3110 N   0  0  0  0  0  1  0  0  0  0  0  0
  197.5860  174.2730  135.9960 C   0  0  0  0  0  0  0  0  0  0  0  0
  198.7650  174.9230  136.3420 O   0  0  0  0  0  1  0  0  0  0  0  0
  197.6420  173.1090  135.5150 O   0  0  0  0  0  0  0  0  0  0  0  0
  1  5  2  0  0  0  0
  2 13  1  0  0  0  0
  2 16  2  0  0  0  0
  3 10  1  0  0  0  0
  3 16  1  0  0  0  0
  4  9  1  0  0  0  0
  5  4  1  0  0  0  0
  6  8  1  0  0  0  0
  7  6  2  0  0  0  0
  8  4  2  0  0  0  0
 11 10  1  6  0  0  0
 11  6  1  0  0  0  0
 11  1  1  0  0  0  0
 12 10  2  0  0  0  0
 13 14  1  0  0  0  0
 14 15  2  0  0  0  0
 15 17  1  0  0  0  0
 16 18  1  0  0  0  0
 18  1  1  0  0  0  0
 18 17  2  0  0  0  0
 19 23  1  0  0  0  0
 20 25  1  0  0  0  0
 21 26  1  0  0  0  0
 21 29  1  0  0  0  0
 22 21  2  0  0  0  0
 23 25  2  0  0  0  0
 23 22  1  0  0  0  0
 24 26  2  0  0  0  0
 25 24  1  0  0  0  0
 27  9  1  6  0  0  0
 27 20  1  0  0  0  0
 28 27  1  0  0  0  0
 28 19  1  0  0  0  0
 29 30  2  0  0  0  0
 31 29  1  0  0  0  0
 32 14  1  0  0  0  0
 32 33  1  0  0  0  0
 34 32  2  0  0  0  0
M  END
>  <MODEL>
3

>  <REMARK>
 VINA RESULT:      -9.6      7.453     10.920
  Name = 
  3 active torsions:
  status: ('A' for Active; 'I' for Inactive)
    1  A    between atoms: C_3  and  C_25
    2  A    between atoms: C_7  and  C_11
    3  A    between atoms: N_18  and  C_30
                            x       y       z     vdW  Elec       q    Type
                         _______ _______ _______ _____ _____    ______ ____

>  <TORSDO>
F 3

$$$$
=
 OpenBabel10262423113D

 34 38  0  0  1  0  0  0  0  0999 V2000
  182.3050  179.6280  138.4980 C   0  0  0  0  0  0  0  0  0  0  0  0
  179.6670  180.8870  136.1350 C   0  0  0  0  0  3  0  0  0  0  0  0
  181.1790  179.1190  135.9190 O   0  0  0  0  0  0  0  0  0  0  0  0
  184.0580  178.9340  140.0780 C   0  0  0  0  0  0  0  0  0  0  0  0
  183.1780  179.9410  139.4670 C   0  0  0  0  0  3  0  0  0  0  0  0
  183.2000  177.2670  138.5920 C   0  0  0  0  0  0  0  0  0  0  0  0
  183.2590  176.0680  138.2110 O   0  0  0  0  0  0  0  0  0  0  0  0
  184.0670  177.7100  139.6410 N   0  0  0  0  0  0  0  0  0  0  0  0
  184.9390  179.3370  141.1340 N   0  0  0  0  0  2  0  0  0  0  0  0
  181.9740  178.1520  136.5380 C   0  0  0  0  0  0  0  0  0  0  0  0
  182.1420  178.1930  138.0380 C   0  0  2  0  0  3  0  0  0  0  0  0
  182.4660  177.2200  135.8470 O   0  0  0  0  0  0  0  0  0  0  0  0
  179.0060  182.0300  136.8270 C   0  0  0  0  0  2  0  0  0  0  0  0
  179.9050  183.2180  136.9050 C   0  0  0  0  0  0  0  0  0  0  0  0
  181.0490  183.1700  137.5920 C   0  0  0  0  0  3  0  0  0  0  0  0
  180.7490  180.2610  136.6030 C   0  0  0  0  0  0  0  0  0  0  0  0
  181.6420  181.9660  138.2060 C   0  0  0  0  0  3  0  0  0  0  0  0
  181.4930  180.6810  137.8270 C   0  0  0  0  0  0  0  0  0  0  0  0
  186.6340  177.5720  144.0290 C   0  0  0  0  0  2  0  0  0  0  0  0
  187.3100  178.7130  141.3460 C   0  0  0  0  0  2  0  0  0  0  0  0
  190.3330  176.7840  143.7420 C   0  0  0  0  0  0  0  0  0  0  0  0
  189.0300  176.9130  144.2420 C   0  0  0  0  0  3  0  0  0  0  0  0
  188.0310  177.5260  143.4790 C   0  0  0  0  0  0  0  0  0  0  0  0
  189.6330  177.8720  141.6870 C   0  0  0  0  0  3  0  0  0  0  0  0
  188.3320  177.9920  142.1800 C   0  0  0  0  0  0  0  0  0  0  0  0
  190.6270  177.2690  142.4610 C   0  0  0  0  0  3  0  0  0  0  0  0
  185.8800  178.4560  141.8230 C   0  0  1  0  0  3  0  0  0  0  0  0
  185.7760  178.6250  143.3350 C   0  0  0  0  0  2  0  0  0  0  0  0
  191.3820  176.1440  144.5560 C   0  0  0  0  0  0  0  0  0  0  0  0
  192.0560  175.1880  144.0890 O   0  0  0  0  0  0  0  0  0  0  0  0
  191.6450  176.5990  145.8810 N   0  0  0  0  0  1  0  0  0  0  0  0
  179.4570  184.4900  136.3110 C   0  0  0  0  0  0  0  0  0  0  0  0
  179.0910  185.5500  137.1310 O   0  0  0  0  0  1  0  0  0  0  0  0
  179.3980  184.6290  135.0590 O   0  0  0  0  0  0  0  0  0  0  0  0
  1  5  2  0  0  0  0
  2 16  2  0  0  0  0
  2 13  1  0  0  0  0
  3 10  1  0  0  0  0
  3 16  1  0  0  0  0
  4  9  1  0  0  0  0
  5  4  1  0  0  0  0
  6  8  1  0  0  0  0
  7  6  2  0  0  0  0
  8  4  2  0  0  0  0
 11 10  1  6  0  0  0
 11  1  1  0  0  0  0
 11  6  1  0  0  0  0
 12 10  2  0  0  0  0
 13 14  1  0  0  0  0
 14 15  2  0  0  0  0
 15 17  1  0  0  0  0
 16 18  1  0  0  0  0
 18 17  2  0  0  0  0
 18  1  1  0  0  0  0
 20 27  1  0  0  0  0
 20 25  1  0  0  0  0
 21 22  1  0  0  0  0
 21 29  1  0  0  0  0
 23 19  1  0  0  0  0
 23 22  2  0  0  0  0
 24 25  2  0  0  0  0
 24 26  1  0  0  0  0
 25 23  1  0  0  0  0
 26 21  2  0  0  0  0
 27  9  1  6  0  0  0
 27 28  1  0  0  0  0
 28 19  1  0  0  0  0
 29 31  1  0  0  0  0
 30 29  2  0  0  0  0
 32 14  1  0  0  0  0
 32 33  1  0  0  0  0
 34 32  2  0  0  0  0
M  END
>  <MODEL>
4

>  <REMARK>
 VINA RESULT:      -9.4      2.985      4.384
  Name = 
  3 active torsions:
  status: ('A' for Active; 'I' for Inactive)
    1  A    between atoms: C_3  and  C_25
    2  A    between atoms: C_7  and  C_11
    3  A    between atoms: N_18  and  C_30
                            x       y       z     vdW  Elec       q    Type
                         _______ _______ _______ _____ _____    ______ ____

>  <TORSDO>
F 3

$$$$
=
 OpenBabel10262423113D

 34 38  0  0  1  0  0  0  0  0999 V2000
  188.4240  178.1230  141.6470 C   0  0  0  0  0  0  0  0  0  0  0  0
  191.6610  177.2890  143.3660 C   0  0  0  0  0  3  0  0  0  0  0  0
  190.8720  176.6980  141.2480 O   0  0  0  0  0  0  0  0  0  0  0  0
  186.2420  178.6540  140.6420 C   0  0  0  0  0  0  0  0  0  0  0  0
  187.1190  178.3950  141.7940 C   0  0  0  0  0  3  0  0  0  0  0  0
  188.0640  178.2390  139.1480 C   0  0  0  0  0  0  0  0  0  0  0  0
  188.4420  178.1510  137.9500 O   0  0  0  0  0  0  0  0  0  0  0  0
  186.6970  178.5520  139.4290 N   0  0  0  0  0  0  0  0  0  0  0  0
  184.8660  178.9750  140.8800 N   0  0  0  0  0  2  0  0  0  0  0  0
  190.0520  176.9990  140.1580 C   0  0  0  0  0  0  0  0  0  0  0  0
  189.0680  178.1380  140.2750 C   0  0  2  0  0  3  0  0  0  0  0  0
  190.2060  176.3720  139.0760 O   0  0  0  0  0  0  0  0  0  0  0  0
  191.6050  177.9610  144.6960 C   0  0  0  0  0  2  0  0  0  0  0  0
  190.6250  177.2980  145.6050 C   0  0  0  0  0  0  0  0  0  0  0  0
  189.3220  177.2750  145.3090 C   0  0  0  0  0  3  0  0  0  0  0  0
  190.6340  177.2420  142.5150 C   0  0  0  0  0  0  0  0  0  0  0  0
  188.7110  177.7270  144.0450 C   0  0  0  0  0  3  0  0  0  0  0  0
  189.2710  177.7700  142.8200 C   0  0  0  0  0  0  0  0  0  0  0  0
  181.4910  179.7910  139.3600 C   0  0  0  0  0  2  0  0  0  0  0  0
  183.9260  178.1590  138.7580 C   0  0  0  0  0  2  0  0  0  0  0  0
  180.6240  178.2920  135.9850 C   0  0  0  0  0  0  0  0  0  0  0  0
  180.5390  178.9890  137.1990 C   0  0  0  0  0  3  0  0  0  0  0  0
  181.6010  178.9680  138.1090 C   0  0  0  0  0  0  0  0  0  0  0  0
  182.8610  177.5600  136.5830 C   0  0  0  0  0  3  0  0  0  0  0  0
  182.7820  178.2630  137.7880 C   0  0  0  0  0  0  0  0  0  0  0  0
  181.7910  177.5770  135.6850 C   0  0  0  0  0  3  0  0  0  0  0  0
  183.8750  179.2390  139.8400 C   0  0  1  0  0  3  0  0  0  0  0  0
  182.4740  179.3420  140.4350 C   0  0  0  0  0  2  0  0  0  0  0  0
  179.4970  178.3130  135.0360 C   0  0  0  0  0  0  0  0  0  0  0  0
  179.0180  177.2350  134.5940 O   0  0  0  0  0  0  0  0  0  0  0  0
  178.9380  179.5510  134.6060 N   0  0  0  0  0  1  0  0  0  0  0  0
  191.0960  176.7710  146.8970 C   0  0  0  0  0  0  0  0  0  0  0  0
  191.9520  175.6770  146.9320 O   0  0  0  0  0  0  0  0  0  0  0  0
  190.7290  177.3020  147.9800 O   0  0  0  0  0  1  0  0  0  0  0  0
  1  5  2  0  0  0  0
  1 18  1  0  0  0  0
  2 13  1  0  0  0  0
  3 16  1  0  0  0  0
  4  9  1  0  0  0  0
  4  5  1  0  0  0  0
  6  8  1  0  0  0  0
  7  6  2  0  0  0  0
  8  4  2  0  0  0  0
 10 11  1  0  0  0  0
 10  3  1  0  0  0  0
 11  6  1  6  0  0  0
 11  1  1  0  0  0  0
 12 10  2  0  0  0  0
 13 14  1  0  0  0  0
 14 32  1  0  0  0  0
 15 14  2  0  0  0  0
 16 18  1  0  0  0  0
 16  2  2  0  0  0  0
 17 15  1  0  0  0  0
 18 17  2  0  0  0  0
 19 28  1  0  0  0  0
 20 27  1  0  0  0  0
 21 22  1  0  0  0  0
 22 23  2  0  0  0  0
 23 19  1  0  0  0  0
 24 25  2  0  0  0  0
 25 23  1  0  0  0  0
 25 20  1  0  0  0  0
 26 21  2  0  0  0  0
 26 24  1  0  0  0  0
 27 28  1  0  0  0  0
 27  9  1  1  0  0  0
 29 21  1  0  0  0  0
 30 29  2  0  0  0  0
 31 29  1  0  0  0  0
 32 33  2  0  0  0  0
 32 34  1  0  0  0  0
M  END
>  <MODEL>
5

>  <REMARK>
 VINA RESULT:      -9.3      3.796     11.501
  Name = 
  3 active torsions:
  status: ('A' for Active; 'I' for Inactive)
    1  A    between atoms: C_3  and  C_25
    2  A    between atoms: C_7  and  C_11
    3  A    between atoms: N_18  and  C_30
                            x       y       z     vdW  Elec       q    Type
                         _______ _______ _______ _____ _____    ______ ____

>  <TORSDO>
F 3

$$$$
=
 OpenBabel10262423113D

 34 38  0  0  1  0  0  0  0  0999 V2000
  188.0690  178.0390  142.1270 C   0  0  0  0  0  0  0  0  0  0  0  0
  191.6200  177.6750  143.3030 C   0  0  0  0  0  3  0  0  0  0  0  0
  190.6580  177.2310  141.2210 O   0  0  0  0  0  0  0  0  0  0  0  0
  185.7030  178.2330  141.4790 C   0  0  0  0  0  0  0  0  0  0  0  0
  186.7710  178.0070  142.4650 C   0  0  0  0  0  3  0  0  0  0  0  0
  187.3330  178.4210  139.7390 C   0  0  0  0  0  0  0  0  0  0  0  0
  187.5430  178.5820  138.5070 O   0  0  0  0  0  0  0  0  0  0  0  0
  185.9870  178.3980  140.2220 N   0  0  0  0  0  0  0  0  0  0  0  0
  184.3400  178.2210  141.9230 N   0  0  0  0  0  2  0  0  0  0  0  0
  189.6460  177.5010  140.2960 C   0  0  0  0  0  0  0  0  0  0  0  0
  188.4910  178.3790  140.7110 C   0  0  2  0  0  3  0  0  0  0  0  0
  189.7580  177.0770  139.1150 O   0  0  0  0  0  0  0  0  0  0  0  0
  191.6310  178.1300  144.7220 C   0  0  0  0  0  2  0  0  0  0  0  0
  190.9380  177.1560  145.6150 C   0  0  0  0  0  0  0  0  0  0  0  0
  189.6350  176.9000  145.4710 C   0  0  0  0  0  3  0  0  0  0  0  0
  190.5080  177.5320  142.5790 C   0  0  0  0  0  0  0  0  0  0  0  0
  188.7710  177.3840  144.3780 C   0  0  0  0  0  3  0  0  0  0  0  0
  189.1280  177.7130  143.1200 C   0  0  0  0  0  0  0  0  0  0  0  0
  181.6150  177.3330  139.4420 C   0  0  0  0  0  2  0  0  0  0  0  0
  183.3440  179.6580  140.1910 C   0  0  0  0  0  2  0  0  0  0  0  0
  180.4090  180.0200  137.0520 C   0  0  0  0  0  0  0  0  0  0  0  0
  180.5820  178.7900  137.7010 C   0  0  0  0  0  3  0  0  0  0  0  0
  181.5210  178.6520  138.7280 C   0  0  0  0  0  0  0  0  0  0  0  0
  182.1150  180.9930  138.4820 C   0  0  0  0  0  3  0  0  0  0  0  0
  182.2800  179.7700  139.1360 C   0  0  0  0  0  0  0  0  0  0  0  0
  181.1830  181.1190  137.4480 C   0  0  0  0  0  3  0  0  0  0  0  0
  183.1760  178.4110  141.0610 C   0  0  1  0  0  3  0  0  0  0  0  0
  182.9310  177.1790  140.1960 C   0  0  0  0  0  2  0  0  0  0  0  0
  179.4240  180.1560  135.9640 C   0  0  0  0  0  0  0  0  0  0  0  0
  178.9310  179.1310  135.4220 O   0  0  0  0  0  0  0  0  0  0  0  0
  179.0190  181.4450  135.5140 N   0  0  0  0  0  1  0  0  0  0  0  0
  191.6840  176.5660  146.7410 C   0  0  0  0  0  0  0  0  0  0  0  0
  191.6800  177.1900  147.9820 O   0  0  0  0  0  1  0  0  0  0  0  0
  192.3320  175.4940  146.5910 O   0  0  0  0  0  0  0  0  0  0  0  0
  1  5  2  0  0  0  0
  1 18  1  0  0  0  0
  2 13  1  0  0  0  0
  3 16  1  0  0  0  0
  4  9  1  0  0  0  0
  4  5  1  0  0  0  0
  6  8  1  0  0  0  0
  7  6  2  0  0  0  0
  8  4  2  0  0  0  0
 10 11  1  0  0  0  0
 10  3  1  0  0  0  0
 11  6  1  6  0  0  0
 11  1  1  0  0  0  0
 12 10  2  0  0  0  0
 13 14  1  0  0  0  0
 14 32  1  0  0  0  0
 15 14  2  0  0  0  0
 16 18  1  0  0  0  0
 16  2  2  0  0  0  0
 17 15  1  0  0  0  0
 18 17  2  0  0  0  0
 19 28  1  0  0  0  0
 20 27  1  0  0  0  0
 21 26  2  0  0  0  0
 21 22  1  0  0  0  0
 22 23  2  0  0  0  0
 23 25  1  0  0  0  0
 23 19  1  0  0  0  0
 24 25  2  0  0  0  0
 25 20  1  0  0  0  0
 26 24  1  0  0  0  0
 27  9  1  6  0  0  0
 28 27  1  0  0  0  0
 29 21  1  0  0  0  0
 30 29  2  0  0  0  0
 31 29  1  0  0  0  0
 32 33  1  0  0  0  0
 34 32  2  0  0  0  0
M  END
>  <MODEL>
6

>  <REMARK>
 VINA RESULT:      -9.3      3.556     11.333
  Name = 
  3 active torsions:
  status: ('A' for Active; 'I' for Inactive)
    1  A    between atoms: C_3  and  C_25
    2  A    between atoms: C_7  and  C_11
    3  A    between atoms: N_18  and  C_30
                            x       y       z     vdW  Elec       q    Type
                         _______ _______ _______ _____ _____    ______ ____

>  <TORSDO>
F 3

$$$$
=
 OpenBabel10262423113D

 34 38  0  0  1  0  0  0  0  0999 V2000
  187.5200  177.8830  142.8930 C   0  0  0  0  0  0  0  0  0  0  0  0
  184.7260  179.0480  145.1200 C   0  0  0  0  0  3  0  0  0  0  0  0
  186.6180  177.7660  145.6040 O   0  0  0  0  0  0  0  0  0  0  0  0
  189.2570  177.1000  141.3360 C   0  0  0  0  0  0  0  0  0  0  0  0
  187.8830  177.5160  141.6550 C   0  0  0  0  0  3  0  0  0  0  0  0
  189.8750  177.3410  143.6350 C   0  0  0  0  0  0  0  0  0  0  0  0
  190.7860  177.2230  144.4960 O   0  0  0  0  0  0  0  0  0  0  0  0
  190.1530  177.0040  142.2720 N   0  0  0  0  0  0  0  0  0  0  0  0
  189.5780  176.7580  139.9820 N   0  0  0  0  0  2  0  0  0  0  0  0
  187.9360  177.4250  145.2900 C   0  0  0  0  0  0  0  0  0  0  0  0
  188.5420  177.9490  144.0110 C   0  0  2  0  0  3  0  0  0  0  0  0
  188.6170  176.7600  146.1160 O   0  0  0  0  0  0  0  0  0  0  0  0
  183.8140  179.8460  144.2530 C   0  0  0  0  0  2  0  0  0  0  0  0
  183.0680  178.9770  143.2960 C   0  0  0  0  0  0  0  0  0  0  0  0
  183.7120  178.2750  142.3600 C   0  0  0  0  0  3  0  0  0  0  0  0
  185.7690  178.3540  144.6610 C   0  0  0  0  0  0  0  0  0  0  0  0
  185.1750  178.1320  142.2370 C   0  0  0  0  0  3  0  0  0  0  0  0
  186.1030  178.2080  143.2130 C   0  0  0  0  0  0  0  0  0  0  0  0
  193.2120  177.0060  138.9330 C   0  0  0  0  0  2  0  0  0  0  0  0
  190.7540  175.4300  138.2760 C   0  0  0  0  0  2  0  0  0  0  0  0
  194.4930  174.6050  136.2900 C   0  0  0  0  0  0  0  0  0  0  0  0
  194.4190  175.6480  137.2240 C   0  0  0  0  0  3  0  0  0  0  0  0
  193.2200  175.9280  137.8870 C   0  0  0  0  0  0  0  0  0  0  0  0
  192.1530  174.0990  136.6970 C   0  0  0  0  0  3  0  0  0  0  0  0
  192.0810  175.1310  137.6360 C   0  0  0  0  0  0  0  0  0  0  0  0
  193.3520  173.8350  136.0310 C   0  0  0  0  0  3  0  0  0  0  0  0
  190.8900  176.3120  139.5190 C   0  0  1  0  0  3  0  0  0  0  0  0
  191.8030  177.5010  139.2410 C   0  0  0  0  0  2  0  0  0  0  0  0
  195.7590  174.3230  135.5890 C   0  0  0  0  0  0  0  0  0  0  0  0
  196.1230  173.1350  135.3890 O   0  0  0  0  0  0  0  0  0  0  0  0
  196.5840  175.3910  135.1320 N   0  0  0  0  0  1  0  0  0  0  0  0
  181.5950  178.9940  143.3190 C   0  0  0  0  0  0  0  0  0  0  0  0
  180.8760  178.5890  142.2010 O   0  0  0  0  0  0  0  0  0  0  0  0
  180.9720  179.3750  144.3470 O   0  0  0  0  0  1  0  0  0  0  0  0
  1 18  1  0  0  0  0
  4  5  1  0  0  0  0
  4  8  2  0  0  0  0
  5  1  2  0  0  0  0
  6 11  1  0  0  0  0
  6  7  2  0  0  0  0
  8  6  1  0  0  0  0
  9  4  1  0  0  0  0
 10  3  1  0  0  0  0
 10 12  2  0  0  0  0
 11  1  1  6  0  0  0
 11 10  1  0  0  0  0
 13  2  1  0  0  0  0
 14 32  1  0  0  0  0
 14 13  1  0  0  0  0
 15 14  2  0  0  0  0
 16  2  2  0  0  0  0
 16  3  1  0  0  0  0
 17 15  1  0  0  0  0
 17 18  2  0  0  0  0
 18 16  1  0  0  0  0
 19 28  1  0  0  0  0
 20 27  1  0  0  0  0
 21 22  1  0  0  0  0
 22 23  2  0  0  0  0
 23 19  1  0  0  0  0
 24 25  2  0  0  0  0
 25 23  1  0  0  0  0
 25 20  1  0  0  0  0
 26 21  2  0  0  0  0
 26 24  1  0  0  0  0
 27  9  1  6  0  0  0
 28 27  1  0  0  0  0
 29 21  1  0  0  0  0
 30 29  2  0  0  0  0
 31 29  1  0  0  0  0
 32 34  1  0  0  0  0
 33 32  2  0  0  0  0
M  END
>  <MODEL>
7

>  <REMARK>
 VINA RESULT:      -8.9      5.813      8.109
  Name = 
  3 active torsions:
  status: ('A' for Active; 'I' for Inactive)
    1  A    between atoms: C_3  and  C_25
    2  A    between atoms: C_7  and  C_11
    3  A    between atoms: N_18  and  C_30
                            x       y       z     vdW  Elec       q    Type
                         _______ _______ _______ _____ _____    ______ ____

>  <TORSDO>
F 3

$$$$
=
 OpenBabel10262423113D

 34 38  0  0  1  0  0  0  0  0999 V2000
  187.2230  178.2000  141.8030 C   0  0  0  0  0  0  0  0  0  0  0  0
  184.9040  178.8020  144.6990 C   0  0  0  0  0  3  0  0  0  0  0  0
  186.8230  177.4790  144.5420 O   0  0  0  0  0  0  0  0  0  0  0  0
  188.6320  177.8050  139.8250 C   0  0  0  0  0  0  0  0  0  0  0  0
  187.3480  178.1170  140.4700 C   0  0  0  0  0  3  0  0  0  0  0  0
  189.6600  177.5510  141.9700 C   0  0  0  0  0  0  0  0  0  0  0  0
  190.7090  177.2650  142.6060 O   0  0  0  0  0  0  0  0  0  0  0  0
  189.6800  177.5240  140.5400 N   0  0  0  0  0  0  0  0  0  0  0  0
  188.6950  177.7710  138.3940 N   0  0  0  0  0  2  0  0  0  0  0  0
  188.0550  177.2380  143.9270 C   0  0  0  0  0  0  0  0  0  0  0  0
  188.4310  178.0390  142.7040 C   0  0  2  0  0  3  0  0  0  0  0  0
  188.8580  176.4220  144.4520 O   0  0  0  0  0  0  0  0  0  0  0  0
  183.8680  179.7530  144.2050 C   0  0  0  0  0  2  0  0  0  0  0  0
  182.9420  179.0990  143.2340 C   0  0  0  0  0  0  0  0  0  0  0  0
  183.3910  178.6290  142.0670 C   0  0  0  0  0  3  0  0  0  0  0  0
  185.8310  178.2440  143.9180 C   0  0  0  0  0  0  0  0  0  0  0  0
  184.8040  178.5420  141.6530 C   0  0  0  0  0  3  0  0  0  0  0  0
  185.8940  178.4210  142.4370 C   0  0  0  0  0  0  0  0  0  0  0  0
  190.7740  176.4650  135.5050 C   0  0  0  0  0  2  0  0  0  0  0  0
  190.9300  176.7450  138.4810 C   0  0  0  0  0  2  0  0  0  0  0  0
  194.2190  175.0640  136.2520 C   0  0  0  0  0  0  0  0  0  0  0  0
  193.0490  175.4470  135.5810 C   0  0  0  0  0  3  0  0  0  0  0  0
  191.9740  176.0030  136.2810 C   0  0  0  0  0  0  0  0  0  0  0  0
  193.2410  175.8180  138.3440 C   0  0  0  0  0  3  0  0  0  0  0  0
  192.0800  176.2090  137.6740 C   0  0  0  0  0  0  0  0  0  0  0  0
  194.3060  175.2520  137.6380 C   0  0  0  0  0  3  0  0  0  0  0  0
  189.8910  177.4600  137.6150 C   0  0  1  0  0  3  0  0  0  0  0  0
  189.5410  176.6230  136.3890 C   0  0  0  0  0  2  0  0  0  0  0  0
  195.3440  174.4710  135.5080 C   0  0  0  0  0  0  0  0  0  0  0  0
  195.1310  173.6200  134.6050 O   0  0  0  0  0  0  0  0  0  0  0  0
  196.6850  174.8530  135.8020 N   0  0  0  0  0  1  0  0  0  0  0  0
  181.4980  179.0850  143.5260 C   0  0  0  0  0  0  0  0  0  0  0  0
  180.6520  179.9940  142.9030 O   0  0  0  0  0  0  0  0  0  0  0  0
  181.0160  178.2530  144.3430 O   0  0  0  0  0  1  0  0  0  0  0  0
  1 18  1  0  0  0  0
  4  5  1  0  0  0  0
  4  8  2  0  0  0  0
  5  1  2  0  0  0  0
  6  7  2  0  0  0  0
  6 11  1  0  0  0  0
  8  6  1  0  0  0  0
  9  4  1  0  0  0  0
 10 12  2  0  0  0  0
 10  3  1  0  0  0  0
 11  1  1  6  0  0  0
 11 10  1  0  0  0  0
 13  2  1  0  0  0  0
 14 32  1  0  0  0  0
 14 13  1  0  0  0  0
 15 14  2  0  0  0  0
 16  3  1  0  0  0  0
 16  2  2  0  0  0  0
 17 15  1  0  0  0  0
 17 18  2  0  0  0  0
 18 16  1  0  0  0  0
 19 23  1  0  0  0  0
 19 28  1  0  0  0  0
 21 26  1  0  0  0  0
 22 21  2  0  0  0  0
 22 23  1  0  0  0  0
 23 25  2  0  0  0  0
 25 24  1  0  0  0  0
 25 20  1  0  0  0  0
 26 24  2  0  0  0  0
 27  9  1  1  0  0  0
 27 20  1  0  0  0  0
 28 27  1  0  0  0  0
 29 31  1  0  0  0  0
 29 21  1  0  0  0  0
 30 29  2  0  0  0  0
 32 34  1  0  0  0  0
 33 32  2  0  0  0  0
M  END
>  <MODEL>
8

>  <REMARK>
 VINA RESULT:      -8.7      6.090      8.191
  Name = 
  3 active torsions:
  status: ('A' for Active; 'I' for Inactive)
    1  A    between atoms: C_3  and  C_25
    2  A    between atoms: C_7  and  C_11
    3  A    between atoms: N_18  and  C_30
                            x       y       z     vdW  Elec       q    Type
                         _______ _______ _______ _____ _____    ______ ____

>  <TORSDO>
F 3

$$$$
=
 OpenBabel10262423113D

 34 38  0  0  1  0  0  0  0  0999 V2000
  189.7550  177.2420  137.9910 C   0  0  0  0  0  0  0  0  0  0  0  0
  192.3140  176.0860  135.4930 C   0  0  0  0  0  3  0  0  0  0  0  0
  189.9800  176.0640  135.3950 O   0  0  0  0  0  0  0  0  0  0  0  0
  188.1590  177.9500  139.7260 C   0  0  0  0  0  0  0  0  0  0  0  0
  189.4590  177.4190  139.2880 C   0  0  0  0  0  3  0  0  0  0  0  0
  187.4090  178.0180  137.4550 C   0  0  0  0  0  0  0  0  0  0  0  0
  186.4580  178.2710  136.6690 O   0  0  0  0  0  0  0  0  0  0  0  0
  187.2200  178.1960  138.8620 N   0  0  0  0  0  0  0  0  0  0  0  0
  187.9310  178.1470  141.1270 N   0  0  0  0  0  2  0  0  0  0  0  0
  188.7660  176.6210  135.8080 C   0  0  0  0  0  0  0  0  0  0  0  0
  188.7720  177.6500  136.9120 C   0  0  2  0  0  3  0  0  0  0  0  0
  187.7070  176.3160  135.1980 O   0  0  0  0  0  0  0  0  0  0  0  0
  193.6430  176.3700  136.1050 C   0  0  0  0  0  2  0  0  0  0  0  0
  193.9290  175.4530  137.2460 C   0  0  0  0  0  0  0  0  0  0  0  0
  193.1690  175.4650  138.3440 C   0  0  0  0  0  3  0  0  0  0  0  0
  191.1540  176.2360  136.1360 C   0  0  0  0  0  0  0  0  0  0  0  0
  191.9150  176.2220  138.5230 C   0  0  0  0  0  3  0  0  0  0  0  0
  191.0390  176.6140  137.5760 C   0  0  0  0  0  0  0  0  0  0  0  0
  185.2880  178.7770  143.7700 C   0  0  0  0  0  2  0  0  0  0  0  0
  185.4940  178.2990  140.8220 C   0  0  0  0  0  2  0  0  0  0  0  0
  181.6630  179.0030  142.6760 C   0  0  0  0  0  0  0  0  0  0  0  0
  182.8190  178.9580  143.4680 C   0  0  0  0  0  3  0  0  0  0  0  0
  184.0730  178.7410  142.8880 C   0  0  0  0  0  0  0  0  0  0  0  0
  183.0250  178.6300  140.7000 C   0  0  0  0  0  3  0  0  0  0  0  0
  184.1790  178.5960  141.4870 C   0  0  0  0  0  0  0  0  0  0  0  0
  181.7750  178.8360  141.2890 C   0  0  0  0  0  3  0  0  0  0  0  0
  186.6890  178.6470  141.7110 C   0  0  1  0  0  3  0  0  0  0  0  0
  186.4920  178.1020  143.1210 C   0  0  0  0  0  2  0  0  0  0  0  0
  180.3440  179.2240  143.2960 C   0  0  0  0  0  0  0  0  0  0  0  0
  179.7910  180.3530  143.2290 O   0  0  0  0  0  0  0  0  0  0  0  0
  179.6820  178.1640  143.9800 N   0  0  0  0  0  1  0  0  0  0  0  0
  195.1380  174.6120  137.1980 C   0  0  0  0  0  0  0  0  0  0  0  0
  196.2050  174.8780  138.0460 O   0  0  0  0  0  1  0  0  0  0  0  0
  195.2180  173.6480  136.3890 O   0  0  0  0  0  0  0  0  0  0  0  0
  1  5  2  0  0  0  0
  2 13  1  0  0  0  0
  2 16  2  0  0  0  0
  3 10  1  0  0  0  0
  3 16  1  0  0  0  0
  4  9  1  0  0  0  0
  5  4  1  0  0  0  0
  6  8  1  0  0  0  0
  7  6  2  0  0  0  0
  8  4  2  0  0  0  0
 11 10  1  6  0  0  0
 11  6  1  0  0  0  0
 11  1  1  0  0  0  0
 12 10  2  0  0  0  0
 13 14  1  0  0  0  0
 14 15  2  0  0  0  0
 15 17  1  0  0  0  0
 16 18  1  0  0  0  0
 18  1  1  0  0  0  0
 18 17  2  0  0  0  0
 20 25  1  0  0  0  0
 20 27  1  0  0  0  0
 21 29  1  0  0  0  0
 21 22  1  0  0  0  0
 23 22  2  0  0  0  0
 23 19  1  0  0  0  0
 24 26  1  0  0  0  0
 24 25  2  0  0  0  0
 25 23  1  0  0  0  0
 26 21  2  0  0  0  0
 27  9  1  6  0  0  0
 27 28  1  0  0  0  0
 28 19  1  0  0  0  0
 29 31  1  0  0  0  0
 30 29  2  0  0  0  0
 32 14  1  0  0  0  0
 32 33  1  0  0  0  0
 34 32  2  0  0  0  0
M  END
>  <MODEL>
9

>  <REMARK>
 VINA RESULT:      -8.7      6.054     10.314
  Name = 
  3 active torsions:
  status: ('A' for Active; 'I' for Inactive)
    1  A    between atoms: C_3  and  C_25
    2  A    between atoms: C_7  and  C_11
    3  A    between atoms: N_18  and  C_30
                            x       y       z     vdW  Elec       q    Type
                         _______ _______ _______ _____ _____    ______ ____

>  <TORSDO>
F 3

$$$$
