=
 OpenBabel10262423043D

 37 42  0  0  1  0  0  0  0  0999 V2000
  186.7350  176.2630  137.4230 C   0  0  0  0  0  1  0  0  0  0  0  0
  190.0970  177.9940  139.8150 C   0  0  0  0  0  1  0  0  0  0  0  0
  185.1530  179.7030  140.0010 O   0  0  0  0  0  0  0  0  0  0  0  0
  187.7770  177.9450  138.9180 C   0  0  0  0  0  0  0  0  0  0  0  0
  185.7250  178.4390  139.7480 C   0  0  1  0  0  0  0  0  0  0  0  0
  186.7360  177.7180  137.8660 C   0  0  0  0  0  0  0  0  0  0  0  0
  187.1700  178.4100  140.1720 C   0  0  0  0  0  2  0  0  0  0  0  0
  186.9910  178.6120  136.6630 C   0  0  0  0  0  1  0  0  0  0  0  0
  184.5850  178.6050  140.6810 C   0  0  1  0  0  0  0  0  0  0  0  0
  189.0920  177.7510  138.7360 C   0  0  0  0  0  3  0  0  0  0  0  0
  185.4750  178.0340  138.4220 O   0  0  0  0  0  0  0  0  0  0  0  0
  184.1040  179.3480  143.0270 C   0  0  0  0  0  3  0  0  0  0  0  0
  184.8860  178.5920  142.1510 C   0  0  0  0  0  0  0  0  0  0  0  0
  185.9490  177.8300  142.6550 C   0  0  0  0  0  3  0  0  0  0  0  0
  185.4300  178.5610  144.8950 C   0  0  0  0  0  3  0  0  0  0  0  0
  184.3700  179.3270  144.3980 C   0  0  0  0  0  3  0  0  0  0  0  0
  186.2350  177.8170  144.0280 C   0  0  0  0  0  0  0  0  0  0  0  0
  187.2920  177.0710  144.5730 O   0  0  0  0  0  0  0  0  0  0  0  0
  189.0320  175.9820  143.2090 C   0  0  0  0  0  3  0  0  0  0  0  0
  188.6070  176.9960  144.0830 C   0  0  0  0  0  0  0  0  0  0  0  0
  189.5130  177.9980  144.4520 C   0  0  0  0  0  3  0  0  0  0  0  0
  191.6890  178.9660  144.3230 F   0  0  0  0  0  0  0  0  0  0  0  0
  191.2350  176.9780  143.0900 C   0  0  0  0  0  3  0  0  0  0  0  0
  190.8220  177.9900  143.9600 C   0  0  0  0  0  0  0  0  0  0  0  0
  190.3400  175.9730  142.7150 C   0  0  0  0  0  3  0  0  0  0  0  0
  183.1890  178.2650  140.1720 C   0  0  0  0  0  2  0  0  0  0  0  0
  182.5770  179.4240  139.4000 C   0  0  0  0  0  2  0  0  0  0  0  0
  181.4710  179.9940  140.1500 N   0  0  0  0  0  0  0  0  0  0  0  0
  180.3150  179.1070  142.0960 C   0  0  0  0  0  1  0  0  0  0  0  0
  180.6830  178.8770  140.6470 C   0  0  0  0  0  2  0  0  0  0  0  0
  180.6350  180.6930  139.1860 C   0  0  0  0  0  2  0  0  0  0  0  0
  180.6480  182.6470  137.7020 C   0  0  2  0  0  3  0  0  0  0  0  0
  181.4900  181.6170  138.3420 C   0  0  2  0  0  3  0  0  0  0  0  0
  181.0960  181.5160  136.9960 O   0  0  0  0  0  0  0  0  0  0  0  0
  180.6780  185.0950  137.4320 C   0  0  0  0  0  2  0  0  0  0  0  0
  180.9700  184.4930  136.0810 C   0  0  0  0  0  2  0  0  0  0  0  0
  181.5120  183.8350  137.3330 C   0  0  0  0  0  3  0  0  0  0  0  0
  1  6  1  0  0  0  0
  3  9  1  0  0  0  0
  4  7  1  0  0  0  0
  5  3  1  0  0  0  0
  5  7  1  1  0  0  0
  5  9  1  0  0  0  0
  6 11  1  0  0  0  0
  6  4  1  0  0  0  0
  8  6  1  0  0  0  0
  9 26  1  6  0  0  0
  9 13  1  0  0  0  0
 10  4  2  0  0  0  0
 10  2  1  0  0  0  0
 11  5  1  0  0  0  0
 12 16  1  0  0  0  0
 13 14  1  0  0  0  0
 13 12  2  0  0  0  0
 14 17  2  0  0  0  0
 16 15  2  0  0  0  0
 17 18  1  0  0  0  0
 17 15  1  0  0  0  0
 19 20  1  0  0  0  0
 20 21  2  0  0  0  0
 20 18  1  0  0  0  0
 23 24  2  0  0  0  0
 24 22  1  0  0  0  0
 24 21  1  0  0  0  0
 25 23  1  0  0  0  0
 25 19  2  0  0  0  0
 27 28  1  0  0  0  0
 27 26  1  0  0  0  0
 28 30  1  0  0  0  0
 30 29  1  0  0  0  0
 31 28  1  0  0  0  0
 32 37  1  6  0  0  0
 32 33  1  0  0  0  0
 33 31  1  1  0  0  0
 34 32  1  0  0  0  0
 34 33  1  0  0  0  0
 36 37  1  0  0  0  0
 36 35  1  0  0  0  0
 37 35  1  0  0  0  0
M  END
>  <MODEL>
1

>  <REMARK>
 VINA RESULT:      -8.3      0.000      0.000
  Name = 
  10 active torsions:
  status: ('A' for Active; 'I' for Inactive)
    1  A    between atoms: C_1  and  N_5
    2  A    between atoms: C_1  and  C_36
    3  A    between atoms: N_5  and  C_17
    4  A    between atoms: N_5  and  C_23
    5  A    between atoms: C_6  and  O_37
    6  A    between atoms: C_10  and  C_29
    7  A    between atoms: C_11  and  C_33
    8  A    between atoms: C_17  and  C_26
    9  A    between atoms: C_29  and  C_36
   10  A    between atoms: C_31  and  O_37
                            x       y       z     vdW  Elec       q    Type
                         _______ _______ _______ _____ _____    ______ ____

>  <TORSDO>
F 10

$$$$
=
 OpenBabel10262423043D

 37 42  0  0  1  0  0  0  0  0999 V2000
  181.6440  180.5520  138.5880 C   0  0  0  0  0  1  0  0  0  0  0  0
  179.1470  178.3680  141.5910 C   0  0  0  0  0  1  0  0  0  0  0  0
  184.2400  177.4740  140.7730 O   0  0  0  0  0  0  0  0  0  0  0  0
  181.2040  178.7630  140.2490 C   0  0  0  0  0  0  0  0  0  0  0  0
  183.4320  178.6250  140.6480 C   0  0  1  0  0  0  0  0  0  0  0  0
  181.9650  179.1270  139.0120 C   0  0  0  0  0  0  0  0  0  0  0  0
  182.1150  178.4330  141.3520 C   0  0  0  0  0  2  0  0  0  0  0  0
  181.6250  178.1740  137.8770 C   0  0  0  0  0  1  0  0  0  0  0  0
  184.7460  178.6660  141.3340 C   0  0  1  0  0  0  0  0  0  0  0  0
  179.8660  178.7400  140.3350 C   0  0  0  0  0  3  0  0  0  0  0  0
  183.3450  179.0300  139.3020 O   0  0  0  0  0  0  0  0  0  0  0  0
  183.8840  179.5230  143.5260 C   0  0  0  0  0  3  0  0  0  0  0  0
  184.7440  178.6680  142.8340 C   0  0  0  0  0  0  0  0  0  0  0  0
  185.6020  177.8220  143.5510 C   0  0  0  0  0  3  0  0  0  0  0  0
  184.7220  178.6680  145.6320 C   0  0  0  0  0  3  0  0  0  0  0  0
  183.8670  179.5180  144.9230 C   0  0  0  0  0  3  0  0  0  0  0  0
  185.6040  177.8230  144.9530 C   0  0  0  0  0  0  0  0  0  0  0  0
  186.4500  176.9950  145.7080 O   0  0  0  0  0  0  0  0  0  0  0  0
  187.2270  178.0880  147.7750 C   0  0  0  0  0  3  0  0  0  0  0  0
  187.4780  177.4070  146.5720 C   0  0  0  0  0  0  0  0  0  0  0  0
  188.7990  177.0880  146.2360 C   0  0  0  0  0  3  0  0  0  0  0  0
  191.1280  177.1260  146.7460 F   0  0  0  0  0  0  0  0  0  0  0  0
  189.5950  178.1170  148.2770 C   0  0  0  0  0  3  0  0  0  0  0  0
  189.8540  177.4410  147.0820 C   0  0  0  0  0  0  0  0  0  0  0  0
  188.2810  178.4410  148.6230 C   0  0  0  0  0  3  0  0  0  0  0  0
  185.9400  179.2120  140.5580 C   0  0  0  0  0  2  0  0  0  0  0  0
  186.9800  178.1330  140.3010 C   0  0  0  0  0  2  0  0  0  0  0  0
  187.8200  178.5070  139.1760 N   0  0  0  0  0  0  0  0  0  0  0  0
  188.6280  177.1680  137.3160 C   0  0  0  0  0  1  0  0  0  0  0  0
  187.4110  177.6770  138.0550 C   0  0  0  0  0  2  0  0  0  0  0  0
  189.1750  178.1020  139.5180 C   0  0  0  0  0  2  0  0  0  0  0  0
  190.5240  177.4690  141.4670 C   0  0  2  0  0  3  0  0  0  0  0  0
  189.1770  177.4100  140.8660 C   0  0  2  0  0  3  0  0  0  0  0  0
  190.0510  176.3100  140.8250 O   0  0  0  0  0  0  0  0  0  0  0  0
  191.5600  178.0040  143.6360 C   0  0  0  0  0  2  0  0  0  0  0  0
  191.6000  176.5050  143.4800 C   0  0  0  0  0  2  0  0  0  0  0  0
  190.4080  177.2850  142.9660 C   0  0  0  0  0  3  0  0  0  0  0  0
  1  6  1  0  0  0  0
  3  9  1  0  0  0  0
  4 10  2  0  0  0  0
  4  7  1  0  0  0  0
  5  3  1  0  0  0  0
  5  9  1  0  0  0  0
  5  7  1  1  0  0  0
  6 11  1  0  0  0  0
  6  4  1  0  0  0  0
  8  6  1  0  0  0  0
  9 26  1  6  0  0  0
  9 13  1  0  0  0  0
 10  2  1  0  0  0  0
 11  5  1  0  0  0  0
 12 16  1  0  0  0  0
 13 12  2  0  0  0  0
 13 14  1  0  0  0  0
 14 17  2  0  0  0  0
 16 15  2  0  0  0  0
 17 15  1  0  0  0  0
 17 18  1  0  0  0  0
 18 20  1  0  0  0  0
 19 25  1  0  0  0  0
 20 19  2  0  0  0  0
 21 20  1  0  0  0  0
 21 24  2  0  0  0  0
 22 24  1  0  0  0  0
 23 25  2  0  0  0  0
 24 23  1  0  0  0  0
 27 26  1  0  0  0  0
 28 31  1  0  0  0  0
 28 27  1  0  0  0  0
 29 30  1  0  0  0  0
 30 28  1  0  0  0  0
 32 37  1  1  0  0  0
 33 31  1  6  0  0  0
 33 32  1  0  0  0  0
 34 33  1  0  0  0  0
 34 32  1  0  0  0  0
 36 35  1  0  0  0  0
 37 36  1  0  0  0  0
 37 35  1  0  0  0  0
M  END
>  <MODEL>
2

>  <REMARK>
 VINA RESULT:      -8.3      2.222      6.953
  Name = 
  10 active torsions:
  status: ('A' for Active; 'I' for Inactive)
    1  A    between atoms: C_1  and  N_5
    2  A    between atoms: C_1  and  C_36
    3  A    between atoms: N_5  and  C_17
    4  A    between atoms: N_5  and  C_23
    5  A    between atoms: C_6  and  O_37
    6  A    between atoms: C_10  and  C_29
    7  A    between atoms: C_11  and  C_33
    8  A    between atoms: C_17  and  C_26
    9  A    between atoms: C_29  and  C_36
   10  A    between atoms: C_31  and  O_37
                            x       y       z     vdW  Elec       q    Type
                         _______ _______ _______ _____ _____    ______ ____

>  <TORSDO>
F 10

$$$$
=
 OpenBabel10262423043D

 37 42  0  0  1  0  0  0  0  0999 V2000
  181.7640  176.6190  139.8370 C   0  0  0  0  0  1  0  0  0  0  0  0
  183.7100  176.4010  135.8140 C   0  0  0  0  0  1  0  0  0  0  0  0
  185.0850  179.7640  139.5830 O   0  0  0  0  0  0  0  0  0  0  0  0
  183.2710  177.4230  138.0390 C   0  0  0  0  0  0  0  0  0  0  0  0
  184.5390  178.4630  139.6060 C   0  0  1  0  0  0  0  0  0  0  0  0
  182.4140  177.8350  139.1950 C   0  0  0  0  0  0  0  0  0  0  0  0
  184.6730  177.8020  138.2590 C   0  0  0  0  0  2  0  0  0  0  0  0
  181.3330  178.8020  138.7380 C   0  0  0  0  0  1  0  0  0  0  0  0
  185.6860  178.8420  140.4660 C   0  0  1  0  0  0  0  0  0  0  0  0
  182.8170  176.7920  136.9460 C   0  0  0  0  0  3  0  0  0  0  0  0
  183.2390  178.4760  140.1470 O   0  0  0  0  0  0  0  0  0  0  0  0
  187.4930  178.6820  138.7350 C   0  0  0  0  0  3  0  0  0  0  0  0
  187.0530  178.4030  140.0310 C   0  0  0  0  0  0  0  0  0  0  0  0
  187.8930  177.7090  140.9120 C   0  0  0  0  0  3  0  0  0  0  0  0
  189.6060  177.6010  139.2160 C   0  0  0  0  0  3  0  0  0  0  0  0
  188.7700  178.2880  138.3300 C   0  0  0  0  0  3  0  0  0  0  0  0
  189.1720  177.2940  140.5080 C   0  0  0  0  0  0  0  0  0  0  0  0
  190.0420  176.5930  141.3580 O   0  0  0  0  0  0  0  0  0  0  0  0
  190.5090  178.3810  142.9890 C   0  0  0  0  0  3  0  0  0  0  0  0
  190.5450  177.0330  142.5940 C   0  0  0  0  0  0  0  0  0  0  0  0
  191.0610  176.0790  143.4800 C   0  0  0  0  0  3  0  0  0  0  0  0
  192.0340  175.5280  145.5860 F   0  0  0  0  0  0  0  0  0  0  0  0
  191.4970  177.8030  145.1220 C   0  0  0  0  0  3  0  0  0  0  0  0
  191.5370  176.4610  144.7380 C   0  0  0  0  0  0  0  0  0  0  0  0
  190.9840  178.7640  144.2470 C   0  0  0  0  0  3  0  0  0  0  0  0
  185.4050  179.1700  141.9280 C   0  0  0  0  0  2  0  0  0  0  0  0
  185.1200  177.9150  142.7370 C   0  0  0  0  0  2  0  0  0  0  0  0
  184.5930  178.2720  144.0440 N   0  0  0  0  0  0  0  0  0  0  0  0
  182.2570  178.8830  143.7640 C   0  0  0  0  0  1  0  0  0  0  0  0
  183.6810  179.3860  143.8370 C   0  0  0  0  0  2  0  0  0  0  0  0
  185.7140  178.7920  144.8130 C   0  0  0  0  0  2  0  0  0  0  0  0
  187.5750  178.1630  146.2820 C   0  0  2  0  0  3  0  0  0  0  0  0
  186.3760  177.6650  145.5790 C   0  0  2  0  0  3  0  0  0  0  0  0
  187.6690  177.4530  145.0710 O   0  0  0  0  0  0  0  0  0  0  0  0
  188.3960  178.0480  148.6010 C   0  0  0  0  0  2  0  0  0  0  0  0
  189.3810  177.2990  147.7410 C   0  0  0  0  0  2  0  0  0  0  0  0
  187.9020  177.2280  147.4290 C   0  0  0  0  0  3  0  0  0  0  0  0
  2 10  1  0  0  0  0
  3  5  1  0  0  0  0
  3  9  1  0  0  0  0
  4  7  1  0  0  0  0
  4  6  1  0  0  0  0
  5  7  1  6  0  0  0
  5 11  1  0  0  0  0
  5  9  1  0  0  0  0
  6  1  1  0  0  0  0
  6 11  1  0  0  0  0
  8  6  1  0  0  0  0
  9 26  1  1  0  0  0
 10  4  2  0  0  0  0
 12 13  1  0  0  0  0
 13  9  1  0  0  0  0
 13 14  2  0  0  0  0
 15 17  2  0  0  0  0
 16 12  2  0  0  0  0
 16 15  1  0  0  0  0
 17 14  1  0  0  0  0
 17 18  1  0  0  0  0
 18 20  1  0  0  0  0
 19 25  1  0  0  0  0
 20 19  2  0  0  0  0
 20 21  1  0  0  0  0
 21 24  2  0  0  0  0
 24 23  1  0  0  0  0
 24 22  1  0  0  0  0
 25 23  2  0  0  0  0
 26 27  1  0  0  0  0
 27 28  1  0  0  0  0
 28 31  1  0  0  0  0
 29 30  1  0  0  0  0
 30 28  1  0  0  0  0
 32 37  1  1  0  0  0
 33 31  1  6  0  0  0
 33 32  1  0  0  0  0
 34 33  1  0  0  0  0
 34 32  1  0  0  0  0
 36 35  1  0  0  0  0
 37 36  1  0  0  0  0
 37 35  1  0  0  0  0
M  END
>  <MODEL>
3

>  <REMARK>
 VINA RESULT:      -8.2      2.653      6.700
  Name = 
  10 active torsions:
  status: ('A' for Active; 'I' for Inactive)
    1  A    between atoms: C_1  and  N_5
    2  A    between atoms: C_1  and  C_36
    3  A    between atoms: N_5  and  C_17
    4  A    between atoms: N_5  and  C_23
    5  A    between atoms: C_6  and  O_37
    6  A    between atoms: C_10  and  C_29
    7  A    between atoms: C_11  and  C_33
    8  A    between atoms: C_17  and  C_26
    9  A    between atoms: C_29  and  C_36
   10  A    between atoms: C_31  and  O_37
                            x       y       z     vdW  Elec       q    Type
                         _______ _______ _______ _____ _____    ______ ____

>  <TORSDO>
F 10

$$$$
=
 OpenBabel10262423043D

 37 42  0  0  1  0  0  0  0  0999 V2000
  180.2060  180.8330  140.4920 C   0  0  0  0  0  1  0  0  0  0  0  0
  179.2510  178.6120  144.2570 C   0  0  0  0  0  1  0  0  0  0  0  0
  183.3780  177.6040  141.1970 O   0  0  0  0  0  0  0  0  0  0  0  0
  180.4910  178.9980  142.1350 C   0  0  0  0  0  0  0  0  0  0  0  0
  182.6500  178.7810  141.4760 C   0  0  1  0  0  0  0  0  0  0  0  0
  180.6240  179.3860  140.6950 C   0  0  0  0  0  0  0  0  0  0  0  0
  181.7880  178.6020  142.6980 C   0  0  0  0  0  2  0  0  0  0  0  0
  179.7660  178.4850  139.8200 C   0  0  0  0  0  1  0  0  0  0  0  0
  184.1330  178.7590  141.4910 C   0  0  1  0  0  0  0  0  0  0  0  0
  179.3380  179.0100  142.8190 C   0  0  0  0  0  3  0  0  0  0  0  0
  181.9800  179.2390  140.3240 O   0  0  0  0  0  0  0  0  0  0  0  0
  184.3400  179.4980  143.8770 C   0  0  0  0  0  3  0  0  0  0  0  0
  184.8110  178.7060  142.8280 C   0  0  0  0  0  0  0  0  0  0  0  0
  185.9180  177.8710  143.0340 C   0  0  0  0  0  3  0  0  0  0  0  0
  186.0590  178.6010  145.3290 C   0  0  0  0  0  3  0  0  0  0  0  0
  184.9580  179.4400  145.1280 C   0  0  0  0  0  3  0  0  0  0  0  0
  186.5560  177.8200  144.2820 C   0  0  0  0  0  0  0  0  0  0  0  0
  187.6690  177.0010  144.5290 O   0  0  0  0  0  0  0  0  0  0  0  0
  189.3110  176.2400  142.8560 C   0  0  0  0  0  3  0  0  0  0  0  0
  188.9280  177.0850  143.9100 C   0  0  0  0  0  0  0  0  0  0  0  0
  189.8150  178.0810  144.3380 C   0  0  0  0  0  3  0  0  0  0  0  0
  191.9130  179.1990  144.1510 F   0  0  0  0  0  0  0  0  0  0  0  0
  191.4350  177.3860  142.6800 C   0  0  0  0  0  3  0  0  0  0  0  0
  191.0640  178.2310  143.7280 C   0  0  0  0  0  0  0  0  0  0  0  0
  190.5590  176.3890  142.2440 C   0  0  0  0  0  3  0  0  0  0  0  0
  184.8680  179.2990  140.2680 C   0  0  0  0  0  2  0  0  0  0  0  0
  184.7600  178.3490  139.0870 C   0  0  0  0  0  2  0  0  0  0  0  0
  185.9300  178.4780  138.2340 N   0  0  0  0  0  0  0  0  0  0  0  0
  184.5060  176.7760  137.2430 C   0  0  0  0  0  1  0  0  0  0  0  0
  185.9020  177.3530  137.3130 C   0  0  0  0  0  2  0  0  0  0  0  0
  187.0900  178.2830  139.0910 C   0  0  0  0  0  2  0  0  0  0  0  0
  189.2420  177.1320  138.8360 C   0  0  2  0  0  3  0  0  0  0  0  0
  188.3350  178.1340  138.2400 C   0  0  2  0  0  3  0  0  0  0  0  0
  189.4610  178.5130  138.9920 O   0  0  0  0  0  0  0  0  0  0  0  0
  190.9220  175.4090  138.3120 C   0  0  0  0  0  2  0  0  0  0  0  0
  191.6080  176.7480  138.2120 C   0  0  0  0  0  2  0  0  0  0  0  0
  190.1700  176.6020  137.7620 C   0  0  0  0  0  3  0  0  0  0  0  0
  1  6  1  0  0  0  0
  3  5  1  0  0  0  0
  3  9  1  0  0  0  0
  4  7  1  0  0  0  0
  4 10  2  0  0  0  0
  5  9  1  0  0  0  0
  5  7  1  1  0  0  0
  6  4  1  0  0  0  0
  8  6  1  0  0  0  0
  9 26  1  6  0  0  0
  9 13  1  0  0  0  0
 10  2  1  0  0  0  0
 11  6  1  0  0  0  0
 11  5  1  0  0  0  0
 12 16  1  0  0  0  0
 13 14  1  0  0  0  0
 13 12  2  0  0  0  0
 14 17  2  0  0  0  0
 16 15  2  0  0  0  0
 17 18  1  0  0  0  0
 17 15  1  0  0  0  0
 19 20  1  0  0  0  0
 20 21  2  0  0  0  0
 20 18  1  0  0  0  0
 23 24  2  0  0  0  0
 24 22  1  0  0  0  0
 24 21  1  0  0  0  0
 25 23  1  0  0  0  0
 25 19  2  0  0  0  0
 27 26  1  0  0  0  0
 28 27  1  0  0  0  0
 28 31  1  0  0  0  0
 29 30  1  0  0  0  0
 30 28  1  0  0  0  0
 32 37  1  6  0  0  0
 32 34  1  0  0  0  0
 33 32  1  0  0  0  0
 33 34  1  0  0  0  0
 33 31  1  1  0  0  0
 36 35  1  0  0  0  0
 37 36  1  0  0  0  0
 37 35  1  0  0  0  0
M  END
>  <MODEL>
4

>  <REMARK>
 VINA RESULT:      -8.1      2.270      6.371
  Name = 
  10 active torsions:
  status: ('A' for Active; 'I' for Inactive)
    1  A    between atoms: C_1  and  N_5
    2  A    between atoms: C_1  and  C_36
    3  A    between atoms: N_5  and  C_17
    4  A    between atoms: N_5  and  C_23
    5  A    between atoms: C_6  and  O_37
    6  A    between atoms: C_10  and  C_29
    7  A    between atoms: C_11  and  C_33
    8  A    between atoms: C_17  and  C_26
    9  A    between atoms: C_29  and  C_36
   10  A    between atoms: C_31  and  O_37
                            x       y       z     vdW  Elec       q    Type
                         _______ _______ _______ _____ _____    ______ ____

>  <TORSDO>
F 10

$$$$
=
 OpenBabel10262423043D

 37 42  0  0  1  0  0  0  0  0999 V2000
  188.1340  174.8370  136.8090 C   0  0  0  0  0  1  0  0  0  0  0  0
  192.5260  174.5040  137.5940 C   0  0  0  0  0  1  0  0  0  0  0  0
  189.5330  178.4910  139.1910 O   0  0  0  0  0  0  0  0  0  0  0  0
  190.3370  175.6850  137.5670 C   0  0  0  0  0  0  0  0  0  0  0  0
  189.2720  177.1230  138.9610 C   0  0  1  0  0  0  0  0  0  0  0  0
  189.0100  176.0660  136.9870 C   0  0  0  0  0  0  0  0  0  0  0  0
  190.5560  176.3420  138.8620 C   0  0  0  0  0  2  0  0  0  0  0  0
  189.1940  176.7540  135.6430 C   0  0  0  0  0  1  0  0  0  0  0  0
  188.8060  177.8100  140.1900 C   0  0  1  0  0  0  0  0  0  0  0  0
  191.2100  174.8550  136.9790 C   0  0  0  0  0  3  0  0  0  0  0  0
  188.3800  176.9590  137.8840 O   0  0  0  0  0  0  0  0  0  0  0  0
  190.9540  177.8790  141.4810 C   0  0  0  0  0  3  0  0  0  0  0  0
  189.5890  177.5830  141.4490 C   0  0  0  0  0  0  0  0  0  0  0  0
  188.9660  177.0710  142.5950 C   0  0  0  0  0  3  0  0  0  0  0  0
  191.0550  177.1780  143.7980 C   0  0  0  0  0  3  0  0  0  0  0  0
  191.6840  177.6840  142.6550 C   0  0  0  0  0  3  0  0  0  0  0  0
  189.6960  176.8560  143.7740 C   0  0  0  0  0  0  0  0  0  0  0  0
  189.1110  176.3410  144.9420 O   0  0  0  0  0  0  0  0  0  0  0  0
  189.4380  177.4450  147.1210 C   0  0  0  0  0  3  0  0  0  0  0  0
  188.6260  177.0790  146.0350 C   0  0  0  0  0  0  0  0  0  0  0  0
  187.2900  177.5000  146.0140 C   0  0  0  0  0  3  0  0  0  0  0  0
  185.4770  178.6720  147.0270 F   0  0  0  0  0  0  0  0  0  0  0  0
  187.5860  178.6300  148.1340 C   0  0  0  0  0  3  0  0  0  0  0  0
  186.7710  178.2700  147.0590 C   0  0  0  0  0  0  0  0  0  0  0  0
  188.9200  178.2150  148.1660 C   0  0  0  0  0  3  0  0  0  0  0  0
  187.3480  178.2520  140.2520 C   0  0  0  0  0  2  0  0  0  0  0  0
  187.0270  178.9350  141.5720 C   0  0  0  0  0  2  0  0  0  0  0  0
  185.6050  179.2260  141.6510 N   0  0  0  0  0  0  0  0  0  0  0  0
  184.7680  179.4490  143.9210 C   0  0  0  0  0  1  0  0  0  0  0  0
  185.0910  178.4920  142.7970 C   0  0  0  0  0  2  0  0  0  0  0  0
  184.9950  178.6300  140.4710 C   0  0  0  0  0  2  0  0  0  0  0  0
  183.3450  179.1060  138.7190 C   0  0  2  0  0  3  0  0  0  0  0  0
  183.7240  179.3770  140.1210 C   0  0  2  0  0  3  0  0  0  0  0  0
  183.9930  180.2980  139.0930 O   0  0  0  0  0  0  0  0  0  0  0  0
  181.2310  178.2050  137.8320 C   0  0  0  0  0  2  0  0  0  0  0  0
  181.5340  179.4690  137.0680 C   0  0  0  0  0  2  0  0  0  0  0  0
  181.8660  179.3820  138.5430 C   0  0  0  0  0  3  0  0  0  0  0  0
  1  6  1  0  0  0  0
  3  9  1  0  0  0  0
  4  7  1  0  0  0  0
  5  7  1  1  0  0  0
  5  3  1  0  0  0  0
  5  9  1  0  0  0  0
  6  4  1  0  0  0  0
  6 11  1  0  0  0  0
  8  6  1  0  0  0  0
  9 26  1  1  0  0  0
  9 13  1  0  0  0  0
 10  4  2  0  0  0  0
 10  2  1  0  0  0  0
 11  5  1  0  0  0  0
 12 16  1  0  0  0  0
 13 12  2  0  0  0  0
 13 14  1  0  0  0  0
 14 17  2  0  0  0  0
 16 15  2  0  0  0  0
 17 15  1  0  0  0  0
 17 18  1  0  0  0  0
 18 20  1  0  0  0  0
 19 25  1  0  0  0  0
 20 19  2  0  0  0  0
 21 20  1  0  0  0  0
 21 24  2  0  0  0  0
 22 24  1  0  0  0  0
 23 25  2  0  0  0  0
 24 23  1  0  0  0  0
 26 27  1  0  0  0  0
 27 28  1  0  0  0  0
 28 30  1  0  0  0  0
 30 29  1  0  0  0  0
 31 28  1  0  0  0  0
 32 37  1  1  0  0  0
 32 34  1  0  0  0  0
 32 33  1  0  0  0  0
 33 31  1  6  0  0  0
 34 33  1  0  0  0  0
 35 37  1  0  0  0  0
 36 35  1  0  0  0  0
 36 37  1  0  0  0  0
M  END
>  <MODEL>
5

>  <REMARK>
 VINA RESULT:      -8.1      2.648      4.681
  Name = 
  10 active torsions:
  status: ('A' for Active; 'I' for Inactive)
    1  A    between atoms: C_1  and  N_5
    2  A    between atoms: C_1  and  C_36
    3  A    between atoms: N_5  and  C_17
    4  A    between atoms: N_5  and  C_23
    5  A    between atoms: C_6  and  O_37
    6  A    between atoms: C_10  and  C_29
    7  A    between atoms: C_11  and  C_33
    8  A    between atoms: C_17  and  C_26
    9  A    between atoms: C_29  and  C_36
   10  A    between atoms: C_31  and  O_37
                            x       y       z     vdW  Elec       q    Type
                         _______ _______ _______ _____ _____    ______ ____

>  <TORSDO>
F 10

$$$$
=
 OpenBabel10262423043D

 37 42  0  0  1  0  0  0  0  0999 V2000
  186.7520  176.4070  137.4690 C   0  0  0  0  0  1  0  0  0  0  0  0
  190.2790  177.6660  139.9160 C   0  0  0  0  0  1  0  0  0  0  0  0
  185.4940  179.7450  140.3420 O   0  0  0  0  0  0  0  0  0  0  0  0
  187.9500  177.8750  139.0680 C   0  0  0  0  0  0  0  0  0  0  0  0
  185.9580  178.4630  139.9780 C   0  0  1  0  0  0  0  0  0  0  0  0
  186.8780  177.8160  138.0250 C   0  0  0  0  0  0  0  0  0  0  0  0
  187.4020  178.2850  140.3670 C   0  0  0  0  0  2  0  0  0  0  0  0
  187.1870  178.7810  136.8890 C   0  0  0  0  0  1  0  0  0  0  0  0
  184.8490  178.6450  140.9460 C   0  0  1  0  0  0  0  0  0  0  0  0
  189.2420  177.5920  138.8430 C   0  0  0  0  0  3  0  0  0  0  0  0
  185.6560  178.1870  138.6300 O   0  0  0  0  0  0  0  0  0  0  0  0
  184.3460  179.0820  143.3630 C   0  0  0  0  0  3  0  0  0  0  0  0
  185.1710  178.4900  142.4030 C   0  0  0  0  0  0  0  0  0  0  0  0
  186.2950  177.7610  142.8130 C   0  0  0  0  0  3  0  0  0  0  0  0
  185.7530  178.1940  145.1240 C   0  0  0  0  0  3  0  0  0  0  0  0
  184.6320  178.9280  144.7210 C   0  0  0  0  0  3  0  0  0  0  0  0
  186.6000  177.6150  144.1750 C   0  0  0  0  0  0  0  0  0  0  0  0
  187.7180  176.8970  144.6260 O   0  0  0  0  0  0  0  0  0  0  0  0
  189.7360  176.0510  143.4920 C   0  0  0  0  0  3  0  0  0  0  0  0
  189.0460  177.0520  144.1960 C   0  0  0  0  0  0  0  0  0  0  0  0
  189.6890  178.2710  144.4470 C   0  0  0  0  0  3  0  0  0  0  0  0
  191.6080  179.6730  144.2520 F   0  0  0  0  0  0  0  0  0  0  0  0
  191.6740  177.4880  143.3040 C   0  0  0  0  0  3  0  0  0  0  0  0
  190.9970  178.4890  144.0050 C   0  0  0  0  0  0  0  0  0  0  0  0
  191.0430  176.2680  143.0480 C   0  0  0  0  0  3  0  0  0  0  0  0
  183.4220  178.4590  140.4420 C   0  0  0  0  0  2  0  0  0  0  0  0
  183.0930  176.9910  140.2250 C   0  0  0  0  0  2  0  0  0  0  0  0
  182.0880  176.8530  139.1840 N   0  0  0  0  0  0  0  0  0  0  0  0
  181.7960  178.2960  137.2510 C   0  0  0  0  0  1  0  0  0  0  0  0
  181.7400  178.1990  138.7580 C   0  0  0  0  0  2  0  0  0  0  0  0
  180.9030  176.3020  139.8250 C   0  0  0  0  0  2  0  0  0  0  0  0
  179.9840  177.3350  141.8510 C   0  0  2  0  0  3  0  0  0  0  0  0
  180.0520  177.4270  140.3790 C   0  0  2  0  0  3  0  0  0  0  0  0
  178.9320  176.8850  141.0340 O   0  0  0  0  0  0  0  0  0  0  0  0
  180.8740  179.3370  142.9770 C   0  0  0  0  0  2  0  0  0  0  0  0
  179.8710  178.7090  143.9100 C   0  0  0  0  0  2  0  0  0  0  0  0
  179.6240  178.6940  142.4170 C   0  0  0  0  0  3  0  0  0  0  0  0
  1  6  1  0  0  0  0
  3  9  1  0  0  0  0
  4  7  1  0  0  0  0
  5  3  1  0  0  0  0
  5  7  1  1  0  0  0
  5  9  1  0  0  0  0
  6 11  1  0  0  0  0
  6  4  1  0  0  0  0
  8  6  1  0  0  0  0
  9 26  1  6  0  0  0
  9 13  1  0  0  0  0
 10  4  2  0  0  0  0
 10  2  1  0  0  0  0
 11  5  1  0  0  0  0
 12 16  1  0  0  0  0
 13 14  1  0  0  0  0
 13 12  2  0  0  0  0
 14 17  2  0  0  0  0
 16 15  2  0  0  0  0
 17 18  1  0  0  0  0
 17 15  1  0  0  0  0
 19 20  1  0  0  0  0
 20 21  2  0  0  0  0
 20 18  1  0  0  0  0
 23 24  2  0  0  0  0
 24 22  1  0  0  0  0
 24 21  1  0  0  0  0
 25 23  1  0  0  0  0
 25 19  2  0  0  0  0
 27 26  1  0  0  0  0
 28 31  1  0  0  0  0
 28 27  1  0  0  0  0
 29 30  1  0  0  0  0
 30 28  1  0  0  0  0
 32 37  1  1  0  0  0
 33 31  1  6  0  0  0
 33 34  1  0  0  0  0
 33 32  1  0  0  0  0
 34 32  1  0  0  0  0
 35 36  1  0  0  0  0
 37 35  1  0  0  0  0
 37 36  1  0  0  0  0
M  END
>  <MODEL>
6

>  <REMARK>
 VINA RESULT:      -7.9      2.412      3.300
  Name = 
  10 active torsions:
  status: ('A' for Active; 'I' for Inactive)
    1  A    between atoms: C_1  and  N_5
    2  A    between atoms: C_1  and  C_36
    3  A    between atoms: N_5  and  C_17
    4  A    between atoms: N_5  and  C_23
    5  A    between atoms: C_6  and  O_37
    6  A    between atoms: C_10  and  C_29
    7  A    between atoms: C_11  and  C_33
    8  A    between atoms: C_17  and  C_26
    9  A    between atoms: C_29  and  C_36
   10  A    between atoms: C_31  and  O_37
                            x       y       z     vdW  Elec       q    Type
                         _______ _______ _______ _____ _____    ______ ____

>  <TORSDO>
F 10

$$$$
=
 OpenBabel10262423043D

 37 42  0  0  1  0  0  0  0  0999 V2000
  186.7590  176.4510  137.3500 C   0  0  0  0  0  1  0  0  0  0  0  0
  190.2840  177.6270  139.8410 C   0  0  0  0  0  1  0  0  0  0  0  0
  185.5200  179.7530  140.2730 O   0  0  0  0  0  0  0  0  0  0  0  0
  187.9630  177.8770  138.9820 C   0  0  0  0  0  0  0  0  0  0  0  0
  185.9720  178.4730  139.8900 C   0  0  1  0  0  0  0  0  0  0  0  0
  186.8970  177.8490  137.9310 C   0  0  0  0  0  0  0  0  0  0  0  0
  187.4110  178.2710  140.2850 C   0  0  0  0  0  2  0  0  0  0  0  0
  187.2240  178.8290  136.8150 C   0  0  0  0  0  1  0  0  0  0  0  0
  184.8590  178.6510  140.8540 C   0  0  1  0  0  0  0  0  0  0  0  0
  189.2530  177.5830  138.7610 C   0  0  0  0  0  3  0  0  0  0  0  0
  185.6750  178.2230  138.5350 O   0  0  0  0  0  0  0  0  0  0  0  0
  184.3220  179.0160  143.2760 C   0  0  0  0  0  3  0  0  0  0  0  0
  185.1700  178.4670  142.3100 C   0  0  0  0  0  0  0  0  0  0  0  0
  186.3050  177.7520  142.7140 C   0  0  0  0  0  3  0  0  0  0  0  0
  185.7310  178.1160  145.0290 C   0  0  0  0  0  3  0  0  0  0  0  0
  184.5980  178.8350  144.6330 C   0  0  0  0  0  3  0  0  0  0  0  0
  186.6000  177.5800  144.0750 C   0  0  0  0  0  0  0  0  0  0  0  0
  187.7290  176.8750  144.5200 O   0  0  0  0  0  0  0  0  0  0  0  0
  189.7380  176.1130  143.3130 C   0  0  0  0  0  3  0  0  0  0  0  0
  189.0560  177.0590  144.0970 C   0  0  0  0  0  0  0  0  0  0  0  0
  189.7040  178.2520  144.4370 C   0  0  0  0  0  3  0  0  0  0  0  0
  191.6280  179.6590  144.3420 F   0  0  0  0  0  0  0  0  0  0  0  0
  191.6800  177.5550  143.2270 C   0  0  0  0  0  3  0  0  0  0  0  0
  191.0110  178.5000  144.0070 C   0  0  0  0  0  0  0  0  0  0  0  0
  191.0440  176.3600  142.8800 C   0  0  0  0  0  3  0  0  0  0  0  0
  183.4340  178.4900  140.3380 C   0  0  0  0  0  2  0  0  0  0  0  0
  183.0430  177.0250  140.2240 C   0  0  0  0  0  2  0  0  0  0  0  0
  182.0810  176.8470  139.1480 N   0  0  0  0  0  0  0  0  0  0  0  0
  180.0410  176.3730  140.3810 C   0  0  0  0  0  1  0  0  0  0  0  0
  181.1750  175.7900  139.5680 C   0  0  0  0  0  2  0  0  0  0  0  0
  182.8260  176.3260  138.0110 C   0  0  0  0  0  2  0  0  0  0  0  0
  183.9440  174.3290  137.1290 C   0  0  2  0  0  3  0  0  0  0  0  0
  183.0340  174.8340  138.1760 C   0  0  2  0  0  3  0  0  0  0  0  0
  182.5490  174.1670  137.0370 O   0  0  0  0  0  0  0  0  0  0  0  0
  185.8790  172.8260  136.8750 C   0  0  0  0  0  2  0  0  0  0  0  0
  184.6580  172.0610  136.4330 C   0  0  0  0  0  2  0  0  0  0  0  0
  184.5630  173.0260  137.5950 C   0  0  0  0  0  3  0  0  0  0  0  0
  1  6  1  0  0  0  0
  3  9  1  0  0  0  0
  4  7  1  0  0  0  0
  5  3  1  0  0  0  0
  5  7  1  1  0  0  0
  5  9  1  0  0  0  0
  6 11  1  0  0  0  0
  6  4  1  0  0  0  0
  8  6  1  0  0  0  0
  9 26  1  6  0  0  0
  9 13  1  0  0  0  0
 10  4  2  0  0  0  0
 10  2  1  0  0  0  0
 11  5  1  0  0  0  0
 12 16  1  0  0  0  0
 13 14  1  0  0  0  0
 13 12  2  0  0  0  0
 14 17  2  0  0  0  0
 16 15  2  0  0  0  0
 17 18  1  0  0  0  0
 17 15  1  0  0  0  0
 19 20  1  0  0  0  0
 20 21  2  0  0  0  0
 20 18  1  0  0  0  0
 23 24  2  0  0  0  0
 24 22  1  0  0  0  0
 24 21  1  0  0  0  0
 25 23  1  0  0  0  0
 25 19  2  0  0  0  0
 27 26  1  0  0  0  0
 28 30  1  0  0  0  0
 28 27  1  0  0  0  0
 30 29  1  0  0  0  0
 31 28  1  0  0  0  0
 32 37  1  1  0  0  0
 32 33  1  0  0  0  0
 33 31  1  6  0  0  0
 34 32  1  0  0  0  0
 34 33  1  0  0  0  0
 35 37  1  0  0  0  0
 36 35  1  0  0  0  0
 36 37  1  0  0  0  0
M  END
>  <MODEL>
7

>  <REMARK>
 VINA RESULT:      -7.9      2.822      4.434
  Name = 
  10 active torsions:
  status: ('A' for Active; 'I' for Inactive)
    1  A    between atoms: C_1  and  N_5
    2  A    between atoms: C_1  and  C_36
    3  A    between atoms: N_5  and  C_17
    4  A    between atoms: N_5  and  C_23
    5  A    between atoms: C_6  and  O_37
    6  A    between atoms: C_10  and  C_29
    7  A    between atoms: C_11  and  C_33
    8  A    between atoms: C_17  and  C_26
    9  A    between atoms: C_29  and  C_36
   10  A    between atoms: C_31  and  O_37
                            x       y       z     vdW  Elec       q    Type
                         _______ _______ _______ _____ _____    ______ ____

>  <TORSDO>
F 10

$$$$
=
 OpenBabel10262423043D

 37 42  0  0  1  0  0  0  0  0999 V2000
  188.6840  176.3400  138.9930 C   0  0  0  0  0  1  0  0  0  0  0  0
  190.9790  177.6280  142.6110 C   0  0  0  0  0  1  0  0  0  0  0  0
  186.5250  179.8500  140.9920 O   0  0  0  0  0  0  0  0  0  0  0  0
  189.2010  177.8550  140.8860 C   0  0  0  0  0  0  0  0  0  0  0  0
  187.0380  178.5400  140.8920 C   0  0  1  0  0  0  0  0  0  0  0  0
  188.6380  177.7710  139.5010 C   0  0  0  0  0  0  0  0  0  0  0  0
  188.1940  178.3440  141.8370 C   0  0  0  0  0  2  0  0  0  0  0  0
  189.4200  178.6690  138.5540 C   0  0  0  0  0  1  0  0  0  0  0  0
  185.6430  178.7990  141.3220 C   0  0  1  0  0  0  0  0  0  0  0  0
  190.4590  177.5270  141.2130 C   0  0  0  0  0  3  0  0  0  0  0  0
  187.2930  178.2040  139.5470 O   0  0  0  0  0  0  0  0  0  0  0  0
  184.2990  179.4620  143.3320 C   0  0  0  0  0  3  0  0  0  0  0  0
  185.3430  178.7100  142.7890 C   0  0  0  0  0  0  0  0  0  0  0  0
  186.1050  177.8810  143.6240 C   0  0  0  0  0  3  0  0  0  0  0  0
  184.7660  178.5380  145.5210 C   0  0  0  0  0  3  0  0  0  0  0  0
  184.0060  179.3710  144.6940 C   0  0  0  0  0  3  0  0  0  0  0  0
  185.8280  177.7960  144.9970 C   0  0  0  0  0  0  0  0  0  0  0  0
  186.5690  176.9820  145.8680 O   0  0  0  0  0  0  0  0  0  0  0  0
  187.7510  177.8520  147.8480 C   0  0  0  0  0  3  0  0  0  0  0  0
  187.7510  177.3310  146.5430 C   0  0  0  0  0  0  0  0  0  0  0  0
  188.9760  177.1090  145.9010 C   0  0  0  0  0  3  0  0  0  0  0  0
  191.3590  177.1820  145.9140 F   0  0  0  0  0  0  0  0  0  0  0  0
  190.1710  177.9190  147.8430 C   0  0  0  0  0  3  0  0  0  0  0  0
  190.1810  177.4020  146.5460 C   0  0  0  0  0  0  0  0  0  0  0  0
  188.9550  178.1450  148.4950 C   0  0  0  0  0  3  0  0  0  0  0  0
  184.5330  178.6250  140.2910 C   0  0  0  0  0  2  0  0  0  0  0  0
  183.3740  177.8160  140.8490 C   0  0  0  0  0  2  0  0  0  0  0  0
  182.6560  177.1600  139.7680 N   0  0  0  0  0  0  0  0  0  0  0  0
  182.1260  178.0670  137.5770 C   0  0  0  0  0  1  0  0  0  0  0  0
  183.2280  177.6560  138.5270 C   0  0  0  0  0  2  0  0  0  0  0  0
  181.2890  177.6550  139.8200 C   0  0  0  0  0  2  0  0  0  0  0  0
  180.2360  178.2560  141.9530 C   0  0  2  0  0  3  0  0  0  0  0  0
  181.1670  178.7100  140.9000 C   0  0  2  0  0  3  0  0  0  0  0  0
  179.8390  179.1680  140.9570 O   0  0  0  0  0  0  0  0  0  0  0  0
  179.6520  178.4590  144.3370 C   0  0  0  0  0  2  0  0  0  0  0  0
  179.2830  179.7620  143.6740 C   0  0  0  0  0  2  0  0  0  0  0  0
  180.5240  179.0160  143.2320 C   0  0  0  0  0  3  0  0  0  0  0  0
  1  6  1  0  0  0  0
  3  9  1  0  0  0  0
  4 10  2  0  0  0  0
  4  7  1  0  0  0  0
  5  3  1  0  0  0  0
  5  9  1  0  0  0  0
  5  7  1  1  0  0  0
  6 11  1  0  0  0  0
  6  4  1  0  0  0  0
  8  6  1  0  0  0  0
  9 26  1  6  0  0  0
  9 13  1  0  0  0  0
 10  2  1  0  0  0  0
 11  5  1  0  0  0  0
 12 16  1  0  0  0  0
 13 12  2  0  0  0  0
 13 14  1  0  0  0  0
 14 17  2  0  0  0  0
 16 15  2  0  0  0  0
 17 15  1  0  0  0  0
 17 18  1  0  0  0  0
 18 20  1  0  0  0  0
 19 25  1  0  0  0  0
 20 19  2  0  0  0  0
 21 20  1  0  0  0  0
 21 24  2  0  0  0  0
 22 24  1  0  0  0  0
 23 25  2  0  0  0  0
 24 23  1  0  0  0  0
 26 27  1  0  0  0  0
 28 31  1  0  0  0  0
 28 27  1  0  0  0  0
 29 30  1  0  0  0  0
 30 28  1  0  0  0  0
 32 37  1  1  0  0  0
 33 31  1  6  0  0  0
 33 34  1  0  0  0  0
 33 32  1  0  0  0  0
 34 32  1  0  0  0  0
 36 35  1  0  0  0  0
 37 36  1  0  0  0  0
 37 35  1  0  0  0  0
M  END
>  <MODEL>
8

>  <REMARK>
 VINA RESULT:      -7.8      2.744      3.875
  Name = 
  10 active torsions:
  status: ('A' for Active; 'I' for Inactive)
    1  A    between atoms: C_1  and  N_5
    2  A    between atoms: C_1  and  C_36
    3  A    between atoms: N_5  and  C_17
    4  A    between atoms: N_5  and  C_23
    5  A    between atoms: C_6  and  O_37
    6  A    between atoms: C_10  and  C_29
    7  A    between atoms: C_11  and  C_33
    8  A    between atoms: C_17  and  C_26
    9  A    between atoms: C_29  and  C_36
   10  A    between atoms: C_31  and  O_37
                            x       y       z     vdW  Elec       q    Type
                         _______ _______ _______ _____ _____    ______ ____

>  <TORSDO>
F 10

$$$$
=
 OpenBabel10262423043D

 37 42  0  0  1  0  0  0  0  0999 V2000
  179.0170  178.9210  139.5330 C   0  0  0  0  0  1  0  0  0  0  0  0
  180.3750  180.7360  135.6760 C   0  0  0  0  0  1  0  0  0  0  0  0
  183.4460  180.0430  139.8580 O   0  0  0  0  0  0  0  0  0  0  0  0
  180.6250  180.1150  138.0720 C   0  0  0  0  0  0  0  0  0  0  0  0
  182.3250  179.3450  139.3610 C   0  0  1  0  0  0  0  0  0  0  0  0
  180.1520  179.9310  139.4800 C   0  0  0  0  0  0  0  0  0  0  0  0
  182.0380  179.7380  137.9350 C   0  0  0  0  0  2  0  0  0  0  0  0
  179.6770  181.2550  140.0590 C   0  0  0  0  0  1  0  0  0  0  0  0
  183.5520  178.6370  139.8000 C   0  0  1  0  0  0  0  0  0  0  0  0
  179.8590  180.5660  137.0680 C   0  0  0  0  0  3  0  0  0  0  0  0
  181.2370  179.4500  140.2480 O   0  0  0  0  0  0  0  0  0  0  0  0
  184.0480  177.2250  137.7890 C   0  0  0  0  0  3  0  0  0  0  0  0
  184.4910  178.1530  138.7340 C   0  0  0  0  0  0  0  0  0  0  0  0
  185.8110  178.6200  138.6790 C   0  0  0  0  0  3  0  0  0  0  0  0
  186.2280  177.2560  136.7330 C   0  0  0  0  0  3  0  0  0  0  0  0
  184.9130  176.7820  136.7850 C   0  0  0  0  0  3  0  0  0  0  0  0
  186.6920  178.1670  137.6860 C   0  0  0  0  0  0  0  0  0  0  0  0
  188.0220  178.6060  137.5990 O   0  0  0  0  0  0  0  0  0  0  0  0
  189.9690  177.1620  137.1540 C   0  0  0  0  0  3  0  0  0  0  0  0
  189.1660  177.9120  138.0290 C   0  0  0  0  0  0  0  0  0  0  0  0
  189.5380  178.0110  139.3750 C   0  0  0  0  0  3  0  0  0  0  0  0
  191.0390  177.4750  141.1490 F   0  0  0  0  0  0  0  0  0  0  0  0
  191.4820  176.6290  138.9660 C   0  0  0  0  0  3  0  0  0  0  0  0
  190.6890  177.3710  139.8440 C   0  0  0  0  0  0  0  0  0  0  0  0
  191.1220  176.5230  137.6200 C   0  0  0  0  0  3  0  0  0  0  0  0
  183.5510  177.9960  141.1830 C   0  0  0  0  0  2  0  0  0  0  0  0
  184.3440  178.8230  142.1830 C   0  0  0  0  0  2  0  0  0  0  0  0
  185.0190  177.9500  143.1290 N   0  0  0  0  0  0  0  0  0  0  0  0
  183.5870  179.0070  144.7840 C   0  0  0  0  0  1  0  0  0  0  0  0
  185.0040  178.6350  144.4120 C   0  0  0  0  0  2  0  0  0  0  0  0
  186.4110  177.8840  142.7110 C   0  0  0  0  0  2  0  0  0  0  0  0
  188.6820  177.3770  143.4900 C   0  0  2  0  0  3  0  0  0  0  0  0
  187.2450  177.2520  143.8070 C   0  0  2  0  0  3  0  0  0  0  0  0
  187.9790  176.1780  143.2720 O   0  0  0  0  0  0  0  0  0  0  0  0
  190.6480  178.2220  144.7090 C   0  0  0  0  0  2  0  0  0  0  0  0
  190.8780  176.7540  144.4520 C   0  0  0  0  0  2  0  0  0  0  0  0
  189.4850  177.2550  144.7690 C   0  0  0  0  0  3  0  0  0  0  0  0
  2 10  1  0  0  0  0
  4  6  1  0  0  0  0
  5  7  1  6  0  0  0
  5  9  1  0  0  0  0
  5  3  1  0  0  0  0
  5 11  1  0  0  0  0
  6  1  1  0  0  0  0
  6  8  1  0  0  0  0
  6 11  1  0  0  0  0
  7  4  1  0  0  0  0
  9  3  1  0  0  0  0
  9 26  1  1  0  0  0
 10  4  2  0  0  0  0
 12 13  1  0  0  0  0
 13  9  1  0  0  0  0
 14 13  2  0  0  0  0
 15 16  1  0  0  0  0
 15 17  2  0  0  0  0
 16 12  2  0  0  0  0
 17 14  1  0  0  0  0
 18 17  1  0  0  0  0
 18 20  1  0  0  0  0
 19 25  2  0  0  0  0
 19 20  1  0  0  0  0
 20 21  2  0  0  0  0
 21 24  1  0  0  0  0
 23 24  2  0  0  0  0
 24 22  1  0  0  0  0
 25 23  1  0  0  0  0
 26 27  1  0  0  0  0
 27 28  1  0  0  0  0
 28 30  1  0  0  0  0
 30 29  1  0  0  0  0
 31 28  1  0  0  0  0
 32 33  1  0  0  0  0
 32 37  1  1  0  0  0
 33 31  1  6  0  0  0
 34 32  1  0  0  0  0
 34 33  1  0  0  0  0
 35 37  1  0  0  0  0
 36 35  1  0  0  0  0
 36 37  1  0  0  0  0
M  END
>  <MODEL>
9

>  <REMARK>
 VINA RESULT:      -7.8      2.109      7.458
  Name = 
  10 active torsions:
  status: ('A' for Active; 'I' for Inactive)
    1  A    between atoms: C_1  and  N_5
    2  A    between atoms: C_1  and  C_36
    3  A    between atoms: N_5  and  C_17
    4  A    between atoms: N_5  and  C_23
    5  A    between atoms: C_6  and  O_37
    6  A    between atoms: C_10  and  C_29
    7  A    between atoms: C_11  and  C_33
    8  A    between atoms: C_17  and  C_26
    9  A    between atoms: C_29  and  C_36
   10  A    between atoms: C_31  and  O_37
                            x       y       z     vdW  Elec       q    Type
                         _______ _______ _______ _____ _____    ______ ____

>  <TORSDO>
F 10

$$$$
