=
 OpenBabel10262420113D

 27 31  0  0  1  0  0  0  0  0999 V2000
  186.8160  177.7670  142.3580 C   0  0  2  0  0  3  0  0  0  0  0  0
  186.6450  177.4600  143.8650 C   0  0  2  0  0  3  0  0  0  0  0  0
  188.9070  177.6690  143.4110 C   0  0  0  0  0  0  0  0  0  0  0  0
  187.7210  178.1280  148.2410 S   0  0  0  0  0  0  0  0  0  0  0  0
  190.4840  177.9550  148.7230 C   0  0  0  0  0  1  0  0  0  0  0  0
  185.6610  178.3200  144.6790 C   0  0  0  0  0  2  0  0  0  0  0  0
  189.4700  177.7300  146.4500 N   0  0  0  0  0  0  0  0  0  0  0  0
  190.4420  177.6000  141.0020 C   0  0  2  0  0  3  0  0  0  0  0  0
  190.7630  179.1220  143.5990 O   0  0  0  0  0  1  0  0  0  0  0  0
  191.1050  176.9820  139.9410 O   0  0  0  0  0  1  0  0  0  0  0  0
  188.2580  177.7430  145.8360 C   0  0  0  0  0  0  0  0  0  0  0  0
  189.3340  177.9260  147.7820 C   0  0  0  0  0  0  0  0  0  0  0  0
  187.1700  177.9740  146.6620 C   0  0  0  0  0  0  0  0  0  0  0  0
  188.2640  177.7500  142.1480 N   0  0  0  0  0  0  0  0  0  0  0  0
  188.0330  177.5920  144.3970 C   0  0  0  0  0  0  0  0  0  0  0  0
  191.0460  177.1110  142.3250 C   0  0  0  0  0  2  0  0  0  0  0  0
  185.7420  177.9900  146.1850 C   0  0  0  0  0  2  0  0  0  0  0  0
  188.3420  177.9780  139.7070 C   0  0  0  0  0  1  0  0  0  0  0  0
  188.9370  177.2960  140.9280 C   0  0  1  0  0  3  0  0  0  0  0  0
  190.3910  177.7780  143.5360 C   0  0  2  0  0  3  0  0  0  0  0  0
  186.1950  179.1010  141.8920 C   0  0  0  0  0  2  0  0  0  0  0  0
  182.5100  179.1710  139.6880 C   0  0  0  0  0  2  0  0  0  0  0  0
  184.9800  178.9590  141.0180 C   0  0  0  0  0  0  0  0  0  0  0  0
  183.8370  178.1010  141.5130 C   0  0  0  0  0  2  0  0  0  0  0  0
  182.7450  177.8890  140.4670 C   0  0  0  0  0  2  0  0  0  0  0  0
  183.8060  179.5140  138.9710 C   0  0  0  0  0  2  0  0  0  0  0  0
  184.9150  179.6090  139.9010 N   0  0  0  0  0  0  0  0  0  0  0  0
  1 21  1  1  0  0  0
  1  2  1  0  0  0  0
  2 15  1  0  0  0  0
  2  6  1  1  0  0  0
  3 20  1  0  0  0  0
  3 15  2  0  0  0  0
  6 17  1  0  0  0  0
  7 12  2  0  0  0  0
  8 10  1  6  0  0  0
  8 16  1  0  0  0  0
 11  7  1  0  0  0  0
 11 13  2  0  0  0  0
 12  4  1  0  0  0  0
 12  5  1  0  0  0  0
 13  4  1  0  0  0  0
 14  1  1  0  0  0  0
 14  3  1  0  0  0  0
 15 11  1  0  0  0  0
 16 20  1  0  0  0  0
 17 13  1  0  0  0  0
 19 18  1  6  0  0  0
 19  8  1  0  0  0  0
 19 14  1  0  0  0  0
 20  9  1  6  0  0  0
 22 25  1  0  0  0  0
 23 24  1  0  0  0  0
 23 21  1  0  0  0  0
 25 24  1  0  0  0  0
 26 22  1  0  0  0  0
 26 27  1  0  0  0  0
 27 23  2  0  0  0  0
M  END
>  <MODEL>
1

>  <REMARK>
 VINA RESULT:      -9.7      0.000      0.000
  Name = 
  2 active torsions:
  status: ('A' for Active; 'I' for Inactive)
    1  A    between atoms: C_1  and  C_15
    2  A    between atoms: C_9  and  C_15
                            x       y       z     vdW  Elec       q    Type
                         _______ _______ _______ _____ _____    ______ ____

>  <TORSDO>
F 2

$$$$
=
 OpenBabel10262420113D

 27 31  0  0  1  0  0  0  0  0999 V2000
  187.7590  178.2250  143.0630 C   0  0  2  0  0  3  0  0  0  0  0  0
  188.2230  178.4970  141.6120 C   0  0  2  0  0  3  0  0  0  0  0  0
  189.9050  177.3480  142.7160 C   0  0  0  0  0  0  0  0  0  0  0  0
  190.2310  177.2000  137.7350 S   0  0  0  0  0  0  0  0  0  0  0  0
  192.7970  176.1280  138.1410 C   0  0  0  0  0  1  0  0  0  0  0  0
  187.2790  178.1100  140.4590 C   0  0  0  0  0  2  0  0  0  0  0  0
  191.3150  176.8890  140.0040 N   0  0  0  0  0  0  0  0  0  0  0  0
  190.4710  176.8670  145.4750 C   0  0  2  0  0  3  0  0  0  0  0  0
  190.9120  175.2250  142.9710 O   0  0  0  0  0  1  0  0  0  0  0  0
  190.9610  177.1890  146.7410 O   0  0  0  0  0  1  0  0  0  0  0  0
  190.0900  177.4380  140.2130 C   0  0  0  0  0  0  0  0  0  0  0  0
  191.5380  176.7030  138.6820 C   0  0  0  0  0  0  0  0  0  0  0  0
  189.3310  177.6610  139.0750 C   0  0  0  0  0  0  0  0  0  0  0  0
  188.9260  177.6210  143.7080 N   0  0  0  0  0  0  0  0  0  0  0  0
  189.5090  177.7470  141.5220 C   0  0  0  0  0  0  0  0  0  0  0  0
  191.6100  176.9740  144.4530 C   0  0  0  0  0  2  0  0  0  0  0  0
  187.9650  178.2930  139.0880 C   0  0  0  0  0  2  0  0  0  0  0  0
  188.1230  177.5100  146.0220 C   0  0  0  0  0  1  0  0  0  0  0  0
  189.3040  177.8000  145.1120 C   0  0  1  0  0  3  0  0  0  0  0  0
  191.1530  176.5980  143.0420 C   0  0  2  0  0  3  0  0  0  0  0  0
  186.5150  177.3210  143.1900 C   0  0  0  0  0  2  0  0  0  0  0  0
  182.6480  178.8580  144.2530 C   0  0  0  0  0  2  0  0  0  0  0  0
  185.2390  178.0470  143.5130 C   0  0  0  0  0  0  0  0  0  0  0  0
  184.2130  178.2200  142.4150 C   0  0  0  0  0  2  0  0  0  0  0  0
  183.0490  179.1240  142.8130 C   0  0  0  0  0  2  0  0  0  0  0  0
  183.8450  179.1950  145.1300 C   0  0  0  0  0  2  0  0  0  0  0  0
  185.0230  178.4550  144.7220 N   0  0  0  0  0  0  0  0  0  0  0  0
  1 21  1  6  0  0  0
  1 14  1  0  0  0  0
  2  6  1  6  0  0  0
  2  1  1  0  0  0  0
  3 20  1  0  0  0  0
  3 14  1  0  0  0  0
  4 12  1  0  0  0  0
  4 13  1  0  0  0  0
  5 12  1  0  0  0  0
  7 11  1  0  0  0  0
  8 10  1  1  0  0  0
 11 15  1  0  0  0  0
 12  7  2  0  0  0  0
 13 17  1  0  0  0  0
 13 11  2  0  0  0  0
 14 19  1  0  0  0  0
 15  2  1  0  0  0  0
 15  3  2  0  0  0  0
 16  8  1  0  0  0  0
 17  6  1  0  0  0  0
 19  8  1  0  0  0  0
 19 18  1  1  0  0  0
 20  9  1  1  0  0  0
 20 16  1  0  0  0  0
 21 23  1  0  0  0  0
 22 26  1  0  0  0  0
 23 27  2  0  0  0  0
 24 25  1  0  0  0  0
 24 23  1  0  0  0  0
 25 22  1  0  0  0  0
 27 26  1  0  0  0  0
M  END
>  <MODEL>
2

>  <REMARK>
 VINA RESULT:      -8.7      3.054      5.520
  Name = 
  2 active torsions:
  status: ('A' for Active; 'I' for Inactive)
    1  A    between atoms: C_1  and  C_15
    2  A    between atoms: C_9  and  C_15
                            x       y       z     vdW  Elec       q    Type
                         _______ _______ _______ _____ _____    ______ ____

>  <TORSDO>
F 2

$$$$
=
 OpenBabel10262420113D

 27 31  0  0  1  0  0  0  0  0999 V2000
  187.6530  177.7130  141.6960 C   0  0  2  0  0  3  0  0  0  0  0  0
  187.1450  177.4080  143.1250 C   0  0  2  0  0  3  0  0  0  0  0  0
  189.4410  177.7030  143.2110 C   0  0  0  0  0  0  0  0  0  0  0  0
  187.1390  178.1410  147.6210 S   0  0  0  0  0  0  0  0  0  0  0  0
  189.7160  178.0790  148.7390 C   0  0  0  0  0  1  0  0  0  0  0  0
  185.9660  178.2330  143.6730 C   0  0  0  0  0  2  0  0  0  0  0  0
  189.2720  177.8030  146.2960 N   0  0  0  0  0  0  0  0  0  0  0  0
  191.5000  177.6820  141.2290 C   0  0  2  0  0  3  0  0  0  0  0  0
  191.1460  179.2290  143.8070 O   0  0  0  0  0  1  0  0  0  0  0  0
  192.4160  177.0850  140.3620 O   0  0  0  0  0  1  0  0  0  0  0  0
  188.2380  177.7650  145.4150 C   0  0  0  0  0  0  0  0  0  0  0  0
  188.8210  178.0010  147.5560 C   0  0  0  0  0  0  0  0  0  0  0  0
  186.9790  177.9570  145.9600 C   0  0  0  0  0  0  0  0  0  0  0  0
  189.1100  177.7530  141.8310 N   0  0  0  0  0  0  0  0  0  0  0  0
  188.3640  177.5970  143.9650 C   0  0  0  0  0  0  0  0  0  0  0  0
  191.7940  177.2250  142.6640 C   0  0  0  0  0  2  0  0  0  0  0  0
  185.7040  177.9150  145.1610 C   0  0  0  0  0  2  0  0  0  0  0  0
  189.7500  177.9700  139.4730 C   0  0  0  0  0  1  0  0  0  0  0  0
  190.0660  177.3180  140.8100 C   0  0  1  0  0  3  0  0  0  0  0  0
  190.8490  177.8710  143.6780 C   0  0  2  0  0  3  0  0  0  0  0  0
  187.1100  179.0200  141.0780 C   0  0  0  0  0  2  0  0  0  0  0  0
  183.8150  178.0050  138.5180 C   0  0  0  0  0  2  0  0  0  0  0  0
  186.0140  178.8300  140.0660 C   0  0  0  0  0  0  0  0  0  0  0  0
  186.2850  177.9390  138.8740 C   0  0  0  0  0  2  0  0  0  0  0  0
  185.1690  177.9690  137.8320 C   0  0  0  0  0  2  0  0  0  0  0  0
  183.7490  179.2870  139.3340 C   0  0  0  0  0  2  0  0  0  0  0  0
  184.8590  179.3780  140.2630 N   0  0  0  0  0  0  0  0  0  0  0  0
  1 21  1  1  0  0  0
  1 14  1  0  0  0  0
  1  2  1  0  0  0  0
  2  6  1  1  0  0  0
  2 15  1  0  0  0  0
  3 20  1  0  0  0  0
  3 15  2  0  0  0  0
  6 17  1  0  0  0  0
  7 12  2  0  0  0  0
  8 10  1  6  0  0  0
  8 16  1  0  0  0  0
 11 13  2  0  0  0  0
 11  7  1  0  0  0  0
 12  4  1  0  0  0  0
 12  5  1  0  0  0  0
 13  4  1  0  0  0  0
 14  3  1  0  0  0  0
 15 11  1  0  0  0  0
 16 20  1  0  0  0  0
 17 13  1  0  0  0  0
 19 18  1  6  0  0  0
 19  8  1  0  0  0  0
 19 14  1  0  0  0  0
 20  9  1  6  0  0  0
 22 26  1  0  0  0  0
 23 27  2  0  0  0  0
 23 21  1  0  0  0  0
 24 23  1  0  0  0  0
 25 22  1  0  0  0  0
 25 24  1  0  0  0  0
 26 27  1  0  0  0  0
M  END
>  <MODEL>
3

>  <REMARK>
 VINA RESULT:      -8.6      1.065      1.356
  Name = 
  2 active torsions:
  status: ('A' for Active; 'I' for Inactive)
    1  A    between atoms: C_1  and  C_15
    2  A    between atoms: C_9  and  C_15
                            x       y       z     vdW  Elec       q    Type
                         _______ _______ _______ _____ _____    ______ ____

>  <TORSDO>
F 2

$$$$
=
 OpenBabel10262420113D

 27 31  0  0  1  0  0  0  0  0999 V2000
  186.2190  178.6750  142.5370 C   0  0  2  0  0  3  0  0  0  0  0  0
  184.9120  179.1620  143.2070 C   0  0  2  0  0  3  0  0  0  0  0  0
  184.4460  178.6140  141.0050 C   0  0  0  0  0  0  0  0  0  0  0  0
  180.4330  178.8330  143.9690 S   0  0  0  0  0  0  0  0  0  0  0  0
  178.9310  178.6960  141.5980 C   0  0  0  0  0  1  0  0  0  0  0  0
  184.4990  178.5290  144.5490 C   0  0  0  0  0  2  0  0  0  0  0  0
  181.4270  178.8050  141.6380 N   0  0  0  0  0  0  0  0  0  0  0  0
  186.0770  178.2230  138.6910 C   0  0  2  0  0  3  0  0  0  0  0  0
  183.4860  176.9600  139.6150 O   0  0  0  0  0  1  0  0  0  0  0  0
  186.8290  178.6330  137.5890 O   0  0  0  0  0  1  0  0  0  0  0  0
  182.4600  178.8840  142.5170 C   0  0  0  0  0  0  0  0  0  0  0  0
  180.2430  178.7730  142.2920 C   0  0  0  0  0  0  0  0  0  0  0  0
  182.1070  178.8870  143.8570 C   0  0  0  0  0  0  0  0  0  0  0  0
  185.8550  178.4810  141.1320 N   0  0  0  0  0  0  0  0  0  0  0  0
  183.8800  178.9090  142.1590 C   0  0  0  0  0  0  0  0  0  0  0  0
  184.6490  178.7690  138.5550 C   0  0  0  0  0  2  0  0  0  0  0  0
  183.0970  179.0050  144.9850 C   0  0  0  0  0  2  0  0  0  0  0  0
  188.0610  177.9850  140.1850 C   0  0  0  0  0  1  0  0  0  0  0  0
  186.7400  178.7110  139.9890 C   0  0  1  0  0  3  0  0  0  0  0  0
  183.7530  178.3270  139.7140 C   0  0  2  0  0  3  0  0  0  0  0  0
  186.8220  177.3910  143.1440 C   0  0  0  0  0  2  0  0  0  0  0  0
  190.2840  177.4530  145.6840 C   0  0  0  0  0  2  0  0  0  0  0  0
  187.9950  177.6170  144.0570 C   0  0  0  0  0  0  0  0  0  0  0  0
  187.7920  177.4380  145.5450 C   0  0  0  0  0  2  0  0  0  0  0  0
  188.9980  177.8680  146.3760 C   0  0  0  0  0  2  0  0  0  0  0  0
  190.3370  178.1730  144.3460 C   0  0  0  0  0  2  0  0  0  0  0  0
  189.1530  177.9020  143.5540 N   0  0  0  0  0  0  0  0  0  0  0  0
  1 21  1  1  0  0  0
  1  2  1  0  0  0  0
  2  6  1  1  0  0  0
  3 14  1  0  0  0  0
  3 15  2  0  0  0  0
  5 12  1  0  0  0  0
  6 17  1  0  0  0  0
  7 12  2  0  0  0  0
  7 11  1  0  0  0  0
  8 10  1  6  0  0  0
  8 19  1  0  0  0  0
 11 13  2  0  0  0  0
 12  4  1  0  0  0  0
 13  4  1  0  0  0  0
 13 17  1  0  0  0  0
 14  1  1  0  0  0  0
 15 11  1  0  0  0  0
 15  2  1  0  0  0  0
 16  8  1  0  0  0  0
 16 20  1  0  0  0  0
 19 18  1  1  0  0  0
 19 14  1  0  0  0  0
 20  9  1  6  0  0  0
 20  3  1  0  0  0  0
 21 23  1  0  0  0  0
 22 25  1  0  0  0  0
 23 24  1  0  0  0  0
 24 25  1  0  0  0  0
 26 22  1  0  0  0  0
 27 23  2  0  0  0  0
 27 26  1  0  0  0  0
M  END
>  <MODEL>
4

>  <REMARK>
 VINA RESULT:      -8.3      3.056      6.677
  Name = 
  2 active torsions:
  status: ('A' for Active; 'I' for Inactive)
    1  A    between atoms: C_1  and  C_15
    2  A    between atoms: C_9  and  C_15
                            x       y       z     vdW  Elec       q    Type
                         _______ _______ _______ _____ _____    ______ ____

>  <TORSDO>
F 2

$$$$
=
 OpenBabel10262420113D

 27 31  0  0  1  0  0  0  0  0999 V2000
  187.8480  178.4260  141.3410 C   0  0  2  0  0  3  0  0  0  0  0  0
  186.4300  178.9180  141.7180 C   0  0  2  0  0  3  0  0  0  0  0  0
  186.4500  178.4010  139.4600 C   0  0  0  0  0  0  0  0  0  0  0  0
  181.8900  178.6280  141.4840 S   0  0  0  0  0  0  0  0  0  0  0  0
  180.9380  178.5360  138.8420 C   0  0  0  0  0  1  0  0  0  0  0  0
  185.7310  178.2740  142.9300 C   0  0  0  0  0  2  0  0  0  0  0  0
  183.3670  178.6180  139.4250 N   0  0  0  0  0  0  0  0  0  0  0  0
  188.5420  178.0220  137.5500 C   0  0  2  0  0  3  0  0  0  0  0  0
  185.8020  176.7750  137.8710 O   0  0  0  0  0  1  0  0  0  0  0  0
  189.5180  178.4360  136.6440 O   0  0  0  0  0  1  0  0  0  0  0  0
  184.1850  178.6750  140.5080 C   0  0  0  0  0  0  0  0  0  0  0  0
  182.0690  178.5900  139.8050 C   0  0  0  0  0  0  0  0  0  0  0  0
  183.5490  178.6650  141.7400 C   0  0  0  0  0  0  0  0  0  0  0  0
  187.7960  178.2530  139.8890 N   0  0  0  0  0  0  0  0  0  0  0  0
  185.6490  178.6890  140.4680 C   0  0  0  0  0  0  0  0  0  0  0  0
  187.1820  178.5830  137.1160 C   0  0  0  0  0  2  0  0  0  0  0  0
  184.2710  178.7600  143.0570 C   0  0  0  0  0  2  0  0  0  0  0  0
  190.1520  177.7450  139.4370 C   0  0  0  0  0  1  0  0  0  0  0  0
  188.9110  178.4870  138.9680 C   0  0  1  0  0  3  0  0  0  0  0  0
  186.0520  178.1380  138.0460 C   0  0  2  0  0  3  0  0  0  0  0  0
  188.2950  177.1280  142.0470 C   0  0  0  0  0  2  0  0  0  0  0  0
  191.1100  177.1310  145.2910 C   0  0  0  0  0  2  0  0  0  0  0  0
  189.2330  177.3320  143.2050 C   0  0  0  0  0  0  0  0  0  0  0  0
  188.7100  177.0910  144.6030 C   0  0  0  0  0  2  0  0  0  0  0  0
  189.6940  177.5020  145.6950 C   0  0  0  0  0  2  0  0  0  0  0  0
  191.4410  177.9040  144.0240 C   0  0  0  0  0  2  0  0  0  0  0  0
  190.4660  177.6500  142.9800 N   0  0  0  0  0  0  0  0  0  0  0  0
  1  2  1  0  0  0  0
  1 21  1  1  0  0  0
  2  6  1  1  0  0  0
  3 14  1  0  0  0  0
  3 15  2  0  0  0  0
  4 13  1  0  0  0  0
  5 12  1  0  0  0  0
  6 17  1  0  0  0  0
  7 12  2  0  0  0  0
  7 11  1  0  0  0  0
  8 10  1  6  0  0  0
  8 19  1  0  0  0  0
 11 13  2  0  0  0  0
 12  4  1  0  0  0  0
 13 17  1  0  0  0  0
 14  1  1  0  0  0  0
 15 11  1  0  0  0  0
 15  2  1  0  0  0  0
 16  8  1  0  0  0  0
 16 20  1  0  0  0  0
 19 18  1  1  0  0  0
 19 14  1  0  0  0  0
 20  9  1  1  0  0  0
 20  3  1  0  0  0  0
 21 23  1  0  0  0  0
 22 25  1  0  0  0  0
 23 24  1  0  0  0  0
 24 25  1  0  0  0  0
 26 22  1  0  0  0  0
 27 23  2  0  0  0  0
 27 26  1  0  0  0  0
M  END
>  <MODEL>
5

>  <REMARK>
 VINA RESULT:      -8.2      2.906      6.700
  Name = 
  2 active torsions:
  status: ('A' for Active; 'I' for Inactive)
    1  A    between atoms: C_1  and  C_15
    2  A    between atoms: C_9  and  C_15
                            x       y       z     vdW  Elec       q    Type
                         _______ _______ _______ _____ _____    ______ ____

>  <TORSDO>
F 2

$$$$
=
 OpenBabel10262420113D

 27 31  0  0  1  0  0  0  0  0999 V2000
  188.8400  178.0350  142.7590 C   0  0  2  0  0  3  0  0  0  0  0  0
  187.6530  178.6230  141.9610 C   0  0  2  0  0  3  0  0  0  0  0  0
  189.1840  177.7490  140.4590 C   0  0  0  0  0  0  0  0  0  0  0  0
  184.6090  178.4330  138.5770 S   0  0  0  0  0  0  0  0  0  0  0  0
  185.7900  177.9440  136.0740 C   0  0  0  0  0  1  0  0  0  0  0  0
  186.2250  178.2040  142.3590 C   0  0  0  0  0  2  0  0  0  0  0  0
  187.0860  178.0480  138.2080 N   0  0  0  0  0  0  0  0  0  0  0  0
  191.9350  177.0040  140.6680 C   0  0  2  0  0  3  0  0  0  0  0  0
  189.6280  175.9070  139.0440 O   0  0  0  0  0  1  0  0  0  0  0  0
  193.3100  177.2380  140.7010 O   0  0  0  0  0  1  0  0  0  0  0  0
  186.9030  178.2550  139.5390 C   0  0  0  0  0  0  0  0  0  0  0  0
  185.9090  178.1200  137.5450 C   0  0  0  0  0  0  0  0  0  0  0  0
  185.5920  178.4630  139.9370 C   0  0  0  0  0  0  0  0  0  0  0  0
  189.8020  177.6310  141.7320 N   0  0  0  0  0  0  0  0  0  0  0  0
  187.9550  178.2180  140.5570 C   0  0  0  0  0  0  0  0  0  0  0  0
  191.3680  177.5280  139.3420 C   0  0  0  0  0  2  0  0  0  0  0  0
  185.1830  178.7470  141.3580 C   0  0  0  0  0  2  0  0  0  0  0  0
  191.6950  176.9880  143.1520 C   0  0  0  0  0  1  0  0  0  0  0  0
  191.2590  177.6810  141.8710 C   0  0  1  0  0  3  0  0  0  0  0  0
  189.8650  177.2720  139.2190 C   0  0  2  0  0  3  0  0  0  0  0  0
  188.4790  176.8550  143.6870 C   0  0  0  0  0  2  0  0  0  0  0  0
  188.2240  177.2520  147.9560 C   0  0  0  0  0  2  0  0  0  0  0  0
  188.4340  177.1970  145.1510 C   0  0  0  0  0  0  0  0  0  0  0  0
  187.1090  177.6110  145.7510 C   0  0  0  0  0  2  0  0  0  0  0  0
  187.2270  178.1040  147.1910 C   0  0  0  0  0  2  0  0  0  0  0  0
  189.5760  177.4120  147.2780 C   0  0  0  0  0  2  0  0  0  0  0  0
  189.5040  177.0760  145.8690 N   0  0  0  0  0  0  0  0  0  0  0  0
  1 21  1  6  0  0  0
  2  6  1  1  0  0  0
  2  1  1  0  0  0  0
  3 15  2  0  0  0  0
  3 14  1  0  0  0  0
  4 13  1  0  0  0  0
  5 12  1  0  0  0  0
  7 11  1  0  0  0  0
  8 10  1  6  0  0  0
  8 19  1  0  0  0  0
 11 13  2  0  0  0  0
 11 15  1  0  0  0  0
 12  7  2  0  0  0  0
 12  4  1  0  0  0  0
 13 17  1  0  0  0  0
 14 19  1  0  0  0  0
 14  1  1  0  0  0  0
 15  2  1  0  0  0  0
 16  8  1  0  0  0  0
 17  6  1  0  0  0  0
 19 18  1  1  0  0  0
 20  9  1  1  0  0  0
 20 16  1  0  0  0  0
 20  3  1  0  0  0  0
 21 23  1  0  0  0  0
 23 24  1  0  0  0  0
 23 27  2  0  0  0  0
 24 25  1  0  0  0  0
 25 22  1  0  0  0  0
 26 22  1  0  0  0  0
 27 26  1  0  0  0  0
M  END
>  <MODEL>
6

>  <REMARK>
 VINA RESULT:      -8.0      2.632      6.514
  Name = 
  2 active torsions:
  status: ('A' for Active; 'I' for Inactive)
    1  A    between atoms: C_1  and  C_15
    2  A    between atoms: C_9  and  C_15
                            x       y       z     vdW  Elec       q    Type
                         _______ _______ _______ _____ _____    ______ ____

>  <TORSDO>
F 2

$$$$
=
 OpenBabel10262420113D

 27 31  0  0  1  0  0  0  0  0999 V2000
  188.5210  178.0460  141.5110 C   0  0  2  0  0  3  0  0  0  0  0  0
  187.1390  178.7410  141.4710 C   0  0  2  0  0  3  0  0  0  0  0  0
  187.5950  177.8940  139.3640 C   0  0  0  0  0  0  0  0  0  0  0  0
  182.7750  178.9170  140.1770 S   0  0  0  0  0  0  0  0  0  0  0  0
  182.4410  178.5370  137.4130 C   0  0  0  0  0  1  0  0  0  0  0  0
  186.1000  178.3650  142.5450 C   0  0  0  0  0  2  0  0  0  0  0  0
  184.6620  178.4390  138.5550 N   0  0  0  0  0  0  0  0  0  0  0  0
  189.9890  177.0080  138.0790 C   0  0  2  0  0  3  0  0  0  0  0  0
  187.0990  176.1300  137.8700 O   0  0  0  0  0  1  0  0  0  0  0  0
  191.1930  177.1730  137.3950 O   0  0  0  0  0  1  0  0  0  0  0  0
  185.2140  178.5680  139.7900 C   0  0  0  0  0  0  0  0  0  0  0  0
  183.3210  178.6100  138.6090 C   0  0  0  0  0  0  0  0  0  0  0  0
  184.3220  178.8110  140.8220 C   0  0  0  0  0  0  0  0  0  0  0  0
  188.7750  177.6650  140.1210 N   0  0  0  0  0  0  0  0  0  0  0  0
  186.6360  178.4150  140.1050 C   0  0  0  0  0  0  0  0  0  0  0  0
  188.8560  177.6440  137.2630 C   0  0  0  0  0  2  0  0  0  0  0  0
  184.7330  179.0210  142.2550 C   0  0  0  0  0  2  0  0  0  0  0  0
  191.0760  176.8400  140.3190 C   0  0  0  0  0  1  0  0  0  0  0  0
  190.0900  177.6360  139.4780 C   0  0  1  0  0  3  0  0  0  0  0  0
  187.4940  177.4680  137.9370 C   0  0  2  0  0  3  0  0  0  0  0  0
  188.6090  176.8270  142.4540 C   0  0  0  0  0  2  0  0  0  0  0  0
  190.6680  176.9610  146.2200 C   0  0  0  0  0  2  0  0  0  0  0  0
  189.3320  177.0820  143.7480 C   0  0  0  0  0  0  0  0  0  0  0  0
  188.5100  177.2700  145.0040 C   0  0  0  0  0  2  0  0  0  0  0  0
  189.3420  177.6990  146.2100 C   0  0  0  0  0  2  0  0  0  0  0  0
  191.4170  177.3480  144.9540 C   0  0  0  0  0  2  0  0  0  0  0  0
  190.6250  177.0790  143.7690 N   0  0  0  0  0  0  0  0  0  0  0  0
  1 21  1  1  0  0  0
  2  1  1  0  0  0  0
  2  6  1  1  0  0  0
  3 15  2  0  0  0  0
  3 14  1  0  0  0  0
  4 13  1  0  0  0  0
  5 12  1  0  0  0  0
  7 12  2  0  0  0  0
  7 11  1  0  0  0  0
  8 10  1  6  0  0  0
  8 19  1  0  0  0  0
 11 15  1  0  0  0  0
 11 13  2  0  0  0  0
 12  4  1  0  0  0  0
 13 17  1  0  0  0  0
 14  1  1  0  0  0  0
 15  2  1  0  0  0  0
 16 20  1  0  0  0  0
 16  8  1  0  0  0  0
 17  6  1  0  0  0  0
 19 14  1  0  0  0  0
 19 18  1  1  0  0  0
 20  9  1  1  0  0  0
 20  3  1  0  0  0  0
 21 23  1  0  0  0  0
 23 27  2  0  0  0  0
 23 24  1  0  0  0  0
 24 25  1  0  0  0  0
 25 22  1  0  0  0  0
 26 22  1  0  0  0  0
 27 26  1  0  0  0  0
M  END
>  <MODEL>
7

>  <REMARK>
 VINA RESULT:      -8.0      2.784      6.748
  Name = 
  2 active torsions:
  status: ('A' for Active; 'I' for Inactive)
    1  A    between atoms: C_1  and  C_15
    2  A    between atoms: C_9  and  C_15
                            x       y       z     vdW  Elec       q    Type
                         _______ _______ _______ _____ _____    ______ ____

>  <TORSDO>
F 2

$$$$
=
 OpenBabel10262420113D

 27 31  0  0  1  0  0  0  0  0999 V2000
  187.5120  178.5200  142.1350 C   0  0  2  0  0  3  0  0  0  0  0  0
  187.0440  178.8220  140.6910 C   0  0  2  0  0  3  0  0  0  0  0  0
  189.1510  177.8640  140.5930 C   0  0  0  0  0  0  0  0  0  0  0  0
  186.6060  177.6950  136.3000 S   0  0  0  0  0  0  0  0  0  0  0  0
  189.0340  176.8950  135.1320 C   0  0  0  0  0  1  0  0  0  0  0  0
  185.6520  178.3280  140.2560 C   0  0  0  0  0  2  0  0  0  0  0  0
  188.8090  177.5220  137.5400 N   0  0  0  0  0  0  0  0  0  0  0  0
  191.2230  177.4740  142.5220 C   0  0  2  0  0  3  0  0  0  0  0  0
  190.3120  175.8570  140.1300 O   0  0  0  0  0  1  0  0  0  0  0  0
  192.3130  177.8580  143.3040 O   0  0  0  0  0  1  0  0  0  0  0  0
  187.8750  177.9440  138.4320 C   0  0  0  0  0  0  0  0  0  0  0  0
  188.2590  177.3450  136.3170 C   0  0  0  0  0  0  0  0  0  0  0  0
  186.5880  178.0760  137.9350 C   0  0  0  0  0  0  0  0  0  0  0  0
  188.8880  178.0460  141.9770 N   0  0  0  0  0  0  0  0  0  0  0  0
  188.1140  178.2060  139.8530 C   0  0  0  0  0  0  0  0  0  0  0  0
  191.5660  177.6860  141.0420 C   0  0  0  0  0  2  0  0  0  0  0  0
  185.4200  178.5640  138.7480 C   0  0  0  0  0  2  0  0  0  0  0  0
  189.5530  177.8780  144.3320 C   0  0  0  0  0  1  0  0  0  0  0  0
  189.9770  178.2780  142.9280 C   0  0  1  0  0  3  0  0  0  0  0  0
  190.4260  177.2490  140.1200 C   0  0  2  0  0  3  0  0  0  0  0  0
  186.6470  177.4940  142.8980 C   0  0  0  0  0  2  0  0  0  0  0  0
  184.0790  178.5940  146.1600 C   0  0  0  0  0  2  0  0  0  0  0  0
  185.8000  178.0770  143.9950 C   0  0  0  0  0  0  0  0  0  0  0  0
  184.3590  178.4180  143.6850 C   0  0  0  0  0  2  0  0  0  0  0  0
  183.6590  179.1650  144.8170 C   0  0  0  0  0  2  0  0  0  0  0  0
  185.5800  178.8050  146.2970 C   0  0  0  0  0  2  0  0  0  0  0  0
  186.2980  178.2210  145.1800 N   0  0  0  0  0  0  0  0  0  0  0  0
  1 21  1  6  0  0  0
  2  6  1  6  0  0  0
  2  1  1  0  0  0  0
  3 14  1  0  0  0  0
  4 12  1  0  0  0  0
  4 13  1  0  0  0  0
  5 12  1  0  0  0  0
  7 11  1  0  0  0  0
  8 19  1  0  0  0  0
  8 10  1  1  0  0  0
 11 15  1  0  0  0  0
 12  7  2  0  0  0  0
 13 11  2  0  0  0  0
 13 17  1  0  0  0  0
 14  1  1  0  0  0  0
 14 19  1  0  0  0  0
 15  3  2  0  0  0  0
 15  2  1  0  0  0  0
 16  8  1  0  0  0  0
 17  6  1  0  0  0  0
 19 18  1  1  0  0  0
 20  9  1  1  0  0  0
 20  3  1  0  0  0  0
 20 16  1  0  0  0  0
 21 23  1  0  0  0  0
 22 26  1  0  0  0  0
 23 27  2  0  0  0  0
 24 23  1  0  0  0  0
 24 25  1  0  0  0  0
 25 22  1  0  0  0  0
 27 26  1  0  0  0  0
M  END
>  <MODEL>
8

>  <REMARK>
 VINA RESULT:      -7.8      3.125      6.239
  Name = 
  2 active torsions:
  status: ('A' for Active; 'I' for Inactive)
    1  A    between atoms: C_1  and  C_15
    2  A    between atoms: C_9  and  C_15
                            x       y       z     vdW  Elec       q    Type
                         _______ _______ _______ _____ _____    ______ ____

>  <TORSDO>
F 2

$$$$
=
 OpenBabel10262420113D

 27 31  0  0  1  0  0  0  0  0999 V2000
  189.7620  177.7390  141.4440 C   0  0  2  0  0  3  0  0  0  0  0  0
  190.3500  177.8850  142.8670 C   0  0  2  0  0  3  0  0  0  0  0  0
  188.0480  178.0990  143.0000 C   0  0  0  0  0  0  0  0  0  0  0  0
  190.2740  177.0420  147.3430 S   0  0  0  0  0  0  0  0  0  0  0  0
  187.7940  177.6380  148.5230 C   0  0  0  0  0  1  0  0  0  0  0  0
  191.3280  176.8060  143.3690 C   0  0  0  0  0  2  0  0  0  0  0  0
  188.2450  177.8780  146.0770 N   0  0  0  0  0  0  0  0  0  0  0  0
  186.0090  178.6280  141.0680 C   0  0  2  0  0  3  0  0  0  0  0  0
  186.0600  176.9690  143.6000 O   0  0  0  0  0  1  0  0  0  0  0  0
  185.2320  179.4350  140.2370 O   0  0  0  0  0  1  0  0  0  0  0  0
  189.2460  177.7130  145.1730 C   0  0  0  0  0  0  0  0  0  0  0  0
  188.6640  177.5510  147.3210 C   0  0  0  0  0  0  0  0  0  0  0  0
  190.4410  177.2330  145.6840 C   0  0  0  0  0  0  0  0  0  0  0  0
  188.3350  178.0170  141.6120 N   0  0  0  0  0  0  0  0  0  0  0  0
  189.1350  177.9450  143.7310 C   0  0  0  0  0  0  0  0  0  0  0  0
  185.8480  179.0980  142.5200 C   0  0  0  0  0  2  0  0  0  0  0  0
  191.6800  177.0170  144.8570 C   0  0  0  0  0  2  0  0  0  0  0  0
  187.6220  178.0120  139.2660 C   0  0  0  0  0  1  0  0  0  0  0  0
  187.4800  178.6790  140.6240 C   0  0  1  0  0  3  0  0  0  0  0  0
  186.6460  178.2320  143.4960 C   0  0  2  0  0  3  0  0  0  0  0  0
  189.9930  176.3630  140.7830 C   0  0  0  0  0  2  0  0  0  0  0  0
  192.8840  175.8830  137.6440 C   0  0  0  0  0  2  0  0  0  0  0  0
  190.9340  176.3780  139.6100 C   0  0  0  0  0  0  0  0  0  0  0  0
  192.2950  177.0130  139.7910 C   0  0  0  0  0  2  0  0  0  0  0  0
  193.0850  177.1280  138.4890 C   0  0  0  0  0  2  0  0  0  0  0  0
  191.4040  175.7940  137.3050 C   0  0  0  0  0  2  0  0  0  0  0  0
  190.5870  175.8050  138.5030 N   0  0  0  0  0  0  0  0  0  0  0  0
  1 21  1  1  0  0  0
  1 14  1  0  0  0  0
  1  2  1  0  0  0  0
  2  6  1  1  0  0  0
  2 15  1  0  0  0  0
  3 20  1  0  0  0  0
  3 15  2  0  0  0  0
  6 17  1  0  0  0  0
  7 12  2  0  0  0  0
  8 10  1  6  0  0  0
  8 16  1  0  0  0  0
 11 13  2  0  0  0  0
 11  7  1  0  0  0  0
 12  4  1  0  0  0  0
 12  5  1  0  0  0  0
 13  4  1  0  0  0  0
 14  3  1  0  0  0  0
 15 11  1  0  0  0  0
 16 20  1  0  0  0  0
 17 13  1  0  0  0  0
 19 18  1  6  0  0  0
 19  8  1  0  0  0  0
 19 14  1  0  0  0  0
 20  9  1  6  0  0  0
 22 25  1  0  0  0  0
 23 24  1  0  0  0  0
 23 21  1  0  0  0  0
 25 24  1  0  0  0  0
 26 22  1  0  0  0  0
 26 27  1  0  0  0  0
 27 23  2  0  0  0  0
M  END
>  <MODEL>
9

>  <REMARK>
 VINA RESULT:      -7.7      2.621      5.346
  Name = 
  2 active torsions:
  status: ('A' for Active; 'I' for Inactive)
    1  A    between atoms: C_1  and  C_15
    2  A    between atoms: C_9  and  C_15
                            x       y       z     vdW  Elec       q    Type
                         _______ _______ _______ _____ _____    ______ ____

>  <TORSDO>
F 2

$$$$
