=
 OpenBabel10262420023D

 27 30  0  0  1  0  0  0  0  0999 V2000
  189.4500  177.2040  144.1400 C   0  0  1  0  0  3  0  0  0  0  0  0
  188.0160  177.5840  144.4020 C   0  0  0  0  0  0  0  0  0  0  0  0
  183.9660  178.6670  145.2460 C   0  0  0  0  0  3  0  0  0  0  0  0
  181.8270  179.2270  144.5290 F   0  0  0  0  0  0  0  0  0  0  0  0
  187.6310  177.9100  145.7090 C   0  0  0  0  0  3  0  0  0  0  0  0
  184.7030  177.9120  142.5630 C   0  0  0  0  0  2  0  0  0  0  0  0
  183.5840  178.9290  142.8150 C   0  0  0  0  0  2  0  0  0  0  0  0
  187.0610  177.6080  143.3730 C   0  0  0  0  0  3  0  0  0  0  0  0
  183.1100  178.9020  144.2460 C   0  0  0  0  0  0  0  0  0  0  0  0
  185.3610  178.2950  144.9610 C   0  0  0  0  0  0  0  0  0  0  0  0
  185.7420  177.9730  143.6460 C   0  0  0  0  0  0  0  0  0  0  0  0
  186.3060  178.2620  145.9890 C   0  0  0  0  0  3  0  0  0  0  0  0
  190.1950  178.0320  143.0610 C   0  0  2  0  0  0  0  0  0  0  0  0
  192.1150  176.6590  142.6140 O   0  0  0  0  0  0  0  0  0  0  0  0
  190.4240  175.9370  140.3610 O   0  0  0  0  0  1  0  0  0  0  0  0
  191.6060  177.8720  140.0150 O   0  0  0  0  0  1  0  0  0  0  0  0
  190.9840  179.1570  143.7170 C   0  0  0  0  0  1  0  0  0  0  0  0
  190.6710  177.2280  140.8250 C   0  0  0  0  0  0  0  0  0  0  0  0
  189.3880  178.0270  140.9050 C   0  0  0  0  0  2  0  0  0  0  0  0
  189.2480  178.6180  142.1880 O   0  0  0  0  0  0  0  0  0  0  0  0
  191.1040  177.2180  142.2170 C   0  0  0  0  0  0  0  0  0  0  0  0
  191.6680  176.4570  147.7200 C   0  0  0  0  0  3  0  0  0  0  0  0
  190.2350  176.9460  145.3940 C   0  0  0  0  0  0  0  0  0  0  0  0
  191.3350  176.1420  145.3770 N   0  0  0  0  0  0  0  0  0  0  0  0
  192.0530  175.8890  146.5040 C   0  0  0  0  0  3  0  0  0  0  0  0
  190.5440  177.2820  147.7610 C   0  0  0  0  0  3  0  0  0  0  0  0
  189.8200  177.5300  146.5930 C   0  0  0  0  0  3  0  0  0  0  0  0
  1  2  1  1  0  0  0
  1 23  1  0  0  0  0
  2  5  1  0  0  0  0
  5 12  2  0  0  0  0
  6  7  1  0  0  0  0
  6 11  1  0  0  0  0
  7  9  1  0  0  0  0
  8 11  1  0  0  0  0
  8  2  2  0  0  0  0
  9  4  1  0  0  0  0
  9  3  2  0  0  0  0
 10  3  1  0  0  0  0
 10 12  1  0  0  0  0
 11 10  2  0  0  0  0
 13 17  1  1  0  0  0
 13  1  1  0  0  0  0
 15 18  1  0  0  0  0
 16 18  1  0  0  0  0
 18 19  1  0  0  0  0
 18 21  1  0  0  0  0
 19 20  1  0  0  0  0
 20 13  1  0  0  0  0
 21 14  2  0  0  0  0
 21 13  1  0  0  0  0
 22 26  1  0  0  0  0
 23 27  1  0  0  0  0
 24 23  2  0  0  0  0
 24 25  1  0  0  0  0
 25 22  2  0  0  0  0
 27 26  2  0  0  0  0
M  END
>  <MODEL>
1

>  <REMARK>
 VINA RESULT:     -10.3      0.000      0.000
  Name = 
  3 active torsions:
  status: ('A' for Active; 'I' for Inactive)
    1  A    between atoms: C_1  and  C_15
    2  A    between atoms: C_2  and  C_15
    3  A    between atoms: C_9  and  C_15
                            x       y       z     vdW  Elec       q    Type
                         _______ _______ _______ _____ _____    ______ ____

>  <TORSDO>
F 3

$$$$
=
 OpenBabel10262420023D

 27 30  0  0  1  0  0  0  0  0999 V2000
  182.7260  179.2530  142.1310 C   0  0  1  0  0  3  0  0  0  0  0  0
  183.8710  178.8800  143.0360 C   0  0  0  0  0  0  0  0  0  0  0  0
  187.0690  177.8630  145.6860 C   0  0  0  0  0  3  0  0  0  0  0  0
  189.1300  176.8640  146.0850 F   0  0  0  0  0  0  0  0  0  0  0  0
  183.7340  179.0790  144.4160 C   0  0  0  0  0  3  0  0  0  0  0  0
  187.4200  177.5290  142.8440 C   0  0  0  0  0  2  0  0  0  0  0  0
  188.1290  176.6020  143.8390 C   0  0  0  0  0  2  0  0  0  0  0  0
  185.0680  178.3530  142.5290 C   0  0  0  0  0  3  0  0  0  0  0  0
  188.1170  177.1640  145.2380 C   0  0  0  0  0  0  0  0  0  0  0  0
  185.9660  178.2150  144.7790 C   0  0  0  0  0  0  0  0  0  0  0  0
  186.1080  178.0100  143.3950 C   0  0  0  0  0  0  0  0  0  0  0  0
  184.7790  178.7500  145.2860 C   0  0  0  0  0  3  0  0  0  0  0  0
  182.7490  178.6420  140.7060 C   0  0  2  0  0  0  0  0  0  0  0  0
  180.4660  178.9160  140.0070 O   0  0  0  0  0  0  0  0  0  0  0  0
  181.7000  181.1760  138.6540 O   0  0  0  0  0  1  0  0  0  0  0  0
  181.9190  179.2060  137.4980 O   0  0  0  0  0  1  0  0  0  0  0  0
  182.6830  177.1220  140.7870 C   0  0  0  0  0  1  0  0  0  0  0  0
  182.1910  179.8710  138.6940 C   0  0  0  0  0  0  0  0  0  0  0  0
  183.6750  179.8630  138.9890 C   0  0  0  0  0  2  0  0  0  0  0  0
  183.9640  178.9890  140.0700 O   0  0  0  0  0  0  0  0  0  0  0  0
  181.6560  179.1370  139.8340 C   0  0  0  0  0  0  0  0  0  0  0  0
  178.9310  179.1420  144.1010 C   0  0  0  0  0  3  0  0  0  0  0  0
  181.3890  179.2140  142.8150 C   0  0  0  0  0  0  0  0  0  0  0  0
  180.5390  180.2770  142.7490 N   0  0  0  0  0  0  0  0  0  0  0  0
  179.3290  180.2630  143.3710 C   0  0  0  0  0  3  0  0  0  0  0  0
  179.7860  178.0430  144.1820 C   0  0  0  0  0  3  0  0  0  0  0  0
  181.0240  178.0750  143.5370 C   0  0  0  0  0  3  0  0  0  0  0  0
  1 23  1  1  0  0  0
  1  2  1  0  0  0  0
  2  5  1  0  0  0  0
  5 12  2  0  0  0  0
  6 11  1  0  0  0  0
  6  7  1  0  0  0  0
  7  9  1  0  0  0  0
  8  2  2  0  0  0  0
  8 11  1  0  0  0  0
  9  3  2  0  0  0  0
  9  4  1  0  0  0  0
 10 12  1  0  0  0  0
 10  3  1  0  0  0  0
 11 10  2  0  0  0  0
 13 17  1  1  0  0  0
 13  1  1  0  0  0  0
 15 18  1  0  0  0  0
 16 18  1  0  0  0  0
 18 19  1  0  0  0  0
 18 21  1  0  0  0  0
 19 20  1  0  0  0  0
 20 13  1  0  0  0  0
 21 14  2  0  0  0  0
 21 13  1  0  0  0  0
 22 26  1  0  0  0  0
 23 27  1  0  0  0  0
 24 23  2  0  0  0  0
 24 25  1  0  0  0  0
 25 22  2  0  0  0  0
 27 26  2  0  0  0  0
M  END
>  <MODEL>
2

>  <REMARK>
 VINA RESULT:      -9.3      4.685      8.188
  Name = 
  3 active torsions:
  status: ('A' for Active; 'I' for Inactive)
    1  A    between atoms: C_1  and  C_15
    2  A    between atoms: C_2  and  C_15
    3  A    between atoms: C_9  and  C_15
                            x       y       z     vdW  Elec       q    Type
                         _______ _______ _______ _____ _____    ______ ____

>  <TORSDO>
F 3

$$$$
=
 OpenBabel10262420023D

 27 30  0  0  1  0  0  0  0  0999 V2000
  188.3940  177.4140  144.0240 C   0  0  1  0  0  3  0  0  0  0  0  0
  187.0150  177.7840  143.5440 C   0  0  0  0  0  0  0  0  0  0  0  0
  183.1330  178.8250  142.0820 C   0  0  0  0  0  3  0  0  0  0  0  0
  180.8980  179.3410  142.4580 F   0  0  0  0  0  0  0  0  0  0  0  0
  186.7420  177.7350  142.1710 C   0  0  0  0  0  3  0  0  0  0  0  0
  183.6880  179.0280  144.9040 C   0  0  0  0  0  2  0  0  0  0  0  0
  182.2800  178.6880  144.4010 C   0  0  0  0  0  2  0  0  0  0  0  0
  186.0080  178.1850  144.4350 C   0  0  0  0  0  3  0  0  0  0  0  0
  182.1170  178.9950  142.9340 C   0  0  0  0  0  0  0  0  0  0  0  0
  184.4710  178.4660  142.5800 C   0  0  0  0  0  0  0  0  0  0  0  0
  184.7370  178.5140  143.9600 C   0  0  0  0  0  0  0  0  0  0  0  0
  185.4740  178.0770  141.6880 C   0  0  0  0  0  3  0  0  0  0  0  0
  189.5820  178.0590  143.2650 C   0  0  2  0  0  0  0  0  0  0  0  0
  191.2180  176.2990  143.3080 O   0  0  0  0  0  0  0  0  0  0  0  0
  190.1640  175.9620  140.6180 O   0  0  0  0  0  1  0  0  0  0  0  0
  191.7710  177.5930  140.7570 O   0  0  0  0  0  1  0  0  0  0  0  0
  190.3570  178.9850  144.1930 C   0  0  0  0  0  1  0  0  0  0  0  0
  190.5240  177.1690  141.2170 C   0  0  0  0  0  0  0  0  0  0  0  0
  189.4720  178.2290  140.9720 C   0  0  0  0  0  2  0  0  0  0  0  0
  189.0830  178.8370  142.1940 O   0  0  0  0  0  0  0  0  0  0  0  0
  190.5110  177.0660  142.6710 C   0  0  0  0  0  0  0  0  0  0  0  0
  188.7430  177.4090  148.2880 C   0  0  0  0  0  3  0  0  0  0  0  0
  188.5230  177.4170  145.5210 C   0  0  0  0  0  0  0  0  0  0  0  0
  189.5640  176.7860  146.1340 N   0  0  0  0  0  0  0  0  0  0  0  0
  189.6920  176.7700  147.4870 C   0  0  0  0  0  3  0  0  0  0  0  0
  187.6680  178.0590  147.6810 C   0  0  0  0  0  3  0  0  0  0  0  0
  187.5540  178.0660  146.2900 C   0  0  0  0  0  3  0  0  0  0  0  0
  1  2  1  1  0  0  0
  1 23  1  0  0  0  0
  2  8  1  0  0  0  0
  3 10  1  0  0  0  0
  3  9  2  0  0  0  0
  4  9  1  0  0  0  0
  5  2  2  0  0  0  0
  7  6  1  0  0  0  0
  9  7  1  0  0  0  0
 10 11  1  0  0  0  0
 11  8  2  0  0  0  0
 11  6  1  0  0  0  0
 12  5  1  0  0  0  0
 12 10  2  0  0  0  0
 13  1  1  0  0  0  0
 13 17  1  1  0  0  0
 15 18  1  0  0  0  0
 16 18  1  0  0  0  0
 18 21  1  0  0  0  0
 19 18  1  0  0  0  0
 19 20  1  0  0  0  0
 20 13  1  0  0  0  0
 21 13  1  0  0  0  0
 21 14  2  0  0  0  0
 23 24  2  0  0  0  0
 23 27  1  0  0  0  0
 24 25  1  0  0  0  0
 25 22  2  0  0  0  0
 26 22  1  0  0  0  0
 27 26  2  0  0  0  0
M  END
>  <MODEL>
3

>  <REMARK>
 VINA RESULT:      -9.2      1.182      2.104
  Name = 
  3 active torsions:
  status: ('A' for Active; 'I' for Inactive)
    1  A    between atoms: C_1  and  C_15
    2  A    between atoms: C_2  and  C_15
    3  A    between atoms: C_9  and  C_15
                            x       y       z     vdW  Elec       q    Type
                         _______ _______ _______ _____ _____    ______ ____

>  <TORSDO>
F 3

$$$$
=
 OpenBabel10262420023D

 27 30  0  0  1  0  0  0  0  0999 V2000
  182.3700  178.4510  139.9720 C   0  0  1  0  0  3  0  0  0  0  0  0
  182.9270  178.5320  141.3690 C   0  0  0  0  0  0  0  0  0  0  0  0
  184.4180  178.8020  145.3690 C   0  0  0  0  0  3  0  0  0  0  0  0
  186.0950  178.4300  146.9350 F   0  0  0  0  0  0  0  0  0  0  0  0
  182.0770  178.9180  142.4150 C   0  0  0  0  0  3  0  0  0  0  0  0
  186.2160  178.0970  143.2280 C   0  0  0  0  0  2  0  0  0  0  0  0
  186.4310  177.5560  144.6460 C   0  0  0  0  0  2  0  0  0  0  0  0
  184.2730  178.2440  141.6430 C   0  0  0  0  0  3  0  0  0  0  0  0
  185.6290  178.3220  145.6680 C   0  0  0  0  0  0  0  0  0  0  0  0
  183.9000  178.7110  143.9940 C   0  0  0  0  0  0  0  0  0  0  0  0
  184.7570  178.3200  142.9500 C   0  0  0  0  0  0  0  0  0  0  0  0
  182.5620  179.0090  143.7240 C   0  0  0  0  0  3  0  0  0  0  0  0
  181.6970  177.1110  139.5770 C   0  0  2  0  0  0  0  0  0  0  0  0
  180.5300  177.7110  137.5640 O   0  0  0  0  0  0  0  0  0  0  0  0
  182.8870  176.4320  136.4370 O   0  0  0  0  0  1  0  0  0  0  0  0
  181.2590  174.9370  137.0510 O   0  0  0  0  0  1  0  0  0  0  0  0
  180.4360  176.8950  140.4030 C   0  0  0  0  0  1  0  0  0  0  0  0
  182.1120  175.9500  137.4910 C   0  0  0  0  0  0  0  0  0  0  0  0
  182.9870  175.4600  138.6250 C   0  0  0  0  0  2  0  0  0  0  0  0
  182.5850  176.0450  139.8540 O   0  0  0  0  0  0  0  0  0  0  0  0
  181.3630  177.0220  138.1340 C   0  0  0  0  0  0  0  0  0  0  0  0
  180.2200  181.9500  138.7750 C   0  0  0  0  0  3  0  0  0  0  0  0
  181.6160  179.6840  139.5600 C   0  0  0  0  0  0  0  0  0  0  0  0
  180.3800  179.9490  140.0680 N   0  0  0  0  0  0  0  0  0  0  0  0
  179.6790  181.0550  139.6990 C   0  0  0  0  0  3  0  0  0  0  0  0
  181.4840  181.6960  138.2400 C   0  0  0  0  0  3  0  0  0  0  0  0
  182.1890  180.5570  138.6320 C   0  0  0  0  0  3  0  0  0  0  0  0
  1 23  1  1  0  0  0
  1  2  1  0  0  0  0
  2  8  2  0  0  0  0
  2  5  1  0  0  0  0
  3  9  2  0  0  0  0
  5 12  2  0  0  0  0
  6  7  1  0  0  0  0
  7  9  1  0  0  0  0
  8 11  1  0  0  0  0
  9  4  1  0  0  0  0
 10  3  1  0  0  0  0
 11  6  1  0  0  0  0
 11 10  2  0  0  0  0
 12 10  1  0  0  0  0
 13 20  1  0  0  0  0
 13  1  1  0  0  0  0
 13 17  1  1  0  0  0
 14 21  2  0  0  0  0
 15 18  1  0  0  0  0
 16 18  1  0  0  0  0
 18 21  1  0  0  0  0
 18 19  1  0  0  0  0
 19 20  1  0  0  0  0
 21 13  1  0  0  0  0
 22 25  1  0  0  0  0
 23 24  1  0  0  0  0
 25 24  2  0  0  0  0
 26 27  1  0  0  0  0
 26 22  2  0  0  0  0
 27 23  2  0  0  0  0
M  END
>  <MODEL>
4

>  <REMARK>
 VINA RESULT:      -9.1      5.429      8.984
  Name = 
  3 active torsions:
  status: ('A' for Active; 'I' for Inactive)
    1  A    between atoms: C_1  and  C_15
    2  A    between atoms: C_2  and  C_15
    3  A    between atoms: C_9  and  C_15
                            x       y       z     vdW  Elec       q    Type
                         _______ _______ _______ _____ _____    ______ ____

>  <TORSDO>
F 3

$$$$
=
 OpenBabel10262420023D

 27 30  0  0  1  0  0  0  0  0999 V2000
  188.4100  178.4450  141.0140 C   0  0  1  0  0  3  0  0  0  0  0  0
  186.9760  178.5600  141.4620 C   0  0  0  0  0  0  0  0  0  0  0  0
  182.8770  178.8820  142.6370 C   0  0  0  0  0  3  0  0  0  0  0  0
  181.2460  179.0020  144.2890 F   0  0  0  0  0  0  0  0  0  0  0  0
  185.9580  178.4450  140.5070 C   0  0  0  0  0  3  0  0  0  0  0  0
  184.9500  179.2170  144.6130 C   0  0  0  0  0  2  0  0  0  0  0  0
  183.5870  178.6280  144.9940 C   0  0  0  0  0  2  0  0  0  0  0  0
  186.6420  178.7900  142.8060 C   0  0  0  0  0  3  0  0  0  0  0  0
  182.5470  178.8830  143.9320 C   0  0  0  0  0  0  0  0  0  0  0  0
  184.2860  178.7710  142.2270 C   0  0  0  0  0  0  0  0  0  0  0  0
  185.3030  178.8840  143.1920 C   0  0  0  0  0  0  0  0  0  0  0  0
  184.6160  178.5530  140.8870 C   0  0  0  0  0  3  0  0  0  0  0  0
  189.3180  177.5060  141.8480 C   0  0  2  0  0  0  0  0  0  0  0  0
  190.5290  179.0660  143.2170 O   0  0  0  0  0  0  0  0  0  0  0  0
  188.5050  178.1780  145.1070 O   0  0  0  0  0  1  0  0  0  0  0  0
  190.2980  176.7530  144.9740 O   0  0  0  0  0  1  0  0  0  0  0  0
  190.5280  177.0810  141.0270 C   0  0  0  0  0  1  0  0  0  0  0  0
  189.2610  177.3630  144.2660 C   0  0  0  0  0  0  0  0  0  0  0  0
  188.3890  176.3260  143.5930 C   0  0  0  0  0  2  0  0  0  0  0  0
  188.5940  176.3390  142.1880 O   0  0  0  0  0  0  0  0  0  0  0  0
  189.7750  178.1080  143.1250 C   0  0  0  0  0  0  0  0  0  0  0  0
  188.8080  178.0590  136.7720 C   0  0  0  0  0  3  0  0  0  0  0  0
  188.5590  178.3110  139.5250 C   0  0  0  0  0  0  0  0  0  0  0  0
  188.9260  179.3770  138.7600 N   0  0  0  0  0  0  0  0  0  0  0  0
  189.0560  179.2760  137.4100 C   0  0  0  0  0  3  0  0  0  0  0  0
  188.4290  176.9550  137.5360 C   0  0  0  0  0  3  0  0  0  0  0  0
  188.3020  177.0770  138.9210 C   0  0  0  0  0  3  0  0  0  0  0  0
  1 23  1  6  0  0  0
  1  2  1  0  0  0  0
  1 13  1  0  0  0  0
  2  8  1  0  0  0  0
  3  9  2  0  0  0  0
  5 12  1  0  0  0  0
  5  2  2  0  0  0  0
  6  7  1  0  0  0  0
  8 11  2  0  0  0  0
  9  4  1  0  0  0  0
  9  7  1  0  0  0  0
 10  3  1  0  0  0  0
 10 11  1  0  0  0  0
 11  6  1  0  0  0  0
 12 10  2  0  0  0  0
 13 17  1  6  0  0  0
 13 20  1  0  0  0  0
 13 21  1  0  0  0  0
 18 16  1  0  0  0  0
 18 15  1  0  0  0  0
 19 18  1  0  0  0  0
 20 19  1  0  0  0  0
 21 14  2  0  0  0  0
 21 18  1  0  0  0  0
 22 25  2  0  0  0  0
 22 26  1  0  0  0  0
 24 23  2  0  0  0  0
 25 24  1  0  0  0  0
 26 27  2  0  0  0  0
 27 23  1  0  0  0  0
M  END
>  <MODEL>
5

>  <REMARK>
 VINA RESULT:      -9.0      2.518      5.210
  Name = 
  3 active torsions:
  status: ('A' for Active; 'I' for Inactive)
    1  A    between atoms: C_1  and  C_15
    2  A    between atoms: C_2  and  C_15
    3  A    between atoms: C_9  and  C_15
                            x       y       z     vdW  Elec       q    Type
                         _______ _______ _______ _____ _____    ______ ____

>  <TORSDO>
F 3

$$$$
=
 OpenBabel10262420023D

 27 30  0  0  1  0  0  0  0  0999 V2000
  187.6560  177.2390  144.4550 C   0  0  1  0  0  3  0  0  0  0  0  0
  186.2550  177.7200  144.1840 C   0  0  0  0  0  0  0  0  0  0  0  0
  182.2630  179.1020  143.5150 C   0  0  0  0  0  3  0  0  0  0  0  0
  180.5190  179.6360  142.0750 F   0  0  0  0  0  0  0  0  0  0  0  0
  185.5110  178.2660  145.2380 C   0  0  0  0  0  3  0  0  0  0  0  0
  183.7310  177.8990  141.3450 C   0  0  0  0  0  2  0  0  0  0  0  0
  182.6890  178.9920  141.0800 C   0  0  0  0  0  2  0  0  0  0  0  0
  185.6770  177.6230  142.9090 C   0  0  0  0  0  3  0  0  0  0  0  0
  181.7900  179.2130  142.2700 C   0  0  0  0  0  0  0  0  0  0  0  0
  183.6360  178.6280  143.7510 C   0  0  0  0  0  0  0  0  0  0  0  0
  184.3780  178.0850  142.6870 C   0  0  0  0  0  0  0  0  0  0  0  0
  184.2040  178.7160  145.0250 C   0  0  0  0  0  3  0  0  0  0  0  0
  188.7120  177.5480  143.3620 C   0  0  2  0  0  0  0  0  0  0  0  0
  190.2290  179.0020  144.5280 O   0  0  0  0  0  0  0  0  0  0  0  0
  191.6830  176.4900  144.6990 O   0  0  0  0  0  1  0  0  0  0  0  0
  192.0090  177.5840  142.7100 O   0  0  0  0  0  1  0  0  0  0  0  0
  188.1910  178.6250  142.4190 C   0  0  0  0  0  1  0  0  0  0  0  0
  191.0660  177.0090  143.5620 C   0  0  0  0  0  0  0  0  0  0  0  0
  190.2740  175.9390  142.8420 C   0  0  0  0  0  2  0  0  0  0  0  0
  188.9470  176.3800  142.5990 O   0  0  0  0  0  0  0  0  0  0  0  0
  190.0250  177.9660  143.9120 C   0  0  0  0  0  0  0  0  0  0  0  0
  188.9290  177.9570  148.4750 C   0  0  0  0  0  3  0  0  0  0  0  0
  188.1110  177.4950  145.8640 C   0  0  0  0  0  0  0  0  0  0  0  0
  189.1090  176.7530  146.4210 N   0  0  0  0  0  0  0  0  0  0  0  0
  189.5260  176.9630  147.6990 C   0  0  0  0  0  3  0  0  0  0  0  0
  187.9040  178.7270  147.9250 C   0  0  0  0  0  3  0  0  0  0  0  0
  187.4890  178.4980  146.6120 C   0  0  0  0  0  3  0  0  0  0  0  0
  1  2  1  6  0  0  0
  1 23  1  0  0  0  0
  2  5  1  0  0  0  0
  3 10  1  0  0  0  0
  4  9  1  0  0  0  0
  6 11  1  0  0  0  0
  7  6  1  0  0  0  0
  7  9  1  0  0  0  0
  8  2  2  0  0  0  0
  9  3  2  0  0  0  0
 10 12  1  0  0  0  0
 11  8  1  0  0  0  0
 11 10  2  0  0  0  0
 12  5  2  0  0  0  0
 13 17  1  6  0  0  0
 13 21  1  0  0  0  0
 13  1  1  0  0  0  0
 16 18  1  0  0  0  0
 18 21  1  0  0  0  0
 18 15  1  0  0  0  0
 19 18  1  0  0  0  0
 20 19  1  0  0  0  0
 20 13  1  0  0  0  0
 21 14  2  0  0  0  0
 23 24  2  0  0  0  0
 23 27  1  0  0  0  0
 24 25  1  0  0  0  0
 25 22  2  0  0  0  0
 26 22  1  0  0  0  0
 27 26  2  0  0  0  0
M  END
>  <MODEL>
6

>  <REMARK>
 VINA RESULT:      -9.0      1.687      2.569
  Name = 
  3 active torsions:
  status: ('A' for Active; 'I' for Inactive)
    1  A    between atoms: C_1  and  C_15
    2  A    between atoms: C_2  and  C_15
    3  A    between atoms: C_9  and  C_15
                            x       y       z     vdW  Elec       q    Type
                         _______ _______ _______ _____ _____    ______ ____

>  <TORSDO>
F 3

$$$$
=
 OpenBabel10262420023D

 27 30  0  0  1  0  0  0  0  0999 V2000
  188.2090  177.1490  145.1250 C   0  0  1  0  0  3  0  0  0  0  0  0
  188.7180  177.0510  143.7110 C   0  0  0  0  0  0  0  0  0  0  0  0
  190.2360  176.7060  139.7280 C   0  0  0  0  0  3  0  0  0  0  0  0
  190.1230  177.2250  137.4650 F   0  0  0  0  0  0  0  0  0  0  0  0
  189.7200  176.1170  143.4160 C   0  0  0  0  0  3  0  0  0  0  0  0
  188.2420  178.7030  140.3190 C   0  0  0  0  0  2  0  0  0  0  0  0
  188.3130  178.0460  138.9350 C   0  0  0  0  0  2  0  0  0  0  0  0
  188.2230  177.8780  142.6920 C   0  0  0  0  0  3  0  0  0  0  0  0
  189.6220  177.3300  138.7180 C   0  0  0  0  0  0  0  0  0  0  0  0
  189.7170  176.8200  141.1000 C   0  0  0  0  0  0  0  0  0  0  0  0
  188.7090  177.7580  141.3880 C   0  0  0  0  0  0  0  0  0  0  0  0
  190.2210  176.0030  142.1150 C   0  0  0  0  0  3  0  0  0  0  0  0
  189.1960  177.7250  146.1730 C   0  0  2  0  0  0  0  0  0  0  0  0
  189.4090  175.8980  147.7180 O   0  0  0  0  0  0  0  0  0  0  0  0
  191.8430  175.5500  146.1630 O   0  0  0  0  0  1  0  0  0  0  0  0
  192.0550  177.1120  147.8300 O   0  0  0  0  0  1  0  0  0  0  0  0
  188.4570  178.6360  147.1440 C   0  0  0  0  0  1  0  0  0  0  0  0
  191.3570  176.7520  146.6770 C   0  0  0  0  0  0  0  0  0  0  0  0
  191.4320  177.8510  145.6390 C   0  0  0  0  0  2  0  0  0  0  0  0
  190.1760  178.5010  145.5110 O   0  0  0  0  0  0  0  0  0  0  0  0
  189.9250  176.6800  146.9340 C   0  0  0  0  0  0  0  0  0  0  0  0
  184.2080  178.6430  145.3770 C   0  0  0  0  0  3  0  0  0  0  0  0
  186.8070  177.6810  145.2180 C   0  0  0  0  0  0  0  0  0  0  0  0
  186.1760  177.7830  146.4210 N   0  0  0  0  0  0  0  0  0  0  0  0
  184.9040  178.2530  146.5230 C   0  0  0  0  0  3  0  0  0  0  0  0
  184.8340  178.5440  144.1340 C   0  0  0  0  0  3  0  0  0  0  0  0
  186.1410  178.0600  144.0500 C   0  0  0  0  0  3  0  0  0  0  0  0
  1  2  1  6  0  0  0
  1 23  1  0  0  0  0
  1 13  1  0  0  0  0
  3 10  1  0  0  0  0
  4  9  1  0  0  0  0
  5  2  1  0  0  0  0
  6 11  1  0  0  0  0
  7  6  1  0  0  0  0
  8  2  2  0  0  0  0
  9  7  1  0  0  0  0
  9  3  2  0  0  0  0
 10 11  2  0  0  0  0
 10 12  1  0  0  0  0
 11  8  1  0  0  0  0
 12  5  2  0  0  0  0
 13 21  1  0  0  0  0
 13 17  1  1  0  0  0
 15 18  1  0  0  0  0
 18 21  1  0  0  0  0
 18 16  1  0  0  0  0
 19 18  1  0  0  0  0
 20 19  1  0  0  0  0
 20 13  1  0  0  0  0
 21 14  2  0  0  0  0
 22 25  1  0  0  0  0
 23 24  1  0  0  0  0
 24 25  2  0  0  0  0
 26 22  2  0  0  0  0
 27 26  1  0  0  0  0
 27 23  2  0  0  0  0
M  END
>  <MODEL>
7

>  <REMARK>
 VINA RESULT:      -8.9      3.223      5.848
  Name = 
  3 active torsions:
  status: ('A' for Active; 'I' for Inactive)
    1  A    between atoms: C_1  and  C_15
    2  A    between atoms: C_2  and  C_15
    3  A    between atoms: C_9  and  C_15
                            x       y       z     vdW  Elec       q    Type
                         _______ _______ _______ _____ _____    ______ ____

>  <TORSDO>
F 3

$$$$
=
 OpenBabel10262420023D

 27 30  0  0  1  0  0  0  0  0999 V2000
  190.4210  176.1840  138.3910 C   0  0  1  0  0  3  0  0  0  0  0  0
  190.4870  176.6230  139.8310 C   0  0  0  0  0  0  0  0  0  0  0  0
  190.7720  177.8960  143.9040 C   0  0  0  0  0  3  0  0  0  0  0  0
  189.8060  178.2530  145.9870 F   0  0  0  0  0  0  0  0  0  0  0  0
  191.6380  177.2800  140.2860 C   0  0  0  0  0  3  0  0  0  0  0  0
  188.4290  176.4630  143.0250 C   0  0  0  0  0  2  0  0  0  0  0  0
  188.3390  177.5130  144.1390 C   0  0  0  0  0  2  0  0  0  0  0  0
  189.4320  176.3780  140.7240 C   0  0  0  0  0  3  0  0  0  0  0  0
  189.6960  177.8620  144.6950 C   0  0  0  0  0  0  0  0  0  0  0  0
  190.6790  177.4600  142.5010 C   0  0  0  0  0  0  0  0  0  0  0  0
  189.5200  176.8040  142.0500 C   0  0  0  0  0  0  0  0  0  0  0  0
  191.7360  177.6960  141.6170 C   0  0  0  0  0  3  0  0  0  0  0  0
  189.5620  177.0620  137.4440 C   0  0  2  0  0  0  0  0  0  0  0  0
  187.4070  176.0110  137.6040 O   0  0  0  0  0  0  0  0  0  0  0  0
  187.0280  178.2520  139.4190 O   0  0  0  0  0  1  0  0  0  0  0  0
  186.7000  178.8110  137.2190 O   0  0  0  0  0  1  0  0  0  0  0  0
  189.8010  176.6580  135.9950 C   0  0  0  0  0  1  0  0  0  0  0  0
  187.6070  178.3060  138.1510 C   0  0  0  0  0  0  0  0  0  0  0  0
  188.8740  179.1340  138.1720 C   0  0  0  0  0  2  0  0  0  0  0  0
  189.9480  178.4160  137.5860 O   0  0  0  0  0  0  0  0  0  0  0  0
  188.1090  177.0020  137.7400 C   0  0  0  0  0  0  0  0  0  0  0  0
  194.2020  174.9950  136.7840 C   0  0  0  0  0  3  0  0  0  0  0  0
  191.7530  175.7690  137.8340 C   0  0  0  0  0  0  0  0  0  0  0  0
  192.7110  176.6950  137.5500 N   0  0  0  0  0  0  0  0  0  0  0  0
  193.9180  176.3390  137.0360 C   0  0  0  0  0  3  0  0  0  0  0  0
  193.2350  174.0310  137.0650 C   0  0  0  0  0  3  0  0  0  0  0  0
  192.0010  174.4160  137.5940 C   0  0  0  0  0  3  0  0  0  0  0  0
  1 23  1  6  0  0  0
  1  2  1  0  0  0  0
  2  5  2  0  0  0  0
  2  8  1  0  0  0  0
  3  9  2  0  0  0  0
  5 12  1  0  0  0  0
  6  7  1  0  0  0  0
  7  9  1  0  0  0  0
  8 11  2  0  0  0  0
  9  4  1  0  0  0  0
 10  3  1  0  0  0  0
 11 10  1  0  0  0  0
 11  6  1  0  0  0  0
 12 10  2  0  0  0  0
 13 17  1  6  0  0  0
 13 20  1  0  0  0  0
 13 21  1  0  0  0  0
 13  1  1  0  0  0  0
 14 21  2  0  0  0  0
 16 18  1  0  0  0  0
 18 19  1  0  0  0  0
 18 15  1  0  0  0  0
 20 19  1  0  0  0  0
 21 18  1  0  0  0  0
 22 25  2  0  0  0  0
 22 26  1  0  0  0  0
 24 23  2  0  0  0  0
 25 24  1  0  0  0  0
 26 27  2  0  0  0  0
 27 23  1  0  0  0  0
M  END
>  <MODEL>
8

>  <REMARK>
 VINA RESULT:      -8.7      3.911      6.877
  Name = 
  3 active torsions:
  status: ('A' for Active; 'I' for Inactive)
    1  A    between atoms: C_1  and  C_15
    2  A    between atoms: C_2  and  C_15
    3  A    between atoms: C_9  and  C_15
                            x       y       z     vdW  Elec       q    Type
                         _______ _______ _______ _____ _____    ______ ____

>  <TORSDO>
F 3

$$$$
=
 OpenBabel10262420023D

 27 30  0  0  1  0  0  0  0  0999 V2000
  190.5460  176.9400  138.2790 C   0  0  1  0  0  3  0  0  0  0  0  0
  190.6900  177.0060  139.7770 C   0  0  0  0  0  0  0  0  0  0  0  0
  191.1980  177.2190  144.0180 C   0  0  0  0  0  3  0  0  0  0  0  0
  190.3260  177.1260  146.1700 F   0  0  0  0  0  0  0  0  0  0  0  0
  191.9040  177.4450  140.3210 C   0  0  0  0  0  3  0  0  0  0  0  0
  188.7190  176.2230  142.9340 C   0  0  0  0  0  2  0  0  0  0  0  0
  188.7490  176.9720  144.2720 C   0  0  0  0  0  2  0  0  0  0  0  0
  189.6450  176.6290  140.6340 C   0  0  0  0  0  3  0  0  0  0  0  0
  190.1470  177.0730  144.8290 C   0  0  0  0  0  0  0  0  0  0  0  0
  191.0290  177.1480  142.5580 C   0  0  0  0  0  0  0  0  0  0  0  0
  189.8060  176.7100  142.0190 C   0  0  0  0  0  0  0  0  0  0  0  0
  192.0760  177.5130  141.7070 C   0  0  0  0  0  3  0  0  0  0  0  0
  191.0950  175.6630  137.5920 C   0  0  2  0  0  0  0  0  0  0  0  0
  191.3890  176.4010  135.3240 O   0  0  0  0  0  0  0  0  0  0  0  0
  194.1230  176.6050  136.2960 O   0  0  0  0  0  1  0  0  0  0  0  0
  193.5590  174.4820  135.6340 O   0  0  0  0  0  1  0  0  0  0  0  0
  189.9530  174.7060  137.2750 C   0  0  0  0  0  1  0  0  0  0  0  0
  193.2530  175.5340  136.4990 C   0  0  0  0  0  0  0  0  0  0  0  0
  193.2930  175.0730  137.9400 C   0  0  0  0  0  2  0  0  0  0  0  0
  191.9800  175.0020  138.4760 O   0  0  0  0  0  0  0  0  0  0  0  0
  191.8620  175.9430  136.3530 C   0  0  0  0  0  0  0  0  0  0  0  0
  186.7190  178.2240  136.8630 C   0  0  0  0  0  3  0  0  0  0  0  0
  189.1990  177.3920  137.7900 C   0  0  0  0  0  0  0  0  0  0  0  0
  188.0860  176.6370  138.0100 N   0  0  0  0  0  0  0  0  0  0  0  0
  186.8610  177.0260  137.5660 C   0  0  0  0  0  3  0  0  0  0  0  0
  187.8460  179.0110  136.6250 C   0  0  0  0  0  3  0  0  0  0  0  0
  189.0960  178.5960  137.0900 C   0  0  0  0  0  3  0  0  0  0  0  0
  1 23  1  1  0  0  0
  1  2  1  0  0  0  0
  2  5  2  0  0  0  0
  2  8  1  0  0  0  0
  3  9  2  0  0  0  0
  5 12  1  0  0  0  0
  6  7  1  0  0  0  0
  7  9  1  0  0  0  0
  8 11  2  0  0  0  0
  9  4  1  0  0  0  0
 10  3  1  0  0  0  0
 11 10  1  0  0  0  0
 11  6  1  0  0  0  0
 12 10  2  0  0  0  0
 13 17  1  6  0  0  0
 13  1  1  0  0  0  0
 13 20  1  0  0  0  0
 14 21  2  0  0  0  0
 15 18  1  0  0  0  0
 16 18  1  0  0  0  0
 18 19  1  0  0  0  0
 19 20  1  0  0  0  0
 21 18  1  0  0  0  0
 21 13  1  0  0  0  0
 22 25  1  0  0  0  0
 23 24  1  0  0  0  0
 25 24  2  0  0  0  0
 26 22  2  0  0  0  0
 26 27  1  0  0  0  0
 27 23  2  0  0  0  0
M  END
>  <MODEL>
9

>  <REMARK>
 VINA RESULT:      -8.6      4.059      7.285
  Name = 
  3 active torsions:
  status: ('A' for Active; 'I' for Inactive)
    1  A    between atoms: C_1  and  C_15
    2  A    between atoms: C_2  and  C_15
    3  A    between atoms: C_9  and  C_15
                            x       y       z     vdW  Elec       q    Type
                         _______ _______ _______ _____ _____    ______ ____

>  <TORSDO>
F 3

$$$$
