=
 OpenBabel10262420033D

 27 30  0  0  1  0  0  0  0  0999 V2000
  189.5050  177.7120  141.6440 C   0  0  2  0  0  3  0  0  0  0  0  0
  190.5870  177.3300  140.6730 C   0  0  0  0  0  0  0  0  0  0  0  0
  193.5520  175.6280  138.3250 C   0  0  0  0  0  3  0  0  0  0  0  0
  194.2070  173.7290  137.0730 O   0  0  0  0  0  1  0  0  0  0  0  0
  191.8450  177.7680  140.8060 C   0  0  0  0  0  3  0  0  0  0  0  0
  190.8110  175.0190  137.7270 C   0  0  0  0  0  2  0  0  0  0  0  0
  191.8140  174.3710  137.1220 C   0  0  0  0  0  3  0  0  0  0  0  0
  190.2650  176.3870  139.6370 N   0  0  0  0  0  0  0  0  0  0  0  0
  193.2260  174.6150  137.5040 C   0  0  0  0  0  0  0  0  0  0  0  0
  192.5090  176.6380  138.7070 C   0  0  0  0  0  0  0  0  0  0  0  0
  191.1340  176.0300  138.7410 C   0  0  0  0  0  0  0  0  0  0  0  0
  192.8350  177.3660  139.8980 O   0  0  0  0  0  0  0  0  0  0  0  0
  189.3840  176.8760  142.9480 C   0  0  2  0  0  0  0  0  0  0  0  0
  191.2710  177.9050  144.1050 O   0  0  0  0  0  1  0  0  0  0  0  0
  189.8050  178.1340  146.4890 O   0  0  0  0  0  1  0  0  0  0  0  0
  187.8740  177.0740  145.5660 C   0  0  0  0  0  2  0  0  0  0  0  0
  190.2600  175.6280  142.8530 C   0  0  0  0  0  1  0  0  0  0  0  0
  189.4010  177.2460  145.4950 C   0  0  1  0  0  3  0  0  0  0  0  0
  187.1840  177.2070  144.2080 C   0  0  0  0  0  2  0  0  0  0  0  0
  187.9310  176.3880  143.1520 C   0  0  0  0  0  2  0  0  0  0  0  0
  189.8770  177.7550  144.1270 C   0  0  2  0  0  3  0  0  0  0  0  0
  185.8470  178.7960  139.7300 N   0  0  0  0  0  0  0  0  0  0  0  0
  188.2050  178.0950  140.9830 C   0  0  0  0  0  0  0  0  0  0  0  0
  188.0500  177.8870  139.6100 C   0  0  0  0  0  3  0  0  0  0  0  0
  186.8540  178.2520  138.9900 C   0  0  0  0  0  3  0  0  0  0  0  0
  185.9700  179.0030  141.0660 C   0  0  0  0  0  3  0  0  0  0  0  0
  187.1550  178.6580  141.7180 C   0  0  0  0  0  3  0  0  0  0  0  0
  1  2  1  6  0  0  0
  1 13  1  0  0  0  0
  2  5  2  0  0  0  0
  3 10  2  0  0  0  0
  4  9  1  0  0  0  0
  6 11  1  0  0  0  0
  7  9  2  0  0  0  0
  7  6  1  0  0  0  0
  8  2  1  0  0  0  0
  9  3  1  0  0  0  0
 10 11  1  0  0  0  0
 10 12  1  0  0  0  0
 11  8  2  0  0  0  0
 12  5  1  0  0  0  0
 13 17  1  6  0  0  0
 13 20  1  0  0  0  0
 13 21  1  0  0  0  0
 18 16  1  0  0  0  0
 18 15  1  1  0  0  0
 19 16  1  0  0  0  0
 20 19  1  0  0  0  0
 21 14  1  1  0  0  0
 21 18  1  0  0  0  0
 22 26  1  0  0  0  0
 23  1  1  0  0  0  0
 23 27  1  0  0  0  0
 24 23  2  0  0  0  0
 25 24  1  0  0  0  0
 25 22  2  0  0  0  0
 26 27  2  0  0  0  0
M  END
>  <MODEL>
1

>  <REMARK>
 VINA RESULT:      -8.3      0.000      0.000
  Name = 
  3 active torsions:
  status: ('A' for Active; 'I' for Inactive)
    1  A    between atoms: C_1  and  C_15
    2  A    between atoms: C_2  and  C_15
    3  A    between atoms: C_9  and  C_15
                            x       y       z     vdW  Elec       q    Type
                         _______ _______ _______ _____ _____    ______ ____

>  <TORSDO>
F 3

$$$$
=
 OpenBabel10262420033D

 27 30  0  0  1  0  0  0  0  0999 V2000
  183.2650  177.5120  139.8660 C   0  0  2  0  0  3  0  0  0  0  0  0
  183.4150  178.0990  141.2420 C   0  0  0  0  0  0  0  0  0  0  0  0
  183.7900  179.0300  145.2660 C   0  0  0  0  0  3  0  0  0  0  0  0
  184.8480  178.4820  147.3110 O   0  0  0  0  0  1  0  0  0  0  0  0
  182.4140  178.7480  141.8490 C   0  0  0  0  0  3  0  0  0  0  0  0
  186.0970  178.0550  143.8640 C   0  0  0  0  0  3  0  0  0  0  0  0
  186.1070  178.2080  145.1940 C   0  0  0  0  0  3  0  0  0  0  0  0
  184.6440  177.8600  141.9490 N   0  0  0  0  0  0  0  0  0  0  0  0
  184.8840  178.6150  145.9280 C   0  0  0  0  0  0  0  0  0  0  0  0
  183.8640  179.2680  143.7860 C   0  0  1  0  0  3  0  0  0  0  0  0
  184.8650  178.3590  143.1270 C   0  0  0  0  0  0  0  0  0  0  0  0
  182.5810  179.2570  143.1450 O   0  0  0  0  0  0  0  0  0  0  0  0
  183.9160  178.2820  138.6840 C   0  0  2  0  0  0  0  0  0  0  0  0
  186.0730  178.6590  139.7630 O   0  0  0  0  0  1  0  0  0  0  0  0
  187.4700  177.9280  137.4400 O   0  0  0  0  0  1  0  0  0  0  0  0
  185.4710  177.5790  136.1820 C   0  0  0  0  0  2  0  0  0  0  0  0
  183.6920  179.7840  138.8480 C   0  0  0  0  0  1  0  0  0  0  0  0
  186.1300  178.3000  137.3700 C   0  0  1  0  0  3  0  0  0  0  0  0
  184.1410  176.9130  136.5360 C   0  0  0  0  0  2  0  0  0  0  0  0
  183.2650  177.8760  137.3410 C   0  0  0  0  0  2  0  0  0  0  0  0
  185.4400  177.9900  138.7060 C   0  0  2  0  0  3  0  0  0  0  0  0
  179.4210  175.8210  139.1020 N   0  0  0  0  0  0  0  0  0  0  0  0
  181.9000  176.9300  139.6020 C   0  0  0  0  0  0  0  0  0  0  0  0
  181.7510  175.5420  139.5330 C   0  0  0  0  0  3  0  0  0  0  0  0
  180.4930  174.9980  139.2730 C   0  0  0  0  0  3  0  0  0  0  0  0
  179.5380  177.1720  139.1700 C   0  0  0  0  0  3  0  0  0  0  0  0
  180.7820  177.7530  139.4190 C   0  0  0  0  0  3  0  0  0  0  0  0
  1 23  1  6  0  0  0
  1  2  1  0  0  0  0
  2  5  2  0  0  0  0
  2  8  1  0  0  0  0
  3  9  2  0  0  0  0
  5 12  1  0  0  0  0
  6  7  2  0  0  0  0
  7  9  1  0  0  0  0
  8 11  2  0  0  0  0
  9  4  1  0  0  0  0
 10  3  1  1  0  0  0
 11 10  1  0  0  0  0
 11  6  1  0  0  0  0
 12 10  1  0  0  0  0
 13 21  1  0  0  0  0
 13 17  1  1  0  0  0
 13  1  1  0  0  0  0
 16 19  1  0  0  0  0
 16 18  1  0  0  0  0
 18 15  1  1  0  0  0
 18 21  1  0  0  0  0
 19 20  1  0  0  0  0
 20 13  1  0  0  0  0
 21 14  1  1  0  0  0
 22 26  2  0  0  0  0
 22 25  1  0  0  0  0
 24 23  1  0  0  0  0
 25 24  2  0  0  0  0
 26 27  1  0  0  0  0
 27 23  2  0  0  0  0
M  END
>  <MODEL>
2

>  <REMARK>
 VINA RESULT:      -8.0      5.101      8.852
  Name = 
  3 active torsions:
  status: ('A' for Active; 'I' for Inactive)
    1  A    between atoms: C_1  and  C_15
    2  A    between atoms: C_2  and  C_15
    3  A    between atoms: C_9  and  C_15
                            x       y       z     vdW  Elec       q    Type
                         _______ _______ _______ _____ _____    ______ ____

>  <TORSDO>
F 3

$$$$
=
 OpenBabel10262420033D

 27 30  0  0  1  0  0  0  0  0999 V2000
  182.1260  178.0140  139.9980 C   0  0  2  0  0  3  0  0  0  0  0  0
  182.5170  178.4750  141.3740 C   0  0  0  0  0  0  0  0  0  0  0  0
  183.6120  179.0390  145.3350 C   0  0  0  0  0  3  0  0  0  0  0  0
  185.0440  178.3440  147.0870 O   0  0  0  0  0  1  0  0  0  0  0  0
  181.6320  179.0230  142.2160 C   0  0  0  0  0  3  0  0  0  0  0  0
  185.6400  178.2930  143.4450 C   0  0  0  0  0  2  0  0  0  0  0  0
  185.8930  178.3210  144.7590 C   0  0  0  0  0  3  0  0  0  0  0  0
  183.8610  178.2200  141.8180 N   0  0  0  0  0  0  0  0  0  0  0  0
  184.8190  178.6080  145.7410 C   0  0  0  0  0  0  0  0  0  0  0  0
  183.4050  179.4180  143.8970 C   0  0  0  0  0  0  0  0  0  0  0  0
  184.2850  178.6150  142.9800 C   0  0  0  0  0  0  0  0  0  0  0  0
  182.0250  179.4140  143.5040 O   0  0  0  0  0  0  0  0  0  0  0  0
  181.9560  179.1010  138.9000 C   0  0  2  0  0  0  0  0  0  0  0  0
  183.0580  177.8550  137.1130 O   0  0  0  0  0  1  0  0  0  0  0  0
  181.0480  178.5300  135.2740 O   0  0  0  0  0  1  0  0  0  0  0  0
  179.8560  179.8640  136.8560 C   0  0  0  0  0  2  0  0  0  0  0  0
  183.1800  180.0150  138.8730 C   0  0  0  0  0  1  0  0  0  0  0  0
  181.2130  179.2710  136.4420 C   0  0  1  0  0  3  0  0  0  0  0  0
  179.5240  179.6500  138.3330 C   0  0  0  0  0  2  0  0  0  0  0  0
  180.7340  179.9990  139.2040 C   0  0  0  0  0  2  0  0  0  0  0  0
  181.8280  178.3810  137.5320 C   0  0  2  0  0  3  0  0  0  0  0  0
  179.2450  174.8650  139.9550 N   0  0  0  0  0  0  0  0  0  0  0  0
  181.1010  176.9100  139.9960 C   0  0  0  0  0  0  0  0  0  0  0  0
  181.4030  175.6990  139.3660 C   0  0  0  0  0  3  0  0  0  0  0  0
  180.4520  174.6780  139.3490 C   0  0  0  0  0  3  0  0  0  0  0  0
  178.9310  176.0290  140.5790 C   0  0  0  0  0  3  0  0  0  0  0  0
  179.8530  177.0760  140.6090 C   0  0  0  0  0  3  0  0  0  0  0  0
  1 23  1  1  0  0  0
  1  2  1  0  0  0  0
  2  8  1  0  0  0  0
  2  5  2  0  0  0  0
  3  9  1  0  0  0  0
  5 12  1  0  0  0  0
  6  7  1  0  0  0  0
  7  9  2  0  0  0  0
  8 11  2  0  0  0  0
  9  4  1  0  0  0  0
 10  3  2  0  0  0  0
 11  6  1  0  0  0  0
 11 10  1  0  0  0  0
 12 10  1  0  0  0  0
 13 17  1  6  0  0  0
 13 20  1  0  0  0  0
 13  1  1  0  0  0  0
 16 19  1  0  0  0  0
 18 15  1  6  0  0  0
 18 16  1  0  0  0  0
 18 21  1  0  0  0  0
 19 20  1  0  0  0  0
 21 14  1  6  0  0  0
 21 13  1  0  0  0  0
 22 26  1  0  0  0  0
 23 27  1  0  0  0  0
 24 23  2  0  0  0  0
 25 24  1  0  0  0  0
 25 22  2  0  0  0  0
 26 27  2  0  0  0  0
M  END
>  <MODEL>
3

>  <REMARK>
 VINA RESULT:      -7.9      6.447     10.007
  Name = 
  3 active torsions:
  status: ('A' for Active; 'I' for Inactive)
    1  A    between atoms: C_1  and  C_15
    2  A    between atoms: C_2  and  C_15
    3  A    between atoms: C_9  and  C_15
                            x       y       z     vdW  Elec       q    Type
                         _______ _______ _______ _____ _____    ______ ____

>  <TORSDO>
F 3

$$$$
=
 OpenBabel10262420033D

 27 30  0  0  1  0  0  0  0  0999 V2000
  187.3030  178.2980  142.9030 C   0  0  2  0  0  3  0  0  0  0  0  0
  187.8550  178.2270  141.5070 C   0  0  0  0  0  0  0  0  0  0  0  0
  189.0650  177.3740  137.6330 C   0  0  0  0  0  3  0  0  0  0  0  0
  188.4120  176.5300  135.5200 O   0  0  0  0  0  1  0  0  0  0  0  0
  189.1560  178.0220  141.2690 C   0  0  0  0  0  3  0  0  0  0  0  0
  186.3670  178.2530  138.0640 C   0  0  0  0  0  2  0  0  0  0  0  0
  186.7660  177.7990  136.8690 C   0  0  0  0  0  3  0  0  0  0  0  0
  186.9270  178.2820  140.4090 N   0  0  0  0  0  0  0  0  0  0  0  0
  188.1310  177.2510  136.6750 C   0  0  0  0  0  0  0  0  0  0  0  0
  188.7910  178.2360  138.8300 C   0  0  0  0  0  0  0  0  0  0  0  0
  187.3270  178.2590  139.1740 C   0  0  0  0  0  0  0  0  0  0  0  0
  189.6300  177.9320  139.9520 O   0  0  0  0  0  0  0  0  0  0  0  0
  187.8320  177.2640  143.9360 C   0  0  2  0  0  0  0  0  0  0  0  0
  190.1640  177.9810  143.8660 O   0  0  0  0  0  1  0  0  0  0  0  0
  190.3750  177.8910  146.6640 O   0  0  0  0  0  1  0  0  0  0  0  0
  188.1370  177.1080  146.9460 C   0  0  0  0  0  2  0  0  0  0  0  0
  188.3090  176.0030  143.2190 C   0  0  0  0  0  1  0  0  0  0  0  0
  189.3550  177.2040  146.0110 C   0  0  1  0  0  3  0  0  0  0  0  0
  186.8220  177.5020  146.2730 C   0  0  0  0  0  2  0  0  0  0  0  0
  186.7050  176.8300  144.9020 C   0  0  0  0  0  2  0  0  0  0  0  0
  189.0290  177.9070  144.6850 C   0  0  2  0  0  3  0  0  0  0  0  0
  183.1210  179.1310  143.1020 N   0  0  0  0  0  0  0  0  0  0  0  0
  185.8250  178.5870  142.9570 C   0  0  0  0  0  0  0  0  0  0  0  0
  185.3400  179.4930  143.9040 C   0  0  0  0  0  3  0  0  0  0  0  0
  183.9700  179.7530  143.9680 C   0  0  0  0  0  3  0  0  0  0  0  0
  183.5680  178.2520  142.1690 C   0  0  0  0  0  3  0  0  0  0  0  0
  184.9300  177.9600  142.0810 C   0  0  0  0  0  3  0  0  0  0  0  0
  1  2  1  6  0  0  0
  1 23  1  0  0  0  0
  1 13  1  0  0  0  0
  3 10  2  0  0  0  0
  4  9  1  0  0  0  0
  5  2  2  0  0  0  0
  6 11  1  0  0  0  0
  7  6  1  0  0  0  0
  8  2  1  0  0  0  0
  9  7  2  0  0  0  0
  9  3  1  0  0  0  0
 10 11  1  0  0  0  0
 10 12  1  0  0  0  0
 11  8  2  0  0  0  0
 12  5  1  0  0  0  0
 13 17  1  6  0  0  0
 13 21  1  0  0  0  0
 13 20  1  0  0  0  0
 18 15  1  1  0  0  0
 18 16  1  0  0  0  0
 19 16  1  0  0  0  0
 20 19  1  0  0  0  0
 21 14  1  6  0  0  0
 21 18  1  0  0  0  0
 22 25  1  0  0  0  0
 23 24  1  0  0  0  0
 24 25  2  0  0  0  0
 26 22  2  0  0  0  0
 27 26  1  0  0  0  0
 27 23  2  0  0  0  0
M  END
>  <MODEL>
4

>  <REMARK>
 VINA RESULT:      -7.6      2.683      3.758
  Name = 
  3 active torsions:
  status: ('A' for Active; 'I' for Inactive)
    1  A    between atoms: C_1  and  C_15
    2  A    between atoms: C_2  and  C_15
    3  A    between atoms: C_9  and  C_15
                            x       y       z     vdW  Elec       q    Type
                         _______ _______ _______ _____ _____    ______ ____

>  <TORSDO>
F 3

$$$$
=
 OpenBabel10262420033D

 27 30  0  0  1  0  0  0  0  0999 V2000
  189.9790  177.1690  138.3520 C   0  0  2  0  0  3  0  0  0  0  0  0
  190.3250  177.1410  139.8150 C   0  0  0  0  0  0  0  0  0  0  0  0
  190.8540  177.6510  143.8970 C   0  0  0  0  0  3  0  0  0  0  0  0
  189.7930  178.0790  145.9690 O   0  0  0  0  0  1  0  0  0  0  0  0
  191.5250  177.5260  140.2660 C   0  0  0  0  0  3  0  0  0  0  0  0
  188.4410  176.4000  142.9720 C   0  0  0  0  0  3  0  0  0  0  0  0
  188.5940  176.7480  144.2560 C   0  0  0  0  0  3  0  0  0  0  0  0
  189.2920  176.7830  140.7490 N   0  0  0  0  0  0  0  0  0  0  0  0
  189.7980  177.4840  144.7120 C   0  0  0  0  0  0  0  0  0  0  0  0
  190.8980  176.9250  142.5840 C   0  0  1  0  0  3  0  0  0  0  0  0
  189.5200  176.7050  142.0250 C   0  0  0  0  0  0  0  0  0  0  0  0
  191.8030  177.5150  141.6400 O   0  0  0  0  0  0  0  0  0  0  0  0
  188.4760  177.2970  137.9750 C   0  0  2  0  0  0  0  0  0  0  0  0
  188.6440  179.5050  136.9450 O   0  0  0  0  0  1  0  0  0  0  0  0
  187.0640  178.7120  134.7650 O   0  0  0  0  0  1  0  0  0  0  0  0
  186.7130  176.5180  135.6390 C   0  0  0  0  0  2  0  0  0  0  0  0
  187.7110  177.9960  139.0970 C   0  0  0  0  0  1  0  0  0  0  0  0
  187.0400  177.9870  135.9540 C   0  0  1  0  0  3  0  0  0  0  0  0
  187.6530  175.5260  136.3250 C   0  0  0  0  0  2  0  0  0  0  0  0
  187.8350  175.9010  137.7980 C   0  0  0  0  0  2  0  0  0  0  0  0
  188.3800  178.1530  136.6840 C   0  0  2  0  0  3  0  0  0  0  0  0
  192.2580  174.4750  135.9520 N   0  0  0  0  0  0  0  0  0  0  0  0
  190.7880  176.2090  137.5190 C   0  0  0  0  0  0  0  0  0  0  0  0
  191.2020  176.5950  136.2410 C   0  0  0  0  0  3  0  0  0  0  0  0
  191.9390  175.7050  135.4590 C   0  0  0  0  0  3  0  0  0  0  0  0
  191.8740  174.0780  137.1920 C   0  0  0  0  0  3  0  0  0  0  0  0
  191.1280  174.9380  137.9990 C   0  0  0  0  0  3  0  0  0  0  0  0
  1 23  1  1  0  0  0
  1  2  1  0  0  0  0
  2  5  2  0  0  0  0
  2  8  1  0  0  0  0
  3  9  2  0  0  0  0
  5 12  1  0  0  0  0
  6  7  2  0  0  0  0
  7  9  1  0  0  0  0
  8 11  2  0  0  0  0
  9  4  1  0  0  0  0
 10  3  1  1  0  0  0
 11 10  1  0  0  0  0
 11  6  1  0  0  0  0
 12 10  1  0  0  0  0
 13  1  1  0  0  0  0
 13 17  1  1  0  0  0
 16 18  1  0  0  0  0
 16 19  1  0  0  0  0
 18 15  1  6  0  0  0
 18 21  1  0  0  0  0
 19 20  1  0  0  0  0
 20 13  1  0  0  0  0
 21 14  1  1  0  0  0
 21 13  1  0  0  0  0
 22 26  1  0  0  0  0
 23 27  1  0  0  0  0
 24 23  2  0  0  0  0
 25 22  2  0  0  0  0
 25 24  1  0  0  0  0
 26 27  2  0  0  0  0
M  END
>  <MODEL>
5

>  <REMARK>
 VINA RESULT:      -7.5      2.697      6.867
  Name = 
  3 active torsions:
  status: ('A' for Active; 'I' for Inactive)
    1  A    between atoms: C_1  and  C_15
    2  A    between atoms: C_2  and  C_15
    3  A    between atoms: C_9  and  C_15
                            x       y       z     vdW  Elec       q    Type
                         _______ _______ _______ _____ _____    ______ ____

>  <TORSDO>
F 3

$$$$
=
 OpenBabel10262420033D

 27 30  0  0  1  0  0  0  0  0999 V2000
  189.5150  177.2890  142.5070 C   0  0  2  0  0  3  0  0  0  0  0  0
  188.1930  177.9260  142.1820 C   0  0  0  0  0  0  0  0  0  0  0  0
  184.2990  179.0020  141.2450 C   0  0  0  0  0  3  0  0  0  0  0  0
  182.0050  178.6300  141.6940 O   0  0  0  0  0  1  0  0  0  0  0  0
  187.9470  178.4750  140.9860 C   0  0  0  0  0  3  0  0  0  0  0  0
  184.9010  178.2530  143.9500 C   0  0  0  0  0  3  0  0  0  0  0  0
  183.6380  178.4420  143.5480 C   0  0  0  0  0  3  0  0  0  0  0  0
  187.1430  177.8450  143.1610 N   0  0  0  0  0  0  0  0  0  0  0  0
  183.3220  178.7290  142.1270 C   0  0  0  0  0  0  0  0  0  0  0  0
  185.7030  179.2070  141.7340 C   0  0  1  0  0  3  0  0  0  0  0  0
  185.9840  178.3980  142.9700 C   0  0  0  0  0  0  0  0  0  0  0  0
  186.6900  179.0340  140.7080 O   0  0  0  0  0  0  0  0  0  0  0  0
  190.2150  177.7250  143.8240 C   0  0  2  0  0  0  0  0  0  0  0  0
  188.1850  177.8770  145.1710 O   0  0  0  0  0  1  0  0  0  0  0  0
  189.3980  176.5380  147.3200 O   0  0  0  0  0  1  0  0  0  0  0  0
  191.4990  176.3540  146.2000 C   0  0  0  0  0  2  0  0  0  0  0  0
  190.2620  179.2490  143.9140 C   0  0  0  0  0  1  0  0  0  0  0  0
  190.1760  177.1280  146.3280 C   0  0  1  0  0  3  0  0  0  0  0  0
  191.8630  176.0070  144.7570 C   0  0  0  0  0  2  0  0  0  0  0  0
  191.6800  177.2300  143.8550 C   0  0  0  0  0  2  0  0  0  0  0  0
  189.3850  177.1710  145.0120 C   0  0  2  0  0  3  0  0  0  0  0  0
  192.0320  176.7510  139.1020 N   0  0  0  0  0  0  0  0  0  0  0  0
  190.4140  177.1120  141.3100 C   0  0  0  0  0  0  0  0  0  0  0  0
  189.9290  176.4390  140.1850 C   0  0  0  0  0  3  0  0  0  0  0  0
  190.7610  176.2590  139.0800 C   0  0  0  0  0  3  0  0  0  0  0  0
  192.5250  177.4130  140.1800 C   0  0  0  0  0  3  0  0  0  0  0  0
  191.7250  177.6040  141.3070 C   0  0  0  0  0  3  0  0  0  0  0  0
  1 23  1  6  0  0  0
  1 13  1  0  0  0  0
  2  1  1  0  0  0  0
  2  8  1  0  0  0  0
  3  9  2  0  0  0  0
  4  9  1  0  0  0  0
  5  2  2  0  0  0  0
  7  6  2  0  0  0  0
  9  7  1  0  0  0  0
 10  3  1  6  0  0  0
 10 11  1  0  0  0  0
 11  8  2  0  0  0  0
 11  6  1  0  0  0  0
 12  5  1  0  0  0  0
 12 10  1  0  0  0  0
 13 20  1  0  0  0  0
 13 17  1  1  0  0  0
 13 21  1  0  0  0  0
 16 18  1  0  0  0  0
 18 15  1  1  0  0  0
 19 16  1  0  0  0  0
 20 19  1  0  0  0  0
 21 14  1  1  0  0  0
 21 18  1  0  0  0  0
 22 26  1  0  0  0  0
 24 23  2  0  0  0  0
 25 22  2  0  0  0  0
 25 24  1  0  0  0  0
 26 27  2  0  0  0  0
 27 23  1  0  0  0  0
M  END
>  <MODEL>
6

>  <REMARK>
 VINA RESULT:      -7.5      2.923      6.313
  Name = 
  3 active torsions:
  status: ('A' for Active; 'I' for Inactive)
    1  A    between atoms: C_1  and  C_15
    2  A    between atoms: C_2  and  C_15
    3  A    between atoms: C_9  and  C_15
                            x       y       z     vdW  Elec       q    Type
                         _______ _______ _______ _____ _____    ______ ____

>  <TORSDO>
F 3

$$$$
=
 OpenBabel10262420033D

 27 30  0  0  1  0  0  0  0  0999 V2000
  187.3950  178.2480  143.2840 C   0  0  2  0  0  3  0  0  0  0  0  0
  187.3880  178.1730  141.7830 C   0  0  0  0  0  0  0  0  0  0  0  0
  187.8780  178.4850  137.6770 C   0  0  0  0  0  3  0  0  0  0  0  0
  189.4320  178.6280  135.8970 O   0  0  0  0  0  1  0  0  0  0  0  0
  186.3920  178.6900  141.0530 C   0  0  0  0  0  3  0  0  0  0  0  0
  189.8060  176.9770  139.1770 C   0  0  0  0  0  3  0  0  0  0  0  0
  190.0010  177.2590  137.8830 C   0  0  0  0  0  3  0  0  0  0  0  0
  188.5400  177.6170  141.1280 N   0  0  0  0  0  0  0  0  0  0  0  0
  189.0540  178.1220  137.1360 C   0  0  0  0  0  0  0  0  0  0  0  0
  187.4310  177.8590  138.9650 C   0  0  1  0  0  3  0  0  0  0  0  0
  188.5980  177.4880  139.8370 C   0  0  0  0  0  0  0  0  0  0  0  0
  186.4340  178.6280  139.6520 O   0  0  0  0  0  0  0  0  0  0  0  0
  188.2890  177.2310  144.0480 C   0  0  2  0  0  0  0  0  0  0  0  0
  190.4090  177.9540  143.0760 O   0  0  0  0  0  1  0  0  0  0  0  0
  191.6800  177.9070  145.5780 O   0  0  0  0  0  1  0  0  0  0  0  0
  189.7300  177.1230  146.7100 C   0  0  0  0  0  2  0  0  0  0  0  0
  188.4640  175.9600  143.2190 C   0  0  0  0  0  1  0  0  0  0  0  0
  190.4930  177.2080  145.3770 C   0  0  1  0  0  3  0  0  0  0  0  0
  188.2540  177.5030  146.5900 C   0  0  0  0  0  2  0  0  0  0  0  0
  187.6240  176.8090  145.3790 C   0  0  0  0  0  2  0  0  0  0  0  0
  189.6770  177.8890  144.2700 C   0  0  2  0  0  3  0  0  0  0  0  0
  183.5330  179.0000  144.9400 N   0  0  0  0  0  0  0  0  0  0  0  0
  186.0380  178.5130  143.8850 C   0  0  0  0  0  0  0  0  0  0  0  0
  184.8930  178.2670  143.1210 C   0  0  0  0  0  3  0  0  0  0  0  0
  183.6350  178.5240  143.6670 C   0  0  0  0  0  3  0  0  0  0  0  0
  184.6290  179.2410  145.7040 C   0  0  0  0  0  3  0  0  0  0  0  0
  185.9040  179.0040  145.1890 C   0  0  0  0  0  3  0  0  0  0  0  0
  1  2  1  6  0  0  0
  1 23  1  0  0  0  0
  1 13  1  0  0  0  0
  4  9  1  0  0  0  0
  5  2  2  0  0  0  0
  6 11  1  0  0  0  0
  7  6  2  0  0  0  0
  8  2  1  0  0  0  0
  9  3  2  0  0  0  0
  9  7  1  0  0  0  0
 10  3  1  6  0  0  0
 10 12  1  0  0  0  0
 10 11  1  0  0  0  0
 11  8  2  0  0  0  0
 12  5  1  0  0  0  0
 13 17  1  6  0  0  0
 13 21  1  0  0  0  0
 13 20  1  0  0  0  0
 18 15  1  1  0  0  0
 18 16  1  0  0  0  0
 19 16  1  0  0  0  0
 20 19  1  0  0  0  0
 21 14  1  6  0  0  0
 21 18  1  0  0  0  0
 22 26  1  0  0  0  0
 23 27  1  0  0  0  0
 24 25  1  0  0  0  0
 24 23  2  0  0  0  0
 25 22  2  0  0  0  0
 27 26  2  0  0  0  0
M  END
>  <MODEL>
7

>  <REMARK>
 VINA RESULT:      -7.4      2.593      4.049
  Name = 
  3 active torsions:
  status: ('A' for Active; 'I' for Inactive)
    1  A    between atoms: C_1  and  C_15
    2  A    between atoms: C_2  and  C_15
    3  A    between atoms: C_9  and  C_15
                            x       y       z     vdW  Elec       q    Type
                         _______ _______ _______ _____ _____    ______ ____

>  <TORSDO>
F 3

$$$$
=
 OpenBabel10262420033D

 27 30  0  0  1  0  0  0  0  0999 V2000
  189.3330  177.0280  140.3280 C   0  0  2  0  0  3  0  0  0  0  0  0
  190.5950  176.6800  139.5890 C   0  0  0  0  0  0  0  0  0  0  0  0
  194.0640  175.1100  137.9450 C   0  0  0  0  0  3  0  0  0  0  0  0
  195.1020  173.1860  137.0370 O   0  0  0  0  0  1  0  0  0  0  0  0
  191.7640  177.2710  139.8660 C   0  0  0  0  0  3  0  0  0  0  0  0
  191.5350  174.1350  136.9990 C   0  0  0  0  0  2  0  0  0  0  0  0
  192.6840  173.5500  136.6360 C   0  0  0  0  0  3  0  0  0  0  0  0
  190.5450  175.6100  138.6300 N   0  0  0  0  0  0  0  0  0  0  0  0
  193.9810  173.9910  137.2050 C   0  0  0  0  0  0  0  0  0  0  0  0
  192.8790  176.0260  138.0400 C   0  0  0  0  0  0  0  0  0  0  0  0
  191.5830  175.2700  137.9280 C   0  0  0  0  0  0  0  0  0  0  0  0
  192.9280  176.8990  139.1770 O   0  0  0  0  0  0  0  0  0  0  0  0
  188.3890  178.0780  139.6770 C   0  0  2  0  0  0  0  0  0  0  0  0
  187.8190  176.7470  137.7120 O   0  0  0  0  0  1  0  0  0  0  0  0
  185.0970  177.3930  137.9470 O   0  0  0  0  0  1  0  0  0  0  0  0
  185.4540  178.8060  139.8390 C   0  0  0  0  0  2  0  0  0  0  0  0
  189.1760  178.9660  138.7160 C   0  0  0  0  0  1  0  0  0  0  0  0
  186.0640  178.1730  138.5770 C   0  0  1  0  0  3  0  0  0  0  0  0
  186.3310  178.6520  141.0820 C   0  0  0  0  0  2  0  0  0  0  0  0
  187.7830  179.0090  140.7530 C   0  0  0  0  0  2  0  0  0  0  0  0
  187.2980  177.3110  138.8840 C   0  0  2  0  0  3  0  0  0  0  0  0
  189.8020  177.3270  144.5600 N   0  0  0  0  0  0  0  0  0  0  0  0
  189.5150  177.1390  141.8190 C   0  0  0  0  0  0  0  0  0  0  0  0
  188.6900  176.3920  142.6660 C   0  0  0  0  0  3  0  0  0  0  0  0
  188.8440  176.5020  144.0480 C   0  0  0  0  0  3  0  0  0  0  0  0
  190.6190  178.0580  143.7590 C   0  0  0  0  0  3  0  0  0  0  0  0
  190.4890  177.9800  142.3720 C   0  0  0  0  0  3  0  0  0  0  0  0
  1  2  1  6  0  0  0
  1 23  1  0  0  0  0
  2  5  2  0  0  0  0
  3 10  2  0  0  0  0
  4  9  1  0  0  0  0
  6 11  1  0  0  0  0
  7  6  1  0  0  0  0
  7  9  2  0  0  0  0
  8  2  1  0  0  0  0
  9  3  1  0  0  0  0
 10 12  1  0  0  0  0
 11 10  1  0  0  0  0
 11  8  2  0  0  0  0
 12  5  1  0  0  0  0
 13 17  1  6  0  0  0
 13  1  1  0  0  0  0
 13 20  1  0  0  0  0
 16 19  1  0  0  0  0
 18 15  1  1  0  0  0
 18 21  1  0  0  0  0
 18 16  1  0  0  0  0
 20 19  1  0  0  0  0
 21 14  1  6  0  0  0
 21 13  1  0  0  0  0
 23 27  2  0  0  0  0
 23 24  1  0  0  0  0
 24 25  2  0  0  0  0
 25 22  1  0  0  0  0
 26 22  2  0  0  0  0
 27 26  1  0  0  0  0
M  END
>  <MODEL>
8

>  <REMARK>
 VINA RESULT:      -7.3      2.407      4.305
  Name = 
  3 active torsions:
  status: ('A' for Active; 'I' for Inactive)
    1  A    between atoms: C_1  and  C_15
    2  A    between atoms: C_2  and  C_15
    3  A    between atoms: C_9  and  C_15
                            x       y       z     vdW  Elec       q    Type
                         _______ _______ _______ _____ _____    ______ ____

>  <TORSDO>
F 3

$$$$
=
 OpenBabel10262420033D

 27 30  0  0  1  0  0  0  0  0999 V2000
  190.8210  176.2810  136.3670 C   0  0  2  0  0  3  0  0  0  0  0  0
  190.1810  177.0120  137.5150 C   0  0  0  0  0  0  0  0  0  0  0  0
  188.0090  178.4330  140.7500 C   0  0  0  0  0  3  0  0  0  0  0  0
  187.1410  177.9330  142.8940 O   0  0  0  0  0  1  0  0  0  0  0  0
  189.3250  178.0220  137.3210 C   0  0  0  0  0  3  0  0  0  0  0  0
  190.1570  176.5920  141.2420 C   0  0  0  0  0  3  0  0  0  0  0  0
  189.3130  176.9510  142.2180 C   0  0  0  0  0  3  0  0  0  0  0  0
  190.4330  176.5330  138.8470 N   0  0  0  0  0  0  0  0  0  0  0  0
  188.1450  177.8210  141.9390 C   0  0  0  0  0  0  0  0  0  0  0  0
  189.1390  178.3920  139.7620 C   0  0  1  0  0  3  0  0  0  0  0  0
  189.9440  177.1290  139.8920 C   0  0  0  0  0  0  0  0  0  0  0  0
  188.7240  178.6620  138.4160 O   0  0  0  0  0  0  0  0  0  0  0  0
  189.9810  175.1780  135.6650 C   0  0  2  0  0  0  0  0  0  0  0  0
  190.0270  173.5850  137.5140 O   0  0  0  0  0  1  0  0  0  0  0  0
  187.2870  173.0410  137.2380 O   0  0  0  0  0  1  0  0  0  0  0  0
  187.0460  174.4960  135.3590 C   0  0  0  0  0  2  0  0  0  0  0  0
  190.9030  174.1990  134.9390 C   0  0  0  0  0  1  0  0  0  0  0  0
  187.9990  173.6220  136.1920 C   0  0  1  0  0  3  0  0  0  0  0  0
  187.5990  175.8910  135.0670 C   0  0  0  0  0  2  0  0  0  0  0  0
  189.0520  175.7960  134.5940 C   0  0  0  0  0  2  0  0  0  0  0  0
  189.1870  174.4140  136.7570 C   0  0  2  0  0  3  0  0  0  0  0  0
  194.9530  175.3820  136.9440 N   0  0  0  0  0  0  0  0  0  0  0  0
  192.2770  175.9620  136.5880 C   0  0  0  0  0  0  0  0  0  0  0  0
  193.2150  176.3580  135.6310 C   0  0  0  0  0  3  0  0  0  0  0  0
  194.5630  176.0520  135.8230 C   0  0  0  0  0  3  0  0  0  0  0  0
  194.0620  174.9910  137.8900 C   0  0  0  0  0  3  0  0  0  0  0  0
  192.7050  175.2720  137.7290 C   0  0  0  0  0  3  0  0  0  0  0  0
  1 23  1  1  0  0  0
  1  2  1  0  0  0  0
  2  8  1  0  0  0  0
  3  9  2  0  0  0  0
  5  2  2  0  0  0  0
  5 12  1  0  0  0  0
  6  7  2  0  0  0  0
  8 11  2  0  0  0  0
  9  7  1  0  0  0  0
  9  4  1  0  0  0  0
 10 11  1  0  0  0  0
 10  3  1  1  0  0  0
 11  6  1  0  0  0  0
 12 10  1  0  0  0  0
 13 17  1  6  0  0  0
 13  1  1  0  0  0  0
 13 21  1  0  0  0  0
 16 18  1  0  0  0  0
 18 21  1  0  0  0  0
 18 15  1  1  0  0  0
 19 16  1  0  0  0  0
 20 19  1  0  0  0  0
 20 13  1  0  0  0  0
 21 14  1  6  0  0  0
 22 26  1  0  0  0  0
 23 27  1  0  0  0  0
 24 25  1  0  0  0  0
 24 23  2  0  0  0  0
 25 22  2  0  0  0  0
 27 26  2  0  0  0  0
M  END
>  <MODEL>
9

>  <REMARK>
 VINA RESULT:      -7.3      3.053      7.482
  Name = 
  3 active torsions:
  status: ('A' for Active; 'I' for Inactive)
    1  A    between atoms: C_1  and  C_15
    2  A    between atoms: C_2  and  C_15
    3  A    between atoms: C_9  and  C_15
                            x       y       z     vdW  Elec       q    Type
                         _______ _______ _______ _____ _____    ______ ____

>  <TORSDO>
F 3

$$$$
