=
 OpenBabel10262421513D

 30 33  0  0  1  0  0  0  0  0999 V2000
  187.9590  177.2620  142.2290 C   0  0  1  0  0  3  0  0  0  0  0  0
  188.1670  176.4440  143.5360 C   0  0  0  0  0  2  0  0  0  0  0  0
  187.1170  178.4090  142.3150 O   0  0  0  0  0  0  0  0  0  0  0  0
  185.7870  178.5370  145.9350 S   0  0  0  0  0  0  0  0  0  0  0  0
  187.0390  178.4460  144.6630 C   0  0  2  0  0  3  0  0  0  0  0  0
  185.2610  179.2760  143.3900 O   0  0  0  0  0  0  0  0  0  0  0  0
  186.2460  178.2840  143.4060 C   0  0  1  0  0  3  0  0  0  0  0  0
  187.9920  177.2590  144.8380 C   0  0  2  0  0  3  0  0  0  0  0  0
  183.3540  178.5370  144.6530 C   0  0  0  0  0  1  0  0  0  0  0  0
  184.6800  179.2760  144.6770 C   0  0  1  0  0  3  0  0  0  0  0  0
  189.1230  178.0580  146.8160 O   0  0  0  0  0  0  0  0  0  0  0  0
  190.4800  176.3590  147.0210 C   0  0  1  0  0  3  0  0  0  0  0  0
  189.3660  176.9930  147.5810 O   0  0  0  0  0  0  0  0  0  0  0  0
  190.2550  176.4620  145.5420 C   0  0  1  0  0  3  0  0  0  0  0  0
  189.9480  178.8590  144.7340 C   0  0  0  0  0  1  0  0  0  0  0  0
  189.3350  177.6690  145.4760 C   0  0  1  0  0  0  0  0  0  0  0  0
  191.6450  177.0300  147.4180 O   0  0  0  0  0  0  0  0  0  0  0  0
  192.4240  176.0530  148.0380 C   0  0  0  0  0  1  0  0  0  0  0  0
  191.5350  176.5070  144.6940 C   0  0  0  0  0  2  0  0  0  0  0  0
  191.7460  175.1990  143.9450 C   0  0  0  0  0  2  0  0  0  0  0  0
  192.3960  174.1670  144.8490 C   0  0  0  0  0  1  0  0  0  0  0  0
  189.2110  177.6460  141.7160 O   0  0  0  0  0  0  0  0  0  0  0  0
  189.3010  177.2670  140.3560 C   0  0  2  0  0  3  0  0  0  0  0  0
  190.6800  176.7450  139.9710 C   0  0  0  0  0  1  0  0  0  0  0  0
  188.8020  178.3340  139.3830 C   0  0  0  0  0  2  0  0  0  0  0  0
  187.9730  177.7030  138.2780 C   0  0  1  0  0  3  0  0  0  0  0  0
  186.5920  178.1540  138.3830 C   0  0  0  0  0  2  0  0  0  0  0  0
  187.4800  178.7560  137.3780 N   0  0  0  0  0  0  0  0  0  0  0  0
  188.3620  177.8850  135.4120 O   0  0  0  0  0  1  0  0  0  0  0  0
  187.1790  178.1080  136.1150 C   0  0  0  0  0  2  0  0  0  0  0  0
  1 22  1  1  0  0  0
  1  3  1  0  0  0  0
  1  2  1  0  0  0  0
  5  8  1  0  0  0  0
  5  4  1  1  0  0  0
  6  7  1  0  0  0  0
  6 10  1  0  0  0  0
  7  3  1  6  0  0  0
  7  5  1  0  0  0  0
  8  2  1  6  0  0  0
  8 16  1  0  0  0  0
 10  9  1  6  0  0  0
 10  4  1  0  0  0  0
 11 13  1  0  0  0  0
 12 17  1  6  0  0  0
 12 13  1  0  0  0  0
 14 19  1  6  0  0  0
 14 12  1  0  0  0  0
 16 15  1  6  0  0  0
 16 14  1  0  0  0  0
 16 11  1  0  0  0  0
 17 18  1  0  0  0  0
 20 19  1  0  0  0  0
 20 21  1  0  0  0  0
 23 24  1  6  0  0  0
 23 22  1  0  0  0  0
 25 23  1  0  0  0  0
 26 27  1  0  0  0  0
 26 25  1  1  0  0  0
 28 26  1  0  0  0  0
 28 27  1  0  0  0  0
 29 30  1  0  0  0  0
 30 28  1  0  0  0  0
M  END
>  <MODEL>
1

>  <REMARK>
 VINA RESULT:      -7.2      0.000      0.000
  Name = 
  9 active torsions:
  status: ('A' for Active; 'I' for Inactive)
    1  A    between atoms: C_1  and  O_22
    2  A    between atoms: C_2  and  C_14
    3  A    between atoms: C_2  and  O_22
    4  A    between atoms: C_10  and  O_15
    5  A    between atoms: C_11  and  C_25
    6  A    between atoms: C_13  and  C_30
    7  A    between atoms: C_14  and  C_20
    8  A    between atoms: C_19  and  N_29
    9  A    between atoms: C_23  and  C_25
                            x       y       z     vdW  Elec       q    Type
                         _______ _______ _______ _____ _____    ______ ____

>  <TORSDO>
F 9

$$$$
=
 OpenBabel10262421513D

 30 33  0  0  1  0  0  0  0  0999 V2000
  187.5880  177.4970  145.4970 C   0  0  1  0  0  3  0  0  0  0  0  0
  188.0250  176.6060  144.2990 C   0  0  0  0  0  2  0  0  0  0  0  0
  188.6040  177.8720  146.4250 O   0  0  0  0  0  0  0  0  0  0  0  0
  191.8550  176.1520  145.2580 S   0  0  0  0  0  0  0  0  0  0  0  0
  190.3970  177.1690  145.0780 C   0  0  2  0  0  3  0  0  0  0  0  0
  190.5730  177.1640  147.4110 O   0  0  0  0  0  0  0  0  0  0  0  0
  189.6670  176.9600  146.3670 C   0  0  1  0  0  3  0  0  0  0  0  0
  189.5110  176.7510  143.9000 C   0  0  2  0  0  3  0  0  0  0  0  0
  191.8040  175.1390  147.8140 C   0  0  0  0  0  1  0  0  0  0  0  0
  191.7430  176.4550  147.0610 C   0  0  1  0  0  3  0  0  0  0  0  0
  190.8170  177.1740  141.9140 O   0  0  0  0  0  0  0  0  0  0  0  0
  189.1650  176.9940  140.4950 C   0  0  1  0  0  3  0  0  0  0  0  0
  190.3350  176.3800  140.9560 O   0  0  0  0  0  0  0  0  0  0  0  0
  188.5150  177.5210  141.7400 C   0  0  1  0  0  3  0  0  0  0  0  0
  190.0170  179.0880  143.0750 C   0  0  0  0  0  1  0  0  0  0  0  0
  189.7170  177.6450  142.6610 C   0  0  1  0  0  0  0  0  0  0  0  0
  189.4990  178.0240  139.6070 O   0  0  0  0  0  0  0  0  0  0  0  0
  189.8390  177.3750  138.4200 C   0  0  0  0  0  1  0  0  0  0  0  0
  187.6510  178.7760  141.5370 C   0  0  0  0  0  2  0  0  0  0  0  0
  186.1740  178.4650  141.7250 C   0  0  0  0  0  2  0  0  0  0  0  0
  185.3750  178.9270  140.5200 C   0  0  0  0  0  1  0  0  0  0  0  0
  186.9580  178.6570  145.0110 O   0  0  0  0  0  0  0  0  0  0  0  0
  185.7510  178.8710  145.7170 C   0  0  2  0  0  3  0  0  0  0  0  0
  185.9220  178.7960  147.2300 C   0  0  0  0  0  1  0  0  0  0  0  0
  184.5900  178.0050  145.2310 C   0  0  0  0  0  2  0  0  0  0  0  0
  183.3870  178.8660  144.8910 C   0  0  1  0  0  3  0  0  0  0  0  0
  183.7950  179.9540  144.0120 C   0  0  0  0  0  2  0  0  0  0  0  0
  183.1170  178.7780  143.4480 N   0  0  0  0  0  0  0  0  0  0  0  0
  181.3480  178.9160  141.9450 O   0  0  0  0  0  1  0  0  0  0  0  0
  181.7250  179.1470  143.2680 C   0  0  0  0  0  2  0  0  0  0  0  0
  1 22  1  6  0  0  0
  1  3  1  0  0  0  0
  2  1  1  0  0  0  0
  4 10  1  0  0  0  0
  5  4  1  1  0  0  0
  5  7  1  0  0  0  0
  7  3  1  1  0  0  0
  7  6  1  0  0  0  0
  8  2  1  1  0  0  0
  8  5  1  0  0  0  0
 10  6  1  0  0  0  0
 10  9  1  1  0  0  0
 11 16  1  0  0  0  0
 12 17  1  6  0  0  0
 12 13  1  0  0  0  0
 12 14  1  0  0  0  0
 13 11  1  0  0  0  0
 14 19  1  6  0  0  0
 14 16  1  0  0  0  0
 16 15  1  1  0  0  0
 16  8  1  0  0  0  0
 18 17  1  0  0  0  0
 19 20  1  0  0  0  0
 21 20  1  0  0  0  0
 22 23  1  0  0  0  0
 23 24  1  1  0  0  0
 25 23  1  0  0  0  0
 26 25  1  6  0  0  0
 27 26  1  0  0  0  0
 28 27  1  0  0  0  0
 28 26  1  0  0  0  0
 29 30  1  0  0  0  0
 30 28  1  0  0  0  0
M  END
>  <MODEL>
2

>  <REMARK>
 VINA RESULT:      -7.1      2.588      6.664
  Name = 
  9 active torsions:
  status: ('A' for Active; 'I' for Inactive)
    1  A    between atoms: C_1  and  O_22
    2  A    between atoms: C_2  and  C_14
    3  A    between atoms: C_2  and  O_22
    4  A    between atoms: C_10  and  O_15
    5  A    between atoms: C_11  and  C_25
    6  A    between atoms: C_13  and  C_30
    7  A    between atoms: C_14  and  C_20
    8  A    between atoms: C_19  and  N_29
    9  A    between atoms: C_23  and  C_25
                            x       y       z     vdW  Elec       q    Type
                         _______ _______ _______ _____ _____    ______ ____

>  <TORSDO>
F 9

$$$$
=
 OpenBabel10262421513D

 30 33  0  0  1  0  0  0  0  0999 V2000
  186.7250  178.7960  141.8680 C   0  0  1  0  0  3  0  0  0  0  0  0
  188.1490  179.0860  142.4220 C   0  0  0  0  0  2  0  0  0  0  0  0
  186.6470  178.0710  140.6430 O   0  0  0  0  0  0  0  0  0  0  0  0
  190.2760  177.4670  139.4820 S   0  0  0  0  0  0  0  0  0  0  0  0
  188.9060  177.4260  140.6280 C   0  0  2  0  0  3  0  0  0  0  0  0
  187.7230  177.7030  138.6290 O   0  0  0  0  0  0  0  0  0  0  0  0
  187.8440  178.2090  139.9260 C   0  0  1  0  0  3  0  0  0  0  0  0
  189.2300  178.0740  141.9780 C   0  0  2  0  0  3  0  0  0  0  0  0
  189.3730  178.7270  137.2100 C   0  0  0  0  0  1  0  0  0  0  0  0
  189.0400  177.5700  138.1340 C   0  0  1  0  0  3  0  0  0  0  0  0
  190.9190  176.6570  142.9610 O   0  0  0  0  0  0  0  0  0  0  0  0
  190.8170  177.5150  144.9670 C   0  0  1  0  0  3  0  0  0  0  0  0
  191.6090  177.4120  143.8180 O   0  0  0  0  0  0  0  0  0  0  0  0
  189.4230  177.6710  144.4380 C   0  0  1  0  0  3  0  0  0  0  0  0
  188.7130  175.7730  142.8930 C   0  0  0  0  0  1  0  0  0  0  0  0
  189.5640  177.0340  143.0660 C   0  0  1  0  0  0  0  0  0  0  0  0
  190.9550  176.3500  145.7340 O   0  0  0  0  0  0  0  0  0  0  0  0
  191.7590  176.7260  146.8100 C   0  0  0  0  0  1  0  0  0  0  0  0
  188.3170  177.1270  145.3560 C   0  0  0  0  0  2  0  0  0  0  0  0
  188.0590  178.0670  146.5240 C   0  0  0  0  0  2  0  0  0  0  0  0
  188.2600  177.3440  147.8440 C   0  0  0  0  0  1  0  0  0  0  0  0
  185.9700  178.1270  142.8480 O   0  0  0  0  0  0  0  0  0  0  0  0
  184.9140  178.9620  143.2830 C   0  0  2  0  0  3  0  0  0  0  0  0
  184.9590  179.2530  144.7780 C   0  0  0  0  0  1  0  0  0  0  0  0
  183.5310  178.4910  142.8340 C   0  0  0  0  0  2  0  0  0  0  0  0
  183.5340  178.1610  141.3520 C   0  0  1  0  0  3  0  0  0  0  0  0
  182.1710  178.1830  140.8420 C   0  0  0  0  0  2  0  0  0  0  0  0
  183.0600  179.3270  140.5930 N   0  0  0  0  0  0  0  0  0  0  0  0
  184.5690  180.1160  139.0110 O   0  0  0  0  0  1  0  0  0  0  0  0
  183.5690  179.1730  139.2430 C   0  0  0  0  0  2  0  0  0  0  0  0
  1  2  1  0  0  0  0
  1 22  1  1  0  0  0
  3  1  1  0  0  0  0
  5  4  1  6  0  0  0
  5  8  1  0  0  0  0
  7  6  1  6  0  0  0
  7  5  1  0  0  0  0
  7  3  1  0  0  0  0
  8  2  1  1  0  0  0
  8 16  1  0  0  0  0
 10  9  1  6  0  0  0
 10  6  1  0  0  0  0
 10  4  1  0  0  0  0
 11 16  1  0  0  0  0
 11 13  1  0  0  0  0
 12 17  1  1  0  0  0
 13 12  1  0  0  0  0
 14 12  1  0  0  0  0
 14 19  1  1  0  0  0
 16 15  1  6  0  0  0
 16 14  1  0  0  0  0
 17 18  1  0  0  0  0
 19 20  1  0  0  0  0
 20 21  1  0  0  0  0
 22 23  1  0  0  0  0
 23 24  1  1  0  0  0
 25 23  1  0  0  0  0
 26 25  1  1  0  0  0
 27 26  1  0  0  0  0
 28 27  1  0  0  0  0
 28 26  1  0  0  0  0
 29 30  1  0  0  0  0
 30 28  1  0  0  0  0
M  END
>  <MODEL>
3

>  <REMARK>
 VINA RESULT:      -7.1      2.742      4.996
  Name = 
  9 active torsions:
  status: ('A' for Active; 'I' for Inactive)
    1  A    between atoms: C_1  and  O_22
    2  A    between atoms: C_2  and  C_14
    3  A    between atoms: C_2  and  O_22
    4  A    between atoms: C_10  and  O_15
    5  A    between atoms: C_11  and  C_25
    6  A    between atoms: C_13  and  C_30
    7  A    between atoms: C_14  and  C_20
    8  A    between atoms: C_19  and  N_29
    9  A    between atoms: C_23  and  C_25
                            x       y       z     vdW  Elec       q    Type
                         _______ _______ _______ _____ _____    ______ ____

>  <TORSDO>
F 9

$$$$
=
 OpenBabel10262421513D

 30 33  0  0  1  0  0  0  0  0999 V2000
  186.3350  178.8700  141.7650 C   0  0  1  0  0  3  0  0  0  0  0  0
  187.7130  179.2270  142.3930 C   0  0  0  0  0  2  0  0  0  0  0  0
  186.3540  178.1080  140.5600 O   0  0  0  0  0  0  0  0  0  0  0  0
  190.0650  177.6010  139.6330 S   0  0  0  0  0  0  0  0  0  0  0  0
  188.6320  177.5440  140.6980 C   0  0  2  0  0  3  0  0  0  0  0  0
  187.5610  177.7210  138.6250 O   0  0  0  0  0  0  0  0  0  0  0  0
  187.5860  178.2690  139.9110 C   0  0  1  0  0  3  0  0  0  0  0  0
  188.8520  178.2420  142.0440 C   0  0  2  0  0  3  0  0  0  0  0  0
  189.2560  178.7620  137.2750 C   0  0  0  0  0  1  0  0  0  0  0  0
  188.9080  177.6210  138.2130 C   0  0  1  0  0  3  0  0  0  0  0  0
  190.5410  176.9850  143.2250 O   0  0  0  0  0  0  0  0  0  0  0  0
  190.1570  177.8540  145.1930 C   0  0  1  0  0  3  0  0  0  0  0  0
  191.0710  177.8060  144.1340 O   0  0  0  0  0  0  0  0  0  0  0  0
  188.8180  177.8840  144.5180 C   0  0  1  0  0  3  0  0  0  0  0  0
  188.4360  175.9150  142.9460 C   0  0  0  0  0  1  0  0  0  0  0  0
  189.1560  177.2460  143.1810 C   0  0  1  0  0  0  0  0  0  0  0  0
  190.3110  176.7130  145.9920 O   0  0  0  0  0  0  0  0  0  0  0  0
  191.6210  176.7840  146.4640 C   0  0  0  0  0  1  0  0  0  0  0  0
  187.6710  177.2580  145.3270 C   0  0  0  0  0  2  0  0  0  0  0  0
  187.0140  178.2840  146.2370 C   0  0  0  0  0  2  0  0  0  0  0  0
  187.4290  178.0600  147.6800 C   0  0  0  0  0  1  0  0  0  0  0  0
  185.5460  178.2030  142.7200 O   0  0  0  0  0  0  0  0  0  0  0  0
  184.3430  178.9190  142.9220 C   0  0  2  0  0  3  0  0  0  0  0  0
  183.9070  178.9560  144.3820 C   0  0  0  0  0  1  0  0  0  0  0  0
  183.2050  178.4880  141.9970 C   0  0  0  0  0  2  0  0  0  0  0  0
  181.8950  179.1200  142.4310 C   0  0  1  0  0  3  0  0  0  0  0  0
  181.0180  179.2710  141.2790 C   0  0  0  0  0  2  0  0  0  0  0  0
  180.7990  178.1630  142.2210 N   0  0  0  0  0  0  0  0  0  0  0  0
  179.6480  177.6990  144.1860 O   0  0  0  0  0  1  0  0  0  0  0  0
  179.7220  178.5730  143.1020 C   0  0  0  0  0  2  0  0  0  0  0  0
  1  2  1  0  0  0  0
  1 22  1  1  0  0  0
  3  1  1  0  0  0  0
  5  4  1  6  0  0  0
  5  8  1  0  0  0  0
  7  6  1  6  0  0  0
  7  3  1  0  0  0  0
  7  5  1  0  0  0  0
  8  2  1  1  0  0  0
  8 16  1  0  0  0  0
 10  9  1  6  0  0  0
 10  6  1  0  0  0  0
 10  4  1  0  0  0  0
 11 13  1  0  0  0  0
 12 17  1  1  0  0  0
 13 12  1  0  0  0  0
 14 12  1  0  0  0  0
 14 19  1  1  0  0  0
 16 15  1  6  0  0  0
 16 11  1  0  0  0  0
 16 14  1  0  0  0  0
 17 18  1  0  0  0  0
 19 20  1  0  0  0  0
 20 21  1  0  0  0  0
 22 23  1  0  0  0  0
 23 24  1  1  0  0  0
 25 23  1  0  0  0  0
 26 25  1  6  0  0  0
 27 28  1  0  0  0  0
 27 26  1  0  0  0  0
 28 26  1  0  0  0  0
 28 30  1  0  0  0  0
 30 29  1  0  0  0  0
M  END
>  <MODEL>
4

>  <REMARK>
 VINA RESULT:      -6.9      3.058      5.923
  Name = 
  9 active torsions:
  status: ('A' for Active; 'I' for Inactive)
    1  A    between atoms: C_1  and  O_22
    2  A    between atoms: C_2  and  C_14
    3  A    between atoms: C_2  and  O_22
    4  A    between atoms: C_10  and  O_15
    5  A    between atoms: C_11  and  C_25
    6  A    between atoms: C_13  and  C_30
    7  A    between atoms: C_14  and  C_20
    8  A    between atoms: C_19  and  N_29
    9  A    between atoms: C_23  and  C_25
                            x       y       z     vdW  Elec       q    Type
                         _______ _______ _______ _____ _____    ______ ____

>  <TORSDO>
F 9

$$$$
=
 OpenBabel10262421513D

 30 33  0  0  1  0  0  0  0  0999 V2000
  186.2770  177.6570  143.8610 C   0  0  1  0  0  3  0  0  0  0  0  0
  187.3860  176.5960  143.6030 C   0  0  0  0  0  2  0  0  0  0  0  0
  186.4400  178.4940  145.0040 O   0  0  0  0  0  0  0  0  0  0  0  0
  189.6500  177.3120  146.7900 S   0  0  0  0  0  0  0  0  0  0  0  0
  188.6730  177.8790  145.4060 C   0  0  2  0  0  3  0  0  0  0  0  0
  187.2780  178.5540  147.1590 O   0  0  0  0  0  0  0  0  0  0  0  0
  187.2760  177.8690  145.9410 C   0  0  1  0  0  3  0  0  0  0  0  0
  188.7720  176.9630  144.1820 C   0  0  2  0  0  3  0  0  0  0  0  0
  187.9320  177.0540  148.9220 C   0  0  0  0  0  1  0  0  0  0  0  0
  188.3870  178.0640  147.8840 C   0  0  1  0  0  3  0  0  0  0  0  0
  190.9320  176.7440  143.1260 O   0  0  0  0  0  0  0  0  0  0  0  0
  190.1790  176.4280  141.1000 C   0  0  1  0  0  3  0  0  0  0  0  0
  190.8100  175.8080  142.1840 O   0  0  0  0  0  0  0  0  0  0  0  0
  189.1450  177.3090  141.7340 C   0  0  1  0  0  3  0  0  0  0  0  0
  190.1200  178.9600  143.4130 C   0  0  0  0  0  1  0  0  0  0  0  0
  189.7450  177.5060  143.1160 C   0  0  1  0  0  0  0  0  0  0  0  0
  191.1220  177.1700  140.3760 O   0  0  0  0  0  0  0  0  0  0  0  0
  191.3500  176.4250  139.2190 C   0  0  0  0  0  1  0  0  0  0  0  0
  188.7920  178.5720  140.9340 C   0  0  0  0  0  2  0  0  0  0  0  0
  187.9480  178.2350  139.7140 C   0  0  0  0  0  2  0  0  0  0  0  0
  188.6720  178.6310  138.4400 C   0  0  0  0  0  1  0  0  0  0  0  0
  186.1280  178.4630  142.7180 O   0  0  0  0  0  0  0  0  0  0  0  0
  184.7930  178.3830  142.2550 C   0  0  2  0  0  3  0  0  0  0  0  0
  184.6010  179.0030  140.8760 C   0  0  0  0  0  1  0  0  0  0  0  0
  183.7600  178.8920  143.2590 C   0  0  0  0  0  2  0  0  0  0  0  0
  182.3520  178.6220  142.7600 C   0  0  1  0  0  3  0  0  0  0  0  0
  181.4240  178.6280  143.8830 C   0  0  0  0  0  2  0  0  0  0  0  0
  181.5140  179.8050  143.0060 N   0  0  0  0  0  0  0  0  0  0  0  0
  179.6840  180.9140  142.0970 O   0  0  0  0  0  1  0  0  0  0  0  0
  180.4010  179.7180  142.0780 C   0  0  0  0  0  2  0  0  0  0  0  0
  1 22  1  6  0  0  0
  1  3  1  0  0  0  0
  2  1  1  0  0  0  0
  4 10  1  0  0  0  0
  5  7  1  0  0  0  0
  5  4  1  1  0  0  0
  6 10  1  0  0  0  0
  7  3  1  6  0  0  0
  7  6  1  0  0  0  0
  8  2  1  6  0  0  0
  8  5  1  0  0  0  0
 10  9  1  1  0  0  0
 12 17  1  1  0  0  0
 12 14  1  0  0  0  0
 12 13  1  0  0  0  0
 13 11  1  0  0  0  0
 14 19  1  6  0  0  0
 14 16  1  0  0  0  0
 16 11  1  0  0  0  0
 16 15  1  1  0  0  0
 16  8  1  0  0  0  0
 18 17  1  0  0  0  0
 20 19  1  0  0  0  0
 21 20  1  0  0  0  0
 23 24  1  6  0  0  0
 23 22  1  0  0  0  0
 23 25  1  0  0  0  0
 26 28  1  0  0  0  0
 26 25  1  1  0  0  0
 26 27  1  0  0  0  0
 28 27  1  0  0  0  0
 30 29  1  0  0  0  0
 30 28  1  0  0  0  0
M  END
>  <MODEL>
5

>  <REMARK>
 VINA RESULT:      -6.8      2.929      5.837
  Name = 
  9 active torsions:
  status: ('A' for Active; 'I' for Inactive)
    1  A    between atoms: C_1  and  O_22
    2  A    between atoms: C_2  and  C_14
    3  A    between atoms: C_2  and  O_22
    4  A    between atoms: C_10  and  O_15
    5  A    between atoms: C_11  and  C_25
    6  A    between atoms: C_13  and  C_30
    7  A    between atoms: C_14  and  C_20
    8  A    between atoms: C_19  and  N_29
    9  A    between atoms: C_23  and  C_25
                            x       y       z     vdW  Elec       q    Type
                         _______ _______ _______ _____ _____    ______ ____

>  <TORSDO>
F 9

$$$$
=
 OpenBabel10262421513D

 30 33  0  0  1  0  0  0  0  0999 V2000
  190.8060  177.3050  143.0010 C   0  0  1  0  0  3  0  0  0  0  0  0
  189.7870  178.3380  143.5630 C   0  0  0  0  0  2  0  0  0  0  0  0
  191.2770  176.3080  143.9040 O   0  0  0  0  0  0  0  0  0  0  0  0
  189.6670  177.0690  147.3270 S   0  0  0  0  0  0  0  0  0  0  0  0
  189.6790  176.7520  145.5690 C   0  0  2  0  0  3  0  0  0  0  0  0
  191.7870  175.9030  146.1240 O   0  0  0  0  0  0  0  0  0  0  0  0
  191.1350  176.7530  145.2260 C   0  0  1  0  0  3  0  0  0  0  0  0
  188.9480  177.8270  144.7570 C   0  0  2  0  0  3  0  0  0  0  0  0
  192.2930  177.1040  148.1440 C   0  0  0  0  0  1  0  0  0  0  0  0
  191.2940  176.2320  147.4060 C   0  0  1  0  0  3  0  0  0  0  0  0
  186.7380  177.2140  145.5090 O   0  0  0  0  0  0  0  0  0  0  0  0
  185.6740  178.8020  144.4520 C   0  0  1  0  0  3  0  0  0  0  0  0
  186.0690  178.3490  145.7160 O   0  0  0  0  0  0  0  0  0  0  0  0
  186.8560  178.5160  143.5750 C   0  0  1  0  0  3  0  0  0  0  0  0
  187.5550  176.0660  143.5930 C   0  0  0  0  0  1  0  0  0  0  0  0
  187.5250  177.3950  144.3520 C   0  0  1  0  0  0  0  0  0  0  0  0
  184.5370  178.0950  144.0400 O   0  0  0  0  0  0  0  0  0  0  0  0
  183.4600  178.8810  144.4510 C   0  0  0  0  0  1  0  0  0  0  0  0
  186.5180  178.2460  142.1000 C   0  0  0  0  0  2  0  0  0  0  0  0
  185.6930  179.3780  141.5070 C   0  0  0  0  0  2  0  0  0  0  0  0
  184.6620  178.8340  140.5350 C   0  0  0  0  0  1  0  0  0  0  0  0
  190.2580  176.6780  141.8670 O   0  0  0  0  0  0  0  0  0  0  0  0
  190.4580  177.4970  140.7310 C   0  0  2  0  0  3  0  0  0  0  0  0
  189.2160  177.6200  139.8560 C   0  0  0  0  0  1  0  0  0  0  0  0
  191.6970  177.1280  139.9150 C   0  0  0  0  0  2  0  0  0  0  0  0
  191.3070  176.7340  138.5020 C   0  0  1  0  0  3  0  0  0  0  0  0
  192.4680  176.1990  137.8040 C   0  0  0  0  0  2  0  0  0  0  0  0
  191.4560  175.2790  138.3440 N   0  0  0  0  0  0  0  0  0  0  0  0
  189.9620  173.6960  137.5280 O   0  0  0  0  0  1  0  0  0  0  0  0
  190.6050  174.8980  137.2320 C   0  0  0  0  0  2  0  0  0  0  0  0
  1 22  1  6  0  0  0
  1  2  1  0  0  0  0
  1  3  1  0  0  0  0
  4 10  1  0  0  0  0
  5  4  1  1  0  0  0
  6 10  1  0  0  0  0
  7  3  1  6  0  0  0
  7  5  1  0  0  0  0
  7  6  1  0  0  0  0
  8  2  1  6  0  0  0
  8  5  1  0  0  0  0
 10  9  1  6  0  0  0
 11 13  1  0  0  0  0
 12 17  1  6  0  0  0
 12 13  1  0  0  0  0
 14 19  1  6  0  0  0
 14 16  1  0  0  0  0
 14 12  1  0  0  0  0
 16 15  1  6  0  0  0
 16  8  1  0  0  0  0
 16 11  1  0  0  0  0
 17 18  1  0  0  0  0
 20 19  1  0  0  0  0
 21 20  1  0  0  0  0
 23 24  1  6  0  0  0
 23 22  1  0  0  0  0
 25 23  1  0  0  0  0
 26 25  1  1  0  0  0
 27 28  1  0  0  0  0
 27 26  1  0  0  0  0
 28 26  1  0  0  0  0
 30 29  1  0  0  0  0
 30 28  1  0  0  0  0
M  END
>  <MODEL>
6

>  <REMARK>
 VINA RESULT:      -6.7      2.352      5.533
  Name = 
  9 active torsions:
  status: ('A' for Active; 'I' for Inactive)
    1  A    between atoms: C_1  and  O_22
    2  A    between atoms: C_2  and  C_14
    3  A    between atoms: C_2  and  O_22
    4  A    between atoms: C_10  and  O_15
    5  A    between atoms: C_11  and  C_25
    6  A    between atoms: C_13  and  C_30
    7  A    between atoms: C_14  and  C_20
    8  A    between atoms: C_19  and  N_29
    9  A    between atoms: C_23  and  C_25
                            x       y       z     vdW  Elec       q    Type
                         _______ _______ _______ _____ _____    ______ ____

>  <TORSDO>
F 9

$$$$
=
 OpenBabel10262421513D

 30 33  0  0  1  0  0  0  0  0999 V2000
  189.1680  176.9620  143.8390 C   0  0  1  0  0  3  0  0  0  0  0  0
  187.7880  176.5840  143.2290 C   0  0  0  0  0  2  0  0  0  0  0  0
  190.1240  177.5450  142.9560 O   0  0  0  0  0  0  0  0  0  0  0  0
  188.5010  177.6090  139.4560 S   0  0  0  0  0  0  0  0  0  0  0  0
  188.5990  177.9330  141.2110 C   0  0  2  0  0  3  0  0  0  0  0  0
  190.8650  177.5560  140.7640 O   0  0  0  0  0  0  0  0  0  0  0  0
  189.8300  177.1940  141.6310 C   0  0  1  0  0  3  0  0  0  0  0  0
  187.3850  177.4140  141.9880 C   0  0  2  0  0  3  0  0  0  0  0  0
  190.7650  176.2010  138.7810 C   0  0  0  0  0  1  0  0  0  0  0  0
  190.3290  177.4870  139.4600 C   0  0  1  0  0  3  0  0  0  0  0  0
  185.4390  178.6450  141.2630 O   0  0  0  0  0  0  0  0  0  0  0  0
  184.1760  178.1280  142.9690 C   0  0  1  0  0  3  0  0  0  0  0  0
  184.3730  177.9180  141.5990 O   0  0  0  0  0  0  0  0  0  0  0  0
  185.5630  178.1410  143.5390 C   0  0  1  0  0  3  0  0  0  0  0  0
  187.0800  179.8810  142.4590 C   0  0  0  0  0  1  0  0  0  0  0  0
  186.3730  178.5310  142.3140 C   0  0  1  0  0  0  0  0  0  0  0  0
  183.5230  179.3520  143.1620 O   0  0  0  0  0  0  0  0  0  0  0  0
  182.2420  179.0070  143.5930 C   0  0  0  0  0  1  0  0  0  0  0  0
  185.7370  179.0010  144.8000 C   0  0  0  0  0  2  0  0  0  0  0  0
  185.2830  178.2530  146.0440 C   0  0  0  0  0  2  0  0  0  0  0  0
  185.6920  179.0060  147.2970 C   0  0  0  0  0  1  0  0  0  0  0  0
  188.9740  177.8190  144.9380 O   0  0  0  0  0  0  0  0  0  0  0  0
  189.4520  177.1940  146.1140 C   0  0  2  0  0  3  0  0  0  0  0  0
  188.9710  177.8760  147.3900 C   0  0  0  0  0  1  0  0  0  0  0  0
  190.9630  176.9670  146.1230 C   0  0  0  0  0  2  0  0  0  0  0  0
  191.3750  176.1640  147.3430 C   0  0  1  0  0  3  0  0  0  0  0  0
  192.3370  175.1420  146.9550 C   0  0  0  0  0  2  0  0  0  0  0  0
  192.8060  176.3750  147.6040 N   0  0  0  0  0  0  0  0  0  0  0  0
  193.8060  177.0430  149.5940 O   0  0  0  0  0  1  0  0  0  0  0  0
  193.0200  176.0540  149.0030 C   0  0  0  0  0  2  0  0  0  0  0  0
  1 22  1  1  0  0  0
  2  1  1  0  0  0  0
  3  1  1  0  0  0  0
  4 10  1  0  0  0  0
  5  4  1  6  0  0  0
  5  7  1  0  0  0  0
  5  8  1  0  0  0  0
  7  6  1  6  0  0  0
  7  3  1  0  0  0  0
  8 16  1  0  0  0  0
  8  2  1  1  0  0  0
 10  9  1  1  0  0  0
 10  6  1  0  0  0  0
 11 13  1  0  0  0  0
 11 16  1  0  0  0  0
 12 17  1  6  0  0  0
 12 14  1  0  0  0  0
 13 12  1  0  0  0  0
 14 19  1  1  0  0  0
 16 15  1  1  0  0  0
 16 14  1  0  0  0  0
 17 18  1  0  0  0  0
 19 20  1  0  0  0  0
 20 21  1  0  0  0  0
 22 23  1  0  0  0  0
 23 25  1  0  0  0  0
 23 24  1  1  0  0  0
 26 25  1  6  0  0  0
 26 28  1  0  0  0  0
 27 26  1  0  0  0  0
 27 28  1  0  0  0  0
 28 30  1  0  0  0  0
 30 29  1  0  0  0  0
M  END
>  <MODEL>
7

>  <REMARK>
 VINA RESULT:      -6.5      3.342      7.883
  Name = 
  9 active torsions:
  status: ('A' for Active; 'I' for Inactive)
    1  A    between atoms: C_1  and  O_22
    2  A    between atoms: C_2  and  C_14
    3  A    between atoms: C_2  and  O_22
    4  A    between atoms: C_10  and  O_15
    5  A    between atoms: C_11  and  C_25
    6  A    between atoms: C_13  and  C_30
    7  A    between atoms: C_14  and  C_20
    8  A    between atoms: C_19  and  N_29
    9  A    between atoms: C_23  and  C_25
                            x       y       z     vdW  Elec       q    Type
                         _______ _______ _______ _____ _____    ______ ____

>  <TORSDO>
F 9

$$$$
=
 OpenBabel10262421513D

 30 33  0  0  1  0  0  0  0  0999 V2000
  190.4700  176.4390  142.7390 C   0  0  1  0  0  3  0  0  0  0  0  0
  188.9490  176.2040  142.5110 C   0  0  0  0  0  2  0  0  0  0  0  0
  191.2050  176.9990  141.6530 O   0  0  0  0  0  0  0  0  0  0  0  0
  188.7210  177.3970  138.7270 S   0  0  0  0  0  0  0  0  0  0  0  0
  189.3110  177.6050  140.4010 C   0  0  2  0  0  3  0  0  0  0  0  0
  191.3330  177.0860  139.3450 O   0  0  0  0  0  0  0  0  0  0  0  0
  190.5380  176.7510  140.4450 C   0  0  1  0  0  3  0  0  0  0  0  0
  188.3070  177.1350  141.4580 C   0  0  2  0  0  3  0  0  0  0  0  0
  190.5880  175.8630  137.4130 C   0  0  0  0  0  1  0  0  0  0  0  0
  190.4650  177.1350  138.2320 C   0  0  1  0  0  3  0  0  0  0  0  0
  186.6200  178.8320  141.1390 O   0  0  0  0  0  0  0  0  0  0  0  0
  185.2910  178.1560  142.7360 C   0  0  1  0  0  3  0  0  0  0  0  0
  185.4390  178.2500  141.3470 O   0  0  0  0  0  0  0  0  0  0  0  0
  186.6590  177.7830  143.2240 C   0  0  1  0  0  3  0  0  0  0  0  0
  188.4680  179.4300  142.5100 C   0  0  0  0  0  1  0  0  0  0  0  0
  187.5210  178.3040  142.0860 C   0  0  1  0  0  0  0  0  0  0  0  0
  184.8780  179.3950  143.2440 O   0  0  0  0  0  0  0  0  0  0  0  0
  183.5360  179.2130  143.5770 C   0  0  0  0  0  1  0  0  0  0  0  0
  186.9970  178.2700  144.6420 C   0  0  0  0  0  2  0  0  0  0  0  0
  186.2080  177.5010  145.6900 C   0  0  0  0  0  2  0  0  0  0  0  0
  185.4570  178.4560  146.5990 C   0  0  0  0  0  1  0  0  0  0  0  0
  190.6530  177.2400  143.8810 O   0  0  0  0  0  0  0  0  0  0  0  0
  191.6800  176.6910  144.6840 C   0  0  2  0  0  3  0  0  0  0  0  0
  191.9490  175.2200  144.3880 C   0  0  0  0  0  1  0  0  0  0  0  0
  191.5000  176.9500  146.1790 C   0  0  0  0  0  2  0  0  0  0  0  0
  190.0910  177.4360  146.4700 C   0  0  1  0  0  3  0  0  0  0  0  0
  189.3320  176.3780  147.1220 C   0  0  0  0  0  2  0  0  0  0  0  0
  189.8820  177.4800  147.9240 N   0  0  0  0  0  0  0  0  0  0  0  0
  188.0030  177.9550  149.2080 O   0  0  0  0  0  1  0  0  0  0  0  0
  188.7930  178.4120  148.1540 C   0  0  0  0  0  2  0  0  0  0  0  0
  1 22  1  1  0  0  0
  2  1  1  0  0  0  0
  3  1  1  0  0  0  0
  5  4  1  6  0  0  0
  5  7  1  0  0  0  0
  5  8  1  0  0  0  0
  7  6  1  6  0  0  0
  7  3  1  0  0  0  0
  8 16  1  0  0  0  0
  8  2  1  1  0  0  0
 10  9  1  1  0  0  0
 10  4  1  0  0  0  0
 10  6  1  0  0  0  0
 11 13  1  0  0  0  0
 11 16  1  0  0  0  0
 12 14  1  0  0  0  0
 12 17  1  1  0  0  0
 13 12  1  0  0  0  0
 14 19  1  1  0  0  0
 16 15  1  1  0  0  0
 16 14  1  0  0  0  0
 17 18  1  0  0  0  0
 19 20  1  0  0  0  0
 20 21  1  0  0  0  0
 22 23  1  0  0  0  0
 23 24  1  1  0  0  0
 23 25  1  0  0  0  0
 26 25  1  1  0  0  0
 26 27  1  0  0  0  0
 26 28  1  0  0  0  0
 27 28  1  0  0  0  0
 28 30  1  0  0  0  0
 30 29  1  0  0  0  0
M  END
>  <MODEL>
8

>  <REMARK>
 VINA RESULT:      -6.5      3.163      7.364
  Name = 
  9 active torsions:
  status: ('A' for Active; 'I' for Inactive)
    1  A    between atoms: C_1  and  O_22
    2  A    between atoms: C_2  and  C_14
    3  A    between atoms: C_2  and  O_22
    4  A    between atoms: C_10  and  O_15
    5  A    between atoms: C_11  and  C_25
    6  A    between atoms: C_13  and  C_30
    7  A    between atoms: C_14  and  C_20
    8  A    between atoms: C_19  and  N_29
    9  A    between atoms: C_23  and  C_25
                            x       y       z     vdW  Elec       q    Type
                         _______ _______ _______ _____ _____    ______ ____

>  <TORSDO>
F 9

$$$$
=
 OpenBabel10262421513D

 30 33  0  0  1  0  0  0  0  0999 V2000
  187.0560  178.6120  141.7710 C   0  0  1  0  0  3  0  0  0  0  0  0
  188.4940  178.9070  142.2860 C   0  0  0  0  0  2  0  0  0  0  0  0
  186.9450  177.8570  140.5660 O   0  0  0  0  0  0  0  0  0  0  0  0
  190.5440  177.2020  139.3390 S   0  0  0  0  0  0  0  0  0  0  0  0
  189.2010  177.1980  140.5170 C   0  0  2  0  0  3  0  0  0  0  0  0
  187.9740  177.4330  138.5380 O   0  0  0  0  0  0  0  0  0  0  0  0
  188.1270  177.9700  139.8190 C   0  0  1  0  0  3  0  0  0  0  0  0
  189.5580  177.8770  141.8430 C   0  0  2  0  0  3  0  0  0  0  0  0
  189.5970  178.4110  137.0580 C   0  0  0  0  0  1  0  0  0  0  0  0
  189.2780  177.2790  138.0180 C   0  0  1  0  0  3  0  0  0  0  0  0
  191.2590  176.4690  142.8180 O   0  0  0  0  0  0  0  0  0  0  0  0
  191.2190  177.3800  144.8030 C   0  0  1  0  0  3  0  0  0  0  0  0
  191.9790  177.2390  143.6360 O   0  0  0  0  0  0  0  0  0  0  0  0
  189.8130  177.5370  144.3070 C   0  0  1  0  0  3  0  0  0  0  0  0
  189.0430  175.6070  142.8310 C   0  0  0  0  0  1  0  0  0  0  0  0
  189.9110  176.8630  142.9490 C   0  0  1  0  0  0  0  0  0  0  0  0
  191.3670  176.2340  145.5950 O   0  0  0  0  0  0  0  0  0  0  0  0
  192.0240  176.6780  146.7430 C   0  0  0  0  0  1  0  0  0  0  0  0
  188.7270  177.0290  145.2670 C   0  0  0  0  0  2  0  0  0  0  0  0
  188.5870  177.9430  146.4750 C   0  0  0  0  0  2  0  0  0  0  0  0
  188.4340  177.1280  147.7460 C   0  0  0  0  0  1  0  0  0  0  0  0
  186.3200  177.9720  142.7840 O   0  0  0  0  0  0  0  0  0  0  0  0
  184.9760  178.4130  142.7430 C   0  0  2  0  0  3  0  0  0  0  0  0
  184.3410  178.2650  141.3650 C   0  0  0  0  0  1  0  0  0  0  0  0
  184.7670  179.8120  143.3200 C   0  0  0  0  0  2  0  0  0  0  0  0
  184.2260  179.7300  144.7360 C   0  0  1  0  0  3  0  0  0  0  0  0
  183.2740  178.6310  144.8340 C   0  0  0  0  0  2  0  0  0  0  0  0
  184.6420  178.4570  145.3430 N   0  0  0  0  0  0  0  0  0  0  0  0
  185.7100  179.3430  147.2090 O   0  0  0  0  0  1  0  0  0  0  0  0
  184.5790  178.6480  146.7800 C   0  0  0  0  0  2  0  0  0  0  0  0
  1  2  1  0  0  0  0
  1 22  1  1  0  0  0
  3  1  1  0  0  0  0
  5  4  1  6  0  0  0
  5  8  1  0  0  0  0
  7  6  1  6  0  0  0
  7  5  1  0  0  0  0
  7  3  1  0  0  0  0
  8  2  1  1  0  0  0
  8 16  1  0  0  0  0
 10  9  1  6  0  0  0
 10  6  1  0  0  0  0
 10  4  1  0  0  0  0
 11 16  1  0  0  0  0
 11 13  1  0  0  0  0
 12 17  1  1  0  0  0
 13 12  1  0  0  0  0
 14 12  1  0  0  0  0
 14 19  1  1  0  0  0
 16 15  1  6  0  0  0
 16 14  1  0  0  0  0
 17 18  1  0  0  0  0
 19 20  1  0  0  0  0
 20 21  1  0  0  0  0
 23 24  1  6  0  0  0
 23 22  1  0  0  0  0
 23 25  1  0  0  0  0
 26 25  1  6  0  0  0
 26 27  1  0  0  0  0
 26 28  1  0  0  0  0
 27 28  1  0  0  0  0
 28 30  1  0  0  0  0
 30 29  1  0  0  0  0
M  END
>  <MODEL>
9

>  <REMARK>
 VINA RESULT:      -6.5      2.834      5.916
  Name = 
  9 active torsions:
  status: ('A' for Active; 'I' for Inactive)
    1  A    between atoms: C_1  and  O_22
    2  A    between atoms: C_2  and  C_14
    3  A    between atoms: C_2  and  O_22
    4  A    between atoms: C_10  and  O_15
    5  A    between atoms: C_11  and  C_25
    6  A    between atoms: C_13  and  C_30
    7  A    between atoms: C_14  and  C_20
    8  A    between atoms: C_19  and  N_29
    9  A    between atoms: C_23  and  C_25
                            x       y       z     vdW  Elec       q    Type
                         _______ _______ _______ _____ _____    ______ ____

>  <TORSDO>
F 9

$$$$
