=
 OpenBabel10262421353D

 32 37  0  0  1  0  0  0  0  0999 V2000
  181.1080  179.3540  142.1900 C   0  0  0  0  0  0  0  0  0  0  0  0
  185.7510  177.7940  143.1540 C   0  0  0  0  0  0  0  0  0  0  0  0
  186.4760  178.9310  147.9190 C   0  0  0  0  0  2  0  0  0  0  0  0
  187.4490  177.7680  147.9960 C   0  0  0  0  0  2  0  0  0  0  0  0
  183.7210  178.3370  142.0720 C   0  0  0  0  0  0  0  0  0  0  0  0
  183.9580  178.7470  144.4160 N   0  0  0  0  0  0  0  0  0  0  0  0
  181.8910  179.3040  143.3490 C   0  0  0  0  0  3  0  0  0  0  0  0
  185.4180  178.6320  146.8630 C   0  0  0  0  0  2  0  0  0  0  0  0
  185.2290  178.2570  144.3810 C   0  0  0  0  0  0  0  0  0  0  0  0
  186.0180  178.2100  145.5430 C   0  0  0  0  0  0  0  0  0  0  0  0
  187.8390  177.2160  144.2460 C   0  0  0  0  0  0  0  0  0  0  0  0
  181.6400  178.8930  140.9730 C   0  0  0  0  0  3  0  0  0  0  0  0
  183.1930  178.7980  143.2960 C   0  0  0  0  0  0  0  0  0  0  0  0
  182.9410  178.3850  140.9140 C   0  0  0  0  0  3  0  0  0  0  0  0
  188.2270  177.6730  146.6890 C   0  0  0  0  0  2  0  0  0  0  0  0
  187.3270  177.6700  145.4770 C   0  0  0  0  0  0  0  0  0  0  0  0
  184.9860  177.8460  142.0330 N   0  0  0  0  0  0  0  0  0  0  0  0
  187.0450  177.2820  143.0950 C   0  0  0  0  0  3  0  0  0  0  0  0
  179.8100  179.8650  142.2750 O   0  0  0  0  0  0  0  0  0  0  0  0
  179.4300  181.0960  141.6750 C   0  0  0  0  0  2  0  0  0  0  0  0
  178.9310  182.1890  139.5420 C   0  0  0  0  0  2  0  0  0  0  0  0
  180.2340  181.6620  139.5120 O   0  0  0  0  0  0  0  0  0  0  0  0
  179.2610  180.9000  140.1830 C   0  0  1  0  0  3  0  0  0  0  0  0
  189.1760  176.7030  144.1740 N   0  0  0  0  0  2  0  0  0  0  0  0
  190.3300  177.5020  143.7800 C   0  0  2  0  0  3  0  0  0  0  0  0
  190.6620  177.2090  141.2700 C   0  0  1  0  0  3  0  0  0  0  0  0
  189.6270  178.1500  141.2700 O   0  0  0  0  0  1  0  0  0  0  0  0
  191.0950  176.8160  142.6440 C   0  0  2  0  0  3  0  0  0  0  0  0
  190.2140  176.0250  141.8840 O   0  0  0  0  0  0  0  0  0  0  0  0
  191.2400  177.7430  144.9820 C   0  0  0  0  0  2  0  0  0  0  0  0
  191.7970  176.1870  145.7520 S   0  0  0  0  0  0  0  0  0  0  0  0
  191.4940  176.8280  147.4200 C   0  0  0  0  0  1  0  0  0  0  0  0
  1 19  1  0  0  0  0
  1  7  1  0  0  0  0
  2  9  1  0  0  0  0
  3  4  1  0  0  0  0
  5 13  1  0  0  0  0
  8  3  1  0  0  0  0
  9  6  2  0  0  0  0
  9 10  1  0  0  0  0
 10  8  1  0  0  0  0
 11 16  1  0  0  0  0
 12  1  2  0  0  0  0
 13  7  2  0  0  0  0
 13  6  1  0  0  0  0
 14 12  1  0  0  0  0
 14  5  2  0  0  0  0
 15  4  1  0  0  0  0
 16 10  2  0  0  0  0
 16 15  1  0  0  0  0
 17  5  1  0  0  0  0
 17  2  2  0  0  0  0
 18  2  1  0  0  0  0
 18 11  2  0  0  0  0
 20 19  1  0  0  0  0
 21 23  1  0  0  0  0
 22 21  1  0  0  0  0
 22 23  1  0  0  0  0
 23 20  1  1  0  0  0
 24 11  1  0  0  0  0
 25 24  1  0  0  0  0
 25 30  1  1  0  0  0
 26 27  1  1  0  0  0
 26 29  1  0  0  0  0
 26 28  1  0  0  0  0
 28 25  1  1  0  0  0
 29 28  1  0  0  0  0
 30 31  1  0  0  0  0
 31 32  1  0  0  0  0
M  END
>  <MODEL>
1

>  <REMARK>
 VINA RESULT:      -8.2      0.000      0.000
  Name = 
  8 active torsions:
  status: ('A' for Active; 'I' for Inactive)
    1  A    between atoms: C_2  and  O_24
    2  A    between atoms: S_6  and  C_7
    3  A    between atoms: C_7  and  C_32
    4  A    between atoms: C_10  and  C_20
    5  A    between atoms: C_10  and  O_24
    6  A    between atoms: C_16  and  N_27
    7  A    between atoms: C_22  and  C_32
    8  A    between atoms: N_27  and  C_32
                            x       y       z     vdW  Elec       q    Type
                         _______ _______ _______ _____ _____    ______ ____

>  <TORSDO>
F 8

$$$$
=
 OpenBabel10262421353D

 32 37  0  0  1  0  0  0  0  0999 V2000
  188.8020  177.5930  145.3230 C   0  0  0  0  0  0  0  0  0  0  0  0
  190.5560  177.0490  140.6810 C   0  0  0  0  0  0  0  0  0  0  0  0
  186.6640  177.9870  137.7660 C   0  0  0  0  0  2  0  0  0  0  0  0
  187.6390  178.4540  136.7000 C   0  0  0  0  0  2  0  0  0  0  0  0
  190.3500  177.0960  143.0350 C   0  0  0  0  0  0  0  0  0  0  0  0
  188.4890  177.7270  141.6710 N   0  0  0  0  0  0  0  0  0  0  0  0
  188.2510  177.7870  144.0510 C   0  0  0  0  0  3  0  0  0  0  0  0
  187.2700  178.2330  139.1440 C   0  0  0  0  0  2  0  0  0  0  0  0
  189.2230  177.4910  140.5480 C   0  0  0  0  0  0  0  0  0  0  0  0
  188.6700  177.6820  139.2700 C   0  0  0  0  0  0  0  0  0  0  0  0
  190.7970  177.0060  138.2670 C   0  0  0  0  0  0  0  0  0  0  0  0
  190.1310  177.1490  145.4430 C   0  0  0  0  0  3  0  0  0  0  0  0
  189.0180  177.5410  142.9090 C   0  0  0  0  0  0  0  0  0  0  0  0
  190.9020  176.9020  144.3030 C   0  0  0  0  0  3  0  0  0  0  0  0
  188.8840  177.5750  136.7350 C   0  0  0  0  0  2  0  0  0  0  0  0
  189.4690  177.4520  138.1220 C   0  0  0  0  0  0  0  0  0  0  0  0
  191.0850  176.8620  141.9180 N   0  0  0  0  0  0  0  0  0  0  0  0
  191.3290  176.8080  139.5470 C   0  0  0  0  0  3  0  0  0  0  0  0
  188.0110  177.8480  146.4460 O   0  0  0  0  0  0  0  0  0  0  0  0
  186.6150  177.5840  146.4770 C   0  0  0  0  0  2  0  0  0  0  0  0
  184.8760  178.9700  145.4520 C   0  0  0  0  0  2  0  0  0  0  0  0
  184.4920  178.6140  146.7570 O   0  0  0  0  0  0  0  0  0  0  0  0
  185.8560  178.8920  146.5550 C   0  0  1  0  0  3  0  0  0  0  0  0
  191.5930  176.7410  137.1040 N   0  0  0  0  0  2  0  0  0  0  0  0
  192.1380  175.4290  136.7780 C   0  0  2  0  0  3  0  0  0  0  0  0
  194.6650  175.1240  136.9120 C   0  0  1  0  0  3  0  0  0  0  0  0
  194.2950  174.6450  138.1730 O   0  0  0  0  0  1  0  0  0  0  0  0
  193.5000  175.5700  136.0920 C   0  0  2  0  0  3  0  0  0  0  0  0
  194.3030  176.4790  136.8050 O   0  0  0  0  0  0  0  0  0  0  0  0
  191.1610  174.6550  135.8970 C   0  0  0  0  0  2  0  0  0  0  0  0
  189.9100  173.7580  136.8720 S   0  0  0  0  0  0  0  0  0  0  0  0
  188.6460  174.0010  135.5960 C   0  0  0  0  0  1  0  0  0  0  0  0
  1 12  1  0  0  0  0
  1 19  1  0  0  0  0
  2 17  1  0  0  0  0
  3  8  1  0  0  0  0
  4 15  1  0  0  0  0
  4  3  1  0  0  0  0
  5 14  1  0  0  0  0
  6 13  2  0  0  0  0
  7  1  2  0  0  0  0
  8 10  1  0  0  0  0
  9  2  1  0  0  0  0
  9  6  1  0  0  0  0
 10  9  2  0  0  0  0
 11 18  1  0  0  0  0
 13  5  1  0  0  0  0
 13  7  1  0  0  0  0
 14 12  2  0  0  0  0
 15 16  1  0  0  0  0
 16 11  2  0  0  0  0
 16 10  1  0  0  0  0
 17  5  2  0  0  0  0
 18  2  2  0  0  0  0
 19 20  1  0  0  0  0
 21 23  1  0  0  0  0
 21 22  1  0  0  0  0
 23 20  1  6  0  0  0
 23 22  1  0  0  0  0
 24 11  1  0  0  0  0
 25 30  1  6  0  0  0
 25 24  1  0  0  0  0
 26 27  1  1  0  0  0
 28 25  1  1  0  0  0
 28 29  1  0  0  0  0
 28 26  1  0  0  0  0
 29 26  1  0  0  0  0
 30 31  1  0  0  0  0
 32 31  1  0  0  0  0
M  END
>  <MODEL>
2

>  <REMARK>
 VINA RESULT:      -8.1      4.525      8.145
  Name = 
  8 active torsions:
  status: ('A' for Active; 'I' for Inactive)
    1  A    between atoms: C_2  and  O_24
    2  A    between atoms: S_6  and  C_7
    3  A    between atoms: C_7  and  C_32
    4  A    between atoms: C_10  and  C_20
    5  A    between atoms: C_10  and  O_24
    6  A    between atoms: C_16  and  N_27
    7  A    between atoms: C_22  and  C_32
    8  A    between atoms: N_27  and  C_32
                            x       y       z     vdW  Elec       q    Type
                         _______ _______ _______ _____ _____    ______ ____

>  <TORSDO>
F 8

$$$$
=
 OpenBabel10262421353D

 32 37  0  0  1  0  0  0  0  0999 V2000
  188.2270  177.8150  145.7310 C   0  0  0  0  0  0  0  0  0  0  0  0
  185.0330  178.3600  141.9340 C   0  0  0  0  0  0  0  0  0  0  0  0
  180.5830  178.6440  144.0880 C   0  0  0  0  0  2  0  0  0  0  0  0
  180.1220  179.4830  142.9090 C   0  0  0  0  0  2  0  0  0  0  0  0
  186.9870  178.0400  143.2240 C   0  0  0  0  0  0  0  0  0  0  0  0
  184.8840  178.3460  144.3200 N   0  0  0  0  0  0  0  0  0  0  0  0
  186.8460  178.0280  145.6510 C   0  0  0  0  0  3  0  0  0  0  0  0
  182.0780  178.8530  144.2990 C   0  0  0  0  0  2  0  0  0  0  0  0
  184.2630  178.4580  143.1120 C   0  0  0  0  0  0  0  0  0  0  0  0
  182.8750  178.6680  143.0300 C   0  0  0  0  0  0  0  0  0  0  0  0
  183.0420  178.7010  140.5890 C   0  0  0  0  0  0  0  0  0  0  0  0
  188.9830  177.7150  144.5500 C   0  0  0  0  0  3  0  0  0  0  0  0
  186.2240  178.1400  144.4050 C   0  0  0  0  0  0  0  0  0  0  0  0
  188.3660  177.8280  143.3000 C   0  0  0  0  0  3  0  0  0  0  0  0
  180.7670  178.9570  141.6330 C   0  0  0  0  0  2  0  0  0  0  0  0
  182.2640  178.8060  141.7580 C   0  0  0  0  0  0  0  0  0  0  0  0
  186.3730  178.1530  142.0190 N   0  0  0  0  0  0  0  0  0  0  0  0
  184.4210  178.4780  140.6880 C   0  0  0  0  0  3  0  0  0  0  0  0
  188.8210  177.7060  146.9910 O   0  0  0  0  0  0  0  0  0  0  0  0
  189.6380  176.6030  147.3620 C   0  0  0  0  0  2  0  0  0  0  0  0
  192.0060  175.9980  147.2250 C   0  0  0  0  0  2  0  0  0  0  0  0
  191.7340  177.0550  146.3390 O   0  0  0  0  0  0  0  0  0  0  0  0
  191.0600  177.0780  147.5730 C   0  0  1  0  0  3  0  0  0  0  0  0
  182.4160  178.8050  139.3030 N   0  0  0  0  0  2  0  0  0  0  0  0
  182.0980  177.6580  138.4610 C   0  0  2  0  0  3  0  0  0  0  0  0
  183.8240  176.5780  136.9280 C   0  0  1  0  0  3  0  0  0  0  0  0
  183.8040  175.6440  137.9680 O   0  0  0  0  0  1  0  0  0  0  0  0
  182.8880  177.7200  137.1510 C   0  0  2  0  0  3  0  0  0  0  0  0
  184.2650  177.8180  137.4260 O   0  0  0  0  0  0  0  0  0  0  0  0
  180.5970  177.6020  138.1920 C   0  0  0  0  0  2  0  0  0  0  0  0
  179.9480  175.8990  138.2390 S   0  0  0  0  0  0  0  0  0  0  0  0
  180.7890  175.5530  139.8070 C   0  0  0  0  0  1  0  0  0  0  0  0
  1 19  1  0  0  0  0
  2 17  2  0  0  0  0
  2  9  1  0  0  0  0
  3  8  1  0  0  0  0
  4  3  1  0  0  0  0
  5 14  2  0  0  0  0
  5 13  1  0  0  0  0
  6 13  1  0  0  0  0
  7  1  1  0  0  0  0
  9  6  2  0  0  0  0
 10  9  1  0  0  0  0
 10  8  1  0  0  0  0
 11 18  2  0  0  0  0
 11 16  1  0  0  0  0
 12  1  2  0  0  0  0
 13  7  2  0  0  0  0
 14 12  1  0  0  0  0
 15 16  1  0  0  0  0
 15  4  1  0  0  0  0
 16 10  2  0  0  0  0
 17  5  1  0  0  0  0
 18  2  1  0  0  0  0
 19 20  1  0  0  0  0
 21 23  1  0  0  0  0
 22 21  1  0  0  0  0
 22 23  1  0  0  0  0
 23 20  1  6  0  0  0
 24 11  1  0  0  0  0
 25 30  1  6  0  0  0
 25 24  1  0  0  0  0
 26 28  1  0  0  0  0
 26 29  1  0  0  0  0
 26 27  1  1  0  0  0
 28 29  1  0  0  0  0
 28 25  1  1  0  0  0
 30 31  1  0  0  0  0
 31 32  1  0  0  0  0
M  END
>  <MODEL>
3

>  <REMARK>
 VINA RESULT:      -7.9      3.727      8.821
  Name = 
  8 active torsions:
  status: ('A' for Active; 'I' for Inactive)
    1  A    between atoms: C_2  and  O_24
    2  A    between atoms: S_6  and  C_7
    3  A    between atoms: C_7  and  C_32
    4  A    between atoms: C_10  and  C_20
    5  A    between atoms: C_10  and  O_24
    6  A    between atoms: C_16  and  N_27
    7  A    between atoms: C_22  and  C_32
    8  A    between atoms: N_27  and  C_32
                            x       y       z     vdW  Elec       q    Type
                         _______ _______ _______ _____ _____    ______ ____

>  <TORSDO>
F 8

$$$$
=
 OpenBabel10262421353D

 32 37  0  0  1  0  0  0  0  0999 V2000
  190.2540  177.5180  139.3640 C   0  0  0  0  0  0  0  0  0  0  0  0
  185.7500  178.5710  141.2410 C   0  0  0  0  0  0  0  0  0  0  0  0
  186.1340  177.5000  146.0610 C   0  0  0  0  0  2  0  0  0  0  0  0
  185.0680  178.5470  146.3270 C   0  0  0  0  0  2  0  0  0  0  0  0
  187.5700  178.2290  139.7730 C   0  0  0  0  0  0  0  0  0  0  0  0
  187.8580  177.8640  142.1190 N   0  0  0  0  0  0  0  0  0  0  0  0
  189.7190  177.5130  140.6570 C   0  0  0  0  0  3  0  0  0  0  0  0
  186.9160  177.8850  144.8100 C   0  0  0  0  0  2  0  0  0  0  0  0
  186.5570  178.2060  142.3390 C   0  0  0  0  0  0  0  0  0  0  0  0
  186.0180  178.1980  143.6370 C   0  0  0  0  0  0  0  0  0  0  0  0
  183.8700  178.9410  142.7310 C   0  0  0  0  0  0  0  0  0  0  0  0
  189.4380  177.8800  138.2770 C   0  0  0  0  0  3  0  0  0  0  0  0
  188.3830  177.8660  140.8660 C   0  0  0  0  0  0  0  0  0  0  0  0
  188.1010  178.2350  138.4810 C   0  0  0  0  0  3  0  0  0  0  0  0
  184.0370  178.5150  145.2050 C   0  0  0  0  0  2  0  0  0  0  0  0
  184.6680  178.5840  143.8350 C   0  0  0  0  0  0  0  0  0  0  0  0
  186.2740  178.5720  139.9880 N   0  0  0  0  0  0  0  0  0  0  0  0
  184.4200  178.9310  141.4430 C   0  0  0  0  0  3  0  0  0  0  0  0
  191.5920  177.1600  139.1860 O   0  0  0  0  0  0  0  0  0  0  0  0
  192.0100  176.2110  138.2130 C   0  0  0  0  0  2  0  0  0  0  0  0
  193.9700  175.3480  137.0260 C   0  0  0  0  0  2  0  0  0  0  0  0
  193.9730  176.7530  136.9880 O   0  0  0  0  0  0  0  0  0  0  0  0
  193.5230  176.1550  138.1790 C   0  0  1  0  0  3  0  0  0  0  0  0
  182.4960  179.2980  142.9280 N   0  0  0  0  0  2  0  0  0  0  0  0
  181.4770  179.2050  141.8900 C   0  0  2  0  0  3  0  0  0  0  0  0
  179.3540  180.6070  141.7400 C   0  0  1  0  0  3  0  0  0  0  0  0
  180.0630  181.1240  140.6520 O   0  0  0  0  0  1  0  0  0  0  0  0
  180.0950  179.5310  142.4640 C   0  0  2  0  0  3  0  0  0  0  0  0
  180.0700  180.8600  142.9250 O   0  0  0  0  0  0  0  0  0  0  0  0
  181.4920  177.8150  141.2590 C   0  0  0  0  0  2  0  0  0  0  0  0
  181.3300  177.8750  139.4440 S   0  0  0  0  0  0  0  0  0  0  0  0
  179.6070  177.3160  139.5150 C   0  0  0  0  0  1  0  0  0  0  0  0
  1  7  1  0  0  0  0
  2 18  1  0  0  0  0
  2  9  1  0  0  0  0
  3  4  1  0  0  0  0
  5 17  1  0  0  0  0
  5 13  1  0  0  0  0
  6  9  2  0  0  0  0
  7 13  2  0  0  0  0
  8  3  1  0  0  0  0
  9 10  1  0  0  0  0
 10 16  2  0  0  0  0
 10  8  1  0  0  0  0
 11 24  1  0  0  0  0
 11 16  1  0  0  0  0
 12 14  1  0  0  0  0
 12  1  2  0  0  0  0
 13  6  1  0  0  0  0
 14  5  2  0  0  0  0
 15  4  1  0  0  0  0
 16 15  1  0  0  0  0
 17  2  2  0  0  0  0
 18 11  2  0  0  0  0
 19  1  1  0  0  0  0
 20 19  1  0  0  0  0
 21 23  1  0  0  0  0
 22 21  1  0  0  0  0
 22 23  1  0  0  0  0
 23 20  1  6  0  0  0
 25 30  1  1  0  0  0
 25 24  1  0  0  0  0
 26 27  1  6  0  0  0
 26 28  1  0  0  0  0
 26 29  1  0  0  0  0
 28 25  1  6  0  0  0
 28 29  1  0  0  0  0
 31 32  1  0  0  0  0
 31 30  1  0  0  0  0
M  END
>  <MODEL>
4

>  <REMARK>
 VINA RESULT:      -7.9      3.350      9.061
  Name = 
  8 active torsions:
  status: ('A' for Active; 'I' for Inactive)
    1  A    between atoms: C_2  and  O_24
    2  A    between atoms: S_6  and  C_7
    3  A    between atoms: C_7  and  C_32
    4  A    between atoms: C_10  and  C_20
    5  A    between atoms: C_10  and  O_24
    6  A    between atoms: C_16  and  N_27
    7  A    between atoms: C_22  and  C_32
    8  A    between atoms: N_27  and  C_32
                            x       y       z     vdW  Elec       q    Type
                         _______ _______ _______ _____ _____    ______ ____

>  <TORSDO>
F 8

$$$$
=
 OpenBabel10262421353D

 32 37  0  0  1  0  0  0  0  0999 V2000
  183.0640  178.8520  142.5920 C   0  0  0  0  0  0  0  0  0  0  0  0
  187.5950  177.7480  144.3700 C   0  0  0  0  0  0  0  0  0  0  0  0
  190.3480  176.9380  140.3340 C   0  0  0  0  0  2  0  0  0  0  0  0
  191.5590  177.3900  141.1310 C   0  0  0  0  0  2  0  0  0  0  0  0
  185.2980  178.2730  144.1870 C   0  0  0  0  0  0  0  0  0  0  0  0
  186.6240  178.0640  142.2090 N   0  0  0  0  0  0  0  0  0  0  0  0
  184.3030  178.5990  141.9930 C   0  0  0  0  0  3  0  0  0  0  0  0
  189.1040  177.6420  140.8670 C   0  0  0  0  0  2  0  0  0  0  0  0
  187.7220  177.7800  142.9650 C   0  0  0  0  0  0  0  0  0  0  0  0
  188.9660  177.5230  142.3650 C   0  0  0  0  0  0  0  0  0  0  0  0
  189.9540  177.2220  144.5830 C   0  0  0  0  0  0  0  0  0  0  0  0
  182.9490  178.8130  143.9930 C   0  0  0  0  0  3  0  0  0  0  0  0
  185.4190  178.3100  142.7830 C   0  0  0  0  0  0  0  0  0  0  0  0
  184.0620  178.5260  144.7880 C   0  0  0  0  0  3  0  0  0  0  0  0
  191.4270  176.9020  142.5690 C   0  0  0  0  0  2  0  0  0  0  0  0
  190.0940  177.2570  143.1830 C   0  0  0  0  0  0  0  0  0  0  0  0
  186.3890  177.9930  144.9450 N   0  0  0  0  0  0  0  0  0  0  0  0
  188.7040  177.4680  145.1650 C   0  0  0  0  0  3  0  0  0  0  0  0
  181.9660  179.1380  141.7760 O   0  0  0  0  0  0  0  0  0  0  0  0
  180.6630  178.6330  142.0380 C   0  0  0  0  0  2  0  0  0  0  0  0
  178.9950  179.9270  143.2780 C   0  0  0  0  0  2  0  0  0  0  0  0
  180.0460  180.7700  142.8750 O   0  0  0  0  0  0  0  0  0  0  0  0
  179.6600  179.7650  141.9690 C   0  0  1  0  0  3  0  0  0  0  0  0
  191.0880  176.9180  145.4070 N   0  0  0  0  0  2  0  0  0  0  0  0
  191.0370  176.8480  146.8620 C   0  0  2  0  0  3  0  0  0  0  0  0
  192.6870  175.7670  148.4770 C   0  0  1  0  0  3  0  0  0  0  0  0
  192.7990  177.1040  148.8730 O   0  0  0  0  0  1  0  0  0  0  0  0
  191.7140  175.5680  147.3610 C   0  0  2  0  0  3  0  0  0  0  0  0
  193.1020  175.6430  147.1380 O   0  0  0  0  0  0  0  0  0  0  0  0
  189.5910  176.9230  147.3440 C   0  0  0  0  0  2  0  0  0  0  0  0
  189.3290  178.2690  148.5450 S   0  0  0  0  0  0  0  0  0  0  0  0
  187.5430  177.9640  148.5960 C   0  0  0  0  0  1  0  0  0  0  0  0
  1 12  1  0  0  0  0
  2 17  2  0  0  0  0
  2 18  1  0  0  0  0
  3  8  1  0  0  0  0
  3  4  1  0  0  0  0
  4 15  1  0  0  0  0
  5 14  1  0  0  0  0
  5 17  1  0  0  0  0
  6 13  1  0  0  0  0
  6  9  2  0  0  0  0
  7  1  2  0  0  0  0
  7 13  1  0  0  0  0
  8 10  1  0  0  0  0
  9  2  1  0  0  0  0
 10  9  1  0  0  0  0
 10 16  2  0  0  0  0
 11 18  2  0  0  0  0
 11 24  1  0  0  0  0
 12 14  2  0  0  0  0
 13  5  2  0  0  0  0
 15 16  1  0  0  0  0
 16 11  1  0  0  0  0
 19 20  1  0  0  0  0
 19  1  1  0  0  0  0
 22 21  1  0  0  0  0
 23 20  1  1  0  0  0
 23 22  1  0  0  0  0
 23 21  1  0  0  0  0
 24 25  1  0  0  0  0
 25 30  1  6  0  0  0
 26 27  1  6  0  0  0
 28 25  1  6  0  0  0
 28 26  1  0  0  0  0
 29 28  1  0  0  0  0
 29 26  1  0  0  0  0
 30 31  1  0  0  0  0
 31 32  1  0  0  0  0
M  END
>  <MODEL>
5

>  <REMARK>
 VINA RESULT:      -7.8      2.396      4.502
  Name = 
  8 active torsions:
  status: ('A' for Active; 'I' for Inactive)
    1  A    between atoms: C_2  and  O_24
    2  A    between atoms: S_6  and  C_7
    3  A    between atoms: C_7  and  C_32
    4  A    between atoms: C_10  and  C_20
    5  A    between atoms: C_10  and  O_24
    6  A    between atoms: C_16  and  N_27
    7  A    between atoms: C_22  and  C_32
    8  A    between atoms: N_27  and  C_32
                            x       y       z     vdW  Elec       q    Type
                         _______ _______ _______ _____ _____    ______ ____

>  <TORSDO>
F 8

$$$$
=
 OpenBabel10262421353D

 32 37  0  0  1  0  0  0  0  0999 V2000
  188.0590  177.6380  146.5710 C   0  0  0  0  0  0  0  0  0  0  0  0
  185.7520  178.4740  142.2240 C   0  0  0  0  0  0  0  0  0  0  0  0
  189.3420  178.1370  138.8300 C   0  0  0  0  0  2  0  0  0  0  0  0
  188.2870  177.6950  137.8310 C   0  0  0  0  0  2  0  0  0  0  0  0
  186.2290  178.2220  144.5250 C   0  0  0  0  0  0  0  0  0  0  0  0
  187.9620  177.8770  142.9130 N   0  0  0  0  0  0  0  0  0  0  0  0
  188.4740  177.6110  145.2340 C   0  0  0  0  0  3  0  0  0  0  0  0
  188.9160  177.7130  140.2310 C   0  0  0  0  0  2  0  0  0  0  0  0
  187.0890  178.1570  141.9050 C   0  0  0  0  0  0  0  0  0  0  0  0
  187.5050  178.1340  140.5620 C   0  0  0  0  0  0  0  0  0  0  0  0
  185.2340  178.7260  139.8670 C   0  0  0  0  0  0  0  0  0  0  0  0
  186.7250  177.9590  146.8770 C   0  0  0  0  0  3  0  0  0  0  0  0
  187.5660  177.9010  144.2120 C   0  0  0  0  0  0  0  0  0  0  0  0
  185.8130  178.2490  145.8580 C   0  0  0  0  0  3  0  0  0  0  0  0
  186.9950  178.4620  138.0890 C   0  0  0  0  0  2  0  0  0  0  0  0
  186.5650  178.4050  139.5350 C   0  0  0  0  0  0  0  0  0  0  0  0
  185.3560  178.5000  143.5230 N   0  0  0  0  0  0  0  0  0  0  0  0
  184.8400  178.7570  141.2100 C   0  0  0  0  0  3  0  0  0  0  0  0
  188.9890  177.3440  147.5710 O   0  0  0  0  0  0  0  0  0  0  0  0
  189.9340  176.2880  147.4550 C   0  0  0  0  0  2  0  0  0  0  0  0
  192.3250  175.7750  147.3520 C   0  0  0  0  0  2  0  0  0  0  0  0
  191.9920  176.6890  146.3370 O   0  0  0  0  0  0  0  0  0  0  0  0
  191.3350  176.8490  147.5700 C   0  0  1  0  0  3  0  0  0  0  0  0
  184.2940  179.0340  138.8290 N   0  0  0  0  0  2  0  0  0  0  0  0
  182.9320  178.5160  138.7900 C   0  0  2  0  0  3  0  0  0  0  0  0
  182.6760  176.0830  138.0750 C   0  0  1  0  0  3  0  0  0  0  0  0
  182.7420  175.9230  139.4620 O   0  0  0  0  0  1  0  0  0  0  0  0
  182.7730  177.5110  137.6460 C   0  0  2  0  0  3  0  0  0  0  0  0
  183.8810  176.6440  137.6140 O   0  0  0  0  0  0  0  0  0  0  0  0
  181.9350  179.6640  138.6500 C   0  0  0  0  0  2  0  0  0  0  0  0
  180.3220  179.2770  139.4050 S   0  0  0  0  0  0  0  0  0  0  0  0
  181.1020  178.7290  140.9470 C   0  0  0  0  0  1  0  0  0  0  0  0
  1 12  1  0  0  0  0
  1 19  1  0  0  0  0
  2 17  1  0  0  0  0
  3  8  1  0  0  0  0
  4 15  1  0  0  0  0
  4  3  1  0  0  0  0
  5 14  1  0  0  0  0
  6 13  2  0  0  0  0
  7  1  2  0  0  0  0
  8 10  1  0  0  0  0
  9  2  1  0  0  0  0
  9  6  1  0  0  0  0
 10  9  2  0  0  0  0
 11 18  1  0  0  0  0
 13  5  1  0  0  0  0
 13  7  1  0  0  0  0
 14 12  2  0  0  0  0
 15 16  1  0  0  0  0
 16 11  2  0  0  0  0
 16 10  1  0  0  0  0
 17  5  2  0  0  0  0
 18  2  2  0  0  0  0
 20 19  1  0  0  0  0
 21 23  1  0  0  0  0
 22 21  1  0  0  0  0
 22 23  1  0  0  0  0
 23 20  1  6  0  0  0
 24 11  1  0  0  0  0
 25 30  1  6  0  0  0
 25 24  1  0  0  0  0
 26 27  1  1  0  0  0
 28 26  1  0  0  0  0
 28 25  1  1  0  0  0
 29 28  1  0  0  0  0
 29 26  1  0  0  0  0
 30 31  1  0  0  0  0
 31 32  1  0  0  0  0
M  END
>  <MODEL>
6

>  <REMARK>
 VINA RESULT:      -7.8      3.825      9.002
  Name = 
  8 active torsions:
  status: ('A' for Active; 'I' for Inactive)
    1  A    between atoms: C_2  and  O_24
    2  A    between atoms: S_6  and  C_7
    3  A    between atoms: C_7  and  C_32
    4  A    between atoms: C_10  and  C_20
    5  A    between atoms: C_10  and  O_24
    6  A    between atoms: C_16  and  N_27
    7  A    between atoms: C_22  and  C_32
    8  A    between atoms: N_27  and  C_32
                            x       y       z     vdW  Elec       q    Type
                         _______ _______ _______ _____ _____    ______ ____

>  <TORSDO>
F 8

$$$$
=
 OpenBabel10262421353D

 32 37  0  0  1  0  0  0  0  0999 V2000
  181.7210  178.8860  140.6760 C   0  0  0  0  0  0  0  0  0  0  0  0
  186.6330  178.5450  141.5000 C   0  0  0  0  0  0  0  0  0  0  0  0
  187.0260  177.8840  146.3920 C   0  0  0  0  0  2  0  0  0  0  0  0
  188.3220  177.1340  146.1360 C   0  0  0  0  0  2  0  0  0  0  0  0
  184.5200  178.8320  140.4800 C   0  0  0  0  0  0  0  0  0  0  0  0
  184.6480  178.3410  142.8170 N   0  0  0  0  0  0  0  0  0  0  0  0
  182.4960  178.6230  141.8120 C   0  0  0  0  0  3  0  0  0  0  0  0
  186.1040  177.7200  145.1890 C   0  0  0  0  0  2  0  0  0  0  0  0
  186.0090  178.3110  142.7440 C   0  0  0  0  0  0  0  0  0  0  0  0
  186.7880  178.0500  143.8840 C   0  0  0  0  0  0  0  0  0  0  0  0
  188.8120  178.2400  142.5220 C   0  0  0  0  0  0  0  0  0  0  0  0
  182.3550  179.1210  139.4430 C   0  0  0  0  0  3  0  0  0  0  0  0
  183.8900  178.5950  141.7190 C   0  0  0  0  0  0  0  0  0  0  0  0
  183.7490  179.0940  139.3450 C   0  0  0  0  0  3  0  0  0  0  0  0
  189.0690  177.7980  144.9860 C   0  0  0  0  0  2  0  0  0  0  0  0
  188.2000  178.0000  143.7680 C   0  0  0  0  0  0  0  0  0  0  0  0
  185.8750  178.8000  140.4020 N   0  0  0  0  0  0  0  0  0  0  0  0
  188.0210  178.5110  141.3990 C   0  0  0  0  0  3  0  0  0  0  0  0
  180.3300  178.9080  140.8000 O   0  0  0  0  0  0  0  0  0  0  0  0
  179.6480  178.3210  141.9010 C   0  0  0  0  0  2  0  0  0  0  0  0
  179.1440  179.1960  144.1310 C   0  0  0  0  0  2  0  0  0  0  0  0
  179.8810  180.1470  143.4030 O   0  0  0  0  0  0  0  0  0  0  0  0
  178.9310  179.4000  142.6840 C   0  0  1  0  0  3  0  0  0  0  0  0
  190.2420  178.2240  142.4140 N   0  0  0  0  0  2  0  0  0  0  0  0
  190.9940  177.1500  141.7750 C   0  0  2  0  0  3  0  0  0  0  0  0
  191.5890  175.4050  143.5350 C   0  0  1  0  0  3  0  0  0  0  0  0
  190.2740  175.0230  143.2490 O   0  0  0  0  0  1  0  0  0  0  0  0
  192.0420  176.5840  142.7380 C   0  0  2  0  0  3  0  0  0  0  0  0
  191.5900  176.7090  144.0650 O   0  0  0  0  0  0  0  0  0  0  0  0
  191.6470  177.6550  140.4920 C   0  0  0  0  0  2  0  0  0  0  0  0
  191.1280  176.7000  139.0280 S   0  0  0  0  0  0  0  0  0  0  0  0
  192.8260  176.6210  138.3970 C   0  0  0  0  0  1  0  0  0  0  0  0
  1 19  1  0  0  0  0
  1  7  1  0  0  0  0
  2  9  1  0  0  0  0
  4  3  1  0  0  0  0
  5 13  1  0  0  0  0
  8  3  1  0  0  0  0
  9  6  2  0  0  0  0
  9 10  1  0  0  0  0
 10  8  1  0  0  0  0
 11 16  1  0  0  0  0
 12  1  2  0  0  0  0
 13  7  2  0  0  0  0
 13  6  1  0  0  0  0
 14 12  1  0  0  0  0
 14  5  2  0  0  0  0
 15  4  1  0  0  0  0
 16 10  2  0  0  0  0
 16 15  1  0  0  0  0
 17  5  1  0  0  0  0
 17  2  2  0  0  0  0
 18  2  1  0  0  0  0
 18 11  2  0  0  0  0
 19 20  1  0  0  0  0
 22 21  1  0  0  0  0
 23 20  1  6  0  0  0
 23 22  1  0  0  0  0
 23 21  1  0  0  0  0
 24 11  1  0  0  0  0
 25 30  1  6  0  0  0
 25 24  1  0  0  0  0
 26 27  1  6  0  0  0
 26 29  1  0  0  0  0
 28 25  1  6  0  0  0
 28 26  1  0  0  0  0
 28 29  1  0  0  0  0
 31 30  1  0  0  0  0
 32 31  1  0  0  0  0
M  END
>  <MODEL>
7

>  <REMARK>
 VINA RESULT:      -7.7      2.245      3.197
  Name = 
  8 active torsions:
  status: ('A' for Active; 'I' for Inactive)
    1  A    between atoms: C_2  and  O_24
    2  A    between atoms: S_6  and  C_7
    3  A    between atoms: C_7  and  C_32
    4  A    between atoms: C_10  and  C_20
    5  A    between atoms: C_10  and  O_24
    6  A    between atoms: C_16  and  N_27
    7  A    between atoms: C_22  and  C_32
    8  A    between atoms: N_27  and  C_32
                            x       y       z     vdW  Elec       q    Type
                         _______ _______ _______ _____ _____    ______ ____

>  <TORSDO>
F 8

$$$$
=
 OpenBabel10262421353D

 32 37  0  0  1  0  0  0  0  0999 V2000
  182.0770  178.8770  141.7030 C   0  0  0  0  0  0  0  0  0  0  0  0
  186.3230  178.1530  144.2250 C   0  0  0  0  0  0  0  0  0  0  0  0
  189.6480  176.9860  140.7460 C   0  0  0  0  0  2  0  0  0  0  0  0
  190.7210  177.5710  141.6470 C   0  0  0  0  0  2  0  0  0  0  0  0
  184.0660  178.5680  143.6570 C   0  0  0  0  0  0  0  0  0  0  0  0
  185.6700  178.1820  141.9260 N   0  0  0  0  0  0  0  0  0  0  0  0
  183.3950  178.6030  141.3200 C   0  0  0  0  0  3  0  0  0  0  0  0
  188.3270  177.7000  141.0090 C   0  0  0  0  0  2  0  0  0  0  0  0
  186.6510  178.0280  142.8590 C   0  0  0  0  0  0  0  0  0  0  0  0
  187.9750  177.7500  142.4760 C   0  0  0  0  0  0  0  0  0  0  0  0
  188.6360  177.7430  144.8320 C   0  0  0  0  0  0  0  0  0  0  0  0
  181.7600  178.9950  143.0680 C   0  0  0  0  0  3  0  0  0  0  0  0
  184.3890  178.4480  142.2900 C   0  0  0  0  0  0  0  0  0  0  0  0
  182.7520  178.8430  144.0420 C   0  0  0  0  0  3  0  0  0  0  0  0
  190.3920  177.2480  143.1000 C   0  0  0  0  0  2  0  0  0  0  0  0
  188.9770  177.6220  143.4710 C   0  0  0  0  0  0  0  0  0  0  0  0
  185.0410  178.4180  144.5900 N   0  0  0  0  0  0  0  0  0  0  0  0
  187.3100  178.0080  145.1970 C   0  0  0  0  0  3  0  0  0  0  0  0
  181.1040  179.0260  140.7110 O   0  0  0  0  0  0  0  0  0  0  0  0
  180.6680  180.2980  140.2470 C   0  0  0  0  0  2  0  0  0  0  0  0
  181.6910  181.5980  138.4420 C   0  0  0  0  0  2  0  0  0  0  0  0
  182.2730  180.3190  138.4950 O   0  0  0  0  0  0  0  0  0  0  0  0
  180.8930  180.3940  138.7530 C   0  0  1  0  0  3  0  0  0  0  0  0
  189.6440  177.5780  145.8390 N   0  0  0  0  0  2  0  0  0  0  0  0
  189.4120  176.9150  147.1160 C   0  0  2  0  0  3  0  0  0  0  0  0
  188.3020  178.1150  149.0720 C   0  0  1  0  0  3  0  0  0  0  0  0
  187.2290  177.3410  148.6210 O   0  0  0  0  0  1  0  0  0  0  0  0
  189.5460  177.9130  148.2700 C   0  0  2  0  0  3  0  0  0  0  0  0
  188.6900  179.0090  148.0570 O   0  0  0  0  0  0  0  0  0  0  0  0
  190.3820  175.7490  147.2890 C   0  0  0  0  0  2  0  0  0  0  0  0
  192.0320  176.1130  146.6040 S   0  0  0  0  0  0  0  0  0  0  0  0
  192.8460  175.6900  148.1680 C   0  0  0  0  0  1  0  0  0  0  0  0
  1 12  1  0  0  0  0
  2 17  2  0  0  0  0
  2 18  1  0  0  0  0
  3  8  1  0  0  0  0
  3  4  1  0  0  0  0
  4 15  1  0  0  0  0
  5 14  1  0  0  0  0
  5 17  1  0  0  0  0
  6 13  1  0  0  0  0
  6  9  2  0  0  0  0
  7  1  2  0  0  0  0
  7 13  1  0  0  0  0
  8 10  1  0  0  0  0
  9  2  1  0  0  0  0
 10  9  1  0  0  0  0
 10 16  2  0  0  0  0
 11 18  2  0  0  0  0
 11 24  1  0  0  0  0
 12 14  2  0  0  0  0
 13  5  2  0  0  0  0
 15 16  1  0  0  0  0
 16 11  1  0  0  0  0
 19  1  1  0  0  0  0
 20 19  1  0  0  0  0
 21 22  1  0  0  0  0
 21 23  1  0  0  0  0
 22 23  1  0  0  0  0
 23 20  1  1  0  0  0
 24 25  1  0  0  0  0
 25 30  1  1  0  0  0
 26 27  1  6  0  0  0
 28 25  1  6  0  0  0
 28 26  1  0  0  0  0
 29 28  1  0  0  0  0
 29 26  1  0  0  0  0
 31 30  1  0  0  0  0
 31 32  1  0  0  0  0
M  END
>  <MODEL>
8

>  <REMARK>
 VINA RESULT:      -7.6      2.314      4.060
  Name = 
  8 active torsions:
  status: ('A' for Active; 'I' for Inactive)
    1  A    between atoms: C_2  and  O_24
    2  A    between atoms: S_6  and  C_7
    3  A    between atoms: C_7  and  C_32
    4  A    between atoms: C_10  and  C_20
    5  A    between atoms: C_10  and  O_24
    6  A    between atoms: C_16  and  N_27
    7  A    between atoms: C_22  and  C_32
    8  A    between atoms: N_27  and  C_32
                            x       y       z     vdW  Elec       q    Type
                         _______ _______ _______ _____ _____    ______ ____

>  <TORSDO>
F 8

$$$$
=
 OpenBabel10262421353D

 32 37  0  0  1  0  0  0  0  0999 V2000
  182.0300  178.6670  141.5880 C   0  0  0  0  0  0  0  0  0  0  0  0
  186.7010  178.0530  143.2380 C   0  0  0  0  0  0  0  0  0  0  0  0
  186.3900  178.7580  148.1300 C   0  0  0  0  0  2  0  0  0  0  0  0
  187.5840  177.8340  148.2890 C   0  0  0  0  0  2  0  0  0  0  0  0
  184.7940  178.2630  141.8580 C   0  0  0  0  0  0  0  0  0  0  0  0
  184.5610  178.4400  144.2320 N   0  0  0  0  0  0  0  0  0  0  0  0
  182.6130  178.6540  142.8600 C   0  0  0  0  0  3  0  0  0  0  0  0
  185.6090  178.3610  146.8820 C   0  0  0  0  0  2  0  0  0  0  0  0
  185.9010  178.2460  144.3850 C   0  0  0  0  0  0  0  0  0  0  0  0
  186.4890  178.2360  145.6620 C   0  0  0  0  0  0  0  0  0  0  0  0
  188.6710  177.8190  144.6360 C   0  0  0  0  0  0  0  0  0  0  0  0
  182.8380  178.4770  140.4530 C   0  0  0  0  0  3  0  0  0  0  0  0
  183.9890  178.4530  143.0000 C   0  0  0  0  0  0  0  0  0  0  0  0
  184.2150  178.2750  140.5870 C   0  0  0  0  0  3  0  0  0  0  0  0
  188.5560  178.0630  147.1370 C   0  0  0  0  0  2  0  0  0  0  0  0
  187.8820  178.0050  145.7870 C   0  0  0  0  0  0  0  0  0  0  0  0
  186.1290  178.0670  142.0060 N   0  0  0  0  0  0  0  0  0  0  0  0
  188.0720  177.8450  143.3700 C   0  0  0  0  0  3  0  0  0  0  0  0
  180.6520  178.8700  141.4800 O   0  0  0  0  0  0  0  0  0  0  0  0
  180.0220  180.0820  141.8730 C   0  0  0  0  0  2  0  0  0  0  0  0
  179.3290  181.6220  140.1000 C   0  0  0  0  0  2  0  0  0  0  0  0
  179.4560  180.3230  139.5780 O   0  0  0  0  0  0  0  0  0  0  0  0
  178.9340  180.4310  140.8790 C   0  0  1  0  0  3  0  0  0  0  0  0
  190.0850  177.6210  144.7630 N   0  0  0  0  0  2  0  0  0  0  0  0
  190.7260  176.3120  144.7350 C   0  0  2  0  0  3  0  0  0  0  0  0
  191.9740  175.8860  146.9160 C   0  0  1  0  0  3  0  0  0  0  0  0
  190.6860  175.4920  147.2930 O   0  0  0  0  0  1  0  0  0  0  0  0
  192.0530  176.3490  145.4980 C   0  0  2  0  0  3  0  0  0  0  0  0
  191.9620  177.2510  146.5740 O   0  0  0  0  0  0  0  0  0  0  0  0
  190.9370  175.8580  143.2930 C   0  0  0  0  0  2  0  0  0  0  0  0
  191.6600  177.1700  142.2540 S   0  0  0  0  0  0  0  0  0  0  0  0
  190.5610  176.7670  140.8690 C   0  0  0  0  0  1  0  0  0  0  0  0
  1  7  1  0  0  0  0
  2 18  1  0  0  0  0
  2  9  1  0  0  0  0
  3  4  1  0  0  0  0
  5 17  1  0  0  0  0
  5 13  1  0  0  0  0
  6  9  2  0  0  0  0
  7 13  2  0  0  0  0
  8  3  1  0  0  0  0
  9 10  1  0  0  0  0
 10 16  2  0  0  0  0
 10  8  1  0  0  0  0
 11 24  1  0  0  0  0
 11 16  1  0  0  0  0
 12 14  1  0  0  0  0
 12  1  2  0  0  0  0
 13  6  1  0  0  0  0
 14  5  2  0  0  0  0
 15  4  1  0  0  0  0
 16 15  1  0  0  0  0
 17  2  2  0  0  0  0
 18 11  2  0  0  0  0
 19  1  1  0  0  0  0
 19 20  1  0  0  0  0
 21 23  1  0  0  0  0
 22 21  1  0  0  0  0
 22 23  1  0  0  0  0
 23 20  1  1  0  0  0
 25 30  1  6  0  0  0
 25 24  1  0  0  0  0
 26 27  1  6  0  0  0
 28 25  1  6  0  0  0
 28 29  1  0  0  0  0
 28 26  1  0  0  0  0
 29 26  1  0  0  0  0
 31 30  1  0  0  0  0
 32 31  1  0  0  0  0
M  END
>  <MODEL>
9

>  <REMARK>
 VINA RESULT:      -7.6      1.798      2.546
  Name = 
  8 active torsions:
  status: ('A' for Active; 'I' for Inactive)
    1  A    between atoms: C_2  and  O_24
    2  A    between atoms: S_6  and  C_7
    3  A    between atoms: C_7  and  C_32
    4  A    between atoms: C_10  and  C_20
    5  A    between atoms: C_10  and  O_24
    6  A    between atoms: C_16  and  N_27
    7  A    between atoms: C_22  and  C_32
    8  A    between atoms: N_27  and  C_32
                            x       y       z     vdW  Elec       q    Type
                         _______ _______ _______ _____ _____    ______ ____

>  <TORSDO>
F 8

$$$$
