=
 OpenBabel10262421033D

 32 37  0  0  1  0  0  0  0  0999 V2000
  183.1270  179.4150  138.9630 C   0  0  0  0  0  0  0  0  0  0  0  0
  182.3560  178.0850  139.2270 C   0  0  2  0  0  3  0  0  0  0  0  0
  184.1430  176.9560  137.1400 C   0  0  0  0  0  2  0  0  0  0  0  0
  179.6130  174.5220  139.1940 C   0  0  0  0  0  2  0  0  0  0  0  0
  181.7450  177.4650  137.9550 C   0  0  1  0  0  3  0  0  0  0  0  0
  180.6120  174.0640  136.9230 C   0  0  0  0  0  2  0  0  0  0  0  0
  181.3060  175.3780  137.0760 C   0  0  2  0  0  3  0  0  0  0  0  0
  182.6840  177.1900  136.7480 C   0  0  2  0  0  3  0  0  0  0  0  0
  182.6060  180.3280  137.8660 C   0  0  0  0  0  2  0  0  0  0  0  0
  182.1510  175.8960  136.2070 C   0  0  0  0  0  2  0  0  0  0  0  0
  184.5290  179.4660  139.1310 O   0  0  0  0  0  0  0  0  0  0  0  0
  182.4500  180.7230  139.3220 C   0  0  0  0  0  2  0  0  0  0  0  0
  180.7060  176.3920  140.8630 S   0  0  0  0  0  0  0  0  0  0  0  0
  184.8260  178.1710  137.2380 O   0  0  0  0  0  0  0  0  0  0  0  0
  181.4600  178.0560  140.5160 C   0  0  1  0  0  0  0  0  0  0  0  0
  181.1430  176.1810  138.2270 N   0  0  2  0  0  0  0  0  0  0  0  0
  185.1090  178.2980  138.6020 C   0  0  0  0  0  2  0  0  0  0  0  0
  179.3340  174.0540  137.7640 C   0  0  0  0  0  2  0  0  0  0  0  0
  180.0840  175.9800  139.2020 C   0  0  1  0  0  3  0  0  0  0  0  0
  182.7870  179.1860  143.9510 C   0  0  0  0  0  3  0  0  0  0  0  0
  184.5980  178.1740  142.7150 C   0  0  0  0  0  3  0  0  0  0  0  0
  182.3820  178.3260  141.7030 C   0  0  0  0  0  0  0  0  0  0  0  0
  184.1290  178.7930  143.8730 C   0  0  0  0  0  0  0  0  0  0  0  0
  183.7360  177.9440  141.6430 C   0  0  0  0  0  3  0  0  0  0  0  0
  181.9170  178.9610  142.8820 C   0  0  0  0  0  0  0  0  0  0  0  0
  180.5940  179.3730  143.0000 O   0  0  0  0  0  1  0  0  0  0  0  0
  186.2250  178.0360  144.9660 C   0  0  0  0  0  1  0  0  0  0  0  0
  184.3750  178.9110  146.2800 N   0  0  0  0  0  1  0  0  0  0  0  0
  185.0720  179.0220  145.0110 C   0  0  2  0  0  3  0  0  0  0  0  0
  180.4540  179.0670  140.5050 O   0  0  0  0  0  0  0  0  0  0  0  0
  179.2770  178.6170  139.8900 C   0  0  0  0  0  2  0  0  0  0  0  0
  178.9310  179.5320  138.7330 C   0  0  0  0  0  1  0  0  0  0  0  0
  1 11  1  0  0  0  0
  1 12  1  0  0  0  0
  2  1  1  6  0  0  0
  2 15  1  0  0  0  0
  3 14  1  0  0  0  0
  4 19  1  0  0  0  0
  5 16  1  0  0  0  0
  5  2  1  0  0  0  0
  6  7  1  0  0  0  0
  6 18  1  0  0  0  0
  7 16  1  0  0  0  0
  8  3  1  0  0  0  0
  8  5  1  0  0  0  0
  9  1  1  0  0  0  0
  9 12  1  0  0  0  0
 10  8  1  0  0  0  0
 10  7  1  0  0  0  0
 14 17  1  0  0  0  0
 15 13  1  0  0  0  0
 15 22  1  0  0  0  0
 16 19  1  0  0  0  0
 17 11  1  0  0  0  0
 18  4  1  0  0  0  0
 19 13  1  0  0  0  0
 21 23  2  0  0  0  0
 22 25  1  0  0  0  0
 23 20  1  0  0  0  0
 23 29  1  0  0  0  0
 24 22  2  0  0  0  0
 24 21  1  0  0  0  0
 25 26  1  0  0  0  0
 25 20  2  0  0  0  0
 27 29  1  0  0  0  0
 29 28  1  0  0  0  0
 30 15  1  0  0  0  0
 31 30  1  0  0  0  0
 32 31  1  0  0  0  0
M  END
>  <MODEL>
1

>  <REMARK>
 VINA RESULT:      -4.5      0.000      0.000
  Name = 
  4 active torsions:
  status: ('A' for Active; 'I' for Inactive)
    1  A    between atoms: O_1  and  C_4
    2  A    between atoms: O_1  and  C_27
    3  A    between atoms: C_16  and  C_27
    4  A    between atoms: C_19  and  C_26
                            x       y       z     vdW  Elec       q    Type
                         _______ _______ _______ _____ _____    ______ ____

>  <TORSDO>
F 4

$$$$
=
 OpenBabel10262421033D

 32 37  0  0  1  0  0  0  0  0999 V2000
  183.1240  178.1840  138.2220 C   0  0  0  0  0  0  0  0  0  0  0  0
  182.3340  178.7140  139.4580 C   0  0  2  0  0  3  0  0  0  0  0  0
  185.0230  179.2050  140.6210 C   0  0  0  0  0  2  0  0  0  0  0  0
  180.2230  179.3380  143.3790 C   0  0  0  0  0  2  0  0  0  0  0  0
  182.7280  178.0290  140.7820 C   0  0  1  0  0  3  0  0  0  0  0  0
  182.4820  178.8800  144.4050 C   0  0  0  0  0  2  0  0  0  0  0  0
  182.9310  178.5540  143.0180 C   0  0  2  0  0  3  0  0  0  0  0  0
  184.2270  178.0300  141.1910 C   0  0  2  0  0  3  0  0  0  0  0  0
  183.5190  176.7160  138.2120 C   0  0  0  0  0  2  0  0  0  0  0  0
  184.1590  178.2140  142.6790 C   0  0  0  0  0  2  0  0  0  0  0  0
  184.0400  179.0250  137.5530 O   0  0  0  0  0  0  0  0  0  0  0  0
  182.4290  177.2170  137.2840 C   0  0  0  0  0  2  0  0  0  0  0  0
  179.9550  179.7570  140.6910 S   0  0  0  0  0  0  0  0  0  0  0  0
  185.4990  178.9020  139.3430 O   0  0  0  0  0  0  0  0  0  0  0  0
  180.8000  178.9670  139.2350 C   0  0  1  0  0  0  0  0  0  0  0  0
  182.0580  178.6290  141.9100 N   0  0  2  0  0  0  0  0  0  0  0  0
  184.7840  179.7570  138.4970 C   0  0  0  0  0  2  0  0  0  0  0  0
  180.9730  178.6540  144.5250 C   0  0  0  0  0  2  0  0  0  0  0  0
  180.6120  178.7180  142.0340 C   0  0  1  0  0  3  0  0  0  0  0  0
  179.8380  180.6830  135.9230 C   0  0  0  0  0  3  0  0  0  0  0  0
  181.2260  182.1900  137.2030 C   0  0  0  0  0  3  0  0  0  0  0  0
  180.6800  179.9900  138.1060 C   0  0  0  0  0  0  0  0  0  0  0  0
  180.4820  181.9200  136.0530 C   0  0  0  0  0  0  0  0  0  0  0  0
  181.3240  181.2360  138.2160 C   0  0  0  0  0  3  0  0  0  0  0  0
  179.9320  179.7210  136.9320 C   0  0  0  0  0  0  0  0  0  0  0  0
  179.2820  178.5060  136.7580 O   0  0  0  0  0  1  0  0  0  0  0  0
  181.0350  184.2580  135.4320 C   0  0  0  0  0  1  0  0  0  0  0  0
  178.9990  183.1980  134.6280 N   0  0  0  0  0  1  0  0  0  0  0  0
  180.3860  182.9610  134.9850 C   0  0  2  0  0  3  0  0  0  0  0  0
  180.1050  177.7890  138.8340 O   0  0  0  0  0  0  0  0  0  0  0  0
  179.2050  177.3590  139.8190 C   0  0  0  0  0  2  0  0  0  0  0  0
  179.3130  175.8560  139.9800 C   0  0  0  0  0  1  0  0  0  0  0  0
  2  1  1  6  0  0  0
  2  5  1  0  0  0  0
  3  8  1  0  0  0  0
  4 18  1  0  0  0  0
  5  8  1  0  0  0  0
  5 16  1  0  0  0  0
  6 18  1  0  0  0  0
  7  6  1  0  0  0  0
  8 10  1  0  0  0  0
  9  1  1  0  0  0  0
 10  7  1  0  0  0  0
 11  1  1  0  0  0  0
 11 17  1  0  0  0  0
 12  9  1  0  0  0  0
 12  1  1  0  0  0  0
 13 19  1  0  0  0  0
 14  3  1  0  0  0  0
 15  2  1  0  0  0  0
 15 13  1  0  0  0  0
 16 19  1  0  0  0  0
 16  7  1  0  0  0  0
 17 14  1  0  0  0  0
 19  4  1  0  0  0  0
 20 23  2  0  0  0  0
 20 25  1  0  0  0  0
 21 24  2  0  0  0  0
 22 24  1  0  0  0  0
 22 15  1  0  0  0  0
 23 21  1  0  0  0  0
 25 22  2  0  0  0  0
 26 25  1  0  0  0  0
 28 29  1  0  0  0  0
 29 27  1  0  0  0  0
 29 23  1  0  0  0  0
 30 15  1  0  0  0  0
 30 31  1  0  0  0  0
 31 32  1  0  0  0  0
M  END
>  <MODEL>
2

>  <REMARK>
 VINA RESULT:      -4.5      2.691      6.330
  Name = 
  4 active torsions:
  status: ('A' for Active; 'I' for Inactive)
    1  A    between atoms: O_1  and  C_4
    2  A    between atoms: O_1  and  C_27
    3  A    between atoms: C_16  and  C_27
    4  A    between atoms: C_19  and  C_26
                            x       y       z     vdW  Elec       q    Type
                         _______ _______ _______ _____ _____    ______ ____

>  <TORSDO>
F 4

$$$$
=
 OpenBabel10262421033D

 32 37  0  0  1  0  0  0  0  0999 V2000
  179.7950  178.3650  139.4860 C   0  0  0  0  0  0  0  0  0  0  0  0
  181.2860  178.2300  139.9240 C   0  0  2  0  0  3  0  0  0  0  0  0
  180.1550  177.4030  142.5430 C   0  0  0  0  0  2  0  0  0  0  0  0
  185.4400  178.7400  141.5680 C   0  0  0  0  0  2  0  0  0  0  0  0
  181.6310  179.0370  141.1910 C   0  0  1  0  0  3  0  0  0  0  0  0
  184.2860  178.8910  143.8070 C   0  0  0  0  0  2  0  0  0  0  0  0
  183.0080  178.8750  143.0340 C   0  0  2  0  0  3  0  0  0  0  0  0
  180.7800  178.7970  142.4690 C   0  0  2  0  0  3  0  0  0  0  0  0
  179.1030  179.6950  139.7330 C   0  0  0  0  0  2  0  0  0  0  0  0
  181.8010  178.8910  143.5640 C   0  0  0  0  0  2  0  0  0  0  0  0
  178.9310  177.2500  139.5620 O   0  0  0  0  0  0  0  0  0  0  0  0
  179.4660  179.2770  138.3210 C   0  0  0  0  0  2  0  0  0  0  0  0
  184.0840  177.9280  139.3370 S   0  0  0  0  0  0  0  0  0  0  0  0
  178.9310  177.3770  141.8710 O   0  0  0  0  0  0  0  0  0  0  0  0
  182.3460  178.2640  138.7660 C   0  0  1  0  0  0  0  0  0  0  0  0
  182.9860  178.7910  141.6240 N   0  0  2  0  0  0  0  0  0  0  0  0
  179.1630  176.5550  140.7630 C   0  0  0  0  0  2  0  0  0  0  0  0
  185.4130  179.4410  142.9290 C   0  0  0  0  0  2  0  0  0  0  0  0
  184.1520  179.0250  140.7880 C   0  0  1  0  0  3  0  0  0  0  0  0
  181.6260  174.7380  137.3920 C   0  0  0  0  0  3  0  0  0  0  0  0
  181.4480  176.3270  135.5820 C   0  0  0  0  0  3  0  0  0  0  0  0
  182.0110  177.1090  137.8240 C   0  0  0  0  0  0  0  0  0  0  0  0
  181.3770  175.0120  136.0410 C   0  0  0  0  0  0  0  0  0  0  0  0
  181.7620  177.3630  136.4620 C   0  0  0  0  0  3  0  0  0  0  0  0
  181.9430  175.7690  138.2800 C   0  0  0  0  0  0  0  0  0  0  0  0
  182.1880  175.4510  139.6110 O   0  0  0  0  0  1  0  0  0  0  0  0
  179.8190  173.1410  135.5570 C   0  0  0  0  0  1  0  0  0  0  0  0
  182.1580  173.0230  134.9010 N   0  0  0  0  0  1  0  0  0  0  0  0
  181.0310  173.9210  135.0790 C   0  0  2  0  0  3  0  0  0  0  0  0
  182.2940  179.4730  138.0130 O   0  0  0  0  0  0  0  0  0  0  0  0
  182.7500  180.5680  138.7600 C   0  0  0  0  0  2  0  0  0  0  0  0
  181.9050  181.7850  138.4400 C   0  0  0  0  0  1  0  0  0  0  0  0
  1 11  1  0  0  0  0
  1  9  1  0  0  0  0
  2  1  1  6  0  0  0
  2  5  1  0  0  0  0
  4 18  1  0  0  0  0
  5 16  1  0  0  0  0
  5  8  1  0  0  0  0
  7 10  1  0  0  0  0
  7  6  1  0  0  0  0
  8  3  1  0  0  0  0
  8 10  1  0  0  0  0
 11 17  1  0  0  0  0
 12  1  1  0  0  0  0
 12  9  1  0  0  0  0
 13 19  1  0  0  0  0
 14  3  1  0  0  0  0
 15 13  1  0  0  0  0
 15  2  1  0  0  0  0
 16  7  1  0  0  0  0
 17 14  1  0  0  0  0
 18  6  1  0  0  0  0
 19  4  1  0  0  0  0
 19 16  1  0  0  0  0
 20 25  1  0  0  0  0
 21 23  1  0  0  0  0
 21 24  2  0  0  0  0
 22 25  2  0  0  0  0
 22 15  1  0  0  0  0
 23 20  2  0  0  0  0
 24 22  1  0  0  0  0
 25 26  1  0  0  0  0
 28 29  1  0  0  0  0
 29 27  1  0  0  0  0
 29 23  1  0  0  0  0
 30 31  1  0  0  0  0
 30 15  1  0  0  0  0
 32 31  1  0  0  0  0
M  END
>  <MODEL>
3

>  <REMARK>
 VINA RESULT:      -4.4      2.108      6.889
  Name = 
  4 active torsions:
  status: ('A' for Active; 'I' for Inactive)
    1  A    between atoms: O_1  and  C_4
    2  A    between atoms: O_1  and  C_27
    3  A    between atoms: C_16  and  C_27
    4  A    between atoms: C_19  and  C_26
                            x       y       z     vdW  Elec       q    Type
                         _______ _______ _______ _____ _____    ______ ____

>  <TORSDO>
F 4

$$$$
=
 OpenBabel10262421033D

 32 37  0  0  1  0  0  0  0  0999 V2000
  181.4940  176.5190  139.1830 C   0  0  0  0  0  0  0  0  0  0  0  0
  181.5490  177.4460  137.9300 C   0  0  2  0  0  3  0  0  0  0  0  0
  182.4960  179.5130  139.8420 C   0  0  0  0  0  2  0  0  0  0  0  0
  180.8280  180.4270  134.6410 C   0  0  0  0  0  2  0  0  0  0  0  0
  180.7500  178.7530  138.0950 C   0  0  1  0  0  3  0  0  0  0  0  0
  180.7920  182.1270  136.5050 C   0  0  0  0  0  2  0  0  0  0  0  0
  180.8680  180.9600  137.4330 C   0  0  2  0  0  3  0  0  0  0  0  0
  181.0670  179.6570  139.3190 C   0  0  2  0  0  3  0  0  0  0  0  0
  180.2120  176.5100  139.9990 C   0  0  0  0  0  2  0  0  0  0  0  0
  180.9350  181.0390  138.7480 C   0  0  0  0  0  2  0  0  0  0  0  0
  182.6600  176.2920  139.9480 O   0  0  0  0  0  0  0  0  0  0  0  0
  180.5790  175.3110  139.1450 C   0  0  0  0  0  2  0  0  0  0  0  0
  181.6720  177.8650  135.0880 S   0  0  0  0  0  0  0  0  0  0  0  0
  182.5810  178.4580  140.7540 O   0  0  0  0  0  0  0  0  0  0  0  0
  181.4280  176.7270  136.5390 C   0  0  1  0  0  0  0  0  0  0  0  0
  180.9230  179.6290  136.9610 N   0  0  2  0  0  0  0  0  0  0  0  0
  183.3650  177.5000  140.1020 C   0  0  0  0  0  2  0  0  0  0  0  0
  180.1580  181.6930  135.1810 C   0  0  0  0  0  2  0  0  0  0  0  0
  180.6040  179.2490  135.5950 C   0  0  1  0  0  3  0  0  0  0  0  0
  184.9620  175.1950  136.5010 C   0  0  0  0  0  3  0  0  0  0  0  0
  183.3470  173.4280  136.1740 C   0  0  0  0  0  3  0  0  0  0  0  0
  182.5810  175.7280  136.4550 C   0  0  0  0  0  0  0  0  0  0  0  0
  184.6740  173.8380  136.3010 C   0  0  0  0  0  0  0  0  0  0  0  0
  182.3130  174.3620  136.2490 C   0  0  0  0  0  3  0  0  0  0  0  0
  183.9330  176.1370  136.5750 C   0  0  0  0  0  0  0  0  0  0  0  0
  184.2640  177.4720  136.7690 O   0  0  0  0  0  1  0  0  0  0  0  0
  185.2270  171.4880  135.7260 C   0  0  0  0  0  1  0  0  0  0  0  0
  186.3910  172.6430  137.5210 N   0  0  0  0  0  1  0  0  0  0  0  0
  185.7640  172.8170  136.2240 C   0  0  2  0  0  3  0  0  0  0  0  0
  180.2090  176.0010  136.4040 O   0  0  0  0  0  0  0  0  0  0  0  0
  179.6010  176.2370  135.1620 C   0  0  0  0  0  2  0  0  0  0  0  0
  179.0450  174.9370  134.6170 C   0  0  0  0  0  1  0  0  0  0  0  0
  1 11  1  0  0  0  0
  1  9  1  0  0  0  0
  2  5  1  0  0  0  0
  2  1  1  1  0  0  0
  3 14  1  0  0  0  0
  4 18  1  0  0  0  0
  4 19  1  0  0  0  0
  5  8  1  0  0  0  0
  6  7  1  0  0  0  0
  7 10  1  0  0  0  0
  8  3  1  0  0  0  0
 10  8  1  0  0  0  0
 11 17  1  0  0  0  0
 12  1  1  0  0  0  0
 12  9  1  0  0  0  0
 13 19  1  0  0  0  0
 13 15  1  0  0  0  0
 15  2  1  0  0  0  0
 16  7  1  0  0  0  0
 16  5  1  0  0  0  0
 17 14  1  0  0  0  0
 18  6  1  0  0  0  0
 19 16  1  0  0  0  0
 20 25  1  0  0  0  0
 21 24  2  0  0  0  0
 21 23  1  0  0  0  0
 22 15  1  0  0  0  0
 22 25  2  0  0  0  0
 23 20  2  0  0  0  0
 24 22  1  0  0  0  0
 25 26  1  0  0  0  0
 27 29  1  0  0  0  0
 29 23  1  0  0  0  0
 29 28  1  0  0  0  0
 30 15  1  0  0  0  0
 31 30  1  0  0  0  0
 32 31  1  0  0  0  0
M  END
>  <MODEL>
4

>  <REMARK>
 VINA RESULT:      -4.2      3.242      6.515
  Name = 
  4 active torsions:
  status: ('A' for Active; 'I' for Inactive)
    1  A    between atoms: O_1  and  C_4
    2  A    between atoms: O_1  and  C_27
    3  A    between atoms: C_16  and  C_27
    4  A    between atoms: C_19  and  C_26
                            x       y       z     vdW  Elec       q    Type
                         _______ _______ _______ _____ _____    ______ ____

>  <TORSDO>
F 4

$$$$
=
 OpenBabel10262421033D

 32 37  0  0  1  0  0  0  0  0999 V2000
  182.5140  177.4870  136.5090 C   0  0  0  0  0  0  0  0  0  0  0  0
  182.3510  175.9760  136.8620 C   0  0  2  0  0  3  0  0  0  0  0  0
  185.3210  175.9540  136.9270 C   0  0  0  0  0  2  0  0  0  0  0  0
  182.0450  171.4900  136.9140 C   0  0  0  0  0  2  0  0  0  0  0  0
  183.1270  175.0360  135.9180 C   0  0  1  0  0  3  0  0  0  0  0  0
  184.4350  171.5480  136.1070 C   0  0  0  0  0  2  0  0  0  0  0  0
  184.2580  173.0280  136.0070 C   0  0  2  0  0  3  0  0  0  0  0  0
  184.6510  175.2770  135.7310 C   0  0  2  0  0  3  0  0  0  0  0  0
  182.6590  177.8580  135.0420 C   0  0  0  0  0  2  0  0  0  0  0  0
  185.1940  173.8810  135.6440 C   0  0  0  0  0  2  0  0  0  0  0  0
  183.2070  178.3490  137.3870 O   0  0  0  0  0  0  0  0  0  0  0  0
  181.3780  178.1840  135.7860 C   0  0  0  0  0  2  0  0  0  0  0  0
  180.8150  173.7500  137.8380 S   0  0  0  0  0  0  0  0  0  0  0  0
  185.2140  177.3440  136.8280 O   0  0  0  0  0  0  0  0  0  0  0  0
  180.9050  175.5180  137.2660 C   0  0  1  0  0  0  0  0  0  0  0  0
  183.0420  173.6610  136.3500 N   0  0  2  0  0  0  0  0  0  0  0  0
  184.3560  177.6990  137.8750 C   0  0  0  0  0  2  0  0  0  0  0  0
  183.0760  170.8560  135.9780 C   0  0  0  0  0  2  0  0  0  0  0  0
  181.7870  172.9490  136.5240 C   0  0  1  0  0  3  0  0  0  0  0  0
  180.8920  177.1440  140.7580 C   0  0  0  0  0  3  0  0  0  0  0  0
  178.9350  177.8840  139.5500 C   0  0  0  0  0  3  0  0  0  0  0  0
  180.5020  176.3470  138.4850 C   0  0  0  0  0  0  0  0  0  0  0  0
  179.7160  177.9050  140.7060 C   0  0  0  0  0  0  0  0  0  0  0  0
  179.3220  177.1140  138.4540 C   0  0  0  0  0  3  0  0  0  0  0  0
  181.2860  176.3690  139.6650 C   0  0  0  0  0  0  0  0  0  0  0  0
  182.4560  175.6250  139.7630 O   0  0  0  0  0  1  0  0  0  0  0  0
  179.8840  180.1360  141.7810 C   0  0  0  0  0  1  0  0  0  0  0  0
  179.6620  178.1160  143.1180 N   0  0  0  0  0  1  0  0  0  0  0  0
  179.2830  178.7440  141.8650 C   0  0  2  0  0  3  0  0  0  0  0  0
  179.9480  175.7590  136.2370 O   0  0  0  0  0  0  0  0  0  0  0  0
  179.0570  174.6850  136.0980 C   0  0  0  0  0  2  0  0  0  0  0  0
  178.9530  174.3020  134.6360 C   0  0  0  0  0  1  0  0  0  0  0  0
  1 11  1  0  0  0  0
  2  1  1  6  0  0  0
  2 15  1  0  0  0  0
  5 16  1  0  0  0  0
  5  2  1  0  0  0  0
  7  6  1  0  0  0  0
  7 16  1  0  0  0  0
  8  5  1  0  0  0  0
  8  3  1  0  0  0  0
  9 12  1  0  0  0  0
  9  1  1  0  0  0  0
 10  8  1  0  0  0  0
 10  7  1  0  0  0  0
 11 17  1  0  0  0  0
 12  1  1  0  0  0  0
 14  3  1  0  0  0  0
 14 17  1  0  0  0  0
 15 13  1  0  0  0  0
 15 22  1  0  0  0  0
 16 19  1  0  0  0  0
 18  6  1  0  0  0  0
 18  4  1  0  0  0  0
 19  4  1  0  0  0  0
 19 13  1  0  0  0  0
 21 23  2  0  0  0  0
 22 25  1  0  0  0  0
 23 20  1  0  0  0  0
 23 29  1  0  0  0  0
 24 22  2  0  0  0  0
 24 21  1  0  0  0  0
 25 26  1  0  0  0  0
 25 20  2  0  0  0  0
 27 29  1  0  0  0  0
 29 28  1  0  0  0  0
 30 15  1  0  0  0  0
 31 30  1  0  0  0  0
 32 31  1  0  0  0  0
M  END
>  <MODEL>
5

>  <REMARK>
 VINA RESULT:      -4.1      3.217      4.572
  Name = 
  4 active torsions:
  status: ('A' for Active; 'I' for Inactive)
    1  A    between atoms: O_1  and  C_4
    2  A    between atoms: O_1  and  C_27
    3  A    between atoms: C_16  and  C_27
    4  A    between atoms: C_19  and  C_26
                            x       y       z     vdW  Elec       q    Type
                         _______ _______ _______ _____ _____    ______ ____

>  <TORSDO>
F 4

$$$$
=
 OpenBabel10262421033D

 32 37  0  0  1  0  0  0  0  0999 V2000
  180.8960  177.1190  136.9880 C   0  0  0  0  0  0  0  0  0  0  0  0
  181.5100  177.3210  138.4080 C   0  0  2  0  0  3  0  0  0  0  0  0
  179.1620  175.7610  139.3440 C   0  0  0  0  0  2  0  0  0  0  0  0
  182.6320  178.6420  142.5570 C   0  0  0  0  0  2  0  0  0  0  0  0
  180.5320  177.9500  139.4190 C   0  0  1  0  0  3  0  0  0  0  0  0
  180.2440  178.0690  143.1360 C   0  0  0  0  0  2  0  0  0  0  0  0
  180.0510  177.8420  141.6720 C   0  0  2  0  0  3  0  0  0  0  0  0
  179.1560  177.2620  139.6350 C   0  0  2  0  0  3  0  0  0  0  0  0
  179.8830  178.1440  136.5050 C   0  0  0  0  0  2  0  0  0  0  0  0
  178.9320  177.4330  141.1090 C   0  0  0  0  0  2  0  0  0  0  0  0
  180.6710  175.8160  136.4920 O   0  0  0  0  0  0  0  0  0  0  0  0
  181.2710  178.1010  135.8950 C   0  0  0  0  0  2  0  0  0  0  0  0
  183.7160  177.9050  140.1580 S   0  0  0  0  0  0  0  0  0  0  0  0
  178.9310  175.5220  137.9870 O   0  0  0  0  0  0  0  0  0  0  0  0
  182.9880  177.8500  138.4470 C   0  0  1  0  0  0  0  0  0  0  0  0
  181.1030  178.0100  140.7430 N   0  0  2  0  0  0  0  0  0  0  0  0
  180.1430  175.0070  137.5160 C   0  0  0  0  0  2  0  0  0  0  0  0
  181.3950  179.0530  143.3590 C   0  0  0  0  0  2  0  0  0  0  0  0
  182.3450  178.6990  141.0530 C   0  0  1  0  0  3  0  0  0  0  0  0
  184.5940  174.5510  137.2720 C   0  0  0  0  0  3  0  0  0  0  0  0
  185.4830  176.3630  135.9440 C   0  0  0  0  0  3  0  0  0  0  0  0
  183.8420  176.8360  137.6880 C   0  0  0  0  0  0  0  0  0  0  0  0
  185.4350  175.0020  136.2460 C   0  0  0  0  0  0  0  0  0  0  0  0
  184.6970  177.2690  136.6570 C   0  0  0  0  0  3  0  0  0  0  0  0
  183.8050  175.4520  137.9920 C   0  0  0  0  0  0  0  0  0  0  0  0
  182.9900  174.9620  139.0050 O   0  0  0  0  0  1  0  0  0  0  0  0
  186.5300  172.7740  136.2470 C   0  0  0  0  0  1  0  0  0  0  0  0
  187.5470  174.6680  135.1080 N   0  0  0  0  0  1  0  0  0  0  0  0
  186.2810  174.0500  135.4630 C   0  0  2  0  0  3  0  0  0  0  0  0
  183.1330  179.1130  137.8030 O   0  0  0  0  0  0  0  0  0  0  0  0
  183.1140  180.1690  138.7250 C   0  0  0  0  0  2  0  0  0  0  0  0
  181.9670  181.1030  138.4000 C   0  0  0  0  0  1  0  0  0  0  0  0
  2  1  1  6  0  0  0
  2 15  1  0  0  0  0
  2  5  1  0  0  0  0
  3  8  1  0  0  0  0
  4 18  1  0  0  0  0
  5  8  1  0  0  0  0
  5 16  1  0  0  0  0
  6 18  1  0  0  0  0
  7  6  1  0  0  0  0
  8 10  1  0  0  0  0
  9  1  1  0  0  0  0
 10  7  1  0  0  0  0
 11  1  1  0  0  0  0
 11 17  1  0  0  0  0
 12  9  1  0  0  0  0
 12  1  1  0  0  0  0
 13 19  1  0  0  0  0
 14  3  1  0  0  0  0
 15 13  1  0  0  0  0
 16 19  1  0  0  0  0
 16  7  1  0  0  0  0
 17 14  1  0  0  0  0
 19  4  1  0  0  0  0
 20 25  1  0  0  0  0
 21 23  1  0  0  0  0
 21 24  2  0  0  0  0
 22 25  2  0  0  0  0
 22 15  1  0  0  0  0
 23 20  2  0  0  0  0
 24 22  1  0  0  0  0
 25 26  1  0  0  0  0
 28 29  1  0  0  0  0
 29 23  1  0  0  0  0
 29 27  1  0  0  0  0
 30 15  1  0  0  0  0
 30 31  1  0  0  0  0
 32 31  1  0  0  0  0
M  END
>  <MODEL>
6

>  <REMARK>
 VINA RESULT:      -3.9      2.695      6.181
  Name = 
  4 active torsions:
  status: ('A' for Active; 'I' for Inactive)
    1  A    between atoms: O_1  and  C_4
    2  A    between atoms: O_1  and  C_27
    3  A    between atoms: C_16  and  C_27
    4  A    between atoms: C_19  and  C_26
                            x       y       z     vdW  Elec       q    Type
                         _______ _______ _______ _____ _____    ______ ____

>  <TORSDO>
F 4

$$$$
=
 OpenBabel10262421033D

 32 37  0  0  1  0  0  0  0  0999 V2000
  184.8970  175.8110  136.1470 C   0  0  0  0  0  0  0  0  0  0  0  0
  183.3820  175.4640  136.2870 C   0  0  2  0  0  3  0  0  0  0  0  0
  184.3150  172.6450  136.3410 C   0  0  0  0  0  2  0  0  0  0  0  0
  179.0730  174.3140  135.7170 C   0  0  0  0  0  2  0  0  0  0  0  0
  182.8760  174.4740  135.2200 C   0  0  1  0  0  3  0  0  0  0  0  0
  180.0060  172.1100  134.9190 C   0  0  0  0  0  2  0  0  0  0  0  0
  181.3480  172.7570  135.0260 C   0  0  2  0  0  3  0  0  0  0  0  0
  183.6200  173.1190  135.0640 C   0  0  2  0  0  3  0  0  0  0  0  0
  185.4830  175.8620  134.7460 C   0  0  0  0  0  2  0  0  0  0  0  0
  182.4990  172.1610  134.7820 C   0  0  0  0  0  2  0  0  0  0  0  0
  185.8140  175.3900  137.1350 O   0  0  0  0  0  0  0  0  0  0  0  0
  185.2760  177.1440  135.5310 C   0  0  0  0  0  2  0  0  0  0  0  0
  180.6710  176.1580  136.9490 S   0  0  0  0  0  0  0  0  0  0  0  0
  185.5960  173.1960  136.4360 O   0  0  0  0  0  0  0  0  0  0  0  0
  182.4310  176.6670  136.6280 C   0  0  1  0  0  0  0  0  0  0  0  0
  181.5040  174.0940  135.4570 N   0  0  2  0  0  0  0  0  0  0  0  0
  185.5140  174.0710  137.5240 C   0  0  0  0  0  2  0  0  0  0  0  0
  178.9340  173.1800  134.6980 C   0  0  0  0  0  2  0  0  0  0  0  0
  180.4070  175.0440  135.5340 C   0  0  1  0  0  3  0  0  0  0  0  0
  183.2510  177.1180  140.3650 C   0  0  0  0  0  3  0  0  0  0  0  0
  183.9740  179.0880  139.1690 C   0  0  0  0  0  3  0  0  0  0  0  0
  182.9190  177.2550  137.9510 C   0  0  0  0  0  0  0  0  0  0  0  0
  183.8460  178.3860  140.3680 C   0  0  0  0  0  0  0  0  0  0  0  0
  183.5150  178.5300  137.9760 C   0  0  0  0  0  3  0  0  0  0  0  0
  182.7870  176.5520  139.1750 C   0  0  0  0  0  0  0  0  0  0  0  0
  182.1970  175.2950  139.2200 O   0  0  0  0  0  1  0  0  0  0  0  0
  185.8700  179.0080  141.6640 C   0  0  0  0  0  1  0  0  0  0  0  0
  183.8360  178.2920  142.7880 N   0  0  0  0  0  1  0  0  0  0  0  0
  184.3520  179.0030  141.6320 C   0  0  2  0  0  3  0  0  0  0  0  0
  182.4820  177.6980  135.6450 O   0  0  0  0  0  0  0  0  0  0  0  0
  181.1970  178.1120  135.2650 C   0  0  0  0  0  2  0  0  0  0  0  0
  181.1220  179.6250  135.3050 C   0  0  0  0  0  1  0  0  0  0  0  0
  1 11  1  0  0  0  0
  2  1  1  6  0  0  0
  2 15  1  0  0  0  0
  3 14  1  0  0  0  0
  5 16  1  0  0  0  0
  5  2  1  0  0  0  0
  6  7  1  0  0  0  0
  7 16  1  0  0  0  0
  8  5  1  0  0  0  0
  8  3  1  0  0  0  0
  9 12  1  0  0  0  0
  9  1  1  0  0  0  0
 10  7  1  0  0  0  0
 10  8  1  0  0  0  0
 11 17  1  0  0  0  0
 12  1  1  0  0  0  0
 14 17  1  0  0  0  0
 15 13  1  0  0  0  0
 15 22  1  0  0  0  0
 16 19  1  0  0  0  0
 18  6  1  0  0  0  0
 18  4  1  0  0  0  0
 19  4  1  0  0  0  0
 19 13  1  0  0  0  0
 20 23  1  0  0  0  0
 21 23  2  0  0  0  0
 22 24  2  0  0  0  0
 22 25  1  0  0  0  0
 23 29  1  0  0  0  0
 24 21  1  0  0  0  0
 25 26  1  0  0  0  0
 25 20  2  0  0  0  0
 29 27  1  0  0  0  0
 29 28  1  0  0  0  0
 30 15  1  0  0  0  0
 31 32  1  0  0  0  0
 31 30  1  0  0  0  0
M  END
>  <MODEL>
7

>  <REMARK>
 VINA RESULT:      -3.8      2.850      4.300
  Name = 
  4 active torsions:
  status: ('A' for Active; 'I' for Inactive)
    1  A    between atoms: O_1  and  C_4
    2  A    between atoms: O_1  and  C_27
    3  A    between atoms: C_16  and  C_27
    4  A    between atoms: C_19  and  C_26
                            x       y       z     vdW  Elec       q    Type
                         _______ _______ _______ _____ _____    ______ ____

>  <TORSDO>
F 4

$$$$
=
 OpenBabel10262421033D

 32 37  0  0  1  0  0  0  0  0999 V2000
  180.7780  175.4180  136.1010 C   0  0  0  0  0  0  0  0  0  0  0  0
  181.2070  176.2650  137.3390 C   0  0  2  0  0  3  0  0  0  0  0  0
  179.9760  174.0740  138.9210 C   0  0  0  0  0  2  0  0  0  0  0  0
  181.5100  179.0210  140.8790 C   0  0  0  0  0  2  0  0  0  0  0  0
  180.0460  176.5810  138.3020 C   0  0  1  0  0  3  0  0  0  0  0  0
  179.7430  177.5340  141.8950 C   0  0  0  0  0  2  0  0  0  0  0  0
  179.6900  176.8600  140.5640 C   0  0  2  0  0  3  0  0  0  0  0  0
  179.2090  175.3950  138.8560 C   0  0  2  0  0  3  0  0  0  0  0  0
  179.3840  175.6460  135.5380 C   0  0  0  0  0  2  0  0  0  0  0  0
  178.9320  175.8220  140.2680 C   0  0  0  0  0  2  0  0  0  0  0  0
  181.2440  174.0940  135.9530 O   0  0  0  0  0  0  0  0  0  0  0  0
  180.6020  176.1250  134.7710 C   0  0  0  0  0  2  0  0  0  0  0  0
  182.8140  178.2960  138.5880 S   0  0  0  0  0  0  0  0  0  0  0  0
  179.8960  173.3990  137.7000 O   0  0  0  0  0  0  0  0  0  0  0  0
  182.2130  177.4370  137.0520 C   0  0  1  0  0  0  0  0  0  0  0  0
  180.5100  177.2640  139.4860 N   0  0  2  0  0  0  0  0  0  0  0  0
  181.2010  173.4380  137.1980 C   0  0  0  0  0  2  0  0  0  0  0  0
  180.2360  178.9730  141.7260 C   0  0  0  0  0  2  0  0  0  0  0  0
  181.2310  178.5260  139.4560 C   0  0  1  0  0  3  0  0  0  0  0  0
  185.3140  175.2210  136.4980 C   0  0  0  0  0  3  0  0  0  0  0  0
  185.0640  176.6930  134.6000 C   0  0  0  0  0  3  0  0  0  0  0  0
  183.4620  176.8090  136.4370 C   0  0  0  0  0  0  0  0  0  0  0  0
  185.7610  175.6750  135.2500 C   0  0  0  0  0  0  0  0  0  0  0  0
  183.9300  177.2540  135.1870 C   0  0  0  0  0  3  0  0  0  0  0  0
  184.1800  175.7780  137.0940 C   0  0  0  0  0  0  0  0  0  0  0  0
  183.7760  175.3010  138.3350 O   0  0  0  0  0  1  0  0  0  0  0  0
  187.1970  173.6590  135.0650 C   0  0  0  0  0  1  0  0  0  0  0  0
  188.1440  175.8910  134.8780 N   0  0  0  0  0  1  0  0  0  0  0  0
  186.9700  175.0850  134.5980 C   0  0  2  0  0  3  0  0  0  0  0  0
  181.6960  178.3850  136.1210 O   0  0  0  0  0  0  0  0  0  0  0  0
  181.2120  179.5320  136.7660 C   0  0  0  0  0  2  0  0  0  0  0  0
  179.8220  179.8500  136.2550 C   0  0  0  0  0  1  0  0  0  0  0  0
  2  1  1  6  0  0  0
  2  5  1  0  0  0  0
  4 18  1  0  0  0  0
  5  8  1  0  0  0  0
  5 16  1  0  0  0  0
  7  6  1  0  0  0  0
  8  3  1  0  0  0  0
  8 10  1  0  0  0  0
  9  1  1  0  0  0  0
 10  7  1  0  0  0  0
 11  1  1  0  0  0  0
 11 17  1  0  0  0  0
 12  9  1  0  0  0  0
 12  1  1  0  0  0  0
 13 19  1  0  0  0  0
 14  3  1  0  0  0  0
 15  2  1  0  0  0  0
 15 13  1  0  0  0  0
 16  7  1  0  0  0  0
 17 14  1  0  0  0  0
 18  6  1  0  0  0  0
 19 16  1  0  0  0  0
 19  4  1  0  0  0  0
 20 25  1  0  0  0  0
 21 24  2  0  0  0  0
 21 23  1  0  0  0  0
 22 15  1  0  0  0  0
 22 25  2  0  0  0  0
 23 20  2  0  0  0  0
 24 22  1  0  0  0  0
 25 26  1  0  0  0  0
 29 28  1  0  0  0  0
 29 27  1  0  0  0  0
 29 23  1  0  0  0  0
 30 31  1  0  0  0  0
 30 15  1  0  0  0  0
 32 31  1  0  0  0  0
M  END
>  <MODEL>
8

>  <REMARK>
 VINA RESULT:      -3.5      3.300      6.476
  Name = 
  4 active torsions:
  status: ('A' for Active; 'I' for Inactive)
    1  A    between atoms: O_1  and  C_4
    2  A    between atoms: O_1  and  C_27
    3  A    between atoms: C_16  and  C_27
    4  A    between atoms: C_19  and  C_26
                            x       y       z     vdW  Elec       q    Type
                         _______ _______ _______ _____ _____    ______ ____

>  <TORSDO>
F 4

$$$$
=
 OpenBabel10262421033D

 32 37  0  0  1  0  0  0  0  0999 V2000
  190.3400  176.3330  136.0960 C   0  0  0  0  0  0  0  0  0  0  0  0
  189.2390  175.2430  136.2750 C   0  0  2  0  0  3  0  0  0  0  0  0
  191.5140  173.3340  136.2700 C   0  0  0  0  0  2  0  0  0  0  0  0
  186.1600  171.9990  135.8160 C   0  0  0  0  0  2  0  0  0  0  0  0
  189.2950  174.1290  135.2120 C   0  0  1  0  0  3  0  0  0  0  0  0
  188.0860  170.6090  134.9670 C   0  0  0  0  0  2  0  0  0  0  0  0
  188.8920  171.8640  135.0430 C   0  0  2  0  0  3  0  0  0  0  0  0
  190.6350  173.3650  135.0200 C   0  0  2  0  0  3  0  0  0  0  0  0
  190.7700  176.6770  134.6790 C   0  0  0  0  0  2  0  0  0  0  0  0
  190.1760  171.9600  134.7590 C   0  0  0  0  0  2  0  0  0  0  0  0
  191.3720  176.4620  137.0520 O   0  0  0  0  0  0  0  0  0  0  0  0
  189.9450  177.6630  135.4850 C   0  0  0  0  0  2  0  0  0  0  0  0
  186.5890  174.4140  137.0230 S   0  0  0  0  0  0  0  0  0  0  0  0
  192.3160  174.4760  136.3350 O   0  0  0  0  0  0  0  0  0  0  0  0
  187.8090  175.7690  136.6570 C   0  0  1  0  0  0  0  0  0  0  0  0
  188.3350  173.0860  135.4840 N   0  0  2  0  0  0  0  0  0  0  0  0
  191.8210  175.1840  137.4350 C   0  0  0  0  0  2  0  0  0  0  0  0
  186.6060  170.9550  134.7900 C   0  0  0  0  0  2  0  0  0  0  0  0
  186.9050  173.3200  135.6030 C   0  0  1  0  0  3  0  0  0  0  0  0
  187.2850  178.3120  139.5030 C   0  0  0  0  0  3  0  0  0  0  0  0
  189.0840  176.8220  140.1170 C   0  0  0  0  0  3  0  0  0  0  0  0
  187.9550  176.5340  137.9720 C   0  0  0  0  0  0  0  0  0  0  0  0
  188.2610  177.9060  140.4220 C   0  0  0  0  0  0  0  0  0  0  0  0
  188.9330  176.1450  138.9060 C   0  0  0  0  0  3  0  0  0  0  0  0
  187.1280  177.6410  138.2880 C   0  0  0  0  0  0  0  0  0  0  0  0
  186.1510  178.0820  137.4030 O   0  0  0  0  0  1  0  0  0  0  0  0
  189.7810  178.2740  142.3500 C   0  0  0  0  0  1  0  0  0  0  0  0
  187.3670  178.2610  142.6450 N   0  0  0  0  0  1  0  0  0  0  0  0
  188.4370  178.6110  141.7280 C   0  0  2  0  0  3  0  0  0  0  0  0
  187.2800  176.6680  135.6850 O   0  0  0  0  0  0  0  0  0  0  0  0
  186.3920  176.0230  134.8140 C   0  0  0  0  0  2  0  0  0  0  0  0
  185.1750  176.8980  134.5940 C   0  0  0  0  0  1  0  0  0  0  0  0
  1 11  1  0  0  0  0
  2  1  1  6  0  0  0
  2 15  1  0  0  0  0
  3 14  1  0  0  0  0
  5 16  1  0  0  0  0
  5  2  1  0  0  0  0
  6  7  1  0  0  0  0
  7 16  1  0  0  0  0
  8  5  1  0  0  0  0
  8  3  1  0  0  0  0
  9 12  1  0  0  0  0
  9  1  1  0  0  0  0
 10  8  1  0  0  0  0
 10  7  1  0  0  0  0
 11 17  1  0  0  0  0
 12  1  1  0  0  0  0
 14 17  1  0  0  0  0
 15 13  1  0  0  0  0
 15 22  1  0  0  0  0
 16 19  1  0  0  0  0
 18  6  1  0  0  0  0
 18  4  1  0  0  0  0
 19  4  1  0  0  0  0
 19 13  1  0  0  0  0
 20 23  1  0  0  0  0
 21 23  2  0  0  0  0
 22 25  1  0  0  0  0
 22 24  2  0  0  0  0
 23 29  1  0  0  0  0
 24 21  1  0  0  0  0
 25 20  2  0  0  0  0
 26 25  1  0  0  0  0
 29 27  1  0  0  0  0
 29 28  1  0  0  0  0
 30 15  1  0  0  0  0
 31 30  1  0  0  0  0
 32 31  1  0  0  0  0
M  END
>  <MODEL>
9

>  <REMARK>
 VINA RESULT:      -3.0      5.784      7.725
  Name = 
  4 active torsions:
  status: ('A' for Active; 'I' for Inactive)
    1  A    between atoms: O_1  and  C_4
    2  A    between atoms: O_1  and  C_27
    3  A    between atoms: C_16  and  C_27
    4  A    between atoms: C_19  and  C_26
                            x       y       z     vdW  Elec       q    Type
                         _______ _______ _______ _____ _____    ______ ____

>  <TORSDO>
F 4

$$$$
