=
 OpenBabel10262419093D

 34 41  0  0  1  0  0  0  0  0999 V2000
  189.5430  176.9960  145.8960 C   0  0  0  0  0  0  0  0  0  0  0  0
  187.2740  177.8190  146.1050 C   0  0  0  0  0  0  0  0  0  0  0  0
  182.5300  179.2090  143.6790 C   0  0  0  0  0  3  0  0  0  0  0  0
  188.3410  177.6660  143.9180 C   0  0  0  0  0  0  0  0  0  0  0  0
  187.0210  178.3090  142.0430 C   0  0  0  0  0  0  0  0  0  0  0  0
  188.4980  177.1570  147.9890 N   0  0  0  0  0  0  0  0  0  0  0  0
  187.3730  177.6330  147.4440 N   0  0  0  0  0  0  0  0  0  0  0  0
  186.0830  178.4690  144.1050 C   0  0  0  0  0  0  0  0  0  0  0  0
  188.3910  177.4990  145.3030 C   0  0  0  0  0  0  0  0  0  0  0  0
  183.8040  179.0620  143.4160 C   0  0  0  0  0  0  0  0  0  0  0  0
  185.6360  178.7980  141.7370 C   0  0  0  0  0  2  0  0  0  0  0  0
  189.5650  176.8400  147.2430 N   0  0  0  0  0  0  0  0  0  0  0  0
  189.4170  177.3390  143.0750 C   0  0  0  0  0  0  0  0  0  0  0  0
  190.6430  176.6570  145.0890 C   0  0  0  0  0  3  0  0  0  0  0  0
  186.0860  178.3120  145.5030 C   0  0  0  0  0  3  0  0  0  0  0  0
  188.0320  177.9960  141.1860 N   0  0  0  0  0  0  0  0  0  0  0  0
  189.2430  177.5240  141.6570 C   0  0  0  0  0  0  0  0  0  0  0  0
  185.0710  178.9120  143.1440 C   0  0  0  0  0  0  0  0  0  0  0  0
  187.1830  178.1500  143.3750 C   0  0  0  0  0  0  0  0  0  0  0  0
  190.5770  176.8240  143.6890 C   0  0  0  0  0  3  0  0  0  0  0  0
  192.6320  177.2020  139.9420 C   0  0  0  0  0  0  0  0  0  0  0  0
  192.2560  176.6700  138.7070 C   0  0  0  0  0  3  0  0  0  0  0  0
  190.3030  177.2200  140.6590 C   0  0  0  0  0  0  0  0  0  0  0  0
  190.9080  176.4160  138.4400 C   0  0  0  0  0  3  0  0  0  0  0  0
  191.6610  177.4790  140.9090 C   0  0  0  0  0  3  0  0  0  0  0  0
  189.9400  176.6930  139.4080 C   0  0  0  0  0  3  0  0  0  0  0  0
  193.9370  177.4520  140.2040 F   0  0  0  0  0  0  0  0  0  0  0  0
  180.2150  180.6050  142.8710 O   0  0  0  0  0  1  0  0  0  0  0  0
  181.4360  178.3870  143.0440 C   0  0  1  0  0  3  0  0  0  0  0  0
  180.2210  179.2230  142.6730 C   0  0  2  0  0  0  0  0  0  0  0  0
  178.9480  177.8490  141.2940 C   0  0  0  0  0  2  0  0  0  0  0  0
  180.3950  177.6690  140.8840 C   0  0  0  0  0  2  0  0  0  0  0  0
  181.1530  178.7710  141.5800 C   0  0  2  0  0  3  0  0  0  0  0  0
  178.9320  178.5550  142.5690 N   0  0  0  0  0  2  0  0  0  0  0  0
  1 12  1  0  0  0  0
  2  7  2  0  0  0  0
  4  9  1  0  0  0  0
  5 19  1  0  0  0  0
  7  6  1  0  0  0  0
  8 15  2  0  0  0  0
  9  1  2  0  0  0  0
  9  2  1  0  0  0  0
 10  3  2  0  0  0  0
 11  5  1  0  0  0  0
 11 18  1  0  0  0  0
 12  6  2  0  0  0  0
 13 20  1  0  0  0  0
 13  4  1  0  0  0  0
 14  1  1  0  0  0  0
 15  2  1  0  0  0  0
 16 17  1  0  0  0  0
 16  5  2  0  0  0  0
 17 13  2  0  0  0  0
 18 10  2  0  0  0  0
 18  8  1  0  0  0  0
 19  4  2  0  0  0  0
 19  8  1  0  0  0  0
 20 14  2  0  0  0  0
 21 27  1  0  0  0  0
 21 25  1  0  0  0  0
 22 21  2  0  0  0  0
 23 25  2  0  0  0  0
 23 17  1  0  0  0  0
 24 22  1  0  0  0  0
 24 26  2  0  0  0  0
 26 23  1  0  0  0  0
 29  3  1  1  0  0  0
 30 28  1  1  0  0  0
 30 29  1  0  0  0  0
 31 34  1  0  0  0  0
 32 31  1  0  0  0  0
 33 32  1  6  0  0  0
 33 30  1  0  0  0  0
 33 29  1  0  0  0  0
 34 30  1  0  0  0  0
M  END
>  <MODEL>
1

>  <REMARK>
 VINA RESULT:     -12.1      0.000      0.000
  Name = 
  2 active torsions:
  status: ('A' for Active; 'I' for Inactive)
    1  A    between atoms: C_3  and  C_13
    2  A    between atoms: C_12  and  C_28
                            x       y       z     vdW  Elec       q    Type
                         _______ _______ _______ _____ _____    ______ ____

>  <TORSDO>
F 2

$$$$
=
 OpenBabel10262419093D

 34 41  0  0  1  0  0  0  0  0999 V2000
  189.5650  176.9650  145.8270 C   0  0  0  0  0  0  0  0  0  0  0  0
  187.2950  177.7850  146.0290 C   0  0  0  0  0  0  0  0  0  0  0  0
  182.5670  179.1990  143.5850 C   0  0  0  0  0  3  0  0  0  0  0  0
  188.3760  177.6540  143.8480 C   0  0  0  0  0  0  0  0  0  0  0  0
  187.0690  178.3150  141.9700 C   0  0  0  0  0  0  0  0  0  0  0  0
  188.5060  177.1040  147.9150 N   0  0  0  0  0  0  0  0  0  0  0  0
  187.3840  177.5860  147.3670 N   0  0  0  0  0  0  0  0  0  0  0  0
  186.1170  178.4550  144.0270 C   0  0  0  0  0  0  0  0  0  0  0  0
  188.4170  177.4730  145.2310 C   0  0  0  0  0  0  0  0  0  0  0  0
  183.8430  179.0550  143.3290 C   0  0  0  0  0  0  0  0  0  0  0  0
  185.6860  178.8070  141.6600 C   0  0  0  0  0  2  0  0  0  0  0  0
  189.5770  176.7950  147.1730 N   0  0  0  0  0  0  0  0  0  0  0  0
  189.4570  177.3360  143.0090 C   0  0  0  0  0  0  0  0  0  0  0  0
  190.6700  176.6330  145.0240 C   0  0  0  0  0  3  0  0  0  0  0  0
  186.1100  178.2840  145.4240 C   0  0  0  0  0  3  0  0  0  0  0  0
  188.0860  178.0110  141.1170 N   0  0  0  0  0  0  0  0  0  0  0  0
  189.2930  177.5340  141.5920 C   0  0  0  0  0  0  0  0  0  0  0  0
  185.1110  178.9070  143.0650 C   0  0  0  0  0  0  0  0  0  0  0  0
  187.2220  178.1430  143.3020 C   0  0  0  0  0  0  0  0  0  0  0  0
  190.6140  176.8140  143.6250 C   0  0  0  0  0  3  0  0  0  0  0  0
  191.1190  176.2960  138.4840 C   0  0  0  0  0  0  0  0  0  0  0  0
  192.4320  176.6660  138.7810 C   0  0  0  0  0  3  0  0  0  0  0  0
  190.3600  177.2400  140.5970 C   0  0  0  0  0  0  0  0  0  0  0  0
  192.7170  177.3160  139.9840 C   0  0  0  0  0  3  0  0  0  0  0  0
  190.0920  176.5780  139.3880 C   0  0  0  0  0  3  0  0  0  0  0  0
  191.6880  177.5970  140.8860 C   0  0  0  0  0  3  0  0  0  0  0  0
  190.8400  175.6620  137.3200 F   0  0  0  0  0  0  0  0  0  0  0  0
  180.1980  180.5750  142.9110 O   0  0  0  0  0  1  0  0  0  0  0  0
  181.4770  178.3830  142.9350 C   0  0  1  0  0  3  0  0  0  0  0  0
  180.2320  179.2050  142.6400 C   0  0  2  0  0  0  0  0  0  0  0  0
  178.9580  177.8740  141.2210 C   0  0  0  0  0  2  0  0  0  0  0  0
  180.3980  177.7530  140.7660 C   0  0  0  0  0  2  0  0  0  0  0  0
  181.1460  178.8360  141.5010 C   0  0  2  0  0  3  0  0  0  0  0  0
  178.9580  178.5110  142.5320 N   0  0  0  0  0  2  0  0  0  0  0  0
  1 12  1  0  0  0  0
  2  7  2  0  0  0  0
  4  9  1  0  0  0  0
  5 19  1  0  0  0  0
  7  6  1  0  0  0  0
  8 15  2  0  0  0  0
  9  1  2  0  0  0  0
  9  2  1  0  0  0  0
 10  3  2  0  0  0  0
 11  5  1  0  0  0  0
 11 18  1  0  0  0  0
 12  6  2  0  0  0  0
 13 20  1  0  0  0  0
 13  4  1  0  0  0  0
 14  1  1  0  0  0  0
 15  2  1  0  0  0  0
 16 17  1  0  0  0  0
 16  5  2  0  0  0  0
 17 13  2  0  0  0  0
 18 10  2  0  0  0  0
 18  8  1  0  0  0  0
 19  4  2  0  0  0  0
 19  8  1  0  0  0  0
 20 14  2  0  0  0  0
 21 22  2  0  0  0  0
 21 25  1  0  0  0  0
 22 24  1  0  0  0  0
 23 26  1  0  0  0  0
 23 17  1  0  0  0  0
 24 26  2  0  0  0  0
 25 23  2  0  0  0  0
 27 21  1  0  0  0  0
 29  3  1  1  0  0  0
 30 28  1  1  0  0  0
 30 29  1  0  0  0  0
 31 34  1  0  0  0  0
 32 31  1  0  0  0  0
 33 32  1  6  0  0  0
 33 30  1  0  0  0  0
 33 29  1  0  0  0  0
 34 30  1  0  0  0  0
M  END
>  <MODEL>
2

>  <REMARK>
 VINA RESULT:     -12.0      0.795      1.147
  Name = 
  2 active torsions:
  status: ('A' for Active; 'I' for Inactive)
    1  A    between atoms: C_3  and  C_13
    2  A    between atoms: C_12  and  C_28
                            x       y       z     vdW  Elec       q    Type
                         _______ _______ _______ _____ _____    ______ ____

>  <TORSDO>
F 2

$$$$
=
 OpenBabel10262419093D

 34 41  0  0  1  0  0  0  0  0999 V2000
  186.0590  178.5950  140.6030 C   0  0  0  0  0  0  0  0  0  0  0  0
  187.8250  178.2430  138.9830 C   0  0  0  0  0  0  0  0  0  0  0  0
  192.8800  176.3690  137.8630 C   0  0  0  0  0  3  0  0  0  0  0  0
  188.2570  177.9700  141.3660 C   0  0  0  0  0  0  0  0  0  0  0  0
  190.4580  177.2950  141.9790 C   0  0  0  0  0  0  0  0  0  0  0  0
  185.6680  178.8570  138.3060 N   0  0  0  0  0  0  0  0  0  0  0  0
  186.9340  178.5430  138.0060 N   0  0  0  0  0  0  0  0  0  0  0  0
  190.0170  177.5990  139.7710 C   0  0  0  0  0  0  0  0  0  0  0  0
  187.3820  178.2740  140.3230 C   0  0  0  0  0  0  0  0  0  0  0  0
  192.1460  176.7820  138.8660 C   0  0  0  0  0  0  0  0  0  0  0  0
  191.7630  176.9390  141.3290 C   0  0  0  0  0  2  0  0  0  0  0  0
  185.2280  178.8840  139.5710 N   0  0  0  0  0  0  0  0  0  0  0  0
  187.8580  177.9630  142.7130 C   0  0  0  0  0  0  0  0  0  0  0  0
  185.6190  178.6010  141.9380 C   0  0  0  0  0  3  0  0  0  0  0  0
  189.1700  177.8940  138.6870 C   0  0  0  0  0  3  0  0  0  0  0  0
  190.1140  177.2650  143.2960 N   0  0  0  0  0  0  0  0  0  0  0  0
  188.8380  177.6030  143.7050 C   0  0  0  0  0  0  0  0  0  0  0  0
  191.4180  177.1860  139.8690 C   0  0  0  0  0  0  0  0  0  0  0  0
  189.5460  177.6460  141.0450 C   0  0  0  0  0  0  0  0  0  0  0  0
  186.5110  178.2830  142.9840 C   0  0  0  0  0  3  0  0  0  0  0  0
  187.0720  177.9360  147.0660 C   0  0  0  0  0  0  0  0  0  0  0  0
  188.0730  177.5060  147.9380 C   0  0  0  0  0  3  0  0  0  0  0  0
  188.5460  177.5610  145.1640 C   0  0  0  0  0  0  0  0  0  0  0  0
  189.3130  177.1080  147.4320 C   0  0  0  0  0  3  0  0  0  0  0  0
  187.3090  177.9670  145.6900 C   0  0  0  0  0  3  0  0  0  0  0  0
  189.5470  177.1390  146.0550 C   0  0  0  0  0  3  0  0  0  0  0  0
  185.8700  178.3260  147.5540 F   0  0  0  0  0  0  0  0  0  0  0  0
  195.1610  176.0640  136.2310 O   0  0  0  0  0  1  0  0  0  0  0  0
  193.4430  174.9740  137.7470 C   0  0  1  0  0  3  0  0  0  0  0  0
  194.6480  174.9080  136.8230 C   0  0  2  0  0  0  0  0  0  0  0  0
  195.5930  172.8200  137.2200 C   0  0  0  0  0  2  0  0  0  0  0  0
  195.2000  173.3910  138.5670 C   0  0  0  0  0  2  0  0  0  0  0  0
  194.8690  174.8390  138.3100 C   0  0  2  0  0  3  0  0  0  0  0  0
  194.9620  173.6350  136.1890 N   0  0  0  0  0  2  0  0  0  0  0  0
  1 14  1  0  0  0  0
  2  9  1  0  0  0  0
  3 10  2  0  0  0  0
  4 13  2  0  0  0  0
  5 16  1  0  0  0  0
  6 12  2  0  0  0  0
  7  6  1  0  0  0  0
  7  2  2  0  0  0  0
  8 18  1  0  0  0  0
  8 19  1  0  0  0  0
  9  1  2  0  0  0  0
  9  4  1  0  0  0  0
 10 18  2  0  0  0  0
 11  5  1  0  0  0  0
 12  1  1  0  0  0  0
 13 20  1  0  0  0  0
 13 17  1  0  0  0  0
 14 20  2  0  0  0  0
 15  2  1  0  0  0  0
 15  8  2  0  0  0  0
 16 17  2  0  0  0  0
 17 23  1  0  0  0  0
 18 11  1  0  0  0  0
 19  4  1  0  0  0  0
 19  5  2  0  0  0  0
 21 27  1  0  0  0  0
 21 22  1  0  0  0  0
 23 25  1  0  0  0  0
 23 26  2  0  0  0  0
 24 22  2  0  0  0  0
 25 21  2  0  0  0  0
 26 24  1  0  0  0  0
 29  3  1  1  0  0  0
 29 33  1  0  0  0  0
 30 28  1  6  0  0  0
 30 29  1  0  0  0  0
 30 33  1  0  0  0  0
 31 32  1  0  0  0  0
 33 32  1  6  0  0  0
 34 30  1  0  0  0  0
 34 31  1  0  0  0  0
M  END
>  <MODEL>
3

>  <REMARK>
 VINA RESULT:     -11.7      4.582      9.797
  Name = 
  2 active torsions:
  status: ('A' for Active; 'I' for Inactive)
    1  A    between atoms: C_3  and  C_13
    2  A    between atoms: C_12  and  C_28
                            x       y       z     vdW  Elec       q    Type
                         _______ _______ _______ _____ _____    ______ ____

>  <TORSDO>
F 2

$$$$
=
 OpenBabel10262419093D

 34 41  0  0  1  0  0  0  0  0999 V2000
  184.8060  178.5870  145.2790 C   0  0  0  0  0  0  0  0  0  0  0  0
  184.5580  178.8780  142.8870 C   0  0  0  0  0  0  0  0  0  0  0  0
  186.6060  178.1820  137.8230 C   0  0  0  0  0  3  0  0  0  0  0  0
  186.7030  178.2210  143.8400 C   0  0  0  0  0  0  0  0  0  0  0  0
  188.4790  177.8370  142.3000 C   0  0  0  0  0  0  0  0  0  0  0  0
  182.7540  179.2240  144.3410 N   0  0  0  0  0  0  0  0  0  0  0  0
  183.2590  179.2030  143.1020 N   0  0  0  0  0  0  0  0  0  0  0  0
  186.4710  178.4880  141.4620 C   0  0  0  0  0  0  0  0  0  0  0  0
  185.3620  178.5660  144.0050 C   0  0  0  0  0  0  0  0  0  0  0  0
  186.9860  178.2530  139.0750 C   0  0  0  0  0  0  0  0  0  0  0  0
  188.7280  177.8510  140.8200 C   0  0  0  0  0  2  0  0  0  0  0  0
  183.4990  178.9240  145.4120 N   0  0  0  0  0  0  0  0  0  0  0  0
  187.5370  177.8780  144.9180 C   0  0  0  0  0  0  0  0  0  0  0  0
  185.6060  178.2530  146.3860 C   0  0  0  0  0  3  0  0  0  0  0  0
  185.1120  178.8370  141.5800 C   0  0  0  0  0  3  0  0  0  0  0  0
  189.3210  177.4880  143.3110 N   0  0  0  0  0  0  0  0  0  0  0  0
  188.8980  177.5080  144.6270 C   0  0  0  0  0  0  0  0  0  0  0  0
  187.3700  178.3170  140.3190 C   0  0  0  0  0  0  0  0  0  0  0  0
  187.2050  178.1990  142.5680 C   0  0  0  0  0  0  0  0  0  0  0  0
  186.9590  177.8970  146.2050 C   0  0  0  0  0  3  0  0  0  0  0  0
  191.8120  175.8550  146.4450 C   0  0  0  0  0  0  0  0  0  0  0  0
  191.6820  176.4110  147.7190 C   0  0  0  0  0  3  0  0  0  0  0  0
  189.8830  177.1280  145.6760 C   0  0  0  0  0  0  0  0  0  0  0  0
  190.6540  177.3200  147.9790 C   0  0  0  0  0  3  0  0  0  0  0  0
  190.9160  176.2080  145.4330 C   0  0  0  0  0  3  0  0  0  0  0  0
  189.7590  177.6720  146.9650 C   0  0  0  0  0  3  0  0  0  0  0  0
  192.8060  174.9700  146.1900 F   0  0  0  0  0  0  0  0  0  0  0  0
  184.3280  176.5540  137.4810 O   0  0  0  0  0  1  0  0  0  0  0  0
  186.7780  176.9590  136.9580 C   0  0  1  0  0  3  0  0  0  0  0  0
  185.5060  176.1310  136.8610 C   0  0  2  0  0  0  0  0  0  0  0  0
  185.8900  174.6430  135.1160 C   0  0  0  0  0  2  0  0  0  0  0  0
  186.4300  175.9890  134.6770 C   0  0  0  0  0  2  0  0  0  0  0  0
  185.9110  176.9810  135.6860 C   0  0  2  0  0  3  0  0  0  0  0  0
  185.6270  174.7150  136.5470 N   0  0  0  0  0  2  0  0  0  0  0  0
  1 12  1  0  0  0  0
  1 14  1  0  0  0  0
  2  7  2  0  0  0  0
  2  9  1  0  0  0  0
  3 10  2  0  0  0  0
  4  9  1  0  0  0  0
  4 13  2  0  0  0  0
  5 19  2  0  0  0  0
  5 16  1  0  0  0  0
  6 12  2  0  0  0  0
  7  6  1  0  0  0  0
  8 15  2  0  0  0  0
  8 19  1  0  0  0  0
  9  1  2  0  0  0  0
 10 18  2  0  0  0  0
 11  5  1  0  0  0  0
 13 20  1  0  0  0  0
 15  2  1  0  0  0  0
 16 17  2  0  0  0  0
 17 13  1  0  0  0  0
 17 23  1  0  0  0  0
 18 11  1  0  0  0  0
 18  8  1  0  0  0  0
 19  4  1  0  0  0  0
 20 14  2  0  0  0  0
 21 22  1  0  0  0  0
 22 24  2  0  0  0  0
 23 26  2  0  0  0  0
 25 23  1  0  0  0  0
 25 21  2  0  0  0  0
 26 24  1  0  0  0  0
 27 21  1  0  0  0  0
 29  3  1  1  0  0  0
 30 29  1  0  0  0  0
 30 28  1  1  0  0  0
 31 34  1  0  0  0  0
 32 31  1  0  0  0  0
 33 32  1  6  0  0  0
 33 30  1  0  0  0  0
 33 29  1  0  0  0  0
 34 30  1  0  0  0  0
M  END
>  <MODEL>
4

>  <REMARK>
 VINA RESULT:     -11.2      3.480      6.179
  Name = 
  2 active torsions:
  status: ('A' for Active; 'I' for Inactive)
    1  A    between atoms: C_3  and  C_13
    2  A    between atoms: C_12  and  C_28
                            x       y       z     vdW  Elec       q    Type
                         _______ _______ _______ _____ _____    ______ ____

>  <TORSDO>
F 2

$$$$
=
 OpenBabel10262419093D

 34 41  0  0  1  0  0  0  0  0999 V2000
  183.1730  178.7870  143.3980 C   0  0  0  0  0  0  0  0  0  0  0  0
  183.8180  178.8060  141.0630 C   0  0  0  0  0  0  0  0  0  0  0  0
  187.6420  177.8030  137.2290 C   0  0  0  0  0  3  0  0  0  0  0  0
  185.4870  178.4660  142.8080 C   0  0  0  0  0  0  0  0  0  0  0  0
  187.7270  178.1050  142.0830 C   0  0  0  0  0  0  0  0  0  0  0  0
  181.5870  179.1180  141.7030 N   0  0  0  0  0  0  0  0  0  0  0  0
  182.5170  179.0200  140.7460 N   0  0  0  0  0  0  0  0  0  0  0  0
  186.1430  178.4640  140.4950 C   0  0  0  0  0  0  0  0  0  0  0  0
  184.1630  178.6910  142.4280 C   0  0  0  0  0  0  0  0  0  0  0  0
  187.5220  178.0390  138.5110 C   0  0  0  0  0  0  0  0  0  0  0  0
  188.5080  177.9920  140.8070 C   0  0  0  0  0  2  0  0  0  0  0  0
  181.8940  179.0040  143.0010 N   0  0  0  0  0  0  0  0  0  0  0  0
  185.8760  178.3200  144.1500 C   0  0  0  0  0  0  0  0  0  0  0  0
  183.5200  178.6490  144.7530 C   0  0  0  0  0  3  0  0  0  0  0  0
  184.8220  178.6870  140.0650 C   0  0  0  0  0  3  0  0  0  0  0  0
  188.1490  177.9460  143.3680 N   0  0  0  0  0  0  0  0  0  0  0  0
  187.2660  178.0590  144.4250 C   0  0  0  0  0  0  0  0  0  0  0  0
  187.4110  178.2670  139.7900 C   0  0  0  0  0  0  0  0  0  0  0  0
  186.4270  178.3640  141.8200 C   0  0  0  0  0  0  0  0  0  0  0  0
  184.8600  178.4120  145.1250 C   0  0  0  0  0  3  0  0  0  0  0  0
  189.5170  177.1040  147.3490 C   0  0  0  0  0  0  0  0  0  0  0  0
  188.7530  177.5480  148.4300 C   0  0  0  0  0  3  0  0  0  0  0  0
  187.8070  177.8880  145.8000 C   0  0  0  0  0  0  0  0  0  0  0  0
  187.5160  178.1560  148.2040 C   0  0  0  0  0  3  0  0  0  0  0  0
  189.0450  177.2690  146.0440 C   0  0  0  0  0  3  0  0  0  0  0  0
  187.0460  178.3210  146.8990 C   0  0  0  0  0  3  0  0  0  0  0  0
  190.7150  176.5110  147.5640 F   0  0  0  0  0  0  0  0  0  0  0  0
  185.8250  175.6580  136.9800 O   0  0  0  0  0  1  0  0  0  0  0  0
  188.1900  176.5200  136.6540 C   0  0  1  0  0  3  0  0  0  0  0  0
  187.1440  175.4170  136.5900 C   0  0  2  0  0  0  0  0  0  0  0  0
  188.0860  173.7780  135.2360 C   0  0  0  0  0  2  0  0  0  0  0  0
  188.3960  175.1140  134.5940 C   0  0  0  0  0  2  0  0  0  0  0  0
  187.5380  176.1190  135.3180 C   0  0  2  0  0  3  0  0  0  0  0  0
  187.6010  174.0350  136.5860 N   0  0  0  0  0  2  0  0  0  0  0  0
  1 14  1  0  0  0  0
  2  9  1  0  0  0  0
  3 10  2  0  0  0  0
  4 13  2  0  0  0  0
  5 16  1  0  0  0  0
  6 12  2  0  0  0  0
  7  2  2  0  0  0  0
  7  6  1  0  0  0  0
  8 19  1  0  0  0  0
  9  4  1  0  0  0  0
  9  1  2  0  0  0  0
 10 18  2  0  0  0  0
 11  5  1  0  0  0  0
 12  1  1  0  0  0  0
 13 17  1  0  0  0  0
 13 20  1  0  0  0  0
 14 20  2  0  0  0  0
 15  8  2  0  0  0  0
 15  2  1  0  0  0  0
 16 17  2  0  0  0  0
 17 23  1  0  0  0  0
 18  8  1  0  0  0  0
 18 11  1  0  0  0  0
 19  5  2  0  0  0  0
 19  4  1  0  0  0  0
 21 27  1  0  0  0  0
 21 22  1  0  0  0  0
 23 25  1  0  0  0  0
 23 26  2  0  0  0  0
 24 22  2  0  0  0  0
 25 21  2  0  0  0  0
 26 24  1  0  0  0  0
 29  3  1  1  0  0  0
 30 29  1  0  0  0  0
 30 28  1  1  0  0  0
 31 34  1  0  0  0  0
 32 31  1  0  0  0  0
 33 32  1  6  0  0  0
 33 30  1  0  0  0  0
 33 29  1  0  0  0  0
 34 30  1  0  0  0  0
M  END
>  <MODEL>
5

>  <REMARK>
 VINA RESULT:     -11.0      3.378      7.479
  Name = 
  2 active torsions:
  status: ('A' for Active; 'I' for Inactive)
    1  A    between atoms: C_3  and  C_13
    2  A    between atoms: C_12  and  C_28
                            x       y       z     vdW  Elec       q    Type
                         _______ _______ _______ _____ _____    ______ ____

>  <TORSDO>
F 2

$$$$
=
 OpenBabel10262419093D

 34 41  0  0  1  0  0  0  0  0999 V2000
  189.3050  177.7950  140.2590 C   0  0  0  0  0  0  0  0  0  0  0  0
  187.3620  178.2530  138.8870 C   0  0  0  0  0  0  0  0  0  0  0  0
  182.1120  179.8820  138.5580 C   0  0  0  0  0  3  0  0  0  0  0  0
  187.1650  178.1260  141.3130 C   0  0  0  0  0  0  0  0  0  0  0  0
  185.0030  178.5280  142.2280 C   0  0  0  0  0  0  0  0  0  0  0  0
  189.4700  177.9160  137.9230 N   0  0  0  0  0  0  0  0  0  0  0  0
  188.1630  178.1750  137.7960 N   0  0  0  0  0  0  0  0  0  0  0  0
  185.2290  178.5990  139.9690 C   0  0  0  0  0  0  0  0  0  0  0  0
  187.9430  178.0520  140.1580 C   0  0  0  0  0  0  0  0  0  0  0  0
  182.9710  179.3790  139.4080 C   0  0  0  0  0  0  0  0  0  0  0  0
  183.6180  178.8780  141.7690 C   0  0  0  0  0  2  0  0  0  0  0  0
  190.0400  177.7310  139.1200 N   0  0  0  0  0  0  0  0  0  0  0  0
  187.7010  177.9580  142.6010 C   0  0  0  0  0  0  0  0  0  0  0  0
  189.8820  177.6190  141.5280 C   0  0  0  0  0  3  0  0  0  0  0  0
  185.9750  178.5380  138.7780 C   0  0  0  0  0  3  0  0  0  0  0  0
  185.4790  178.3830  143.4960 N   0  0  0  0  0  0  0  0  0  0  0  0
  186.8090  178.0860  143.7250 C   0  0  0  0  0  0  0  0  0  0  0  0
  183.8230  178.8830  140.2620 C   0  0  0  0  0  0  0  0  0  0  0  0
  185.8320  178.3950  141.1690 C   0  0  0  0  0  0  0  0  0  0  0  0
  189.0850  177.7040  142.6900 C   0  0  0  0  0  3  0  0  0  0  0  0
  188.8230  177.1280  146.8160 C   0  0  0  0  0  0  0  0  0  0  0  0
  187.9990  177.6150  147.8330 C   0  0  0  0  0  3  0  0  0  0  0  0
  187.2490  177.9280  145.1380 C   0  0  0  0  0  0  0  0  0  0  0  0
  186.7990  178.2530  147.5100 C   0  0  0  0  0  3  0  0  0  0  0  0
  188.4470  177.2800  145.4790 C   0  0  0  0  0  3  0  0  0  0  0  0
  186.4260  178.4040  146.1720 C   0  0  0  0  0  3  0  0  0  0  0  0
  189.9850  176.5060  147.1260 F   0  0  0  0  0  0  0  0  0  0  0  0
  180.8060  180.9240  136.2840 O   0  0  0  0  0  1  0  0  0  0  0  0
  181.4560  181.2300  138.7180 C   0  0  1  0  0  3  0  0  0  0  0  0
  180.8090  181.7190  137.4320 C   0  0  2  0  0  0  0  0  0  0  0  0
  179.4770  183.5140  138.0770 C   0  0  0  0  0  2  0  0  0  0  0  0
  179.2980  182.4320  139.1220 C   0  0  0  0  0  2  0  0  0  0  0  0
  179.9280  181.1950  138.5350 C   0  0  2  0  0  3  0  0  0  0  0  0
  180.6250  183.1520  137.2540 N   0  0  0  0  0  2  0  0  0  0  0  0
  1 14  1  0  0  0  0
  2  9  1  0  0  0  0
  3 10  2  0  0  0  0
  4 13  2  0  0  0  0
  5 16  1  0  0  0  0
  6 12  2  0  0  0  0
  7  6  1  0  0  0  0
  7  2  2  0  0  0  0
  8 18  1  0  0  0  0
  8 19  1  0  0  0  0
  9  1  2  0  0  0  0
  9  4  1  0  0  0  0
 10 18  2  0  0  0  0
 11  5  1  0  0  0  0
 12  1  1  0  0  0  0
 13 20  1  0  0  0  0
 13 17  1  0  0  0  0
 14 20  2  0  0  0  0
 15  2  1  0  0  0  0
 15  8  2  0  0  0  0
 16 17  2  0  0  0  0
 17 23  1  0  0  0  0
 18 11  1  0  0  0  0
 19  4  1  0  0  0  0
 19  5  2  0  0  0  0
 21 27  1  0  0  0  0
 21 22  1  0  0  0  0
 23 25  1  0  0  0  0
 23 26  2  0  0  0  0
 24 22  2  0  0  0  0
 25 21  2  0  0  0  0
 26 24  1  0  0  0  0
 29  3  1  6  0  0  0
 30 28  1  6  0  0  0
 30 33  1  0  0  0  0
 30 29  1  0  0  0  0
 31 32  1  0  0  0  0
 33 29  1  0  0  0  0
 33 32  1  1  0  0  0
 34 30  1  0  0  0  0
 34 31  1  0  0  0  0
M  END
>  <MODEL>
6

>  <REMARK>
 VINA RESULT:     -10.5      3.390      6.079
  Name = 
  2 active torsions:
  status: ('A' for Active; 'I' for Inactive)
    1  A    between atoms: C_3  and  C_13
    2  A    between atoms: C_12  and  C_28
                            x       y       z     vdW  Elec       q    Type
                         _______ _______ _______ _____ _____    ______ ____

>  <TORSDO>
F 2

$$$$
=
 OpenBabel10262419093D

 34 41  0  0  1  0  0  0  0  0999 V2000
  185.2450  178.4140  143.4730 C   0  0  0  0  0  0  0  0  0  0  0  0
  185.7130  178.5180  141.0990 C   0  0  0  0  0  0  0  0  0  0  0  0
  189.1860  177.5390  136.9400 C   0  0  0  0  0  3  0  0  0  0  0  0
  187.4900  178.0230  142.6930 C   0  0  0  0  0  0  0  0  0  0  0  0
  189.6500  177.6020  141.7820 C   0  0  0  0  0  0  0  0  0  0  0  0
  183.5530  178.8940  141.9230 N   0  0  0  0  0  0  0  0  0  0  0  0
  184.4030  178.8030  140.8940 N   0  0  0  0  0  0  0  0  0  0  0  0
  187.9700  178.1050  140.3390 C   0  0  0  0  0  0  0  0  0  0  0  0
  186.1540  178.3230  142.4260 C   0  0  0  0  0  0  0  0  0  0  0  0
  189.1750  177.7170  138.2370 C   0  0  0  0  0  0  0  0  0  0  0  0
  190.3270  177.5180  140.4450 C   0  0  0  0  0  2  0  0  0  0  0  0
  183.9510  178.7040  143.1870 N   0  0  0  0  0  0  0  0  0  0  0  0
  187.9720  177.7960  143.9930 C   0  0  0  0  0  0  0  0  0  0  0  0
  185.6850  178.1950  144.7900 C   0  0  0  0  0  3  0  0  0  0  0  0
  186.6320  178.4040  140.0220 C   0  0  0  0  0  3  0  0  0  0  0  0
  190.1600  177.3640  143.0220 N   0  0  0  0  0  0  0  0  0  0  0  0
  189.3650  177.4620  144.1480 C   0  0  0  0  0  0  0  0  0  0  0  0
  189.1710  177.8880  139.5300 C   0  0  0  0  0  0  0  0  0  0  0  0
  188.3470  177.9290  141.6320 C   0  0  0  0  0  0  0  0  0  0  0  0
  187.0380  177.8840  145.0460 C   0  0  0  0  0  3  0  0  0  0  0  0
  191.7020  176.1500  146.8580 C   0  0  0  0  0  0  0  0  0  0  0  0
  191.1230  176.7060  148.0010 C   0  0  0  0  0  3  0  0  0  0  0  0
  190.0000  177.2020  145.4680 C   0  0  0  0  0  0  0  0  0  0  0  0
  189.9820  177.5040  147.8850 C   0  0  0  0  0  3  0  0  0  0  0  0
  191.1410  176.3940  145.6020 C   0  0  0  0  0  3  0  0  0  0  0  0
  189.4240  177.7460  146.6280 C   0  0  0  0  0  3  0  0  0  0  0  0
  192.8060  175.3740  146.9670 F   0  0  0  0  0  0  0  0  0  0  0  0
  191.8600  176.7510  137.3760 O   0  0  0  0  0  1  0  0  0  0  0  0
  189.6300  176.2630  136.2670 C   0  0  1  0  0  3  0  0  0  0  0  0
  191.0920  175.9420  136.5360 C   0  0  2  0  0  0  0  0  0  0  0  0
  191.3590  173.7410  135.8350 C   0  0  0  0  0  2  0  0  0  0  0  0
  190.0380  173.8130  136.5720 C   0  0  0  0  0  2  0  0  0  0  0  0
  190.0310  175.1550  137.2580 C   0  0  2  0  0  3  0  0  0  0  0  0
  191.8010  175.1060  135.5780 N   0  0  0  0  0  2  0  0  0  0  0  0
  1 14  1  0  0  0  0
  2  9  1  0  0  0  0
  3 10  2  0  0  0  0
  4 13  2  0  0  0  0
  5 16  1  0  0  0  0
  6 12  2  0  0  0  0
  7  2  2  0  0  0  0
  7  6  1  0  0  0  0
  8 19  1  0  0  0  0
  9  4  1  0  0  0  0
  9  1  2  0  0  0  0
 10 18  2  0  0  0  0
 11  5  1  0  0  0  0
 12  1  1  0  0  0  0
 13 17  1  0  0  0  0
 13 20  1  0  0  0  0
 14 20  2  0  0  0  0
 15  8  2  0  0  0  0
 15  2  1  0  0  0  0
 16 17  2  0  0  0  0
 17 23  1  0  0  0  0
 18  8  1  0  0  0  0
 18 11  1  0  0  0  0
 19  5  2  0  0  0  0
 19  4  1  0  0  0  0
 21 27  1  0  0  0  0
 21 22  1  0  0  0  0
 23 25  1  0  0  0  0
 23 26  2  0  0  0  0
 24 22  2  0  0  0  0
 25 21  2  0  0  0  0
 26 24  1  0  0  0  0
 29 30  1  0  0  0  0
 29  3  1  1  0  0  0
 29 33  1  0  0  0  0
 30 33  1  0  0  0  0
 30 28  1  1  0  0  0
 31 32  1  0  0  0  0
 33 32  1  6  0  0  0
 34 31  1  0  0  0  0
 34 30  1  0  0  0  0
M  END
>  <MODEL>
7

>  <REMARK>
 VINA RESULT:     -10.1      3.884      7.813
  Name = 
  2 active torsions:
  status: ('A' for Active; 'I' for Inactive)
    1  A    between atoms: C_3  and  C_13
    2  A    between atoms: C_12  and  C_28
                            x       y       z     vdW  Elec       q    Type
                         _______ _______ _______ _____ _____    ______ ____

>  <TORSDO>
F 2

$$$$
=
 OpenBabel10262419093D

 34 41  0  0  1  0  0  0  0  0999 V2000
  189.2820  177.4990  137.8210 C   0  0  0  0  0  0  0  0  0  0  0  0
  187.0280  177.9770  137.0730 C   0  0  0  0  0  0  0  0  0  0  0  0
  181.9840  179.8560  138.2340 C   0  0  0  0  0  3  0  0  0  0  0  0
  187.5790  178.0040  139.4480 C   0  0  0  0  0  0  0  0  0  0  0  0
  185.8150  178.5720  140.9430 C   0  0  0  0  0  0  0  0  0  0  0  0
  188.7290  177.4740  135.5420 N   0  0  0  0  0  0  0  0  0  0  0  0
  187.4550  177.7920  135.7990 N   0  0  0  0  0  0  0  0  0  0  0  0
  185.3410  178.4970  138.7230 C   0  0  0  0  0  0  0  0  0  0  0  0
  187.9640  177.8210  138.1190 C   0  0  0  0  0  0  0  0  0  0  0  0
  183.0460  179.3600  138.8180 C   0  0  0  0  0  0  0  0  0  0  0  0
  184.3670  178.9660  140.9010 C   0  0  0  0  0  2  0  0  0  0  0  0
  189.6310  177.3300  136.5210 N   0  0  0  0  0  0  0  0  0  0  0  0
  188.4780  177.8840  140.5210 C   0  0  0  0  0  0  0  0  0  0  0  0
  190.2140  177.3690  138.8650 C   0  0  0  0  0  3  0  0  0  0  0  0
  185.6840  178.3270  137.3690 C   0  0  0  0  0  3  0  0  0  0  0  0
  186.6510  178.4780  142.0140 N   0  0  0  0  0  0  0  0  0  0  0  0
  187.9770  178.1260  141.8500 C   0  0  0  0  0  0  0  0  0  0  0  0
  184.1020  178.8720  139.4070 C   0  0  0  0  0  0  0  0  0  0  0  0
  186.2750  178.3340  139.6950 C   0  0  0  0  0  0  0  0  0  0  0  0
  189.8150  177.5650  140.2040 C   0  0  0  0  0  3  0  0  0  0  0  0
  190.8760  178.4890  144.2980 C   0  0  0  0  0  0  0  0  0  0  0  0
  190.3960  177.7640  145.3900 C   0  0  0  0  0  3  0  0  0  0  0  0
  188.8230  178.0290  143.0710 C   0  0  0  0  0  0  0  0  0  0  0  0
  189.1350  177.1660  145.3280 C   0  0  0  0  0  3  0  0  0  0  0  0
  190.0970  178.6160  143.1450 C   0  0  0  0  0  3  0  0  0  0  0  0
  188.3570  177.2950  144.1740 C   0  0  0  0  0  3  0  0  0  0  0  0
  192.1000  179.0680  144.3540 F   0  0  0  0  0  0  0  0  0  0  0  0
  180.8560  181.1950  136.0210 O   0  0  0  0  0  1  0  0  0  0  0  0
  181.4520  181.2440  138.4880 C   0  0  1  0  0  3  0  0  0  0  0  0
  180.8960  181.8930  137.2300 C   0  0  2  0  0  0  0  0  0  0  0  0
  179.7170  183.7500  137.9850 C   0  0  0  0  0  2  0  0  0  0  0  0
  179.4030  182.6110  138.9340 C   0  0  0  0  0  2  0  0  0  0  0  0
  179.9340  181.3700  138.2640 C   0  0  2  0  0  3  0  0  0  0  0  0
  180.8520  183.3470  137.1660 N   0  0  0  0  0  2  0  0  0  0  0  0
  1  9  2  0  0  0  0
  1 14  1  0  0  0  0
  2 15  1  0  0  0  0
  2  9  1  0  0  0  0
  3 10  2  0  0  0  0
  4 19  1  0  0  0  0
  4 13  2  0  0  0  0
  5 16  1  0  0  0  0
  6  7  1  0  0  0  0
  6 12  2  0  0  0  0
  7  2  2  0  0  0  0
  8 18  1  0  0  0  0
  8 19  1  0  0  0  0
  9  4  1  0  0  0  0
 10 18  2  0  0  0  0
 11  5  1  0  0  0  0
 12  1  1  0  0  0  0
 13 17  1  0  0  0  0
 14 20  2  0  0  0  0
 15  8  2  0  0  0  0
 17 16  2  0  0  0  0
 17 23  1  0  0  0  0
 18 11  1  0  0  0  0
 19  5  2  0  0  0  0
 20 13  1  0  0  0  0
 21 27  1  0  0  0  0
 21 22  1  0  0  0  0
 23 25  1  0  0  0  0
 23 26  2  0  0  0  0
 24 22  2  0  0  0  0
 25 21  2  0  0  0  0
 26 24  1  0  0  0  0
 29  3  1  6  0  0  0
 30 28  1  6  0  0  0
 30 33  1  0  0  0  0
 30 29  1  0  0  0  0
 31 32  1  0  0  0  0
 33 29  1  0  0  0  0
 33 32  1  1  0  0  0
 34 30  1  0  0  0  0
 34 31  1  0  0  0  0
M  END
>  <MODEL>
8

>  <REMARK>
 VINA RESULT:      -9.8      3.675      6.250
  Name = 
  2 active torsions:
  status: ('A' for Active; 'I' for Inactive)
    1  A    between atoms: C_3  and  C_13
    2  A    between atoms: C_12  and  C_28
                            x       y       z     vdW  Elec       q    Type
                         _______ _______ _______ _____ _____    ______ ____

>  <TORSDO>
F 2

$$$$
=
 OpenBabel10262419093D

 34 41  0  0  1  0  0  0  0  0999 V2000
  186.2410  178.2340  145.3460 C   0  0  0  0  0  0  0  0  0  0  0  0
  184.1140  178.7680  144.3160 C   0  0  0  0  0  0  0  0  0  0  0  0
  181.0560  179.1380  139.7520 C   0  0  0  0  0  3  0  0  0  0  0  0
  186.1050  178.4380  142.9490 C   0  0  0  0  0  0  0  0  0  0  0  0
  185.8190  178.6140  140.5910 C   0  0  0  0  0  0  0  0  0  0  0  0
  184.3140  178.5610  146.6410 N   0  0  0  0  0  0  0  0  0  0  0  0
  183.5670  178.7970  145.5570 N   0  0  0  0  0  0  0  0  0  0  0  0
  184.0000  178.9500  141.9090 C   0  0  0  0  0  0  0  0  0  0  0  0
  185.4930  178.4850  144.2020 C   0  0  0  0  0  0  0  0  0  0  0  0
  182.3060  179.1250  140.1430 C   0  0  0  0  0  0  0  0  0  0  0  0
  184.7290  178.8630  139.5910 C   0  0  0  0  0  2  0  0  0  0  0  0
  185.6210  178.2830  146.5510 N   0  0  0  0  0  0  0  0  0  0  0  0
  187.4680  178.1360  142.7820 C   0  0  0  0  0  0  0  0  0  0  0  0
  187.6080  177.9290  145.2230 C   0  0  0  0  0  3  0  0  0  0  0  0
  183.3390  179.0040  143.1500 C   0  0  0  0  0  3  0  0  0  0  0  0
  187.1310  178.3150  140.3790 N   0  0  0  0  0  0  0  0  0  0  0  0
  187.9870  178.0850  141.4390 C   0  0  0  0  0  0  0  0  0  0  0  0
  183.5530  179.1080  140.5240 C   0  0  0  0  0  0  0  0  0  0  0  0
  185.3290  178.6770  141.8490 C   0  0  0  0  0  0  0  0  0  0  0  0
  188.2140  177.8770  143.9500 C   0  0  0  0  0  3  0  0  0  0  0  0
  191.1700  177.1280  139.5730 C   0  0  0  0  0  0  0  0  0  0  0  0
  192.1070  177.1650  140.6080 C   0  0  0  0  0  3  0  0  0  0  0  0
  189.4090  177.7800  141.1260 C   0  0  0  0  0  0  0  0  0  0  0  0
  191.7020  177.5030  141.9010 C   0  0  0  0  0  3  0  0  0  0  0  0
  189.8300  177.4290  139.8320 C   0  0  0  0  0  3  0  0  0  0  0  0
  190.3620  177.8050  142.1570 C   0  0  0  0  0  3  0  0  0  0  0  0
  191.5580  176.7970  138.3190 F   0  0  0  0  0  0  0  0  0  0  0  0
  181.4700  179.4590  136.9800 O   0  0  0  0  0  1  0  0  0  0  0  0
  180.4420  178.0930  138.8550 C   0  0  1  0  0  3  0  0  0  0  0  0
  180.6920  178.3710  137.3810 C   0  0  2  0  0  0  0  0  0  0  0  0
  180.1030  176.4020  136.2920 C   0  0  0  0  0  2  0  0  0  0  0  0
  180.8660  176.0060  137.5390 C   0  0  0  0  0  2  0  0  0  0  0  0
  181.4800  177.2810  138.0590 C   0  0  2  0  0  3  0  0  0  0  0  0
  179.7640  177.8150  136.4070 N   0  0  0  0  0  2  0  0  0  0  0  0
  1 12  1  0  0  0  0
  2  7  2  0  0  0  0
  3 10  2  0  0  0  0
  4  9  1  0  0  0  0
  5 19  1  0  0  0  0
  7  6  1  0  0  0  0
  8 15  2  0  0  0  0
  9  2  1  0  0  0  0
  9  1  2  0  0  0  0
 10 18  2  0  0  0  0
 11 18  1  0  0  0  0
 11  5  1  0  0  0  0
 12  6  2  0  0  0  0
 13  4  1  0  0  0  0
 13 20  1  0  0  0  0
 14  1  1  0  0  0  0
 15  2  1  0  0  0  0
 16  5  2  0  0  0  0
 16 17  1  0  0  0  0
 17 13  2  0  0  0  0
 18  8  1  0  0  0  0
 19  8  1  0  0  0  0
 19  4  2  0  0  0  0
 20 14  2  0  0  0  0
 21 25  2  0  0  0  0
 21 22  1  0  0  0  0
 22 24  2  0  0  0  0
 23 17  1  0  0  0  0
 23 26  2  0  0  0  0
 24 26  1  0  0  0  0
 25 23  1  0  0  0  0
 27 21  1  0  0  0  0
 29  3  1  1  0  0  0
 30 28  1  6  0  0  0
 30 33  1  0  0  0  0
 30 29  1  0  0  0  0
 31 34  1  0  0  0  0
 31 32  1  0  0  0  0
 33 32  1  6  0  0  0
 33 29  1  0  0  0  0
 34 30  1  0  0  0  0
M  END
>  <MODEL>
9

>  <REMARK>
 VINA RESULT:      -9.3      2.542      3.566
  Name = 
  2 active torsions:
  status: ('A' for Active; 'I' for Inactive)
    1  A    between atoms: C_3  and  C_13
    2  A    between atoms: C_12  and  C_28
                            x       y       z     vdW  Elec       q    Type
                         _______ _______ _______ _____ _____    ______ ____

>  <TORSDO>
F 2

$$$$
