=
 OpenBabel10262421443D

 30 36  0  0  1  0  0  0  0  0999 V2000
  190.0940  177.3180  145.0800 C   0  0  0  0  0  0  0  0  0  0  0  0
  191.1740  176.5390  145.0530 C   0  0  0  0  0  3  0  0  0  0  0  0
  190.1280  178.5270  145.7650 O   0  0  0  0  0  1  0  0  0  0  0  0
  189.2570  176.3790  142.9240 C   0  0  2  0  0  3  0  0  0  0  0  0
  191.1180  175.2140  144.3490 C   0  0  0  0  0  2  0  0  0  0  0  0
  188.8610  176.8670  144.3440 C   0  0  2  0  0  3  0  0  0  0  0  0
  190.3500  175.2820  143.0140 C   0  0  0  0  0  2  0  0  0  0  0  0
  187.8350  177.9040  144.3240 N   0  0  2  0  0  0  0  0  0  0  0  0
  186.6340  177.3450  144.9680 C   0  0  2  0  0  3  0  0  0  0  0  0
  186.7250  177.4090  143.4900 C   0  0  1  0  0  3  0  0  0  0  0  0
  183.5450  178.4700  142.6240 N   0  0  0  0  0  0  0  0  0  0  0  0
  184.6620  178.8420  143.4580 C   0  0  1  0  0  0  0  0  0  0  0  0
  185.6790  178.1910  141.0830 S   0  0  0  0  0  0  0  0  0  0  0  0
  186.0230  178.6000  142.8290 C   0  0  2  0  0  3  0  0  0  0  0  0
  184.4520  180.0680  144.3050 C   0  0  0  0  0  2  0  0  0  0  0  0
  182.9780  177.7000  140.4670 N   0  0  0  0  0  1  0  0  0  0  0  0
  183.9210  178.1310  141.4400 C   0  0  0  0  0  0  0  0  0  0  0  0
  185.8380  178.4790  145.6230 C   0  0  0  0  0  2  0  0  0  0  0  0
  184.4810  178.6800  144.9520 C   0  0  2  0  0  3  0  0  0  0  0  0
  191.8620  177.2830  140.3040 S   0  0  0  0  0  0  0  0  0  0  0  0
  190.2130  177.1700  139.5350 C   0  0  1  0  0  3  0  0  0  0  0  0
  191.1590  177.7020  141.8830 C   0  0  0  0  0  0  0  0  0  0  0  0
  189.1170  177.3120  140.5780 C   0  0  2  0  0  3  0  0  0  0  0  0
  191.7570  178.6290  142.6260 C   0  0  0  0  0  2  0  0  0  0  0  0
  189.4500  178.4760  139.6620 C   0  0  2  0  0  3  0  0  0  0  0  0
  189.6770  177.5370  141.9850 C   0  0  1  0  0  3  0  0  0  0  0  0
  188.4030  178.5550  138.5660 C   0  0  0  0  0  2  0  0  0  0  0  0
  189.0390  178.9650  137.2460 C   0  0  0  0  0  2  0  0  0  0  0  0
  188.8170  177.9120  136.1700 C   0  0  0  0  0  2  0  0  0  0  0  0
  187.7090  176.9610  136.5810 C   0  0  0  0  0  1  0  0  0  0  0  0
  1  3  1  0  0  0  0
  2  1  2  0  0  0  0
  4  7  1  1  0  0  0
  4  6  1  0  0  0  0
  5  2  1  0  0  0  0
  6  1  1  6  0  0  0
  7  5  1  0  0  0  0
  8  6  1  6  0  0  0
  8  9  1  0  0  0  0
  9 18  1  1  0  0  0
 10  8  1  0  0  0  0
 10  9  1  0  0  0  0
 11 12  1  0  0  0  0
 12 15  1  0  0  0  0
 12 19  1  0  0  0  0
 13 17  1  0  0  0  0
 13 14  1  0  0  0  0
 14 12  1  0  0  0  0
 14 10  1  0  0  0  0
 15 19  1  0  0  0  0
 16 17  1  0  0  0  0
 17 11  2  0  0  0  0
 19 18  1  0  0  0  0
 20 22  1  0  0  0  0
 21 25  1  0  0  0  0
 21 20  1  0  0  0  0
 21 23  1  0  0  0  0
 22 26  1  0  0  0  0
 22 24  2  0  0  0  0
 23 26  1  0  0  0  0
 25 23  1  0  0  0  0
 26  4  1  0  0  0  0
 27 25  1  0  0  0  0
 28 27  1  0  0  0  0
 29 30  1  0  0  0  0
 29 28  1  0  0  0  0
M  END
>  <MODEL>
1

>  <REMARK>
 VINA RESULT:      -6.6      0.000      0.000
  Name = 
  5 active torsions:
  status: ('A' for Active; 'I' for Inactive)
    1  A    between atoms: N_1  and  C_22
    2  A    between atoms: C_7  and  C_15
    3  A    between atoms: C_15  and  C_16
    4  A    between atoms: C_16  and  C_25
    5  A    between atoms: C_19  and  C_29
                            x       y       z     vdW  Elec       q    Type
                         _______ _______ _______ _____ _____    ______ ____

>  <TORSDO>
F 5

$$$$
=
 OpenBabel10262421443D

 30 36  0  0  1  0  0  0  0  0999 V2000
  187.6760  176.1700  136.0940 C   0  0  0  0  0  0  0  0  0  0  0  0
  188.7900  176.3990  135.4020 C   0  0  0  0  0  3  0  0  0  0  0  0
  187.0710  174.9190  136.0430 O   0  0  0  0  0  1  0  0  0  0  0  0
  188.2470  177.9350  137.7640 C   0  0  2  0  0  3  0  0  0  0  0  0
  189.4130  177.7650  135.4270 C   0  0  0  0  0  2  0  0  0  0  0  0
  187.1080  177.2810  136.9360 C   0  0  2  0  0  3  0  0  0  0  0  0
  189.3960  178.4010  136.8310 C   0  0  0  0  0  2  0  0  0  0  0  0
  185.9980  176.8190  137.7630 N   0  0  2  0  0  0  0  0  0  0  0  0
  184.8510  176.5920  136.8670 C   0  0  2  0  0  3  0  0  0  0  0  0
  184.9320  177.8320  137.6740 C   0  0  1  0  0  3  0  0  0  0  0  0
  181.6710  178.1760  138.7860 N   0  0  0  0  0  0  0  0  0  0  0  0
  182.7540  177.2230  138.7690 C   0  0  1  0  0  0  0  0  0  0  0  0
  183.8160  179.5600  139.4830 S   0  0  0  0  0  0  0  0  0  0  0  0
  184.1290  177.8330  138.9800 C   0  0  2  0  0  3  0  0  0  0  0  0
  182.4430  175.8840  139.3810 C   0  0  0  0  0  2  0  0  0  0  0  0
  181.1650  180.4480  139.1690 N   0  0  0  0  0  1  0  0  0  0  0  0
  182.0710  179.3530  139.1200 C   0  0  0  0  0  0  0  0  0  0  0  0
  183.9630  175.4880  137.4530 C   0  0  0  0  0  2  0  0  0  0  0  0
  182.5920  176.0210  137.8630 C   0  0  2  0  0  3  0  0  0  0  0  0
  191.2630  177.4240  140.0260 S   0  0  0  0  0  0  0  0  0  0  0  0
  189.8230  177.9490  141.0120 C   0  0  1  0  0  3  0  0  0  0  0  0
  190.2190  176.6980  138.7830 C   0  0  0  0  0  0  0  0  0  0  0  0
  188.5260  177.6810  140.2650 C   0  0  2  0  0  3  0  0  0  0  0  0
  190.5790  175.5380  138.2400 C   0  0  0  0  0  2  0  0  0  0  0  0
  188.9530  176.7660  141.3990 C   0  0  2  0  0  3  0  0  0  0  0  0
  188.7640  177.0210  138.9040 C   0  0  1  0  0  3  0  0  0  0  0  0
  188.1530  177.1160  142.6400 C   0  0  0  0  0  2  0  0  0  0  0  0
  188.9900  176.9080  143.8940 C   0  0  0  0  0  2  0  0  0  0  0  0
  188.2420  177.3510  145.1430 C   0  0  0  0  0  2  0  0  0  0  0  0
  186.7470  177.3680  144.8880 C   0  0  0  0  0  1  0  0  0  0  0  0
  2  5  1  0  0  0  0
  2  1  2  0  0  0  0
  3  1  1  0  0  0  0
  4  7  1  6  0  0  0
  4 26  1  0  0  0  0
  5  7  1  0  0  0  0
  6  1  1  1  0  0  0
  6  4  1  0  0  0  0
  8  6  1  6  0  0  0
  9 18  1  1  0  0  0
  9 10  1  0  0  0  0
  9  8  1  0  0  0  0
 10  8  1  0  0  0  0
 10 14  1  0  0  0  0
 11 17  2  0  0  0  0
 12 11  1  0  0  0  0
 12 14  1  0  0  0  0
 12 15  1  0  0  0  0
 14 13  1  0  0  0  0
 17 16  1  0  0  0  0
 17 13  1  0  0  0  0
 18 19  1  0  0  0  0
 19 12  1  0  0  0  0
 19 15  1  0  0  0  0
 20 21  1  0  0  0  0
 21 25  1  0  0  0  0
 22 26  1  0  0  0  0
 22 20  1  0  0  0  0
 23 21  1  0  0  0  0
 23 25  1  0  0  0  0
 24 22  2  0  0  0  0
 25 27  1  0  0  0  0
 26 23  1  0  0  0  0
 27 28  1  0  0  0  0
 28 29  1  0  0  0  0
 30 29  1  0  0  0  0
M  END
>  <MODEL>
2

>  <REMARK>
 VINA RESULT:      -6.2      3.064      6.447
  Name = 
  5 active torsions:
  status: ('A' for Active; 'I' for Inactive)
    1  A    between atoms: N_1  and  C_22
    2  A    between atoms: C_7  and  C_15
    3  A    between atoms: C_15  and  C_16
    4  A    between atoms: C_16  and  C_25
    5  A    between atoms: C_19  and  C_29
                            x       y       z     vdW  Elec       q    Type
                         _______ _______ _______ _____ _____    ______ ____

>  <TORSDO>
F 5

$$$$
=
 OpenBabel10262421443D

 30 36  0  0  1  0  0  0  0  0999 V2000
  182.2740  178.7000  141.6180 C   0  0  0  0  0  0  0  0  0  0  0  0
  181.0020  179.0720  141.4930 C   0  0  0  0  0  3  0  0  0  0  0  0
  182.7130  178.1140  142.8000 O   0  0  0  0  0  1  0  0  0  0  0  0
  182.5240  178.4160  139.1510 C   0  0  2  0  0  3  0  0  0  0  0  0
  180.5440  179.7440  140.2310 C   0  0  0  0  0  2  0  0  0  0  0  0
  183.2060  178.9120  140.4550 C   0  0  2  0  0  3  0  0  0  0  0  0
  181.1460  179.1040  138.9640 C   0  0  0  0  0  2  0  0  0  0  0  0
  184.5070  178.2950  140.6870 N   0  0  2  0  0  0  0  0  0  0  0  0
  185.4210  179.3590  141.1400 C   0  0  2  0  0  3  0  0  0  0  0  0
  185.4550  178.8970  139.7320 C   0  0  1  0  0  3  0  0  0  0  0  0
  188.8590  178.7460  139.1140 N   0  0  0  0  0  0  0  0  0  0  0  0
  187.8650  178.2550  140.0370 C   0  0  1  0  0  0  0  0  0  0  0  0
  186.8570  177.9150  137.5940 S   0  0  0  0  0  0  0  0  0  0  0  0
  186.5440  177.8720  139.3920 C   0  0  2  0  0  3  0  0  0  0  0  0
  188.3970  177.4200  141.1710 C   0  0  0  0  0  2  0  0  0  0  0  0
  189.2960  179.0860  136.8210 N   0  0  0  0  0  1  0  0  0  0  0  0
  188.4760  178.6330  137.8900 C   0  0  0  0  0  0  0  0  0  0  0  0
  186.4910  178.7500  142.0540 C   0  0  0  0  0  2  0  0  0  0  0  0
  187.8830  178.8390  141.4330 C   0  0  2  0  0  3  0  0  0  0  0  0
  180.7890  175.6480  137.2010 S   0  0  0  0  0  0  0  0  0  0  0  0
  182.5860  175.5980  136.8960 C   0  0  1  0  0  3  0  0  0  0  0  0
  181.0240  176.3960  138.7980 C   0  0  0  0  0  0  0  0  0  0  0  0
  183.3440  176.3190  137.9980 C   0  0  2  0  0  3  0  0  0  0  0  0
  180.2600  175.9980  139.8100 C   0  0  0  0  0  2  0  0  0  0  0  0
  183.3090  174.8020  137.9680 C   0  0  2  0  0  3  0  0  0  0  0  0
  182.4130  176.8720  139.0810 C   0  0  1  0  0  3  0  0  0  0  0  0
  184.6260  174.2910  137.4110 C   0  0  0  0  0  2  0  0  0  0  0  0
  184.7920  172.8070  137.7040 C   0  0  0  0  0  2  0  0  0  0  0  0
  184.2990  171.9520  136.5460 C   0  0  0  0  0  2  0  0  0  0  0  0
  183.0220  171.2280  136.9260 C   0  0  0  0  0  1  0  0  0  0  0  0
  1  3  1  0  0  0  0
  2  1  2  0  0  0  0
  4  7  1  1  0  0  0
  4  6  1  0  0  0  0
  5  2  1  0  0  0  0
  6  1  1  1  0  0  0
  7  5  1  0  0  0  0
  8  6  1  6  0  0  0
  8  9  1  0  0  0  0
  9 18  1  1  0  0  0
 10  8  1  0  0  0  0
 10  9  1  0  0  0  0
 11 12  1  0  0  0  0
 12 15  1  0  0  0  0
 12 19  1  0  0  0  0
 13 17  1  0  0  0  0
 13 14  1  0  0  0  0
 14 10  1  0  0  0  0
 14 12  1  0  0  0  0
 15 19  1  0  0  0  0
 16 17  1  0  0  0  0
 17 11  2  0  0  0  0
 19 18  1  0  0  0  0
 20 22  1  0  0  0  0
 21 20  1  0  0  0  0
 21 25  1  0  0  0  0
 21 23  1  0  0  0  0
 22 26  1  0  0  0  0
 22 24  2  0  0  0  0
 23 26  1  0  0  0  0
 25 23  1  0  0  0  0
 26  4  1  0  0  0  0
 27 28  1  0  0  0  0
 27 25  1  0  0  0  0
 29 30  1  0  0  0  0
 29 28  1  0  0  0  0
M  END
>  <MODEL>
3

>  <REMARK>
 VINA RESULT:      -5.9      4.231      7.687
  Name = 
  5 active torsions:
  status: ('A' for Active; 'I' for Inactive)
    1  A    between atoms: N_1  and  C_22
    2  A    between atoms: C_7  and  C_15
    3  A    between atoms: C_15  and  C_16
    4  A    between atoms: C_16  and  C_25
    5  A    between atoms: C_19  and  C_29
                            x       y       z     vdW  Elec       q    Type
                         _______ _______ _______ _____ _____    ______ ____

>  <TORSDO>
F 5

$$$$
=
 OpenBabel10262421443D

 30 36  0  0  1  0  0  0  0  0999 V2000
  190.5220  176.4120  143.0010 C   0  0  0  0  0  0  0  0  0  0  0  0
  190.7660  176.9510  144.1930 C   0  0  0  0  0  3  0  0  0  0  0  0
  190.5560  175.0310  142.8440 O   0  0  0  0  0  1  0  0  0  0  0  0
  189.1400  178.3690  142.3020 C   0  0  2  0  0  3  0  0  0  0  0  0
  190.7720  178.4450  144.3460 C   0  0  0  0  0  2  0  0  0  0  0  0
  190.1950  177.3240  141.8490 C   0  0  2  0  0  3  0  0  0  0  0  0
  189.6340  179.1280  143.5610 C   0  0  0  0  0  2  0  0  0  0  0  0
  189.7830  176.5750  140.6670 N   0  0  2  0  0  0  0  0  0  0  0  0
  190.7630  176.8610  139.6040 C   0  0  2  0  0  3  0  0  0  0  0  0
  189.4550  177.5560  139.6170 C   0  0  1  0  0  3  0  0  0  0  0  0
  188.5710  177.4760  136.2700 N   0  0  0  0  0  0  0  0  0  0  0  0
  188.9620  176.5980  137.3470 C   0  0  1  0  0  0  0  0  0  0  0  0
  187.1290  178.2530  138.3490 S   0  0  0  0  0  0  0  0  0  0  0  0
  188.3770  176.9670  138.6990 C   0  0  2  0  0  3  0  0  0  0  0  0
  189.0980  175.1460  136.9760 C   0  0  0  0  0  2  0  0  0  0  0  0
  187.1800  179.3060  135.7400 N   0  0  0  0  0  1  0  0  0  0  0  0
  187.6810  178.3280  136.6420 C   0  0  0  0  0  0  0  0  0  0  0  0
  190.8530  175.6540  138.6630 C   0  0  0  0  0  2  0  0  0  0  0  0
  190.3450  175.9890  137.2630 C   0  0  2  0  0  3  0  0  0  0  0  0
  186.0890  178.6320  144.5590 S   0  0  0  0  0  0  0  0  0  0  0  0
  185.6670  179.1750  142.8710 C   0  0  1  0  0  3  0  0  0  0  0  0
  187.3840  177.5730  143.9560 C   0  0  0  0  0  0  0  0  0  0  0  0
  186.6630  178.6280  141.8600 C   0  0  2  0  0  3  0  0  0  0  0  0
  187.5470  176.3780  144.5160 C   0  0  0  0  0  2  0  0  0  0  0  0
  185.2870  177.9990  141.9880 C   0  0  2  0  0  3  0  0  0  0  0  0
  187.7340  177.7510  142.5140 C   0  0  1  0  0  3  0  0  0  0  0  0
  184.4140  178.4890  140.8470 C   0  0  0  0  0  2  0  0  0  0  0  0
  182.9540  178.5380  141.2730 C   0  0  0  0  0  2  0  0  0  0  0  0
  182.0530  177.8580  140.2520 C   0  0  0  0  0  2  0  0  0  0  0  0
  182.6580  176.5400  139.8050 C   0  0  0  0  0  1  0  0  0  0  0  0
  1  2  2  0  0  0  0
  2  5  1  0  0  0  0
  3  1  1  0  0  0  0
  4 26  1  0  0  0  0
  4  7  1  1  0  0  0
  6  4  1  0  0  0  0
  6  1  1  1  0  0  0
  7  5  1  0  0  0  0
  8  6  1  1  0  0  0
  9 18  1  6  0  0  0
  9 10  1  0  0  0  0
  9  8  1  0  0  0  0
 10  8  1  0  0  0  0
 11 17  2  0  0  0  0
 11 12  1  0  0  0  0
 12 14  1  0  0  0  0
 13 14  1  0  0  0  0
 14 10  1  0  0  0  0
 15 19  1  0  0  0  0
 15 12  1  0  0  0  0
 16 17  1  0  0  0  0
 17 13  1  0  0  0  0
 19 12  1  0  0  0  0
 19 18  1  0  0  0  0
 21 20  1  0  0  0  0
 22 24  2  0  0  0  0
 22 20  1  0  0  0  0
 23 25  1  0  0  0  0
 23 26  1  0  0  0  0
 23 21  1  0  0  0  0
 25 21  1  0  0  0  0
 26 22  1  0  0  0  0
 27 28  1  0  0  0  0
 27 25  1  0  0  0  0
 29 28  1  0  0  0  0
 30 29  1  0  0  0  0
M  END
>  <MODEL>
4

>  <REMARK>
 VINA RESULT:      -5.9      2.669      5.834
  Name = 
  5 active torsions:
  status: ('A' for Active; 'I' for Inactive)
    1  A    between atoms: N_1  and  C_22
    2  A    between atoms: C_7  and  C_15
    3  A    between atoms: C_15  and  C_16
    4  A    between atoms: C_16  and  C_25
    5  A    between atoms: C_19  and  C_29
                            x       y       z     vdW  Elec       q    Type
                         _______ _______ _______ _____ _____    ______ ____

>  <TORSDO>
F 5

$$$$
=
 OpenBabel10262421443D

 30 36  0  0  1  0  0  0  0  0999 V2000
  180.1660  179.0030  143.3950 C   0  0  0  0  0  0  0  0  0  0  0  0
  179.0290  179.5470  142.9670 C   0  0  0  0  0  3  0  0  0  0  0  0
  180.1460  178.0840  144.4380 O   0  0  0  0  0  1  0  0  0  0  0  0
  181.2610  179.3340  141.1770 C   0  0  2  0  0  3  0  0  0  0  0  0
  179.0610  180.5710  141.8690 C   0  0  0  0  0  2  0  0  0  0  0  0
  181.4520  179.3910  142.7170 C   0  0  2  0  0  3  0  0  0  0  0  0
  180.0550  180.2090  140.7470 C   0  0  0  0  0  2  0  0  0  0  0  0
  182.5740  178.5820  143.1810 N   0  0  2  0  0  0  0  0  0  0  0  0
  183.4490  179.4620  143.9740 C   0  0  2  0  0  3  0  0  0  0  0  0
  183.7970  179.1340  142.5720 C   0  0  1  0  0  3  0  0  0  0  0  0
  187.2060  178.5730  142.7930 N   0  0  0  0  0  0  0  0  0  0  0  0
  185.9600  178.1390  143.3750 C   0  0  1  0  0  0  0  0  0  0  0  0
  185.5880  178.1730  140.7370 S   0  0  0  0  0  0  0  0  0  0  0  0
  184.8170  178.0050  142.3830 C   0  0  2  0  0  3  0  0  0  0  0  0
  186.0850  177.1370  144.4910 C   0  0  0  0  0  2  0  0  0  0  0  0
  188.2580  179.0630  140.7390 N   0  0  0  0  0  1  0  0  0  0  0  0
  187.1440  178.6290  141.5080 C   0  0  0  0  0  0  0  0  0  0  0  0
  184.1720  178.6290  145.0390 C   0  0  0  0  0  2  0  0  0  0  0  0
  185.6790  178.5820  144.7950 C   0  0  2  0  0  3  0  0  0  0  0  0
  179.6280  177.3220  138.3910 S   0  0  0  0  0  0  0  0  0  0  0  0
  181.4390  177.3210  138.1850 C   0  0  1  0  0  3  0  0  0  0  0  0
  179.7710  177.5510  140.1490 C   0  0  0  0  0  0  0  0  0  0  0  0
  182.1350  177.6600  139.4940 C   0  0  2  0  0  3  0  0  0  0  0  0
  178.9440  176.8870  140.9510 C   0  0  0  0  0  2  0  0  0  0  0  0
  182.0910  176.2220  139.0060 C   0  0  2  0  0  3  0  0  0  0  0  0
  181.1430  177.8850  140.6390 C   0  0  1  0  0  3  0  0  0  0  0  0
  183.4350  175.8700  138.3960 C   0  0  0  0  0  2  0  0  0  0  0  0
  183.9540  177.0180  137.5430 C   0  0  0  0  0  2  0  0  0  0  0  0
  185.3020  176.6850  136.9210 C   0  0  0  0  0  2  0  0  0  0  0  0
  186.2410  177.8720  137.0190 C   0  0  0  0  0  1  0  0  0  0  0  0
  1  3  1  0  0  0  0
  2  1  2  0  0  0  0
  4  7  1  1  0  0  0
  4  6  1  0  0  0  0
  5  2  1  0  0  0  0
  6  1  1  1  0  0  0
  7  5  1  0  0  0  0
  8  6  1  6  0  0  0
  8  9  1  0  0  0  0
  9 18  1  1  0  0  0
 10  8  1  0  0  0  0
 10  9  1  0  0  0  0
 11 12  1  0  0  0  0
 12 15  1  0  0  0  0
 12 19  1  0  0  0  0
 13 17  1  0  0  0  0
 13 14  1  0  0  0  0
 14 10  1  0  0  0  0
 14 12  1  0  0  0  0
 15 19  1  0  0  0  0
 16 17  1  0  0  0  0
 17 11  2  0  0  0  0
 19 18  1  0  0  0  0
 20 22  1  0  0  0  0
 21 20  1  0  0  0  0
 21 25  1  0  0  0  0
 21 23  1  0  0  0  0
 22 26  1  0  0  0  0
 22 24  2  0  0  0  0
 23 26  1  0  0  0  0
 25 23  1  0  0  0  0
 26  4  1  0  0  0  0
 27 25  1  0  0  0  0
 28 27  1  0  0  0  0
 29 30  1  0  0  0  0
 29 28  1  0  0  0  0
M  END
>  <MODEL>
5

>  <REMARK>
 VINA RESULT:      -5.7      3.741      7.642
  Name = 
  5 active torsions:
  status: ('A' for Active; 'I' for Inactive)
    1  A    between atoms: N_1  and  C_22
    2  A    between atoms: C_7  and  C_15
    3  A    between atoms: C_15  and  C_16
    4  A    between atoms: C_16  and  C_25
    5  A    between atoms: C_19  and  C_29
                            x       y       z     vdW  Elec       q    Type
                         _______ _______ _______ _____ _____    ______ ____

>  <TORSDO>
F 5

$$$$
=
 OpenBabel10262421443D

 30 36  0  0  1  0  0  0  0  0999 V2000
  191.1350  176.8280  145.3580 C   0  0  0  0  0  0  0  0  0  0  0  0
  192.0010  175.9790  144.8090 C   0  0  0  0  0  3  0  0  0  0  0  0
  191.5990  177.9340  146.0620 O   0  0  0  0  0  1  0  0  0  0  0  0
  189.3700  176.2410  143.6940 C   0  0  2  0  0  3  0  0  0  0  0  0
  191.4940  174.7640  144.0870 C   0  0  0  0  0  2  0  0  0  0  0  0
  189.6620  176.5720  145.1820 C   0  0  2  0  0  3  0  0  0  0  0  0
  190.2570  175.0610  143.2160 C   0  0  0  0  0  2  0  0  0  0  0  0
  188.8580  177.6790  145.6880 N   0  0  2  0  0  0  0  0  0  0  0  0
  187.9520  177.1290  146.7110 C   0  0  2  0  0  3  0  0  0  0  0  0
  187.4530  177.3960  145.3410 C   0  0  1  0  0  3  0  0  0  0  0  0
  184.3580  178.8150  145.9700 N   0  0  0  0  0  0  0  0  0  0  0  0
  185.7530  178.9760  146.3020 C   0  0  1  0  0  0  0  0  0  0  0  0
  185.6450  178.5920  143.6680 S   0  0  0  0  0  0  0  0  0  0  0  0
  186.7070  178.7210  145.1480 C   0  0  2  0  0  3  0  0  0  0  0  0
  186.0590  180.0820  147.2760 C   0  0  0  0  0  2  0  0  0  0  0  0
  182.8840  178.4070  144.1750 N   0  0  0  0  0  1  0  0  0  0  0  0
  184.1840  178.6200  144.7100 C   0  0  0  0  0  0  0  0  0  0  0  0
  187.6370  178.2180  147.7440 C   0  0  0  0  0  2  0  0  0  0  0  0
  186.1640  178.6180  147.7140 C   0  0  2  0  0  3  0  0  0  0  0  0
  191.2060  177.4350  140.5830 S   0  0  0  0  0  0  0  0  0  0  0  0
  189.4220  177.2870  140.2390 C   0  0  1  0  0  3  0  0  0  0  0  0
  190.9070  177.7200  142.3120 C   0  0  0  0  0  0  0  0  0  0  0  0
  188.6170  177.3090  141.5280 C   0  0  2  0  0  3  0  0  0  0  0  0
  191.6410  178.6280  142.9490 C   0  0  0  0  0  2  0  0  0  0  0  0
  188.6710  178.5440  140.6460 C   0  0  2  0  0  3  0  0  0  0  0  0
  189.5040  177.4750  142.7660 C   0  0  1  0  0  3  0  0  0  0  0  0
  187.3810  178.6370  139.8510 C   0  0  0  0  0  2  0  0  0  0  0  0
  187.4990  177.8630  138.5460 C   0  0  0  0  0  2  0  0  0  0  0  0
  186.3620  178.2030  137.5940 C   0  0  0  0  0  2  0  0  0  0  0  0
  185.0400  178.2410  138.3370 C   0  0  0  0  0  1  0  0  0  0  0  0
  1  3  1  0  0  0  0
  2  1  2  0  0  0  0
  4  7  1  6  0  0  0
  4  6  1  0  0  0  0
  5  2  1  0  0  0  0
  6  1  1  6  0  0  0
  7  5  1  0  0  0  0
  8  6  1  6  0  0  0
  8  9  1  0  0  0  0
  9 18  1  1  0  0  0
 10  8  1  0  0  0  0
 10  9  1  0  0  0  0
 11 12  1  0  0  0  0
 12 15  1  0  0  0  0
 12 19  1  0  0  0  0
 13 17  1  0  0  0  0
 13 14  1  0  0  0  0
 14 10  1  0  0  0  0
 14 12  1  0  0  0  0
 15 19  1  0  0  0  0
 16 17  1  0  0  0  0
 17 11  2  0  0  0  0
 19 18  1  0  0  0  0
 20 22  1  0  0  0  0
 21 20  1  0  0  0  0
 21 25  1  0  0  0  0
 21 23  1  0  0  0  0
 22 26  1  0  0  0  0
 22 24  2  0  0  0  0
 23 26  1  0  0  0  0
 25 23  1  0  0  0  0
 26  4  1  0  0  0  0
 27 25  1  0  0  0  0
 28 27  1  0  0  0  0
 29 30  1  0  0  0  0
 29 28  1  0  0  0  0
M  END
>  <MODEL>
6

>  <REMARK>
 VINA RESULT:      -5.7      1.653      2.173
  Name = 
  5 active torsions:
  status: ('A' for Active; 'I' for Inactive)
    1  A    between atoms: N_1  and  C_22
    2  A    between atoms: C_7  and  C_15
    3  A    between atoms: C_15  and  C_16
    4  A    between atoms: C_16  and  C_25
    5  A    between atoms: C_19  and  C_29
                            x       y       z     vdW  Elec       q    Type
                         _______ _______ _______ _____ _____    ______ ____

>  <TORSDO>
F 5

$$$$
=
 OpenBabel10262421443D

 30 36  0  0  1  0  0  0  0  0999 V2000
  182.4490  178.7970  140.6090 C   0  0  0  0  0  0  0  0  0  0  0  0
  181.7370  179.3860  139.6500 C   0  0  0  0  0  3  0  0  0  0  0  0
  181.8620  177.8270  141.4130 O   0  0  0  0  0  1  0  0  0  0  0  0
  184.5900  179.2180  139.3960 C   0  0  2  0  0  3  0  0  0  0  0  0
  182.3640  180.4650  138.8140 C   0  0  0  0  0  2  0  0  0  0  0  0
  183.8910  179.1920  140.7830 C   0  0  2  0  0  3  0  0  0  0  0  0
  183.8180  180.1400  138.4170 C   0  0  0  0  0  2  0  0  0  0  0  0
  184.5720  178.3360  141.7480 N   0  0  2  0  0  0  0  0  0  0  0  0
  184.9040  179.1720  142.9150 C   0  0  2  0  0  3  0  0  0  0  0  0
  185.9420  178.8570  141.9070 C   0  0  1  0  0  3  0  0  0  0  0  0
  188.6900  178.1740  143.9000 N   0  0  0  0  0  0  0  0  0  0  0  0
  187.3170  177.7730  143.7090 C   0  0  1  0  0  0  0  0  0  0  0  0
  188.4190  177.8670  141.2850 S   0  0  0  0  0  0  0  0  0  0  0  0
  186.8820  177.6970  142.2560 C   0  0  2  0  0  3  0  0  0  0  0  0
  186.8060  176.7470  144.6840 C   0  0  0  0  0  2  0  0  0  0  0  0
  190.6880  178.6650  142.7450 N   0  0  0  0  0  1  0  0  0  0  0  0
  189.3270  178.2550  142.7840 C   0  0  0  0  0  0  0  0  0  0  0  0
  184.9270  178.2950  144.1730 C   0  0  0  0  0  2  0  0  0  0  0  0
  186.3280  178.2000  144.7720 C   0  0  2  0  0  3  0  0  0  0  0  0
  184.3220  177.2880  136.1290 S   0  0  0  0  0  0  0  0  0  0  0  0
  186.0680  177.4130  136.6410 C   0  0  1  0  0  3  0  0  0  0  0  0
  183.7610  177.4130  137.8120 C   0  0  0  0  0  0  0  0  0  0  0  0
  186.1770  177.7110  138.1280 C   0  0  2  0  0  3  0  0  0  0  0  0
  182.7470  176.6500  138.2080 C   0  0  0  0  0  2  0  0  0  0  0  0
  186.4420  176.3080  137.6130 C   0  0  2  0  0  3  0  0  0  0  0  0
  184.8070  177.8010  138.8060 C   0  0  1  0  0  3  0  0  0  0  0  0
  187.9420  176.0790  137.5600 C   0  0  0  0  0  2  0  0  0  0  0  0
  188.6300  177.2110  136.8100 C   0  0  0  0  0  2  0  0  0  0  0  0
  189.7920  177.7820  137.6100 C   0  0  0  0  0  2  0  0  0  0  0  0
  190.5620  176.6690  138.2940 C   0  0  0  0  0  1  0  0  0  0  0  0
  1  3  1  0  0  0  0
  2  1  2  0  0  0  0
  4  7  1  6  0  0  0
  4  6  1  0  0  0  0
  5  2  1  0  0  0  0
  6  1  1  6  0  0  0
  7  5  1  0  0  0  0
  8  6  1  6  0  0  0
  8 10  1  0  0  0  0
  8  9  1  0  0  0  0
  9 18  1  1  0  0  0
 10 14  1  0  0  0  0
 10  9  1  0  0  0  0
 12 11  1  0  0  0  0
 12 15  1  0  0  0  0
 12 19  1  0  0  0  0
 13 14  1  0  0  0  0
 13 17  1  0  0  0  0
 14 12  1  0  0  0  0
 15 19  1  0  0  0  0
 16 17  1  0  0  0  0
 17 11  2  0  0  0  0
 18 19  1  0  0  0  0
 20 21  1  0  0  0  0
 20 22  1  0  0  0  0
 21 25  1  0  0  0  0
 21 23  1  0  0  0  0
 22 24  2  0  0  0  0
 22 26  1  0  0  0  0
 23 26  1  0  0  0  0
 25 23  1  0  0  0  0
 26  4  1  0  0  0  0
 27 25  1  0  0  0  0
 28 27  1  0  0  0  0
 28 29  1  0  0  0  0
 29 30  1  0  0  0  0
M  END
>  <MODEL>
7

>  <REMARK>
 VINA RESULT:      -5.4      2.860      6.242
  Name = 
  5 active torsions:
  status: ('A' for Active; 'I' for Inactive)
    1  A    between atoms: N_1  and  C_22
    2  A    between atoms: C_7  and  C_15
    3  A    between atoms: C_15  and  C_16
    4  A    between atoms: C_16  and  C_25
    5  A    between atoms: C_19  and  C_29
                            x       y       z     vdW  Elec       q    Type
                         _______ _______ _______ _____ _____    ______ ____

>  <TORSDO>
F 5

$$$$
=
 OpenBabel10262421443D

 30 36  0  0  1  0  0  0  0  0999 V2000
  188.3830  176.0460  137.4960 C   0  0  0  0  0  0  0  0  0  0  0  0
  189.7000  176.2150  137.4130 C   0  0  0  0  0  3  0  0  0  0  0  0
  187.8400  174.7680  137.4240 O   0  0  0  0  0  1  0  0  0  0  0  0
  188.1090  178.1540  138.8060 C   0  0  2  0  0  3  0  0  0  0  0  0
  190.2760  177.6020  137.4470 C   0  0  0  0  0  2  0  0  0  0  0  0
  187.5100  177.2590  137.6870 C   0  0  2  0  0  3  0  0  0  0  0  0
  189.5850  178.5070  138.4860 C   0  0  0  0  0  2  0  0  0  0  0  0
  186.1210  176.8900  137.9350 N   0  0  2  0  0  0  0  0  0  0  0  0
  185.3880  177.0700  136.6700 C   0  0  2  0  0  3  0  0  0  0  0  0
  185.3020  178.0990  137.7320 C   0  0  1  0  0  3  0  0  0  0  0  0
  181.9320  178.8920  137.6890 N   0  0  0  0  0  0  0  0  0  0  0  0
  182.8150  177.7580  137.8170 C   0  0  1  0  0  0  0  0  0  0  0  0
  183.7960  179.6580  139.4060 S   0  0  0  0  0  0  0  0  0  0  0  0
  184.0660  178.0250  138.6360 C   0  0  2  0  0  3  0  0  0  0  0  0
  182.1320  176.4220  137.9340 C   0  0  0  0  0  2  0  0  0  0  0  0
  181.5980  181.1110  138.4170 N   0  0  0  0  0  1  0  0  0  0  0  0
  182.3130  179.8820  138.4190 C   0  0  0  0  0  0  0  0  0  0  0  0
  184.2160  176.0830  136.6200 C   0  0  0  0  0  2  0  0  0  0  0  0
  182.8690  176.8010  136.6450 C   0  0  2  0  0  3  0  0  0  0  0  0
  189.3270  178.5800  142.3840 S   0  0  0  0  0  0  0  0  0  0  0  0
  187.5450  178.9470  142.2820 C   0  0  1  0  0  3  0  0  0  0  0  0
  189.2410  177.4900  140.9810 C   0  0  0  0  0  0  0  0  0  0  0  0
  186.9320  178.3230  141.0380 C   0  0  2  0  0  3  0  0  0  0  0  0
  189.9390  176.3590  141.0040 C   0  0  0  0  0  2  0  0  0  0  0  0
  186.7090  177.6840  142.3970 C   0  0  2  0  0  3  0  0  0  0  0  0
  187.9570  177.5340  140.2180 C   0  0  1  0  0  3  0  0  0  0  0  0
  185.3190  178.0440  142.8880 C   0  0  0  0  0  2  0  0  0  0  0  0
  185.4000  178.9460  144.1120 C   0  0  0  0  0  2  0  0  0  0  0  0
  184.0960  179.6970  144.3370 C   0  0  0  0  0  2  0  0  0  0  0  0
  182.9750  178.7280  144.6610 C   0  0  0  0  0  1  0  0  0  0  0  0
  2  5  1  0  0  0  0
  2  1  2  0  0  0  0
  3  1  1  0  0  0  0
  4  7  1  6  0  0  0
  4 26  1  0  0  0  0
  5  7  1  0  0  0  0
  6  1  1  1  0  0  0
  6  4  1  0  0  0  0
  8  6  1  6  0  0  0
  9 18  1  1  0  0  0
  9 10  1  0  0  0  0
  9  8  1  0  0  0  0
 10  8  1  0  0  0  0
 10 14  1  0  0  0  0
 11 12  1  0  0  0  0
 11 17  2  0  0  0  0
 12 15  1  0  0  0  0
 12 14  1  0  0  0  0
 14 13  1  0  0  0  0
 16 17  1  0  0  0  0
 17 13  1  0  0  0  0
 18 19  1  0  0  0  0
 19 12  1  0  0  0  0
 19 15  1  0  0  0  0
 21 20  1  0  0  0  0
 21 25  1  0  0  0  0
 22 24  2  0  0  0  0
 22 20  1  0  0  0  0
 23 21  1  0  0  0  0
 23 25  1  0  0  0  0
 25 27  1  0  0  0  0
 26 22  1  0  0  0  0
 26 23  1  0  0  0  0
 27 28  1  0  0  0  0
 28 29  1  0  0  0  0
 29 30  1  0  0  0  0
M  END
>  <MODEL>
8

>  <REMARK>
 VINA RESULT:      -5.4      3.181      6.355
  Name = 
  5 active torsions:
  status: ('A' for Active; 'I' for Inactive)
    1  A    between atoms: N_1  and  C_22
    2  A    between atoms: C_7  and  C_15
    3  A    between atoms: C_15  and  C_16
    4  A    between atoms: C_16  and  C_25
    5  A    between atoms: C_19  and  C_29
                            x       y       z     vdW  Elec       q    Type
                         _______ _______ _______ _____ _____    ______ ____

>  <TORSDO>
F 5

$$$$
=
 OpenBabel10262421443D

 30 36  0  0  1  0  0  0  0  0999 V2000
  191.0050  177.0840  142.3320 C   0  0  0  0  0  0  0  0  0  0  0  0
  191.8800  177.4450  143.2680 C   0  0  0  0  0  3  0  0  0  0  0  0
  191.0660  175.8110  141.7780 O   0  0  0  0  0  1  0  0  0  0  0  0
  189.3060  178.7090  143.1710 C   0  0  2  0  0  3  0  0  0  0  0  0
  191.8360  178.8360  143.8310 C   0  0  0  0  0  2  0  0  0  0  0  0
  189.9510  178.0730  141.9100 C   0  0  2  0  0  3  0  0  0  0  0  0
  190.3970  179.3310  144.0830 C   0  0  0  0  0  2  0  0  0  0  0  0
  188.9710  177.4680  141.0140 N   0  0  2  0  0  0  0  0  0  0  0  0
  189.1680  178.0670  139.6830 C   0  0  2  0  0  3  0  0  0  0  0  0
  188.0710  178.5420  140.5580 C   0  0  1  0  0  3  0  0  0  0  0  0
  185.4540  178.8640  138.3130 N   0  0  0  0  0  0  0  0  0  0  0  0
  186.4170  177.8960  138.7800 C   0  0  1  0  0  0  0  0  0  0  0  0
  185.4120  179.0680  140.9520 S   0  0  0  0  0  0  0  0  0  0  0  0
  186.6860  177.9490  140.2740 C   0  0  2  0  0  3  0  0  0  0  0  0
  186.3730  176.5600  138.0880 C   0  0  0  0  0  2  0  0  0  0  0  0
  183.9410  180.5200  139.0430 N   0  0  0  0  0  1  0  0  0  0  0  0
  184.9000  179.4990  139.2860 C   0  0  0  0  0  0  0  0  0  0  0  0
  188.7550  177.0550  138.6080 C   0  0  0  0  0  2  0  0  0  0  0  0
  187.5320  177.5270  137.8250 C   0  0  2  0  0  3  0  0  0  0  0  0
  188.2630  177.7900  146.7120 S   0  0  0  0  0  0  0  0  0  0  0  0
  186.8430  178.4780  145.7990 C   0  0  1  0  0  3  0  0  0  0  0  0
  189.0240  177.2190  145.2100 C   0  0  0  0  0  0  0  0  0  0  0  0
  187.0660  178.3860  144.2980 C   0  0  2  0  0  3  0  0  0  0  0  0
  189.6230  176.0320  145.2050 C   0  0  0  0  0  2  0  0  0  0  0  0
  186.1310  177.4080  144.9890 C   0  0  2  0  0  3  0  0  0  0  0  0
  188.4000  177.7210  143.9480 C   0  0  1  0  0  3  0  0  0  0  0  0
  184.6970  177.8380  144.7390 C   0  0  0  0  0  2  0  0  0  0  0  0
  184.6020  179.3540  144.6410 C   0  0  0  0  0  2  0  0  0  0  0  0
  183.2590  179.7910  144.0750 C   0  0  0  0  0  2  0  0  0  0  0  0
  182.3700  178.5870  143.8290 C   0  0  0  0  0  1  0  0  0  0  0  0
  1  2  2  0  0  0  0
  2  5  1  0  0  0  0
  3  1  1  0  0  0  0
  4 26  1  0  0  0  0
  4  7  1  1  0  0  0
  5  7  1  0  0  0  0
  6  1  1  1  0  0  0
  6  4  1  0  0  0  0
  8  6  1  1  0  0  0
  9 18  1  6  0  0  0
  9 10  1  0  0  0  0
  9  8  1  0  0  0  0
 10  8  1  0  0  0  0
 11 12  1  0  0  0  0
 11 17  2  0  0  0  0
 12 14  1  0  0  0  0
 14 10  1  0  0  0  0
 14 13  1  0  0  0  0
 15 12  1  0  0  0  0
 16 17  1  0  0  0  0
 17 13  1  0  0  0  0
 19 15  1  0  0  0  0
 19 18  1  0  0  0  0
 19 12  1  0  0  0  0
 21 20  1  0  0  0  0
 22 20  1  0  0  0  0
 23 25  1  0  0  0  0
 23 21  1  0  0  0  0
 24 22  2  0  0  0  0
 25 21  1  0  0  0  0
 26 23  1  0  0  0  0
 26 22  1  0  0  0  0
 27 25  1  0  0  0  0
 28 27  1  0  0  0  0
 29 28  1  0  0  0  0
 30 29  1  0  0  0  0
M  END
>  <MODEL>
9

>  <REMARK>
 VINA RESULT:      -5.2      2.329      5.494
  Name = 
  5 active torsions:
  status: ('A' for Active; 'I' for Inactive)
    1  A    between atoms: N_1  and  C_22
    2  A    between atoms: C_7  and  C_15
    3  A    between atoms: C_15  and  C_16
    4  A    between atoms: C_16  and  C_25
    5  A    between atoms: C_19  and  C_29
                            x       y       z     vdW  Elec       q    Type
                         _______ _______ _______ _____ _____    ______ ____

>  <TORSDO>
F 5

$$$$
