=
 OpenBabel10262423033D

 37 41  0  0  1  0  0  0  0  0999 V2000
  181.7070  178.6970  136.0910 C   0  0  0  0  0  2  0  0  0  0  0  0
  185.4170  178.2070  138.6380 C   0  0  2  0  0  3  0  0  0  0  0  0
  180.4380  179.5190  135.9520 C   0  0  2  0  0  3  0  0  0  0  0  0
  182.1320  178.0290  140.8840 C   0  0  0  0  0  2  0  0  0  0  0  0
  183.9760  178.3620  139.1500 C   0  0  2  0  0  3  0  0  0  0  0  0
  185.3910  177.1190  137.5850 C   0  0  1  0  0  3  0  0  0  0  0  0
  183.6120  177.7770  140.5430 C   0  0  1  0  0  3  0  0  0  0  0  0
  180.0330  179.9330  137.3600 C   0  0  0  0  0  2  0  0  0  0  0  0
  183.9790  177.1490  137.0170 C   0  0  2  0  0  3  0  0  0  0  0  0
  186.6380  179.1400  140.6550 C   0  0  0  0  0  2  0  0  0  0  0  0
  180.8940  179.1230  138.3280 C   0  0  2  0  0  0  0  0  0  0  0  0
  181.7230  179.4640  140.7080 C   0  0  0  0  0  3  0  0  0  0  0  0
  186.4970  177.9610  139.6880 C   0  0  0  0  0  2  0  0  0  0  0  0
  183.0710  177.7820  138.0700 C   0  0  2  0  0  3  0  0  0  0  0  0
  184.5730  178.1630  141.7030 C   0  0  1  0  0  3  0  0  0  0  0  0
  181.1800  179.9410  139.5760 C   0  0  0  0  0  3  0  0  0  0  0  0
  182.1750  178.9040  137.5210 C   0  0  1  0  0  3  0  0  0  0  0  0
  185.3580  179.4410  141.4390 C   0  0  0  0  0  2  0  0  0  0  0  0
  180.2900  177.8660  138.6160 O   0  0  0  0  0  0  0  0  0  0  0  0
  178.9320  178.0440  138.9430 C   0  0  0  0  0  1  0  0  0  0  0  0
  179.8390  177.2830  135.0260 C   0  0  0  0  0  1  0  0  0  0  0  0
  179.3340  178.6800  135.3300 C   0  0  0  0  0  2  0  0  0  0  0  0
  183.4550  175.7650  136.6170 C   0  0  1  0  0  3  0  0  0  0  0  0
  183.9180  175.3970  135.2170 C   0  0  0  0  0  1  0  0  0  0  0  0
  183.8390  174.6800  137.6220 C   0  0  0  0  0  2  0  0  0  0  0  0
  183.6330  173.2930  137.0360 C   0  0  0  0  0  2  0  0  0  0  0  0
  184.7660  172.5070  137.2490 O   0  0  0  0  0  1  0  0  0  0  0  0
  183.9600  178.1720  143.1020 C   0  0  0  0  0  2  0  0  0  0  0  0
  186.0570  177.7240  144.3530 C   0  0  0  0  0  2  0  0  0  0  0  0
  184.2740  178.9070  145.4730 C   0  0  0  0  0  2  0  0  0  0  0  0
  185.6090  179.4950  147.3590 O   0  0  0  0  0  1  0  0  0  0  0  0
  186.4970  177.9540  145.7800 C   0  0  0  0  0  2  0  0  0  0  0  0
  185.2660  178.4340  146.5220 C   0  0  2  0  0  3  0  0  0  0  0  0
  184.9430  178.7180  144.1250 C   0  0  2  0  0  3  0  0  0  0  0  0
  186.3910  177.4210  136.4790 C   0  0  0  0  0  2  0  0  0  0  0  0
  187.6660  176.6280  136.6840 C   0  0  0  0  0  2  0  0  0  0  0  0
  187.3270  175.1630  136.8540 C   0  0  0  0  0  1  0  0  0  0  0  0
  1 17  1  0  0  0  0
  2  5  1  0  0  0  0
  2 13  1  1  0  0  0
  3 22  1  1  0  0  0
  3  1  1  0  0  0  0
  3  8  1  0  0  0  0
  5  7  1  0  0  0  0
  6  2  1  0  0  0  0
  7  4  1  0  0  0  0
  7 15  1  0  0  0  0
  8 11  1  0  0  0  0
  9  6  1  0  0  0  0
  9 14  1  0  0  0  0
 10 18  1  0  0  0  0
 11 19  1  0  0  0  0
 11 16  1  0  0  0  0
 12  4  1  0  0  0  0
 13 10  1  0  0  0  0
 14  5  1  0  0  0  0
 15 28  1  0  0  0  0
 16 12  2  0  0  0  0
 17 14  1  0  0  0  0
 17 11  1  0  0  0  0
 18 15  1  0  0  0  0
 19 20  1  0  0  0  0
 21 22  1  0  0  0  0
 23  9  1  0  0  0  0
 23 25  1  0  0  0  0
 24 23  1  0  0  0  0
 26 27  1  0  0  0  0
 26 25  1  0  0  0  0
 28 34  1  0  0  0  0
 29 32  1  0  0  0  0
 30 33  1  0  0  0  0
 32 33  1  0  0  0  0
 33 31  1  0  0  0  0
 34 29  1  0  0  0  0
 34 30  1  0  0  0  0
 35 36  1  0  0  0  0
 35  6  1  0  0  0  0
 36 37  1  0  0  0  0
M  END
>  <MODEL>
1

>  <REMARK>
 VINA RESULT:      -5.7      0.000      0.000
  Name = 
  9 active torsions:
  status: ('A' for Active; 'I' for Inactive)
    1  A    between atoms: C_3  and  C_32
    2  A    between atoms: C_5  and  C_23
    3  A    between atoms: C_6  and  C_31
    4  A    between atoms: C_6  and  C_35
    5  A    between atoms: C_9  and  C_13
    6  A    between atoms: C_9  and  C_16
    7  A    between atoms: O_11  and  C_26
    8  A    between atoms: C_20  and  C_21
    9  A    between atoms: C_21  and  C_32
                            x       y       z     vdW  Elec       q    Type
                         _______ _______ _______ _____ _____    ______ ____

>  <TORSDO>
F 9

$$$$
=
 OpenBabel10262423033D

 37 41  0  0  1  0  0  0  0  0999 V2000
  189.5510  178.7310  144.2350 C   0  0  0  0  0  2  0  0  0  0  0  0
  187.6320  178.5830  140.1390 C   0  0  2  0  0  3  0  0  0  0  0  0
  190.8880  178.8960  144.9380 C   0  0  2  0  0  3  0  0  0  0  0  0
  190.5950  175.9340  140.4040 C   0  0  0  0  0  2  0  0  0  0  0  0
  188.9050  177.8400  140.5740 C   0  0  2  0  0  3  0  0  0  0  0  0
  186.5800  178.2970  141.1900 C   0  0  1  0  0  3  0  0  0  0  0  0
  189.2970  176.5330  139.8310 C   0  0  1  0  0  3  0  0  0  0  0  0
  191.9420  178.3140  144.0050 C   0  0  0  0  0  2  0  0  0  0  0  0
  187.3600  178.0300  142.4700 C   0  0  2  0  0  3  0  0  0  0  0  0
  188.1200  178.7470  137.6560 C   0  0  0  0  0  2  0  0  0  0  0  0
  191.1960  177.5620  142.9040 C   0  0  2  0  0  0  0  0  0  0  0  0
  191.7140  176.9340  140.4940 C   0  0  0  0  0  3  0  0  0  0  0  0
  187.1210  178.3030  138.7270 C   0  0  0  0  0  2  0  0  0  0  0  0
  188.7660  177.5870  142.0700 C   0  0  2  0  0  3  0  0  0  0  0  0
  189.3060  176.6210  138.2790 C   0  0  1  0  0  3  0  0  0  0  0  0
  191.9720  177.6510  141.6000 C   0  0  0  0  0  3  0  0  0  0  0  0
  189.8850  178.3430  142.8050 C   0  0  1  0  0  3  0  0  0  0  0  0
  189.4740  178.0410  137.7550 C   0  0  0  0  0  2  0  0  0  0  0  0
  190.9250  176.2210  143.2970 O   0  0  0  0  0  0  0  0  0  0  0  0
  192.0390  175.6780  143.9660 C   0  0  0  0  0  1  0  0  0  0  0  0
  189.6190  177.3140  146.3880 C   0  0  0  0  0  1  0  0  0  0  0  0
  190.8890  178.1310  146.2500 C   0  0  0  0  0  2  0  0  0  0  0  0
  186.7010  176.9810  143.3740 C   0  0  1  0  0  3  0  0  0  0  0  0
  187.6110  175.7780  143.5550 C   0  0  0  0  0  1  0  0  0  0  0  0
  186.2780  177.5540  144.7250 C   0  0  0  0  0  2  0  0  0  0  0  0
  185.0500  178.4390  144.5830 C   0  0  0  0  0  2  0  0  0  0  0  0
  184.6290  178.8830  145.8370 O   0  0  0  0  0  1  0  0  0  0  0  0
  190.2440  175.6530  137.5610 C   0  0  0  0  0  2  0  0  0  0  0  0
  191.2960  175.9170  135.3270 C   0  0  0  0  0  2  0  0  0  0  0  0
  192.6860  176.1330  137.2910 C   0  0  0  0  0  2  0  0  0  0  0  0
  194.5720  176.9510  136.0830 O   0  0  0  0  0  1  0  0  0  0  0  0
  192.7170  176.1130  134.8520 C   0  0  0  0  0  2  0  0  0  0  0  0
  193.5900  175.9610  136.0810 C   0  0  2  0  0  3  0  0  0  0  0  0
  191.2920  176.4060  136.7560 C   0  0  2  0  0  3  0  0  0  0  0  0
  185.6780  179.5070  141.3870 C   0  0  0  0  0  2  0  0  0  0  0  0
  184.3210  179.2670  140.7570 C   0  0  0  0  0  2  0  0  0  0  0  0
  183.8150  177.8980  141.1550 C   0  0  0  0  0  1  0  0  0  0  0  0
  1  3  1  0  0  0  0
  2 13  1  6  0  0  0
  2  5  1  0  0  0  0
  2  6  1  0  0  0  0
  3 22  1  1  0  0  0
  4 12  1  0  0  0  0
  5 14  1  0  0  0  0
  6 35  1  0  0  0  0
  6  9  1  0  0  0  0
  7  4  1  0  0  0  0
  7  5  1  0  0  0  0
  8  3  1  0  0  0  0
  9 23  1  0  0  0  0
 10 18  1  0  0  0  0
 10 13  1  0  0  0  0
 11 19  1  0  0  0  0
 11  8  1  0  0  0  0
 12 16  2  0  0  0  0
 14  9  1  0  0  0  0
 14 17  1  0  0  0  0
 15  7  1  0  0  0  0
 16 11  1  0  0  0  0
 17 11  1  0  0  0  0
 17  1  1  0  0  0  0
 18 15  1  0  0  0  0
 19 20  1  0  0  0  0
 22 21  1  0  0  0  0
 23 24  1  0  0  0  0
 23 25  1  0  0  0  0
 26 25  1  0  0  0  0
 26 27  1  0  0  0  0
 28 15  1  0  0  0  0
 29 34  1  0  0  0  0
 32 29  1  0  0  0  0
 32 33  1  0  0  0  0
 33 31  1  0  0  0  0
 33 30  1  0  0  0  0
 34 30  1  0  0  0  0
 34 28  1  0  0  0  0
 36 37  1  0  0  0  0
 36 35  1  0  0  0  0
M  END
>  <MODEL>
2

>  <REMARK>
 VINA RESULT:      -5.3      4.158      9.875
  Name = 
  9 active torsions:
  status: ('A' for Active; 'I' for Inactive)
    1  A    between atoms: C_3  and  C_32
    2  A    between atoms: C_5  and  C_23
    3  A    between atoms: C_6  and  C_31
    4  A    between atoms: C_6  and  C_35
    5  A    between atoms: C_9  and  C_13
    6  A    between atoms: C_9  and  C_16
    7  A    between atoms: O_11  and  C_26
    8  A    between atoms: C_20  and  C_21
    9  A    between atoms: C_21  and  C_32
                            x       y       z     vdW  Elec       q    Type
                         _______ _______ _______ _____ _____    ______ ____

>  <TORSDO>
F 9

$$$$
=
 OpenBabel10262423033D

 37 41  0  0  1  0  0  0  0  0999 V2000
  189.5370  178.5990  144.3510 C   0  0  0  0  0  2  0  0  0  0  0  0
  187.3560  178.6680  140.3850 C   0  0  2  0  0  3  0  0  0  0  0  0
  190.9130  178.7560  144.9760 C   0  0  2  0  0  3  0  0  0  0  0  0
  190.3950  176.0960  140.2780 C   0  0  0  0  0  2  0  0  0  0  0  0
  188.6740  177.9350  140.6870 C   0  0  2  0  0  3  0  0  0  0  0  0
  186.3830  178.2830  141.4800 C   0  0  1  0  0  3  0  0  0  0  0  0
  189.0480  176.6930  139.8330 C   0  0  1  0  0  3  0  0  0  0  0  0
  191.9160  178.2670  143.9410 C   0  0  0  0  0  2  0  0  0  0  0  0
  187.2520  177.9540  142.6860 C   0  0  2  0  0  3  0  0  0  0  0  0
  187.6760  179.0120  137.8930 C   0  0  0  0  0  2  0  0  0  0  0  0
  191.1190  177.5700  142.8400 C   0  0  2  0  0  0  0  0  0  0  0  0
  191.4930  177.1190  140.3650 C   0  0  0  0  0  3  0  0  0  0  0  0
  186.7610  178.4680  138.9940 C   0  0  0  0  0  2  0  0  0  0  0  0
  188.6390  177.5800  142.1680 C   0  0  2  0  0  3  0  0  0  0  0  0
  188.9530  176.8840  138.2920 C   0  0  1  0  0  3  0  0  0  0  0  0
  191.8050  177.7670  141.4990 C   0  0  0  0  0  3  0  0  0  0  0  0
  189.7850  178.3170  142.8800 C   0  0  1  0  0  3  0  0  0  0  0  0
  189.0510  178.3400  137.8570 C   0  0  0  0  0  2  0  0  0  0  0  0
  190.9080  176.1980  143.1580 O   0  0  0  0  0  0  0  0  0  0  0  0
  192.0320  175.6770  143.8270 C   0  0  0  0  0  1  0  0  0  0  0  0
  189.7140  177.1760  146.4880 C   0  0  0  0  0  1  0  0  0  0  0  0
  191.0190  177.9050  146.2310 C   0  0  0  0  0  2  0  0  0  0  0  0
  186.6800  176.8280  143.5560 C   0  0  1  0  0  3  0  0  0  0  0  0
  187.6110  175.6270  143.5630 C   0  0  0  0  0  1  0  0  0  0  0  0
  186.3710  177.2880  144.9790 C   0  0  0  0  0  2  0  0  0  0  0  0
  185.8950  178.7310  144.9970 C   0  0  0  0  0  2  0  0  0  0  0  0
  185.2800  179.0220  146.2150 O   0  0  0  0  0  1  0  0  0  0  0  0
  189.8650  175.9940  137.4520 C   0  0  0  0  0  2  0  0  0  0  0  0
  187.5940  175.0990  137.0020 C   0  0  0  0  0  2  0  0  0  0  0  0
  189.4670  173.5750  136.9490 C   0  0  0  0  0  2  0  0  0  0  0  0
  188.2030  171.7730  136.0340 O   0  0  0  0  0  1  0  0  0  0  0  0
  187.0390  173.7130  136.7670 C   0  0  0  0  0  2  0  0  0  0  0  0
  188.1880  172.7580  137.0200 C   0  0  2  0  0  3  0  0  0  0  0  0
  189.0550  175.0010  136.6340 C   0  0  2  0  0  3  0  0  0  0  0  0
  185.4670  179.4510  141.8160 C   0  0  0  0  0  2  0  0  0  0  0  0
  184.0530  178.9640  142.0600 C   0  0  0  0  0  2  0  0  0  0  0  0
  183.6850  177.9380  141.0100 C   0  0  0  0  0  1  0  0  0  0  0  0
  1  3  1  0  0  0  0
  2 13  1  6  0  0  0
  2  5  1  0  0  0  0
  2  6  1  0  0  0  0
  3 22  1  1  0  0  0
  4 12  1  0  0  0  0
  5 14  1  0  0  0  0
  6 35  1  0  0  0  0
  6  9  1  0  0  0  0
  7  4  1  0  0  0  0
  7  5  1  0  0  0  0
  8  3  1  0  0  0  0
  9 23  1  0  0  0  0
 10 13  1  0  0  0  0
 11 17  1  0  0  0  0
 11 19  1  0  0  0  0
 11  8  1  0  0  0  0
 12 16  2  0  0  0  0
 14  9  1  0  0  0  0
 14 17  1  0  0  0  0
 15  7  1  0  0  0  0
 16 11  1  0  0  0  0
 17  1  1  0  0  0  0
 18 10  1  0  0  0  0
 18 15  1  0  0  0  0
 19 20  1  0  0  0  0
 22 21  1  0  0  0  0
 23 24  1  0  0  0  0
 23 25  1  0  0  0  0
 25 26  1  0  0  0  0
 26 27  1  0  0  0  0
 28 15  1  0  0  0  0
 30 33  1  0  0  0  0
 31 33  1  0  0  0  0
 32 29  1  0  0  0  0
 32 33  1  0  0  0  0
 34 30  1  0  0  0  0
 34 29  1  0  0  0  0
 34 28  1  0  0  0  0
 35 36  1  0  0  0  0
 37 36  1  0  0  0  0
M  END
>  <MODEL>
3

>  <REMARK>
 VINA RESULT:      -5.3      3.647      9.595
  Name = 
  9 active torsions:
  status: ('A' for Active; 'I' for Inactive)
    1  A    between atoms: C_3  and  C_32
    2  A    between atoms: C_5  and  C_23
    3  A    between atoms: C_6  and  C_31
    4  A    between atoms: C_6  and  C_35
    5  A    between atoms: C_9  and  C_13
    6  A    between atoms: C_9  and  C_16
    7  A    between atoms: O_11  and  C_26
    8  A    between atoms: C_20  and  C_21
    9  A    between atoms: C_21  and  C_32
                            x       y       z     vdW  Elec       q    Type
                         _______ _______ _______ _____ _____    ______ ____

>  <TORSDO>
F 9

$$$$
=
 OpenBabel10262423033D

 37 41  0  0  1  0  0  0  0  0999 V2000
  180.6940  174.7620  137.4890 C   0  0  0  0  0  2  0  0  0  0  0  0
  183.0350  178.3360  138.9850 C   0  0  2  0  0  3  0  0  0  0  0  0
  180.7720  173.2560  137.3110 C   0  0  2  0  0  3  0  0  0  0  0  0
  185.1410  176.3010  136.2850 C   0  0  0  0  0  2  0  0  0  0  0  0
  183.5640  177.2200  138.0690 C   0  0  2  0  0  3  0  0  0  0  0  0
  181.7320  178.8150  138.3790 C   0  0  1  0  0  3  0  0  0  0  0  0
  184.7520  177.5350  137.1180 C   0  0  1  0  0  3  0  0  0  0  0  0
  182.2380  172.9240  137.0690 C   0  0  0  0  0  2  0  0  0  0  0  0
  181.1870  177.6180  137.6120 C   0  0  2  0  0  3  0  0  0  0  0  0
  185.2320  179.0310  140.0430 C   0  0  0  0  0  2  0  0  0  0  0  0
  182.9600  174.2470  136.8240 C   0  0  2  0  0  0  0  0  0  0  0  0
  185.3490  175.0690  137.1200 C   0  0  0  0  0  3  0  0  0  0  0  0
  183.9870  179.4920  139.2800 C   0  0  0  0  0  2  0  0  0  0  0  0
  182.3660  176.7050  137.2820 C   0  0  2  0  0  3  0  0  0  0  0  0
  185.9760  178.2260  137.7820 C   0  0  1  0  0  3  0  0  0  0  0  0
  184.3810  174.1680  137.3550 C   0  0  0  0  0  3  0  0  0  0  0  0
  182.1300  175.2310  137.6490 C   0  0  1  0  0  3  0  0  0  0  0  0
  186.0620  177.9930  139.2840 C   0  0  0  0  0  2  0  0  0  0  0  0
  182.9030  174.6110  135.4480 O   0  0  0  0  0  0  0  0  0  0  0  0
  183.2520  173.5100  134.6410 C   0  0  0  0  0  1  0  0  0  0  0  0
  179.4060  174.0380  135.3780 C   0  0  0  0  0  1  0  0  0  0  0  0
  179.9460  172.8250  136.1110 C   0  0  0  0  0  2  0  0  0  0  0  0
  180.4320  178.0070  136.3350 C   0  0  1  0  0  3  0  0  0  0  0  0
  178.9310  177.9070  136.5440 C   0  0  0  0  0  1  0  0  0  0  0  0
  180.8220  179.3930  135.8250 C   0  0  0  0  0  2  0  0  0  0  0  0
  179.6100  180.3060  135.7420 C   0  0  0  0  0  2  0  0  0  0  0  0
  179.7470  181.3700  136.6340 O   0  0  0  0  0  1  0  0  0  0  0  0
  187.3250  177.9840  137.1080 C   0  0  0  0  0  2  0  0  0  0  0  0
  189.3600  178.1260  138.5240 C   0  0  0  0  0  2  0  0  0  0  0  0
  188.9610  176.0970  137.2750 C   0  0  0  0  0  2  0  0  0  0  0  0
  190.6960  174.8760  138.3630 O   0  0  0  0  0  1  0  0  0  0  0  0
  190.5460  177.2180  138.7510 C   0  0  0  0  0  2  0  0  0  0  0  0
  190.4060  176.0930  137.7470 C   0  0  2  0  0  3  0  0  0  0  0  0
  188.2620  177.2150  138.0260 C   0  0  2  0  0  3  0  0  0  0  0  0
  180.7490  179.2100  139.4710 C   0  0  0  0  0  2  0  0  0  0  0  0
  180.1140  177.9800  140.0870 C   0  0  0  0  0  2  0  0  0  0  0  0
  180.2410  178.0470  141.5930 C   0  0  0  0  0  1  0  0  0  0  0  0
  1 17  1  0  0  0  0
  2 13  1  6  0  0  0
  3 22  1  6  0  0  0
  3  1  1  0  0  0  0
  4  7  1  0  0  0  0
  4 12  1  0  0  0  0
  5  2  1  0  0  0  0
  6  2  1  0  0  0  0
  6 35  1  0  0  0  0
  7 15  1  0  0  0  0
  7  5  1  0  0  0  0
  8  3  1  0  0  0  0
  9  6  1  0  0  0  0
 11  8  1  0  0  0  0
 11 16  1  0  0  0  0
 11 17  1  0  0  0  0
 12 16  2  0  0  0  0
 13 10  1  0  0  0  0
 14  9  1  0  0  0  0
 14 17  1  0  0  0  0
 14  5  1  0  0  0  0
 15 18  1  0  0  0  0
 18 10  1  0  0  0  0
 19 11  1  0  0  0  0
 20 19  1  0  0  0  0
 21 22  1  0  0  0  0
 23 24  1  0  0  0  0
 23  9  1  0  0  0  0
 25 23  1  0  0  0  0
 26 25  1  0  0  0  0
 26 27  1  0  0  0  0
 28 15  1  0  0  0  0
 28 34  1  0  0  0  0
 29 32  1  0  0  0  0
 30 33  1  0  0  0  0
 30 34  1  0  0  0  0
 33 31  1  0  0  0  0
 33 32  1  0  0  0  0
 34 29  1  0  0  0  0
 35 36  1  0  0  0  0
 36 37  1  0  0  0  0
M  END
>  <MODEL>
4

>  <REMARK>
 VINA RESULT:      -4.8      3.145      6.351
  Name = 
  9 active torsions:
  status: ('A' for Active; 'I' for Inactive)
    1  A    between atoms: C_3  and  C_32
    2  A    between atoms: C_5  and  C_23
    3  A    between atoms: C_6  and  C_31
    4  A    between atoms: C_6  and  C_35
    5  A    between atoms: C_9  and  C_13
    6  A    between atoms: C_9  and  C_16
    7  A    between atoms: O_11  and  C_26
    8  A    between atoms: C_20  and  C_21
    9  A    between atoms: C_21  and  C_32
                            x       y       z     vdW  Elec       q    Type
                         _______ _______ _______ _____ _____    ______ ____

>  <TORSDO>
F 9

$$$$
=
 OpenBabel10262423033D

 37 41  0  0  1  0  0  0  0  0999 V2000
  179.9000  177.3720  138.2400 C   0  0  0  0  0  2  0  0  0  0  0  0
  182.1640  178.8250  141.8800 C   0  0  2  0  0  3  0  0  0  0  0  0
  179.9090  176.3060  137.1570 C   0  0  2  0  0  3  0  0  0  0  0  0
  184.5820  178.5690  138.7250 C   0  0  0  0  0  2  0  0  0  0  0  0
  182.7750  178.4400  140.5230 C   0  0  2  0  0  3  0  0  0  0  0  0
  181.0250  179.7800  141.5900 C   0  0  1  0  0  3  0  0  0  0  0  0
  184.1320  179.0730  140.1080 C   0  0  1  0  0  3  0  0  0  0  0  0
  181.3700  175.9590  136.9040 C   0  0  0  0  0  2  0  0  0  0  0  0
  180.5490  179.4180  140.1900 C   0  0  2  0  0  3  0  0  0  0  0  0
  184.1760  178.3490  143.3490 C   0  0  0  0  0  2  0  0  0  0  0  0
  182.2100  177.0120  137.6250 C   0  0  2  0  0  0  0  0  0  0  0  0
  184.5560  177.0720  138.6070 C   0  0  0  0  0  3  0  0  0  0  0  0
  183.1220  179.3780  142.9320 C   0  0  0  0  0  2  0  0  0  0  0  0
  181.7060  178.7240  139.4740 C   0  0  2  0  0  3  0  0  0  0  0  0
  185.2600  178.9970  141.1760 C   0  0  1  0  0  3  0  0  0  0  0  0
  183.5040  176.3910  138.1220 C   0  0  0  0  0  3  0  0  0  0  0  0
  181.3110  177.3990  138.8000 C   0  0  1  0  0  3  0  0  0  0  0  0
  185.0590  177.8790  142.1900 C   0  0  0  0  0  2  0  0  0  0  0  0
  182.4250  178.1470  136.7930 O   0  0  0  0  0  0  0  0  0  0  0  0
  182.7960  177.7360  135.4980 C   0  0  0  0  0  1  0  0  0  0  0  0
  179.0120  178.3340  136.0170 C   0  0  0  0  0  1  0  0  0  0  0  0
  179.2860  176.8480  135.8820 C   0  0  0  0  0  2  0  0  0  0  0  0
  180.0640  180.6270  139.3820 C   0  0  1  0  0  3  0  0  0  0  0  0
  179.2500  181.5670  140.2550 C   0  0  0  0  0  1  0  0  0  0  0  0
  181.2080  181.3710  138.6970 C   0  0  0  0  0  2  0  0  0  0  0  0
  180.6860  182.5290  137.8630 C   0  0  0  0  0  2  0  0  0  0  0  0
  181.7140  183.4340  137.5980 O   0  0  0  0  0  1  0  0  0  0  0  0
  186.6890  179.0030  140.6370 C   0  0  0  0  0  2  0  0  0  0  0  0
  188.2150  178.6280  142.5590 C   0  0  0  0  0  2  0  0  0  0  0  0
  188.6790  177.4940  140.4780 C   0  0  0  0  0  2  0  0  0  0  0  0
  190.3660  176.0920  141.4140 O   0  0  0  0  0  1  0  0  0  0  0  0
  189.5100  177.8720  142.7390 C   0  0  0  0  0  2  0  0  0  0  0  0
  189.9180  177.4110  141.3550 C   0  0  2  0  0  3  0  0  0  0  0  0
  187.5500  177.9840  141.3660 C   0  0  2  0  0  3  0  0  0  0  0  0
  179.8900  179.5750  142.5830 C   0  0  0  0  0  2  0  0  0  0  0  0
  179.6880  178.1000  142.8630 C   0  0  0  0  0  2  0  0  0  0  0  0
  179.6810  177.8660  144.3580 C   0  0  0  0  0  1  0  0  0  0  0  0
  1 17  1  0  0  0  0
  2 13  1  1  0  0  0
  3 22  1  6  0  0  0
  3  1  1  0  0  0  0
  4  7  1  0  0  0  0
  5  2  1  0  0  0  0
  6  2  1  0  0  0  0
  6 35  1  0  0  0  0
  7  5  1  0  0  0  0
  7 15  1  0  0  0  0
  8  3  1  0  0  0  0
  8 11  1  0  0  0  0
  9  6  1  0  0  0  0
 11 16  1  0  0  0  0
 11 17  1  0  0  0  0
 12  4  1  0  0  0  0
 13 10  1  0  0  0  0
 14  9  1  0  0  0  0
 14  5  1  0  0  0  0
 15 18  1  0  0  0  0
 16 12  2  0  0  0  0
 17 14  1  0  0  0  0
 18 10  1  0  0  0  0
 19 11  1  0  0  0  0
 20 19  1  0  0  0  0
 22 21  1  0  0  0  0
 23  9  1  0  0  0  0
 23 24  1  0  0  0  0
 25 23  1  0  0  0  0
 26 25  1  0  0  0  0
 27 26  1  0  0  0  0
 28 15  1  0  0  0  0
 28 34  1  0  0  0  0
 29 32  1  0  0  0  0
 30 33  1  0  0  0  0
 30 34  1  0  0  0  0
 33 31  1  0  0  0  0
 33 32  1  0  0  0  0
 34 29  1  0  0  0  0
 35 36  1  0  0  0  0
 36 37  1  0  0  0  0
M  END
>  <MODEL>
5

>  <REMARK>
 VINA RESULT:      -4.6      2.559      5.744
  Name = 
  9 active torsions:
  status: ('A' for Active; 'I' for Inactive)
    1  A    between atoms: C_3  and  C_32
    2  A    between atoms: C_5  and  C_23
    3  A    between atoms: C_6  and  C_31
    4  A    between atoms: C_6  and  C_35
    5  A    between atoms: C_9  and  C_13
    6  A    between atoms: C_9  and  C_16
    7  A    between atoms: O_11  and  C_26
    8  A    between atoms: C_20  and  C_21
    9  A    between atoms: C_21  and  C_32
                            x       y       z     vdW  Elec       q    Type
                         _______ _______ _______ _____ _____    ______ ____

>  <TORSDO>
F 9

$$$$
=
 OpenBabel10262423033D

 37 41  0  0  1  0  0  0  0  0999 V2000
  187.0890  178.7300  137.7420 C   0  0  0  0  0  2  0  0  0  0  0  0
  182.6120  178.4260  137.1490 C   0  0  2  0  0  3  0  0  0  0  0  0
  188.4190  178.5050  137.0420 C   0  0  2  0  0  3  0  0  0  0  0  0
  184.3820  174.9530  136.3280 C   0  0  0  0  0  2  0  0  0  0  0  0
  183.6540  177.3580  136.7780 C   0  0  2  0  0  3  0  0  0  0  0  0
  182.8970  178.8320  138.5800 C   0  0  1  0  0  3  0  0  0  0  0  0
  183.2090  175.8710  136.7150 C   0  0  1  0  0  3  0  0  0  0  0  0
  188.2050  177.3540  136.0680 C   0  0  0  0  0  2  0  0  0  0  0  0
  184.3850  178.5770  138.7770 C   0  0  2  0  0  3  0  0  0  0  0  0
  180.8200  177.8090  135.4650 C   0  0  0  0  0  2  0  0  0  0  0  0
  186.8510  176.7310  136.4020 C   0  0  2  0  0  0  0  0  0  0  0  0
  185.1100  175.4160  135.0960 C   0  0  0  0  0  3  0  0  0  0  0  0
  181.1460  178.0580  136.9400 C   0  0  0  0  0  2  0  0  0  0  0  0
  184.8140  177.5320  137.7500 C   0  0  2  0  0  3  0  0  0  0  0  0
  181.9230  175.5910  135.8850 C   0  0  1  0  0  3  0  0  0  0  0  0
  186.1970  176.2030  135.1370 C   0  0  0  0  0  3  0  0  0  0  0  0
  186.0700  177.9250  136.9550 C   0  0  1  0  0  3  0  0  0  0  0  0
  181.6270  176.6650  134.8470 C   0  0  0  0  0  2  0  0  0  0  0  0
  186.9840  175.7380  137.4140 O   0  0  0  0  0  0  0  0  0  0  0  0
  187.9970  174.8250  137.0650 C   0  0  0  0  0  1  0  0  0  0  0  0
  188.9570  178.2800  139.4660 C   0  0  0  0  0  1  0  0  0  0  0  0
  189.4870  178.1250  138.0540 C   0  0  0  0  0  2  0  0  0  0  0  0
  184.7390  178.1140  140.1960 C   0  0  1  0  0  3  0  0  0  0  0  0
  185.7010  179.0870  140.8560 C   0  0  0  0  0  1  0  0  0  0  0  0
  183.5020  177.8930  141.0650 C   0  0  0  0  0  2  0  0  0  0  0  0
  183.7760  178.2690  142.5120 C   0  0  0  0  0  2  0  0  0  0  0  0
  182.6680  178.9170  143.0590 O   0  0  0  0  0  1  0  0  0  0  0  0
  181.8120  174.1930  135.2800 C   0  0  0  0  0  2  0  0  0  0  0  0
  180.0550  174.0600  137.0300 C   0  0  0  0  0  2  0  0  0  0  0  0
  180.7120  172.0310  135.8960 C   0  0  0  0  0  2  0  0  0  0  0  0
  178.9310  170.7350  136.8080 O   0  0  0  0  0  1  0  0  0  0  0  0
  179.2940  172.9220  137.6690 C   0  0  0  0  0  2  0  0  0  0  0  0
  179.9280  171.6510  137.1410 C   0  0  2  0  0  3  0  0  0  0  0  0
  180.5120  173.5220  135.6950 C   0  0  2  0  0  3  0  0  0  0  0  0
  182.6030  180.3110  138.7850 C   0  0  0  0  0  2  0  0  0  0  0  0
  181.1290  180.5270  139.0620 C   0  0  0  0  0  2  0  0  0  0  0  0
  180.7030  179.6610  140.2270 C   0  0  0  0  0  1  0  0  0  0  0  0
  2 13  1  1  0  0  0
  2  6  1  0  0  0  0
  3  1  1  0  0  0  0
  3 22  1  1  0  0  0
  4  7  1  0  0  0  0
  5  2  1  0  0  0  0
  5 14  1  0  0  0  0
  6  9  1  0  0  0  0
  6 35  1  0  0  0  0
  7  5  1  0  0  0  0
  8 11  1  0  0  0  0
  8  3  1  0  0  0  0
  9 23  1  0  0  0  0
 10 13  1  0  0  0  0
 11 17  1  0  0  0  0
 11 19  1  0  0  0  0
 12 16  2  0  0  0  0
 12  4  1  0  0  0  0
 14  9  1  0  0  0  0
 15  7  1  0  0  0  0
 16 11  1  0  0  0  0
 17  1  1  0  0  0  0
 17 14  1  0  0  0  0
 18 10  1  0  0  0  0
 18 15  1  0  0  0  0
 20 19  1  0  0  0  0
 22 21  1  0  0  0  0
 23 24  1  0  0  0  0
 23 25  1  0  0  0  0
 25 26  1  0  0  0  0
 26 27  1  0  0  0  0
 28 34  1  0  0  0  0
 28 15  1  0  0  0  0
 29 32  1  0  0  0  0
 30 33  1  0  0  0  0
 31 33  1  0  0  0  0
 33 32  1  0  0  0  0
 34 30  1  0  0  0  0
 34 29  1  0  0  0  0
 35 36  1  0  0  0  0
 36 37  1  0  0  0  0
M  END
>  <MODEL>
6

>  <REMARK>
 VINA RESULT:      -4.6      2.370      8.052
  Name = 
  9 active torsions:
  status: ('A' for Active; 'I' for Inactive)
    1  A    between atoms: C_3  and  C_32
    2  A    between atoms: C_5  and  C_23
    3  A    between atoms: C_6  and  C_31
    4  A    between atoms: C_6  and  C_35
    5  A    between atoms: C_9  and  C_13
    6  A    between atoms: C_9  and  C_16
    7  A    between atoms: O_11  and  C_26
    8  A    between atoms: C_20  and  C_21
    9  A    between atoms: C_21  and  C_32
                            x       y       z     vdW  Elec       q    Type
                         _______ _______ _______ _____ _____    ______ ____

>  <TORSDO>
F 9

$$$$
=
 OpenBabel10262423033D

 37 41  0  0  1  0  0  0  0  0999 V2000
  190.1050  175.4740  138.1670 C   0  0  0  0  0  2  0  0  0  0  0  0
  186.1500  173.6690  136.9050 C   0  0  2  0  0  3  0  0  0  0  0  0
  190.7220  176.4950  139.1080 C   0  0  2  0  0  3  0  0  0  0  0  0
  186.0460  177.6400  136.6100 C   0  0  0  0  0  2  0  0  0  0  0  0
  186.4500  175.1660  137.0890 C   0  0  2  0  0  3  0  0  0  0  0  0
  187.2530  173.1090  136.0310 C   0  0  1  0  0  3  0  0  0  0  0  0
  185.6030  176.2000  136.2970 C   0  0  1  0  0  3  0  0  0  0  0  0
  189.6850  177.5940  139.2940 C   0  0  0  0  0  2  0  0  0  0  0  0
  188.4570  174.0050  136.2860 C   0  0  2  0  0  3  0  0  0  0  0  0
  183.6540  173.7250  137.3480 C   0  0  0  0  0  2  0  0  0  0  0  0
  188.5930  177.3590  138.2510 C   0  0  2  0  0  0  0  0  0  0  0  0
  186.1190  177.9260  138.0840 C   0  0  0  0  0  3  0  0  0  0  0  0
  184.7640  173.3050  136.3800 C   0  0  0  0  0  2  0  0  0  0  0  0
  187.9340  175.3470  136.7950 C   0  0  2  0  0  3  0  0  0  0  0  0
  184.0620  176.0090  136.3820 C   0  0  1  0  0  3  0  0  0  0  0  0
  187.2470  177.7970  138.8020 C   0  0  0  0  0  3  0  0  0  0  0  0
  188.6340  175.8410  138.0710 C   0  0  1  0  0  3  0  0  0  0  0  0
  183.6150  175.2320  137.6130 C   0  0  0  0  0  2  0  0  0  0  0  0
  188.9210  177.9950  137.0200 O   0  0  0  0  0  0  0  0  0  0  0  0
  189.0800  179.3800  137.2180 C   0  0  0  0  0  1  0  0  0  0  0  0
  192.3110  176.3790  137.1900 C   0  0  0  0  0  1  0  0  0  0  0  0
  191.9820  177.0810  138.4940 C   0  0  0  0  0  2  0  0  0  0  0  0
  189.3380  174.2050  135.0470 C   0  0  1  0  0  3  0  0  0  0  0  0
  189.3110  175.6550  134.5950 C   0  0  0  0  0  1  0  0  0  0  0  0
  190.7720  173.7270  135.2660 C   0  0  0  0  0  2  0  0  0  0  0  0
  190.9470  172.2910  134.8000 C   0  0  0  0  0  2  0  0  0  0  0  0
  192.1980  171.8080  135.1880 O   0  0  0  0  0  1  0  0  0  0  0  0
  183.2230  177.2710  136.1910 C   0  0  0  0  0  2  0  0  0  0  0  0
  180.8700  177.6950  136.8630 C   0  0  0  0  0  2  0  0  0  0  0  0
  182.6400  178.7350  138.1360 C   0  0  0  0  0  2  0  0  0  0  0  0
  181.1890  179.4890  139.8710 O   0  0  0  0  0  1  0  0  0  0  0  0
  180.2180  178.5780  137.9010 C   0  0  0  0  0  2  0  0  0  0  0  0
  181.3310  179.4230  138.4860 C   0  0  2  0  0  3  0  0  0  0  0  0
  182.2780  177.4790  137.3650 C   0  0  2  0  0  3  0  0  0  0  0  0
  187.5850  171.6810  136.4390 C   0  0  0  0  0  2  0  0  0  0  0  0
  187.6420  170.7790  135.2230 C   0  0  0  0  0  2  0  0  0  0  0  0
  186.2660  170.2110  134.9530 C   0  0  0  0  0  1  0  0  0  0  0  0
  1  3  1  0  0  0  0
  2 13  1  6  0  0  0
  2  5  1  0  0  0  0
  3 22  1  6  0  0  0
  3  8  1  0  0  0  0
  4 12  1  0  0  0  0
  6  9  1  0  0  0  0
  6 35  1  0  0  0  0
  6  2  1  0  0  0  0
  7 15  1  0  0  0  0
  7  4  1  0  0  0  0
  7  5  1  0  0  0  0
  9 14  1  0  0  0  0
 10 18  1  0  0  0  0
 11 16  1  0  0  0  0
 11  8  1  0  0  0  0
 12 16  2  0  0  0  0
 13 10  1  0  0  0  0
 14  5  1  0  0  0  0
 14 17  1  0  0  0  0
 15 18  1  0  0  0  0
 17  1  1  0  0  0  0
 17 11  1  0  0  0  0
 19 20  1  0  0  0  0
 19 11  1  0  0  0  0
 21 22  1  0  0  0  0
 23 25  1  0  0  0  0
 23  9  1  0  0  0  0
 24 23  1  0  0  0  0
 26 27  1  0  0  0  0
 26 25  1  0  0  0  0
 28 15  1  0  0  0  0
 28 34  1  0  0  0  0
 29 34  1  0  0  0  0
 29 32  1  0  0  0  0
 30 33  1  0  0  0  0
 32 33  1  0  0  0  0
 33 31  1  0  0  0  0
 34 30  1  0  0  0  0
 36 35  1  0  0  0  0
 37 36  1  0  0  0  0
M  END
>  <MODEL>
7

>  <REMARK>
 VINA RESULT:      -4.4      3.615      7.711
  Name = 
  9 active torsions:
  status: ('A' for Active; 'I' for Inactive)
    1  A    between atoms: C_3  and  C_32
    2  A    between atoms: C_5  and  C_23
    3  A    between atoms: C_6  and  C_31
    4  A    between atoms: C_6  and  C_35
    5  A    between atoms: C_9  and  C_13
    6  A    between atoms: C_9  and  C_16
    7  A    between atoms: O_11  and  C_26
    8  A    between atoms: C_20  and  C_21
    9  A    between atoms: C_21  and  C_32
                            x       y       z     vdW  Elec       q    Type
                         _______ _______ _______ _____ _____    ______ ____

>  <TORSDO>
F 9

$$$$
=
 OpenBabel10262423033D

 37 41  0  0  1  0  0  0  0  0999 V2000
  180.6570  175.4690  139.5270 C   0  0  0  0  0  2  0  0  0  0  0  0
  184.0180  178.1490  140.9430 C   0  0  2  0  0  3  0  0  0  0  0  0
  180.3760  174.1680  138.7950 C   0  0  2  0  0  3  0  0  0  0  0  0
  184.3430  177.4220  137.0400 C   0  0  0  0  0  2  0  0  0  0  0  0
  183.8880  177.5110  139.5500 C   0  0  2  0  0  3  0  0  0  0  0  0
  182.6920  178.8160  141.2420 C   0  0  1  0  0  3  0  0  0  0  0  0
  184.5830  178.2030  138.3450 C   0  0  1  0  0  3  0  0  0  0  0  0
  181.5060  173.9830  137.7920 C   0  0  0  0  0  2  0  0  0  0  0  0
  181.6630  178.0300  140.4420 C   0  0  2  0  0  3  0  0  0  0  0  0
  186.5430  178.3790  141.0190 C   0  0  0  0  0  2  0  0  0  0  0  0
  182.2780  175.3000  137.7410 C   0  0  2  0  0  0  0  0  0  0  0  0
  184.6650  175.9590  137.1610 C   0  0  0  0  0  3  0  0  0  0  0  0
  185.1970  179.0950  141.1580 C   0  0  0  0  0  2  0  0  0  0  0  0
  182.3960  177.3480  139.2890 C   0  0  2  0  0  3  0  0  0  0  0  0
  186.0770  178.5780  138.5580 C   0  0  1  0  0  3  0  0  0  0  0  0
  183.7490  175.0280  137.4740 C   0  0  0  0  0  3  0  0  0  0  0  0
  182.0790  175.8500  139.1550 C   0  0  1  0  0  3  0  0  0  0  0  0
  186.7600  177.7530  139.6400 C   0  0  0  0  0  2  0  0  0  0  0  0
  181.6990  176.1930  136.7960 O   0  0  0  0  0  0  0  0  0  0  0  0
  181.4700  175.5260  135.5770 C   0  0  0  0  0  1  0  0  0  0  0  0
  178.9310  173.1320  137.0470 C   0  0  0  0  0  1  0  0  0  0  0  0
  179.0490  174.2550  138.0600 C   0  0  0  0  0  2  0  0  0  0  0  0
  180.5150  178.8980  139.9120 C   0  0  1  0  0  3  0  0  0  0  0  0
  179.2950  178.7870  140.8110 C   0  0  0  0  0  1  0  0  0  0  0  0
  180.9240  180.3580  139.7220 C   0  0  0  0  0  2  0  0  0  0  0  0
  180.9810  180.7230  138.2480 C   0  0  0  0  0  2  0  0  0  0  0  0
  181.2620  182.0810  138.0990 O   0  0  0  0  0  1  0  0  0  0  0  0
  186.9330  178.6500  137.2950 C   0  0  0  0  0  2  0  0  0  0  0  0
  189.3460  178.1170  137.5470 C   0  0  0  0  0  2  0  0  0  0  0  0
  188.0570  176.8940  135.9100 C   0  0  0  0  0  2  0  0  0  0  0  0
  189.7810  175.3040  135.4810 O   0  0  0  0  0  1  0  0  0  0  0  0
  190.3010  177.2030  136.8150 C   0  0  0  0  0  2  0  0  0  0  0  0
  189.5320  176.6680  135.6240 C   0  0  2  0  0  3  0  0  0  0  0  0
  187.9750  177.5420  137.2800 C   0  0  2  0  0  3  0  0  0  0  0  0
  182.3670  178.7190  142.7250 C   0  0  0  0  0  2  0  0  0  0  0  0
  183.4530  179.3790  143.5520 C   0  0  0  0  0  2  0  0  0  0  0  0
  183.4440  178.8000  144.9500 C   0  0  0  0  0  1  0  0  0  0  0  0
  2 13  1  6  0  0  0
  2  6  1  0  0  0  0
  3 22  1  6  0  0  0
  3  1  1  0  0  0  0
  4 12  1  0  0  0  0
  4  7  1  0  0  0  0
  5  2  1  0  0  0  0
  6 35  1  0  0  0  0
  7 15  1  0  0  0  0
  7  5  1  0  0  0  0
  8  3  1  0  0  0  0
  9  6  1  0  0  0  0
 10 13  1  0  0  0  0
 11  8  1  0  0  0  0
 11 17  1  0  0  0  0
 12 16  2  0  0  0  0
 14  5  1  0  0  0  0
 14  9  1  0  0  0  0
 15 18  1  0  0  0  0
 16 11  1  0  0  0  0
 17 14  1  0  0  0  0
 17  1  1  0  0  0  0
 18 10  1  0  0  0  0
 19 11  1  0  0  0  0
 20 19  1  0  0  0  0
 21 22  1  0  0  0  0
 23  9  1  0  0  0  0
 23 24  1  0  0  0  0
 25 23  1  0  0  0  0
 26 25  1  0  0  0  0
 27 26  1  0  0  0  0
 28 15  1  0  0  0  0
 30 34  1  0  0  0  0
 31 33  1  0  0  0  0
 32 29  1  0  0  0  0
 33 30  1  0  0  0  0
 33 32  1  0  0  0  0
 34 28  1  0  0  0  0
 34 29  1  0  0  0  0
 35 36  1  0  0  0  0
 36 37  1  0  0  0  0
M  END
>  <MODEL>
8

>  <REMARK>
 VINA RESULT:      -4.3      2.609      6.555
  Name = 
  9 active torsions:
  status: ('A' for Active; 'I' for Inactive)
    1  A    between atoms: C_3  and  C_32
    2  A    between atoms: C_5  and  C_23
    3  A    between atoms: C_6  and  C_31
    4  A    between atoms: C_6  and  C_35
    5  A    between atoms: C_9  and  C_13
    6  A    between atoms: C_9  and  C_16
    7  A    between atoms: O_11  and  C_26
    8  A    between atoms: C_20  and  C_21
    9  A    between atoms: C_21  and  C_32
                            x       y       z     vdW  Elec       q    Type
                         _______ _______ _______ _____ _____    ______ ____

>  <TORSDO>
F 9

$$$$
=
 OpenBabel10262423033D

 37 41  0  0  1  0  0  0  0  0999 V2000
  192.7720  176.3710  136.5770 C   0  0  0  0  0  2  0  0  0  0  0  0
  188.2890  176.5450  137.1760 C   0  0  2  0  0  3  0  0  0  0  0  0
  193.8450  175.8850  135.6170 C   0  0  2  0  0  3  0  0  0  0  0  0
  189.4820  172.7980  136.5410 C   0  0  0  0  0  2  0  0  0  0  0  0
  189.1020  175.3140  136.7430 C   0  0  2  0  0  3  0  0  0  0  0  0
  188.9760  177.1120  138.4010 C   0  0  1  0  0  3  0  0  0  0  0  0
  188.5340  173.9000  137.0470 C   0  0  1  0  0  3  0  0  0  0  0  0
  193.2850  174.6430  134.9360 C   0  0  0  0  0  2  0  0  0  0  0  0
  190.4360  176.7050  138.2620 C   0  0  2  0  0  3  0  0  0  0  0  0
  186.0690  175.9230  136.1190 C   0  0  0  0  0  2  0  0  0  0  0  0
  192.0210  174.2480  135.6970 C   0  0  2  0  0  0  0  0  0  0  0  0
  189.8930  172.9870  135.1080 C   0  0  0  0  0  3  0  0  0  0  0  0
  186.7940  176.3360  137.4030 C   0  0  0  0  0  2  0  0  0  0  0  0
  190.4880  175.4790  137.3530 C   0  0  2  0  0  3  0  0  0  0  0  0
  187.0560  173.6670  136.6220 C   0  0  1  0  0  3  0  0  0  0  0  0
  191.0140  173.6300  134.7430 C   0  0  0  0  0  3  0  0  0  0  0  0
  191.5170  175.5960  136.2160 C   0  0  1  0  0  3  0  0  0  0  0  0
  186.5860  174.6110  135.5240 C   0  0  0  0  0  2  0  0  0  0  0  0
  192.3340  173.4000  136.7970 O   0  0  0  0  0  0  0  0  0  0  0  0
  193.2070  172.3740  136.3850 C   0  0  0  0  0  1  0  0  0  0  0  0
  196.0570  174.7410  135.4930 C   0  0  0  0  0  1  0  0  0  0  0  0
  195.1070  175.5230  136.3800 C   0  0  0  0  0  2  0  0  0  0  0  0
  191.1130  176.4080  139.6060 C   0  0  1  0  0  3  0  0  0  0  0  0
  192.4470  177.1280  139.7070 C   0  0  0  0  0  1  0  0  0  0  0  0
  190.2190  176.7420  140.7980 C   0  0  0  0  0  2  0  0  0  0  0  0
  190.9130  176.4140  142.1100 C   0  0  0  0  0  2  0  0  0  0  0  0
  190.1790  175.4620  142.8190 O   0  0  0  0  0  1  0  0  0  0  0  0
  186.6720  172.2220  136.3100 C   0  0  0  0  0  2  0  0  0  0  0  0
  184.3580  172.2950  137.2080 C   0  0  0  0  0  2  0  0  0  0  0  0
  184.8620  170.7290  135.4390 C   0  0  0  0  0  2  0  0  0  0  0  0
  182.5800  170.1510  135.0600 O   0  0  0  0  0  1  0  0  0  0  0  0
  183.1100  171.4810  136.9600 C   0  0  0  0  0  2  0  0  0  0  0  0
  183.5330  170.3360  136.0610 C   0  0  2  0  0  3  0  0  0  0  0  0
  185.1950  172.1140  135.9640 C   0  0  2  0  0  3  0  0  0  0  0  0
  188.8700  178.6300  138.4180 C   0  0  0  0  0  2  0  0  0  0  0  0
  189.0230  179.1900  137.0170 C   0  0  0  0  0  2  0  0  0  0  0  0
  187.6670  179.6060  136.4900 C   0  0  0  0  0  1  0  0  0  0  0  0
  2 13  1  1  0  0  0
  2  6  1  0  0  0  0
  3 22  1  1  0  0  0
  3  1  1  0  0  0  0
  4  7  1  0  0  0  0
  5  7  1  0  0  0  0
  5  2  1  0  0  0  0
  5 14  1  0  0  0  0
  6 35  1  0  0  0  0
  8  3  1  0  0  0  0
  8 11  1  0  0  0  0
  9  6  1  0  0  0  0
  9 23  1  0  0  0  0
 10 13  1  0  0  0  0
 11 17  1  0  0  0  0
 11 19  1  0  0  0  0
 12  4  1  0  0  0  0
 14  9  1  0  0  0  0
 15  7  1  0  0  0  0
 16 12  2  0  0  0  0
 16 11  1  0  0  0  0
 17  1  1  0  0  0  0
 17 14  1  0  0  0  0
 18 10  1  0  0  0  0
 18 15  1  0  0  0  0
 20 19  1  0  0  0  0
 21 22  1  0  0  0  0
 23 24  1  0  0  0  0
 23 25  1  0  0  0  0
 25 26  1  0  0  0  0
 26 27  1  0  0  0  0
 28 15  1  0  0  0  0
 30 34  1  0  0  0  0
 30 33  1  0  0  0  0
 31 33  1  0  0  0  0
 32 29  1  0  0  0  0
 33 32  1  0  0  0  0
 34 28  1  0  0  0  0
 34 29  1  0  0  0  0
 36 35  1  0  0  0  0
 37 36  1  0  0  0  0
M  END
>  <MODEL>
9

>  <REMARK>
 VINA RESULT:      -4.2      5.367     10.299
  Name = 
  9 active torsions:
  status: ('A' for Active; 'I' for Inactive)
    1  A    between atoms: C_3  and  C_32
    2  A    between atoms: C_5  and  C_23
    3  A    between atoms: C_6  and  C_31
    4  A    between atoms: C_6  and  C_35
    5  A    between atoms: C_9  and  C_13
    6  A    between atoms: C_9  and  C_16
    7  A    between atoms: O_11  and  C_26
    8  A    between atoms: C_20  and  C_21
    9  A    between atoms: C_21  and  C_32
                            x       y       z     vdW  Elec       q    Type
                         _______ _______ _______ _____ _____    ______ ____

>  <TORSDO>
F 9

$$$$
