=
 OpenBabel10262422483D

 37 45  0  0  1  0  0  0  0  0999 V2000
  188.9700  177.1410  136.8330 C   0  0  1  0  0  3  0  0  0  0  0  0
  182.4010  175.7700  135.1740 C   0  0  0  0  0  2  0  0  0  0  0  0
  187.4930  177.2700  142.7570 C   0  0  0  0  0  2  0  0  0  0  0  0
  185.1480  178.3160  139.1640 C   0  0  1  0  0  3  0  0  0  0  0  0
  189.0230  177.5250  135.3720 C   0  0  0  0  0  2  0  0  0  0  0  0
  183.3520  175.3750  136.3280 C   0  0  2  0  0  0  0  0  0  0  0  0
  184.6460  174.7100  135.9250 C   0  0  0  0  0  2  0  0  0  0  0  0
  182.8200  175.2100  137.7520 C   0  0  2  0  0  3  0  0  0  0  0  0
  185.5900  179.3130  141.3140 C   0  0  0  0  0  2  0  0  0  0  0  0
  185.9280  177.5860  138.0650 C   0  0  2  0  0  3  0  0  0  0  0  0
  190.2530  177.2360  138.7600 O   0  0  0  0  0  1  0  0  0  0  0  0
  186.1340  179.0150  139.9770 N   0  0  1  0  0  0  0  0  0  0  0  0
  185.2370  176.2670  137.6410 C   0  0  2  0  0  3  0  0  0  0  0  0
  180.9380  175.8960  139.0030 O   0  0  0  0  0  0  0  0  0  0  0  0
  185.2140  178.0760  142.1260 C   0  0  0  0  0  2  0  0  0  0  0  0
  187.9020  176.8220  134.5940 C   0  0  0  0  0  2  0  0  0  0  0  0
  180.4500  175.5540  136.7290 C   0  0  0  0  0  2  0  0  0  0  0  0
  181.3720  175.5900  137.9040 C   0  0  0  0  0  0  0  0  0  0  0  0
  187.2300  178.0550  140.0350 C   0  0  2  0  0  3  0  0  0  0  0  0
  189.4010  177.5840  141.3160 C   0  0  0  0  0  2  0  0  0  0  0  0
  182.9090  178.3930  138.1630 C   0  0  0  0  0  2  0  0  0  0  0  0
  189.8070  178.0210  137.7050 C   0  0  2  0  0  3  0  0  0  0  0  0
  183.6710  180.2100  139.4630 O   0  0  0  0  0  1  0  0  0  0  0  0
  188.4710  178.6330  140.7300 C   0  0  2  0  0  3  0  0  0  0  0  0
  187.7110  175.3160  134.9030 C   0  0  2  0  0  3  0  0  0  0  0  0
  185.7050  175.7200  136.3010 C   0  0  1  0  0  3  0  0  0  0  0  0
  184.1000  179.2460  138.5490 C   0  0  1  0  0  3  0  0  0  0  0  0
  187.3560  177.4300  138.6290 C   0  0  2  0  0  3  0  0  0  0  0  0
  186.2030  177.8910  143.2640 C   0  0  0  0  0  2  0  0  0  0  0  0
  183.7170  176.4120  137.4040 C   0  0  1  0  0  0  0  0  0  0  0  0
  188.4750  178.3240  142.2440 C   0  0  1  0  0  3  0  0  0  0  0  0
  187.0740  175.0760  136.2760 C   0  0  0  0  0  2  0  0  0  0  0  0
  181.0640  176.3690  135.6080 C   0  0  0  0  0  2  0  0  0  0  0  0
  188.2750  178.2020  137.6620 C   0  0  2  0  0  3  0  0  0  0  0  0
  183.2030  177.6640  137.0070 O   0  0  0  0  0  0  0  0  0  0  0  0
  188.9980  174.5150  134.7580 C   0  0  0  0  0  2  0  0  0  0  0  0
  189.1360  173.5240  135.8990 C   0  0  0  0  0  1  0  0  0  0  0  0
  1  5  1  6  0  0  0
  1 34  1  0  0  0  0
  1 22  1  0  0  0  0
  2 33  1  0  0  0  0
  2  6  1  0  0  0  0
  3 29  1  0  0  0  0
  4 12  1  0  0  0  0
  6 30  1  0  0  0  0
  6  8  1  0  0  0  0
  7 26  1  0  0  0  0
  7  6  1  0  0  0  0
  8 18  1  0  0  0  0
  9 15  1  0  0  0  0
 10 28  1  0  0  0  0
 10  4  1  0  0  0  0
 12 19  1  0  0  0  0
 12  9  1  0  0  0  0
 13 10  1  0  0  0  0
 15 29  1  0  0  0  0
 16 25  1  0  0  0  0
 16  5  1  0  0  0  0
 17 18  1  0  0  0  0
 18 14  2  0  0  0  0
 19 24  1  0  0  0  0
 20 31  1  0  0  0  0
 21 27  1  0  0  0  0
 22 11  1  0  0  0  0
 24 20  1  0  0  0  0
 24 31  1  0  0  0  0
 25 32  1  0  0  0  0
 26 13  1  0  0  0  0
 27  4  1  0  0  0  0
 27 23  1  0  0  0  0
 28 19  1  0  0  0  0
 30 13  1  0  0  0  0
 30  8  1  0  0  0  0
 31  3  1  0  0  0  0
 32 26  1  0  0  0  0
 33 17  1  0  0  0  0
 34 22  1  0  0  0  0
 34 28  1  0  0  0  0
 35 30  1  0  0  0  0
 35 21  1  0  0  0  0
 36 25  1  0  0  0  0
 36 37  1  0  0  0  0
M  END
>  <MODEL>
1

>  <REMARK>
 VINA RESULT:      -7.1      0.000      0.000
  Name = 
  1 active torsions:
  status: ('A' for Active; 'I' for Inactive)
    1  A    between atoms: C_11  and  C_26
                            x       y       z     vdW  Elec       q    Type
                         _______ _______ _______ _____ _____    ______ ____

>  <TORSDO>
F 1

$$$$
=
 OpenBabel10262422483D

 37 45  0  0  1  0  0  0  0  0999 V2000
  192.6550  175.5400  136.8650 C   0  0  1  0  0  3  0  0  0  0  0  0
  186.4630  173.4740  134.5940 C   0  0  0  0  0  2  0  0  0  0  0  0
  190.2940  176.7040  142.3760 C   0  0  0  0  0  2  0  0  0  0  0  0
  188.4880  176.8990  138.3500 C   0  0  1  0  0  3  0  0  0  0  0  0
  192.9170  175.6400  135.3790 C   0  0  0  0  0  2  0  0  0  0  0  0
  187.2400  173.3660  135.9260 C   0  0  2  0  0  0  0  0  0  0  0  0
  188.6010  172.7170  135.8500 C   0  0  0  0  0  2  0  0  0  0  0  0
  186.5040  173.4420  137.2650 C   0  0  2  0  0  3  0  0  0  0  0  0
  188.5670  178.3130  140.3020 C   0  0  0  0  0  2  0  0  0  0  0  0
  189.4490  176.0230  137.5400 C   0  0  2  0  0  3  0  0  0  0  0  0
  193.6270  176.0790  138.8980 O   0  0  0  0  0  1  0  0  0  0  0  0
  189.3160  177.8000  139.1410 N   0  0  1  0  0  0  0  0  0  0  0  0
  188.8740  174.6070  137.2910 C   0  0  2  0  0  3  0  0  0  0  0  0
  184.4330  174.2360  138.0740 O   0  0  0  0  0  0  0  0  0  0  0  0
  188.1120  177.2330  141.2800 C   0  0  0  0  0  2  0  0  0  0  0  0
  191.9510  174.7340  134.6050 C   0  0  0  0  0  2  0  0  0  0  0  0
  184.3060  173.4380  135.8670 C   0  0  0  0  0  2  0  0  0  0  0  0
  185.0380  173.7540  137.1300 C   0  0  0  0  0  0  0  0  0  0  0  0
  190.4210  176.9380  139.5430 C   0  0  2  0  0  3  0  0  0  0  0  0
  192.3870  176.8550  141.1870 C   0  0  0  0  0  2  0  0  0  0  0  0
  186.4250  176.6450  137.0460 C   0  0  0  0  0  2  0  0  0  0  0  0
  193.3220  176.6200  137.6560 C   0  0  2  0  0  3  0  0  0  0  0  0
  186.9210  178.7200  138.0560 O   0  0  0  0  0  1  0  0  0  0  0  0
  191.5230  177.7130  140.2790 C   0  0  2  0  0  3  0  0  0  0  0  0
  191.7640  173.3060  135.1750 C   0  0  2  0  0  3  0  0  0  0  0  0
  189.5570  173.8440  136.1660 C   0  0  1  0  0  3  0  0  0  0  0  0
  187.5150  177.6280  137.4210 C   0  0  1  0  0  3  0  0  0  0  0  0
  190.7800  176.0660  138.3210 C   0  0  2  0  0  3  0  0  0  0  0  0
  188.9230  177.3300  142.5610 C   0  0  0  0  0  2  0  0  0  0  0  0
  187.4040  174.6090  136.8170 C   0  0  1  0  0  0  0  0  0  0  0  0
  191.3080  177.7000  141.8090 C   0  0  1  0  0  3  0  0  0  0  0  0
  190.9350  173.2920  136.4640 C   0  0  0  0  0  2  0  0  0  0  0  0
  185.0560  174.0610  134.7060 C   0  0  0  0  0  2  0  0  0  0  0  0
  191.8080  176.6940  137.3610 C   0  0  2  0  0  3  0  0  0  0  0  0
  186.9140  175.7280  136.1110 O   0  0  0  0  0  0  0  0  0  0  0  0
  193.0840  172.5730  135.3760 C   0  0  0  0  0  2  0  0  0  0  0  0
  192.8570  171.0730  135.4130 C   0  0  0  0  0  1  0  0  0  0  0  0
  1  5  1  6  0  0  0
  1 34  1  0  0  0  0
  1 22  1  0  0  0  0
  2 33  1  0  0  0  0
  2  6  1  0  0  0  0
  3 29  1  0  0  0  0
  4 12  1  0  0  0  0
  6 30  1  0  0  0  0
  6  8  1  0  0  0  0
  7  6  1  0  0  0  0
  7 26  1  0  0  0  0
  9 15  1  0  0  0  0
 10 28  1  0  0  0  0
 10  4  1  0  0  0  0
 12 19  1  0  0  0  0
 12  9  1  0  0  0  0
 13 10  1  0  0  0  0
 15 29  1  0  0  0  0
 16 25  1  0  0  0  0
 16  5  1  0  0  0  0
 17 18  1  0  0  0  0
 18  8  1  0  0  0  0
 18 14  2  0  0  0  0
 19 24  1  0  0  0  0
 20 31  1  0  0  0  0
 21 27  1  0  0  0  0
 22 11  1  0  0  0  0
 24 20  1  0  0  0  0
 24 31  1  0  0  0  0
 25 36  1  0  0  0  0
 25 32  1  0  0  0  0
 26 32  1  0  0  0  0
 26 13  1  0  0  0  0
 27 23  1  0  0  0  0
 27  4  1  0  0  0  0
 28 19  1  0  0  0  0
 30  8  1  0  0  0  0
 30 13  1  0  0  0  0
 31  3  1  0  0  0  0
 33 17  1  0  0  0  0
 34 22  1  0  0  0  0
 34 28  1  0  0  0  0
 35 30  1  0  0  0  0
 35 21  1  0  0  0  0
 36 37  1  0  0  0  0
M  END
>  <MODEL>
2

>  <REMARK>
 VINA RESULT:      -6.8      2.703      3.959
  Name = 
  1 active torsions:
  status: ('A' for Active; 'I' for Inactive)
    1  A    between atoms: C_11  and  C_26
                            x       y       z     vdW  Elec       q    Type
                         _______ _______ _______ _____ _____    ______ ____

>  <TORSDO>
F 1

$$$$
=
 OpenBabel10262422483D

 37 45  0  0  1  0  0  0  0  0999 V2000
  186.9800  176.6720  136.8280 C   0  0  1  0  0  3  0  0  0  0  0  0
  183.1260  171.2630  134.9140 C   0  0  0  0  0  2  0  0  0  0  0  0
  182.7900  178.2420  140.9850 C   0  0  0  0  0  2  0  0  0  0  0  0
  182.3790  176.2360  137.0720 C   0  0  1  0  0  3  0  0  0  0  0  0
  187.6200  176.4050  135.4850 C   0  0  0  0  0  2  0  0  0  0  0  0
  183.4350  171.9780  136.2510 C   0  0  2  0  0  0  0  0  0  0  0  0
  184.8930  172.0860  136.6240 C   0  0  0  0  0  2  0  0  0  0  0  0
  182.3580  172.1130  137.3280 C   0  0  2  0  0  3  0  0  0  0  0  0
  181.2920  178.0500  138.2300 C   0  0  0  0  0  2  0  0  0  0  0  0
  183.8050  175.7280  136.8360 C   0  0  2  0  0  3  0  0  0  0  0  0
  186.9870  178.2340  138.5400 O   0  0  0  0  0  1  0  0  0  0  0  0
  182.4980  177.6230  137.4990 N   0  0  1  0  0  0  0  0  0  0  0  0
  183.9430  174.2170  137.1450 C   0  0  2  0  0  3  0  0  0  0  0  0
  180.0030  172.0160  137.4630 O   0  0  0  0  0  0  0  0  0  0  0  0
  181.0250  177.2640  139.5110 C   0  0  0  0  0  2  0  0  0  0  0  0
  187.3790  174.9500  135.0580 C   0  0  0  0  0  2  0  0  0  0  0  0
  180.8830  170.5970  135.8080 C   0  0  0  0  0  2  0  0  0  0  0  0
  181.0060  171.6140  136.8950 C   0  0  0  0  0  0  0  0  0  0  0  0
  183.6740  177.5860  138.3610 C   0  0  2  0  0  3  0  0  0  0  0  0
  184.9070  178.9980  140.1100 C   0  0  0  0  0  2  0  0  0  0  0  0
  181.0910  174.6120  135.7580 C   0  0  0  0  0  2  0  0  0  0  0  0
  186.8890  178.1280  137.1590 C   0  0  2  0  0  3  0  0  0  0  0  0
  180.3920  176.8640  135.8420 O   0  0  0  0  0  1  0  0  0  0  0  0
  184.0970  178.9870  138.8260 C   0  0  2  0  0  3  0  0  0  0  0  0
  187.6070  173.8800  136.1550 C   0  0  2  0  0  3  0  0  0  0  0  0
  185.1800  173.5670  136.5450 C   0  0  1  0  0  3  0  0  0  0  0  0
  181.5320  176.0600  135.8100 C   0  0  1  0  0  3  0  0  0  0  0  0
  184.7020  176.6580  137.6800 C   0  0  2  0  0  3  0  0  0  0  0  0
  181.2990  178.1470  140.7170 C   0  0  0  0  0  2  0  0  0  0  0  0
  182.8130  173.3550  136.5390 C   0  0  1  0  0  0  0  0  0  0  0  0
  183.4480  179.3620  140.1770 C   0  0  1  0  0  3  0  0  0  0  0  0
  186.5000  173.8810  137.2150 C   0  0  0  0  0  2  0  0  0  0  0  0
  181.6410  171.0950  134.5940 C   0  0  0  0  0  2  0  0  0  0  0  0
  185.6380  177.3600  136.6780 C   0  0  2  0  0  3  0  0  0  0  0  0
  182.1630  173.8030  135.3700 O   0  0  0  0  0  0  0  0  0  0  0  0
  188.9790  173.9880  136.8080 C   0  0  0  0  0  2  0  0  0  0  0  0
  190.0290  173.3080  135.9490 C   0  0  0  0  0  1  0  0  0  0  0  0
  1  5  1  6  0  0  0
  1 22  1  0  0  0  0
  2  6  1  0  0  0  0
  4 12  1  0  0  0  0
  6 30  1  0  0  0  0
  6  7  1  0  0  0  0
  6  8  1  0  0  0  0
  9 15  1  0  0  0  0
 10  4  1  0  0  0  0
 10 13  1  0  0  0  0
 10 28  1  0  0  0  0
 12  9  1  0  0  0  0
 12 19  1  0  0  0  0
 15 29  1  0  0  0  0
 16  5  1  0  0  0  0
 16 25  1  0  0  0  0
 17 18  1  0  0  0  0
 18  8  1  0  0  0  0
 18 14  2  0  0  0  0
 19 24  1  0  0  0  0
 20 31  1  0  0  0  0
 21 27  1  0  0  0  0
 22 11  1  0  0  0  0
 24 20  1  0  0  0  0
 24 31  1  0  0  0  0
 25 36  1  0  0  0  0
 25 32  1  0  0  0  0
 26  7  1  0  0  0  0
 26 13  1  0  0  0  0
 26 32  1  0  0  0  0
 27 23  1  0  0  0  0
 27  4  1  0  0  0  0
 28 19  1  0  0  0  0
 29  3  1  0  0  0  0
 30 13  1  0  0  0  0
 30  8  1  0  0  0  0
 31  3  1  0  0  0  0
 33  2  1  0  0  0  0
 33 17  1  0  0  0  0
 34  1  1  0  0  0  0
 34 22  1  0  0  0  0
 34 28  1  0  0  0  0
 35 21  1  0  0  0  0
 35 30  1  0  0  0  0
 37 36  1  0  0  0  0
M  END
>  <MODEL>
3

>  <REMARK>
 VINA RESULT:      -6.3      2.572      3.944
  Name = 
  1 active torsions:
  status: ('A' for Active; 'I' for Inactive)
    1  A    between atoms: C_11  and  C_26
                            x       y       z     vdW  Elec       q    Type
                         _______ _______ _______ _____ _____    ______ ____

>  <TORSDO>
F 1

$$$$
=
 OpenBabel10262422483D

 37 45  0  0  1  0  0  0  0  0999 V2000
  186.8150  176.8420  136.9650 C   0  0  1  0  0  3  0  0  0  0  0  0
  181.1670  173.4040  134.9500 C   0  0  0  0  0  2  0  0  0  0  0  0
  184.1210  178.2530  142.2610 C   0  0  0  0  0  2  0  0  0  0  0  0
  182.4290  177.5960  138.2340 C   0  0  1  0  0  3  0  0  0  0  0  0
  187.0980  176.7970  135.4810 C   0  0  0  0  0  2  0  0  0  0  0  0
  181.9120  173.6120  136.2900 C   0  0  2  0  0  0  0  0  0  0  0  0
  183.3690  173.2190  136.3080 C   0  0  0  0  0  2  0  0  0  0  0  0
  181.1350  173.7240  137.6030 C   0  0  2  0  0  3  0  0  0  0  0  0
  182.1930  179.2390  139.9830 C   0  0  0  0  0  2  0  0  0  0  0  0
  183.5560  176.8130  137.5520 C   0  0  2  0  0  3  0  0  0  0  0  0
  187.6130  177.8070  138.9150 O   0  0  0  0  0  1  0  0  0  0  0  0
  183.0570  178.7260  138.9040 N   0  0  1  0  0  0  0  0  0  0  0  0
  183.2530  175.2960  137.4880 C   0  0  2  0  0  3  0  0  0  0  0  0
  178.9310  174.2230  138.2890 O   0  0  0  0  0  0  0  0  0  0  0  0
  181.9120  178.2290  141.0930 C   0  0  0  0  0  2  0  0  0  0  0  0
  186.3350  175.6370  134.8270 C   0  0  0  0  0  2  0  0  0  0  0  0
  179.0160  173.1380  136.2050 C   0  0  0  0  0  2  0  0  0  0  0  0
  179.6410  173.7430  137.4200 C   0  0  0  0  0  0  0  0  0  0  0  0
  184.2870  178.1400  139.4220 C   0  0  2  0  0  3  0  0  0  0  0  0
  186.1860  178.6310  141.0750 C   0  0  0  0  0  2  0  0  0  0  0  0
  180.4860  176.8030  136.9630 C   0  0  0  0  0  2  0  0  0  0  0  0
  187.2520  178.1180  137.6110 C   0  0  2  0  0  3  0  0  0  0  0  0
  180.5680  179.0460  137.6940 O   0  0  0  0  0  1  0  0  0  0  0  0
  185.2090  179.1920  140.0570 C   0  0  2  0  0  3  0  0  0  0  0  0
  186.3930  174.2840  135.5790 C   0  0  2  0  0  3  0  0  0  0  0  0
  184.0960  174.5320  136.4780 C   0  0  1  0  0  3  0  0  0  0  0  0
  181.3690  178.0090  137.2120 C   0  0  1  0  0  3  0  0  0  0  0  0
  184.8340  177.1990  138.3280 C   0  0  2  0  0  3  0  0  0  0  0  0
  182.6540  178.6360  142.3540 C   0  0  0  0  0  2  0  0  0  0  0  0
  181.8220  174.9680  137.0100 C   0  0  1  0  0  0  0  0  0  0  0  0
  184.9550  179.3360  141.5740 C   0  0  1  0  0  3  0  0  0  0  0  0
  185.5420  174.2850  136.8540 C   0  0  0  0  0  2  0  0  0  0  0  0
  179.6760  173.7330  134.9770 C   0  0  0  0  0  2  0  0  0  0  0  0
  185.7590  177.8750  137.3000 C   0  0  2  0  0  3  0  0  0  0  0  0
  181.1600  175.8790  136.1600 O   0  0  0  0  0  0  0  0  0  0  0  0
  187.8170  173.8370  135.8830 C   0  0  0  0  0  2  0  0  0  0  0  0
  187.8080  172.6240  136.7940 C   0  0  0  0  0  1  0  0  0  0  0  0
  1  5  1  6  0  0  0
  1 34  1  0  0  0  0
  1 22  1  0  0  0  0
  2 33  1  0  0  0  0
  2  6  1  0  0  0  0
  3 29  1  0  0  0  0
  4 12  1  0  0  0  0
  6  7  1  0  0  0  0
  6 30  1  0  0  0  0
  6  8  1  0  0  0  0
  7 26  1  0  0  0  0
  9 15  1  0  0  0  0
 10  4  1  0  0  0  0
 10 28  1  0  0  0  0
 12 19  1  0  0  0  0
 12  9  1  0  0  0  0
 13 10  1  0  0  0  0
 15 29  1  0  0  0  0
 16  5  1  0  0  0  0
 16 25  1  0  0  0  0
 17 18  1  0  0  0  0
 18  8  1  0  0  0  0
 18 14  2  0  0  0  0
 19 24  1  0  0  0  0
 20 31  1  0  0  0  0
 21 27  1  0  0  0  0
 22 11  1  0  0  0  0
 24 20  1  0  0  0  0
 24 31  1  0  0  0  0
 25 36  1  0  0  0  0
 25 32  1  0  0  0  0
 26 32  1  0  0  0  0
 26 13  1  0  0  0  0
 27 23  1  0  0  0  0
 27  4  1  0  0  0  0
 28 19  1  0  0  0  0
 30 13  1  0  0  0  0
 30  8  1  0  0  0  0
 31  3  1  0  0  0  0
 33 17  1  0  0  0  0
 34 22  1  0  0  0  0
 34 28  1  0  0  0  0
 35 21  1  0  0  0  0
 35 30  1  0  0  0  0
 36 37  1  0  0  0  0
M  END
>  <MODEL>
4

>  <REMARK>
 VINA RESULT:      -6.0      1.912      2.785
  Name = 
  1 active torsions:
  status: ('A' for Active; 'I' for Inactive)
    1  A    between atoms: C_11  and  C_26
                            x       y       z     vdW  Elec       q    Type
                         _______ _______ _______ _____ _____    ______ ____

>  <TORSDO>
F 1

$$$$
=
 OpenBabel10262422483D

 37 45  0  0  1  0  0  0  0  0999 V2000
  192.8070  176.4990  138.6780 C   0  0  1  0  0  3  0  0  0  0  0  0
  187.5250  174.3660  134.7630 C   0  0  0  0  0  2  0  0  0  0  0  0
  189.1870  176.5810  143.5960 C   0  0  0  0  0  2  0  0  0  0  0  0
  188.2930  177.2850  139.3280 C   0  0  1  0  0  3  0  0  0  0  0  0
  193.3740  176.8570  137.3230 C   0  0  0  0  0  2  0  0  0  0  0  0
  188.0000  174.1030  136.2120 C   0  0  2  0  0  0  0  0  0  0  0  0
  189.4080  173.5800  136.3650 C   0  0  0  0  0  2  0  0  0  0  0  0
  186.9860  173.9080  137.3400 C   0  0  2  0  0  3  0  0  0  0  0  0
  187.7880  178.3680  141.4220 C   0  0  0  0  0  2  0  0  0  0  0  0
  189.4980  176.6240  138.6490 C   0  0  2  0  0  3  0  0  0  0  0  0
  193.2470  176.7760  140.9360 O   0  0  0  0  0  1  0  0  0  0  0  0
  188.8240  178.1060  140.4070 N   0  0  1  0  0  0  0  0  0  0  0  0
  189.1500  175.2280  138.0780 C   0  0  2  0  0  3  0  0  0  0  0  0
  184.7140  174.4030  137.7480 O   0  0  0  0  0  0  0  0  0  0  0  0
  187.2520  177.1140  142.1070 C   0  0  0  0  0  2  0  0  0  0  0  0
  192.7060  176.0160  136.2260 C   0  0  0  0  0  2  0  0  0  0  0  0
  185.1600  173.9630  135.4830 C   0  0  0  0  0  2  0  0  0  0  0  0
  185.5590  174.1260  136.9130 C   0  0  0  0  0  0  0  0  0  0  0  0
  189.9030  177.2760  140.9310 C   0  0  2  0  0  3  0  0  0  0  0  0
  191.4600  177.0790  142.9590 C   0  0  0  0  0  2  0  0  0  0  0  0
  186.6060  177.0890  137.5570 C   0  0  0  0  0  2  0  0  0  0  0  0
  193.1630  177.4850  139.7450 C   0  0  2  0  0  3  0  0  0  0  0  0
  186.6380  179.0060  138.9340 O   0  0  0  0  0  1  0  0  0  0  0  0
  190.7260  178.0040  142.0040 C   0  0  2  0  0  3  0  0  0  0  0  0
  192.5580  174.5050  136.5320 C   0  0  2  0  0  3  0  0  0  0  0  0
  190.1420  174.7090  137.0480 C   0  0  1  0  0  3  0  0  0  0  0  0
  187.4730  178.0780  138.3090 C   0  0  1  0  0  3  0  0  0  0  0  0
  190.6130  176.6410  139.7160 C   0  0  2  0  0  3  0  0  0  0  0  0
  187.7480  177.0640  143.5420 C   0  0  0  0  0  2  0  0  0  0  0  0
  187.8280  175.1960  137.2800 C   0  0  1  0  0  0  0  0  0  0  0  0
  190.1850  177.7280  143.4250 C   0  0  1  0  0  3  0  0  0  0  0  0
  191.4740  174.2220  137.5780 C   0  0  0  0  0  2  0  0  0  0  0  0
  186.0730  174.8190  134.6270 C   0  0  0  0  0  2  0  0  0  0  0  0
  191.7510  177.4910  139.1190 C   0  0  2  0  0  3  0  0  0  0  0  0
  187.3850  176.3740  136.6430 O   0  0  0  0  0  0  0  0  0  0  0  0
  193.8740  173.8510  136.9310 C   0  0  0  0  0  2  0  0  0  0  0  0
  194.7490  173.6350  135.7100 C   0  0  0  0  0  1  0  0  0  0  0  0
  1  5  1  6  0  0  0
  1 34  1  0  0  0  0
  1 22  1  0  0  0  0
  2  6  1  0  0  0  0
  4 12  1  0  0  0  0
  6  7  1  0  0  0  0
  6 30  1  0  0  0  0
  6  8  1  0  0  0  0
  7 26  1  0  0  0  0
  9 15  1  0  0  0  0
 10  4  1  0  0  0  0
 10 28  1  0  0  0  0
 12 19  1  0  0  0  0
 12  9  1  0  0  0  0
 13 10  1  0  0  0  0
 15 29  1  0  0  0  0
 16 25  1  0  0  0  0
 16  5  1  0  0  0  0
 17 18  1  0  0  0  0
 18  8  1  0  0  0  0
 18 14  2  0  0  0  0
 19 24  1  0  0  0  0
 20 31  1  0  0  0  0
 21 27  1  0  0  0  0
 22 11  1  0  0  0  0
 24 20  1  0  0  0  0
 24 31  1  0  0  0  0
 25 36  1  0  0  0  0
 25 32  1  0  0  0  0
 26 32  1  0  0  0  0
 26 13  1  0  0  0  0
 27 23  1  0  0  0  0
 27  4  1  0  0  0  0
 28 19  1  0  0  0  0
 29  3  1  0  0  0  0
 30  8  1  0  0  0  0
 30 13  1  0  0  0  0
 31  3  1  0  0  0  0
 33  2  1  0  0  0  0
 33 17  1  0  0  0  0
 34 28  1  0  0  0  0
 34 22  1  0  0  0  0
 35 30  1  0  0  0  0
 35 21  1  0  0  0  0
 37 36  1  0  0  0  0
M  END
>  <MODEL>
5

>  <REMARK>
 VINA RESULT:      -6.0      2.646      4.080
  Name = 
  1 active torsions:
  status: ('A' for Active; 'I' for Inactive)
    1  A    between atoms: C_11  and  C_26
                            x       y       z     vdW  Elec       q    Type
                         _______ _______ _______ _____ _____    ______ ____

>  <TORSDO>
F 1

$$$$
=
 OpenBabel10262422483D

 37 45  0  0  1  0  0  0  0  0999 V2000
  185.7940  178.3880  139.8800 C   0  0  1  0  0  3  0  0  0  0  0  0
  189.9050  177.8010  145.4040 C   0  0  0  0  0  2  0  0  0  0  0  0
  188.9730  174.0420  136.9970 C   0  0  0  0  0  2  0  0  0  0  0  0
  190.2190  177.0370  139.9950 C   0  0  1  0  0  3  0  0  0  0  0  0
  185.4650  179.7050  140.5440 C   0  0  0  0  0  2  0  0  0  0  0  0
  189.3160  176.8240  144.3600 C   0  0  2  0  0  0  0  0  0  0  0  0
  187.8120  176.8220  144.2270 C   0  0  0  0  0  2  0  0  0  0  0  0
  190.1280  175.6220  143.8750 C   0  0  2  0  0  3  0  0  0  0  0  0
  191.0450  176.2350  137.8760 C   0  0  0  0  0  2  0  0  0  0  0  0
  188.8740  177.4230  140.6200 C   0  0  2  0  0  3  0  0  0  0  0  0
  185.4260  177.2340  137.9030 O   0  0  0  0  0  1  0  0  0  0  0  0
  190.0260  177.0580  138.5520 N   0  0  1  0  0  0  0  0  0  0  0  0
  188.6510  176.7350  141.9900 C   0  0  2  0  0  3  0  0  0  0  0  0
  192.3920  174.9570  143.8100 O   0  0  0  0  0  0  0  0  0  0  0  0
  191.0080  174.7570  138.2570 C   0  0  0  0  0  2  0  0  0  0  0  0
  185.7760  179.6380  142.0450 C   0  0  0  0  0  2  0  0  0  0  0  0
  191.8840  176.2900  145.6790 C   0  0  0  0  0  2  0  0  0  0  0  0
  191.5360  175.5900  144.4060 C   0  0  0  0  0  0  0  0  0  0  0  0
  188.6870  176.4980  138.4060 C   0  0  2  0  0  3  0  0  0  0  0  0
  187.1140  175.5330  136.6250 C   0  0  0  0  0  2  0  0  0  0  0  0
  191.7450  177.5220  141.8540 C   0  0  0  0  0  2  0  0  0  0  0  0
  185.8280  178.4730  138.3870 C   0  0  2  0  0  3  0  0  0  0  0  0
  192.4380  177.9330  139.6350 O   0  0  0  0  0  1  0  0  0  0  0  0
  188.1900  176.5540  136.9540 C   0  0  2  0  0  3  0  0  0  0  0  0
  185.2950  178.3590  142.7760 C   0  0  2  0  0  3  0  0  0  0  0  0
  187.5700  177.3790  142.8440 C   0  0  1  0  0  3  0  0  0  0  0  0
  191.3230  177.9810  140.4740 C   0  0  1  0  0  3  0  0  0  0  0  0
  187.8240  177.0930  139.5380 C   0  0  2  0  0  3  0  0  0  0  0  0
  190.4850  173.9410  137.0880 C   0  0  0  0  0  2  0  0  0  0  0  0
  189.8760  176.8100  142.9280 C   0  0  1  0  0  0  0  0  0  0  0  0
  188.5260  175.2570  136.1830 C   0  0  1  0  0  3  0  0  0  0  0  0
  186.1380  177.1290  142.4230 C   0  0  0  0  0  2  0  0  0  0  0  0
  191.4210  177.7300  145.5790 C   0  0  0  0  0  2  0  0  0  0  0  0
  187.1440  178.4320  139.1930 C   0  0  2  0  0  3  0  0  0  0  0  0
  190.7760  177.8880  142.7920 O   0  0  0  0  0  0  0  0  0  0  0  0
  183.8140  178.0770  142.5600 C   0  0  0  0  0  2  0  0  0  0  0  0
  182.9700  178.9580  143.4630 C   0  0  0  0  0  1  0  0  0  0  0  0
  1  5  1  1  0  0  0
  2 33  1  0  0  0  0
  3 29  1  0  0  0  0
  4 27  1  0  0  0  0
  4 10  1  0  0  0  0
  5 16  1  0  0  0  0
  6  2  1  0  0  0  0
  7  6  1  0  0  0  0
  8  6  1  0  0  0  0
  8 18  1  0  0  0  0
  9 15  1  0  0  0  0
  9 12  1  0  0  0  0
 10 13  1  0  0  0  0
 11 22  1  0  0  0  0
 12  4  1  0  0  0  0
 13 26  1  0  0  0  0
 13 30  1  0  0  0  0
 14 18  2  0  0  0  0
 16 25  1  0  0  0  0
 18 17  1  0  0  0  0
 19 12  1  0  0  0  0
 19 28  1  0  0  0  0
 20 24  1  0  0  0  0
 21 35  1  0  0  0  0
 22 34  1  0  0  0  0
 22  1  1  0  0  0  0
 23 27  1  0  0  0  0
 24 19  1  0  0  0  0
 26  7  1  0  0  0  0
 27 21  1  0  0  0  0
 28 10  1  0  0  0  0
 29 15  1  0  0  0  0
 30  8  1  0  0  0  0
 30  6  1  0  0  0  0
 31 20  1  0  0  0  0
 31 24  1  0  0  0  0
 31  3  1  0  0  0  0
 32 25  1  0  0  0  0
 32 26  1  0  0  0  0
 33 17  1  0  0  0  0
 34 28  1  0  0  0  0
 34  1  1  0  0  0  0
 35 30  1  0  0  0  0
 36 25  1  0  0  0  0
 36 37  1  0  0  0  0
M  END
>  <MODEL>
6

>  <REMARK>
 VINA RESULT:      -4.8      2.868      8.308
  Name = 
  1 active torsions:
  status: ('A' for Active; 'I' for Inactive)
    1  A    between atoms: C_11  and  C_26
                            x       y       z     vdW  Elec       q    Type
                         _______ _______ _______ _____ _____    ______ ____

>  <TORSDO>
F 1

$$$$
=
 OpenBabel10262422483D

 37 45  0  0  1  0  0  0  0  0999 V2000
  188.6620  177.5920  136.1750 C   0  0  1  0  0  3  0  0  0  0  0  0
  189.3030  178.4530  143.0030 C   0  0  0  0  0  2  0  0  0  0  0  0
  192.5660  172.8980  136.3560 C   0  0  0  0  0  2  0  0  0  0  0  0
  192.2960  176.5400  138.8400 C   0  0  1  0  0  3  0  0  0  0  0  0
  188.1290  179.0030  136.2730 C   0  0  0  0  0  2  0  0  0  0  0  0
  189.2690  177.2400  142.0430 C   0  0  2  0  0  0  0  0  0  0  0  0
  188.0510  177.1280  141.1590 C   0  0  0  0  0  2  0  0  0  0  0  0
  190.1310  176.0070  142.3170 C   0  0  2  0  0  3  0  0  0  0  0  0
  194.0360  175.3390  137.6800 C   0  0  0  0  0  2  0  0  0  0  0  0
  190.8510  176.9800  138.5830 C   0  0  2  0  0  3  0  0  0  0  0  0
  189.2830  176.0150  134.5940 O   0  0  0  0  0  1  0  0  0  0  0  0
  192.8740  176.2350  137.5380 N   0  0  1  0  0  0  0  0  0  0  0  0
  189.9110  176.5980  139.7530 C   0  0  2  0  0  3  0  0  0  0  0  0
  192.0560  175.4670  143.5730 O   0  0  0  0  0  0  0  0  0  0  0  0
  193.7090  173.9810  138.2950 C   0  0  0  0  0  2  0  0  0  0  0  0
  187.6200  179.2830  137.6940 C   0  0  0  0  0  2  0  0  0  0  0  0
  190.7530  177.1480  144.5740 C   0  0  0  0  0  2  0  0  0  0  0  0
  191.0600  176.1680  143.4890 C   0  0  0  0  0  0  0  0  0  0  0  0
  191.7650  175.5840  136.8480 C   0  0  2  0  0  3  0  0  0  0  0  0
  191.2680  174.1690  134.7680 C   0  0  0  0  0  2  0  0  0  0  0  0
  192.6810  177.5030  141.0640 C   0  0  0  0  0  2  0  0  0  0  0  0
  189.4640  177.3490  134.9350 C   0  0  2  0  0  3  0  0  0  0  0  0
  194.4410  177.4540  139.4920 O   0  0  0  0  0  1  0  0  0  0  0  0
  192.0890  175.2940  135.3760 C   0  0  2  0  0  3  0  0  0  0  0  0
  186.7470  178.1720  138.3270 C   0  0  2  0  0  3  0  0  0  0  0  0
  188.5920  177.3550  139.7670 C   0  0  1  0  0  3  0  0  0  0  0  0
  193.0600  177.6250  139.6020 C   0  0  1  0  0  3  0  0  0  0  0  0
  190.4860  176.3660  137.2150 C   0  0  2  0  0  3  0  0  0  0  0  0
  193.8060  172.9020  137.2310 C   0  0  0  0  0  2  0  0  0  0  0  0
  190.4820  176.9430  141.1460 C   0  0  1  0  0  0  0  0  0  0  0  0
  192.6840  173.8800  135.1880 C   0  0  1  0  0  3  0  0  0  0  0  0
  187.5660  176.9420  138.7330 C   0  0  0  0  0  2  0  0  0  0  0  0
  190.5060  178.5040  143.9440 C   0  0  0  0  0  2  0  0  0  0  0  0
  190.1720  177.5580  136.2910 C   0  0  2  0  0  3  0  0  0  0  0  0
  191.3950  178.0120  141.2650 O   0  0  0  0  0  0  0  0  0  0  0  0
  185.5720  177.7700  137.4460 C   0  0  0  0  0  2  0  0  0  0  0  0
  184.2680  177.8890  138.2140 C   0  0  0  0  0  1  0  0  0  0  0  0
  1  5  1  6  0  0  0
  1 34  1  0  0  0  0
  2 33  1  0  0  0  0
  3 29  1  0  0  0  0
  4 27  1  0  0  0  0
  5 16  1  0  0  0  0
  6  8  1  0  0  0  0
  6  2  1  0  0  0  0
  7  6  1  0  0  0  0
  8 18  1  0  0  0  0
  9 15  1  0  0  0  0
 10  4  1  0  0  0  0
 10 13  1  0  0  0  0
 11 22  1  0  0  0  0
 12  9  1  0  0  0  0
 12  4  1  0  0  0  0
 13 26  1  0  0  0  0
 13 30  1  0  0  0  0
 16 25  1  0  0  0  0
 18 14  2  0  0  0  0
 18 17  1  0  0  0  0
 19 28  1  0  0  0  0
 19 12  1  0  0  0  0
 20 31  1  0  0  0  0
 20 24  1  0  0  0  0
 21 35  1  0  0  0  0
 22  1  1  0  0  0  0
 22 34  1  0  0  0  0
 23 27  1  0  0  0  0
 24 19  1  0  0  0  0
 25 32  1  0  0  0  0
 26  7  1  0  0  0  0
 27 21  1  0  0  0  0
 28 10  1  0  0  0  0
 29 15  1  0  0  0  0
 30 35  1  0  0  0  0
 30  6  1  0  0  0  0
 30  8  1  0  0  0  0
 31 24  1  0  0  0  0
 31  3  1  0  0  0  0
 32 26  1  0  0  0  0
 33 17  1  0  0  0  0
 34 28  1  0  0  0  0
 36 37  1  0  0  0  0
 36 25  1  0  0  0  0
M  END
>  <MODEL>
7

>  <REMARK>
 VINA RESULT:      -4.7      3.554      8.012
  Name = 
  1 active torsions:
  status: ('A' for Active; 'I' for Inactive)
    1  A    between atoms: C_11  and  C_26
                            x       y       z     vdW  Elec       q    Type
                         _______ _______ _______ _____ _____    ______ ____

>  <TORSDO>
F 1

$$$$
=
 OpenBabel10262422483D

 37 45  0  0  1  0  0  0  0  0999 V2000
  183.0250  172.0130  135.4360 C   0  0  1  0  0  3  0  0  0  0  0  0
  181.4480  178.2020  138.0780 C   0  0  0  0  0  2  0  0  0  0  0  0
  188.8570  172.7410  137.0980 C   0  0  0  0  0  2  0  0  0  0  0  0
  185.7950  175.6910  135.9010 C   0  0  1  0  0  3  0  0  0  0  0  0
  181.7120  172.2330  134.7200 C   0  0  0  0  0  2  0  0  0  0  0  0
  182.4040  177.0490  138.4650 C   0  0  2  0  0  0  0  0  0  0  0  0
  181.7690  175.6920  138.6470 C   0  0  0  0  0  2  0  0  0  0  0  0
  183.7650  177.3470  139.0950 C   0  0  2  0  0  3  0  0  0  0  0  0
  188.1010  175.2450  135.3560 C   0  0  0  0  0  2  0  0  0  0  0  0
  184.5030  174.8970  136.1190 C   0  0  2  0  0  3  0  0  0  0  0  0
  184.8350  170.5660  135.4570 O   0  0  0  0  0  1  0  0  0  0  0  0
  186.7040  174.8130  135.1760 N   0  0  1  0  0  0  0  0  0  0  0  0
  183.7920  175.2930  137.4360 C   0  0  2  0  0  3  0  0  0  0  0  0
  185.2560  179.1720  139.2480 O   0  0  0  0  0  0  0  0  0  0  0  0
  188.5870  175.2070  136.8030 C   0  0  0  0  0  2  0  0  0  0  0  0
  180.8440  173.2350  135.4940 C   0  0  0  0  0  2  0  0  0  0  0  0
  183.0030  179.8370  139.1650 C   0  0  0  0  0  2  0  0  0  0  0  0
  184.0920  178.8150  139.1610 C   0  0  0  0  0  0  0  0  0  0  0  0
  186.4490  173.5170  135.7960 C   0  0  2  0  0  3  0  0  0  0  0  0
  187.4390  171.1570  135.9580 C   0  0  0  0  0  2  0  0  0  0  0  0
  184.9780  177.9860  136.1910 C   0  0  0  0  0  2  0  0  0  0  0  0
  184.0450  171.3140  134.5940 C   0  0  2  0  0  3  0  0  0  0  0  0
  186.6570  177.5370  134.5950 O   0  0  0  0  0  1  0  0  0  0  0  0
  187.1980  172.3790  135.0880 C   0  0  2  0  0  3  0  0  0  0  0  0
  180.7650  173.0150  137.0250 C   0  0  2  0  0  3  0  0  0  0  0  0
  182.3320  174.8730  137.5090 C   0  0  1  0  0  3  0  0  0  0  0  0
  185.5020  177.0010  135.1670 C   0  0  1  0  0  3  0  0  0  0  0  0
  184.9250  173.4160  136.0160 C   0  0  2  0  0  3  0  0  0  0  0  0
  189.5800  174.0710  136.9790 C   0  0  0  0  0  2  0  0  0  0  0  0
  183.6880  176.8190  137.6500 C   0  0  1  0  0  0  0  0  0  0  0  0
  188.5780  172.1140  135.7300 C   0  0  1  0  0  3  0  0  0  0  0  0
  182.0630  173.4020  137.7410 C   0  0  0  0  0  2  0  0  0  0  0  0
  182.0970  179.5810  137.9760 C   0  0  0  0  0  2  0  0  0  0  0  0
  184.1390  172.8380  134.8240 C   0  0  2  0  0  3  0  0  0  0  0  0
  183.6580  177.6670  136.5240 O   0  0  0  0  0  0  0  0  0  0  0  0
  180.3450  171.6000  137.3970 C   0  0  0  0  0  2  0  0  0  0  0  0
  178.9550  171.3020  136.8640 C   0  0  0  0  0  1  0  0  0  0  0  0
  1  5  1  6  0  0  0
  2  6  1  0  0  0  0
  4 10  1  0  0  0  0
  5 16  1  0  0  0  0
  6  7  1  0  0  0  0
  6  8  1  0  0  0  0
  8 18  1  0  0  0  0
  9 15  1  0  0  0  0
 10 13  1  0  0  0  0
 12  9  1  0  0  0  0
 12 19  1  0  0  0  0
 12  4  1  0  0  0  0
 13 26  1  0  0  0  0
 13 30  1  0  0  0  0
 15 29  1  0  0  0  0
 16 25  1  0  0  0  0
 18 17  1  0  0  0  0
 18 14  2  0  0  0  0
 19 28  1  0  0  0  0
 21 35  1  0  0  0  0
 22 34  1  0  0  0  0
 22  1  1  0  0  0  0
 22 11  1  0  0  0  0
 23 27  1  0  0  0  0
 24 31  1  0  0  0  0
 24 19  1  0  0  0  0
 24 20  1  0  0  0  0
 25 36  1  0  0  0  0
 25 32  1  0  0  0  0
 26 32  1  0  0  0  0
 26  7  1  0  0  0  0
 27  4  1  0  0  0  0
 27 21  1  0  0  0  0
 28 10  1  0  0  0  0
 29  3  1  0  0  0  0
 30  6  1  0  0  0  0
 30  8  1  0  0  0  0
 31 20  1  0  0  0  0
 31  3  1  0  0  0  0
 33  2  1  0  0  0  0
 33 17  1  0  0  0  0
 34  1  1  0  0  0  0
 34 28  1  0  0  0  0
 35 30  1  0  0  0  0
 37 36  1  0  0  0  0
M  END
>  <MODEL>
8

>  <REMARK>
 VINA RESULT:      -4.6      2.973      6.462
  Name = 
  1 active torsions:
  status: ('A' for Active; 'I' for Inactive)
    1  A    between atoms: C_11  and  C_26
                            x       y       z     vdW  Elec       q    Type
                         _______ _______ _______ _____ _____    ______ ____

>  <TORSDO>
F 1

$$$$
=
 OpenBabel10262422483D

 37 45  0  0  1  0  0  0  0  0999 V2000
  184.2030  177.0580  136.2720 C   0  0  1  0  0  3  0  0  0  0  0  0
  186.4990  177.5220  142.7740 C   0  0  0  0  0  2  0  0  0  0  0  0
  180.3840  181.7240  137.2410 C   0  0  0  0  0  2  0  0  0  0  0  0
  181.9230  178.6230  139.9830 C   0  0  1  0  0  3  0  0  0  0  0  0
  184.8320  175.6880  136.3850 C   0  0  0  0  0  2  0  0  0  0  0  0
  186.0450  178.5290  141.6910 C   0  0  2  0  0  0  0  0  0  0  0  0
  186.7780  178.4620  140.3740 C   0  0  0  0  0  2  0  0  0  0  0  0
  185.2840  179.7970  142.0790 C   0  0  2  0  0  3  0  0  0  0  0  0
  179.7760  179.5910  139.4670 C   0  0  0  0  0  2  0  0  0  0  0  0
  183.1620  178.1320  139.2270 C   0  0  2  0  0  3  0  0  0  0  0  0
  182.8700  178.3070  134.8460 O   0  0  0  0  0  1  0  0  0  0  0  0
  180.8400  178.6780  139.0110 N   0  0  1  0  0  0  0  0  0  0  0  0
  184.4700  178.7250  139.8070 C   0  0  2  0  0  3  0  0  0  0  0  0
  184.0130  180.5790  143.9090 O   0  0  0  0  0  0  0  0  0  0  0  0
  180.2260  181.0390  139.6390 C   0  0  0  0  0  2  0  0  0  0  0  0
  185.9010  175.6810  137.4860 C   0  0  0  0  0  2  0  0  0  0  0  0
  185.7340  179.1130  144.5510 C   0  0  0  0  0  2  0  0  0  0  0  0
  184.9350  179.8680  143.5410 C   0  0  0  0  0  0  0  0  0  0  0  0
  181.5140  179.1770  137.8180 C   0  0  2  0  0  3  0  0  0  0  0  0
  181.0020  180.1650  135.5080 C   0  0  0  0  0  2  0  0  0  0  0  0
  182.5630  178.1050  142.2950 C   0  0  0  0  0  2  0  0  0  0  0  0
  182.9460  177.0640  135.4610 C   0  0  2  0  0  3  0  0  0  0  0  0
  180.3130  177.8640  141.6230 O   0  0  0  0  0  1  0  0  0  0  0  0
  180.5910  179.1830  136.5910 C   0  0  2  0  0  3  0  0  0  0  0  0
  186.8730  176.8880  137.4890 C   0  0  2  0  0  3  0  0  0  0  0  0
  185.7300  177.9770  139.4000 C   0  0  1  0  0  3  0  0  0  0  0  0
  181.6250  177.7090  141.1730 C   0  0  1  0  0  3  0  0  0  0  0  0
  182.8850  178.4720  137.7470 C   0  0  2  0  0  3  0  0  0  0  0  0
  179.6190  181.8960  138.5410 C   0  0  0  0  0  2  0  0  0  0  0  0
  184.5510  178.6560  141.3480 C   0  0  1  0  0  0  0  0  0  0  0  0
  179.8680  180.5380  136.4240 C   0  0  1  0  0  3  0  0  0  0  0  0
  186.2050  178.1780  137.9770 C   0  0  0  0  0  2  0  0  0  0  0  0
  185.7990  177.6590  144.1250 C   0  0  0  0  0  2  0  0  0  0  0  0
  182.8770  177.1230  137.0020 C   0  0  2  0  0  3  0  0  0  0  0  0
  183.8510  177.6360  142.0250 O   0  0  0  0  0  0  0  0  0  0  0  0
  187.5470  177.1060  136.1410 C   0  0  0  0  0  2  0  0  0  0  0  0
  187.3880  178.5490  135.6970 C   0  0  0  0  0  1  0  0  0  0  0  0
  1  5  1  1  0  0  0
  1 34  1  0  0  0  0
  2 33  1  0  0  0  0
  3 29  1  0  0  0  0
  4 27  1  0  0  0  0
  5 16  1  0  0  0  0
  6  8  1  0  0  0  0
  6  2  1  0  0  0  0
  7  6  1  0  0  0  0
  8 18  1  0  0  0  0
  9 15  1  0  0  0  0
 10 13  1  0  0  0  0
 10  4  1  0  0  0  0
 11 22  1  0  0  0  0
 12  9  1  0  0  0  0
 12  4  1  0  0  0  0
 13 30  1  0  0  0  0
 16 25  1  0  0  0  0
 18 14  2  0  0  0  0
 18 17  1  0  0  0  0
 19 12  1  0  0  0  0
 20 31  1  0  0  0  0
 20 24  1  0  0  0  0
 22  1  1  0  0  0  0
 22 34  1  0  0  0  0
 24 19  1  0  0  0  0
 25 32  1  0  0  0  0
 26 13  1  0  0  0  0
 26  7  1  0  0  0  0
 27 23  1  0  0  0  0
 27 21  1  0  0  0  0
 28 19  1  0  0  0  0
 28 10  1  0  0  0  0
 29 15  1  0  0  0  0
 30  6  1  0  0  0  0
 30 35  1  0  0  0  0
 30  8  1  0  0  0  0
 31 24  1  0  0  0  0
 31  3  1  0  0  0  0
 32 26  1  0  0  0  0
 33 17  1  0  0  0  0
 34 28  1  0  0  0  0
 35 21  1  0  0  0  0
 36 25  1  0  0  0  0
 37 36  1  0  0  0  0
M  END
>  <MODEL>
9

>  <REMARK>
 VINA RESULT:      -4.6      2.579      6.577
  Name = 
  1 active torsions:
  status: ('A' for Active; 'I' for Inactive)
    1  A    between atoms: C_11  and  C_26
                            x       y       z     vdW  Elec       q    Type
                         _______ _______ _______ _____ _____    ______ ____

>  <TORSDO>
F 1

$$$$
