=
 OpenBabel10262419393D

 31 34  0  0  1  0  0  0  0  0999 V2000
  190.4040  177.6560  145.2830 O   0  0  0  0  0  0  0  0  0  0  0  0
  188.6340  178.6950  142.5360 C   0  0  1  0  0  3  0  0  0  0  0  0
  187.4560  178.3160  143.4160 C   0  0  0  0  0  0  0  0  0  0  0  0
  186.4630  177.5110  145.4820 C   0  0  0  0  0  3  0  0  0  0  0  0
  190.0220  178.1770  142.9370 C   0  0  1  0  0  3  0  0  0  0  0  0
  191.6120  175.7660  144.4550 C   0  0  0  0  0  2  0  0  0  0  0  0
  187.5920  177.7790  144.7030 C   0  0  0  0  0  3  0  0  0  0  0  0
  189.0670  177.1600  140.5030 C   0  0  0  0  0  0  0  0  0  0  0  0
  191.6490  177.0220  145.3130 C   0  0  0  0  0  2  0  0  0  0  0  0
  186.0800  179.1400  141.5370 C   0  0  0  0  0  2  0  0  0  0  0  0
  185.1870  177.7890  144.9830 C   0  0  0  0  0  3  0  0  0  0  0  0
  189.8630  176.4440  141.2310 N   0  0  0  0  0  0  0  0  0  0  0  0
  188.3570  178.3960  141.0300 C   0  0  1  0  0  3  0  0  0  0  0  0
  190.5230  178.6550  144.3100 C   0  0  0  0  0  2  0  0  0  0  0  0
  183.4180  178.6640  143.1080 Cl  0  0  0  0  0  0  0  0  0  0  0  0
  190.1250  176.6780  142.6360 C   0  0  1  0  0  3  0  0  0  0  0  0
  191.5020  176.1170  142.9760 C   0  0  0  0  0  2  0  0  0  0  0  0
  186.9270  178.3310  140.6610 N   0  0  0  0  0  2  0  0  0  0  0  0
  186.1750  178.5970  142.9240 C   0  0  0  0  0  0  0  0  0  0  0  0
  185.0370  178.3340  143.7040 C   0  0  0  0  0  0  0  0  0  0  0  0
  188.9120  176.8110  139.0540 C   0  0  0  0  0  2  0  0  0  0  0  0
  189.1360  178.7450  137.4650 C   0  0  0  0  0  1  0  0  0  0  0  0
  189.8700  177.6280  138.1900 C   0  0  2  0  0  3  0  0  0  0  0  0
  189.9040  176.5970  135.8860 C   0  0  0  0  0  1  0  0  0  0  0  0
  190.6650  176.7550  137.2050 C   0  0  2  0  0  3  0  0  0  0  0  0
  190.2470  174.3850  137.1150 C   0  0  0  0  0  1  0  0  0  0  0  0
  190.9950  175.4420  137.7920 N   0  0  0  0  0  0  0  0  0  0  0  0
  192.4320  175.1350  137.6820 C   0  0  0  0  0  2  0  0  0  0  0  0
  193.3260  176.3180  137.9250 C   0  0  0  0  0  0  0  0  0  0  0  0
  194.0350  176.7750  136.9900 O   0  0  0  0  0  0  0  0  0  0  0  0
  193.3670  176.9160  139.1780 O   0  0  0  0  0  1  0  0  0  0  0  0
  1  9  1  0  0  0  0
  2  5  1  0  0  0  0
  2  3  1  1  0  0  0
  3  7  1  0  0  0  0
  5 14  1  1  0  0  0
  6  9  1  0  0  0  0
  7  4  2  0  0  0  0
  8 12  2  0  0  0  0
 10 19  1  0  0  0  0
 11  4  1  0  0  0  0
 12 16  1  0  0  0  0
 13  8  1  1  0  0  0
 13  2  1  0  0  0  0
 14  1  1  0  0  0  0
 15 20  1  0  0  0  0
 16  5  1  0  0  0  0
 16 17  1  6  0  0  0
 17  6  1  0  0  0  0
 18 13  1  0  0  0  0
 18 10  1  0  0  0  0
 19  3  2  0  0  0  0
 19 20  1  0  0  0  0
 20 11  2  0  0  0  0
 21  8  1  0  0  0  0
 23 22  1  6  0  0  0
 23 21  1  0  0  0  0
 25 24  1  6  0  0  0
 25 27  1  0  0  0  0
 25 23  1  0  0  0  0
 26 27  1  0  0  0  0
 28 27  1  0  0  0  0
 28 29  1  0  0  0  0
 29 31  1  0  0  0  0
 30 29  2  0  0  0  0
M  END
>  <MODEL>
1

>  <REMARK>
 VINA RESULT:      -7.9      0.000      0.000
  Name = 
  6 active torsions:
  status: ('A' for Active; 'I' for Inactive)
    1  A    between atoms: C_1  and  C_24
    2  A    between atoms: C_9  and  C_22
    3  A    between atoms: C_9  and  C_23
    4  A    between atoms: C_15  and  C_23
    5  A    between atoms: N_19  and  C_22
    6  A    between atoms: N_19  and  C_24
                            x       y       z     vdW  Elec       q    Type
                         _______ _______ _______ _____ _____    ______ ____

>  <TORSDO>
F 6

$$$$
=
 OpenBabel10262419393D

 31 34  0  0  1  0  0  0  0  0999 V2000
  180.9610  178.4310  138.4570 O   0  0  0  0  0  0  0  0  0  0  0  0
  184.2960  179.0700  138.9260 C   0  0  1  0  0  3  0  0  0  0  0  0
  184.4380  177.8860  137.9850 C   0  0  0  0  0  0  0  0  0  0  0  0
  183.5500  176.1320  136.5590 C   0  0  0  0  0  3  0  0  0  0  0  0
  182.9330  179.2960  139.5910 C   0  0  1  0  0  3  0  0  0  0  0  0
  180.2220  177.8160  140.6460 C   0  0  0  0  0  2  0  0  0  0  0  0
  183.3490  177.1720  137.4700 C   0  0  0  0  0  3  0  0  0  0  0  0
  184.9980  178.6550  141.3790 C   0  0  0  0  0  0  0  0  0  0  0  0
  179.9180  178.5920  139.3740 C   0  0  0  0  0  2  0  0  0  0  0  0
  186.8630  178.3230  138.1660 C   0  0  0  0  0  2  0  0  0  0  0  0
  184.8440  175.8030  136.1480 C   0  0  0  0  0  3  0  0  0  0  0  0
  183.7800  178.3120  141.6540 N   0  0  0  0  0  0  0  0  0  0  0  0
  185.4340  179.1050  139.9940 C   0  0  1  0  0  3  0  0  0  0  0  0
  181.7710  179.5610  138.6190 C   0  0  0  0  0  2  0  0  0  0  0  0
  187.5530  176.0680  136.1120 Cl  0  0  0  0  0  0  0  0  0  0  0  0
  182.7060  178.2460  140.6850 C   0  0  1  0  0  3  0  0  0  0  0  0
  181.3790  178.4490  141.4100 C   0  0  0  0  0  2  0  0  0  0  0  0
  186.6670  178.3840  139.6140 N   0  0  0  0  0  2  0  0  0  0  0  0
  185.7330  177.5550  137.5650 C   0  0  0  0  0  0  0  0  0  0  0  0
  185.9410  176.5130  136.6470 C   0  0  0  0  0  0  0  0  0  0  0  0
  185.9990  178.7000  142.4920 C   0  0  0  0  0  2  0  0  0  0  0  0
  184.7670  179.3730  144.5770 C   0  0  0  0  0  1  0  0  0  0  0  0
  185.3800  178.2170  143.8030 C   0  0  2  0  0  3  0  0  0  0  0  0
  186.3070  177.8960  146.1290 C   0  0  0  0  0  1  0  0  0  0  0  0
  186.3780  177.4330  144.6710 C   0  0  2  0  0  3  0  0  0  0  0  0
  188.6810  177.8690  145.2220 C   0  0  0  0  0  1  0  0  0  0  0  0
  187.7520  177.5390  144.1440 N   0  0  0  0  0  0  0  0  0  0  0  0
  188.1990  176.2840  143.5150 C   0  0  0  0  0  2  0  0  0  0  0  0
  189.3360  176.4590  142.5490 C   0  0  0  0  0  0  0  0  0  0  0  0
  190.2360  175.5820  142.4690 O   0  0  0  0  0  1  0  0  0  0  0  0
  189.3940  177.5830  141.7360 O   0  0  0  0  0  0  0  0  0  0  0  0
  1 14  1  0  0  0  0
  1  9  1  0  0  0  0
  2  3  1  1  0  0  0
  2  5  1  0  0  0  0
  2 13  1  0  0  0  0
  4  7  1  0  0  0  0
  5 14  1  6  0  0  0
  5 16  1  0  0  0  0
  6 17  1  0  0  0  0
  7  3  2  0  0  0  0
  8 12  2  0  0  0  0
  8 21  1  0  0  0  0
  9  6  1  0  0  0  0
 10 18  1  0  0  0  0
 11  4  2  0  0  0  0
 11 20  1  0  0  0  0
 13 18  1  6  0  0  0
 13  8  1  0  0  0  0
 15 20  1  0  0  0  0
 16 17  1  1  0  0  0
 16 12  1  0  0  0  0
 19  3  1  0  0  0  0
 19 10  1  0  0  0  0
 20 19  2  0  0  0  0
 21 23  1  0  0  0  0
 23 22  1  1  0  0  0
 23 25  1  0  0  0  0
 25 24  1  1  0  0  0
 27 25  1  0  0  0  0
 27 26  1  0  0  0  0
 28 27  1  0  0  0  0
 29 28  1  0  0  0  0
 30 29  1  0  0  0  0
 31 29  2  0  0  0  0
M  END
>  <MODEL>
2

>  <REMARK>
 VINA RESULT:      -7.3      4.297      8.020
  Name = 
  6 active torsions:
  status: ('A' for Active; 'I' for Inactive)
    1  A    between atoms: C_1  and  C_24
    2  A    between atoms: C_9  and  C_22
    3  A    between atoms: C_9  and  C_23
    4  A    between atoms: C_15  and  C_23
    5  A    between atoms: N_19  and  C_22
    6  A    between atoms: N_19  and  C_24
                            x       y       z     vdW  Elec       q    Type
                         _______ _______ _______ _____ _____    ______ ____

>  <TORSDO>
F 6

$$$$
=
 OpenBabel10262419393D

 31 34  0  0  1  0  0  0  0  0999 V2000
  184.1390  179.2760  143.6830 O   0  0  0  0  0  0  0  0  0  0  0  0
  186.6110  178.9900  141.3240 C   0  0  1  0  0  3  0  0  0  0  0  0
  185.4590  178.4590  140.4890 C   0  0  0  0  0  0  0  0  0  0  0  0
  183.1280  177.8790  140.1310 C   0  0  0  0  0  3  0  0  0  0  0  0
  186.4140  179.0730  142.8430 C   0  0  1  0  0  3  0  0  0  0  0  0
  184.8510  177.7580  145.3880 C   0  0  0  0  0  2  0  0  0  0  0  0
  184.1530  178.3150  140.9740 C   0  0  0  0  0  3  0  0  0  0  0  0
  188.3900  177.2540  142.0320 C   0  0  0  0  0  0  0  0  0  0  0  0
  184.2510  179.1190  145.0670 C   0  0  0  0  0  2  0  0  0  0  0  0
  187.1370  178.3100  138.6820 C   0  0  0  0  0  2  0  0  0  0  0  0
  183.4000  177.5910  138.7910 C   0  0  0  0  0  3  0  0  0  0  0  0
  187.7240  177.0360  143.1200 N   0  0  0  0  0  0  0  0  0  0  0  0
  187.9550  178.2700  140.9890 C   0  0  1  0  0  3  0  0  0  0  0  0
  185.2760  179.9990  143.3020 C   0  0  0  0  0  2  0  0  0  0  0  0
  185.0030  177.3600  136.6030 Cl  0  0  0  0  0  0  0  0  0  0  0  0
  186.4640  177.6680  143.4520 C   0  0  1  0  0  3  0  0  0  0  0  0
  186.3150  177.6930  144.9710 C   0  0  0  0  0  2  0  0  0  0  0  0
  188.0100  177.6480  139.6490 N   0  0  0  0  0  2  0  0  0  0  0  0
  185.7240  178.1730  139.1430 C   0  0  0  0  0  0  0  0  0  0  0  0
  184.6970  177.7370  138.2910 C   0  0  0  0  0  0  0  0  0  0  0  0
  189.6940  176.5430  141.8350 C   0  0  0  0  0  2  0  0  0  0  0  0
  191.7580  177.6060  140.8730 C   0  0  0  0  0  1  0  0  0  0  0  0
  190.8720  177.4780  142.1020 C   0  0  2  0  0  3  0  0  0  0  0  0
  191.4840  175.5720  143.6400 C   0  0  0  0  0  1  0  0  0  0  0  0
  191.6890  177.0590  143.3350 C   0  0  2  0  0  3  0  0  0  0  0  0
  190.8760  179.2010  144.0760 C   0  0  0  0  0  1  0  0  0  0  0  0
  191.3640  177.8930  144.5070 N   0  0  0  0  0  0  0  0  0  0  0  0
  190.3330  177.2710  145.3570 C   0  0  0  0  0  2  0  0  0  0  0  0
  190.7550  177.0830  146.7870 C   0  0  0  0  0  0  0  0  0  0  0  0
  189.9400  177.3080  147.7190 O   0  0  0  0  0  1  0  0  0  0  0  0
  192.0410  176.6520  147.0830 O   0  0  0  0  0  0  0  0  0  0  0  0
  1  9  1  0  0  0  0
  2  3  1  6  0  0  0
  2  5  1  0  0  0  0
  3  7  1  0  0  0  0
  4  7  2  0  0  0  0
  5 14  1  6  0  0  0
  5 16  1  0  0  0  0
  8 12  2  0  0  0  0
  9  6  1  0  0  0  0
 10 19  1  0  0  0  0
 10 18  1  0  0  0  0
 11  4  1  0  0  0  0
 12 16  1  0  0  0  0
 13 18  1  6  0  0  0
 13  2  1  0  0  0  0
 13  8  1  0  0  0  0
 14  1  1  0  0  0  0
 15 20  1  0  0  0  0
 16 17  1  1  0  0  0
 17  6  1  0  0  0  0
 19  3  2  0  0  0  0
 20 11  2  0  0  0  0
 20 19  1  0  0  0  0
 21  8  1  0  0  0  0
 21 23  1  0  0  0  0
 23 22  1  6  0  0  0
 23 25  1  0  0  0  0
 25 24  1  1  0  0  0
 25 27  1  0  0  0  0
 26 27  1  0  0  0  0
 27 28  1  0  0  0  0
 28 29  1  0  0  0  0
 29 31  2  0  0  0  0
 29 30  1  0  0  0  0
M  END
>  <MODEL>
3

>  <REMARK>
 VINA RESULT:      -7.3      3.493      5.978
  Name = 
  6 active torsions:
  status: ('A' for Active; 'I' for Inactive)
    1  A    between atoms: C_1  and  C_24
    2  A    between atoms: C_9  and  C_22
    3  A    between atoms: C_9  and  C_23
    4  A    between atoms: C_15  and  C_23
    5  A    between atoms: N_19  and  C_22
    6  A    between atoms: N_19  and  C_24
                            x       y       z     vdW  Elec       q    Type
                         _______ _______ _______ _____ _____    ______ ____

>  <TORSDO>
F 6

$$$$
=
 OpenBabel10262419393D

 31 34  0  0  1  0  0  0  0  0999 V2000
  190.3680  177.5880  145.3500 O   0  0  0  0  0  0  0  0  0  0  0  0
  188.8570  178.6080  142.4460 C   0  0  1  0  0  3  0  0  0  0  0  0
  187.6030  178.2440  143.2210 C   0  0  0  0  0  0  0  0  0  0  0  0
  186.4240  177.4640  145.1970 C   0  0  0  0  0  3  0  0  0  0  0  0
  190.2000  178.0880  142.9740 C   0  0  1  0  0  3  0  0  0  0  0  0
  191.6360  175.6850  144.6510 C   0  0  0  0  0  2  0  0  0  0  0  0
  187.6200  177.7180  144.5190 C   0  0  0  0  0  3  0  0  0  0  0  0
  189.4610  177.0520  140.4740 C   0  0  0  0  0  0  0  0  0  0  0  0
  191.6030  176.9490  145.4970 C   0  0  0  0  0  2  0  0  0  0  0  0
  186.4050  179.0550  141.2180 C   0  0  0  0  0  2  0  0  0  0  0  0
  185.2000  177.7420  144.5830 C   0  0  0  0  0  3  0  0  0  0  0  0
  190.1850  176.3390  141.2770 N   0  0  0  0  0  0  0  0  0  0  0  0
  188.7140  178.2960  140.9240 C   0  0  1  0  0  3  0  0  0  0  0  0
  190.5790  178.5770  144.3820 C   0  0  0  0  0  2  0  0  0  0  0  0
  183.6110  178.6080  142.5500 Cl  0  0  0  0  0  0  0  0  0  0  0  0
  190.3220  176.5860  142.6970 C   0  0  1  0  0  3  0  0  0  0  0  0
  191.6600  176.0210  143.1650 C   0  0  0  0  0  2  0  0  0  0  0  0
  187.3220  178.2340  140.4300 N   0  0  0  0  0  2  0  0  0  0  0  0
  186.3720  178.5260  142.6140 C   0  0  0  0  0  0  0  0  0  0  0  0
  185.1680  178.2750  143.2910 C   0  0  0  0  0  0  0  0  0  0  0  0
  189.4350  176.6890  139.0210 C   0  0  0  0  0  2  0  0  0  0  0  0
  191.8280  176.7390  138.2580 C   0  0  0  0  0  1  0  0  0  0  0  0
  190.6550  175.8520  138.6440 C   0  0  2  0  0  3  0  0  0  0  0  0
  191.5920  174.5570  136.6900 C   0  0  0  0  0  1  0  0  0  0  0  0
  190.3480  174.8250  137.5410 C   0  0  2  0  0  3  0  0  0  0  0  0
  189.6780  175.6230  135.3710 C   0  0  0  0  0  1  0  0  0  0  0  0
  189.2110  175.2550  136.7050 N   0  0  0  0  0  0  0  0  0  0  0  0
  188.1990  174.1940  136.5650 C   0  0  0  0  0  2  0  0  0  0  0  0
  186.8420  174.5740  137.0880 C   0  0  0  0  0  0  0  0  0  0  0  0
  186.0700  173.6890  137.5410 O   0  0  0  0  0  1  0  0  0  0  0  0
  186.4410  175.9040  137.0820 O   0  0  0  0  0  0  0  0  0  0  0  0
  1  9  1  0  0  0  0
  2  5  1  0  0  0  0
  2  3  1  1  0  0  0
  3  7  1  0  0  0  0
  5 14  1  1  0  0  0
  6  9  1  0  0  0  0
  7  4  2  0  0  0  0
  8 13  1  0  0  0  0
  8 12  2  0  0  0  0
 10 19  1  0  0  0  0
 11  4  1  0  0  0  0
 12 16  1  0  0  0  0
 13 18  1  1  0  0  0
 13  2  1  0  0  0  0
 14  1  1  0  0  0  0
 15 20  1  0  0  0  0
 16  5  1  0  0  0  0
 16 17  1  6  0  0  0
 17  6  1  0  0  0  0
 18 10  1  0  0  0  0
 19  3  2  0  0  0  0
 19 20  1  0  0  0  0
 20 11  2  0  0  0  0
 21  8  1  0  0  0  0
 23 22  1  6  0  0  0
 23 21  1  0  0  0  0
 25 24  1  6  0  0  0
 25 23  1  0  0  0  0
 26 27  1  0  0  0  0
 27 25  1  0  0  0  0
 28 27  1  0  0  0  0
 28 29  1  0  0  0  0
 29 30  1  0  0  0  0
 31 29  2  0  0  0  0
M  END
>  <MODEL>
4

>  <REMARK>
 VINA RESULT:      -7.2      2.213      2.734
  Name = 
  6 active torsions:
  status: ('A' for Active; 'I' for Inactive)
    1  A    between atoms: C_1  and  C_24
    2  A    between atoms: C_9  and  C_22
    3  A    between atoms: C_9  and  C_23
    4  A    between atoms: C_15  and  C_23
    5  A    between atoms: N_19  and  C_22
    6  A    between atoms: N_19  and  C_24
                            x       y       z     vdW  Elec       q    Type
                         _______ _______ _______ _____ _____    ______ ____

>  <TORSDO>
F 6

$$$$
=
 OpenBabel10262419393D

 31 34  0  0  1  0  0  0  0  0999 V2000
  188.0890  177.7210  147.2850 O   0  0  0  0  0  0  0  0  0  0  0  0
  187.6260  177.0660  143.9510 C   0  0  1  0  0  3  0  0  0  0  0  0
  189.0500  177.5880  143.8690 C   0  0  0  0  0  0  0  0  0  0  0  0
  191.0990  178.4610  144.8380 C   0  0  0  0  0  3  0  0  0  0  0  0
  186.8340  177.3500  145.2330 C   0  0  1  0  0  3  0  0  0  0  0  0
  186.4770  179.4320  147.7200 C   0  0  0  0  0  2  0  0  0  0  0  0
  189.7700  178.0520  144.9770 C   0  0  0  0  0  3  0  0  0  0  0  0
  185.8010  178.5890  142.9370 C   0  0  0  0  0  0  0  0  0  0  0  0
  187.1400  178.1550  148.2150 C   0  0  0  0  0  2  0  0  0  0  0  0
  188.8640  177.0540  141.4630 C   0  0  0  0  0  2  0  0  0  0  0  0
  191.7220  178.4000  143.5890 C   0  0  0  0  0  3  0  0  0  0  0  0
  185.6450  179.1480  144.0950 N   0  0  0  0  0  0  0  0  0  0  0  0
  186.7870  177.4580  142.6950 C   0  0  1  0  0  3  0  0  0  0  0  0
  187.4340  176.7510  146.5160 C   0  0  0  0  0  2  0  0  0  0  0  0
  191.8330  177.8750  140.9210 Cl  0  0  0  0  0  0  0  0  0  0  0  0
  186.4210  178.8250  145.2740 C   0  0  1  0  0  3  0  0  0  0  0  0
  185.5910  179.1560  146.5110 C   0  0  0  0  0  2  0  0  0  0  0  0
  187.5810  177.7540  141.4840 N   0  0  0  0  0  2  0  0  0  0  0  0
  189.6830  177.5250  142.6200 C   0  0  0  0  0  0  0  0  0  0  0  0
  191.0190  177.9320  142.4760 C   0  0  0  0  0  0  0  0  0  0  0  0
  184.9070  179.0090  141.8120 C   0  0  0  0  0  2  0  0  0  0  0  0
  183.4320  177.4380  140.5190 C   0  0  0  0  0  1  0  0  0  0  0  0
  183.6070  178.2080  141.8180 C   0  0  2  0  0  3  0  0  0  0  0  0
  182.0020  179.0000  143.5980 C   0  0  0  0  0  1  0  0  0  0  0  0
  182.3780  179.0830  142.1160 C   0  0  2  0  0  3  0  0  0  0  0  0
  180.1190  178.2500  142.0700 C   0  0  0  0  0  1  0  0  0  0  0  0
  181.2360  178.7220  141.2550 N   0  0  0  0  0  0  0  0  0  0  0  0
  180.7710  179.8650  140.4490 C   0  0  0  0  0  2  0  0  0  0  0  0
  181.2780  179.8590  139.0350 C   0  0  0  0  0  0  0  0  0  0  0  0
  180.6220  179.2760  138.1330 O   0  0  0  0  0  0  0  0  0  0  0  0
  182.4670  180.5020  138.7170 O   0  0  0  0  0  1  0  0  0  0  0  0
  1  9  1  0  0  0  0
  2  3  1  1  0  0  0
  2  5  1  0  0  0  0
  3  7  1  0  0  0  0
  4  7  2  0  0  0  0
  5 16  1  0  0  0  0
  5 14  1  1  0  0  0
  6  9  1  0  0  0  0
  8 12  2  0  0  0  0
 10 18  1  0  0  0  0
 10 19  1  0  0  0  0
 11  4  1  0  0  0  0
 12 16  1  0  0  0  0
 13 18  1  6  0  0  0
 13  8  1  0  0  0  0
 13  2  1  0  0  0  0
 14  1  1  0  0  0  0
 15 20  1  0  0  0  0
 16 17  1  1  0  0  0
 17  6  1  0  0  0  0
 19  3  2  0  0  0  0
 20 19  1  0  0  0  0
 20 11  2  0  0  0  0
 21 23  1  0  0  0  0
 21  8  1  0  0  0  0
 23 22  1  6  0  0  0
 23 25  1  0  0  0  0
 25 24  1  1  0  0  0
 27 26  1  0  0  0  0
 27 25  1  0  0  0  0
 28 27  1  0  0  0  0
 29 28  1  0  0  0  0
 30 29  2  0  0  0  0
 31 29  1  0  0  0  0
M  END
>  <MODEL>
5

>  <REMARK>
 VINA RESULT:      -7.0      4.286      7.495
  Name = 
  6 active torsions:
  status: ('A' for Active; 'I' for Inactive)
    1  A    between atoms: C_1  and  C_24
    2  A    between atoms: C_9  and  C_22
    3  A    between atoms: C_9  and  C_23
    4  A    between atoms: C_15  and  C_23
    5  A    between atoms: N_19  and  C_22
    6  A    between atoms: N_19  and  C_24
                            x       y       z     vdW  Elec       q    Type
                         _______ _______ _______ _____ _____    ______ ____

>  <TORSDO>
F 6

$$$$
=
 OpenBabel10262419393D

 31 34  0  0  1  0  0  0  0  0999 V2000
  180.1270  177.8350  139.1600 O   0  0  0  0  0  0  0  0  0  0  0  0
  183.4000  178.7950  138.8060 C   0  0  1  0  0  3  0  0  0  0  0  0
  183.5010  177.4430  138.1230 C   0  0  0  0  0  0  0  0  0  0  0  0
  182.5730  175.3540  137.3000 C   0  0  0  0  0  3  0  0  0  0  0  0
  182.1620  179.0690  139.6700 C   0  0  1  0  0  3  0  0  0  0  0  0
  179.8710  177.6790  141.5320 C   0  0  0  0  0  2  0  0  0  0  0  0
  182.4240  176.5560  137.9970 C   0  0  0  0  0  3  0  0  0  0  0  0
  184.5750  178.9950  141.0990 C   0  0  0  0  0  0  0  0  0  0  0  0
  179.2560  178.1250  140.2140 C   0  0  0  0  0  2  0  0  0  0  0  0
  185.8540  178.0780  137.7180 C   0  0  0  0  0  2  0  0  0  0  0  0
  183.8000  175.0330  136.7150 C   0  0  0  0  0  3  0  0  0  0  0  0
  183.4730  178.6390  141.6790 N   0  0  0  0  0  0  0  0  0  0  0  0
  184.7000  179.1500  139.5930 C   0  0  1  0  0  3  0  0  0  0  0  0
  180.8210  179.0260  138.9170 C   0  0  0  0  0  2  0  0  0  0  0  0
  186.4110  175.4720  136.0820 Cl  0  0  0  0  0  0  0  0  0  0  0  0
  182.2560  178.2800  140.9800 C   0  0  1  0  0  3  0  0  0  0  0  0
  181.0680  178.5480  141.8990 C   0  0  0  0  0  2  0  0  0  0  0  0
  185.9180  178.4500  139.1310 N   0  0  0  0  0  2  0  0  0  0  0  0
  184.7280  177.1170  137.5300 C   0  0  0  0  0  0  0  0  0  0  0  0
  184.8820  175.9120  136.8260 C   0  0  0  0  0  0  0  0  0  0  0  0
  185.7480  179.3610  141.9550 C   0  0  0  0  0  2  0  0  0  0  0  0
  185.6580  178.0600  144.1030 C   0  0  0  0  0  1  0  0  0  0  0  0
  186.2710  178.1430  142.7150 C   0  0  2  0  0  3  0  0  0  0  0  0
  188.4000  177.7670  141.4120 C   0  0  0  0  0  1  0  0  0  0  0  0
  187.8070  178.1060  142.7820 C   0  0  2  0  0  3  0  0  0  0  0  0
  188.9720  176.0390  143.1940 C   0  0  0  0  0  1  0  0  0  0  0  0
  188.2790  177.1650  143.8160 N   0  0  0  0  0  0  0  0  0  0  0  0
  189.2040  177.8100  144.7660 C   0  0  0  0  0  2  0  0  0  0  0  0
  188.9760  177.4160  146.1980 C   0  0  0  0  0  0  0  0  0  0  0  0
  187.8910  177.7040  146.7660 O   0  0  0  0  0  0  0  0  0  0  0  0
  189.9600  176.7280  146.8960 O   0  0  0  0  0  1  0  0  0  0  0  0
  1  9  1  0  0  0  0
  2  3  1  1  0  0  0
  2 13  1  0  0  0  0
  2  5  1  0  0  0  0
  4  7  2  0  0  0  0
  5 14  1  6  0  0  0
  5 16  1  0  0  0  0
  6 17  1  0  0  0  0
  7  3  1  0  0  0  0
  8 12  2  0  0  0  0
  8 21  1  0  0  0  0
  9  6  1  0  0  0  0
 10 18  1  0  0  0  0
 11 20  2  0  0  0  0
 11  4  1  0  0  0  0
 13 18  1  6  0  0  0
 13  8  1  0  0  0  0
 14  1  1  0  0  0  0
 15 20  1  0  0  0  0
 16 12  1  0  0  0  0
 16 17  1  1  0  0  0
 19 10  1  0  0  0  0
 19  3  2  0  0  0  0
 20 19  1  0  0  0  0
 21 23  1  0  0  0  0
 23 25  1  0  0  0  0
 23 22  1  1  0  0  0
 25 24  1  6  0  0  0
 25 27  1  0  0  0  0
 26 27  1  0  0  0  0
 27 28  1  0  0  0  0
 28 29  1  0  0  0  0
 29 30  2  0  0  0  0
 29 31  1  0  0  0  0
M  END
>  <MODEL>
6

>  <REMARK>
 VINA RESULT:      -6.9      4.528      8.186
  Name = 
  6 active torsions:
  status: ('A' for Active; 'I' for Inactive)
    1  A    between atoms: C_1  and  C_24
    2  A    between atoms: C_9  and  C_22
    3  A    between atoms: C_9  and  C_23
    4  A    between atoms: C_15  and  C_23
    5  A    between atoms: N_19  and  C_22
    6  A    between atoms: N_19  and  C_24
                            x       y       z     vdW  Elec       q    Type
                         _______ _______ _______ _____ _____    ______ ____

>  <TORSDO>
F 6

$$$$
=
 OpenBabel10262419393D

 31 34  0  0  1  0  0  0  0  0999 V2000
  187.4760  177.5890  146.7730 O   0  0  0  0  0  0  0  0  0  0  0  0
  187.4500  177.1030  143.3790 C   0  0  1  0  0  3  0  0  0  0  0  0
  188.8940  177.5540  143.5170 C   0  0  0  0  0  0  0  0  0  0  0  0
  190.8260  178.2770  144.7990 C   0  0  0  0  0  3  0  0  0  0  0  0
  186.5010  177.3720  144.5540 C   0  0  1  0  0  3  0  0  0  0  0  0
  185.8990  179.3610  147.0700 C   0  0  0  0  0  2  0  0  0  0  0  0
  189.4740  177.9320  144.7350 C   0  0  0  0  0  3  0  0  0  0  0  0
  185.8540  178.7610  142.2030 C   0  0  0  0  0  0  0  0  0  0  0  0
  186.4280  178.0310  147.5850 C   0  0  0  0  0  2  0  0  0  0  0  0
  189.0180  177.1350  141.0850 C   0  0  0  0  0  2  0  0  0  0  0  0
  191.6130  178.2380  143.6450 C   0  0  0  0  0  3  0  0  0  0  0  0
  185.5650  179.2770  143.3550 N   0  0  0  0  0  0  0  0  0  0  0  0
  186.8120  177.5920  142.0410 C   0  0  1  0  0  3  0  0  0  0  0  0
  186.8910  176.6890  145.8750 C   0  0  0  0  0  2  0  0  0  0  0  0
  192.0680  177.8230  140.9930 Cl  0  0  0  0  0  0  0  0  0  0  0  0
  186.1550  178.8640  144.6120 C   0  0  1  0  0  3  0  0  0  0  0  0
  185.1770  179.1840  145.7390 C   0  0  0  0  0  2  0  0  0  0  0  0
  187.7780  177.8990  140.9660 N   0  0  0  0  0  2  0  0  0  0  0  0
  189.6890  177.5130  142.3650 C   0  0  0  0  0  0  0  0  0  0  0  0
  191.0500  177.8550  142.4240 C   0  0  0  0  0  0  0  0  0  0  0  0
  185.1440  179.2750  140.9890 C   0  0  0  0  0  2  0  0  0  0  0  0
  184.7880  178.4720  138.6350 C   0  0  0  0  0  1  0  0  0  0  0  0
  184.6620  178.1240  140.1090 C   0  0  2  0  0  3  0  0  0  0  0  0
  182.7100  176.6800  139.4170 C   0  0  0  0  0  1  0  0  0  0  0  0
  183.2310  177.6780  140.4550 C   0  0  2  0  0  3  0  0  0  0  0  0
  181.7440  179.1710  139.2910 C   0  0  0  0  0  1  0  0  0  0  0  0
  182.3230  178.8320  140.5880 N   0  0  0  0  0  0  0  0  0  0  0  0
  181.2220  178.5600  141.5300 C   0  0  0  0  0  2  0  0  0  0  0  0
  181.2880  179.3710  142.7930 C   0  0  0  0  0  0  0  0  0  0  0  0
  182.1800  179.1330  143.6490 O   0  0  0  0  0  1  0  0  0  0  0  0
  180.3710  180.3900  143.0160 O   0  0  0  0  0  0  0  0  0  0  0  0
  1  9  1  0  0  0  0
  2  3  1  1  0  0  0
  2  5  1  0  0  0  0
  3  7  1  0  0  0  0
  5 16  1  0  0  0  0
  5 14  1  1  0  0  0
  6  9  1  0  0  0  0
  7  4  2  0  0  0  0
  8 12  2  0  0  0  0
 10 19  1  0  0  0  0
 11  4  1  0  0  0  0
 12 16  1  0  0  0  0
 13 18  1  6  0  0  0
 13  8  1  0  0  0  0
 13  2  1  0  0  0  0
 14  1  1  0  0  0  0
 15 20  1  0  0  0  0
 16 17  1  1  0  0  0
 17  6  1  0  0  0  0
 18 10  1  0  0  0  0
 19 20  1  0  0  0  0
 19  3  2  0  0  0  0
 20 11  2  0  0  0  0
 21  8  1  0  0  0  0
 23 22  1  6  0  0  0
 23 25  1  0  0  0  0
 23 21  1  0  0  0  0
 25 24  1  6  0  0  0
 25 27  1  0  0  0  0
 26 27  1  0  0  0  0
 27 28  1  0  0  0  0
 28 29  1  0  0  0  0
 29 31  2  0  0  0  0
 29 30  1  0  0  0  0
M  END
>  <MODEL>
7

>  <REMARK>
 VINA RESULT:      -6.9      4.179      7.187
  Name = 
  6 active torsions:
  status: ('A' for Active; 'I' for Inactive)
    1  A    between atoms: C_1  and  C_24
    2  A    between atoms: C_9  and  C_22
    3  A    between atoms: C_9  and  C_23
    4  A    between atoms: C_15  and  C_23
    5  A    between atoms: N_19  and  C_22
    6  A    between atoms: N_19  and  C_24
                            x       y       z     vdW  Elec       q    Type
                         _______ _______ _______ _____ _____    ______ ____

>  <TORSDO>
F 6

$$$$
=
 OpenBabel10262419393D

 31 34  0  0  1  0  0  0  0  0999 V2000
  184.9240  178.2570  145.4980 O   0  0  0  0  0  0  0  0  0  0  0  0
  187.4490  176.8520  143.6540 C   0  0  1  0  0  3  0  0  0  0  0  0
  188.2560  177.1870  144.8960 C   0  0  0  0  0  0  0  0  0  0  0  0
  188.5040  178.0540  147.1520 C   0  0  0  0  0  3  0  0  0  0  0  0
  186.0810  177.5240  143.4870 C   0  0  1  0  0  3  0  0  0  0  0  0
  184.3290  180.1810  144.2090 C   0  0  0  0  0  2  0  0  0  0  0  0
  187.7180  177.8330  146.0170 C   0  0  0  0  0  3  0  0  0  0  0  0
  187.9740  178.2590  141.5510 C   0  0  0  0  0  0  0  0  0  0  0  0
  183.8350  179.0030  145.0360 C   0  0  0  0  0  2  0  0  0  0  0  0
  190.1240  176.0990  143.7000 C   0  0  0  0  0  2  0  0  0  0  0  0
  189.8330  177.6230  147.1770 C   0  0  0  0  0  3  0  0  0  0  0  0
  187.0530  179.0990  141.9010 N   0  0  0  0  0  0  0  0  0  0  0  0
  188.2940  177.0070  142.3500 C   0  0  1  0  0  3  0  0  0  0  0  0
  185.0580  177.2010  144.5890 C   0  0  0  0  0  2  0  0  0  0  0  0
  192.0560  176.4470  146.1350 Cl  0  0  0  0  0  0  0  0  0  0  0  0
  186.2670  178.9990  143.1130 C   0  0  1  0  0  3  0  0  0  0  0  0
  184.9350  179.7090  142.8920 C   0  0  0  0  0  2  0  0  0  0  0  0
  189.7570  176.9120  142.5420 N   0  0  0  0  0  2  0  0  0  0  0  0
  189.5870  176.7530  144.9300 C   0  0  0  0  0  0  0  0  0  0  0  0
  190.3800  176.9700  146.0690 C   0  0  0  0  0  0  0  0  0  0  0  0
  188.6900  178.4800  140.2530 C   0  0  0  0  0  2  0  0  0  0  0  0
  190.2250  176.9770  138.9500 C   0  0  0  0  0  1  0  0  0  0  0  0
  188.8090  177.1770  139.4670 C   0  0  2  0  0  3  0  0  0  0  0  0
  188.4350  176.5290  137.0560 C   0  0  0  0  0  1  0  0  0  0  0  0
  187.7820  177.0810  138.3260 C   0  0  2  0  0  3  0  0  0  0  0  0
  187.6960  178.9970  136.8700 C   0  0  0  0  0  1  0  0  0  0  0  0
  187.1360  178.3830  138.0710 N   0  0  0  0  0  0  0  0  0  0  0  0
  185.6800  178.2460  137.8850 C   0  0  0  0  0  2  0  0  0  0  0  0
  184.8680  178.7780  139.0330 C   0  0  0  0  0  0  0  0  0  0  0  0
  184.4800  178.0010  139.9430 O   0  0  0  0  0  1  0  0  0  0  0  0
  184.5520  180.1290  139.0970 O   0  0  0  0  0  0  0  0  0  0  0  0
  2  3  1  1  0  0  0
  3 19  2  0  0  0  0
  3  7  1  0  0  0  0
  4 11  1  0  0  0  0
  5  2  1  0  0  0  0
  5 14  1  1  0  0  0
  6  9  1  0  0  0  0
  7  4  2  0  0  0  0
  8 12  2  0  0  0  0
  9  1  1  0  0  0  0
 10 19  1  0  0  0  0
 12 16  1  0  0  0  0
 13  8  1  1  0  0  0
 13 18  1  0  0  0  0
 13  2  1  0  0  0  0
 14  1  1  0  0  0  0
 16 17  1  6  0  0  0
 16  5  1  0  0  0  0
 17  6  1  0  0  0  0
 18 10  1  0  0  0  0
 19 20  1  0  0  0  0
 20 15  1  0  0  0  0
 20 11  2  0  0  0  0
 21  8  1  0  0  0  0
 23 22  1  6  0  0  0
 23 21  1  0  0  0  0
 25 24  1  6  0  0  0
 25 23  1  0  0  0  0
 26 27  1  0  0  0  0
 27 25  1  0  0  0  0
 28 27  1  0  0  0  0
 28 29  1  0  0  0  0
 29 31  2  0  0  0  0
 29 30  1  0  0  0  0
M  END
>  <MODEL>
8

>  <REMARK>
 VINA RESULT:      -6.9      3.593      5.538
  Name = 
  6 active torsions:
  status: ('A' for Active; 'I' for Inactive)
    1  A    between atoms: C_1  and  C_24
    2  A    between atoms: C_9  and  C_22
    3  A    between atoms: C_9  and  C_23
    4  A    between atoms: C_15  and  C_23
    5  A    between atoms: N_19  and  C_22
    6  A    between atoms: N_19  and  C_24
                            x       y       z     vdW  Elec       q    Type
                         _______ _______ _______ _____ _____    ______ ____

>  <TORSDO>
F 6

$$$$
=
 OpenBabel10262419393D

 31 34  0  0  1  0  0  0  0  0999 V2000
  186.5790  177.0910  135.1440 O   0  0  0  0  0  0  0  0  0  0  0  0
  189.0140  177.9540  137.3990 C   0  0  1  0  0  3  0  0  0  0  0  0
  189.5310  176.5700  137.0490 C   0  0  0  0  0  0  0  0  0  0  0  0
  189.4510  174.4690  135.8320 C   0  0  0  0  0  3  0  0  0  0  0  0
  187.5700  178.2970  137.0110 C   0  0  1  0  0  3  0  0  0  0  0  0
  184.6000  177.0510  136.4860 C   0  0  0  0  0  2  0  0  0  0  0  0
  188.8850  175.7050  136.1560 C   0  0  0  0  0  3  0  0  0  0  0  0
  188.0390  178.2300  139.7770 C   0  0  0  0  0  0  0  0  0  0  0  0
  185.2290  177.4500  135.1590 C   0  0  0  0  0  2  0  0  0  0  0  0
  191.3930  177.1290  138.5730 C   0  0  0  0  0  2  0  0  0  0  0  0
  190.6740  174.0910  136.3930 C   0  0  0  0  0  3  0  0  0  0  0  0
  186.8680  177.9280  139.3160 N   0  0  0  0  0  0  0  0  0  0  0  0
  189.2750  178.3130  138.8960 C   0  0  1  0  0  3  0  0  0  0  0  0
  187.2730  178.2530  135.5030 C   0  0  0  0  0  2  0  0  0  0  0  0
  192.8670  174.4370  137.9680 Cl  0  0  0  0  0  0  0  0  0  0  0  0
  186.5940  177.5670  137.9400 C   0  0  1  0  0  3  0  0  0  0  0  0
  185.1390  177.9060  137.6270 C   0  0  0  0  0  2  0  0  0  0  0  0
  190.3790  177.5630  139.5320 N   0  0  0  0  0  2  0  0  0  0  0  0
  190.7590  176.1870  137.6030 C   0  0  0  0  0  0  0  0  0  0  0  0
  191.3340  174.9480  137.2790 C   0  0  0  0  0  0  0  0  0  0  0  0
  188.1660  178.6060  141.2210 C   0  0  0  0  0  2  0  0  0  0  0  0
  186.0460  178.9610  142.5220 C   0  0  0  0  0  1  0  0  0  0  0  0
  187.0730  177.9420  142.0560 C   0  0  2  0  0  3  0  0  0  0  0  0
  186.9080  177.5030  144.5370 C   0  0  0  0  0  1  0  0  0  0  0  0
  187.6410  177.1430  143.2410 C   0  0  2  0  0  3  0  0  0  0  0  0
  189.4120  177.8440  144.7140 C   0  0  0  0  0  1  0  0  0  0  0  0
  189.0960  177.3420  143.3790 N   0  0  0  0  0  0  0  0  0  0  0  0
  189.8450  176.0900  143.1660 C   0  0  0  0  0  2  0  0  0  0  0  0
  191.3360  176.2510  143.2550 C   0  0  0  0  0  0  0  0  0  0  0  0
  192.0030  175.5200  144.0340 O   0  0  0  0  0  1  0  0  0  0  0  0
  191.9830  177.1990  142.4740 O   0  0  0  0  0  0  0  0  0  0  0  0
  1  9  1  0  0  0  0
  1 14  1  0  0  0  0
  2  3  1  1  0  0  0
  2 13  1  0  0  0  0
  3 19  1  0  0  0  0
  4  7  1  0  0  0  0
  4 11  2  0  0  0  0
  5 14  1  6  0  0  0
  5  2  1  0  0  0  0
  5 16  1  0  0  0  0
  6 17  1  0  0  0  0
  7  3  2  0  0  0  0
  8 21  1  0  0  0  0
  9  6  1  0  0  0  0
 10 18  1  0  0  0  0
 11 20  1  0  0  0  0
 12  8  2  0  0  0  0
 13 18  1  1  0  0  0
 13  8  1  0  0  0  0
 16 17  1  6  0  0  0
 16 12  1  0  0  0  0
 19 10  1  0  0  0  0
 20 19  2  0  0  0  0
 20 15  1  0  0  0  0
 21 23  1  0  0  0  0
 23 22  1  1  0  0  0
 23 25  1  0  0  0  0
 25 27  1  0  0  0  0
 25 24  1  1  0  0  0
 27 26  1  0  0  0  0
 28 29  1  0  0  0  0
 28 27  1  0  0  0  0
 29 30  1  0  0  0  0
 31 29  2  0  0  0  0
M  END
>  <MODEL>
9

>  <REMARK>
 VINA RESULT:      -6.8      3.248      7.619
  Name = 
  6 active torsions:
  status: ('A' for Active; 'I' for Inactive)
    1  A    between atoms: C_1  and  C_24
    2  A    between atoms: C_9  and  C_22
    3  A    between atoms: C_9  and  C_23
    4  A    between atoms: C_15  and  C_23
    5  A    between atoms: N_19  and  C_22
    6  A    between atoms: N_19  and  C_24
                            x       y       z     vdW  Elec       q    Type
                         _______ _______ _______ _____ _____    ______ ____

>  <TORSDO>
F 6

$$$$
