=
 OpenBabel10262419493D

 25 27  0  0  1  0  0  0  0  0999 V2000
  188.9100  177.4960  145.1150 C   0  0  0  0  0  0  0  0  0  0  0  0
  187.5480  177.8540  145.0180 C   0  0  0  0  0  0  0  0  0  0  0  0
  188.7310  177.5310  147.5410 C   0  0  0  0  0  3  0  0  0  0  0  0
  187.3790  177.8640  147.4480 C   0  0  0  0  0  3  0  0  0  0  0  0
  185.4290  178.3850  146.0820 C   0  0  0  0  0  0  0  0  0  0  0  0
  184.6380  178.5540  147.2140 O   0  0  0  0  0  1  0  0  0  0  0  0
  186.9640  178.0620  143.8040 N   0  0  0  0  0  0  0  0  0  0  0  0
  189.4900  177.3530  146.3830 C   0  0  0  0  0  3  0  0  0  0  0  0
  184.8660  178.5730  144.8200 C   0  0  0  0  0  3  0  0  0  0  0  0
  185.6580  178.4140  143.6820 C   0  0  0  0  0  0  0  0  0  0  0  0
  186.7810  178.0300  146.1940 C   0  0  0  0  0  0  0  0  0  0  0  0
  189.7610  177.2880  143.9230 C   0  0  0  0  0  0  0  0  0  0  0  0
  191.2200  177.5090  142.1920 C   0  0  0  0  0  3  0  0  0  0  0  0
  189.6090  176.2570  142.9140 C   0  0  0  0  0  0  0  0  0  0  0  0
  190.5510  176.4470  141.8700 N   0  0  0  0  0  0  0  0  0  0  0  0
  191.1990  179.3530  144.0510 C   0  0  0  0  0  1  0  0  0  0  0  0
  188.7730  175.3160  142.9400 O   0  0  0  0  0  0  0  0  0  0  0  0
  190.7440  178.0590  143.4680 C   0  0  0  0  0  0  0  0  0  0  0  0
  185.0590  178.5950  142.3310 C   0  0  0  0  0  2  0  0  0  0  0  0
  183.6680  178.3950  142.3980 O   0  0  0  0  0  0  0  0  0  0  0  0
  183.0900  178.7070  141.1460 C   0  0  2  0  0  3  0  0  0  0  0  0
  181.5700  178.5900  141.1480 C   0  0  0  0  0  1  0  0  0  0  0  0
  183.7180  177.9520  139.9760 C   0  0  0  0  0  2  0  0  0  0  0  0
  183.9010  178.8810  138.7920 C   0  0  0  0  0  2  0  0  0  0  0  0
  184.3900  180.1080  139.2350 O   0  0  0  0  0  1  0  0  0  0  0  0
  1  8  1  0  0  0  0
  2  1  2  0  0  0  0
  2 11  1  0  0  0  0
  4  3  1  0  0  0  0
  5 11  1  0  0  0  0
  5  6  1  0  0  0  0
  7  2  1  0  0  0  0
  8  3  2  0  0  0  0
  9  5  2  0  0  0  0
 10  7  2  0  0  0  0
 10  9  1  0  0  0  0
 11  4  2  0  0  0  0
 12  1  1  0  0  0  0
 13 18  1  0  0  0  0
 14 17  2  0  0  0  0
 14 12  1  0  0  0  0
 15 13  2  0  0  0  0
 15 14  1  0  0  0  0
 18 12  2  0  0  0  0
 18 16  1  0  0  0  0
 19 20  1  0  0  0  0
 19 10  1  0  0  0  0
 21 22  1  1  0  0  0
 21 20  1  0  0  0  0
 23 21  1  0  0  0  0
 24 25  1  0  0  0  0
 24 23  1  0  0  0  0
M  END
>  <MODEL>
1

>  <REMARK>
 VINA RESULT:      -8.7      0.000      0.000
  Name = 
  6 active torsions:
  status: ('A' for Active; 'I' for Inactive)
    1  A    between atoms: C_1  and  C_5
    2  A    between atoms: C_2  and  C_12
    3  A    between atoms: C_6  and  O_15
    4  A    between atoms: C_6  and  C_23
    5  A    between atoms: C_12  and  C_21
    6  A    between atoms: O_15  and  C_21
                            x       y       z     vdW  Elec       q    Type
                         _______ _______ _______ _____ _____    ______ ____

>  <TORSDO>
F 6

$$$$
=
 OpenBabel10262419493D

 25 27  0  0  1  0  0  0  0  0999 V2000
  188.8670  177.5170  145.1130 C   0  0  0  0  0  0  0  0  0  0  0  0
  187.5040  177.8710  145.0180 C   0  0  0  0  0  0  0  0  0  0  0  0
  188.6920  177.5510  147.5400 C   0  0  0  0  0  3  0  0  0  0  0  0
  187.3390  177.8810  147.4490 C   0  0  0  0  0  3  0  0  0  0  0  0
  185.3850  178.3960  146.0860 C   0  0  0  0  0  0  0  0  0  0  0  0
  184.5960  178.5630  147.2190 O   0  0  0  0  0  1  0  0  0  0  0  0
  186.9180  178.0770  143.8050 N   0  0  0  0  0  0  0  0  0  0  0  0
  189.4490  177.3760  146.3800 C   0  0  0  0  0  3  0  0  0  0  0  0
  184.8190  178.5830  144.8250 C   0  0  0  0  0  3  0  0  0  0  0  0
  185.6100  178.4260  143.6860 C   0  0  0  0  0  0  0  0  0  0  0  0
  186.7380  178.0450  146.1960 C   0  0  0  0  0  0  0  0  0  0  0  0
  189.7170  177.3110  143.9200 C   0  0  0  0  0  0  0  0  0  0  0  0
  191.1700  177.5370  142.1850 C   0  0  0  0  0  3  0  0  0  0  0  0
  189.5700  176.2750  142.9150 C   0  0  0  0  0  0  0  0  0  0  0  0
  190.5090  176.4680  141.8680 N   0  0  0  0  0  0  0  0  0  0  0  0
  191.1390  179.3880  144.0370 C   0  0  0  0  0  1  0  0  0  0  0  0
  188.7420  175.3270  142.9470 O   0  0  0  0  0  0  0  0  0  0  0  0
  190.6920  178.0880  143.4600 C   0  0  0  0  0  0  0  0  0  0  0  0
  185.0090  178.6050  142.3360 C   0  0  0  0  0  2  0  0  0  0  0  0
  185.9950  179.0320  141.4290 O   0  0  0  0  0  0  0  0  0  0  0  0
  185.5050  178.9050  140.1090 C   0  0  2  0  0  3  0  0  0  0  0  0
  184.1260  178.2580  140.0470 C   0  0  0  0  0  1  0  0  0  0  0  0
  186.4900  178.2370  139.1520 C   0  0  0  0  0  2  0  0  0  0  0  0
  187.8670  178.1660  139.7820 C   0  0  0  0  0  2  0  0  0  0  0  0
  188.7460  178.9790  139.0700 O   0  0  0  0  0  1  0  0  0  0  0  0
  1  8  1  0  0  0  0
  2  1  2  0  0  0  0
  2 11  1  0  0  0  0
  4  3  1  0  0  0  0
  5 11  1  0  0  0  0
  5  6  1  0  0  0  0
  7  2  1  0  0  0  0
  8  3  2  0  0  0  0
  9  5  2  0  0  0  0
 10  7  2  0  0  0  0
 10  9  1  0  0  0  0
 11  4  2  0  0  0  0
 12  1  1  0  0  0  0
 13 18  1  0  0  0  0
 14 17  2  0  0  0  0
 14 12  1  0  0  0  0
 15 13  2  0  0  0  0
 15 14  1  0  0  0  0
 18 12  2  0  0  0  0
 18 16  1  0  0  0  0
 19 10  1  0  0  0  0
 20 19  1  0  0  0  0
 21 22  1  1  0  0  0
 21 20  1  0  0  0  0
 23 24  1  0  0  0  0
 23 21  1  0  0  0  0
 25 24  1  0  0  0  0
M  END
>  <MODEL>
2

>  <REMARK>
 VINA RESULT:      -8.6      1.460      1.644
  Name = 
  6 active torsions:
  status: ('A' for Active; 'I' for Inactive)
    1  A    between atoms: C_1  and  C_5
    2  A    between atoms: C_2  and  C_12
    3  A    between atoms: C_6  and  O_15
    4  A    between atoms: C_6  and  C_23
    5  A    between atoms: C_12  and  C_21
    6  A    between atoms: O_15  and  C_21
                            x       y       z     vdW  Elec       q    Type
                         _______ _______ _______ _____ _____    ______ ____

>  <TORSDO>
F 6

$$$$
=
 OpenBabel10262419493D

 25 27  0  0  1  0  0  0  0  0999 V2000
  189.6780  177.6240  141.8730 C   0  0  0  0  0  0  0  0  0  0  0  0
  188.3070  177.9600  141.8780 C   0  0  0  0  0  0  0  0  0  0  0  0
  189.7340  177.9500  139.4620 C   0  0  0  0  0  3  0  0  0  0  0  0
  188.3840  178.3030  139.4670 C   0  0  0  0  0  3  0  0  0  0  0  0
  186.3010  178.6410  140.6870 C   0  0  0  0  0  0  0  0  0  0  0  0
  185.6360  179.0010  139.5190 O   0  0  0  0  0  1  0  0  0  0  0  0
  187.5830  177.9260  143.0320 N   0  0  0  0  0  0  0  0  0  0  0  0
  190.3730  177.6090  140.6560 C   0  0  0  0  0  3  0  0  0  0  0  0
  185.6000  178.6090  141.8920 C   0  0  0  0  0  3  0  0  0  0  0  0
  186.2610  178.2380  143.0640 C   0  0  0  0  0  0  0  0  0  0  0  0
  187.6630  178.3080  140.6660 C   0  0  0  0  0  0  0  0  0  0  0  0
  190.4090  177.2620  143.1070 C   0  0  0  0  0  0  0  0  0  0  0  0
  191.6800  177.2570  144.9930 C   0  0  0  0  0  3  0  0  0  0  0  0
  190.7940  175.9290  143.5310 C   0  0  0  0  0  0  0  0  0  0  0  0
  191.5750  175.9960  144.7140 N   0  0  0  0  0  0  0  0  0  0  0  0
  191.0080  179.5610  143.9480 C   0  0  0  0  0  1  0  0  0  0  0  0
  190.4870  174.8530  142.9540 O   0  0  0  0  0  0  0  0  0  0  0  0
  190.9650  178.0720  144.0020 C   0  0  0  0  0  0  0  0  0  0  0  0
  185.5240  178.2210  144.3570 C   0  0  0  0  0  2  0  0  0  0  0  0
  186.0370  177.2040  145.1820 O   0  0  0  0  0  0  0  0  0  0  0  0
  186.4670  177.7670  146.4060 C   0  0  2  0  0  3  0  0  0  0  0  0
  185.8270  179.1210  146.6950 C   0  0  0  0  0  1  0  0  0  0  0  0
  187.9860  177.8120  146.5590 C   0  0  0  0  0  2  0  0  0  0  0  0
  188.3870  177.3390  147.9430 C   0  0  0  0  0  2  0  0  0  0  0  0
  189.2280  178.2820  148.5300 O   0  0  0  0  0  1  0  0  0  0  0  0
  1  2  1  0  0  0  0
  1 12  1  0  0  0  0
  2  7  1  0  0  0  0
  3  4  2  0  0  0  0
  3  8  1  0  0  0  0
  4 11  1  0  0  0  0
  5  9  2  0  0  0  0
  6  5  1  0  0  0  0
  7 10  2  0  0  0  0
  8  1  2  0  0  0  0
  9 10  1  0  0  0  0
 10 19  1  0  0  0  0
 11  5  1  0  0  0  0
 11  2  2  0  0  0  0
 12 14  1  0  0  0  0
 12 18  2  0  0  0  0
 14 15  1  0  0  0  0
 15 13  2  0  0  0  0
 16 18  1  0  0  0  0
 17 14  2  0  0  0  0
 18 13  1  0  0  0  0
 19 20  1  0  0  0  0
 20 21  1  0  0  0  0
 21 23  1  0  0  0  0
 21 22  1  6  0  0  0
 23 24  1  0  0  0  0
 24 25  1  0  0  0  0
M  END
>  <MODEL>
3

>  <REMARK>
 VINA RESULT:      -8.2      2.096      5.413
  Name = 
  6 active torsions:
  status: ('A' for Active; 'I' for Inactive)
    1  A    between atoms: C_1  and  C_5
    2  A    between atoms: C_2  and  C_12
    3  A    between atoms: C_6  and  O_15
    4  A    between atoms: C_6  and  C_23
    5  A    between atoms: C_12  and  C_21
    6  A    between atoms: O_15  and  C_21
                            x       y       z     vdW  Elec       q    Type
                         _______ _______ _______ _____ _____    ______ ____

>  <TORSDO>
F 6

$$$$
=
 OpenBabel10262419493D

 25 27  0  0  1  0  0  0  0  0999 V2000
  188.9860  177.7800  145.1230 C   0  0  0  0  0  0  0  0  0  0  0  0
  187.6010  178.0210  144.9880 C   0  0  0  0  0  0  0  0  0  0  0  0
  188.7170  177.6750  147.5390 C   0  0  0  0  0  3  0  0  0  0  0  0
  187.3450  177.8910  147.4070 C   0  0  0  0  0  3  0  0  0  0  0  0
  185.4060  178.3060  145.9900 C   0  0  0  0  0  0  0  0  0  0  0  0
  184.5630  178.3460  147.0950 O   0  0  0  0  0  1  0  0  0  0  0  0
  187.0460  178.2390  143.7630 N   0  0  0  0  0  0  0  0  0  0  0  0
  189.5300  177.6250  146.4060 C   0  0  0  0  0  3  0  0  0  0  0  0
  184.8740  178.5080  144.7170 C   0  0  0  0  0  3  0  0  0  0  0  0
  185.7180  178.4790  143.6050 C   0  0  0  0  0  0  0  0  0  0  0  0
  186.7790  178.0680  146.1400 C   0  0  0  0  0  0  0  0  0  0  0  0
  189.8950  177.7100  143.9590 C   0  0  0  0  0  0  0  0  0  0  0  0
  191.1300  177.0540  142.1650 C   0  0  0  0  0  3  0  0  0  0  0  0
  190.9490  178.6470  143.6190 C   0  0  0  0  0  0  0  0  0  0  0  0
  191.6740  178.1840  142.4900 N   0  0  0  0  0  0  0  0  0  0  0  0
  189.2760  175.4370  143.0620 C   0  0  0  0  0  1  0  0  0  0  0  0
  191.2010  179.7240  144.2200 O   0  0  0  0  0  0  0  0  0  0  0  0
  190.0190  176.7300  143.0690 C   0  0  0  0  0  0  0  0  0  0  0  0
  185.1550  178.6750  142.2410 C   0  0  0  0  0  2  0  0  0  0  0  0
  183.7930  178.3220  142.2350 O   0  0  0  0  0  0  0  0  0  0  0  0
  183.2150  178.7100  141.0040 C   0  0  2  0  0  3  0  0  0  0  0  0
  181.6930  178.7760  141.0570 C   0  0  0  0  0  1  0  0  0  0  0  0
  183.7090  177.8940  139.8110 C   0  0  0  0  0  2  0  0  0  0  0  0
  184.2510  178.8140  138.7360 C   0  0  0  0  0  2  0  0  0  0  0  0
  184.3570  180.1080  139.2420 O   0  0  0  0  0  1  0  0  0  0  0  0
  1  8  1  0  0  0  0
  2  1  2  0  0  0  0
  2 11  1  0  0  0  0
  4  3  1  0  0  0  0
  5 11  1  0  0  0  0
  5  6  1  0  0  0  0
  7  2  1  0  0  0  0
  8  3  2  0  0  0  0
  9  5  2  0  0  0  0
 10  7  2  0  0  0  0
 10  9  1  0  0  0  0
 11  4  2  0  0  0  0
 12  1  1  0  0  0  0
 13 15  2  0  0  0  0
 13 18  1  0  0  0  0
 14 12  1  0  0  0  0
 14 17  2  0  0  0  0
 15 14  1  0  0  0  0
 16 18  1  0  0  0  0
 18 12  2  0  0  0  0
 19 10  1  0  0  0  0
 20 19  1  0  0  0  0
 21 22  1  1  0  0  0
 21 20  1  0  0  0  0
 23 21  1  0  0  0  0
 24 25  1  0  0  0  0
 24 23  1  0  0  0  0
M  END
>  <MODEL>
4

>  <REMARK>
 VINA RESULT:      -7.9      1.173      1.590
  Name = 
  6 active torsions:
  status: ('A' for Active; 'I' for Inactive)
    1  A    between atoms: C_1  and  C_5
    2  A    between atoms: C_2  and  C_12
    3  A    between atoms: C_6  and  O_15
    4  A    between atoms: C_6  and  C_23
    5  A    between atoms: C_12  and  C_21
    6  A    between atoms: O_15  and  C_21
                            x       y       z     vdW  Elec       q    Type
                         _______ _______ _______ _____ _____    ______ ____

>  <TORSDO>
F 6

$$$$
=
 OpenBabel10262419493D

 25 27  0  0  1  0  0  0  0  0999 V2000
  188.4380  177.5530  144.6300 C   0  0  0  0  0  0  0  0  0  0  0  0
  187.2070  177.9510  144.0650 C   0  0  0  0  0  0  0  0  0  0  0  0
  187.4280  177.6260  146.8430 C   0  0  0  0  0  3  0  0  0  0  0  0
  186.2040  177.9990  146.2840 C   0  0  0  0  0  3  0  0  0  0  0  0
  184.8690  178.5590  144.3240 C   0  0  0  0  0  0  0  0  0  0  0  0
  183.7400  178.7680  145.1090 O   0  0  0  0  0  1  0  0  0  0  0  0
  187.0900  178.1600  142.7230 N   0  0  0  0  0  0  0  0  0  0  0  0
  188.5360  177.4100  146.0210 C   0  0  0  0  0  3  0  0  0  0  0  0
  184.7860  178.7480  142.9440 C   0  0  0  0  0  3  0  0  0  0  0  0
  185.9190  178.5500  142.1530 C   0  0  0  0  0  0  0  0  0  0  0  0
  186.0850  178.1660  144.9000 C   0  0  0  0  0  0  0  0  0  0  0  0
  189.6430  177.3040  143.8100 C   0  0  0  0  0  0  0  0  0  0  0  0
  191.5760  177.4800  142.6250 C   0  0  0  0  0  3  0  0  0  0  0  0
  189.8850  176.1670  142.9420 C   0  0  0  0  0  0  0  0  0  0  0  0
  191.1070  176.3350  142.2400 N   0  0  0  0  0  0  0  0  0  0  0  0
  190.8490  179.4930  144.1330 C   0  0  0  0  0  1  0  0  0  0  0  0
  189.1380  175.1620  142.8160 O   0  0  0  0  0  0  0  0  0  0  0  0
  190.6790  178.1100  143.6020 C   0  0  0  0  0  0  0  0  0  0  0  0
  185.8340  178.7300  140.6780 C   0  0  0  0  0  2  0  0  0  0  0  0
  187.1220  178.6620  140.1170 O   0  0  0  0  0  0  0  0  0  0  0  0
  187.0500  178.0280  138.8550 C   0  0  2  0  0  3  0  0  0  0  0  0
  188.2720  178.2970  137.9830 C   0  0  0  0  0  1  0  0  0  0  0  0
  185.7460  178.3000  138.1060 C   0  0  0  0  0  2  0  0  0  0  0  0
  185.3290  177.0740  137.3190 C   0  0  0  0  0  2  0  0  0  0  0  0
  184.0240  177.2400  136.8580 O   0  0  0  0  0  1  0  0  0  0  0  0
  1  8  1  0  0  0  0
  2  1  2  0  0  0  0
  2 11  1  0  0  0  0
  4  3  1  0  0  0  0
  5 11  1  0  0  0  0
  5  6  1  0  0  0  0
  7  2  1  0  0  0  0
  8  3  2  0  0  0  0
  9  5  2  0  0  0  0
 10  7  2  0  0  0  0
 10  9  1  0  0  0  0
 11  4  2  0  0  0  0
 12  1  1  0  0  0  0
 13 18  1  0  0  0  0
 14 12  1  0  0  0  0
 15 13  2  0  0  0  0
 15 14  1  0  0  0  0
 17 14  2  0  0  0  0
 18 12  2  0  0  0  0
 18 16  1  0  0  0  0
 19 10  1  0  0  0  0
 20 19  1  0  0  0  0
 21 22  1  6  0  0  0
 21 20  1  0  0  0  0
 23 21  1  0  0  0  0
 24 23  1  0  0  0  0
 25 24  1  0  0  0  0
M  END
>  <MODEL>
5

>  <REMARK>
 VINA RESULT:      -7.7      1.835      2.474
  Name = 
  6 active torsions:
  status: ('A' for Active; 'I' for Inactive)
    1  A    between atoms: C_1  and  C_5
    2  A    between atoms: C_2  and  C_12
    3  A    between atoms: C_6  and  O_15
    4  A    between atoms: C_6  and  C_23
    5  A    between atoms: C_12  and  C_21
    6  A    between atoms: O_15  and  C_21
                            x       y       z     vdW  Elec       q    Type
                         _______ _______ _______ _____ _____    ______ ____

>  <TORSDO>
F 6

$$$$
=
 OpenBabel10262419493D

 25 27  0  0  1  0  0  0  0  0999 V2000
  183.0460  178.3280  141.4550 C   0  0  0  0  0  0  0  0  0  0  0  0
  183.9880  178.3070  142.5060 C   0  0  0  0  0  0  0  0  0  0  0  0
  181.3210  179.0020  143.0320 C   0  0  0  0  0  3  0  0  0  0  0  0
  182.2540  179.0030  144.0700 C   0  0  0  0  0  3  0  0  0  0  0  0
  184.5330  178.6320  144.8520 C   0  0  0  0  0  0  0  0  0  0  0  0
  184.1800  178.9800  146.1510 O   0  0  0  0  0  1  0  0  0  0  0  0
  185.2770  177.9270  142.2820 N   0  0  0  0  0  0  0  0  0  0  0  0
  181.7140  178.6620  141.7370 C   0  0  0  0  0  3  0  0  0  0  0  0
  185.8460  178.2520  144.5780 C   0  0  0  0  0  3  0  0  0  0  0  0
  186.2020  177.8920  143.2770 C   0  0  0  0  0  0  0  0  0  0  0  0
  183.5860  178.6550  143.8180 C   0  0  0  0  0  0  0  0  0  0  0  0
  183.4060  177.9840  140.0620 C   0  0  0  0  0  0  0  0  0  0  0  0
  183.7470  176.9470  138.0660 C   0  0  0  0  0  3  0  0  0  0  0  0
  184.3400  178.6900  139.2040 C   0  0  0  0  0  0  0  0  0  0  0  0
  184.5010  177.9970  137.9760 N   0  0  0  0  0  0  0  0  0  0  0  0
  182.2280  175.7670  139.8430 C   0  0  0  0  0  1  0  0  0  0  0  0
  184.9310  179.7660  139.4840 O   0  0  0  0  0  0  0  0  0  0  0  0
  183.0550  176.9100  139.3620 C   0  0  0  0  0  0  0  0  0  0  0  0
  187.6070  177.5040  142.9730 C   0  0  0  0  0  2  0  0  0  0  0  0
  188.0700  176.5980  143.9430 O   0  0  0  0  0  0  0  0  0  0  0  0
  189.3020  177.0570  144.4630 C   0  0  2  0  0  3  0  0  0  0  0  0
  189.2050  177.5020  145.9180 C   0  0  0  0  0  1  0  0  0  0  0  0
  189.9810  178.1100  143.5890 C   0  0  0  0  0  2  0  0  0  0  0  0
  191.3640  177.6420  143.1840 C   0  0  0  0  0  2  0  0  0  0  0  0
  191.5460  176.3210  143.5930 O   0  0  0  0  0  1  0  0  0  0  0  0
  1  8  2  0  0  0  0
  1  2  1  0  0  0  0
  2 11  1  0  0  0  0
  3  4  2  0  0  0  0
  5  6  1  0  0  0  0
  7  2  2  0  0  0  0
  7 10  1  0  0  0  0
  8  3  1  0  0  0  0
  9  5  1  0  0  0  0
 10  9  2  0  0  0  0
 11  4  1  0  0  0  0
 11  5  2  0  0  0  0
 12  1  1  0  0  0  0
 13 18  1  0  0  0  0
 14 17  2  0  0  0  0
 14 12  1  0  0  0  0
 15 13  2  0  0  0  0
 15 14  1  0  0  0  0
 18 16  1  0  0  0  0
 18 12  2  0  0  0  0
 19 10  1  0  0  0  0
 19 20  1  0  0  0  0
 20 21  1  0  0  0  0
 21 22  1  1  0  0  0
 23 21  1  0  0  0  0
 24 23  1  0  0  0  0
 24 25  1  0  0  0  0
M  END
>  <MODEL>
6

>  <REMARK>
 VINA RESULT:      -7.7      1.972      6.757
  Name = 
  6 active torsions:
  status: ('A' for Active; 'I' for Inactive)
    1  A    between atoms: C_1  and  C_5
    2  A    between atoms: C_2  and  C_12
    3  A    between atoms: C_6  and  O_15
    4  A    between atoms: C_6  and  C_23
    5  A    between atoms: C_12  and  C_21
    6  A    between atoms: O_15  and  C_21
                            x       y       z     vdW  Elec       q    Type
                         _______ _______ _______ _____ _____    ______ ____

>  <TORSDO>
F 6

$$$$
=
 OpenBabel10262419493D

 25 27  0  0  1  0  0  0  0  0999 V2000
  190.2930  177.0910  145.1250 C   0  0  0  0  0  0  0  0  0  0  0  0
  189.1410  177.4440  145.8600 C   0  0  0  0  0  0  0  0  0  0  0  0
  191.4420  176.5680  147.2060 C   0  0  0  0  0  3  0  0  0  0  0  0
  190.2970  176.8960  147.9330 C   0  0  0  0  0  3  0  0  0  0  0  0
  187.9930  177.6900  147.9880 C   0  0  0  0  0  0  0  0  0  0  0  0
  187.9530  177.5860  149.3740 O   0  0  0  0  0  1  0  0  0  0  0  0
  188.0280  177.9170  145.2300 N   0  0  0  0  0  0  0  0  0  0  0  0
  191.4390  176.6700  145.8130 C   0  0  0  0  0  3  0  0  0  0  0  0
  186.8690  178.1540  147.3040 C   0  0  0  0  0  3  0  0  0  0  0  0
  186.9080  178.2710  145.9140 C   0  0  0  0  0  0  0  0  0  0  0  0
  189.1450  177.3370  147.2710 C   0  0  0  0  0  0  0  0  0  0  0  0
  190.3470  177.1720  143.6490 C   0  0  0  0  0  0  0  0  0  0  0  0
  190.4450  177.8580  141.4830 C   0  0  0  0  0  3  0  0  0  0  0  0
  189.9680  176.1370  142.7060 C   0  0  0  0  0  0  0  0  0  0  0  0
  190.0590  176.6250  141.3770 N   0  0  0  0  0  0  0  0  0  0  0  0
  190.9250  179.6090  143.3690 C   0  0  0  0  0  1  0  0  0  0  0  0
  189.6120  174.9660  142.9990 O   0  0  0  0  0  0  0  0  0  0  0  0
  190.6270  178.2280  142.8920 C   0  0  0  0  0  0  0  0  0  0  0  0
  185.7060  178.7470  145.1760 C   0  0  0  0  0  2  0  0  0  0  0  0
  185.8380  178.4440  143.8090 O   0  0  0  0  0  0  0  0  0  0  0  0
  184.6550  178.8190  143.1300 C   0  0  2  0  0  3  0  0  0  0  0  0
  183.3990  178.6160  143.9690 C   0  0  0  0  0  1  0  0  0  0  0  0
  184.5210  178.1940  141.7430 C   0  0  0  0  0  2  0  0  0  0  0  0
  185.5510  178.7850  140.8010 C   0  0  0  0  0  2  0  0  0  0  0  0
  184.9100  179.5690  139.8440 O   0  0  0  0  0  1  0  0  0  0  0  0
  1  8  2  0  0  0  0
  1  2  1  0  0  0  0
  2 11  1  0  0  0  0
  3  4  2  0  0  0  0
  5  6  1  0  0  0  0
  7  2  2  0  0  0  0
  7 10  1  0  0  0  0
  8  3  1  0  0  0  0
  9  5  1  0  0  0  0
 10  9  2  0  0  0  0
 11  4  1  0  0  0  0
 11  5  2  0  0  0  0
 12  1  1  0  0  0  0
 13 18  1  0  0  0  0
 14 17  2  0  0  0  0
 14 12  1  0  0  0  0
 15 13  2  0  0  0  0
 15 14  1  0  0  0  0
 18 16  1  0  0  0  0
 18 12  2  0  0  0  0
 19 10  1  0  0  0  0
 20 19  1  0  0  0  0
 21 20  1  0  0  0  0
 21 22  1  1  0  0  0
 23 21  1  0  0  0  0
 24 23  1  0  0  0  0
 25 24  1  0  0  0  0
M  END
>  <MODEL>
7

>  <REMARK>
 VINA RESULT:      -7.7      1.522      2.293
  Name = 
  6 active torsions:
  status: ('A' for Active; 'I' for Inactive)
    1  A    between atoms: C_1  and  C_5
    2  A    between atoms: C_2  and  C_12
    3  A    between atoms: C_6  and  O_15
    4  A    between atoms: C_6  and  C_23
    5  A    between atoms: C_12  and  C_21
    6  A    between atoms: O_15  and  C_21
                            x       y       z     vdW  Elec       q    Type
                         _______ _______ _______ _____ _____    ______ ____

>  <TORSDO>
F 6

$$$$
=
 OpenBabel10262419493D

 25 27  0  0  1  0  0  0  0  0999 V2000
  189.0220  177.6940  145.1120 C   0  0  0  0  0  0  0  0  0  0  0  0
  187.6460  177.9570  144.9420 C   0  0  0  0  0  0  0  0  0  0  0  0
  188.6850  177.5640  147.5180 C   0  0  0  0  0  3  0  0  0  0  0  0
  187.3210  177.8030  147.3510 C   0  0  0  0  0  3  0  0  0  0  0  0
  185.4280  178.2640  145.8860 C   0  0  0  0  0  0  0  0  0  0  0  0
  184.5550  178.3040  146.9680 O   0  0  0  0  0  1  0  0  0  0  0  0
  187.1280  178.1980  143.7040 N   0  0  0  0  0  0  0  0  0  0  0  0
  189.5290  177.5150  146.4070 C   0  0  0  0  0  3  0  0  0  0  0  0
  184.9350  178.4900  144.6010 C   0  0  0  0  0  3  0  0  0  0  0  0
  185.8090  178.4610  143.5130 C   0  0  0  0  0  0  0  0  0  0  0  0
  186.7930  178.0030  146.0710 C   0  0  0  0  0  0  0  0  0  0  0  0
  189.9630  177.6240  143.9720 C   0  0  0  0  0  0  0  0  0  0  0  0
  191.2890  176.9570  142.2490 C   0  0  0  0  0  3  0  0  0  0  0  0
  190.9460  178.6200  143.5910 C   0  0  0  0  0  0  0  0  0  0  0  0
  191.7320  178.1470  142.5090 N   0  0  0  0  0  0  0  0  0  0  0  0
  189.5510  175.2550  143.2160 C   0  0  0  0  0  1  0  0  0  0  0  0
  191.0960  179.7500  144.1250 O   0  0  0  0  0  0  0  0  0  0  0  0
  190.1860  176.6020  143.1510 C   0  0  0  0  0  0  0  0  0  0  0  0
  185.2870  178.6810  142.1370 C   0  0  0  0  0  2  0  0  0  0  0  0
  184.0620  178.0090  141.9800 O   0  0  0  0  0  0  0  0  0  0  0  0
  183.6710  178.0570  140.6220 C   0  0  2  0  0  3  0  0  0  0  0  0
  184.5320  178.9990  139.7890 C   0  0  0  0  0  1  0  0  0  0  0  0
  182.1800  178.3220  140.4220 C   0  0  0  0  0  2  0  0  0  0  0  0
  181.5290  178.6750  141.7450 C   0  0  0  0  0  2  0  0  0  0  0  0
  180.3020  178.0220  141.8470 O   0  0  0  0  0  1  0  0  0  0  0  0
  1  8  1  0  0  0  0
  2  1  2  0  0  0  0
  2 11  1  0  0  0  0
  4  3  1  0  0  0  0
  5 11  1  0  0  0  0
  5  6  1  0  0  0  0
  7  2  1  0  0  0  0
  8  3  2  0  0  0  0
  9  5  2  0  0  0  0
 10  7  2  0  0  0  0
 10  9  1  0  0  0  0
 11  4  2  0  0  0  0
 12  1  1  0  0  0  0
 13 15  2  0  0  0  0
 13 18  1  0  0  0  0
 14 12  1  0  0  0  0
 14 17  2  0  0  0  0
 15 14  1  0  0  0  0
 18 16  1  0  0  0  0
 18 12  2  0  0  0  0
 19 10  1  0  0  0  0
 20 19  1  0  0  0  0
 21 22  1  6  0  0  0
 21 20  1  0  0  0  0
 23 21  1  0  0  0  0
 23 24  1  0  0  0  0
 24 25  1  0  0  0  0
M  END
>  <MODEL>
8

>  <REMARK>
 VINA RESULT:      -7.6      1.410      2.192
  Name = 
  6 active torsions:
  status: ('A' for Active; 'I' for Inactive)
    1  A    between atoms: C_1  and  C_5
    2  A    between atoms: C_2  and  C_12
    3  A    between atoms: C_6  and  O_15
    4  A    between atoms: C_6  and  C_23
    5  A    between atoms: C_12  and  C_21
    6  A    between atoms: O_15  and  C_21
                            x       y       z     vdW  Elec       q    Type
                         _______ _______ _______ _____ _____    ______ ____

>  <TORSDO>
F 6

$$$$
=
 OpenBabel10262419493D

 25 27  0  0  1  0  0  0  0  0999 V2000
  182.9670  178.4460  141.3620 C   0  0  0  0  0  0  0  0  0  0  0  0
  183.8950  178.4210  142.4260 C   0  0  0  0  0  0  0  0  0  0  0  0
  181.2030  179.0310  142.9330 C   0  0  0  0  0  3  0  0  0  0  0  0
  182.1220  179.0280  143.9830 C   0  0  0  0  0  3  0  0  0  0  0  0
  184.3990  178.6950  144.7870 C   0  0  0  0  0  0  0  0  0  0  0  0
  184.0200  178.9970  146.0910 O   0  0  0  0  0  1  0  0  0  0  0  0
  185.1970  178.0810  142.2100 N   0  0  0  0  0  0  0  0  0  0  0  0
  181.6230  178.7380  141.6340 C   0  0  0  0  0  3  0  0  0  0  0  0
  185.7260  178.3570  144.5220 C   0  0  0  0  0  3  0  0  0  0  0  0
  186.1090  178.0430  143.2170 C   0  0  0  0  0  0  0  0  0  0  0  0
  183.4660  178.7220  143.7410 C   0  0  0  0  0  0  0  0  0  0  0  0
  183.3560  178.1510  139.9660 C   0  0  0  0  0  0  0  0  0  0  0  0
  183.7810  177.1700  137.9580 C   0  0  0  0  0  3  0  0  0  0  0  0
  184.2300  178.9400  139.1200 C   0  0  0  0  0  0  0  0  0  0  0  0
  184.4480  178.2790  137.8830 N   0  0  0  0  0  0  0  0  0  0  0  0
  182.3590  175.8500  139.7160 C   0  0  0  0  0  1  0  0  0  0  0  0
  184.7320  180.0570  139.4150 O   0  0  0  0  0  0  0  0  0  0  0  0
  183.0930  177.0610  139.2510 C   0  0  0  0  0  0  0  0  0  0  0  0
  187.5270  177.7010  142.9230 C   0  0  0  0  0  2  0  0  0  0  0  0
  187.8690  178.1580  141.6370 O   0  0  0  0  0  0  0  0  0  0  0  0
  188.9550  177.3990  141.1440 C   0  0  2  0  0  3  0  0  0  0  0  0
  190.1920  177.4860  142.0310 C   0  0  0  0  0  1  0  0  0  0  0  0
  189.2840  177.6810  139.6790 C   0  0  0  0  0  2  0  0  0  0  0  0
  188.0080  177.8680  138.8820 C   0  0  0  0  0  2  0  0  0  0  0  0
  188.1480  178.9640  138.0320 O   0  0  0  0  0  1  0  0  0  0  0  0
  1  8  2  0  0  0  0
  1  2  1  0  0  0  0
  2 11  1  0  0  0  0
  3  4  2  0  0  0  0
  5  6  1  0  0  0  0
  7  2  2  0  0  0  0
  7 10  1  0  0  0  0
  8  3  1  0  0  0  0
  9  5  1  0  0  0  0
 10  9  2  0  0  0  0
 11  4  1  0  0  0  0
 11  5  2  0  0  0  0
 12  1  1  0  0  0  0
 13 18  1  0  0  0  0
 14 17  2  0  0  0  0
 14 12  1  0  0  0  0
 15 13  2  0  0  0  0
 15 14  1  0  0  0  0
 18 16  1  0  0  0  0
 18 12  2  0  0  0  0
 19 10  1  0  0  0  0
 20 19  1  0  0  0  0
 21 20  1  0  0  0  0
 21 22  1  1  0  0  0
 23 21  1  0  0  0  0
 24 23  1  0  0  0  0
 25 24  1  0  0  0  0
M  END
>  <MODEL>
9

>  <REMARK>
 VINA RESULT:      -7.5      2.431      6.283
  Name = 
  6 active torsions:
  status: ('A' for Active; 'I' for Inactive)
    1  A    between atoms: C_1  and  C_5
    2  A    between atoms: C_2  and  C_12
    3  A    between atoms: C_6  and  O_15
    4  A    between atoms: C_6  and  C_23
    5  A    between atoms: C_12  and  C_21
    6  A    between atoms: O_15  and  C_21
                            x       y       z     vdW  Elec       q    Type
                         _______ _______ _______ _____ _____    ______ ____

>  <TORSDO>
F 6

$$$$
