=
 OpenBabel10262420543D

 28 32  0  0  1  0  0  0  0  0999 V2000
  187.1440  178.3230  140.8020 N   0  0  0  0  0  0  0  0  0  0  0  0
  189.6990  176.9690  145.3140 S   0  0  0  0  0  0  0  0  0  0  0  0
  183.5830  179.1080  144.2030 C   0  0  0  0  0  1  0  0  0  0  0  0
  187.5870  177.4820  146.8460 C   0  0  0  0  0  0  0  0  0  0  0  0
  187.1490  177.9040  144.5270 C   0  0  1  0  0  3  0  0  0  0  0  0
  188.0150  177.4960  145.5400 C   0  0  0  0  0  0  0  0  0  0  0  0
  185.4480  178.2640  146.2160 C   0  0  0  0  0  3  0  0  0  0  0  0
  188.4800  177.0800  147.7290 C   0  0  0  0  0  2  0  0  0  0  0  0
  185.4390  178.6950  142.4650 C   0  0  0  0  0  0  0  0  0  0  0  0
  187.5700  177.9280  143.1940 O   0  0  0  0  0  0  0  0  0  0  0  0
  186.3260  177.8590  147.1770 N   0  0  0  0  0  0  0  0  0  0  0  0
  184.9200  179.1000  140.1060 C   0  0  0  0  0  3  0  0  0  0  0  0
  184.9860  178.6860  143.8830 C   0  0  0  0  0  0  0  0  0  0  0  0
  184.5200  179.1030  141.3780 C   0  0  0  0  0  3  0  0  0  0  0  0
  189.8020  176.7060  147.1320 C   0  0  2  0  0  3  0  0  0  0  0  0
  185.8340  178.2950  144.8600 C   0  0  0  0  0  0  0  0  0  0  0  0
  186.2540  178.7000  139.7820 N   0  0  0  0  0  2  0  0  0  0  0  0
  186.7000  178.3220  142.1690 C   0  0  0  0  0  0  0  0  0  0  0  0
  190.8920  177.5770  147.7270 C   0  0  0  0  0  2  0  0  0  0  0  0
  192.0990  176.7940  147.9280 N   0  0  0  0  0  1  0  0  0  0  0  0
  188.4870  177.8800  140.4520 C   0  0  0  0  0  2  0  0  0  0  0  0
  188.6260  177.7770  138.9720 C   0  0  0  0  0  0  0  0  0  0  0  0
  188.9410  177.5750  136.1990 C   0  0  0  0  0  0  0  0  0  0  0  0
  188.3920  176.5580  138.3260 C   0  0  0  0  0  3  0  0  0  0  0  0
  189.0260  178.8930  138.2290 C   0  0  0  0  0  3  0  0  0  0  0  0
  189.1820  178.7930  136.8430 C   0  0  0  0  0  3  0  0  0  0  0  0
  189.1070  177.4690  134.7260 C   0  0  0  0  0  1  0  0  0  0  0  0
  188.5480  176.4580  136.9400 C   0  0  0  0  0  3  0  0  0  0  0  0
  1 18  1  0  0  0  0
  2  6  1  0  0  0  0
  2 15  1  0  0  0  0
  4 11  1  0  0  0  0
  4  8  1  0  0  0  0
  5 10  1  6  0  0  0
  5 16  1  0  0  0  0
  5  6  1  0  0  0  0
  6  4  2  0  0  0  0
  7 11  2  0  0  0  0
  9 13  1  0  0  0  0
 12 14  2  0  0  0  0
 13  3  1  0  0  0  0
 13 16  2  0  0  0  0
 14  9  1  0  0  0  0
 15 19  1  1  0  0  0
 15  8  1  0  0  0  0
 16  7  1  0  0  0  0
 17 12  1  0  0  0  0
 17  1  1  0  0  0  0
 18  9  2  0  0  0  0
 18 10  1  0  0  0  0
 19 20  1  0  0  0  0
 21  1  1  0  0  0  0
 22 21  1  0  0  0  0
 23 26  2  0  0  0  0
 23 28  1  0  0  0  0
 24 22  1  0  0  0  0
 25 22  2  0  0  0  0
 26 25  1  0  0  0  0
 27 23  1  0  0  0  0
 28 24  2  0  0  0  0
M  END
>  <MODEL>
1

>  <REMARK>
 VINA RESULT:      -9.5      0.000      0.000
  Name = 
  3 active torsions:
  status: ('A' for Active; 'I' for Inactive)
    1  A    between atoms: N_1  and  C_2
    2  A    between atoms: C_2  and  C_3
    3  A    between atoms: C_12  and  C_24
                            x       y       z     vdW  Elec       q    Type
                         _______ _______ _______ _____ _____    ______ ____

>  <TORSDO>
F 3

$$$$
=
 OpenBabel10262420543D

 28 32  0  0  1  0  0  0  0  0999 V2000
  183.9060  178.6250  141.8200 N   0  0  0  0  0  0  0  0  0  0  0  0
  189.0300  177.0590  141.7020 S   0  0  0  0  0  0  0  0  0  0  0  0
  184.9670  178.4200  146.6880 C   0  0  0  0  0  1  0  0  0  0  0  0
  189.2480  177.0500  144.3520 C   0  0  0  0  0  0  0  0  0  0  0  0
  187.0620  177.7130  143.6250 C   0  0  1  0  0  3  0  0  0  0  0  0
  188.3620  177.3020  143.3330 C   0  0  0  0  0  0  0  0  0  0  0  0
  187.6230  177.5920  145.9800 C   0  0  0  0  0  3  0  0  0  0  0  0
  190.4510  176.6660  143.9720 C   0  0  0  0  0  2  0  0  0  0  0  0
  184.4430  178.5190  144.1670 C   0  0  0  0  0  0  0  0  0  0  0  0
  186.1480  177.9770  142.5990 O   0  0  0  0  0  0  0  0  0  0  0  0
  188.8850  177.1930  145.6520 N   0  0  0  0  0  0  0  0  0  0  0  0
  182.1790  179.1580  143.4840 C   0  0  0  0  0  3  0  0  0  0  0  0
  185.4120  178.2530  145.2650 C   0  0  0  0  0  0  0  0  0  0  0  0
  183.0530  178.9320  144.4660 C   0  0  0  0  0  3  0  0  0  0  0  0
  190.6200  176.5720  142.4870 C   0  0  2  0  0  3  0  0  0  0  0  0
  186.6720  177.8610  144.9730 C   0  0  0  0  0  0  0  0  0  0  0  0
  182.5860  179.0030  142.1220 N   0  0  0  0  0  2  0  0  0  0  0  0
  184.8360  178.3750  142.8860 C   0  0  0  0  0  0  0  0  0  0  0  0
  191.7320  177.5030  142.0420 C   0  0  0  0  0  2  0  0  0  0  0  0
  191.8300  177.5030  140.5930 N   0  0  0  0  0  1  0  0  0  0  0  0
  184.2930  178.4320  140.4290 C   0  0  0  0  0  2  0  0  0  0  0  0
  183.1550  177.8650  139.6510 C   0  0  0  0  0  0  0  0  0  0  0  0
  181.0530  176.7910  138.1490 C   0  0  0  0  0  0  0  0  0  0  0  0
  182.7630  176.5360  139.8440 C   0  0  0  0  0  3  0  0  0  0  0  0
  182.4990  178.6540  138.6990 C   0  0  0  0  0  3  0  0  0  0  0  0
  181.4470  178.1180  137.9500 C   0  0  0  0  0  3  0  0  0  0  0  0
  179.9350  176.2210  137.3530 C   0  0  0  0  0  1  0  0  0  0  0  0
  181.7120  176.0000  139.0950 C   0  0  0  0  0  3  0  0  0  0  0  0
  1 17  1  0  0  0  0
  1 18  1  0  0  0  0
  2 15  1  0  0  0  0
  2  6  1  0  0  0  0
  4 11  1  0  0  0  0
  5 10  1  1  0  0  0
  5 16  1  0  0  0  0
  6  5  1  0  0  0  0
  6  4  2  0  0  0  0
  8  4  1  0  0  0  0
  9 14  1  0  0  0  0
  9 13  1  0  0  0  0
 10 18  1  0  0  0  0
 11  7  2  0  0  0  0
 12 14  2  0  0  0  0
 13  3  1  0  0  0  0
 15 19  1  6  0  0  0
 15  8  1  0  0  0  0
 16 13  2  0  0  0  0
 16  7  1  0  0  0  0
 17 12  1  0  0  0  0
 18  9  2  0  0  0  0
 20 19  1  0  0  0  0
 21  1  1  0  0  0  0
 22 24  1  0  0  0  0
 22 21  1  0  0  0  0
 23 28  1  0  0  0  0
 25 22  2  0  0  0  0
 26 23  2  0  0  0  0
 26 25  1  0  0  0  0
 27 23  1  0  0  0  0
 28 24  2  0  0  0  0
M  END
>  <MODEL>
2

>  <REMARK>
 VINA RESULT:      -9.3      3.455      4.825
  Name = 
  3 active torsions:
  status: ('A' for Active; 'I' for Inactive)
    1  A    between atoms: N_1  and  C_2
    2  A    between atoms: C_2  and  C_3
    3  A    between atoms: C_12  and  C_24
                            x       y       z     vdW  Elec       q    Type
                         _______ _______ _______ _____ _____    ______ ____

>  <TORSDO>
F 3

$$$$
=
 OpenBabel10262420543D

 28 32  0  0  1  0  0  0  0  0999 V2000
  189.8290  177.2070  142.5600 N   0  0  0  0  0  0  0  0  0  0  0  0
  184.7510  178.9180  142.6550 S   0  0  0  0  0  0  0  0  0  0  0  0
  188.8640  177.1040  147.4510 C   0  0  0  0  0  1  0  0  0  0  0  0
  184.5830  178.7510  145.3040 C   0  0  0  0  0  0  0  0  0  0  0  0
  186.7350  178.0790  144.4880 C   0  0  1  0  0  3  0  0  0  0  0  0
  185.4420  178.5450  144.2510 C   0  0  0  0  0  0  0  0  0  0  0  0
  186.2210  178.0530  146.8570 C   0  0  0  0  0  3  0  0  0  0  0  0
  183.3840  179.1930  144.9760 C   0  0  0  0  0  2  0  0  0  0  0  0
  189.3390  177.1660  144.9190 C   0  0  0  0  0  0  0  0  0  0  0  0
  187.6200  177.8610  143.4280 O   0  0  0  0  0  0  0  0  0  0  0  0
  184.9660  178.5090  146.5830 N   0  0  0  0  0  0  0  0  0  0  0  0
  191.5690  176.5130  144.1480 C   0  0  0  0  0  3  0  0  0  0  0  0
  188.3980  177.3820  146.0530 C   0  0  0  0  0  0  0  0  0  0  0  0
  190.7210  176.6950  145.1610 C   0  0  0  0  0  3  0  0  0  0  0  0
  183.1900  179.3940  143.5040 C   0  0  2  0  0  3  0  0  0  0  0  0
  187.1450  177.8280  145.8150 C   0  0  0  0  0  0  0  0  0  0  0  0
  191.1420  176.7720  142.8090 N   0  0  0  0  0  2  0  0  0  0  0  0
  188.9260  177.4080  143.6590 C   0  0  0  0  0  0  0  0  0  0  0  0
  182.0440  178.5270  143.0200 C   0  0  0  0  0  2  0  0  0  0  0  0
  180.9110  178.6540  143.9200 N   0  0  0  0  0  1  0  0  0  0  0  0
  189.4210  177.5060  141.1940 C   0  0  0  0  0  2  0  0  0  0  0  0
  190.4930  177.1080  140.2380 C   0  0  0  0  0  0  0  0  0  0  0  0
  192.4910  176.4040  138.4100 C   0  0  0  0  0  0  0  0  0  0  0  0
  191.8070  177.5500  140.4300 C   0  0  0  0  0  3  0  0  0  0  0  0
  190.1790  176.3210  139.1250 C   0  0  0  0  0  3  0  0  0  0  0  0
  191.1780  175.9670  138.2120 C   0  0  0  0  0  3  0  0  0  0  0  0
  193.5530  176.0280  137.4400 C   0  0  0  0  0  1  0  0  0  0  0  0
  192.8050  177.1960  139.5180 C   0  0  0  0  0  3  0  0  0  0  0  0
  1 17  1  0  0  0  0
  1 18  1  0  0  0  0
  2 15  1  0  0  0  0
  2  6  1  0  0  0  0
  4 11  1  0  0  0  0
  5 10  1  1  0  0  0
  5 16  1  0  0  0  0
  6  5  1  0  0  0  0
  6  4  2  0  0  0  0
  8  4  1  0  0  0  0
  9 14  1  0  0  0  0
  9 13  1  0  0  0  0
 10 18  1  0  0  0  0
 11  7  2  0  0  0  0
 12 14  2  0  0  0  0
 13  3  1  0  0  0  0
 15 19  1  6  0  0  0
 15  8  1  0  0  0  0
 16 13  2  0  0  0  0
 16  7  1  0  0  0  0
 17 12  1  0  0  0  0
 18  9  2  0  0  0  0
 19 20  1  0  0  0  0
 21  1  1  0  0  0  0
 22 24  1  0  0  0  0
 22 21  1  0  0  0  0
 23 28  1  0  0  0  0
 25 22  2  0  0  0  0
 26 23  2  0  0  0  0
 26 25  1  0  0  0  0
 27 23  1  0  0  0  0
 28 24  2  0  0  0  0
M  END
>  <MODEL>
3

>  <REMARK>
 VINA RESULT:      -9.2      2.902      5.342
  Name = 
  3 active torsions:
  status: ('A' for Active; 'I' for Inactive)
    1  A    between atoms: N_1  and  C_2
    2  A    between atoms: C_2  and  C_3
    3  A    between atoms: C_12  and  C_24
                            x       y       z     vdW  Elec       q    Type
                         _______ _______ _______ _____ _____    ______ ____

>  <TORSDO>
F 3

$$$$
=
 OpenBabel10262420543D

 28 32  0  0  1  0  0  0  0  0999 V2000
  184.2730  178.7780  142.2620 N   0  0  0  0  0  0  0  0  0  0  0  0
  189.2280  177.3580  140.7940 S   0  0  0  0  0  0  0  0  0  0  0  0
  186.3580  177.8230  146.6900 C   0  0  0  0  0  1  0  0  0  0  0  0
  190.0130  176.9320  143.2990 C   0  0  0  0  0  0  0  0  0  0  0  0
  187.7310  177.6570  143.1750 C   0  0  1  0  0  3  0  0  0  0  0  0
  188.9310  177.3250  142.5480 C   0  0  0  0  0  0  0  0  0  0  0  0
  188.7860  177.1740  145.3040 C   0  0  0  0  0  3  0  0  0  0  0  0
  191.1000  176.6390  142.6120 C   0  0  0  0  0  2  0  0  0  0  0  0
  185.3030  178.3110  144.3900 C   0  0  0  0  0  0  0  0  0  0  0  0
  186.6220  178.0610  142.4260 O   0  0  0  0  0  0  0  0  0  0  0  0
  189.9420  176.8590  144.6530 N   0  0  0  0  0  0  0  0  0  0  0  0
  182.9550  179.0030  144.3230 C   0  0  0  0  0  3  0  0  0  0  0  0
  186.4830  177.8940  145.1970 C   0  0  0  0  0  0  0  0  0  0  0  0
  184.0170  178.6420  145.0440 C   0  0  0  0  0  3  0  0  0  0  0  0
  190.9440  176.7860  141.1300 C   0  0  2  0  0  3  0  0  0  0  0  0
  187.6440  177.5800  144.5820 C   0  0  0  0  0  0  0  0  0  0  0  0
  183.0560  179.0750  142.8980 N   0  0  0  0  0  2  0  0  0  0  0  0
  185.4080  178.3810  143.0480 C   0  0  0  0  0  0  0  0  0  0  0  0
  191.9460  177.7990  140.6110 C   0  0  0  0  0  2  0  0  0  0  0  0
  192.9730  177.1280  139.8320 N   0  0  0  0  0  1  0  0  0  0  0  0
  184.3480  178.8170  140.8080 C   0  0  0  0  0  2  0  0  0  0  0  0
  183.0880  178.2890  140.2120 C   0  0  0  0  0  0  0  0  0  0  0  0
  180.7010  177.2970  139.1420 C   0  0  0  0  0  0  0  0  0  0  0  0
  182.1410  179.1690  139.6750 C   0  0  0  0  0  3  0  0  0  0  0  0
  182.8350  176.9130  140.2200 C   0  0  0  0  0  3  0  0  0  0  0  0
  181.6420  176.4170  139.6840 C   0  0  0  0  0  3  0  0  0  0  0  0
  179.4330  176.7700  138.5730 C   0  0  0  0  0  1  0  0  0  0  0  0
  180.9490  178.6720  139.1390 C   0  0  0  0  0  3  0  0  0  0  0  0
  1 17  1  0  0  0  0
  1 18  1  0  0  0  0
  2 15  1  0  0  0  0
  2  6  1  0  0  0  0
  4 11  1  0  0  0  0
  5 10  1  6  0  0  0
  5 16  1  0  0  0  0
  6  5  1  0  0  0  0
  6  4  2  0  0  0  0
  8  4  1  0  0  0  0
  9 14  1  0  0  0  0
  9 13  1  0  0  0  0
 10 18  1  0  0  0  0
 11  7  2  0  0  0  0
 12 14  2  0  0  0  0
 13  3  1  0  0  0  0
 15 19  1  1  0  0  0
 15  8  1  0  0  0  0
 16 13  2  0  0  0  0
 16  7  1  0  0  0  0
 17 12  1  0  0  0  0
 18  9  2  0  0  0  0
 20 19  1  0  0  0  0
 21  1  1  0  0  0  0
 22 25  1  0  0  0  0
 22 21  1  0  0  0  0
 23 26  1  0  0  0  0
 24 22  2  0  0  0  0
 26 25  2  0  0  0  0
 27 23  1  0  0  0  0
 28 23  2  0  0  0  0
 28 24  1  0  0  0  0
M  END
>  <MODEL>
4

>  <REMARK>
 VINA RESULT:      -8.7      3.135      5.478
  Name = 
  3 active torsions:
  status: ('A' for Active; 'I' for Inactive)
    1  A    between atoms: N_1  and  C_2
    2  A    between atoms: C_2  and  C_3
    3  A    between atoms: C_12  and  C_24
                            x       y       z     vdW  Elec       q    Type
                         _______ _______ _______ _____ _____    ______ ____

>  <TORSDO>
F 3

$$$$
=
 OpenBabel10262420543D

 28 32  0  0  1  0  0  0  0  0999 V2000
  187.7690  178.0360  144.8770 N   0  0  0  0  0  0  0  0  0  0  0  0
  187.2870  178.2280  139.5430 S   0  0  0  0  0  0  0  0  0  0  0  0
  182.8710  178.8220  144.3760 C   0  0  0  0  0  1  0  0  0  0  0  0
  184.6630  178.6490  139.6420 C   0  0  0  0  0  0  0  0  0  0  0  0
  185.6300  178.4350  141.8250 C   0  0  0  0  0  0  0  0  0  0  0  0
  185.7660  178.4500  140.4380 C   0  0  0  0  0  0  0  0  0  0  0  0
  183.2550  178.8240  141.5310 C   0  0  0  0  0  2  0  0  0  0  0  0
  184.8970  178.6470  138.3430 C   0  0  0  0  0  2  0  0  0  0  0  0
  185.4050  178.4160  144.6090 C   0  0  0  0  0  0  0  0  0  0  0  0
  186.7410  178.2300  142.6490 O   0  0  0  0  0  0  0  0  0  0  0  0
  183.4300  178.8320  140.1790 N   0  0  0  0  0  0  0  0  0  0  0  0
  186.3430  178.2520  146.8650 C   0  0  0  0  0  3  0  0  0  0  0  0
  184.2140  178.6210  143.7390 C   0  0  0  0  0  0  0  0  0  0  0  0
  185.2760  178.4220  146.0840 C   0  0  0  0  0  3  0  0  0  0  0  0
  186.3350  178.4330  137.9830 C   0  0  2  0  0  3  0  0  0  0  0  0
  184.3530  178.6280  142.3950 C   0  0  0  0  0  0  0  0  0  0  0  0
  187.6310  178.0580  146.2750 N   0  0  0  0  0  2  0  0  0  0  0  0
  186.6140  178.2290  144.0450 C   0  0  0  0  0  0  0  0  0  0  0  0
  186.4630  177.1910  137.1220 C   0  0  0  0  0  2  0  0  0  0  0  0
  187.5660  176.3720  137.5930 N   0  0  0  0  0  1  0  0  0  0  0  0
  189.0940  177.8780  144.2920 C   0  0  0  0  0  2  0  0  0  0  0  0
  190.0290  177.2810  145.2870 C   0  0  0  0  0  0  0  0  0  0  0  0
  191.8180  176.2020  147.1480 C   0  0  0  0  0  0  0  0  0  0  0  0
  189.8320  177.4970  146.6550 C   0  0  0  0  0  3  0  0  0  0  0  0
  191.1270  176.5320  144.8510 C   0  0  0  0  0  3  0  0  0  0  0  0
  192.0210  175.9910  145.7810 C   0  0  0  0  0  3  0  0  0  0  0  0
  192.7680  175.6280  148.1370 C   0  0  0  0  0  1  0  0  0  0  0  0
  190.7260  176.9560  147.5850 C   0  0  0  0  0  3  0  0  0  0  0  0
  1 17  1  0  0  0  0
  2  6  1  0  0  0  0
  4 11  2  0  0  0  0
  4  6  1  0  0  0  0
  5 16  1  0  0  0  0
  5 10  1  0  0  0  0
  6  5  2  0  0  0  0
  7 16  1  0  0  0  0
  8  4  1  0  0  0  0
  9 14  1  0  0  0  0
 10 18  1  0  0  0  0
 11  7  1  0  0  0  0
 13  3  1  0  0  0  0
 13  9  1  0  0  0  0
 14 12  2  0  0  0  0
 15 19  1  6  0  0  0
 15  8  1  0  0  0  0
 15  2  1  0  0  0  0
 16 13  2  0  0  0  0
 17 12  1  0  0  0  0
 18  9  2  0  0  0  0
 18  1  1  0  0  0  0
 19 20  1  0  0  0  0
 21  1  1  0  0  0  0
 21 22  1  0  0  0  0
 22 24  1  0  0  0  0
 23 28  1  0  0  0  0
 23 27  1  0  0  0  0
 24 28  2  0  0  0  0
 25 22  2  0  0  0  0
 25 26  1  0  0  0  0
 26 23  2  0  0  0  0
M  END
>  <MODEL>
5

>  <REMARK>
 VINA RESULT:      -8.6      2.451      7.483
  Name = 
  3 active torsions:
  status: ('A' for Active; 'I' for Inactive)
    1  A    between atoms: N_1  and  C_2
    2  A    between atoms: C_2  and  C_3
    3  A    between atoms: C_12  and  C_24
                            x       y       z     vdW  Elec       q    Type
                         _______ _______ _______ _____ _____    ______ ____

>  <TORSDO>
F 3

$$$$
=
 OpenBabel10262420543D

 28 32  0  0  1  0  0  0  0  0999 V2000
  183.6260  178.5550  141.0530 N   0  0  0  0  0  0  0  0  0  0  0  0
  188.7550  177.1670  141.7550 S   0  0  0  0  0  0  0  0  0  0  0  0
  184.0100  178.7470  146.0210 C   0  0  0  0  0  1  0  0  0  0  0  0
  188.6050  177.3600  144.4030 C   0  0  0  0  0  0  0  0  0  0  0  0
  186.5240  177.8900  143.3360 C   0  0  2  0  0  3  0  0  0  0  0  0
  187.8620  177.5050  143.2560 C   0  0  0  0  0  0  0  0  0  0  0  0
  186.7580  177.9630  145.7480 C   0  0  0  0  0  3  0  0  0  0  0  0
  189.8580  176.9930  144.2210 C   0  0  0  0  0  2  0  0  0  0  0  0
  183.8370  178.6410  143.4530 C   0  0  0  0  0  0  0  0  0  0  0  0
  185.7550  178.0460  142.1780 O   0  0  0  0  0  0  0  0  0  0  0  0
  188.0620  177.5860  145.6270 N   0  0  0  0  0  0  0  0  0  0  0  0
  181.6740  179.1470  142.4210 C   0  0  0  0  0  3  0  0  0  0  0  0
  184.6510  178.4910  144.6900 C   0  0  0  0  0  0  0  0  0  0  0  0
  182.4090  179.0250  143.5270 C   0  0  0  0  0  3  0  0  0  0  0  0
  190.2330  176.7950  142.7840 C   0  0  2  0  0  3  0  0  0  0  0  0
  185.9480  178.1240  144.6030 C   0  0  0  0  0  0  0  0  0  0  0  0
  182.2690  178.9070  141.1430 N   0  0  0  0  0  2  0  0  0  0  0  0
  184.4070  178.4170  142.2520 C   0  0  0  0  0  0  0  0  0  0  0  0
  191.3730  177.7300  142.4240 C   0  0  0  0  0  2  0  0  0  0  0  0
  191.7410  178.5320  143.5780 N   0  0  0  0  0  1  0  0  0  0  0  0
  184.2070  178.2740  139.7480 C   0  0  0  0  0  2  0  0  0  0  0  0
  183.2800  177.4300  138.9420 C   0  0  0  0  0  0  0  0  0  0  0  0
  181.5810  175.8260  137.4020 C   0  0  0  0  0  0  0  0  0  0  0  0
  182.8740  176.1780  139.4180 C   0  0  0  0  0  3  0  0  0  0  0  0
  182.8400  177.8740  137.6900 C   0  0  0  0  0  3  0  0  0  0  0  0
  181.9900  177.0740  136.9210 C   0  0  0  0  0  3  0  0  0  0  0  0
  180.6770  174.9750  136.5840 C   0  0  0  0  0  1  0  0  0  0  0  0
  182.0240  175.3780  138.6490 C   0  0  0  0  0  3  0  0  0  0  0  0
  1 17  1  0  0  0  0
  1 18  1  0  0  0  0
  2 15  1  0  0  0  0
  2  6  1  0  0  0  0
  4 11  1  0  0  0  0
  5 10  1  6  0  0  0
  5 16  1  0  0  0  0
  6  5  1  0  0  0  0
  6  4  2  0  0  0  0
  8  4  1  0  0  0  0
  9 14  1  0  0  0  0
  9 13  1  0  0  0  0
 10 18  1  0  0  0  0
 11  7  2  0  0  0  0
 12 14  2  0  0  0  0
 13  3  1  0  0  0  0
 15 19  1  6  0  0  0
 15  8  1  0  0  0  0
 16 13  2  0  0  0  0
 16  7  1  0  0  0  0
 17 12  1  0  0  0  0
 18  9  2  0  0  0  0
 19 20  1  0  0  0  0
 21  1  1  0  0  0  0
 22 24  1  0  0  0  0
 22 21  1  0  0  0  0
 23 28  1  0  0  0  0
 25 22  2  0  0  0  0
 26 23  2  0  0  0  0
 26 25  1  0  0  0  0
 27 23  1  0  0  0  0
 28 24  2  0  0  0  0
M  END
>  <MODEL>
6

>  <REMARK>
 VINA RESULT:      -8.5      3.441      4.439
  Name = 
  3 active torsions:
  status: ('A' for Active; 'I' for Inactive)
    1  A    between atoms: N_1  and  C_2
    2  A    between atoms: C_2  and  C_3
    3  A    between atoms: C_12  and  C_24
                            x       y       z     vdW  Elec       q    Type
                         _______ _______ _______ _____ _____    ______ ____

>  <TORSDO>
F 3

$$$$
=
 OpenBabel10262420543D

 28 32  0  0  1  0  0  0  0  0999 V2000
  189.9250  177.7980  140.4660 N   0  0  0  0  0  0  0  0  0  0  0  0
  184.6580  178.7890  140.4170 S   0  0  0  0  0  0  0  0  0  0  0  0
  188.8000  177.2930  145.2980 C   0  0  0  0  0  1  0  0  0  0  0  0
  184.4150  178.4530  143.0440 C   0  0  0  0  0  0  0  0  0  0  0  0
  186.6690  178.1290  142.2930 C   0  0  1  0  0  3  0  0  0  0  0  0
  185.3330  178.4260  142.0230 C   0  0  0  0  0  0  0  0  0  0  0  0
  186.0750  177.9010  144.6330 C   0  0  0  0  0  3  0  0  0  0  0  0
  183.1800  178.7440  142.6850 C   0  0  0  0  0  2  0  0  0  0  0  0
  189.3560  177.5590  142.7960 C   0  0  0  0  0  0  0  0  0  0  0  0
  187.6150  178.0940  141.2650 O   0  0  0  0  0  0  0  0  0  0  0  0
  184.7790  178.1950  144.3260 N   0  0  0  0  0  0  0  0  0  0  0  0
  191.6840  177.2620  142.0950 C   0  0  0  0  0  3  0  0  0  0  0  0
  188.3530  177.5810  143.8960 C   0  0  0  0  0  0  0  0  0  0  0  0
  190.7810  177.2690  143.0760 C   0  0  0  0  0  3  0  0  0  0  0  0
  183.0150  178.9980  141.2180 C   0  0  2  0  0  3  0  0  0  0  0  0
  187.0600  177.8630  143.6230 C   0  0  0  0  0  0  0  0  0  0  0  0
  191.2750  177.5350  140.7520 N   0  0  0  0  0  2  0  0  0  0  0  0
  188.9610  177.8120  141.5320 C   0  0  0  0  0  0  0  0  0  0  0  0
  182.0200  178.0100  140.6400 C   0  0  0  0  0  2  0  0  0  0  0  0
  182.7180  176.9900  139.8770 N   0  0  0  0  0  1  0  0  0  0  0  0
  189.5310  178.1140  139.1000 C   0  0  0  0  0  2  0  0  0  0  0  0
  189.2200  176.8630  138.3510 C   0  0  0  0  0  0  0  0  0  0  0  0
  188.6410  174.5430  136.8980 C   0  0  0  0  0  0  0  0  0  0  0  0
  190.2390  175.9530  138.0480 C   0  0  0  0  0  3  0  0  0  0  0  0
  187.9130  176.6140  137.9190 C   0  0  0  0  0  3  0  0  0  0  0  0
  187.6230  175.4540  137.1940 C   0  0  0  0  0  3  0  0  0  0  0  0
  188.3330  173.3100  136.1280 C   0  0  0  0  0  1  0  0  0  0  0  0
  189.9490  174.7930  137.3230 C   0  0  0  0  0  3  0  0  0  0  0  0
  1 17  1  0  0  0  0
  1 18  1  0  0  0  0
  2 15  1  0  0  0  0
  2  6  1  0  0  0  0
  4 11  1  0  0  0  0
  5 10  1  1  0  0  0
  5 16  1  0  0  0  0
  6  5  1  0  0  0  0
  6  4  2  0  0  0  0
  8  4  1  0  0  0  0
  9 14  1  0  0  0  0
  9 13  1  0  0  0  0
 10 18  1  0  0  0  0
 11  7  2  0  0  0  0
 12 14  2  0  0  0  0
 13  3  1  0  0  0  0
 15 19  1  6  0  0  0
 15  8  1  0  0  0  0
 16 13  2  0  0  0  0
 16  7  1  0  0  0  0
 17 12  1  0  0  0  0
 18  9  2  0  0  0  0
 20 19  1  0  0  0  0
 21  1  1  0  0  0  0
 22 21  1  0  0  0  0
 23 26  2  0  0  0  0
 23 28  1  0  0  0  0
 24 22  1  0  0  0  0
 25 22  2  0  0  0  0
 26 25  1  0  0  0  0
 27 23  1  0  0  0  0
 28 24  2  0  0  0  0
M  END
>  <MODEL>
7

>  <REMARK>
 VINA RESULT:      -8.4      2.745      5.389
  Name = 
  3 active torsions:
  status: ('A' for Active; 'I' for Inactive)
    1  A    between atoms: N_1  and  C_2
    2  A    between atoms: C_2  and  C_3
    3  A    between atoms: C_12  and  C_24
                            x       y       z     vdW  Elec       q    Type
                         _______ _______ _______ _____ _____    ______ ____

>  <TORSDO>
F 3

$$$$
=
 OpenBabel10262420543D

 28 32  0  0  1  0  0  0  0  0999 V2000
  188.9560  177.8460  140.6450 N   0  0  0  0  0  0  0  0  0  0  0  0
  184.1910  179.1180  142.7420 S   0  0  0  0  0  0  0  0  0  0  0  0
  189.8010  177.0840  145.5000 C   0  0  0  0  0  1  0  0  0  0  0  0
  184.9830  178.6230  145.2320 C   0  0  0  0  0  0  0  0  0  0  0  0
  186.7240  178.2290  143.6320 C   0  0  1  0  0  3  0  0  0  0  0  0
  185.4170  178.6140  143.9280 C   0  0  0  0  0  0  0  0  0  0  0  0
  187.0890  177.8800  146.0030 C   0  0  0  0  0  3  0  0  0  0  0  0
  183.7320  179.0030  145.4080 C   0  0  0  0  0  2  0  0  0  0  0  0
  189.3400  177.4840  142.9960 C   0  0  0  0  0  0  0  0  0  0  0  0
  187.1810  178.2120  142.3100 O   0  0  0  0  0  0  0  0  0  0  0  0
  185.8040  178.2610  146.2510 N   0  0  0  0  0  0  0  0  0  0  0  0
  191.1700  177.1100  141.4130 C   0  0  0  0  0  3  0  0  0  0  0  0
  188.8580  177.4870  144.4050 C   0  0  0  0  0  0  0  0  0  0  0  0
  190.7320  177.1010  142.6730 C   0  0  0  0  0  3  0  0  0  0  0  0
  183.0200  179.3620  144.1390 C   0  0  2  0  0  3  0  0  0  0  0  0
  187.5880  177.8550  144.6830 C   0  0  0  0  0  0  0  0  0  0  0  0
  190.2850  177.4920  140.3570 N   0  0  0  0  0  2  0  0  0  0  0  0
  188.4970  177.8410  142.0060 C   0  0  0  0  0  0  0  0  0  0  0  0
  181.8050  178.4680  143.9690 C   0  0  0  0  0  2  0  0  0  0  0  0
  180.8320  179.1130  143.1050 N   0  0  0  0  0  1  0  0  0  0  0  0
  188.0790  178.2710  139.5630 C   0  0  0  0  0  2  0  0  0  0  0  0
  188.5100  177.6550  138.2760 C   0  0  0  0  0  0  0  0  0  0  0  0
  189.3690  176.4950  135.8790 C   0  0  0  0  0  0  0  0  0  0  0  0
  188.4120  176.2710  138.0920 C   0  0  0  0  0  3  0  0  0  0  0  0
  189.0450  178.4560  137.2620 C   0  0  0  0  0  3  0  0  0  0  0  0
  189.4740  177.8770  136.0640 C   0  0  0  0  0  3  0  0  0  0  0  0
  189.8250  175.8790  134.6060 C   0  0  0  0  0  1  0  0  0  0  0  0
  188.8410  175.6920  136.8940 C   0  0  0  0  0  3  0  0  0  0  0  0
  1 18  1  0  0  0  0
  2  6  1  0  0  0  0
  2 15  1  0  0  0  0
  4  8  1  0  0  0  0
  4 11  1  0  0  0  0
  5 10  1  1  0  0  0
  5  6  1  0  0  0  0
  5 16  1  0  0  0  0
  6  4  2  0  0  0  0
  7 11  2  0  0  0  0
  9 13  1  0  0  0  0
 12 14  2  0  0  0  0
 13 16  2  0  0  0  0
 13  3  1  0  0  0  0
 14  9  1  0  0  0  0
 15 19  1  6  0  0  0
 15  8  1  0  0  0  0
 16  7  1  0  0  0  0
 17  1  1  0  0  0  0
 17 12  1  0  0  0  0
 18 10  1  0  0  0  0
 18  9  2  0  0  0  0
 20 19  1  0  0  0  0
 21  1  1  0  0  0  0
 22 21  1  0  0  0  0
 23 26  2  0  0  0  0
 23 28  1  0  0  0  0
 24 22  1  0  0  0  0
 25 22  2  0  0  0  0
 26 25  1  0  0  0  0
 27 23  1  0  0  0  0
 28 24  2  0  0  0  0
M  END
>  <MODEL>
8

>  <REMARK>
 VINA RESULT:      -8.4      2.314      4.709
  Name = 
  3 active torsions:
  status: ('A' for Active; 'I' for Inactive)
    1  A    between atoms: N_1  and  C_2
    2  A    between atoms: C_2  and  C_3
    3  A    between atoms: C_12  and  C_24
                            x       y       z     vdW  Elec       q    Type
                         _______ _______ _______ _____ _____    ______ ____

>  <TORSDO>
F 3

$$$$
=
 OpenBabel10262420543D

 28 32  0  0  1  0  0  0  0  0999 V2000
  188.8360  177.8870  139.0120 N   0  0  0  0  0  0  0  0  0  0  0  0
  184.9710  179.2620  142.4610 S   0  0  0  0  0  0  0  0  0  0  0  0
  190.5690  175.9060  143.2480 C   0  0  0  0  0  1  0  0  0  0  0  0
  186.1830  178.0980  144.5220 C   0  0  0  0  0  0  0  0  0  0  0  0
  187.4260  177.8580  142.4850 C   0  0  1  0  0  3  0  0  0  0  0  0
  186.3120  178.3350  143.1740 C   0  0  0  0  0  0  0  0  0  0  0  0
  188.2310  176.9190  144.5700 C   0  0  0  0  0  3  0  0  0  0  0  0
  185.0950  178.5900  145.0810 C   0  0  0  0  0  2  0  0  0  0  0  0
  189.6530  176.9380  141.0720 C   0  0  0  0  0  0  0  0  0  0  0  0
  187.5700  178.0880  141.1140 O   0  0  0  0  0  0  0  0  0  0  0  0
  187.1260  177.4020  145.2070 N   0  0  0  0  0  0  0  0  0  0  0  0
  190.9880  176.7020  139.0330 C   0  0  0  0  0  3  0  0  0  0  0  0
  189.5010  176.6770  142.5300 C   0  0  0  0  0  0  0  0  0  0  0  0
  190.8440  176.4580  140.3360 C   0  0  0  0  0  3  0  0  0  0  0  0
  184.2020  179.3270  144.1310 C   0  0  2  0  0  3  0  0  0  0  0  0
  188.4150  177.1370  143.1890 C   0  0  0  0  0  0  0  0  0  0  0  0
  189.9800  177.4350  138.3320 N   0  0  0  0  0  2  0  0  0  0  0  0
  188.6950  177.6260  140.4180 C   0  0  0  0  0  0  0  0  0  0  0  0
  182.8350  178.6700  144.1050 C   0  0  0  0  0  2  0  0  0  0  0  0
  182.2070  178.8800  142.8120 N   0  0  0  0  0  1  0  0  0  0  0  0
  187.8380  178.6670  138.2940 C   0  0  0  0  0  2  0  0  0  0  0  0
  186.6720  177.8100  137.9380 C   0  0  0  0  0  0  0  0  0  0  0  0
  184.4900  176.1720  137.3150 C   0  0  0  0  0  0  0  0  0  0  0  0
  185.3770  178.1980  138.3010 C   0  0  0  0  0  3  0  0  0  0  0  0
  186.8740  176.5980  137.2700 C   0  0  0  0  0  3  0  0  0  0  0  0
  185.7840  175.7800  136.9560 C   0  0  0  0  0  3  0  0  0  0  0  0
  183.3320  175.3030  136.9820 C   0  0  0  0  0  1  0  0  0  0  0  0
  184.2870  177.3800  137.9880 C   0  0  0  0  0  3  0  0  0  0  0  0
  1 18  1  0  0  0  0
  2  6  1  0  0  0  0
  2 15  1  0  0  0  0
  4  8  1  0  0  0  0
  4 11  1  0  0  0  0
  5 10  1  1  0  0  0
  5  6  1  0  0  0  0
  5 16  1  0  0  0  0
  6  4  2  0  0  0  0
  7 11  2  0  0  0  0
  9 13  1  0  0  0  0
 12 14  2  0  0  0  0
 13 16  2  0  0  0  0
 13  3  1  0  0  0  0
 14  9  1  0  0  0  0
 15 19  1  6  0  0  0
 15  8  1  0  0  0  0
 16  7  1  0  0  0  0
 17  1  1  0  0  0  0
 17 12  1  0  0  0  0
 18  9  2  0  0  0  0
 18 10  1  0  0  0  0
 20 19  1  0  0  0  0
 21  1  1  0  0  0  0
 22 21  1  0  0  0  0
 22 24  1  0  0  0  0
 23 28  1  0  0  0  0
 25 22  2  0  0  0  0
 26 25  1  0  0  0  0
 26 23  2  0  0  0  0
 27 23  1  0  0  0  0
 28 24  2  0  0  0  0
M  END
>  <MODEL>
9

>  <REMARK>
 VINA RESULT:      -8.2      2.749      5.130
  Name = 
  3 active torsions:
  status: ('A' for Active; 'I' for Inactive)
    1  A    between atoms: N_1  and  C_2
    2  A    between atoms: C_2  and  C_3
    3  A    between atoms: C_12  and  C_24
                            x       y       z     vdW  Elec       q    Type
                         _______ _______ _______ _____ _____    ______ ____

>  <TORSDO>
F 3

$$$$
