=
 OpenBabel10262423053D

 37 41  0  0  1  0  0  0  0  0999 V2000
  191.6100  179.3770  144.4450 O   0  0  0  0  0  1  0  0  0  0  0  0
  190.0470  176.2850  141.0410 C   0  0  2  0  0  3  0  0  0  0  0  0
  187.4130  178.0220  138.9540 C   0  0  0  0  0  2  0  0  0  0  0  0
  191.1980  177.8210  142.6640 C   0  0  2  0  0  3  0  0  0  0  0  0
  189.0640  177.3010  140.6890 N   0  0  1  0  0  0  0  0  0  0  0  0
  190.3750  176.5150  142.5000 C   0  0  1  0  0  3  0  0  0  0  0  0
  188.4130  176.9380  139.4180 C   0  0  2  0  0  3  0  0  0  0  0  0
  192.3880  177.8770  141.6970 C   0  0  0  0  0  2  0  0  0  0  0  0
  188.9490  176.6860  143.0170 C   0  0  1  0  0  3  0  0  0  0  0  0
  189.6500  177.3860  145.3490 C   0  0  0  0  0  3  0  0  0  0  0  0
  193.0670  177.7190  139.4290 F   0  0  0  0  0  0  0  0  0  0  0  0
  191.9520  177.6900  140.2450 C   0  0  1  0  0  3  0  0  0  0  0  0
  188.6910  177.2310  144.4190 C   0  0  0  0  0  0  0  0  0  0  0  0
  186.5390  178.6140  140.0520 C   0  0  0  0  0  2  0  0  0  0  0  0
  191.2430  176.3440  140.1120 C   0  0  2  0  0  3  0  0  0  0  0  0
  188.1440  177.2560  141.8280 C   0  0  1  0  0  3  0  0  0  0  0  0
  191.7310  178.0350  144.0830 C   0  0  2  0  0  3  0  0  0  0  0  0
  189.4840  176.8390  138.3000 C   0  0  1  0  0  3  0  0  0  0  0  0
  191.1130  177.1310  145.1470 C   0  0  0  0  0  2  0  0  0  0  0  0
  187.5520  178.6540  142.0790 C   0  0  0  0  0  2  0  0  0  0  0  0
  187.3430  179.3890  140.8980 O   0  0  0  0  0  0  0  0  0  0  0  0
  190.7530  176.0520  138.6940 C   0  0  0  0  0  2  0  0  0  0  0  0
  188.8850  176.3170  136.9880 C   0  0  2  0  0  3  0  0  0  0  0  0
  189.3320  174.8940  136.6740 C   0  0  0  0  0  2  0  0  0  0  0  0
  189.5660  174.7570  135.3060 O   0  0  0  0  0  1  0  0  0  0  0  0
  189.2760  177.4400  135.6080 S   0  0  0  0  0  0  0  0  0  0  0  0
  187.0980  179.0840  135.7980 F   0  0  0  0  0  0  0  0  0  0  0  0
  186.7950  177.0940  134.8320 O   0  0  0  0  0  0  0  0  0  0  0  0
  187.5560  177.8780  135.3750 C   0  0  0  0  0  0  0  0  0  0  0  0
  187.2670  177.3240  144.8930 C   0  0  0  0  0  2  0  0  0  0  0  0
  187.1010  178.2430  146.1020 C   0  0  2  0  0  3  0  0  0  0  0  0
  187.4440  177.4990  147.3780 C   0  0  0  0  0  1  0  0  0  0  0  0
  185.6610  178.7290  146.2020 C   0  0  0  0  0  2  0  0  0  0  0  0
  184.9890  178.7740  144.8380 C   0  0  0  0  0  2  0  0  0  0  0  0
  183.4940  179.0000  144.9920 C   0  0  0  0  0  2  0  0  0  0  0  0
  182.8080  178.9760  143.6380 C   0  0  0  0  0  2  0  0  0  0  0  0
  183.8010  178.6280  142.5450 C   0  0  0  0  0  1  0  0  0  0  0  0
  2  6  1  0  0  0  0
  3  7  1  0  0  0  0
  3 14  1  0  0  0  0
  4 17  1  0  0  0  0
  5  2  1  0  0  0  0
  5 16  1  0  0  0  0
  6  4  1  0  0  0  0
  6  9  1  0  0  0  0
  7  5  1  0  0  0  0
  8  4  1  0  0  0  0
  9 13  1  0  0  0  0
 11 12  1  0  0  0  0
 12  8  1  0  0  0  0
 13 30  1  0  0  0  0
 13 10  2  0  0  0  0
 14 21  1  0  0  0  0
 15 12  1  0  0  0  0
 15  2  1  0  0  0  0
 16 20  1  0  0  0  0
 16  9  1  0  0  0  0
 17  1  1  0  0  0  0
 17 19  1  0  0  0  0
 18 22  1  0  0  0  0
 18  7  1  0  0  0  0
 19 10  1  0  0  0  0
 21 20  1  0  0  0  0
 22 15  1  0  0  0  0
 23 18  1  0  0  0  0
 24 23  1  0  0  0  0
 25 24  1  0  0  0  0
 26 23  1  0  0  0  0
 28 29  2  0  0  0  0
 29 26  1  0  0  0  0
 29 27  1  0  0  0  0
 30 31  1  0  0  0  0
 31 33  1  0  0  0  0
 31 32  1  0  0  0  0
 34 35  1  0  0  0  0
 34 33  1  0  0  0  0
 36 35  1  0  0  0  0
 37 36  1  0  0  0  0
M  END
>  <MODEL>
1

>  <REMARK>
 VINA RESULT:      -7.5      0.000      0.000
  Name = 
  10 active torsions:
  status: ('A' for Active; 'I' for Inactive)
    1  A    between atoms: C_1  and  C_5
    2  A    between atoms: C_1  and  C_23
    3  A    between atoms: C_2  and  C_6
    4  A    between atoms: C_5  and  C_17
    5  A    between atoms: C_6  and  S_8
    6  A    between atoms: C_6  and  C_31
    7  A    between atoms: S_8  and  C_19
    8  A    between atoms: C_11  and  C_26
    9  A    between atoms: C_17  and  C_26
   10  A    between atoms: C_23  and  C_25
                            x       y       z     vdW  Elec       q    Type
                         _______ _______ _______ _____ _____    ______ ____

>  <TORSDO>
F 10

$$$$
=
 OpenBabel10262423053D

 37 41  0  0  1  0  0  0  0  0999 V2000
  190.8690  179.3950  144.7920 O   0  0  0  0  0  1  0  0  0  0  0  0
  189.8270  176.3170  141.1820 C   0  0  2  0  0  3  0  0  0  0  0  0
  187.4970  178.0500  138.7570 C   0  0  0  0  0  2  0  0  0  0  0  0
  190.7250  177.8490  142.9610 C   0  0  2  0  0  3  0  0  0  0  0  0
  188.8940  177.3280  140.7020 N   0  0  1  0  0  0  0  0  0  0  0  0
  189.9440  176.5380  142.6750 C   0  0  1  0  0  3  0  0  0  0  0  0
  188.4310  176.9700  139.3500 C   0  0  2  0  0  3  0  0  0  0  0  0
  192.0380  177.9220  142.1710 C   0  0  0  0  0  2  0  0  0  0  0  0
  188.4580  176.6940  142.9870 C   0  0  1  0  0  3  0  0  0  0  0  0
  188.8190  177.3810  145.3990 C   0  0  0  0  0  3  0  0  0  0  0  0
  193.0300  177.7890  140.0200 F   0  0  0  0  0  0  0  0  0  0  0  0
  191.8110  177.7440  140.6710 C   0  0  1  0  0  3  0  0  0  0  0  0
  188.0020  177.2260  144.3430 C   0  0  0  0  0  0  0  0  0  0  0  0
  186.4710  178.6260  139.7260 C   0  0  0  0  0  2  0  0  0  0  0  0
  191.1410  176.3940  140.4300 C   0  0  2  0  0  3  0  0  0  0  0  0
  187.8240  177.2670  141.7010 C   0  0  1  0  0  3  0  0  0  0  0  0
  191.0520  178.0570  144.4420 C   0  0  2  0  0  3  0  0  0  0  0  0
  189.6500  176.8890  138.3930 C   0  0  1  0  0  3  0  0  0  0  0  0
  190.2980  177.1400  145.4030 C   0  0  0  0  0  2  0  0  0  0  0  0
  187.1890  178.6580  141.8750 C   0  0  0  0  0  2  0  0  0  0  0  0
  187.1420  179.4000  140.6810 O   0  0  0  0  0  0  0  0  0  0  0  0
  190.8570  176.1090  138.9560 C   0  0  0  0  0  2  0  0  0  0  0  0
  189.2450  176.3730  137.0070 C   0  0  2  0  0  3  0  0  0  0  0  0
  189.1900  177.4870  135.9680 C   0  0  0  0  0  2  0  0  0  0  0  0
  188.0400  177.3590  135.1900 O   0  0  0  0  0  1  0  0  0  0  0  0
  187.6590  175.4810  137.0880 S   0  0  0  0  0  0  0  0  0  0  0  0
  189.6690  173.6310  137.2330 F   0  0  0  0  0  0  0  0  0  0  0  0
  187.8580  173.0810  136.0490 O   0  0  0  0  0  0  0  0  0  0  0  0
  188.4370  173.9080  136.7340 C   0  0  0  0  0  0  0  0  0  0  0  0
  186.5240  177.3040  144.6120 C   0  0  0  0  0  2  0  0  0  0  0  0
  186.1330  178.5350  145.4260 C   0  0  2  0  0  3  0  0  0  0  0  0
  185.5000  178.1170  146.7400 C   0  0  0  0  0  1  0  0  0  0  0  0
  185.1250  179.3790  144.6560 C   0  0  0  0  0  2  0  0  0  0  0  0
  183.6940  178.9900  144.9930 C   0  0  0  0  0  2  0  0  0  0  0  0
  182.8530  178.9200  143.7300 C   0  0  0  0  0  2  0  0  0  0  0  0
  183.6750  178.3930  142.5680 C   0  0  0  0  0  2  0  0  0  0  0  0
  182.9960  178.7100  141.2490 C   0  0  0  0  0  1  0  0  0  0  0  0
  2  6  1  0  0  0  0
  3  7  1  0  0  0  0
  3 14  1  0  0  0  0
  4 17  1  0  0  0  0
  5  2  1  0  0  0  0
  5 16  1  0  0  0  0
  6  4  1  0  0  0  0
  6  9  1  0  0  0  0
  7  5  1  0  0  0  0
  8  4  1  0  0  0  0
  9 13  1  0  0  0  0
 10 19  1  0  0  0  0
 11 12  1  0  0  0  0
 12  8  1  0  0  0  0
 13 30  1  0  0  0  0
 13 10  2  0  0  0  0
 14 21  1  0  0  0  0
 15 12  1  0  0  0  0
 15  2  1  0  0  0  0
 16 20  1  0  0  0  0
 16  9  1  0  0  0  0
 17  1  1  0  0  0  0
 17 19  1  0  0  0  0
 18 22  1  0  0  0  0
 18  7  1  0  0  0  0
 21 20  1  0  0  0  0
 22 15  1  0  0  0  0
 23 26  1  0  0  0  0
 23 18  1  0  0  0  0
 24 23  1  0  0  0  0
 25 24  1  0  0  0  0
 28 29  2  0  0  0  0
 29 26  1  0  0  0  0
 29 27  1  0  0  0  0
 30 31  1  0  0  0  0
 31 32  1  0  0  0  0
 33 34  1  0  0  0  0
 33 31  1  0  0  0  0
 35 34  1  0  0  0  0
 36 35  1  0  0  0  0
 37 36  1  0  0  0  0
M  END
>  <MODEL>
2

>  <REMARK>
 VINA RESULT:      -7.1      1.410      1.834
  Name = 
  10 active torsions:
  status: ('A' for Active; 'I' for Inactive)
    1  A    between atoms: C_1  and  C_5
    2  A    between atoms: C_1  and  C_23
    3  A    between atoms: C_2  and  C_6
    4  A    between atoms: C_5  and  C_17
    5  A    between atoms: C_6  and  S_8
    6  A    between atoms: C_6  and  C_31
    7  A    between atoms: S_8  and  C_19
    8  A    between atoms: C_11  and  C_26
    9  A    between atoms: C_17  and  C_26
   10  A    between atoms: C_23  and  C_25
                            x       y       z     vdW  Elec       q    Type
                         _______ _______ _______ _____ _____    ______ ____

>  <TORSDO>
F 10

$$$$
=
 OpenBabel10262423053D

 37 41  0  0  1  0  0  0  0  0999 V2000
  185.9350  173.7120  137.6330 O   0  0  0  0  0  1  0  0  0  0  0  0
  189.9930  175.7560  135.9160 C   0  0  2  0  0  3  0  0  0  0  0  0
  192.2830  176.5160  138.8290 C   0  0  0  0  0  2  0  0  0  0  0  0
  187.9690  174.4160  136.5690 C   0  0  2  0  0  3  0  0  0  0  0  0
  190.3800  175.9550  137.3060 N   0  0  1  0  0  0  0  0  0  0  0  0
  188.4790  175.7250  135.9090 C   0  0  1  0  0  3  0  0  0  0  0  0
  191.7930  176.3660  137.3700 C   0  0  2  0  0  3  0  0  0  0  0  0
  188.6630  173.1730  135.9980 C   0  0  0  0  0  2  0  0  0  0  0  0
  188.2350  176.9350  136.8060 C   0  0  1  0  0  3  0  0  0  0  0  0
  185.7340  176.5680  136.9810 C   0  0  0  0  0  3  0  0  0  0  0  0
  190.7510  172.1420  135.5430 F   0  0  0  0  0  0  0  0  0  0  0  0
  190.1840  173.2730  136.0990 C   0  0  1  0  0  3  0  0  0  0  0  0
  186.8470  177.2090  137.3800 C   0  0  0  0  0  0  0  0  0  0  0  0
  191.3050  177.1990  139.7770 C   0  0  0  0  0  2  0  0  0  0  0  0
  190.6490  174.5150  135.3430 C   0  0  2  0  0  3  0  0  0  0  0  0
  189.4640  177.0120  137.7400 C   0  0  1  0  0  3  0  0  0  0  0  0
  186.4570  174.2140  136.4400 C   0  0  2  0  0  3  0  0  0  0  0  0
  192.6800  175.2630  136.7340 C   0  0  1  0  0  3  0  0  0  0  0  0
  185.6780  175.4470  135.9880 C   0  0  0  0  0  2  0  0  0  0  0  0
  189.1340  176.8410  139.2330 C   0  0  0  0  0  2  0  0  0  0  0  0
  190.2140  176.3460  139.9860 O   0  0  0  0  0  0  0  0  0  0  0  0
  192.1630  174.7220  135.3840 C   0  0  0  0  0  2  0  0  0  0  0  0
  194.1460  175.7040  136.6370 C   0  0  2  0  0  3  0  0  0  0  0  0
  194.4030  176.5950  135.4270 C   0  0  0  0  0  2  0  0  0  0  0  0
  195.0170  177.7810  135.8290 O   0  0  0  0  0  1  0  0  0  0  0  0
  195.2550  174.2590  136.6260 S   0  0  0  0  0  0  0  0  0  0  0  0
  195.1440  175.1930  139.1950 F   0  0  0  0  0  0  0  0  0  0  0  0
  195.1450  172.9790  138.9120 O   0  0  0  0  0  0  0  0  0  0  0  0
  195.1760  174.0880  138.4070 C   0  0  0  0  0  0  0  0  0  0  0  0
  186.6550  178.4470  138.2110 C   0  0  0  0  0  2  0  0  0  0  0  0
  185.5360  178.3050  139.2410 C   0  0  2  0  0  3  0  0  0  0  0  0
  184.3900  179.2390  138.9030 C   0  0  0  0  0  1  0  0  0  0  0  0
  186.0500  178.6570  140.6300 C   0  0  0  0  0  2  0  0  0  0  0  0
  184.9640  178.5090  141.6840 C   0  0  0  0  0  2  0  0  0  0  0  0
  185.5800  178.2230  143.0430 C   0  0  0  0  0  2  0  0  0  0  0  0
  184.8340  178.9680  144.1360 C   0  0  0  0  0  2  0  0  0  0  0  0
  183.3350  178.8470  143.9340 C   0  0  0  0  0  1  0  0  0  0  0  0
  2  5  1  0  0  0  0
  3 14  1  0  0  0  0
  5  7  1  0  0  0  0
  5 16  1  0  0  0  0
  6  2  1  0  0  0  0
  6  4  1  0  0  0  0
  6  9  1  0  0  0  0
  7  3  1  0  0  0  0
  8 12  1  0  0  0  0
  8  4  1  0  0  0  0
  9 13  1  0  0  0  0
  9 16  1  0  0  0  0
 10 13  2  0  0  0  0
 11 12  1  0  0  0  0
 13 30  1  0  0  0  0
 14 21  1  0  0  0  0
 15 22  1  0  0  0  0
 15  2  1  0  0  0  0
 15 12  1  0  0  0  0
 16 20  1  0  0  0  0
 17  4  1  0  0  0  0
 17  1  1  0  0  0  0
 18  7  1  0  0  0  0
 19 17  1  0  0  0  0
 19 10  1  0  0  0  0
 20 21  1  0  0  0  0
 22 18  1  0  0  0  0
 23 18  1  0  0  0  0
 24 25  1  0  0  0  0
 24 23  1  0  0  0  0
 26 23  1  0  0  0  0
 26 29  1  0  0  0  0
 29 28  2  0  0  0  0
 29 27  1  0  0  0  0
 30 31  1  0  0  0  0
 31 33  1  0  0  0  0
 32 31  1  0  0  0  0
 33 34  1  0  0  0  0
 34 35  1  0  0  0  0
 35 36  1  0  0  0  0
 37 36  1  0  0  0  0
M  END
>  <MODEL>
3

>  <REMARK>
 VINA RESULT:      -6.3      3.360      6.668
  Name = 
  10 active torsions:
  status: ('A' for Active; 'I' for Inactive)
    1  A    between atoms: C_1  and  C_5
    2  A    between atoms: C_1  and  C_23
    3  A    between atoms: C_2  and  C_6
    4  A    between atoms: C_5  and  C_17
    5  A    between atoms: C_6  and  S_8
    6  A    between atoms: C_6  and  C_31
    7  A    between atoms: S_8  and  C_19
    8  A    between atoms: C_11  and  C_26
    9  A    between atoms: C_17  and  C_26
   10  A    between atoms: C_23  and  C_25
                            x       y       z     vdW  Elec       q    Type
                         _______ _______ _______ _____ _____    ______ ____

>  <TORSDO>
F 10

$$$$
=
 OpenBabel10262423053D

 37 41  0  0  1  0  0  0  0  0999 V2000
  180.6400  175.2640  138.6510 O   0  0  0  0  0  1  0  0  0  0  0  0
  184.6240  177.6900  137.2990 C   0  0  2  0  0  3  0  0  0  0  0  0
  186.7130  178.3850  140.3750 C   0  0  0  0  0  2  0  0  0  0  0  0
  182.6690  176.1760  137.7490 C   0  0  2  0  0  3  0  0  0  0  0  0
  184.9290  177.8120  138.7180 N   0  0  1  0  0  0  0  0  0  0  0  0
  183.1190  177.5610  137.2090 C   0  0  1  0  0  3  0  0  0  0  0  0
  186.3060  178.3100  138.8860 C   0  0  2  0  0  3  0  0  0  0  0  0
  183.4750  175.0270  137.1300 C   0  0  0  0  0  2  0  0  0  0  0  0
  182.7480  178.6830  138.1750 C   0  0  1  0  0  3  0  0  0  0  0  0
  180.2730  178.1410  138.1900 C   0  0  0  0  0  3  0  0  0  0  0  0
  185.6490  174.1710  136.7160 F   0  0  0  0  0  0  0  0  0  0  0  0
  184.9780  175.2190  137.3190 C   0  0  1  0  0  3  0  0  0  0  0  0
  181.3180  178.8220  138.6910 C   0  0  0  0  0  0  0  0  0  0  0  0
  185.6450  178.9310  141.3150 C   0  0  0  0  0  2  0  0  0  0  0  0
  185.3920  176.5410  136.6770 C   0  0  2  0  0  3  0  0  0  0  0  0
  183.9220  178.7730  139.1750 C   0  0  1  0  0  3  0  0  0  0  0  0
  181.1830  175.8850  137.5260 C   0  0  2  0  0  3  0  0  0  0  0  0
  187.2970  177.3170  138.2230 C   0  0  1  0  0  3  0  0  0  0  0  0
  180.3430  177.0950  137.1190 C   0  0  0  0  0  2  0  0  0  0  0  0
  183.5330  178.4720  140.6330 C   0  0  0  0  0  2  0  0  0  0  0  0
  184.6070  177.9950  141.4060 O   0  0  0  0  0  0  0  0  0  0  0  0
  186.8840  176.8430  136.8130 C   0  0  0  0  0  2  0  0  0  0  0  0
  188.7320  177.8590  138.2350 C   0  0  2  0  0  3  0  0  0  0  0  0
  189.0270  178.7410  137.0260 C   0  0  0  0  0  2  0  0  0  0  0  0
  189.0490  180.0820  137.4080 O   0  0  0  0  0  1  0  0  0  0  0  0
  189.9350  176.4970  138.3540 S   0  0  0  0  0  0  0  0  0  0  0  0
  191.5950  177.7920  140.1010 F   0  0  0  0  0  0  0  0  0  0  0  0
  189.8570  176.6920  140.9680 O   0  0  0  0  0  0  0  0  0  0  0  0
  190.4840  177.0220  139.9750 C   0  0  0  0  0  0  0  0  0  0  0  0
  181.0010  179.9810  139.5950 C   0  0  0  0  0  2  0  0  0  0  0  0
  179.8160  179.7080  140.5190 C   0  0  2  0  0  3  0  0  0  0  0  0
  179.3390  180.9980  141.1590 C   0  0  0  0  0  1  0  0  0  0  0  0
  180.2220  178.7440  141.6260 C   0  0  0  0  0  2  0  0  0  0  0  0
  180.3330  179.4490  142.9690 C   0  0  0  0  0  2  0  0  0  0  0  0
  181.3140  178.7180  143.8710 C   0  0  0  0  0  2  0  0  0  0  0  0
  182.6310  179.4690  143.9480 C   0  0  0  0  0  2  0  0  0  0  0  0
  183.6390  178.6890  144.7710 C   0  0  0  0  0  1  0  0  0  0  0  0
  2  5  1  0  0  0  0
  3 14  1  0  0  0  0
  5  7  1  0  0  0  0
  5 16  1  0  0  0  0
  6  2  1  0  0  0  0
  6  4  1  0  0  0  0
  6  9  1  0  0  0  0
  7  3  1  0  0  0  0
  8 12  1  0  0  0  0
  8  4  1  0  0  0  0
  9 13  1  0  0  0  0
  9 16  1  0  0  0  0
 10 13  2  0  0  0  0
 11 12  1  0  0  0  0
 13 30  1  0  0  0  0
 14 21  1  0  0  0  0
 15 22  1  0  0  0  0
 15  2  1  0  0  0  0
 15 12  1  0  0  0  0
 16 20  1  0  0  0  0
 17  4  1  0  0  0  0
 17  1  1  0  0  0  0
 18 23  1  0  0  0  0
 18  7  1  0  0  0  0
 19 17  1  0  0  0  0
 19 10  1  0  0  0  0
 20 21  1  0  0  0  0
 22 18  1  0  0  0  0
 23 26  1  0  0  0  0
 24 25  1  0  0  0  0
 24 23  1  0  0  0  0
 26 29  1  0  0  0  0
 29 27  1  0  0  0  0
 29 28  2  0  0  0  0
 30 31  1  0  0  0  0
 31 32  1  0  0  0  0
 31 33  1  0  0  0  0
 33 34  1  0  0  0  0
 34 35  1  0  0  0  0
 35 36  1  0  0  0  0
 36 37  1  0  0  0  0
M  END
>  <MODEL>
4

>  <REMARK>
 VINA RESULT:      -6.0      3.774      7.318
  Name = 
  10 active torsions:
  status: ('A' for Active; 'I' for Inactive)
    1  A    between atoms: C_1  and  C_5
    2  A    between atoms: C_1  and  C_23
    3  A    between atoms: C_2  and  C_6
    4  A    between atoms: C_5  and  C_17
    5  A    between atoms: C_6  and  S_8
    6  A    between atoms: C_6  and  C_31
    7  A    between atoms: S_8  and  C_19
    8  A    between atoms: C_11  and  C_26
    9  A    between atoms: C_17  and  C_26
   10  A    between atoms: C_23  and  C_25
                            x       y       z     vdW  Elec       q    Type
                         _______ _______ _______ _____ _____    ______ ____

>  <TORSDO>
F 10

$$$$
=
 OpenBabel10262423053D

 37 41  0  0  1  0  0  0  0  0999 V2000
  183.7250  176.9030  139.5870 O   0  0  0  0  0  1  0  0  0  0  0  0
  188.3700  178.2670  139.1910 C   0  0  2  0  0  3  0  0  0  0  0  0
  190.4430  176.1890  141.5770 C   0  0  0  0  0  2  0  0  0  0  0  0
  185.9810  177.5010  139.0260 C   0  0  2  0  0  3  0  0  0  0  0  0
  188.6410  177.3680  140.3050 N   0  0  1  0  0  0  0  0  0  0  0  0
  186.9250  178.6920  139.3450 C   0  0  1  0  0  3  0  0  0  0  0  0
  190.0960  177.1970  140.4570 C   0  0  2  0  0  3  0  0  0  0  0  0
  186.3380  176.8220  137.6980 C   0  0  0  0  0  2  0  0  0  0  0  0
  186.9490  179.0000  140.8400 C   0  0  1  0  0  3  0  0  0  0  0  0
  184.4480  179.3610  141.0230 C   0  0  0  0  0  3  0  0  0  0  0  0
  188.0670  175.8060  136.4300 F   0  0  0  0  0  0  0  0  0  0  0  0
  187.8000  176.3810  137.6590 C   0  0  1  0  0  3  0  0  0  0  0  0
  185.6480  179.2120  141.6100 C   0  0  0  0  0  0  0  0  0  0  0  0
  189.6100  176.3140  142.8460 C   0  0  0  0  0  2  0  0  0  0  0  0
  188.6910  177.6020  137.8680 C   0  0  2  0  0  3  0  0  0  0  0  0
  188.0340  178.0750  141.4350 C   0  0  1  0  0  3  0  0  0  0  0  0
  184.5010  177.8880  138.9770 C   0  0  2  0  0  3  0  0  0  0  0  0
  190.6850  176.6010  139.1510 C   0  0  1  0  0  3  0  0  0  0  0  0
  184.1750  179.2650  139.5520 C   0  0  0  0  0  2  0  0  0  0  0  0
  187.5040  177.0620  142.4650 C   0  0  0  0  0  2  0  0  0  0  0  0
  188.2990  175.9060  142.5650 O   0  0  0  0  0  0  0  0  0  0  0  0
  190.1840  177.2760  137.8550 C   0  0  0  0  0  2  0  0  0  0  0  0
  192.2160  176.5420  139.1970 C   0  0  2  0  0  3  0  0  0  0  0  0
  192.8200  177.7430  139.9160 C   0  0  0  0  0  2  0  0  0  0  0  0
  194.1600  177.4960  140.2160 O   0  0  0  0  0  1  0  0  0  0  0  0
  192.9070  176.3750  137.5200 S   0  0  0  0  0  0  0  0  0  0  0  0
  191.6540  173.9440  137.4450 F   0  0  0  0  0  0  0  0  0  0  0  0
  193.8650  173.9450  137.7560 O   0  0  0  0  0  0  0  0  0  0  0  0
  192.8410  174.5870  137.5870 C   0  0  0  0  0  0  0  0  0  0  0  0
  185.7380  179.5690  143.0680 C   0  0  0  0  0  2  0  0  0  0  0  0
  184.8130  178.7260  143.9440 C   0  0  2  0  0  3  0  0  0  0  0  0
  183.4500  179.3820  144.0530 C   0  0  0  0  0  1  0  0  0  0  0  0
  185.3940  178.5900  145.3460 C   0  0  0  0  0  2  0  0  0  0  0  0
  186.3810  177.4360  145.4340 C   0  0  0  0  0  2  0  0  0  0  0  0
  187.6650  177.8880  146.1100 C   0  0  0  0  0  2  0  0  0  0  0  0
  187.3990  178.2860  147.5510 C   0  0  0  0  0  2  0  0  0  0  0  0
  188.4640  177.7120  148.4660 C   0  0  0  0  0  1  0  0  0  0  0  0
  2  6  1  0  0  0  0
  2  5  1  0  0  0  0
  3 14  1  0  0  0  0
  4  6  1  0  0  0  0
  5  7  1  0  0  0  0
  5 16  1  0  0  0  0
  6  9  1  0  0  0  0
  7  3  1  0  0  0  0
  8  4  1  0  0  0  0
  9 16  1  0  0  0  0
  9 13  1  0  0  0  0
 10 13  2  0  0  0  0
 11 12  1  0  0  0  0
 12  8  1  0  0  0  0
 12 15  1  0  0  0  0
 13 30  1  0  0  0  0
 15  2  1  0  0  0  0
 16 20  1  0  0  0  0
 17  4  1  0  0  0  0
 17 19  1  0  0  0  0
 17  1  1  0  0  0  0
 18 23  1  0  0  0  0
 18  7  1  0  0  0  0
 19 10  1  0  0  0  0
 20 21  1  0  0  0  0
 21 14  1  0  0  0  0
 22 15  1  0  0  0  0
 22 18  1  0  0  0  0
 23 24  1  0  0  0  0
 24 25  1  0  0  0  0
 26 29  1  0  0  0  0
 26 23  1  0  0  0  0
 27 29  1  0  0  0  0
 29 28  2  0  0  0  0
 30 31  1  0  0  0  0
 31 32  1  0  0  0  0
 31 33  1  0  0  0  0
 33 34  1  0  0  0  0
 34 35  1  0  0  0  0
 35 36  1  0  0  0  0
 36 37  1  0  0  0  0
M  END
>  <MODEL>
5

>  <REMARK>
 VINA RESULT:      -5.8      2.424      5.370
  Name = 
  10 active torsions:
  status: ('A' for Active; 'I' for Inactive)
    1  A    between atoms: C_1  and  C_5
    2  A    between atoms: C_1  and  C_23
    3  A    between atoms: C_2  and  C_6
    4  A    between atoms: C_5  and  C_17
    5  A    between atoms: C_6  and  S_8
    6  A    between atoms: C_6  and  C_31
    7  A    between atoms: S_8  and  C_19
    8  A    between atoms: C_11  and  C_26
    9  A    between atoms: C_17  and  C_26
   10  A    between atoms: C_23  and  C_25
                            x       y       z     vdW  Elec       q    Type
                         _______ _______ _______ _____ _____    ______ ____

>  <TORSDO>
F 10

$$$$
=
 OpenBabel10262423053D

 37 41  0  0  1  0  0  0  0  0999 V2000
  191.2390  179.5320  143.9390 O   0  0  0  0  0  1  0  0  0  0  0  0
  190.1040  176.2230  140.5690 C   0  0  2  0  0  3  0  0  0  0  0  0
  187.7440  177.8080  138.0730 C   0  0  0  0  0  2  0  0  0  0  0  0
  191.0480  177.8650  142.2220 C   0  0  2  0  0  3  0  0  0  0  0  0
  189.1710  177.2080  140.0380 N   0  0  1  0  0  0  0  0  0  0  0  0
  190.2500  176.5460  142.0410 C   0  0  1  0  0  3  0  0  0  0  0  0
  188.6800  176.7620  138.7220 C   0  0  2  0  0  3  0  0  0  0  0  0
  192.3470  177.8700  141.4060 C   0  0  0  0  0  2  0  0  0  0  0  0
  188.7720  176.7380  142.3680 C   0  0  1  0  0  3  0  0  0  0  0  0
  189.1840  177.5860  144.7200 C   0  0  0  0  0  3  0  0  0  0  0  0
  193.2980  177.5780  139.2510 F   0  0  0  0  0  0  0  0  0  0  0  0
  192.0910  177.5910  139.9260 C   0  0  1  0  0  3  0  0  0  0  0  0
  188.3450  177.3670  143.6920 C   0  0  0  0  0  0  0  0  0  0  0  0
  186.7420  178.4600  139.0170 C   0  0  0  0  0  2  0  0  0  0  0  0
  191.4040  176.2340  139.7910 C   0  0  2  0  0  3  0  0  0  0  0  0
  188.1190  177.2270  141.0570 C   0  0  1  0  0  3  0  0  0  0  0  0
  191.4040  178.1710  143.6790 C   0  0  2  0  0  3  0  0  0  0  0  0
  189.8800  176.6020  137.7510 C   0  0  1  0  0  3  0  0  0  0  0  0
  190.6610  177.3300  144.7140 C   0  0  0  0  0  2  0  0  0  0  0  0
  187.5000  178.6330  141.1460 C   0  0  0  0  0  2  0  0  0  0  0  0
  187.4370  179.2910  139.9050 O   0  0  0  0  0  0  0  0  0  0  0  0
  191.0910  175.8510  138.3450 C   0  0  0  0  0  2  0  0  0  0  0  0
  189.4450  175.9960  136.4110 C   0  0  2  0  0  3  0  0  0  0  0  0
  190.3240  174.8210  135.9960 C   0  0  0  0  0  2  0  0  0  0  0  0
  191.2570  175.2360  135.0460 O   0  0  0  0  0  1  0  0  0  0  0  0
  189.4030  177.2690  135.1100 S   0  0  0  0  0  0  0  0  0  0  0  0
  187.1580  175.7400  134.7880 F   0  0  0  0  0  0  0  0  0  0  0  0
  186.9240  177.9520  134.5940 O   0  0  0  0  0  0  0  0  0  0  0  0
  187.6610  177.0010  134.7960 C   0  0  0  0  0  0  0  0  0  0  0  0
  186.8740  177.4780  143.9820 C   0  0  0  0  0  2  0  0  0  0  0  0
  186.5560  177.4150  145.4740 C   0  0  2  0  0  3  0  0  0  0  0  0
  185.1580  177.9440  145.7370 C   0  0  0  0  0  1  0  0  0  0  0  0
  187.5460  178.2640  146.2610 C   0  0  0  0  0  2  0  0  0  0  0  0
  187.1260  178.4110  147.7150 C   0  0  0  0  0  2  0  0  0  0  0  0
  188.3170  178.1960  148.6340 C   0  0  0  0  0  2  0  0  0  0  0  0
  189.1980  177.0750  148.1140 C   0  0  0  0  0  2  0  0  0  0  0  0
  190.6540  177.5030  148.1060 C   0  0  0  0  0  1  0  0  0  0  0  0
  2  6  1  0  0  0  0
  3  7  1  0  0  0  0
  3 14  1  0  0  0  0
  4 17  1  0  0  0  0
  5  2  1  0  0  0  0
  5 16  1  0  0  0  0
  6  4  1  0  0  0  0
  6  9  1  0  0  0  0
  7  5  1  0  0  0  0
  8  4  1  0  0  0  0
  9 13  1  0  0  0  0
 11 12  1  0  0  0  0
 12  8  1  0  0  0  0
 13 30  1  0  0  0  0
 13 10  2  0  0  0  0
 14 21  1  0  0  0  0
 15 12  1  0  0  0  0
 15  2  1  0  0  0  0
 16 20  1  0  0  0  0
 16  9  1  0  0  0  0
 17  1  1  0  0  0  0
 17 19  1  0  0  0  0
 18 22  1  0  0  0  0
 18  7  1  0  0  0  0
 19 10  1  0  0  0  0
 21 20  1  0  0  0  0
 22 15  1  0  0  0  0
 23 18  1  0  0  0  0
 24 23  1  0  0  0  0
 25 24  1  0  0  0  0
 26 23  1  0  0  0  0
 27 29  1  0  0  0  0
 28 29  2  0  0  0  0
 29 26  1  0  0  0  0
 30 31  1  0  0  0  0
 31 32  1  0  0  0  0
 31 33  1  0  0  0  0
 33 34  1  0  0  0  0
 34 35  1  0  0  0  0
 36 35  1  0  0  0  0
 37 36  1  0  0  0  0
M  END
>  <MODEL>
6

>  <REMARK>
 VINA RESULT:      -5.1      1.297      2.538
  Name = 
  10 active torsions:
  status: ('A' for Active; 'I' for Inactive)
    1  A    between atoms: C_1  and  C_5
    2  A    between atoms: C_1  and  C_23
    3  A    between atoms: C_2  and  C_6
    4  A    between atoms: C_5  and  C_17
    5  A    between atoms: C_6  and  S_8
    6  A    between atoms: C_6  and  C_31
    7  A    between atoms: S_8  and  C_19
    8  A    between atoms: C_11  and  C_26
    9  A    between atoms: C_17  and  C_26
   10  A    between atoms: C_23  and  C_25
                            x       y       z     vdW  Elec       q    Type
                         _______ _______ _______ _____ _____    ______ ____

>  <TORSDO>
F 10

$$$$
=
 OpenBabel10262423053D

 37 41  0  0  1  0  0  0  0  0999 V2000
  181.6750  176.1110  137.5060 O   0  0  0  0  0  1  0  0  0  0  0  0
  185.9930  178.2540  138.1020 C   0  0  2  0  0  3  0  0  0  0  0  0
  186.8720  178.1880  141.7810 C   0  0  0  0  0  2  0  0  0  0  0  0
  183.9350  176.9210  137.5510 C   0  0  2  0  0  3  0  0  0  0  0  0
  185.7750  178.1050  139.5350 N   0  0  1  0  0  0  0  0  0  0  0  0
  184.6150  178.3150  137.4790 C   0  0  1  0  0  3  0  0  0  0  0  0
  187.0230  178.4060  140.2580 C   0  0  2  0  0  3  0  0  0  0  0  0
  184.8520  175.8040  137.0340 C   0  0  0  0  0  2  0  0  0  0  0  0
  183.9780  179.2980  138.4570 C   0  0  1  0  0  3  0  0  0  0  0  0
  181.6390  179.0480  137.5170 C   0  0  0  0  0  3  0  0  0  0  0  0
  186.9850  174.7850  137.2330 F   0  0  0  0  0  0  0  0  0  0  0  0
  186.1950  175.7890  137.7610 C   0  0  1  0  0  3  0  0  0  0  0  0
  182.4670  179.5130  138.4690 C   0  0  0  0  0  0  0  0  0  0  0  0
  185.5670  178.6900  142.3850 C   0  0  0  0  0  2  0  0  0  0  0  0
  186.8750  177.1420  137.5700 C   0  0  2  0  0  3  0  0  0  0  0  0
  184.7190  179.0860  139.7970 C   0  0  1  0  0  3  0  0  0  0  0  0
  182.6150  176.8430  136.7790 C   0  0  2  0  0  3  0  0  0  0  0  0
  188.1360  177.4290  139.7950 C   0  0  1  0  0  3  0  0  0  0  0  0
  182.0370  178.1910  136.3530 C   0  0  0  0  0  2  0  0  0  0  0  0
  183.8200  178.5950  140.9440 C   0  0  0  0  0  2  0  0  0  0  0  0
  184.5200  177.8770  141.9300 O   0  0  0  0  0  0  0  0  0  0  0  0
  188.2330  177.2450  138.2660 C   0  0  0  0  0  2  0  0  0  0  0  0
  189.4960  177.7940  140.4040 C   0  0  2  0  0  3  0  0  0  0  0  0
  190.5960  177.8800  139.3520 C   0  0  0  0  0  2  0  0  0  0  0  0
  191.5540  176.8930  139.5790 O   0  0  0  0  0  1  0  0  0  0  0  0
  189.9480  176.6210  141.7220 S   0  0  0  0  0  0  0  0  0  0  0  0
  189.5910  178.6150  143.5600 F   0  0  0  0  0  0  0  0  0  0  0  0
  191.6790  178.2140  142.8800 O   0  0  0  0  0  0  0  0  0  0  0  0
  190.4940  177.9340  142.8090 C   0  0  0  0  0  0  0  0  0  0  0  0
  181.9050  180.5360  139.4160 C   0  0  0  0  0  2  0  0  0  0  0  0
  180.4220  180.8150  139.1780 C   0  0  2  0  0  3  0  0  0  0  0  0
  180.2460  182.1350  138.4520 C   0  0  0  0  0  1  0  0  0  0  0  0
  179.6800  180.8940  140.5060 C   0  0  0  0  0  2  0  0  0  0  0  0
  180.0730  179.7570  141.4360 C   0  0  0  0  0  2  0  0  0  0  0  0
  178.9440  178.7450  141.5400 C   0  0  0  0  0  2  0  0  0  0  0  0
  179.1120  177.6470  140.5060 C   0  0  0  0  0  2  0  0  0  0  0  0
  180.5110  177.0640  140.5720 C   0  0  0  0  0  1  0  0  0  0  0  0
  2  5  1  0  0  0  0
  3 14  1  0  0  0  0
  5 16  1  0  0  0  0
  5  7  1  0  0  0  0
  6  4  1  0  0  0  0
  6  2  1  0  0  0  0
  6  9  1  0  0  0  0
  7  3  1  0  0  0  0
  8  4  1  0  0  0  0
  8 12  1  0  0  0  0
  9 13  1  0  0  0  0
  9 16  1  0  0  0  0
 10 13  2  0  0  0  0
 11 12  1  0  0  0  0
 13 30  1  0  0  0  0
 15 12  1  0  0  0  0
 15  2  1  0  0  0  0
 15 22  1  0  0  0  0
 16 20  1  0  0  0  0
 17  1  1  0  0  0  0
 17  4  1  0  0  0  0
 18  7  1  0  0  0  0
 18 23  1  0  0  0  0
 19 17  1  0  0  0  0
 19 10  1  0  0  0  0
 20 21  1  0  0  0  0
 21 14  1  0  0  0  0
 22 18  1  0  0  0  0
 23 26  1  0  0  0  0
 24 25  1  0  0  0  0
 24 23  1  0  0  0  0
 26 29  1  0  0  0  0
 29 28  2  0  0  0  0
 29 27  1  0  0  0  0
 31 30  1  0  0  0  0
 31 33  1  0  0  0  0
 32 31  1  0  0  0  0
 33 34  1  0  0  0  0
 34 35  1  0  0  0  0
 36 37  1  0  0  0  0
 36 35  1  0  0  0  0
M  END
>  <MODEL>
7

>  <REMARK>
 VINA RESULT:      -5.1      3.858      7.357
  Name = 
  10 active torsions:
  status: ('A' for Active; 'I' for Inactive)
    1  A    between atoms: C_1  and  C_5
    2  A    between atoms: C_1  and  C_23
    3  A    between atoms: C_2  and  C_6
    4  A    between atoms: C_5  and  C_17
    5  A    between atoms: C_6  and  S_8
    6  A    between atoms: C_6  and  C_31
    7  A    between atoms: S_8  and  C_19
    8  A    between atoms: C_11  and  C_26
    9  A    between atoms: C_17  and  C_26
   10  A    between atoms: C_23  and  C_25
                            x       y       z     vdW  Elec       q    Type
                         _______ _______ _______ _____ _____    ______ ____

>  <TORSDO>
F 10

$$$$
=
 OpenBabel10262423053D

 37 41  0  0  1  0  0  0  0  0999 V2000
  188.8710  179.3610  137.8390 O   0  0  0  0  0  1  0  0  0  0  0  0
  188.3080  176.9020  141.9890 C   0  0  2  0  0  3  0  0  0  0  0  0
  190.7880  178.2270  144.5190 C   0  0  0  0  0  2  0  0  0  0  0  0
  188.2340  178.2540  139.8710 C   0  0  2  0  0  3  0  0  0  0  0  0
  189.4730  177.6270  142.4780 N   0  0  1  0  0  0  0  0  0  0  0  0
  188.4580  176.8450  140.4840 C   0  0  1  0  0  3  0  0  0  0  0  0
  189.6110  177.4160  143.9300 C   0  0  2  0  0  3  0  0  0  0  0  0
  186.9460  178.9090  140.3880 C   0  0  0  0  0  2  0  0  0  0  0  0
  189.9290  176.4410  140.4300 C   0  0  1  0  0  3  0  0  0  0  0  0
  190.1300  176.7090  137.9190 C   0  0  0  0  0  3  0  0  0  0  0  0
  185.7190  179.5410  142.3170 F   0  0  0  0  0  0  0  0  0  0  0  0
  186.9110  178.9700  141.9140 C   0  0  1  0  0  3  0  0  0  0  0  0
  190.7050  176.5110  139.1170 C   0  0  0  0  0  0  0  0  0  0  0  0
  192.0610  178.2300  143.6820 C   0  0  0  0  0  2  0  0  0  0  0  0
  187.0250  177.5530  142.4680 C   0  0  2  0  0  3  0  0  0  0  0  0
  190.5650  177.0210  141.7130 C   0  0  1  0  0  3  0  0  0  0  0  0
  188.1840  178.2550  138.3410 C   0  0  2  0  0  3  0  0  0  0  0  0
  188.3370  177.9310  144.6500 C   0  0  1  0  0  3  0  0  0  0  0  0
  188.6740  176.9690  137.6790 C   0  0  0  0  0  2  0  0  0  0  0  0
  191.6670  178.0630  141.4560 C   0  0  0  0  0  2  0  0  0  0  0  0
  191.8290  178.9720  142.5160 O   0  0  0  0  0  0  0  0  0  0  0  0
  187.0090  177.4930  143.9950 C   0  0  0  0  0  2  0  0  0  0  0  0
  188.3600  177.6000  146.1470 C   0  0  2  0  0  3  0  0  0  0  0  0
  189.3160  176.4570  146.4710 C   0  0  0  0  0  2  0  0  0  0  0  0
  189.9840  176.7180  147.6680 O   0  0  0  0  0  1  0  0  0  0  0  0
  186.6820  177.2360  146.7540 S   0  0  0  0  0  0  0  0  0  0  0  0
  187.4940  179.1120  148.5730 F   0  0  0  0  0  0  0  0  0  0  0  0
  185.6790  179.5820  147.3610 O   0  0  0  0  0  0  0  0  0  0  0  0
  186.5750  178.7970  147.6240 C   0  0  0  0  0  0  0  0  0  0  0  0
  192.1350  176.0460  139.1150 C   0  0  0  0  0  2  0  0  0  0  0  0
  192.5840  175.5130  137.7550 C   0  0  2  0  0  3  0  0  0  0  0  0
  191.9510  174.1610  137.4860 C   0  0  0  0  0  1  0  0  0  0  0  0
  194.0980  175.3480  137.7280 C   0  0  0  0  0  2  0  0  0  0  0  0
  194.5000  173.9110  137.4330 C   0  0  0  0  0  2  0  0  0  0  0  0
  195.3660  173.3630  138.5540 C   0  0  0  0  0  2  0  0  0  0  0  0
  196.1510  174.4790  139.2180 C   0  0  0  0  0  2  0  0  0  0  0  0
  197.5780  174.5040  138.7030 C   0  0  0  0  0  1  0  0  0  0  0  0
  1 17  1  0  0  0  0
  2 15  1  0  0  0  0
  2  5  1  0  0  0  0
  4  8  1  0  0  0  0
  4  6  1  0  0  0  0
  5  7  1  0  0  0  0
  6  2  1  0  0  0  0
  7  3  1  0  0  0  0
  7 18  1  0  0  0  0
  8 12  1  0  0  0  0
  9  6  1  0  0  0  0
  9 16  1  0  0  0  0
 10 13  2  0  0  0  0
 12 11  1  0  0  0  0
 12 15  1  0  0  0  0
 13  9  1  0  0  0  0
 14  3  1  0  0  0  0
 15 22  1  0  0  0  0
 16  5  1  0  0  0  0
 17  4  1  0  0  0  0
 18 23  1  0  0  0  0
 19 10  1  0  0  0  0
 19 17  1  0  0  0  0
 20 16  1  0  0  0  0
 20 21  1  0  0  0  0
 21 14  1  0  0  0  0
 22 18  1  0  0  0  0
 23 24  1  0  0  0  0
 23 26  1  0  0  0  0
 24 25  1  0  0  0  0
 26 29  1  0  0  0  0
 28 29  2  0  0  0  0
 29 27  1  0  0  0  0
 30 13  1  0  0  0  0
 31 30  1  0  0  0  0
 32 31  1  0  0  0  0
 33 31  1  0  0  0  0
 34 33  1  0  0  0  0
 34 35  1  0  0  0  0
 35 36  1  0  0  0  0
 37 36  1  0  0  0  0
M  END
>  <MODEL>
8

>  <REMARK>
 VINA RESULT:      -4.8      3.830      8.861
  Name = 
  10 active torsions:
  status: ('A' for Active; 'I' for Inactive)
    1  A    between atoms: C_1  and  C_5
    2  A    between atoms: C_1  and  C_23
    3  A    between atoms: C_2  and  C_6
    4  A    between atoms: C_5  and  C_17
    5  A    between atoms: C_6  and  S_8
    6  A    between atoms: C_6  and  C_31
    7  A    between atoms: S_8  and  C_19
    8  A    between atoms: C_11  and  C_26
    9  A    between atoms: C_17  and  C_26
   10  A    between atoms: C_23  and  C_25
                            x       y       z     vdW  Elec       q    Type
                         _______ _______ _______ _____ _____    ______ ____

>  <TORSDO>
F 10

$$$$
=
 OpenBabel10262423053D

 37 41  0  0  1  0  0  0  0  0999 V2000
  188.8560  179.5700  138.5800 O   0  0  0  0  0  1  0  0  0  0  0  0
  184.8130  176.9270  138.0760 C   0  0  2  0  0  3  0  0  0  0  0  0
  181.8810  179.2800  137.6540 C   0  0  0  0  0  2  0  0  0  0  0  0
  187.0360  178.0980  138.0460 C   0  0  2  0  0  3  0  0  0  0  0  0
  184.0850  178.1880  138.1100 N   0  0  1  0  0  0  0  0  0  0  0  0
  186.0900  177.1670  138.8510 C   0  0  1  0  0  3  0  0  0  0  0  0
  182.6840  177.9600  137.7130 C   0  0  2  0  0  3  0  0  0  0  0  0
  187.2140  177.6270  136.5970 C   0  0  0  0  0  2  0  0  0  0  0  0
  185.4830  177.8890  140.0510 C   0  0  1  0  0  3  0  0  0  0  0  0
  187.7150  178.5170  141.0730 C   0  0  0  0  0  3  0  0  0  0  0  0
  186.0980  177.0120  134.5960 F   0  0  0  0  0  0  0  0  0  0  0  0
  185.8740  177.4670  135.8820 C   0  0  1  0  0  3  0  0  0  0  0  0
  186.3750  178.6270  141.0460 C   0  0  0  0  0  0  0  0  0  0  0  0
  182.1420  180.2520  138.7980 C   0  0  0  0  0  2  0  0  0  0  0  0
  185.0210  176.4600  136.6500 C   0  0  2  0  0  3  0  0  0  0  0  0
  184.2160  178.5900  139.5120 C   0  0  1  0  0  3  0  0  0  0  0  0
  188.4270  178.2460  138.6700 C   0  0  2  0  0  3  0  0  0  0  0  0
  182.6440  177.3730  136.2770 C   0  0  1  0  0  3  0  0  0  0  0  0
  188.5480  177.7340  140.1040 C   0  0  0  0  0  2  0  0  0  0  0  0
  184.2510  180.1250  139.6170 C   0  0  0  0  0  2  0  0  0  0  0  0
  183.4380  180.7650  138.6640 O   0  0  0  0  0  0  0  0  0  0  0  0
  183.6460  176.2250  136.0250 C   0  0  0  0  0  2  0  0  0  0  0  0
  181.2210  176.9750  135.8690 C   0  0  2  0  0  3  0  0  0  0  0  0
  180.5580  178.0230  134.9830 C   0  0  0  0  0  2  0  0  0  0  0  0
  179.2420  178.2340  135.3940 O   0  0  0  0  0  1  0  0  0  0  0  0
  180.2020  176.6280  137.3390 S   0  0  0  0  0  0  0  0  0  0  0  0
  180.7670  174.1330  138.3080 F   0  0  0  0  0  0  0  0  0  0  0  0
  180.3760  174.3140  136.1170 O   0  0  0  0  0  0  0  0  0  0  0  0
  180.4680  174.8630  137.2030 C   0  0  0  0  0  0  0  0  0  0  0  0
  185.7240  179.2720  142.2380 C   0  0  0  0  0  2  0  0  0  0  0  0
  185.1190  178.2570  143.2060 C   0  0  2  0  0  3  0  0  0  0  0  0
  183.6880  178.6370  143.5400 C   0  0  0  0  0  1  0  0  0  0  0  0
  185.9200  178.2200  144.5010 C   0  0  0  0  0  2  0  0  0  0  0  0
  186.9810  177.1320  144.4720 C   0  0  0  0  0  2  0  0  0  0  0  0
  188.1420  177.5000  145.3820 C   0  0  0  0  0  2  0  0  0  0  0  0
  189.4670  177.1700  144.7190 C   0  0  0  0  0  2  0  0  0  0  0  0
  190.1830  178.4410  144.3030 C   0  0  0  0  0  1  0  0  0  0  0  0
  1 17  1  0  0  0  0
  2  5  1  0  0  0  0
  2  6  1  0  0  0  0
  3  7  1  0  0  0  0
  3 14  1  0  0  0  0
  4 17  1  0  0  0  0
  4  6  1  0  0  0  0
  5 16  1  0  0  0  0
  6  9  1  0  0  0  0
  7  5  1  0  0  0  0
  8  4  1  0  0  0  0
  9 13  1  0  0  0  0
 11 12  1  0  0  0  0
 12  8  1  0  0  0  0
 12 15  1  0  0  0  0
 13 10  2  0  0  0  0
 13 30  1  0  0  0  0
 15  2  1  0  0  0  0
 16 20  1  0  0  0  0
 16  9  1  0  0  0  0
 17 19  1  0  0  0  0
 18  7  1  0  0  0  0
 19 10  1  0  0  0  0
 21 14  1  0  0  0  0
 21 20  1  0  0  0  0
 22 18  1  0  0  0  0
 22 15  1  0  0  0  0
 23 18  1  0  0  0  0
 23 26  1  0  0  0  0
 24 25  1  0  0  0  0
 24 23  1  0  0  0  0
 28 29  2  0  0  0  0
 29 26  1  0  0  0  0
 29 27  1  0  0  0  0
 30 31  1  0  0  0  0
 31 32  1  0  0  0  0
 31 33  1  0  0  0  0
 34 33  1  0  0  0  0
 34 35  1  0  0  0  0
 36 35  1  0  0  0  0
 37 36  1  0  0  0  0
M  END
>  <MODEL>
9

>  <REMARK>
 VINA RESULT:      -4.8      4.191      6.449
  Name = 
  10 active torsions:
  status: ('A' for Active; 'I' for Inactive)
    1  A    between atoms: C_1  and  C_5
    2  A    between atoms: C_1  and  C_23
    3  A    between atoms: C_2  and  C_6
    4  A    between atoms: C_5  and  C_17
    5  A    between atoms: C_6  and  S_8
    6  A    between atoms: C_6  and  C_31
    7  A    between atoms: S_8  and  C_19
    8  A    between atoms: C_11  and  C_26
    9  A    between atoms: C_17  and  C_26
   10  A    between atoms: C_23  and  C_25
                            x       y       z     vdW  Elec       q    Type
                         _______ _______ _______ _____ _____    ______ ____

>  <TORSDO>
F 10

$$$$
