=
 OpenBabel10262420313D

 55 60  0  0  1  0  0  0  0  0999 V2000
  189.9700  176.9290  138.7810 C   0  0  0  0  0  2  0  0  0  0  0  0
  185.0930  178.5990  137.8360 C   0  0  0  0  0  2  0  0  0  0  0  0
  185.5990  177.8920  135.0800 F   0  0  0  0  0  0  0  0  0  0  0  0
  186.1360  173.9360  135.5490 C   0  0  0  0  0  3  0  0  0  0  0  0
  185.6380  172.6890  135.5860 C   0  0  0  0  0  3  0  0  0  0  0  0
  188.3110  173.0730  136.4920 C   0  0  2  0  0  3  0  0  0  0  0  0
  187.9780  171.7520  135.8130 C   0  0  0  0  0  2  0  0  0  0  0  0
  187.4840  176.6720  135.6360 N   0  0  0  0  0  2  0  0  0  0  0  0
  186.4760  171.4830  135.9390 C   0  0  0  0  0  2  0  0  0  0  0  0
  190.6730  177.2060  141.1620 C   0  0  0  0  0  3  0  0  0  0  0  0
  187.6060  174.2150  135.7430 C   0  0  2  0  0  3  0  0  0  0  0  0
  188.0490  177.8400  141.9150 C   0  0  0  0  0  0  0  0  0  0  0  0
  189.3710  175.6680  138.3790 N   0  0  0  0  0  2  0  0  0  0  0  0
  188.3430  177.5250  140.5820 C   0  0  0  0  0  3  0  0  0  0  0  0
  190.2200  174.6200  136.3050 C   0  0  1  0  0  3  0  0  0  0  0  0
  185.2900  179.4170  139.1030 C   0  0  0  0  0  2  0  0  0  0  0  0
  189.7700  173.2460  136.5860 N   0  0  0  0  0  2  0  0  0  0  0  0
  186.4300  178.1220  137.3000 C   0  0  0  0  0  2  0  0  0  0  0  0
  186.2110  177.1970  136.1100 C   0  0  1  0  0  3  0  0  0  0  0  0
  190.3790  177.5040  142.4960 C   0  0  0  0  0  3  0  0  0  0  0  0
  185.2060  178.5330  140.3400 C   0  0  1  0  0  3  0  0  0  0  0  0
  189.6540  177.2160  140.2040 C   0  0  0  0  0  0  0  0  0  0  0  0
  187.8450  175.5390  136.4790 C   0  0  1  0  0  3  0  0  0  0  0  0
  189.3040  175.6920  136.9270 C   0  0  1  0  0  3  0  0  0  0  0  0
  186.0030  179.2010  141.4550 C   0  0  0  0  0  2  0  0  0  0  0  0
  186.6500  178.1480  142.3450 C   0  0  0  0  0  2  0  0  0  0  0  0
  189.0690  177.8190  142.8720 C   0  0  0  0  0  3  0  0  0  0  0  0
  192.3570  176.0820  136.3800 C   0  0  0  0  0  3  0  0  0  0  0  0
  194.5130  174.8820  136.6150 C   0  0  1  0  0  3  0  0  0  0  0  0
  192.3380  173.7890  137.2080 C   0  0  0  0  0  3  0  0  0  0  0  0
  193.7780  173.9640  137.6110 C   0  0  0  0  0  2  0  0  0  0  0  0
  193.6920  176.1360  136.3920 C   0  0  0  0  0  3  0  0  0  0  0  0
  191.6580  174.8110  136.6770 C   0  0  0  0  0  0  0  0  0  0  0  0
  195.8680  175.2100  137.0860 N   0  0  0  0  0  0  0  0  0  0  0  0
  196.1380  174.4430  138.2940 C   0  0  0  0  0  1  0  0  0  0  0  0
  196.8300  174.7220  136.1100 C   0  0  0  0  0  1  0  0  0  0  0  0
  183.6190  178.5610  142.1480 O   0  0  0  0  0  1  0  0  0  0  0  0
  183.7450  178.3410  140.7760 C   0  0  2  0  0  3  0  0  0  0  0  0
  183.3080  177.0410  140.4830 O   0  0  0  0  0  0  0  0  0  0  0  0
  181.3660  176.0310  139.1960 C   0  0  2  0  0  0  0  0  0  0  0  0
  183.5650  175.2650  138.5970 F   0  0  0  0  0  0  0  0  0  0  0  0
  182.5890  176.2020  138.2890 C   0  0  2  0  0  3  0  0  0  0  0  0
  182.3570  177.1610  139.4530 C   0  0  2  0  0  0  0  0  0  0  0  0
  182.0520  178.4530  139.0170 O   0  0  0  0  0  1  0  0  0  0  0  0
  181.4500  174.9680  140.0990 O   0  0  0  0  0  1  0  0  0  0  0  0
  179.9510  176.3820  138.6730 C   0  0  1  0  0  3  0  0  0  0  0  0
  179.2320  175.2250  137.9640 C   0  0  2  0  0  3  0  0  0  0  0  0
  178.9350  174.0930  138.9330 C   0  0  0  0  0  1  0  0  0  0  0  0
  180.0110  174.7310  136.9320 F   0  0  0  0  0  0  0  0  0  0  0  0
  178.9360  178.5250  139.1520 O   0  0  0  0  0  1  0  0  0  0  0  0
  179.0410  177.2060  139.6010 C   0  0  2  0  0  3  0  0  0  0  0  0
  179.9720  178.2910  141.7040 N   0  0  0  0  0  2  0  0  0  0  0  0
  180.4210  178.2490  143.0850 C   0  0  0  0  0  1  0  0  0  0  0  0
  179.4160  177.1470  141.0530 C   0  0  0  0  0  0  0  0  0  0  0  0
  179.2420  176.0750  141.6940 O   0  0  0  0  0  0  0  0  0  0  0  0
  1 22  1  0  0  0  0
  2 16  1  0  0  0  0
  4  5  2  0  0  0  0
  5  9  1  0  0  0  0
  6  7  1  6  0  0  0
  6 17  1  0  0  0  0
  7  9  1  0  0  0  0
  8 19  1  0  0  0  0
 10 20  1  0  0  0  0
 11  4  1  1  0  0  0
 11 23  1  0  0  0  0
 11  6  1  0  0  0  0
 12 26  1  0  0  0  0
 12 27  1  0  0  0  0
 13  1  1  0  0  0  0
 14 12  2  0  0  0  0
 15 17  1  0  0  0  0
 15 33  1  1  0  0  0
 15 24  1  0  0  0  0
 16 21  1  0  0  0  0
 18  2  1  0  0  0  0
 19  3  1  6  0  0  0
 19 18  1  0  0  0  0
 20 27  2  0  0  0  0
 21 38  1  1  0  0  0
 21 25  1  0  0  0  0
 22 14  1  0  0  0  0
 22 10  2  0  0  0  0
 23  8  1  6  0  0  0
 23 24  1  0  0  0  0
 24 13  1  1  0  0  0
 25 26  1  0  0  0  0
 28 32  2  0  0  0  0
 28 33  1  0  0  0  0
 29 34  1  1  0  0  0
 29 31  1  0  0  0  0
 30 31  1  0  0  0  0
 32 29  1  0  0  0  0
 33 30  2  0  0  0  0
 34 35  1  0  0  0  0
 36 34  1  0  0  0  0
 38 37  1  1  0  0  0
 39 38  1  0  0  0  0
 40 43  1  0  0  0  0
 40 45  1  1  0  0  0
 42 41  1  1  0  0  0
 42 40  1  0  0  0  0
 42 43  1  0  0  0  0
 43 44  1  6  0  0  0
 43 39  1  0  0  0  0
 46 47  1  1  0  0  0
 46 40  1  0  0  0  0
 46 51  1  0  0  0  0
 47 48  1  1  0  0  0
 49 47  1  0  0  0  0
 51 50  1  6  0  0  0
 51 54  1  0  0  0  0
 52 53  1  0  0  0  0
 54 55  2  0  0  0  0
 54 52  1  0  0  0  0
M  END
>  <MODEL>
1

>  <REMARK>
 VINA RESULT:      -7.3      0.000      0.000
  Name = 
  9 active torsions:
  status: ('A' for Active; 'I' for Inactive)
    1  A    between atoms: C_1  and  C_53
    2  A    between atoms: C_6  and  C_53
    3  A    between atoms: C_8  and  O_22
    4  A    between atoms: C_8  and  C_43
    5  A    between atoms: N_10  and  C_32
    6  A    between atoms: C_20  and  O_22
    7  A    between atoms: C_29  and  C_38
    8  A    between atoms: C_33  and  C_52
    9  A    between atoms: C_38  and  C_53
                            x       y       z     vdW  Elec       q    Type
                         _______ _______ _______ _____ _____    ______ ____

>  <TORSDO>
F 9

$$$$
=
 OpenBabel10262420313D

 55 60  0  0  1  0  0  0  0  0999 V2000
  190.5550  176.9080  138.8360 C   0  0  0  0  0  2  0  0  0  0  0  0
  185.6380  178.5500  138.0650 C   0  0  0  0  0  2  0  0  0  0  0  0
  186.0740  177.9130  135.2800 F   0  0  0  0  0  0  0  0  0  0  0  0
  186.6620  173.9530  135.6400 C   0  0  0  0  0  3  0  0  0  0  0  0
  186.1770  172.7010  135.6610 C   0  0  0  0  0  3  0  0  0  0  0  0
  188.8700  173.0900  136.5020 C   0  0  2  0  0  3  0  0  0  0  0  0
  188.5310  171.7820  135.8020 C   0  0  0  0  0  2  0  0  0  0  0  0
  187.9850  176.6990  135.7550 N   0  0  0  0  0  2  0  0  0  0  0  0
  187.0360  171.4950  135.9620 C   0  0  0  0  0  2  0  0  0  0  0  0
  191.3210  177.1370  141.2030 C   0  0  0  0  0  3  0  0  0  0  0  0
  188.1340  174.2430  135.8000 C   0  0  2  0  0  3  0  0  0  0  0  0
  188.7120  177.7260  142.0420 C   0  0  0  0  0  0  0  0  0  0  0  0
  189.9570  175.6520  138.4210 N   0  0  0  0  0  2  0  0  0  0  0  0
  188.9720  177.4460  140.6950 C   0  0  0  0  0  3  0  0  0  0  0  0
  190.7580  174.6610  136.3000 C   0  0  1  0  0  3  0  0  0  0  0  0
  185.8610  179.3400  139.3450 C   0  0  0  0  0  2  0  0  0  0  0  0
  190.3290  173.2760  136.5600 N   0  0  0  0  0  2  0  0  0  0  0  0
  186.9640  178.1000  137.4810 C   0  0  0  0  0  2  0  0  0  0  0  0
  186.7210  177.2000  136.2760 C   0  0  1  0  0  3  0  0  0  0  0  0
  191.0610  177.4000  142.5510 C   0  0  0  0  0  3  0  0  0  0  0  0
  185.8210  178.4260  140.5630 C   0  0  1  0  0  3  0  0  0  0  0  0
  190.2750  177.1590  140.2740 C   0  0  0  0  0  0  0  0  0  0  0  0
  188.3800  175.5520  136.5610 C   0  0  1  0  0  3  0  0  0  0  0  0
  189.8500  175.7090  136.9720 C   0  0  1  0  0  3  0  0  0  0  0  0
  186.6410  179.0770  141.6700 C   0  0  0  0  0  2  0  0  0  0  0  0
  187.3230  178.0100  142.5170 C   0  0  0  0  0  2  0  0  0  0  0  0
  189.7580  177.6930  142.9700 C   0  0  0  0  0  3  0  0  0  0  0  0
  192.9200  176.0850  136.2210 C   0  0  0  0  0  3  0  0  0  0  0  0
  195.0590  174.8720  136.5350 C   0  0  1  0  0  3  0  0  0  0  0  0
  192.8740  173.8740  137.2470 C   0  0  0  0  0  3  0  0  0  0  0  0
  194.3220  174.0580  137.6170 C   0  0  0  0  0  2  0  0  0  0  0  0
  194.2560  176.1170  136.2130 C   0  0  0  0  0  3  0  0  0  0  0  0
  192.2040  174.8570  136.6370 C   0  0  0  0  0  0  0  0  0  0  0  0
  196.4250  175.2160  136.9600 N   0  0  0  0  0  0  0  0  0  0  0  0
  196.8500  174.2630  137.9760 C   0  0  0  0  0  1  0  0  0  0  0  0
  197.3290  174.9970  135.8400 C   0  0  0  0  0  1  0  0  0  0  0  0
  184.3620  177.6100  142.2940 O   0  0  0  0  0  1  0  0  0  0  0  0
  184.3740  178.2090  141.0340 C   0  0  2  0  0  3  0  0  0  0  0  0
  183.6790  177.3870  140.1340 O   0  0  0  0  0  0  0  0  0  0  0  0
  181.1880  177.4680  139.6490 C   0  0  2  0  0  0  0  0  0  0  0  0
  182.5770  176.4530  137.9690 F   0  0  0  0  0  0  0  0  0  0  0  0
  181.9990  177.6510  138.3620 C   0  0  2  0  0  3  0  0  0  0  0  0
  182.5630  178.1250  139.6990 C   0  0  2  0  0  0  0  0  0  0  0  0
  182.6550  179.5170  139.7670 O   0  0  0  0  0  1  0  0  0  0  0  0
  181.1520  176.1590  140.1360 O   0  0  0  0  0  1  0  0  0  0  0  0
  179.9340  178.3370  139.9110 C   0  0  1  0  0  3  0  0  0  0  0  0
  180.1010  179.3690  141.0360 C   0  0  2  0  0  3  0  0  0  0  0  0
  180.4400  178.6910  142.3520 C   0  0  0  0  0  1  0  0  0  0  0  0
  178.9360  180.0980  141.2010 F   0  0  0  0  0  0  0  0  0  0  0  0
  178.9310  177.8480  137.7650 O   0  0  0  0  0  1  0  0  0  0  0  0
  179.1780  178.8720  138.6820 C   0  0  2  0  0  3  0  0  0  0  0  0
  179.7050  181.3590  138.6040 N   0  0  0  0  0  2  0  0  0  0  0  0
  180.2430  182.5420  137.9560 C   0  0  0  0  0  1  0  0  0  0  0  0
  179.8200  180.0590  138.0230 C   0  0  0  0  0  0  0  0  0  0  0  0
  180.4580  179.8990  136.9470 O   0  0  0  0  0  0  0  0  0  0  0  0
  1 22  1  0  0  0  0
  2 16  1  0  0  0  0
  4  5  2  0  0  0  0
  5  9  1  0  0  0  0
  6  7  1  6  0  0  0
  6 17  1  0  0  0  0
  7  9  1  0  0  0  0
  8 19  1  0  0  0  0
 10 20  1  0  0  0  0
 11  4  1  1  0  0  0
 11  6  1  0  0  0  0
 11 23  1  0  0  0  0
 12 26  1  0  0  0  0
 12 27  1  0  0  0  0
 13  1  1  0  0  0  0
 14 12  2  0  0  0  0
 15 17  1  0  0  0  0
 15 33  1  1  0  0  0
 15 24  1  0  0  0  0
 16 21  1  0  0  0  0
 18  2  1  0  0  0  0
 19  3  1  6  0  0  0
 19 18  1  0  0  0  0
 20 27  2  0  0  0  0
 21 38  1  1  0  0  0
 21 25  1  0  0  0  0
 22 14  1  0  0  0  0
 22 10  2  0  0  0  0
 23  8  1  6  0  0  0
 23 24  1  0  0  0  0
 24 13  1  1  0  0  0
 25 26  1  0  0  0  0
 28 33  1  0  0  0  0
 29 34  1  1  0  0  0
 29 31  1  0  0  0  0
 30 31  1  0  0  0  0
 32 28  2  0  0  0  0
 32 29  1  0  0  0  0
 33 30  2  0  0  0  0
 34 35  1  0  0  0  0
 36 34  1  0  0  0  0
 38 37  1  1  0  0  0
 39 38  1  0  0  0  0
 40 43  1  0  0  0  0
 40 46  1  0  0  0  0
 40 45  1  1  0  0  0
 42 41  1  1  0  0  0
 42 40  1  0  0  0  0
 42 43  1  0  0  0  0
 43 44  1  1  0  0  0
 43 39  1  0  0  0  0
 46 51  1  6  0  0  0
 46 47  1  0  0  0  0
 47 49  1  0  0  0  0
 47 48  1  1  0  0  0
 51 50  1  6  0  0  0
 53 52  1  0  0  0  0
 54 52  1  0  0  0  0
 54 51  1  0  0  0  0
 55 54  2  0  0  0  0
M  END
>  <MODEL>
2

>  <REMARK>
 VINA RESULT:      -6.0      1.706      2.215
  Name = 
  9 active torsions:
  status: ('A' for Active; 'I' for Inactive)
    1  A    between atoms: C_1  and  C_53
    2  A    between atoms: C_6  and  C_53
    3  A    between atoms: C_8  and  O_22
    4  A    between atoms: C_8  and  C_43
    5  A    between atoms: N_10  and  C_32
    6  A    between atoms: C_20  and  O_22
    7  A    between atoms: C_29  and  C_38
    8  A    between atoms: C_33  and  C_52
    9  A    between atoms: C_38  and  C_53
                            x       y       z     vdW  Elec       q    Type
                         _______ _______ _______ _____ _____    ______ ____

>  <TORSDO>
F 9

$$$$
=
 OpenBabel10262420313D

 55 60  0  0  1  0  0  0  0  0999 V2000
  189.9180  177.0170  138.5920 C   0  0  0  0  0  2  0  0  0  0  0  0
  185.0150  178.5300  137.5260 C   0  0  0  0  0  2  0  0  0  0  0  0
  185.6130  177.8430  134.7830 F   0  0  0  0  0  0  0  0  0  0  0  0
  186.2660  173.9060  135.2620 C   0  0  0  0  0  3  0  0  0  0  0  0
  185.8070  172.6440  135.2870 C   0  0  0  0  0  3  0  0  0  0  0  0
  188.4420  173.1120  136.2600 C   0  0  2  0  0  3  0  0  0  0  0  0
  188.1700  171.7830  135.5720 C   0  0  0  0  0  2  0  0  0  0  0  0
  187.5220  176.6840  135.3860 N   0  0  0  0  0  2  0  0  0  0  0  0
  186.6740  171.4650  135.6590 C   0  0  0  0  0  2  0  0  0  0  0  0
  190.5510  177.3130  140.9910 C   0  0  0  0  0  3  0  0  0  0  0  0
  187.7200  174.2330  135.4940 C   0  0  2  0  0  3  0  0  0  0  0  0
  187.8900  177.8610  141.6780 C   0  0  0  0  0  0  0  0  0  0  0  0
  189.3710  175.7380  138.1760 N   0  0  0  0  0  2  0  0  0  0  0  0
  188.2270  177.5580  140.3520 C   0  0  0  0  0  3  0  0  0  0  0  0
  190.3040  174.7200  136.1230 C   0  0  1  0  0  3  0  0  0  0  0  0
  185.1530  179.3520  138.7980 C   0  0  0  0  0  2  0  0  0  0  0  0
  189.8920  173.3320  136.3910 N   0  0  0  0  0  2  0  0  0  0  0  0
  186.3800  178.0980  137.0240 C   0  0  0  0  0  2  0  0  0  0  0  0
  186.2210  177.1670  135.8270 C   0  0  1  0  0  3  0  0  0  0  0  0
  190.2140  177.5990  142.3180 C   0  0  0  0  0  3  0  0  0  0  0  0
  185.0670  178.4640  140.0320 C   0  0  1  0  0  3  0  0  0  0  0  0
  189.5570  177.2920  140.0080 C   0  0  0  0  0  0  0  0  0  0  0  0
  187.8980  175.5630  136.2370 C   0  0  1  0  0  3  0  0  0  0  0  0
  189.3390  175.7620  136.7220 C   0  0  1  0  0  3  0  0  0  0  0  0
  185.8130  179.1560  141.1660 C   0  0  0  0  0  2  0  0  0  0  0  0
  186.4710  178.1230  142.0720 C   0  0  0  0  0  2  0  0  0  0  0  0
  188.8850  177.8720  142.6600 C   0  0  0  0  0  3  0  0  0  0  0  0
  192.4760  176.1290  136.0250 C   0  0  0  0  0  3  0  0  0  0  0  0
  194.5810  174.9640  136.6210 C   0  0  1  0  0  3  0  0  0  0  0  0
  192.3470  174.0520  137.2950 C   0  0  0  0  0  3  0  0  0  0  0  0
  193.7680  174.2790  137.7380 C   0  0  0  0  0  2  0  0  0  0  0  0
  193.8100  176.1610  136.1030 C   0  0  0  0  0  3  0  0  0  0  0  0
  191.7260  174.9570  136.5310 C   0  0  0  0  0  0  0  0  0  0  0  0
  195.9180  175.3560  137.0940 N   0  0  0  0  0  0  0  0  0  0  0  0
  196.4530  174.2820  137.9190 C   0  0  0  0  0  1  0  0  0  0  0  0
  196.8130  175.4310  135.9490 C   0  0  0  0  0  1  0  0  0  0  0  0
  183.3440  178.7880  141.6800 O   0  0  0  0  0  1  0  0  0  0  0  0
  183.6020  178.2240  140.4300 C   0  0  2  0  0  3  0  0  0  0  0  0
  183.3230  176.8510  140.4850 O   0  0  0  0  0  0  0  0  0  0  0  0
  181.4290  177.0600  138.8060 C   0  0  2  0  0  0  0  0  0  0  0  0
  181.0810  175.5370  140.6330 F   0  0  0  0  0  0  0  0  0  0  0  0
  181.5390  175.6230  139.3260 C   0  0  2  0  0  3  0  0  0  0  0  0
  182.7830  176.5020  139.2340 C   0  0  2  0  0  0  0  0  0  0  0  0
  183.6760  176.0480  138.2600 O   0  0  0  0  0  1  0  0  0  0  0  0
  180.8640  177.9670  139.7060 O   0  0  0  0  0  1  0  0  0  0  0  0
  181.1730  177.3280  137.3030 C   0  0  1  0  0  3  0  0  0  0  0  0
  181.5520  178.7410  136.8360 C   0  0  2  0  0  3  0  0  0  0  0  0
  181.5080  179.7260  137.9910 C   0  0  0  0  0  1  0  0  0  0  0  0
  180.6810  179.1740  135.8510 F   0  0  0  0  0  0  0  0  0  0  0  0
  182.4510  176.7030  135.3460 O   0  0  0  0  0  1  0  0  0  0  0  0
  181.5680  176.2170  136.3120 C   0  0  2  0  0  3  0  0  0  0  0  0
  179.9950  174.2220  136.1780 N   0  0  0  0  0  2  0  0  0  0  0  0
  178.9310  173.4620  135.5490 C   0  0  0  0  0  1  0  0  0  0  0  0
  180.4070  175.4990  135.6860 C   0  0  0  0  0  0  0  0  0  0  0  0
  179.8020  176.0300  134.7150 O   0  0  0  0  0  0  0  0  0  0  0  0
  1 22  1  0  0  0  0
  2 16  1  0  0  0  0
  4  5  2  0  0  0  0
  5  9  1  0  0  0  0
  6  7  1  6  0  0  0
  6 17  1  0  0  0  0
  7  9  1  0  0  0  0
  8 19  1  0  0  0  0
 10 20  1  0  0  0  0
 11  4  1  1  0  0  0
 11 23  1  0  0  0  0
 11  6  1  0  0  0  0
 12 26  1  0  0  0  0
 12 27  1  0  0  0  0
 13  1  1  0  0  0  0
 14 12  2  0  0  0  0
 15 17  1  0  0  0  0
 15 33  1  1  0  0  0
 15 24  1  0  0  0  0
 16 21  1  0  0  0  0
 18  2  1  0  0  0  0
 19  3  1  6  0  0  0
 19 18  1  0  0  0  0
 20 27  2  0  0  0  0
 21 38  1  1  0  0  0
 21 25  1  0  0  0  0
 22 14  1  0  0  0  0
 22 10  2  0  0  0  0
 23  8  1  6  0  0  0
 23 24  1  0  0  0  0
 24 13  1  1  0  0  0
 25 26  1  0  0  0  0
 28 32  2  0  0  0  0
 28 33  1  0  0  0  0
 29 34  1  1  0  0  0
 29 31  1  0  0  0  0
 30 31  1  0  0  0  0
 32 29  1  0  0  0  0
 33 30  2  0  0  0  0
 34 35  1  0  0  0  0
 36 34  1  0  0  0  0
 38 39  1  0  0  0  0
 38 37  1  1  0  0  0
 40 43  1  0  0  0  0
 40 42  1  0  0  0  0
 40 45  1  1  0  0  0
 42 41  1  1  0  0  0
 43 44  1  6  0  0  0
 43 42  1  0  0  0  0
 43 39  1  0  0  0  0
 46 51  1  6  0  0  0
 46 40  1  0  0  0  0
 47 46  1  0  0  0  0
 47 48  1  1  0  0  0
 49 47  1  0  0  0  0
 51 50  1  6  0  0  0
 53 52  1  0  0  0  0
 54 52  1  0  0  0  0
 54 51  1  0  0  0  0
 55 54  2  0  0  0  0
M  END
>  <MODEL>
3

>  <REMARK>
 VINA RESULT:      -5.9      1.811      2.629
  Name = 
  9 active torsions:
  status: ('A' for Active; 'I' for Inactive)
    1  A    between atoms: C_1  and  C_53
    2  A    between atoms: C_6  and  C_53
    3  A    between atoms: C_8  and  O_22
    4  A    between atoms: C_8  and  C_43
    5  A    between atoms: N_10  and  C_32
    6  A    between atoms: C_20  and  O_22
    7  A    between atoms: C_29  and  C_38
    8  A    between atoms: C_33  and  C_52
    9  A    between atoms: C_38  and  C_53
                            x       y       z     vdW  Elec       q    Type
                         _______ _______ _______ _____ _____    ______ ____

>  <TORSDO>
F 9

$$$$
=
 OpenBabel10262420313D

 55 60  0  0  1  0  0  0  0  0999 V2000
  184.4140  177.1020  137.2960 C   0  0  0  0  0  2  0  0  0  0  0  0
  189.5130  176.7570  136.1340 C   0  0  0  0  0  2  0  0  0  0  0  0
  189.7790  179.3220  137.4400 F   0  0  0  0  0  0  0  0  0  0  0  0
  188.6550  178.2450  141.1450 C   0  0  0  0  0  3  0  0  0  0  0  0
  188.9650  177.7930  142.3720 C   0  0  0  0  0  3  0  0  0  0  0  0
  186.2100  177.8910  141.6570 C   0  0  2  0  0  3  0  0  0  0  0  0
  186.5710  178.1400  143.1140 C   0  0  0  0  0  2  0  0  0  0  0  0
  187.6820  179.1600  138.4030 N   0  0  0  0  0  2  0  0  0  0  0  0
  187.9220  177.4870  143.4200 C   0  0  0  0  0  2  0  0  0  0  0  0
  183.0660  175.1830  136.4360 C   0  0  0  0  0  3  0  0  0  0  0  0
  187.2400  178.5930  140.7570 C   0  0  2  0  0  3  0  0  0  0  0  0
  185.3980  173.7770  135.7730 C   0  0  0  0  0  0  0  0  0  0  0  0
  184.9500  177.0210  138.6430 N   0  0  0  0  0  2  0  0  0  0  0  0
  185.4830  175.0380  136.3760 C   0  0  0  0  0  3  0  0  0  0  0  0
  184.6460  178.9940  140.1050 C   0  0  1  0  0  3  0  0  0  0  0  0
  189.0440  175.8180  135.0340 C   0  0  0  0  0  2  0  0  0  0  0  0
  184.8230  178.3070  141.3950 N   0  0  0  0  0  2  0  0  0  0  0  0
  188.3520  177.5830  136.6560 C   0  0  0  0  0  2  0  0  0  0  0  0
  188.8070  178.4220  137.8440 C   0  0  1  0  0  3  0  0  0  0  0  0
  182.9780  173.9160  135.8500 C   0  0  0  0  0  3  0  0  0  0  0  0
  188.6440  174.4650  135.6070 C   0  0  1  0  0  3  0  0  0  0  0  0
  184.3190  175.7440  136.7000 C   0  0  0  0  0  0  0  0  0  0  0  0
  186.9510  178.2620  139.2870 C   0  0  1  0  0  3  0  0  0  0  0  0
  185.4540  178.3470  138.9630 C   0  0  1  0  0  3  0  0  0  0  0  0
  187.6360  173.8280  134.6590 C   0  0  0  0  0  2  0  0  0  0  0  0
  186.6290  172.9950  135.4420 C   0  0  0  0  0  2  0  0  0  0  0  0
  184.1420  173.2150  135.5200 C   0  0  0  0  0  3  0  0  0  0  0  0
  182.7760  179.9390  138.5810 C   0  0  0  0  0  3  0  0  0  0  0  0
  180.5180  180.1270  139.5850 C   0  0  1  0  0  3  0  0  0  0  0  0
  182.2710  178.6410  140.5820 C   0  0  0  0  0  3  0  0  0  0  0  0
  180.8090  178.7650  140.2470 C   0  0  0  0  0  2  0  0  0  0  0  0
  181.5140  180.3620  138.4670 C   0  0  0  0  0  3  0  0  0  0  0  0
  183.1970  179.1500  139.7620 C   0  0  0  0  0  0  0  0  0  0  0  0
  179.1350  180.1970  139.0880 N   0  0  0  0  0  0  0  0  0  0  0  0
  178.9310  181.4950  138.4620 C   0  0  0  0  0  1  0  0  0  0  0  0
  178.9800  179.2320  138.0080 C   0  0  0  0  0  1  0  0  0  0  0  0
  189.5160  172.3720  136.4130 O   0  0  0  0  0  1  0  0  0  0  0  0
  189.8720  173.5540  135.7640 C   0  0  2  0  0  3  0  0  0  0  0  0
  190.8730  174.1960  136.5070 O   0  0  0  0  0  0  0  0  0  0  0  0
  193.4090  174.3340  136.4730 C   0  0  2  0  0  0  0  0  0  0  0  0
  192.2330  175.7880  134.9610 F   0  0  0  0  0  0  0  0  0  0  0  0
  192.8330  174.5410  135.0680 C   0  0  2  0  0  3  0  0  0  0  0  0
  192.1000  173.6600  136.0740 C   0  0  2  0  0  0  0  0  0  0  0  0
  192.1080  172.3140  135.6990 O   0  0  0  0  0  1  0  0  0  0  0  0
  193.2610  175.4250  137.3330 O   0  0  0  0  0  1  0  0  0  0  0  0
  194.6680  173.4570  136.6780 C   0  0  1  0  0  3  0  0  0  0  0  0
  195.9580  174.0540  136.0970 C   0  0  2  0  0  3  0  0  0  0  0  0
  195.9470  175.5700  136.1880 C   0  0  0  0  0  1  0  0  0  0  0  0
  196.1020  173.6920  134.7680 F   0  0  0  0  0  0  0  0  0  0  0  0
  195.4710  173.6820  138.9500 O   0  0  0  0  0  1  0  0  0  0  0  0
  194.8530  172.8020  138.0590 C   0  0  2  0  0  3  0  0  0  0  0  0
  196.8220  171.3340  137.3970 N   0  0  0  0  0  2  0  0  0  0  0  0
  197.4870  170.0480  137.2770 C   0  0  0  0  0  1  0  0  0  0  0  0
  195.5470  171.4710  138.0280 C   0  0  0  0  0  0  0  0  0  0  0  0
  194.9910  170.4710  138.5590 O   0  0  0  0  0  0  0  0  0  0  0  0
  1 13  1  0  0  0  0
  2 18  1  0  0  0  0
  4  5  2  0  0  0  0
  5  9  1  0  0  0  0
  6  7  1  1  0  0  0
  7  9  1  0  0  0  0
 10 22  1  0  0  0  0
 11  4  1  1  0  0  0
 11  6  1  0  0  0  0
 12 14  1  0  0  0  0
 14 22  2  0  0  0  0
 15 33  1  6  0  0  0
 15 17  1  0  0  0  0
 16 21  1  0  0  0  0
 16  2  1  0  0  0  0
 17  6  1  0  0  0  0
 18 19  1  0  0  0  0
 19  3  1  6  0  0  0
 19  8  1  0  0  0  0
 20 10  2  0  0  0  0
 21 38  1  6  0  0  0
 22  1  1  0  0  0  0
 23  8  1  6  0  0  0
 23 11  1  0  0  0  0
 24 13  1  1  0  0  0
 24 23  1  0  0  0  0
 24 15  1  0  0  0  0
 25 26  1  0  0  0  0
 25 21  1  0  0  0  0
 26 12  1  0  0  0  0
 27 12  2  0  0  0  0
 27 20  1  0  0  0  0
 28 33  1  0  0  0  0
 29 34  1  6  0  0  0
 29 31  1  0  0  0  0
 31 30  1  0  0  0  0
 32 28  2  0  0  0  0
 32 29  1  0  0  0  0
 33 30  2  0  0  0  0
 35 34  1  0  0  0  0
 36 34  1  0  0  0  0
 38 37  1  1  0  0  0
 38 39  1  0  0  0  0
 40 46  1  0  0  0  0
 40 45  1  1  0  0  0
 42 41  1  1  0  0  0
 42 43  1  0  0  0  0
 42 40  1  0  0  0  0
 43 44  1  6  0  0  0
 43 40  1  0  0  0  0
 43 39  1  0  0  0  0
 46 47  1  1  0  0  0
 46 51  1  0  0  0  0
 47 48  1  6  0  0  0
 49 47  1  0  0  0  0
 51 50  1  1  0  0  0
 52 54  1  0  0  0  0
 53 52  1  0  0  0  0
 54 51  1  0  0  0  0
 54 55  2  0  0  0  0
M  END
>  <MODEL>
4

>  <REMARK>
 VINA RESULT:      -5.2      4.651     11.598
  Name = 
  9 active torsions:
  status: ('A' for Active; 'I' for Inactive)
    1  A    between atoms: C_1  and  C_53
    2  A    between atoms: C_6  and  C_53
    3  A    between atoms: C_8  and  O_22
    4  A    between atoms: C_8  and  C_43
    5  A    between atoms: N_10  and  C_32
    6  A    between atoms: C_20  and  O_22
    7  A    between atoms: C_29  and  C_38
    8  A    between atoms: C_33  and  C_52
    9  A    between atoms: C_38  and  C_53
                            x       y       z     vdW  Elec       q    Type
                         _______ _______ _______ _____ _____    ______ ____

>  <TORSDO>
F 9

$$$$
=
 OpenBabel10262420313D

 55 60  0  0  1  0  0  0  0  0999 V2000
  191.0650  176.2680  138.0720 C   0  0  0  0  0  2  0  0  0  0  0  0
  186.2900  178.4120  137.8150 C   0  0  0  0  0  2  0  0  0  0  0  0
  186.2840  177.5810  135.0470 F   0  0  0  0  0  0  0  0  0  0  0  0
  186.4930  173.6050  135.5980 C   0  0  0  0  0  3  0  0  0  0  0  0
  185.8860  172.4190  135.7660 C   0  0  0  0  0  3  0  0  0  0  0  0
  188.6920  172.5460  136.2330 C   0  0  2  0  0  3  0  0  0  0  0  0
  188.1280  171.2490  135.6720 C   0  0  0  0  0  2  0  0  0  0  0  0
  188.1030  176.1860  135.3600 N   0  0  0  0  0  2  0  0  0  0  0  0
  186.6450  171.1420  136.0370 C   0  0  0  0  0  2  0  0  0  0  0  0
  192.1570  176.5350  140.3030 C   0  0  0  0  0  3  0  0  0  0  0  0
  187.9950  173.7350  135.5530 C   0  0  2  0  0  3  0  0  0  0  0  0
  189.7590  177.4600  141.4210 C   0  0  0  0  0  0  0  0  0  0  0  0
  190.2880  175.0660  137.8220 N   0  0  0  0  0  2  0  0  0  0  0  0
  189.8070  177.0800  140.0740 C   0  0  0  0  0  3  0  0  0  0  0  0
  190.6920  173.8780  135.6900 C   0  0  1  0  0  3  0  0  0  0  0  0
  186.7630  179.2400  139.0000 C   0  0  0  0  0  2  0  0  0  0  0  0
  190.1580  172.5680  136.0950 N   0  0  0  0  0  2  0  0  0  0  0  0
  187.4720  177.7840  137.1010 C   0  0  0  0  0  2  0  0  0  0  0  0
  186.9780  176.8550  136.0000 C   0  0  1  0  0  3  0  0  0  0  0  0
  192.1070  176.8980  141.6520 C   0  0  0  0  0  3  0  0  0  0  0  0
  186.7870  178.4030  140.2730 C   0  0  1  0  0  3  0  0  0  0  0  0
  191.0060  176.6250  139.5130 C   0  0  0  0  0  0  0  0  0  0  0  0
  188.4770  175.0460  136.1860 C   0  0  1  0  0  3  0  0  0  0  0  0
  189.9970  175.0580  136.3980 C   0  0  1  0  0  3  0  0  0  0  0  0
  187.8110  179.0150  141.2220 C   0  0  0  0  0  2  0  0  0  0  0  0
  188.4820  177.9250  142.0470 C   0  0  0  0  0  2  0  0  0  0  0  0
  190.9090  177.3590  142.2100 C   0  0  0  0  0  3  0  0  0  0  0  0
  192.9120  172.8700  136.5650 C   0  0  0  0  0  3  0  0  0  0  0  0
  194.8250  174.4310  136.7900 C   0  0  1  0  0  3  0  0  0  0  0  0
  192.8500  174.9840  135.3520 C   0  0  0  0  0  3  0  0  0  0  0  0
  194.3500  175.0460  135.4590 C   0  0  0  0  0  2  0  0  0  0  0  0
  194.1650  173.0800  136.9800 C   0  0  0  0  0  3  0  0  0  0  0  0
  192.1820  173.9280  135.8280 C   0  0  0  0  0  0  0  0  0  0  0  0
  196.2910  174.3170  136.8360 N   0  0  0  0  0  0  0  0  0  0  0  0
  196.6640  173.5830  138.0370 C   0  0  0  0  0  1  0  0  0  0  0  0
  196.7270  173.4740  135.7320 C   0  0  0  0  0  1  0  0  0  0  0  0
  185.4980  177.8830  142.2370 O   0  0  0  0  0  1  0  0  0  0  0  0
  185.4010  178.3770  140.9350 C   0  0  2  0  0  3  0  0  0  0  0  0
  184.5190  177.5660  140.2060 O   0  0  0  0  0  0  0  0  0  0  0  0
  181.9960  177.6660  139.9430 C   0  0  2  0  0  0  0  0  0  0  0  0
  183.2470  176.9310  138.0260 F   0  0  0  0  0  0  0  0  0  0  0  0
  182.6950  178.0490  138.6340 C   0  0  2  0  0  3  0  0  0  0  0  0
  183.3650  178.3360  139.9740 C   0  0  2  0  0  0  0  0  0  0  0  0
  183.4520  179.7060  140.2360 O   0  0  0  0  0  1  0  0  0  0  0  0
  182.0110  176.3000  140.2370 O   0  0  0  0  0  1  0  0  0  0  0  0
  180.7610  178.4640  140.4300 C   0  0  1  0  0  3  0  0  0  0  0  0
  179.6000  178.5110  139.4270 C   0  0  2  0  0  3  0  0  0  0  0  0
  179.3290  177.1350  138.8410 C   0  0  0  0  0  1  0  0  0  0  0  0
  179.8900  179.3830  138.3920 F   0  0  0  0  0  0  0  0  0  0  0  0
  178.9310  178.3800  142.0100 O   0  0  0  0  0  1  0  0  0  0  0  0
  180.3170  178.2530  141.8880 C   0  0  2  0  0  3  0  0  0  0  0  0
  182.2360  178.6370  143.5130 N   0  0  0  0  0  2  0  0  0  0  0  0
  182.9170  179.4000  144.5440 C   0  0  0  0  0  1  0  0  0  0  0  0
  181.0390  179.1070  142.8900 C   0  0  0  0  0  0  0  0  0  0  0  0
  180.5740  180.2430  143.1830 O   0  0  0  0  0  0  0  0  0  0  0  0
  1 22  1  0  0  0  0
  2 16  1  0  0  0  0
  4  5  2  0  0  0  0
  5  9  1  0  0  0  0
  6  7  1  6  0  0  0
  7  9  1  0  0  0  0
  8 19  1  0  0  0  0
 10 20  1  0  0  0  0
 11  4  1  1  0  0  0
 11 23  1  0  0  0  0
 11  6  1  0  0  0  0
 12 26  1  0  0  0  0
 12 27  1  0  0  0  0
 13  1  1  0  0  0  0
 14 12  2  0  0  0  0
 15 33  1  1  0  0  0
 15 17  1  0  0  0  0
 15 24  1  0  0  0  0
 16 21  1  0  0  0  0
 17  6  1  0  0  0  0
 18  2  1  0  0  0  0
 19  3  1  6  0  0  0
 19 18  1  0  0  0  0
 20 27  2  0  0  0  0
 21 38  1  1  0  0  0
 21 25  1  0  0  0  0
 22 14  1  0  0  0  0
 22 10  2  0  0  0  0
 23  8  1  6  0  0  0
 23 24  1  0  0  0  0
 24 13  1  1  0  0  0
 25 26  1  0  0  0  0
 28 32  2  0  0  0  0
 29 34  1  6  0  0  0
 29 32  1  0  0  0  0
 30 31  1  0  0  0  0
 30 33  2  0  0  0  0
 31 29  1  0  0  0  0
 33 28  1  0  0  0  0
 34 35  1  0  0  0  0
 36 34  1  0  0  0  0
 38 37  1  1  0  0  0
 39 38  1  0  0  0  0
 40 43  1  0  0  0  0
 40 45  1  1  0  0  0
 40 46  1  0  0  0  0
 42 41  1  6  0  0  0
 42 40  1  0  0  0  0
 42 43  1  0  0  0  0
 43 39  1  0  0  0  0
 43 44  1  1  0  0  0
 46 47  1  6  0  0  0
 46 51  1  0  0  0  0
 47 48  1  6  0  0  0
 49 47  1  0  0  0  0
 51 50  1  6  0  0  0
 51 54  1  0  0  0  0
 52 53  1  0  0  0  0
 54 55  2  0  0  0  0
 54 52  1  0  0  0  0
M  END
>  <MODEL>
5

>  <REMARK>
 VINA RESULT:      -4.8      1.537      2.054
  Name = 
  9 active torsions:
  status: ('A' for Active; 'I' for Inactive)
    1  A    between atoms: C_1  and  C_53
    2  A    between atoms: C_6  and  C_53
    3  A    between atoms: C_8  and  O_22
    4  A    between atoms: C_8  and  C_43
    5  A    between atoms: N_10  and  C_32
    6  A    between atoms: C_20  and  O_22
    7  A    between atoms: C_29  and  C_38
    8  A    between atoms: C_33  and  C_52
    9  A    between atoms: C_38  and  C_53
                            x       y       z     vdW  Elec       q    Type
                         _______ _______ _______ _____ _____    ______ ____

>  <TORSDO>
F 9

$$$$
=
 OpenBabel10262420313D

 55 60  0  0  1  0  0  0  0  0999 V2000
  184.4640  177.0080  137.5440 C   0  0  0  0  0  2  0  0  0  0  0  0
  189.2660  176.3400  135.5550 C   0  0  0  0  0  2  0  0  0  0  0  0
  189.8610  178.9530  136.6380 F   0  0  0  0  0  0  0  0  0  0  0  0
  189.3500  178.1310  140.5390 C   0  0  0  0  0  3  0  0  0  0  0  0
  189.8490  177.7290  141.7200 C   0  0  0  0  0  3  0  0  0  0  0  0
  187.0180  177.9320  141.4800 C   0  0  2  0  0  3  0  0  0  0  0  0
  187.6350  178.2370  142.8370 C   0  0  0  0  0  2  0  0  0  0  0  0
  187.9570  178.9500  137.9520 N   0  0  0  0  0  2  0  0  0  0  0  0
  188.9900  177.5330  142.9470 C   0  0  0  0  0  2  0  0  0  0  0  0
  182.9090  175.1180  137.0450 C   0  0  0  0  0  3  0  0  0  0  0  0
  187.9050  178.5320  140.3770 C   0  0  2  0  0  3  0  0  0  0  0  0
  185.0300  173.5610  136.0810 C   0  0  0  0  0  0  0  0  0  0  0  0
  185.2210  176.9700  138.7830 N   0  0  0  0  0  2  0  0  0  0  0  0
  185.2710  174.8460  136.5830 C   0  0  0  0  0  3  0  0  0  0  0  0
  185.2570  179.0310  140.1530 C   0  0  1  0  0  3  0  0  0  0  0  0
  188.5760  175.3690  134.6100 C   0  0  0  0  0  2  0  0  0  0  0  0
  185.6250  178.4050  141.4330 N   0  0  0  0  0  2  0  0  0  0  0  0
  188.2490  177.2510  136.2160 C   0  0  0  0  0  2  0  0  0  0  0  0
  188.9370  178.1270  137.2560 C   0  0  1  0  0  3  0  0  0  0  0  0
  182.6680  173.8290  136.5600 C   0  0  0  0  0  3  0  0  0  0  0  0
  188.2250  174.0710  135.3240 C   0  0  1  0  0  3  0  0  0  0  0  0
  184.2110  175.6270  137.0570 C   0  0  0  0  0  0  0  0  0  0  0  0
  187.3530  178.1390  139.0010 C   0  0  1  0  0  3  0  0  0  0  0  0
  185.8270  178.2840  138.9310 C   0  0  1  0  0  3  0  0  0  0  0  0
  187.0420  173.4380  134.6010 C   0  0  0  0  0  2  0  0  0  0  0  0
  186.1520  172.7000  135.5930 C   0  0  0  0  0  2  0  0  0  0  0  0
  183.7280  173.0520  136.0790 C   0  0  0  0  0  3  0  0  0  0  0  0
  182.8470  178.5530  140.9760 C   0  0  0  0  0  3  0  0  0  0  0  0
  181.0180  178.9860  139.3600 C   0  0  1  0  0  3  0  0  0  0  0  0
  183.2900  179.9990  139.0630 C   0  0  0  0  0  3  0  0  0  0  0  0
  181.8090  180.2460  138.9560 C   0  0  0  0  0  2  0  0  0  0  0  0
  181.5470  178.4670  140.6820 C   0  0  0  0  0  3  0  0  0  0  0  0
  183.7780  179.2430  140.0530 C   0  0  0  0  0  0  0  0  0  0  0  0
  179.5740  179.2600  139.4360 N   0  0  0  0  0  0  0  0  0  0  0  0
  179.2700  179.7930  140.7560 C   0  0  0  0  0  1  0  0  0  0  0  0
  179.2580  180.3410  138.5140 C   0  0  0  0  0  1  0  0  0  0  0  0
  188.9910  171.8020  135.5630 O   0  0  0  0  0  1  0  0  0  0  0  0
  189.4230  173.1080  135.3240 C   0  0  2  0  0  3  0  0  0  0  0  0
  190.3480  173.4680  136.3140 O   0  0  0  0  0  0  0  0  0  0  0  0
  192.8710  173.5790  136.5760 C   0  0  2  0  0  0  0  0  0  0  0  0
  191.7810  175.5840  135.8190 F   0  0  0  0  0  0  0  0  0  0  0  0
  192.4100  174.4260  135.3850 C   0  0  2  0  0  3  0  0  0  0  0  0
  191.6230  173.1840  135.7930 C   0  0  2  0  0  0  0  0  0  0  0  0
  191.7080  172.1690  134.8360 O   0  0  0  0  0  1  0  0  0  0  0  0
  192.6160  174.1430  137.8280 O   0  0  0  0  0  1  0  0  0  0  0  0
  194.1370  172.6950  136.4610 C   0  0  1  0  0  3  0  0  0  0  0  0
  193.9690  171.2710  137.0100 C   0  0  2  0  0  3  0  0  0  0  0  0
  195.2140  170.8240  137.7550 C   0  0  0  0  0  1  0  0  0  0  0  0
  193.7260  170.3810  135.9790 F   0  0  0  0  0  0  0  0  0  0  0  0
  195.1050  171.4900  134.6000 O   0  0  0  0  0  1  0  0  0  0  0  0
  194.9270  172.7650  135.1420 C   0  0  2  0  0  3  0  0  0  0  0  0
  196.2370  174.9360  135.3400 N   0  0  0  0  0  2  0  0  0  0  0  0
  197.4740  175.6980  135.3490 C   0  0  0  0  0  1  0  0  0  0  0  0
  196.2270  173.5110  135.2330 C   0  0  0  0  0  0  0  0  0  0  0  0
  197.3120  172.8690  135.2060 O   0  0  0  0  0  0  0  0  0  0  0  0
  1 13  1  0  0  0  0
  2 18  1  0  0  0  0
  4  5  2  0  0  0  0
  5  9  1  0  0  0  0
  6  7  1  1  0  0  0
  7  9  1  0  0  0  0
 10 22  1  0  0  0  0
 11  4  1  1  0  0  0
 11  6  1  0  0  0  0
 12 14  1  0  0  0  0
 14 22  2  0  0  0  0
 15 33  1  6  0  0  0
 15 17  1  0  0  0  0
 16 21  1  0  0  0  0
 16  2  1  0  0  0  0
 17  6  1  0  0  0  0
 18 19  1  0  0  0  0
 19  3  1  6  0  0  0
 19  8  1  0  0  0  0
 20 10  2  0  0  0  0
 21 38  1  6  0  0  0
 22  1  1  0  0  0  0
 23  8  1  6  0  0  0
 23 11  1  0  0  0  0
 24 13  1  1  0  0  0
 24 23  1  0  0  0  0
 24 15  1  0  0  0  0
 25 21  1  0  0  0  0
 25 26  1  0  0  0  0
 26 12  1  0  0  0  0
 27 12  2  0  0  0  0
 27 20  1  0  0  0  0
 29 34  1  1  0  0  0
 29 32  1  0  0  0  0
 30 33  2  0  0  0  0
 31 30  1  0  0  0  0
 31 29  1  0  0  0  0
 32 28  2  0  0  0  0
 33 28  1  0  0  0  0
 34 35  1  0  0  0  0
 36 34  1  0  0  0  0
 38 37  1  1  0  0  0
 38 39  1  0  0  0  0
 40 45  1  1  0  0  0
 42 43  1  0  0  0  0
 42 41  1  1  0  0  0
 42 40  1  0  0  0  0
 43 44  1  6  0  0  0
 43 39  1  0  0  0  0
 43 40  1  0  0  0  0
 46 51  1  6  0  0  0
 46 40  1  0  0  0  0
 46 47  1  0  0  0  0
 47 48  1  6  0  0  0
 49 47  1  0  0  0  0
 51 50  1  1  0  0  0
 51 54  1  0  0  0  0
 52 53  1  0  0  0  0
 54 52  1  0  0  0  0
 55 54  2  0  0  0  0
M  END
>  <MODEL>
6

>  <REMARK>
 VINA RESULT:      -4.7      4.737     11.428
  Name = 
  9 active torsions:
  status: ('A' for Active; 'I' for Inactive)
    1  A    between atoms: C_1  and  C_53
    2  A    between atoms: C_6  and  C_53
    3  A    between atoms: C_8  and  O_22
    4  A    between atoms: C_8  and  C_43
    5  A    between atoms: N_10  and  C_32
    6  A    between atoms: C_20  and  O_22
    7  A    between atoms: C_29  and  C_38
    8  A    between atoms: C_33  and  C_52
    9  A    between atoms: C_38  and  C_53
                            x       y       z     vdW  Elec       q    Type
                         _______ _______ _______ _____ _____    ______ ____

>  <TORSDO>
F 9

$$$$
