=
 OpenBabel10262423303D

 34 39  0  0  1  0  0  0  0  0999 V2000
  186.6780  178.4730  143.5900 C   0  0  2  0  0  3  0  0  0  0  0  0
  183.1750  178.7570  145.0440 C   0  0  0  0  0  3  0  0  0  0  0  0
  185.3440  178.5570  146.2640 C   0  0  0  0  0  2  0  0  0  0  0  0
  189.1340  176.9920  143.2860 C   0  0  0  0  0  2  0  0  0  0  0  0
  187.1350  177.8160  142.2820 C   0  0  0  0  0  2  0  0  0  0  0  0
  188.7750  177.6240  144.6260 C   0  0  2  0  0  3  0  0  0  0  0  0
  189.0130  177.6030  147.0900 C   0  0  0  0  0  2  0  0  0  0  0  0
  189.3330  176.8410  145.8030 C   0  0  0  0  0  2  0  0  0  0  0  0
  188.6060  177.8220  142.1920 N   0  0  2  0  0  0  0  0  0  0  0  0
  186.7800  178.1490  146.0830 C   0  0  0  0  0  0  0  0  0  0  0  0
  187.2550  177.6540  144.7390 C   0  0  1  0  0  3  0  0  0  0  0  0
  187.5640  178.0320  147.1700 C   0  0  0  0  0  3  0  0  0  0  0  0
  182.4100  178.8420  143.8810 C   0  0  0  0  0  0  0  0  0  0  0  0
  183.0630  178.8060  142.6440 C   0  0  0  0  0  3  0  0  0  0  0  0
  184.5620  178.6160  144.9740 C   0  0  0  0  0  0  0  0  0  0  0  0
  184.4140  178.6730  142.5830 N   0  0  0  0  0  0  0  0  0  0  0  0
  185.1790  178.5570  143.7040 C   0  0  0  0  0  0  0  0  0  0  0  0
  189.1010  177.9480  138.5430 C   0  0  0  0  0  3  0  0  0  0  0  0
  190.5310  177.0430  140.8190 C   0  0  0  0  0  2  0  0  0  0  0  0
  192.0750  176.1240  136.8980 C   0  0  0  0  0  0  0  0  0  0  0  0
  192.5990  175.9500  135.7140 C   0  0  0  0  0  0  0  0  0  0  0  0
  190.7240  176.7690  136.9580 C   0  0  0  0  0  2  0  0  0  0  0  0
  193.0960  175.7840  134.5940 O   0  0  0  0  0  0  0  0  0  0  0  0
  190.2920  177.0980  138.3590 C   0  0  0  0  0  0  0  0  0  0  0  0
  194.2780  174.9400  138.0980 S   0  0  0  0  0  1  0  0  0  0  0  0
  192.0760  175.8040  139.2910 O   0  0  0  0  0  0  0  0  0  0  0  0
  190.9480  176.6210  139.4350 C   0  0  0  0  0  0  0  0  0  0  0  0
  192.4800  175.2370  138.0460 C   0  0  1  0  0  3  0  0  0  0  0  0
  189.0020  177.2210  140.9090 C   0  0  2  0  0  3  0  0  0  0  0  0
  188.5170  178.0500  139.7400 C   0  0  0  0  0  3  0  0  0  0  0  0
  180.9880  178.9950  143.9980 N   0  0  0  0  0  2  0  0  0  0  0  0
  179.6310  180.4810  142.7350 C   0  0  0  0  0  2  0  0  0  0  0  0
  180.0380  179.2400  142.9510 C   0  0  0  0  0  0  0  0  0  0  0  0
  179.4250  178.1440  142.1470 C   0  0  0  0  0  1  0  0  0  0  0  0
  1  5  1  6  0  0  0
  1 17  1  0  0  0  0
  1 11  1  0  0  0  0
  6  4  1  6  0  0  0
  6 11  1  0  0  0  0
  6  8  1  0  0  0  0
  7 12  1  0  0  0  0
  8  7  1  0  0  0  0
  9  5  1  6  0  0  0
  9  4  1  0  0  0  0
 10  3  1  0  0  0  0
 10 12  2  0  0  0  0
 11 10  1  1  0  0  0
 13 31  1  0  0  0  0
 13  2  2  0  0  0  0
 14 13  1  0  0  0  0
 15  2  1  0  0  0  0
 15  3  1  0  0  0  0
 16 14  2  0  0  0  0
 16 17  1  0  0  0  0
 17 15  2  0  0  0  0
 18 30  2  0  0  0  0
 19 29  1  0  0  0  0
 20 22  1  0  0  0  0
 20 28  1  0  0  0  0
 21 20  2  0  0  0  0
 22 24  1  0  0  0  0
 23 21  2  0  0  0  0
 24 18  1  0  0  0  0
 24 27  2  0  0  0  0
 26 27  1  0  0  0  0
 27 19  1  0  0  0  0
 28 25  1  1  0  0  0
 28 26  1  0  0  0  0
 29 30  1  6  0  0  0
 29  9  1  0  0  0  0
 32 33  2  0  0  0  0
 33 31  1  0  0  0  0
 34 33  1  0  0  0  0
M  END
>  <MODEL>
1

>  <REMARK>
 VINA RESULT:     -10.3      0.000      0.000
  Name = 
  3 active torsions:
  status: ('A' for Active; 'I' for Inactive)
    1  A    between atoms: C_13  and  N_25
    2  A    between atoms: N_18  and  C_30
    3  A    between atoms: C_23  and  N_25
                            x       y       z     vdW  Elec       q    Type
                         _______ _______ _______ _____ _____    ______ ____

>  <TORSDO>
F 3

$$$$
=
 OpenBabel10262423303D

 34 39  0  0  1  0  0  0  0  0999 V2000
  183.3040  179.0450  141.4450 C   0  0  2  0  0  3  0  0  0  0  0  0
  182.6270  177.6380  137.9770 C   0  0  0  0  0  3  0  0  0  0  0  0
  180.9850  178.1500  139.7850 C   0  0  0  0  0  2  0  0  0  0  0  0
  183.1760  178.7670  144.3120 C   0  0  0  0  0  2  0  0  0  0  0  0
  184.5260  178.8500  142.3490 C   0  0  0  0  0  2  0  0  0  0  0  0
  181.9030  178.9750  143.5000 C   0  0  2  0  0  3  0  0  0  0  0  0
  179.4540  178.6620  143.3140 C   0  0  0  0  0  2  0  0  0  0  0  0
  180.6940  178.3120  144.1400 C   0  0  0  0  0  2  0  0  0  0  0  0
  184.2950  179.4710  143.6660 N   0  0  2  0  0  0  0  0  0  0  0  0
  180.8790  178.4000  141.2650 C   0  0  0  0  0  0  0  0  0  0  0  0
  182.1210  178.3630  142.1210 C   0  0  1  0  0  3  0  0  0  0  0  0
  179.6600  178.4420  141.8310 C   0  0  0  0  0  3  0  0  0  0  0  0
  183.9190  177.5860  137.4540 C   0  0  0  0  0  0  0  0  0  0  0  0
  184.9850  178.0170  138.2520 C   0  0  0  0  0  3  0  0  0  0  0  0
  182.4050  178.0890  139.2790 C   0  0  0  0  0  0  0  0  0  0  0  0
  184.7600  178.4600  139.5180 N   0  0  0  0  0  0  0  0  0  0  0  0
  183.5120  178.4900  140.0610 C   0  0  0  0  0  0  0  0  0  0  0  0
  186.0770  178.1440  146.6050 C   0  0  0  0  0  3  0  0  0  0  0  0
  186.5130  178.3500  143.8110 C   0  0  0  0  0  2  0  0  0  0  0  0
  189.7350  176.9580  146.3170 C   0  0  0  0  0  0  0  0  0  0  0  0
  190.6670  176.4280  147.0630 C   0  0  0  0  0  0  0  0  0  0  0  0
  188.5040  177.4540  147.0120 C   0  0  0  0  0  2  0  0  0  0  0  0
  191.5510  175.9250  147.7680 O   0  0  0  0  0  0  0  0  0  0  0  0
  187.4190  177.8690  146.0600 C   0  0  0  0  0  0  0  0  0  0  0  0
  191.2690  176.5610  144.0390 S   0  0  0  0  0  1  0  0  0  0  0  0
  188.9150  177.7680  144.1950 O   0  0  0  0  0  0  0  0  0  0  0  0
  187.6490  178.0130  144.7400 C   0  0  0  0  0  0  0  0  0  0  0  0
  190.0860  177.5740  144.9870 C   0  0  1  0  0  3  0  0  0  0  0  0
  185.5010  179.2960  144.4880 C   0  0  2  0  0  3  0  0  0  0  0  0
  185.1570  178.7690  145.8650 C   0  0  0  0  0  3  0  0  0  0  0  0
  184.1030  177.1230  136.1080 N   0  0  0  0  0  2  0  0  0  0  0  0
  185.7060  175.4390  135.6230 C   0  0  0  0  0  2  0  0  0  0  0  0
  185.3200  176.6960  135.4800 C   0  0  0  0  0  0  0  0  0  0  0  0
  186.2140  177.6310  134.7380 C   0  0  0  0  0  1  0  0  0  0  0  0
  1 11  1  0  0  0  0
  1  5  1  1  0  0  0
  2 15  1  0  0  0  0
  3 10  1  0  0  0  0
  6  8  1  1  0  0  0
  6  4  1  0  0  0  0
  7  8  1  0  0  0  0
  9  5  1  6  0  0  0
  9  4  1  0  0  0  0
  9 29  1  0  0  0  0
 10 12  2  0  0  0  0
 11 10  1  6  0  0  0
 11  6  1  0  0  0  0
 12  7  1  0  0  0  0
 13  2  2  0  0  0  0
 13 14  1  0  0  0  0
 14 16  2  0  0  0  0
 15  3  1  0  0  0  0
 15 17  2  0  0  0  0
 16 17  1  0  0  0  0
 17  1  1  0  0  0  0
 19 27  1  0  0  0  0
 20 22  1  0  0  0  0
 20 21  2  0  0  0  0
 21 23  2  0  0  0  0
 24 18  1  0  0  0  0
 24 22  1  0  0  0  0
 26 27  1  0  0  0  0
 26 28  1  0  0  0  0
 27 24  2  0  0  0  0
 28 25  1  6  0  0  0
 28 20  1  0  0  0  0
 29 19  1  6  0  0  0
 29 30  1  0  0  0  0
 30 18  2  0  0  0  0
 31 13  1  0  0  0  0
 33 32  2  0  0  0  0
 33 31  1  0  0  0  0
 34 33  1  0  0  0  0
M  END
>  <MODEL>
2

>  <REMARK>
 VINA RESULT:      -9.7      4.006      7.811
  Name = 
  3 active torsions:
  status: ('A' for Active; 'I' for Inactive)
    1  A    between atoms: C_13  and  N_25
    2  A    between atoms: N_18  and  C_30
    3  A    between atoms: C_23  and  N_25
                            x       y       z     vdW  Elec       q    Type
                         _______ _______ _______ _____ _____    ______ ____

>  <TORSDO>
F 3

$$$$
=
 OpenBabel10262423303D

 34 39  0  0  1  0  0  0  0  0999 V2000
  186.7190  178.8070  143.7240 C   0  0  2  0  0  3  0  0  0  0  0  0
  183.1050  178.5960  144.8920 C   0  0  0  0  0  3  0  0  0  0  0  0
  185.1860  178.3940  146.2560 C   0  0  0  0  0  2  0  0  0  0  0  0
  189.3160  177.5870  143.4340 C   0  0  0  0  0  2  0  0  0  0  0  0
  187.3310  178.3860  142.3820 C   0  0  0  0  0  2  0  0  0  0  0  0
  188.8010  177.9870  144.8120 C   0  0  2  0  0  3  0  0  0  0  0  0
  188.8540  177.6270  147.2600 C   0  0  0  0  0  2  0  0  0  0  0  0
  189.3390  177.0880  145.9120 C   0  0  0  0  0  2  0  0  0  0  0  0
  188.7980  178.5230  142.4220 N   0  0  2  0  0  0  0  0  0  0  0  0
  186.6630  178.1330  146.1470 C   0  0  0  0  0  0  0  0  0  0  0  0
  187.2810  177.8790  144.7940 C   0  0  1  0  0  3  0  0  0  0  0  0
  187.3700  177.9210  147.2710 C   0  0  0  0  0  3  0  0  0  0  0  0
  182.4250  178.7880  143.6890 C   0  0  0  0  0  0  0  0  0  0  0  0
  183.1690  178.9840  142.5210 C   0  0  0  0  0  3  0  0  0  0  0  0
  184.5010  178.5770  144.9240 C   0  0  0  0  0  0  0  0  0  0  0  0
  184.5280  178.9700  142.5610 N   0  0  0  0  0  0  0  0  0  0  0  0
  185.2140  178.7540  143.7170 C   0  0  0  0  0  0  0  0  0  0  0  0
  190.8020  176.3550  140.2180 C   0  0  0  0  0  3  0  0  0  0  0  0
  188.2450  177.5810  140.1850 C   0  0  0  0  0  2  0  0  0  0  0  0
  189.6470  175.6080  136.6150 C   0  0  0  0  0  0  0  0  0  0  0  0
  190.0250  174.9110  135.5770 C   0  0  0  0  0  0  0  0  0  0  0  0
  190.6230  175.7350  137.7450 C   0  0  0  0  0  2  0  0  0  0  0  0
  190.3820  174.2510  134.5940 O   0  0  0  0  0  0  0  0  0  0  0  0
  190.0310  176.3880  138.9620 C   0  0  0  0  0  0  0  0  0  0  0  0
  187.2100  176.1640  135.4120 S   0  0  0  0  0  1  0  0  0  0  0  0
  188.0880  177.0680  137.7420 O   0  0  0  0  0  0  0  0  0  0  0  0
  188.8380  177.0130  138.9230 C   0  0  0  0  0  0  0  0  0  0  0  0
  188.6020  176.6840  136.4680 C   0  0  1  0  0  3  0  0  0  0  0  0
  189.3420  178.1480  141.1090 C   0  0  2  0  0  3  0  0  0  0  0  0
  190.4630  177.1390  141.2450 C   0  0  0  0  0  3  0  0  0  0  0  0
  180.9900  178.8070  143.7010 N   0  0  0  0  0  2  0  0  0  0  0  0
  179.6370  180.3970  142.5670 C   0  0  0  0  0  2  0  0  0  0  0  0
  180.1030  179.1600  142.6300 C   0  0  0  0  0  0  0  0  0  0  0  0
  179.6180  178.1690  141.6280 C   0  0  0  0  0  1  0  0  0  0  0  0
  1  5  1  6  0  0  0
  1 11  1  0  0  0  0
  2 15  1  0  0  0  0
  6  4  1  6  0  0  0
  6  8  1  0  0  0  0
  7 12  1  0  0  0  0
  8  7  1  0  0  0  0
  9  5  1  6  0  0  0
  9  4  1  0  0  0  0
 10  3  1  0  0  0  0
 10 12  2  0  0  0  0
 11  6  1  0  0  0  0
 11 10  1  1  0  0  0
 13 31  1  0  0  0  0
 13  2  2  0  0  0  0
 14 16  2  0  0  0  0
 14 13  1  0  0  0  0
 15  3  1  0  0  0  0
 16 17  1  0  0  0  0
 17  1  1  0  0  0  0
 17 15  2  0  0  0  0
 18 30  2  0  0  0  0
 20 22  1  0  0  0  0
 21 20  2  0  0  0  0
 22 24  1  0  0  0  0
 23 21  2  0  0  0  0
 24 18  1  0  0  0  0
 26 27  1  0  0  0  0
 27 24  2  0  0  0  0
 27 19  1  0  0  0  0
 28 25  1  6  0  0  0
 28 20  1  0  0  0  0
 28 26  1  0  0  0  0
 29 19  1  6  0  0  0
 29 30  1  0  0  0  0
 29  9  1  0  0  0  0
 32 33  2  0  0  0  0
 33 31  1  0  0  0  0
 34 33  1  0  0  0  0
M  END
>  <MODEL>
3

>  <REMARK>
 VINA RESULT:      -9.6      1.813      2.130
  Name = 
  3 active torsions:
  status: ('A' for Active; 'I' for Inactive)
    1  A    between atoms: C_13  and  N_25
    2  A    between atoms: N_18  and  C_30
    3  A    between atoms: C_23  and  N_25
                            x       y       z     vdW  Elec       q    Type
                         _______ _______ _______ _____ _____    ______ ____

>  <TORSDO>
F 3

$$$$
=
 OpenBabel10262423303D

 34 39  0  0  1  0  0  0  0  0999 V2000
  186.3560  178.8120  142.1690 C   0  0  2  0  0  3  0  0  0  0  0  0
  182.5710  178.7300  142.5330 C   0  0  0  0  0  3  0  0  0  0  0  0
  184.3020  178.4710  144.3130 C   0  0  0  0  0  2  0  0  0  0  0  0
  188.9120  177.5040  142.4440 C   0  0  0  0  0  2  0  0  0  0  0  0
  187.2270  178.3600  140.9900 C   0  0  0  0  0  2  0  0  0  0  0  0
  188.1270  177.9320  143.6790 C   0  0  2  0  0  3  0  0  0  0  0  0
  187.6410  177.5910  146.0820 C   0  0  0  0  0  2  0  0  0  0  0  0
  188.3850  177.0250  144.8700 C   0  0  0  0  0  2  0  0  0  0  0  0
  188.6550  178.4480  141.3440 N   0  0  2  0  0  0  0  0  0  0  0  0
  185.7580  178.1600  144.5240 C   0  0  0  0  0  0  0  0  0  0  0  0
  186.6430  177.8740  143.3350 C   0  0  1  0  0  3  0  0  0  0  0  0
  186.2000  177.9350  145.7740 C   0  0  0  0  0  3  0  0  0  0  0  0
  182.1720  178.9350  141.2120 C   0  0  0  0  0  0  0  0  0  0  0  0
  183.1560  179.0970  140.2310 C   0  0  0  0  0  3  0  0  0  0  0  0
  183.9260  178.6660  142.8650 C   0  0  0  0  0  0  0  0  0  0  0  0
  184.4730  179.0370  140.5620 N   0  0  0  0  0  0  0  0  0  0  0  0
  184.8870  178.8080  141.8390 C   0  0  0  0  0  0  0  0  0  0  0  0
  191.4230  176.5940  139.7700 C   0  0  0  0  0  3  0  0  0  0  0  0
  188.6750  177.0780  139.2650 C   0  0  0  0  0  2  0  0  0  0  0  0
  191.0100  175.0500  136.2600 C   0  0  0  0  0  0  0  0  0  0  0  0
  191.6920  174.3350  135.4050 C   0  0  0  0  0  0  0  0  0  0  0  0
  191.7550  175.5950  137.4410 C   0  0  0  0  0  2  0  0  0  0  0  0
  192.3360  173.6580  134.5950 O   0  0  0  0  0  0  0  0  0  0  0  0
  190.8540  176.2380  138.4580 C   0  0  0  0  0  0  0  0  0  0  0  0
  188.7080  174.7570  134.7400 S   0  0  0  0  0  1  0  0  0  0  0  0
  188.9970  176.1910  136.9490 O   0  0  0  0  0  0  0  0  0  0  0  0
  189.5620  176.5100  138.1900 C   0  0  0  0  0  0  0  0  0  0  0  0
  189.7650  175.7760  135.8210 C   0  0  1  0  0  3  0  0  0  0  0  0
  189.4560  178.0440  140.1790 C   0  0  2  0  0  3  0  0  0  0  0  0
  190.7590  177.4000  140.6030 C   0  0  0  0  0  3  0  0  0  0  0  0
  180.7690  179.0020  140.9150 N   0  0  0  0  0  2  0  0  0  0  0  0
  179.7730  180.7200  139.6110 C   0  0  0  0  0  2  0  0  0  0  0  0
  179.9460  180.1720  140.8030 C   0  0  0  0  0  0  0  0  0  0  0  0
  179.3430  180.8480  141.9870 C   0  0  0  0  0  1  0  0  0  0  0  0
  1  5  1  6  0  0  0
  1 11  1  0  0  0  0
  2 15  1  0  0  0  0
  3 10  1  0  0  0  0
  6  4  1  6  0  0  0
  6  8  1  0  0  0  0
  8  7  1  0  0  0  0
  9  5  1  6  0  0  0
  9  4  1  0  0  0  0
 10 12  2  0  0  0  0
 11  6  1  0  0  0  0
 11 10  1  1  0  0  0
 12  7  1  0  0  0  0
 13  2  2  0  0  0  0
 14 16  2  0  0  0  0
 14 13  1  0  0  0  0
 15  3  1  0  0  0  0
 16 17  1  0  0  0  0
 17  1  1  0  0  0  0
 17 15  2  0  0  0  0
 18 30  2  0  0  0  0
 20 22  1  0  0  0  0
 21 20  2  0  0  0  0
 22 24  1  0  0  0  0
 23 21  2  0  0  0  0
 24 18  1  0  0  0  0
 26 27  1  0  0  0  0
 27 24  2  0  0  0  0
 27 19  1  0  0  0  0
 28 25  1  6  0  0  0
 28 20  1  0  0  0  0
 28 26  1  0  0  0  0
 29 19  1  1  0  0  0
 29 30  1  0  0  0  0
 29  9  1  0  0  0  0
 31 13  1  0  0  0  0
 32 33  2  0  0  0  0
 33 31  1  0  0  0  0
 33 34  1  0  0  0  0
M  END
>  <MODEL>
4

>  <REMARK>
 VINA RESULT:      -9.6      1.960      2.441
  Name = 
  3 active torsions:
  status: ('A' for Active; 'I' for Inactive)
    1  A    between atoms: C_13  and  N_25
    2  A    between atoms: N_18  and  C_30
    3  A    between atoms: C_23  and  N_25
                            x       y       z     vdW  Elec       q    Type
                         _______ _______ _______ _____ _____    ______ ____

>  <TORSDO>
F 3

$$$$
=
 OpenBabel10262423303D

 34 39  0  0  1  0  0  0  0  0999 V2000
  189.7960  177.5330  137.7940 C   0  0  2  0  0  3  0  0  0  0  0  0
  192.2210  175.2940  135.9050 C   0  0  0  0  0  3  0  0  0  0  0  0
  189.9410  176.0350  135.2110 C   0  0  0  0  0  2  0  0  0  0  0  0
  187.2320  177.9170  139.0580 C   0  0  0  0  0  2  0  0  0  0  0  0
  189.5920  177.6840  139.3060 C   0  0  0  0  0  2  0  0  0  0  0  0
  187.3340  177.7940  137.5420 C   0  0  2  0  0  3  0  0  0  0  0  0
  186.2410  177.1880  135.4050 C   0  0  0  0  0  2  0  0  0  0  0  0
  186.0900  177.1740  136.9280 C   0  0  0  0  0  2  0  0  0  0  0  0
  188.4440  178.5650  139.5840 N   0  0  2  0  0  0  0  0  0  0  0  0
  188.6590  176.6090  135.7490 C   0  0  0  0  0  0  0  0  0  0  0  0
  188.5300  176.9050  137.2230 C   0  0  1  0  0  3  0  0  0  0  0  0
  187.5800  176.6520  134.9470 C   0  0  0  0  0  3  0  0  0  0  0  0
  193.2980  175.2590  136.7910 C   0  0  0  0  0  0  0  0  0  0  0  0
  193.2030  175.9750  137.9900 C   0  0  0  0  0  3  0  0  0  0  0  0
  191.0640  176.0090  136.2180 C   0  0  0  0  0  0  0  0  0  0  0  0
  192.0750  176.6730  138.2870 N   0  0  0  0  0  0  0  0  0  0  0  0
  191.0000  176.6960  137.4510 C   0  0  0  0  0  0  0  0  0  0  0  0
  186.6420  178.0730  142.7590 C   0  0  0  0  0  3  0  0  0  0  0  0
  189.2960  177.8080  141.7970 C   0  0  0  0  0  2  0  0  0  0  0  0
  188.5690  177.3680  146.0250 C   0  0  0  0  0  0  0  0  0  0  0  0
  188.3280  177.1200  147.2850 C   0  0  0  0  0  0  0  0  0  0  0  0
  187.4120  177.8120  145.1830 C   0  0  0  0  0  2  0  0  0  0  0  0
  188.1010  176.8850  148.4780 O   0  0  0  0  0  0  0  0  0  0  0  0
  187.7460  177.8870  143.7190 C   0  0  0  0  0  0  0  0  0  0  0  0
  191.2540  176.7650  146.3730 S   0  0  0  0  0  1  0  0  0  0  0  0
  190.0840  177.6450  144.1650 O   0  0  0  0  0  0  0  0  0  0  0  0
  189.0160  177.8110  143.2760 C   0  0  0  0  0  0  0  0  0  0  0  0
  189.9530  177.7650  145.5800 C   0  0  1  0  0  3  0  0  0  0  0  0
  188.3060  178.7160  141.0400 C   0  0  2  0  0  3  0  0  0  0  0  0
  186.8930  178.4150  141.4930 C   0  0  0  0  0  3  0  0  0  0  0  0
  194.4710  174.5180  136.4260 N   0  0  0  0  0  2  0  0  0  0  0  0
  196.7460  174.4840  137.1120 C   0  0  0  0  0  2  0  0  0  0  0  0
  195.5130  174.0350  137.2870 C   0  0  0  0  0  0  0  0  0  0  0  0
  195.2810  172.9850  138.3190 C   0  0  0  0  0  1  0  0  0  0  0  0
  1  5  1  1  0  0  0
  2 15  2  0  0  0  0
  2 13  1  0  0  0  0
  3 10  1  0  0  0  0
  3 15  1  0  0  0  0
  5  9  1  0  0  0  0
  6  8  1  1  0  0  0
  6  4  1  0  0  0  0
  7  8  1  0  0  0  0
  9  4  1  1  0  0  0
  9 29  1  0  0  0  0
 11 10  1  6  0  0  0
 11  6  1  0  0  0  0
 11  1  1  0  0  0  0
 12  7  1  0  0  0  0
 12 10  2  0  0  0  0
 13 14  2  0  0  0  0
 14 16  1  0  0  0  0
 15 17  1  0  0  0  0
 17  1  1  0  0  0  0
 17 16  2  0  0  0  0
 18 24  1  0  0  0  0
 19 27  1  0  0  0  0
 20 21  2  0  0  0  0
 21 23  2  0  0  0  0
 22 20  1  0  0  0  0
 24 22  1  0  0  0  0
 26 28  1  0  0  0  0
 27 24  2  0  0  0  0
 27 26  1  0  0  0  0
 28 20  1  0  0  0  0
 28 25  1  1  0  0  0
 29 30  1  1  0  0  0
 29 19  1  0  0  0  0
 30 18  2  0  0  0  0
 31 13  1  0  0  0  0
 31 33  1  0  0  0  0
 32 33  2  0  0  0  0
 33 34  1  0  0  0  0
M  END
>  <MODEL>
5

>  <REMARK>
 VINA RESULT:      -9.5      4.087     10.368
  Name = 
  3 active torsions:
  status: ('A' for Active; 'I' for Inactive)
    1  A    between atoms: C_13  and  N_25
    2  A    between atoms: N_18  and  C_30
    3  A    between atoms: C_23  and  N_25
                            x       y       z     vdW  Elec       q    Type
                         _______ _______ _______ _____ _____    ______ ____

>  <TORSDO>
F 3

$$$$
=
 OpenBabel10262423303D

 34 39  0  0  1  0  0  0  0  0999 V2000
  190.7360  177.0600  138.1270 C   0  0  2  0  0  3  0  0  0  0  0  0
  192.7050  175.2580  135.4180 C   0  0  0  0  0  3  0  0  0  0  0  0
  190.6140  176.6000  135.1760 C   0  0  0  0  0  2  0  0  0  0  0  0
  188.2830  177.4170  139.6000 C   0  0  0  0  0  2  0  0  0  0  0  0
  190.5530  176.6870  139.6030 C   0  0  0  0  0  2  0  0  0  0  0  0
  188.3720  177.8350  138.1370 C   0  0  2  0  0  3  0  0  0  0  0  0
  187.2010  178.2530  135.9960 C   0  0  0  0  0  2  0  0  0  0  0  0
  187.0370  177.7160  137.4200 C   0  0  0  0  0  2  0  0  0  0  0  0
  189.5920  177.6000  140.2470 N   0  0  2  0  0  0  0  0  0  0  0  0
  189.4610  177.1620  135.9610 C   0  0  0  0  0  0  0  0  0  0  0  0
  189.3790  176.9210  137.4490 C   0  0  1  0  0  3  0  0  0  0  0  0
  188.4170  177.6870  135.2950 C   0  0  0  0  0  3  0  0  0  0  0  0
  193.7480  174.7100  136.1660 C   0  0  0  0  0  0  0  0  0  0  0  0
  193.7810  174.9470  137.5440 C   0  0  0  0  0  3  0  0  0  0  0  0
  191.7030  176.0070  136.0370 C   0  0  0  0  0  0  0  0  0  0  0  0
  192.8050  175.6820  138.1390 N   0  0  0  0  0  0  0  0  0  0  0  0
  191.7610  176.2010  137.4350 C   0  0  0  0  0  0  0  0  0  0  0  0
  190.7880  177.6180  143.7320 C   0  0  0  0  0  3  0  0  0  0  0  0
  188.3400  178.0210  142.3580 C   0  0  0  0  0  2  0  0  0  0  0  0
  188.2930  177.8310  146.6660 C   0  0  0  0  0  0  0  0  0  0  0  0
  188.3000  177.8890  147.9710 C   0  0  0  0  0  0  0  0  0  0  0  0
  189.5930  177.5170  145.9900 C   0  0  0  0  0  2  0  0  0  0  0  0
  188.3060  177.9450  149.2070 O   0  0  0  0  0  0  0  0  0  0  0  0
  189.5270  177.6590  144.4950 C   0  0  0  0  0  0  0  0  0  0  0  0
  185.5730  178.3740  146.6100 S   0  0  0  0  0  1  0  0  0  0  0  0
  187.1410  177.8320  144.5440 O   0  0  0  0  0  0  0  0  0  0  0  0
  188.3540  177.7990  143.8470 C   0  0  0  0  0  0  0  0  0  0  0  0
  187.0220  177.5030  145.9270 C   0  0  1  0  0  3  0  0  0  0  0  0
  189.4730  177.2360  141.6670 C   0  0  2  0  0  3  0  0  0  0  0  0
  190.7750  177.4670  142.4050 C   0  0  0  0  0  3  0  0  0  0  0  0
  194.7610  173.9520  135.4890 N   0  0  0  0  0  2  0  0  0  0  0  0
  196.8110  172.9280  136.1160 C   0  0  0  0  0  2  0  0  0  0  0  0
  196.1820  174.0080  135.6820 C   0  0  0  0  0  0  0  0  0  0  0  0
  196.9710  175.2590  135.4930 C   0  0  0  0  0  1  0  0  0  0  0  0
  1  5  1  1  0  0  0
  2 15  2  0  0  0  0
  2 13  1  0  0  0  0
  3 10  1  0  0  0  0
  3 15  1  0  0  0  0
  5  9  1  0  0  0  0
  6  8  1  6  0  0  0
  6  4  1  0  0  0  0
  7  8  1  0  0  0  0
  9  4  1  6  0  0  0
  9 29  1  0  0  0  0
 11 10  1  6  0  0  0
 11  1  1  0  0  0  0
 11  6  1  0  0  0  0
 12 10  2  0  0  0  0
 12  7  1  0  0  0  0
 13 14  2  0  0  0  0
 14 16  1  0  0  0  0
 15 17  1  0  0  0  0
 17  1  1  0  0  0  0
 17 16  2  0  0  0  0
 18 24  1  0  0  0  0
 19 27  1  0  0  0  0
 20 21  2  0  0  0  0
 21 23  2  0  0  0  0
 22 20  1  0  0  0  0
 24 22  1  0  0  0  0
 26 28  1  0  0  0  0
 27 24  2  0  0  0  0
 27 26  1  0  0  0  0
 28 25  1  1  0  0  0
 28 20  1  0  0  0  0
 29 19  1  1  0  0  0
 29 30  1  0  0  0  0
 30 18  2  0  0  0  0
 31 33  1  0  0  0  0
 31 13  1  0  0  0  0
 33 32  2  0  0  0  0
 34 33  1  0  0  0  0
M  END
>  <MODEL>
6

>  <REMARK>
 VINA RESULT:      -9.2      4.861     10.988
  Name = 
  3 active torsions:
  status: ('A' for Active; 'I' for Inactive)
    1  A    between atoms: C_13  and  N_25
    2  A    between atoms: N_18  and  C_30
    3  A    between atoms: C_23  and  N_25
                            x       y       z     vdW  Elec       q    Type
                         _______ _______ _______ _____ _____    ______ ____

>  <TORSDO>
F 3

$$$$
=
 OpenBabel10262423303D

 34 39  0  0  1  0  0  0  0  0999 V2000
  182.5200  178.1450  140.8680 C   0  0  2  0  0  3  0  0  0  0  0  0
  181.1600  175.7020  138.2900 C   0  0  0  0  0  3  0  0  0  0  0  0
  179.8850  177.1110  139.9080 C   0  0  0  0  0  2  0  0  0  0  0  0
  182.7950  178.9610  143.6200 C   0  0  0  0  0  2  0  0  0  0  0  0
  183.8330  178.0910  141.6580 C   0  0  0  0  0  2  0  0  0  0  0  0
  181.4490  179.0700  142.9150 C   0  0  2  0  0  3  0  0  0  0  0  0
  178.9810  179.1290  143.0960 C   0  0  0  0  0  2  0  0  0  0  0  0
  180.2800  178.9020  143.8720 C   0  0  0  0  0  2  0  0  0  0  0  0
  183.8800  179.1800  142.6500 N   0  0  2  0  0  0  0  0  0  0  0  0
  180.0360  177.8980  141.1810 C   0  0  0  0  0  0  0  0  0  0  0  0
  181.3800  177.9680  141.8640 C   0  0  1  0  0  3  0  0  0  0  0  0
  178.9310  178.3500  141.8000 C   0  0  0  0  0  3  0  0  0  0  0  0
  182.3420  175.2450  137.7070 C   0  0  0  0  0  0  0  0  0  0  0  0
  183.5610  175.7520  138.1730 C   0  0  0  0  0  3  0  0  0  0  0  0
  181.1940  176.6290  139.3330 C   0  0  0  0  0  0  0  0  0  0  0  0
  183.5850  176.6580  139.1860 N   0  0  0  0  0  0  0  0  0  0  0  0
  182.4470  177.0950  139.7910 C   0  0  0  0  0  0  0  0  0  0  0  0
  186.0440  178.0010  145.3900 C   0  0  0  0  0  3  0  0  0  0  0  0
  186.2030  178.2870  142.5730 C   0  0  0  0  0  2  0  0  0  0  0  0
  189.7610  177.1950  144.7510 C   0  0  0  0  0  0  0  0  0  0  0  0
  190.8050  176.7510  145.3990 C   0  0  0  0  0  0  0  0  0  0  0  0
  188.5550  177.5540  145.5640 C   0  0  0  0  0  2  0  0  0  0  0  0
  191.7940  176.3310  146.0120 O   0  0  0  0  0  0  0  0  0  0  0  0
  187.3520  177.8700  144.7210 C   0  0  0  0  0  0  0  0  0  0  0  0
  191.1140  176.9860  142.3380 S   0  0  0  0  0  1  0  0  0  0  0  0
  188.6760  177.9460  142.7290 O   0  0  0  0  0  0  0  0  0  0  0  0
  187.4460  178.0550  143.3890 C   0  0  0  0  0  0  0  0  0  0  0  0
  189.9270  177.8600  143.4100 C   0  0  1  0  0  3  0  0  0  0  0  0
  185.1680  179.1170  143.3580 C   0  0  2  0  0  3  0  0  0  0  0  0
  185.0030  178.5400  144.7480 C   0  0  0  0  0  3  0  0  0  0  0  0
  182.2620  174.2980  136.6310 N   0  0  0  0  0  2  0  0  0  0  0  0
  183.1810  172.1100  136.7590 C   0  0  0  0  0  2  0  0  0  0  0  0
  182.1010  172.8750  136.7190 C   0  0  0  0  0  0  0  0  0  0  0  0
  180.7670  172.2120  136.6850 C   0  0  0  0  0  1  0  0  0  0  0  0
  1  5  1  1  0  0  0
  1 11  1  0  0  0  0
  2 15  1  0  0  0  0
  3 10  1  0  0  0  0
  6  4  1  1  0  0  0
  6  8  1  0  0  0  0
  7  8  1  0  0  0  0
  9  5  1  6  0  0  0
  9 29  1  0  0  0  0
  9  4  1  0  0  0  0
 10 12  2  0  0  0  0
 11 10  1  6  0  0  0
 11  6  1  0  0  0  0
 12  7  1  0  0  0  0
 13 14  1  0  0  0  0
 13  2  2  0  0  0  0
 14 16  2  0  0  0  0
 15 17  2  0  0  0  0
 15  3  1  0  0  0  0
 16 17  1  0  0  0  0
 17  1  1  0  0  0  0
 19 27  1  0  0  0  0
 20 21  2  0  0  0  0
 20 22  1  0  0  0  0
 21 23  2  0  0  0  0
 24 18  1  0  0  0  0
 24 22  1  0  0  0  0
 26 27  1  0  0  0  0
 26 28  1  0  0  0  0
 27 24  2  0  0  0  0
 28 25  1  6  0  0  0
 28 20  1  0  0  0  0
 29 19  1  6  0  0  0
 29 30  1  0  0  0  0
 30 18  2  0  0  0  0
 31 33  1  0  0  0  0
 31 13  1  0  0  0  0
 33 32  2  0  0  0  0
 34 33  1  0  0  0  0
M  END
>  <MODEL>
7

>  <REMARK>
 VINA RESULT:      -9.2      3.955      7.547
  Name = 
  3 active torsions:
  status: ('A' for Active; 'I' for Inactive)
    1  A    between atoms: C_13  and  N_25
    2  A    between atoms: N_18  and  C_30
    3  A    between atoms: C_23  and  N_25
                            x       y       z     vdW  Elec       q    Type
                         _______ _______ _______ _____ _____    ______ ____

>  <TORSDO>
F 3

$$$$
=
 OpenBabel10262423303D

 34 39  0  0  1  0  0  0  0  0999 V2000
  188.0220  178.3510  142.5010 C   0  0  2  0  0  3  0  0  0  0  0  0
  184.3180  178.2970  143.3600 C   0  0  0  0  0  3  0  0  0  0  0  0
  186.2640  177.9660  144.8870 C   0  0  0  0  0  2  0  0  0  0  0  0
  190.5740  177.0100  142.3980 C   0  0  0  0  0  2  0  0  0  0  0  0
  188.7240  177.9270  141.2050 C   0  0  0  0  0  2  0  0  0  0  0  0
  189.9640  177.4080  143.7370 C   0  0  2  0  0  3  0  0  0  0  0  0
  189.7950  176.9980  146.1730 C   0  0  0  0  0  2  0  0  0  0  0  0
  190.3650  176.4620  144.8570 C   0  0  0  0  0  2  0  0  0  0  0  0
  190.1870  177.9890  141.3690 N   0  0  2  0  0  0  0  0  0  0  0  0
  187.7320  177.6340  144.8940 C   0  0  0  0  0  0  0  0  0  0  0  0
  188.4480  177.3760  143.5910 C   0  0  1  0  0  3  0  0  0  0  0  0
  188.3310  177.3660  146.0680 C   0  0  0  0  0  3  0  0  0  0  0  0
  183.7510  178.5450  142.1100 C   0  0  0  0  0  0  0  0  0  0  0  0
  184.5990  178.7280  141.0120 C   0  0  0  0  0  3  0  0  0  0  0  0
  185.7040  178.2080  143.5070 C   0  0  0  0  0  0  0  0  0  0  0  0
  185.9480  178.6450  141.1640 N   0  0  0  0  0  0  0  0  0  0  0  0
  186.5230  178.3730  142.3680 C   0  0  0  0  0  0  0  0  0  0  0  0
  193.0730  176.8820  139.3630 C   0  0  0  0  0  3  0  0  0  0  0  0
  190.3200  176.2430  139.6000 C   0  0  0  0  0  2  0  0  0  0  0  0
  192.5910  174.4750  136.3890 C   0  0  0  0  0  0  0  0  0  0  0  0
  193.3080  173.8520  135.4910 C   0  0  0  0  0  0  0  0  0  0  0  0
  193.2840  175.5170  137.2120 C   0  0  0  0  0  2  0  0  0  0  0  0
  193.9850  173.2620  134.6400 O   0  0  0  0  0  0  0  0  0  0  0  0
  192.4340  176.0380  138.3370 C   0  0  0  0  0  0  0  0  0  0  0  0
  190.3370  173.0360  135.6530 S   0  0  0  0  0  1  0  0  0  0  0  0
  190.4810  174.9800  137.4480 O   0  0  0  0  0  0  0  0  0  0  0  0
  191.1150  175.7700  138.4130 C   0  0  0  0  0  0  0  0  0  0  0  0
  191.0980  174.5910  136.2220 C   0  0  1  0  0  3  0  0  0  0  0  0
  190.8210  177.6140  140.0970 C   0  0  2  0  0  3  0  0  0  0  0  0
  192.3300  177.5870  140.2210 C   0  0  0  0  0  3  0  0  0  0  0  0
  182.3220  178.6360  142.0030 N   0  0  0  0  0  2  0  0  0  0  0  0
  181.2720  178.4660  144.1280 C   0  0  0  0  0  2  0  0  0  0  0  0
  181.3940  179.1210  142.9840 C   0  0  0  0  0  0  0  0  0  0  0  0
  180.4970  180.2850  142.7360 C   0  0  0  0  0  1  0  0  0  0  0  0
  1  5  1  6  0  0  0
  1 11  1  0  0  0  0
  2 15  1  0  0  0  0
  3 10  1  0  0  0  0
  6  4  1  6  0  0  0
  6  8  1  0  0  0  0
  8  7  1  0  0  0  0
  9  5  1  6  0  0  0
  9  4  1  0  0  0  0
 10 12  2  0  0  0  0
 11  6  1  0  0  0  0
 11 10  1  1  0  0  0
 12  7  1  0  0  0  0
 13  2  2  0  0  0  0
 14 16  2  0  0  0  0
 14 13  1  0  0  0  0
 15  3  1  0  0  0  0
 16 17  1  0  0  0  0
 17  1  1  0  0  0  0
 17 15  2  0  0  0  0
 18 30  2  0  0  0  0
 20 22  1  0  0  0  0
 21 20  2  0  0  0  0
 22 24  1  0  0  0  0
 23 21  2  0  0  0  0
 24 27  2  0  0  0  0
 24 18  1  0  0  0  0
 26 27  1  0  0  0  0
 27 19  1  0  0  0  0
 28 25  1  1  0  0  0
 28 20  1  0  0  0  0
 28 26  1  0  0  0  0
 29 19  1  1  0  0  0
 29 30  1  0  0  0  0
 29  9  1  0  0  0  0
 31 13  1  0  0  0  0
 31 33  1  0  0  0  0
 33 32  2  0  0  0  0
 34 33  1  0  0  0  0
M  END
>  <MODEL>
8

>  <REMARK>
 VINA RESULT:      -9.0      1.744      2.336
  Name = 
  3 active torsions:
  status: ('A' for Active; 'I' for Inactive)
    1  A    between atoms: C_13  and  N_25
    2  A    between atoms: N_18  and  C_30
    3  A    between atoms: C_23  and  N_25
                            x       y       z     vdW  Elec       q    Type
                         _______ _______ _______ _____ _____    ______ ____

>  <TORSDO>
F 3

$$$$
=
 OpenBabel10262423303D

 34 39  0  0  1  0  0  0  0  0999 V2000
  189.1450  176.2710  137.9620 C   0  0  2  0  0  3  0  0  0  0  0  0
  187.0050  176.8380  134.8690 C   0  0  0  0  0  3  0  0  0  0  0  0
  189.4200  176.2160  134.9870 C   0  0  0  0  0  2  0  0  0  0  0  0
  191.4260  176.9860  139.5760 C   0  0  0  0  0  2  0  0  0  0  0  0
  189.0540  176.9380  139.3400 C   0  0  0  0  0  2  0  0  0  0  0  0
  191.6190  176.3090  138.2240 C   0  0  2  0  0  3  0  0  0  0  0  0
  193.0730  175.9150  136.2590 C   0  0  0  0  0  2  0  0  0  0  0  0
  192.9180  176.7200  137.5520 C   0  0  0  0  0  2  0  0  0  0  0  0
  190.1770  176.5100  140.1930 N   0  0  2  0  0  0  0  0  0  0  0  0
  190.6040  176.2010  135.9140 C   0  0  0  0  0  0  0  0  0  0  0  0
  190.4560  176.7140  137.3260 C   0  0  1  0  0  3  0  0  0  0  0  0
  191.8210  175.9290  135.4100 C   0  0  0  0  0  3  0  0  0  0  0  0
  185.7750  177.1460  135.4490 C   0  0  0  0  0  0  0  0  0  0  0  0
  185.6750  177.1580  136.8450 C   0  0  0  0  0  3  0  0  0  0  0  0
  188.1200  176.5700  135.6660 C   0  0  0  0  0  0  0  0  0  0  0  0
  186.7630  176.8920  137.6150 N   0  0  0  0  0  0  0  0  0  0  0  0
  187.9820  176.6200  137.0720 C   0  0  0  0  0  0  0  0  0  0  0  0
  188.1630  177.6870  143.0450 C   0  0  0  0  0  3  0  0  0  0  0  0
  190.5540  176.2180  142.6360 C   0  0  0  0  0  2  0  0  0  0  0  0
  189.4960  177.3850  146.6510 C   0  0  0  0  0  0  0  0  0  0  0  0
  189.1130  177.6380  147.8740 C   0  0  0  0  0  0  0  0  0  0  0  0
  188.6450  177.9280  145.5430 C   0  0  0  0  0  2  0  0  0  0  0  0
  188.7510  177.8770  149.0330 O   0  0  0  0  0  0  0  0  0  0  0  0
  189.0580  177.4270  144.1870 C   0  0  0  0  0  0  0  0  0  0  0  0
  191.7170  176.0090  147.5830 S   0  0  0  0  0  1  0  0  0  0  0  0
  191.0940  176.5220  145.0590 O   0  0  0  0  0  0  0  0  0  0  0  0
  190.2200  176.7740  143.9950 C   0  0  0  0  0  0  0  0  0  0  0  0
  190.9460  177.1100  146.3510 C   0  0  1  0  0  3  0  0  0  0  0  0
  190.0330  177.1390  141.5140 C   0  0  2  0  0  3  0  0  0  0  0  0
  188.5920  177.5120  141.7920 C   0  0  0  0  0  3  0  0  0  0  0  0
  184.6520  177.4060  134.5940 N   0  0  0  0  0  2  0  0  0  0  0  0
  182.2980  177.6310  134.8180 C   0  0  0  0  0  2  0  0  0  0  0  0
  183.3400  176.8310  134.6600 C   0  0  0  0  0  0  0  0  0  0  0  0
  183.1050  175.3590  134.6410 C   0  0  0  0  0  1  0  0  0  0  0  0
  1  5  1  1  0  0  0
  2 13  2  0  0  0  0
  2 15  1  0  0  0  0
  3 15  1  0  0  0  0
  3 10  1  0  0  0  0
  4  9  1  0  0  0  0
  6  8  1  6  0  0  0
  6  4  1  0  0  0  0
  7  8  1  0  0  0  0
  9  5  1  6  0  0  0
  9 29  1  0  0  0  0
 11 10  1  6  0  0  0
 11  1  1  0  0  0  0
 11  6  1  0  0  0  0
 12 10  2  0  0  0  0
 12  7  1  0  0  0  0
 13 14  1  0  0  0  0
 14 16  2  0  0  0  0
 15 17  2  0  0  0  0
 17 16  1  0  0  0  0
 17  1  1  0  0  0  0
 18 24  1  0  0  0  0
 19 27  1  0  0  0  0
 20 21  2  0  0  0  0
 21 23  2  0  0  0  0
 22 20  1  0  0  0  0
 24 22  1  0  0  0  0
 26 28  1  0  0  0  0
 27 24  2  0  0  0  0
 27 26  1  0  0  0  0
 28 20  1  0  0  0  0
 28 25  1  1  0  0  0
 29 30  1  1  0  0  0
 29 19  1  0  0  0  0
 30 18  2  0  0  0  0
 31 33  1  0  0  0  0
 31 13  1  0  0  0  0
 33 32  2  0  0  0  0
 34 33  1  0  0  0  0
M  END
>  <MODEL>
9

>  <REMARK>
 VINA RESULT:      -8.9      4.650      8.592
  Name = 
  3 active torsions:
  status: ('A' for Active; 'I' for Inactive)
    1  A    between atoms: C_13  and  N_25
    2  A    between atoms: N_18  and  C_30
    3  A    between atoms: C_23  and  N_25
                            x       y       z     vdW  Elec       q    Type
                         _______ _______ _______ _____ _____    ______ ____

>  <TORSDO>
F 3

$$$$
