=
 OpenBabel10262423103D

 34 39  0  0  1  0  0  0  0  0999 V2000
  188.5880  177.7160  144.6280 C   0  0  0  0  0  0  0  0  0  0  0  0
  191.6240  176.7690  142.4230 C   0  0  0  0  0  2  0  0  0  0  0  0
  191.2490  176.7540  144.8670 C   0  0  0  0  0  3  0  0  0  0  0  0
  186.6130  178.3190  145.9510 C   0  0  0  0  0  0  0  0  0  0  0  0
  187.2620  178.1960  144.6900 C   0  0  0  0  0  3  0  0  0  0  0  0
  188.5950  177.5020  147.0400 C   0  0  0  0  0  0  0  0  0  0  0  0
  189.6140  177.0610  148.0050 C   0  0  0  0  0  3  0  0  0  0  0  0
  187.2870  177.9730  147.1500 C   0  0  0  0  0  3  0  0  0  0  0  0
  190.4330  176.9390  145.9790 C   0  0  0  0  0  0  0  0  0  0  0  0
  189.1780  177.3940  145.8290 C   0  0  0  0  0  0  0  0  0  0  0  0
  190.7080  176.7260  147.3650 N   0  0  0  0  0  0  0  0  0  0  0  0
  191.5500  177.8240  141.3260 C   0  0  0  0  0  2  0  0  0  0  0  0
  190.4270  177.5290  140.3280 C   0  0  2  0  0  3  0  0  0  0  0  0
  189.1280  177.0620  140.9860 C   0  0  0  0  0  2  0  0  0  0  0  0
  190.7220  177.0680  143.5870 C   0  0  0  0  0  0  0  0  0  0  0  0
  188.7550  177.9760  142.1410 C   0  0  0  0  0  2  0  0  0  0  0  0
  189.3620  177.5440  143.4540 C   0  0  0  0  0  0  0  0  0  0  0  0
  190.8710  176.5550  139.2840 C   0  0  0  0  0  0  0  0  0  0  0  0
  192.1750  176.6030  138.8130 O   0  0  0  0  0  0  0  0  0  0  0  0
  190.0750  175.6860  138.8360 O   0  0  0  0  0  1  0  0  0  0  0  0
  185.2220  178.8540  146.0140 C   0  0  0  0  0  2  0  0  0  0  0  0
  182.5950  178.6930  143.2870 C   0  0  0  0  0  3  0  0  0  0  0  0
  185.3850  178.8670  143.5150 C   0  0  0  0  0  3  0  0  0  0  0  0
  183.5880  178.7250  139.7170 C   0  0  0  0  0  0  0  0  0  0  0  0
  182.7940  178.6870  140.8720 C   0  0  0  0  0  3  0  0  0  0  0  0
  183.3870  178.7340  142.1360 C   0  0  0  0  0  0  0  0  0  0  0  0
  185.5830  178.8580  141.1010 C   0  0  0  0  0  3  0  0  0  0  0  0
  184.7930  178.8210  142.2510 C   0  0  0  0  0  0  0  0  0  0  0  0
  184.9830  178.8110  139.8390 C   0  0  0  0  0  3  0  0  0  0  0  0
  184.5880  178.8320  144.6650 C   0  0  0  0  0  0  0  0  0  0  0  0
  183.1940  178.7400  144.5490 C   0  0  0  0  0  3  0  0  0  0  0  0
  182.9570  178.6750  138.3880 C   0  0  0  0  0  0  0  0  0  0  0  0
  183.2570  177.7620  137.5720 O   0  0  0  0  0  0  0  0  0  0  0  0
  182.0230  179.6360  138.0190 O   0  0  0  0  0  1  0  0  0  0  0  0
  1  5  1  0  0  0  0
  1 10  1  0  0  0  0
  2 15  1  0  0  0  0
  3  9  1  0  0  0  0
  4 21  1  0  0  0  0
  4  8  1  0  0  0  0
  5  4  2  0  0  0  0
  6  8  2  0  0  0  0
  6  7  1  0  0  0  0
  9 11  1  0  0  0  0
 10  9  2  0  0  0  0
 10  6  1  0  0  0  0
 11  7  2  0  0  0  0
 12  2  1  0  0  0  0
 13 18  1  6  0  0  0
 13 14  1  0  0  0  0
 13 12  1  0  0  0  0
 14 16  1  0  0  0  0
 15  3  2  0  0  0  0
 16 17  1  0  0  0  0
 17 15  1  0  0  0  0
 17  1  2  0  0  0  0
 19 18  2  0  0  0  0
 20 18  1  0  0  0  0
 22 31  1  0  0  0  0
 23 30  1  0  0  0  0
 24 29  1  0  0  0  0
 24 25  2  0  0  0  0
 25 26  1  0  0  0  0
 26 28  1  0  0  0  0
 26 22  2  0  0  0  0
 27 28  1  0  0  0  0
 28 23  2  0  0  0  0
 29 27  2  0  0  0  0
 30 21  1  0  0  0  0
 31 30  2  0  0  0  0
 32 24  1  0  0  0  0
 33 32  2  0  0  0  0
 34 32  1  0  0  0  0
M  END
>  <MODEL>
1

>  <REMARK>
 VINA RESULT:     -11.6      0.000      0.000
  Name = 
  4 active torsions:
  status: ('A' for Active; 'I' for Inactive)
    1  A    between atoms: C_3  and  C_25
    2  A    between atoms: C_7  and  C_11
    3  A    between atoms: C_8  and  C_18
    4  A    between atoms: C_18  and  C_30
                            x       y       z     vdW  Elec       q    Type
                         _______ _______ _______ _____ _____    ______ ____

>  <TORSDO>
F 4

$$$$
=
 OpenBabel10262423103D

 34 39  0  0  1  0  0  0  0  0999 V2000
  184.5920  178.6060  141.6230 C   0  0  0  0  0  0  0  0  0  0  0  0
  185.8120  178.3320  137.9600 C   0  0  0  0  0  2  0  0  0  0  0  0
  183.5770  178.6430  138.9710 C   0  0  0  0  0  3  0  0  0  0  0  0
  183.9050  178.7890  143.9700 C   0  0  0  0  0  0  0  0  0  0  0  0
  184.9240  178.6000  142.9940 C   0  0  0  0  0  3  0  0  0  0  0  0
  182.2740  178.9750  142.2140 C   0  0  0  0  0  0  0  0  0  0  0  0
  181.0460  179.1180  141.4160 C   0  0  0  0  0  3  0  0  0  0  0  0
  182.5540  178.9740  143.5800 C   0  0  0  0  0  3  0  0  0  0  0  0
  182.7500  178.8180  140.0760 C   0  0  0  0  0  0  0  0  0  0  0  0
  183.2640  178.7970  141.3160 C   0  0  0  0  0  0  0  0  0  0  0  0
  181.3370  179.0250  140.1410 N   0  0  0  0  0  0  0  0  0  0  0  0
  186.9150  177.2880  138.0790 C   0  0  0  0  0  2  0  0  0  0  0  0
  188.1830  177.8690  138.7120 C   0  0  2  0  0  3  0  0  0  0  0  0
  187.9090  178.7860  139.9050 C   0  0  0  0  0  2  0  0  0  0  0  0
  184.9620  178.4330  139.1950 C   0  0  0  0  0  0  0  0  0  0  0  0
  186.9350  178.1320  140.8700 C   0  0  0  0  0  2  0  0  0  0  0  0
  185.4920  178.4280  140.5430 C   0  0  0  0  0  0  0  0  0  0  0  0
  189.0280  178.5640  137.6930 C   0  0  0  0  0  0  0  0  0  0  0  0
  189.8190  177.8150  136.8320 O   0  0  0  0  0  0  0  0  0  0  0  0
  189.0220  179.8210  137.6030 O   0  0  0  0  0  1  0  0  0  0  0  0
  184.2560  178.7530  145.4180 C   0  0  0  0  0  2  0  0  0  0  0  0
  187.6260  177.1490  144.7550 C   0  0  0  0  0  3  0  0  0  0  0  0
  186.3090  178.4990  146.8310 C   0  0  0  0  0  3  0  0  0  0  0  0
  190.2410  177.1150  147.3810 C   0  0  0  0  0  0  0  0  0  0  0  0
  189.5860  176.9040  146.1590 C   0  0  0  0  0  3  0  0  0  0  0  0
  188.2790  177.3620  145.9720 C   0  0  0  0  0  0  0  0  0  0  0  0
  188.2680  178.2520  148.2340 C   0  0  0  0  0  3  0  0  0  0  0  0
  187.6150  178.0420  147.0180 C   0  0  0  0  0  0  0  0  0  0  0  0
  189.5750  177.7910  148.4140 C   0  0  0  0  0  3  0  0  0  0  0  0
  185.6610  178.2880  145.6080 C   0  0  0  0  0  0  0  0  0  0  0  0
  186.3180  177.6090  144.5740 C   0  0  0  0  0  3  0  0  0  0  0  0
  191.6180  176.6300  147.5710 C   0  0  0  0  0  0  0  0  0  0  0  0
  192.3400  177.1030  148.4890 O   0  0  0  0  0  1  0  0  0  0  0  0
  192.1340  175.6450  146.7380 O   0  0  0  0  0  0  0  0  0  0  0  0
  1  5  1  0  0  0  0
  2 12  1  0  0  0  0
  2 15  1  0  0  0  0
  3 15  2  0  0  0  0
  3  9  1  0  0  0  0
  4 21  1  0  0  0  0
  5  4  2  0  0  0  0
  6  8  2  0  0  0  0
  7  6  1  0  0  0  0
  8  4  1  0  0  0  0
  9 11  1  0  0  0  0
  9 10  2  0  0  0  0
 10  1  1  0  0  0  0
 10  6  1  0  0  0  0
 11  7  2  0  0  0  0
 12 13  1  0  0  0  0
 13 18  1  6  0  0  0
 13 14  1  0  0  0  0
 14 16  1  0  0  0  0
 15 17  1  0  0  0  0
 17 16  1  0  0  0  0
 17  1  2  0  0  0  0
 19 18  2  0  0  0  0
 20 18  1  0  0  0  0
 21 30  1  0  0  0  0
 22 26  1  0  0  0  0
 23 28  1  0  0  0  0
 24 32  1  0  0  0  0
 24 29  1  0  0  0  0
 25 24  2  0  0  0  0
 26 25  1  0  0  0  0
 26 28  2  0  0  0  0
 27 29  2  0  0  0  0
 28 27  1  0  0  0  0
 30 23  2  0  0  0  0
 31 22  2  0  0  0  0
 31 30  1  0  0  0  0
 32 33  1  0  0  0  0
 34 32  2  0  0  0  0
M  END
>  <MODEL>
2

>  <REMARK>
 VINA RESULT:     -11.6      3.400      7.508
  Name = 
  4 active torsions:
  status: ('A' for Active; 'I' for Inactive)
    1  A    between atoms: C_3  and  C_25
    2  A    between atoms: C_7  and  C_11
    3  A    between atoms: C_8  and  C_18
    4  A    between atoms: C_18  and  C_30
                            x       y       z     vdW  Elec       q    Type
                         _______ _______ _______ _____ _____    ______ ____

>  <TORSDO>
F 4

$$$$
=
 OpenBabel10262423103D

 34 39  0  0  1  0  0  0  0  0999 V2000
  187.1240  178.0460  144.0530 C   0  0  0  0  0  0  0  0  0  0  0  0
  189.3130  177.0250  147.0770 C   0  0  0  0  0  2  0  0  0  0  0  0
  186.9640  177.7720  146.8750 C   0  0  0  0  0  3  0  0  0  0  0  0
  185.8000  178.6610  142.0820 C   0  0  0  0  0  0  0  0  0  0  0  0
  187.0340  178.2460  142.6590 C   0  0  0  0  0  3  0  0  0  0  0  0
  184.7960  178.6750  144.2660 C   0  0  0  0  0  0  0  0  0  0  0  0
  183.8930  178.8020  145.4210 C   0  0  0  0  0  3  0  0  0  0  0  0
  184.6600  178.8870  142.8940 C   0  0  0  0  0  3  0  0  0  0  0  0
  185.8680  178.1600  146.1120 C   0  0  0  0  0  0  0  0  0  0  0  0
  185.9780  178.2780  144.7790 C   0  0  0  0  0  0  0  0  0  0  0  0
  184.5380  178.4920  146.5190 N   0  0  0  0  0  0  0  0  0  0  0  0
  190.6670  177.6050  146.6870 C   0  0  0  0  0  2  0  0  0  0  0  0
  191.3530  176.7700  145.6020 C   0  0  2  0  0  3  0  0  0  0  0  0
  190.4060  176.3090  144.4930 C   0  0  0  0  0  2  0  0  0  0  0  0
  188.1910  177.5190  146.2080 C   0  0  0  0  0  0  0  0  0  0  0  0
  189.5620  177.4690  143.9930 C   0  0  0  0  0  2  0  0  0  0  0  0
  188.2780  177.6410  144.7680 C   0  0  0  0  0  0  0  0  0  0  0  0
  192.0830  175.6070  146.1920 C   0  0  0  0  0  0  0  0  0  0  0  0
  192.4090  174.5230  145.3890 O   0  0  0  0  0  0  0  0  0  0  0  0
  192.4120  175.6060  147.4090 O   0  0  0  0  0  1  0  0  0  0  0  0
  185.7180  178.8980  140.6120 C   0  0  0  0  0  2  0  0  0  0  0  0
  187.9130  177.2950  137.9700 C   0  0  0  0  0  3  0  0  0  0  0  0
  188.1440  178.2780  140.5870 C   0  0  0  0  0  3  0  0  0  0  0  0
  191.4940  176.6300  138.6530 C   0  0  0  0  0  0  0  0  0  0  0  0
  190.2600  176.6910  137.9920 C   0  0  0  0  0  3  0  0  0  0  0  0
  189.1440  177.2380  138.6300 C   0  0  0  0  0  0  0  0  0  0  0  0
  190.4900  177.6710  140.6080 C   0  0  0  0  0  3  0  0  0  0  0  0
  189.2600  177.7320  139.9490 C   0  0  0  0  0  0  0  0  0  0  0  0
  191.6020  177.1230  139.9620 C   0  0  0  0  0  3  0  0  0  0  0  0
  186.9150  178.3390  139.9200 C   0  0  0  0  0  0  0  0  0  0  0  0
  186.8000  177.8430  138.6150 C   0  0  0  0  0  3  0  0  0  0  0  0
  192.6660  176.0520  137.9750 C   0  0  0  0  0  0  0  0  0  0  0  0
  193.6400  176.7820  137.6500 O   0  0  0  0  0  0  0  0  0  0  0  0
  192.7080  174.6930  137.6850 O   0  0  0  0  0  1  0  0  0  0  0  0
  1 17  1  0  0  0  0
  1 10  1  0  0  0  0
  4  5  1  0  0  0  0
  4  8  2  0  0  0  0
  5  1  2  0  0  0  0
  6 10  2  0  0  0  0
  6  7  1  0  0  0  0
  7 11  2  0  0  0  0
  8  6  1  0  0  0  0
  9 11  1  0  0  0  0
  9  3  2  0  0  0  0
 10  9  1  0  0  0  0
 12  2  1  0  0  0  0
 13 18  1  1  0  0  0
 13 12  1  0  0  0  0
 14 13  1  0  0  0  0
 15  3  1  0  0  0  0
 15  2  1  0  0  0  0
 16 14  1  0  0  0  0
 16 17  1  0  0  0  0
 17 15  2  0  0  0  0
 18 20  1  0  0  0  0
 19 18  2  0  0  0  0
 21  4  1  0  0  0  0
 22 31  2  0  0  0  0
 22 26  1  0  0  0  0
 24 29  1  0  0  0  0
 25 26  1  0  0  0  0
 25 24  2  0  0  0  0
 26 28  2  0  0  0  0
 28 23  1  0  0  0  0
 28 27  1  0  0  0  0
 29 27  2  0  0  0  0
 30 23  2  0  0  0  0
 30 21  1  0  0  0  0
 31 30  1  0  0  0  0
 32 24  1  0  0  0  0
 33 32  2  0  0  0  0
 34 32  1  0  0  0  0
M  END
>  <MODEL>
3

>  <REMARK>
 VINA RESULT:     -11.5      3.206      6.242
  Name = 
  4 active torsions:
  status: ('A' for Active; 'I' for Inactive)
    1  A    between atoms: C_3  and  C_25
    2  A    between atoms: C_7  and  C_11
    3  A    between atoms: C_8  and  C_18
    4  A    between atoms: C_18  and  C_30
                            x       y       z     vdW  Elec       q    Type
                         _______ _______ _______ _____ _____    ______ ____

>  <TORSDO>
F 4

$$$$
=
 OpenBabel10262423103D

 34 39  0  0  1  0  0  0  0  0999 V2000
  184.4340  178.6390  141.6500 C   0  0  0  0  0  0  0  0  0  0  0  0
  185.9610  178.2530  138.1140 C   0  0  0  0  0  2  0  0  0  0  0  0
  183.6450  178.5630  138.9230 C   0  0  0  0  0  3  0  0  0  0  0  0
  183.5500  178.8950  143.9230 C   0  0  0  0  0  0  0  0  0  0  0  0
  184.6500  178.6880  143.0440 C   0  0  0  0  0  3  0  0  0  0  0  0
  182.0690  178.9900  142.0310 C   0  0  0  0  0  0  0  0  0  0  0  0
  180.9110  179.0840  141.1290 C   0  0  0  0  0  3  0  0  0  0  0  0
  182.2340  179.0440  143.4150 C   0  0  0  0  0  3  0  0  0  0  0  0
  182.7250  178.7640  139.9480 C   0  0  0  0  0  0  0  0  0  0  0  0
  183.1340  178.7970  141.2270 C   0  0  0  0  0  0  0  0  0  0  0  0
  181.3090  178.9500  139.8870 N   0  0  0  0  0  0  0  0  0  0  0  0
  187.0630  177.2320  138.3640 C   0  0  0  0  0  2  0  0  0  0  0  0
  188.2660  177.8560  139.0780 C   0  0  2  0  0  3  0  0  0  0  0  0
  187.8810  178.8110  140.2090 C   0  0  0  0  0  2  0  0  0  0  0  0
  185.0090  178.3840  139.2700 C   0  0  0  0  0  0  0  0  0  0  0  0
  186.8380  178.1760  141.1130 C   0  0  0  0  0  2  0  0  0  0  0  0
  185.4230  178.4360  140.6560 C   0  0  0  0  0  0  0  0  0  0  0  0
  189.1840  178.5270  138.1080 C   0  0  0  0  0  0  0  0  0  0  0  0
  190.1810  177.7900  137.4850 O   0  0  0  0  0  0  0  0  0  0  0  0
  189.0550  179.7530  137.8440 O   0  0  0  0  0  1  0  0  0  0  0  0
  183.7790  178.9180  145.3960 C   0  0  0  0  0  2  0  0  0  0  0  0
  187.0090  178.3930  147.3070 C   0  0  0  0  0  3  0  0  0  0  0  0
  186.0020  177.9830  144.7220 C   0  0  0  0  0  3  0  0  0  0  0  0
  189.9790  176.9550  145.6200 C   0  0  0  0  0  0  0  0  0  0  0  0
  189.1530  177.5020  146.6120 C   0  0  0  0  0  3  0  0  0  0  0  0
  187.8310  177.8450  146.3190 C   0  0  0  0  0  0  0  0  0  0  0  0
  188.1460  177.0940  144.0280 C   0  0  0  0  0  3  0  0  0  0  0  0
  187.3240  177.6390  145.0160 C   0  0  0  0  0  0  0  0  0  0  0  0
  189.4680  176.7530  144.3290 C   0  0  0  0  0  3  0  0  0  0  0  0
  185.1810  178.5250  145.7170 C   0  0  0  0  0  0  0  0  0  0  0  0
  185.6880  178.7340  147.0070 C   0  0  0  0  0  3  0  0  0  0  0  0
  191.3710  176.5960  145.9370 C   0  0  0  0  0  0  0  0  0  0  0  0
  192.0550  175.9170  145.1250 O   0  0  0  0  0  0  0  0  0  0  0  0
  191.9440  177.0020  147.1350 O   0  0  0  0  0  1  0  0  0  0  0  0
  1  5  1  0  0  0  0
  2 12  1  0  0  0  0
  2 15  1  0  0  0  0
  3 15  2  0  0  0  0
  3  9  1  0  0  0  0
  4 21  1  0  0  0  0
  5  4  2  0  0  0  0
  6  8  2  0  0  0  0
  7  6  1  0  0  0  0
  8  4  1  0  0  0  0
  9 10  2  0  0  0  0
 10  1  1  0  0  0  0
 10  6  1  0  0  0  0
 11  9  1  0  0  0  0
 11  7  2  0  0  0  0
 12 13  1  0  0  0  0
 13 18  1  6  0  0  0
 13 14  1  0  0  0  0
 14 16  1  0  0  0  0
 15 17  1  0  0  0  0
 17 16  1  0  0  0  0
 17  1  2  0  0  0  0
 19 18  2  0  0  0  0
 20 18  1  0  0  0  0
 21 30  1  0  0  0  0
 23 28  2  0  0  0  0
 23 30  1  0  0  0  0
 24 32  1  0  0  0  0
 24 25  2  0  0  0  0
 26 25  1  0  0  0  0
 26 22  2  0  0  0  0
 27 29  2  0  0  0  0
 27 28  1  0  0  0  0
 28 26  1  0  0  0  0
 29 24  1  0  0  0  0
 30 31  2  0  0  0  0
 31 22  1  0  0  0  0
 32 34  1  0  0  0  0
 33 32  2  0  0  0  0
M  END
>  <MODEL>
4

>  <REMARK>
 VINA RESULT:     -11.5      3.148      7.040
  Name = 
  4 active torsions:
  status: ('A' for Active; 'I' for Inactive)
    1  A    between atoms: C_3  and  C_25
    2  A    between atoms: C_7  and  C_11
    3  A    between atoms: C_8  and  C_18
    4  A    between atoms: C_18  and  C_30
                            x       y       z     vdW  Elec       q    Type
                         _______ _______ _______ _____ _____    ______ ____

>  <TORSDO>
F 4

$$$$
=
 OpenBabel10262423103D

 34 39  0  0  1  0  0  0  0  0999 V2000
  186.4410  178.2630  143.3270 C   0  0  0  0  0  0  0  0  0  0  0  0
  189.0160  177.2600  146.0370 C   0  0  0  0  0  2  0  0  0  0  0  0
  186.6460  177.9570  146.1430 C   0  0  0  0  0  3  0  0  0  0  0  0
  184.8670  178.8670  141.5470 C   0  0  0  0  0  0  0  0  0  0  0  0
  186.1710  178.4740  141.9580 C   0  0  0  0  0  3  0  0  0  0  0  0
  184.1470  178.8380  143.8410 C   0  0  0  0  0  0  0  0  0  0  0  0
  183.3950  178.9340  145.1020 C   0  0  0  0  0  3  0  0  0  0  0  0
  183.8340  179.0600  142.5000 C   0  0  0  0  0  3  0  0  0  0  0  0
  185.4540  178.3290  145.5300 C   0  0  0  0  0  0  0  0  0  0  0  0
  185.3920  178.4620  144.1950 C   0  0  0  0  0  0  0  0  0  0  0  0
  184.1800  178.6280  146.1060 N   0  0  0  0  0  0  0  0  0  0  0  0
  190.2980  177.8730  145.4870 C   0  0  0  0  0  2  0  0  0  0  0  0
  190.8580  177.0640  144.3130 C   0  0  2  0  0  3  0  0  0  0  0  0
  189.7880  176.5930  143.3270 C   0  0  0  0  0  2  0  0  0  0  0  0
  187.7830  177.7370  145.3230 C   0  0  0  0  0  0  0  0  0  0  0  0
  188.8630  177.7390  142.9520 C   0  0  0  0  0  2  0  0  0  0  0  0
  187.6850  177.8760  143.8850 C   0  0  0  0  0  0  0  0  0  0  0  0
  191.6800  175.9110  144.7920 C   0  0  0  0  0  0  0  0  0  0  0  0
  192.0560  175.8450  146.1260 O   0  0  0  0  0  1  0  0  0  0  0  0
  192.0270  174.9960  143.9980 O   0  0  0  0  0  0  0  0  0  0  0  0
  184.5930  179.1170  140.1030 C   0  0  0  0  0  2  0  0  0  0  0  0
  183.7740  176.2640  137.7460 C   0  0  0  0  0  3  0  0  0  0  0  0
  182.7010  177.4780  140.0350 C   0  0  0  0  0  3  0  0  0  0  0  0
  180.7160  174.2310  138.2460 C   0  0  0  0  0  0  0  0  0  0  0  0
  181.9160  174.7090  137.7010 C   0  0  0  0  0  3  0  0  0  0  0  0
  182.5800  175.7870  138.2910 C   0  0  0  0  0  0  0  0  0  0  0  0
  180.8430  175.9240  139.9880 C   0  0  0  0  0  3  0  0  0  0  0  0
  182.0390  176.3990  139.4450 C   0  0  0  0  0  0  0  0  0  0  0  0
  180.1860  174.8440  139.3910 C   0  0  0  0  0  3  0  0  0  0  0  0
  183.9000  177.9480  139.4880 C   0  0  0  0  0  0  0  0  0  0  0  0
  184.4320  177.3440  138.3410 C   0  0  0  0  0  3  0  0  0  0  0  0
  180.0230  173.0950  137.6180 C   0  0  0  0  0  0  0  0  0  0  0  0
  179.0610  173.2910  136.8280 O   0  0  0  0  0  0  0  0  0  0  0  0
  180.4230  171.7920  137.8920 O   0  0  0  0  0  1  0  0  0  0  0  0
  1 17  2  0  0  0  0
  1 10  1  0  0  0  0
  4  5  2  0  0  0  0
  4  8  1  0  0  0  0
  5  1  1  0  0  0  0
  6 10  1  0  0  0  0
  6  7  1  0  0  0  0
  7 11  2  0  0  0  0
  8  6  2  0  0  0  0
  9 11  1  0  0  0  0
  9  3  1  0  0  0  0
 10  9  2  0  0  0  0
 12  2  1  0  0  0  0
 13 18  1  1  0  0  0
 13 12  1  0  0  0  0
 14 13  1  0  0  0  0
 15  2  1  0  0  0  0
 15  3  2  0  0  0  0
 16 14  1  0  0  0  0
 16 17  1  0  0  0  0
 17 15  1  0  0  0  0
 18 19  1  0  0  0  0
 20 18  2  0  0  0  0
 21  4  1  0  0  0  0
 22 26  2  0  0  0  0
 22 31  1  0  0  0  0
 24 29  1  0  0  0  0
 25 24  2  0  0  0  0
 25 26  1  0  0  0  0
 26 28  1  0  0  0  0
 28 27  1  0  0  0  0
 28 23  2  0  0  0  0
 29 27  2  0  0  0  0
 30 23  1  0  0  0  0
 30 21  1  0  0  0  0
 31 30  2  0  0  0  0
 32 34  1  0  0  0  0
 32 24  1  0  0  0  0
 33 32  2  0  0  0  0
M  END
>  <MODEL>
5

>  <REMARK>
 VINA RESULT:     -11.1      3.314      5.279
  Name = 
  4 active torsions:
  status: ('A' for Active; 'I' for Inactive)
    1  A    between atoms: C_3  and  C_25
    2  A    between atoms: C_7  and  C_11
    3  A    between atoms: C_8  and  C_18
    4  A    between atoms: C_18  and  C_30
                            x       y       z     vdW  Elec       q    Type
                         _______ _______ _______ _____ _____    ______ ____

>  <TORSDO>
F 4

$$$$
=
 OpenBabel10262423103D

 34 39  0  0  1  0  0  0  0  0999 V2000
  187.0520  178.1940  141.2660 C   0  0  0  0  0  0  0  0  0  0  0  0
  189.6310  177.4880  138.4670 C   0  0  0  0  0  2  0  0  0  0  0  0
  187.2790  178.2510  138.4350 C   0  0  0  0  0  3  0  0  0  0  0  0
  185.4840  178.6360  143.0990 C   0  0  0  0  0  0  0  0  0  0  0  0
  186.7650  178.2110  142.6480 C   0  0  0  0  0  3  0  0  0  0  0  0
  184.8140  179.0030  140.8200 C   0  0  0  0  0  0  0  0  0  0  0  0
  184.0890  179.3140  139.5780 C   0  0  0  0  0  3  0  0  0  0  0  0
  184.4850  179.0350  142.1750 C   0  0  0  0  0  3  0  0  0  0  0  0
  186.1110  178.6360  139.0860 C   0  0  0  0  0  0  0  0  0  0  0  0
  186.0390  178.5990  140.4270 C   0  0  0  0  0  0  0  0  0  0  0  0
  184.8690  179.0940  138.5470 N   0  0  0  0  0  0  0  0  0  0  0  0
  190.3640  176.2740  139.0230 C   0  0  0  0  0  2  0  0  0  0  0  0
  191.3300  176.6570  140.1480 C   0  0  2  0  0  3  0  0  0  0  0  0
  190.7530  177.6780  141.1300 C   0  0  0  0  0  2  0  0  0  0  0  0
  188.3740  177.8120  139.2240 C   0  0  0  0  0  0  0  0  0  0  0  0
  189.3590  177.2660  141.5730 C   0  0  0  0  0  2  0  0  0  0  0  0
  188.2730  177.7940  140.6690 C   0  0  0  0  0  0  0  0  0  0  0  0
  192.6390  177.1280  139.6020 C   0  0  0  0  0  0  0  0  0  0  0  0
  193.0350  176.7310  138.3330 O   0  0  0  0  0  0  0  0  0  0  0  0
  193.3810  177.8900  140.2790 O   0  0  0  0  0  1  0  0  0  0  0  0
  185.1770  178.6250  144.5580 C   0  0  0  0  0  2  0  0  0  0  0  0
  187.4520  177.8530  147.4900 C   0  0  0  0  0  3  0  0  0  0  0  0
  187.5540  177.8470  144.6870 C   0  0  0  0  0  3  0  0  0  0  0  0
  190.9450  176.7530  146.9200 C   0  0  0  0  0  0  0  0  0  0  0  0
  189.7610  177.1200  147.5740 C   0  0  0  0  0  3  0  0  0  0  0  0
  188.6310  177.4840  146.8370 C   0  0  0  0  0  0  0  0  0  0  0  0
  189.8620  177.1160  144.7720 C   0  0  0  0  0  3  0  0  0  0  0  0
  188.6830  177.4820  145.4240 C   0  0  0  0  0  0  0  0  0  0  0  0
  190.9880  176.7520  145.5170 C   0  0  0  0  0  3  0  0  0  0  0  0
  186.3740  178.2100  145.3460 C   0  0  0  0  0  0  0  0  0  0  0  0
  186.3260  178.2170  146.7460 C   0  0  0  0  0  3  0  0  0  0  0  0
  192.1310  176.3700  147.7030 C   0  0  0  0  0  0  0  0  0  0  0  0
  192.8050  175.3540  147.3850 O   0  0  0  0  0  0  0  0  0  0  0  0
  192.5170  177.1270  148.8030 O   0  0  0  0  0  1  0  0  0  0  0  0
  1  5  1  0  0  0  0
  2 12  1  0  0  0  0
  2 15  1  0  0  0  0
  3  9  2  0  0  0  0
  3 15  1  0  0  0  0
  4 21  1  0  0  0  0
  5  4  2  0  0  0  0
  6  8  2  0  0  0  0
  7  6  1  0  0  0  0
  8  4  1  0  0  0  0
  9 10  1  0  0  0  0
 10  6  1  0  0  0  0
 10  1  2  0  0  0  0
 11  9  1  0  0  0  0
 11  7  2  0  0  0  0
 12 13  1  0  0  0  0
 13 18  1  6  0  0  0
 13 14  1  0  0  0  0
 14 16  1  0  0  0  0
 15 17  2  0  0  0  0
 17  1  1  0  0  0  0
 17 16  1  0  0  0  0
 18 20  1  0  0  0  0
 19 18  2  0  0  0  0
 21 30  1  0  0  0  0
 23 30  2  0  0  0  0
 23 28  1  0  0  0  0
 24 25  1  0  0  0  0
 24 32  1  0  0  0  0
 26 22  1  0  0  0  0
 26 25  2  0  0  0  0
 27 28  2  0  0  0  0
 27 29  1  0  0  0  0
 28 26  1  0  0  0  0
 29 24  2  0  0  0  0
 30 31  1  0  0  0  0
 31 22  2  0  0  0  0
 32 34  1  0  0  0  0
 33 32  2  0  0  0  0
M  END
>  <MODEL>
6

>  <REMARK>
 VINA RESULT:     -11.0      3.396      6.998
  Name = 
  4 active torsions:
  status: ('A' for Active; 'I' for Inactive)
    1  A    between atoms: C_3  and  C_25
    2  A    between atoms: C_7  and  C_11
    3  A    between atoms: C_8  and  C_18
    4  A    between atoms: C_18  and  C_30
                            x       y       z     vdW  Elec       q    Type
                         _______ _______ _______ _____ _____    ______ ____

>  <TORSDO>
F 4

$$$$
=
 OpenBabel10262423103D

 34 39  0  0  1  0  0  0  0  0999 V2000
  186.4420  178.2720  143.3140 C   0  0  0  0  0  0  0  0  0  0  0  0
  189.0180  177.2570  146.0180 C   0  0  0  0  0  2  0  0  0  0  0  0
  186.6490  177.9550  146.1290 C   0  0  0  0  0  3  0  0  0  0  0  0
  184.8670  178.8850  141.5380 C   0  0  0  0  0  0  0  0  0  0  0  0
  186.1720  178.4890  141.9460 C   0  0  0  0  0  3  0  0  0  0  0  0
  184.1480  178.8470  143.8310 C   0  0  0  0  0  0  0  0  0  0  0  0
  183.3970  178.9390  145.0940 C   0  0  0  0  0  3  0  0  0  0  0  0
  183.8350  179.0750  142.4920 C   0  0  0  0  0  3  0  0  0  0  0  0
  185.4560  178.3300  145.5180 C   0  0  0  0  0  0  0  0  0  0  0  0
  185.3940  178.4690  144.1840 C   0  0  0  0  0  0  0  0  0  0  0  0
  184.1830  178.6270  146.0950 N   0  0  0  0  0  0  0  0  0  0  0  0
  190.3000  177.8700  145.4700 C   0  0  0  0  0  2  0  0  0  0  0  0
  190.8580  177.0660  144.2920 C   0  0  2  0  0  3  0  0  0  0  0  0
  189.7870  176.5990  143.3050 C   0  0  0  0  0  2  0  0  0  0  0  0
  187.7850  177.7370  145.3070 C   0  0  0  0  0  0  0  0  0  0  0  0
  188.8630  177.7480  142.9360 C   0  0  0  0  0  2  0  0  0  0  0  0
  187.6860  177.8820  143.8700 C   0  0  0  0  0  0  0  0  0  0  0  0
  191.6800  175.9100  144.7660 C   0  0  0  0  0  0  0  0  0  0  0  0
  192.0550  175.8380  146.1000 O   0  0  0  0  0  1  0  0  0  0  0  0
  192.0270  174.9990  143.9680 O   0  0  0  0  0  0  0  0  0  0  0  0
  184.5930  179.1410  140.0940 C   0  0  0  0  0  2  0  0  0  0  0  0
  182.5610  176.0030  139.4690 C   0  0  0  0  0  3  0  0  0  0  0  0
  184.5690  177.4980  138.2040 C   0  0  0  0  0  3  0  0  0  0  0  0
  183.0920  174.0010  136.3960 C   0  0  0  0  0  0  0  0  0  0  0  0
  182.5810  174.4230  137.6310 C   0  0  0  0  0  3  0  0  0  0  0  0
  183.0690  175.5840  138.2360 C   0  0  0  0  0  0  0  0  0  0  0  0
  184.5900  175.9170  136.3680 C   0  0  0  0  0  3  0  0  0  0  0  0
  184.0810  176.3370  137.5990 C   0  0  0  0  0  0  0  0  0  0  0  0
  184.0970  174.7540  135.7690 C   0  0  0  0  0  3  0  0  0  0  0  0
  184.0530  177.9160  139.4360 C   0  0  0  0  0  0  0  0  0  0  0  0
  183.0540  177.1650  140.0690 C   0  0  0  0  0  3  0  0  0  0  0  0
  182.5740  172.7760  135.7640 C   0  0  0  0  0  0  0  0  0  0  0  0
  183.2790  171.7330  135.7210 O   0  0  0  0  0  1  0  0  0  0  0  0
  181.3000  172.7600  135.2080 O   0  0  0  0  0  0  0  0  0  0  0  0
  1 17  2  0  0  0  0
  1 10  1  0  0  0  0
  4  5  2  0  0  0  0
  4  8  1  0  0  0  0
  5  1  1  0  0  0  0
  6 10  1  0  0  0  0
  6  7  1  0  0  0  0
  7 11  2  0  0  0  0
  8  6  2  0  0  0  0
  9 11  1  0  0  0  0
  9  3  1  0  0  0  0
 10  9  2  0  0  0  0
 12  2  1  0  0  0  0
 13 18  1  1  0  0  0
 13 12  1  0  0  0  0
 14 13  1  0  0  0  0
 15  2  1  0  0  0  0
 15  3  2  0  0  0  0
 16 14  1  0  0  0  0
 16 17  1  0  0  0  0
 17 15  1  0  0  0  0
 18 19  1  0  0  0  0
 20 18  2  0  0  0  0
 21  4  1  0  0  0  0
 22 31  1  0  0  0  0
 23 30  1  0  0  0  0
 24 25  2  0  0  0  0
 25 26  1  0  0  0  0
 26 22  2  0  0  0  0
 27 28  1  0  0  0  0
 28 23  2  0  0  0  0
 28 26  1  0  0  0  0
 29 27  2  0  0  0  0
 29 24  1  0  0  0  0
 30 31  2  0  0  0  0
 30 21  1  0  0  0  0
 32 24  1  0  0  0  0
 33 32  1  0  0  0  0
 34 32  2  0  0  0  0
M  END
>  <MODEL>
7

>  <REMARK>
 VINA RESULT:     -10.9      3.322      5.210
  Name = 
  4 active torsions:
  status: ('A' for Active; 'I' for Inactive)
    1  A    between atoms: C_3  and  C_25
    2  A    between atoms: C_7  and  C_11
    3  A    between atoms: C_8  and  C_18
    4  A    between atoms: C_18  and  C_30
                            x       y       z     vdW  Elec       q    Type
                         _______ _______ _______ _____ _____    ______ ____

>  <TORSDO>
F 4

$$$$
=
 OpenBabel10262423103D

 34 39  0  0  1  0  0  0  0  0999 V2000
  183.2070  178.4820  141.4480 C   0  0  0  0  0  0  0  0  0  0  0  0
  183.7150  177.9180  137.6520 C   0  0  0  0  0  2  0  0  0  0  0  0
  181.6990  178.1600  139.0630 C   0  0  0  0  0  3  0  0  0  0  0  0
  182.9730  178.8570  143.8600 C   0  0  0  0  0  0  0  0  0  0  0  0
  183.7980  178.6450  142.7190 C   0  0  0  0  0  3  0  0  0  0  0  0
  181.0220  178.7300  142.4610 C   0  0  0  0  0  0  0  0  0  0  0  0
  179.6550  178.6930  141.9180 C   0  0  0  0  0  3  0  0  0  0  0  0
  181.5610  178.8950  143.7370 C   0  0  0  0  0  3  0  0  0  0  0  0
  181.0880  178.3860  140.2930 C   0  0  0  0  0  0  0  0  0  0  0  0
  181.8330  178.5360  141.4010 C   0  0  0  0  0  0  0  0  0  0  0  0
  179.7020  178.4890  140.6240 N   0  0  0  0  0  0  0  0  0  0  0  0
  184.9150  176.9810  137.6380 C   0  0  0  0  0  2  0  0  0  0  0  0
  186.2200  177.7210  137.9470 C   0  0  2  0  0  3  0  0  0  0  0  0
  186.0950  178.7350  139.0850 C   0  0  0  0  0  2  0  0  0  0  0  0
  183.1150  178.0830  139.0200 C   0  0  0  0  0  0  0  0  0  0  0  0
  185.3940  178.1130  140.2810 C   0  0  0  0  0  2  0  0  0  0  0  0
  183.8930  178.2600  140.2280 C   0  0  0  0  0  0  0  0  0  0  0  0
  186.7810  178.3680  136.7210 C   0  0  0  0  0  0  0  0  0  0  0  0
  187.5070  179.5450  136.8390 O   0  0  0  0  0  1  0  0  0  0  0  0
  186.6070  177.8510  135.5850 O   0  0  0  0  0  0  0  0  0  0  0  0
  183.6000  179.0010  145.2050 C   0  0  0  0  0  2  0  0  0  0  0  0
  186.9360  177.7360  143.9250 C   0  0  0  0  0  3  0  0  0  0  0  0
  185.7660  178.4960  146.3580 C   0  0  0  0  0  3  0  0  0  0  0  0
  189.7560  177.1750  146.2620 C   0  0  0  0  0  0  0  0  0  0  0  0
  189.0080  177.2380  145.0780 C   0  0  0  0  0  3  0  0  0  0  0  0
  187.6820  177.6760  145.1050 C   0  0  0  0  0  0  0  0  0  0  0  0
  187.8370  177.9950  147.5100 C   0  0  0  0  0  3  0  0  0  0  0  0
  187.0920  178.0580  146.3310 C   0  0  0  0  0  0  0  0  0  0  0  0
  189.1640  177.5560  147.4750 C   0  0  0  0  0  3  0  0  0  0  0  0
  185.0250  178.5600  145.1720 C   0  0  0  0  0  0  0  0  0  0  0  0
  185.6090  178.1750  143.9580 C   0  0  0  0  0  3  0  0  0  0  0  0
  191.1540  176.7120  146.2270 C   0  0  0  0  0  0  0  0  0  0  0  0
  191.6450  176.2460  145.1640 O   0  0  0  0  0  0  0  0  0  0  0  0
  191.9450  176.7850  147.3670 O   0  0  0  0  0  1  0  0  0  0  0  0
  1  5  1  0  0  0  0
  2 15  1  0  0  0  0
  3  9  1  0  0  0  0
  4 21  1  0  0  0  0
  5  4  2  0  0  0  0
  6  8  2  0  0  0  0
  7  6  1  0  0  0  0
  8  4  1  0  0  0  0
  9 11  1  0  0  0  0
  9 10  2  0  0  0  0
 10  1  1  0  0  0  0
 10  6  1  0  0  0  0
 11  7  2  0  0  0  0
 12  2  1  0  0  0  0
 12 13  1  0  0  0  0
 13 18  1  6  0  0  0
 13 14  1  0  0  0  0
 14 16  1  0  0  0  0
 15  3  2  0  0  0  0
 15 17  1  0  0  0  0
 17 16  1  0  0  0  0
 17  1  2  0  0  0  0
 18 19  1  0  0  0  0
 20 18  2  0  0  0  0
 22 31  2  0  0  0  0
 22 26  1  0  0  0  0
 24 29  1  0  0  0  0
 25 26  1  0  0  0  0
 25 24  2  0  0  0  0
 26 28  2  0  0  0  0
 28 23  1  0  0  0  0
 28 27  1  0  0  0  0
 29 27  2  0  0  0  0
 30 21  1  0  0  0  0
 30 23  2  0  0  0  0
 31 30  1  0  0  0  0
 32 24  1  0  0  0  0
 32 34  1  0  0  0  0
 33 32  2  0  0  0  0
M  END
>  <MODEL>
8

>  <REMARK>
 VINA RESULT:     -10.8      3.429      7.767
  Name = 
  4 active torsions:
  status: ('A' for Active; 'I' for Inactive)
    1  A    between atoms: C_3  and  C_25
    2  A    between atoms: C_7  and  C_11
    3  A    between atoms: C_8  and  C_18
    4  A    between atoms: C_18  and  C_30
                            x       y       z     vdW  Elec       q    Type
                         _______ _______ _______ _____ _____    ______ ____

>  <TORSDO>
F 4

$$$$
=
 OpenBabel10262423103D

 34 39  0  0  1  0  0  0  0  0999 V2000
  188.3810  177.8860  142.6790 C   0  0  0  0  0  0  0  0  0  0  0  0
  189.1040  176.9760  146.3710 C   0  0  0  0  0  2  0  0  0  0  0  0
  187.0310  177.5620  145.1570 C   0  0  0  0  0  3  0  0  0  0  0  0
  188.0060  178.4360  140.3190 C   0  0  0  0  0  0  0  0  0  0  0  0
  188.8910  178.0990  141.3810 C   0  0  0  0  0  3  0  0  0  0  0  0
  186.1540  178.3500  141.8500 C   0  0  0  0  0  0  0  0  0  0  0  0
  184.8330  178.3980  142.4960 C   0  0  0  0  0  3  0  0  0  0  0  0
  186.6130  178.5710  140.5520 C   0  0  0  0  0  3  0  0  0  0  0  0
  186.3510  177.8850  143.9870 C   0  0  0  0  0  0  0  0  0  0  0  0
  187.0200  178.0280  142.8320 C   0  0  0  0  0  0  0  0  0  0  0  0
  184.9570  178.1180  143.7710 N   0  0  0  0  0  0  0  0  0  0  0  0
  190.4500  177.6520  146.5980 C   0  0  0  0  0  2  0  0  0  0  0  0
  191.5940  176.8820  145.9320 C   0  0  2  0  0  3  0  0  0  0  0  0
  191.2560  176.3720  144.5300 C   0  0  0  0  0  2  0  0  0  0  0  0
  188.4400  177.4030  145.0920 C   0  0  0  0  0  0  0  0  0  0  0  0
  190.6360  177.4790  143.6930 C   0  0  0  0  0  2  0  0  0  0  0  0
  189.1350  177.5510  143.8310 C   0  0  0  0  0  0  0  0  0  0  0  0
  192.0730  175.7640  146.8010 C   0  0  0  0  0  0  0  0  0  0  0  0
  192.4320  174.5530  146.2240 O   0  0  0  0  0  0  0  0  0  0  0  0
  192.1620  175.9130  148.0490 O   0  0  0  0  0  1  0  0  0  0  0  0
  188.5530  178.6870  138.9550 C   0  0  0  0  0  2  0  0  0  0  0  0
  189.3460  175.2550  137.5550 C   0  0  0  0  0  3  0  0  0  0  0  0
  190.7170  177.5020  138.5240 C   0  0  0  0  0  3  0  0  0  0  0  0
  192.8600  174.1270  137.2210 C   0  0  0  0  0  0  0  0  0  0  0  0
  191.4590  174.1330  137.1710 C   0  0  0  0  0  3  0  0  0  0  0  0
  190.7420  175.2520  137.6020 C   0  0  0  0  0  0  0  0  0  0  0  0
  192.8290  176.3780  138.1410 C   0  0  0  0  0  3  0  0  0  0  0  0
  191.4330  176.3840  138.0910 C   0  0  0  0  0  0  0  0  0  0  0  0
  193.5380  175.2550  137.7070 C   0  0  0  0  0  3  0  0  0  0  0  0
  189.3180  177.5030  138.4680 C   0  0  0  0  0  0  0  0  0  0  0  0
  188.6350  176.3780  137.9890 C   0  0  0  0  0  3  0  0  0  0  0  0
  193.6080  172.9450  136.7650 C   0  0  0  0  0  0  0  0  0  0  0  0
  194.6910  172.6200  137.3220 O   0  0  0  0  0  1  0  0  0  0  0  0
  193.1270  172.1740  135.7130 O   0  0  0  0  0  0  0  0  0  0  0  0
  1 10  1  0  0  0  0
  1 17  1  0  0  0  0
  2 12  1  0  0  0  0
  4  8  2  0  0  0  0
  4  5  1  0  0  0  0
  5  1  2  0  0  0  0
  6  7  1  0  0  0  0
  6 10  2  0  0  0  0
  7 11  2  0  0  0  0
  8  6  1  0  0  0  0
  9  3  2  0  0  0  0
 10  9  1  0  0  0  0
 11  9  1  0  0  0  0
 13 12  1  0  0  0  0
 13 18  1  1  0  0  0
 14 13  1  0  0  0  0
 15  3  1  0  0  0  0
 15  2  1  0  0  0  0
 16 17  1  0  0  0  0
 16 14  1  0  0  0  0
 17 15  2  0  0  0  0
 18 20  1  0  0  0  0
 19 18  2  0  0  0  0
 21  4  1  0  0  0  0
 22 26  2  0  0  0  0
 22 31  1  0  0  0  0
 24 29  1  0  0  0  0
 25 24  2  0  0  0  0
 25 26  1  0  0  0  0
 26 28  1  0  0  0  0
 28 27  1  0  0  0  0
 28 23  2  0  0  0  0
 29 27  2  0  0  0  0
 30 23  1  0  0  0  0
 30 21  1  0  0  0  0
 31 30  2  0  0  0  0
 32 24  1  0  0  0  0
 32 33  1  0  0  0  0
 34 32  2  0  0  0  0
M  END
>  <MODEL>
9

>  <REMARK>
 VINA RESULT:     -10.7      3.890      7.634
  Name = 
  4 active torsions:
  status: ('A' for Active; 'I' for Inactive)
    1  A    between atoms: C_3  and  C_25
    2  A    between atoms: C_7  and  C_11
    3  A    between atoms: C_8  and  C_18
    4  A    between atoms: C_18  and  C_30
                            x       y       z     vdW  Elec       q    Type
                         _______ _______ _______ _____ _____    ______ ____

>  <TORSDO>
F 4

$$$$
