=
 OpenBabel10262423123D

 34 40  0  0  0  0  0  0  0  0999 V2000
  186.6800  178.2120  143.8700 C   0  0  0  0  0  0  0  0  0  0  0  0
  188.2630  177.5130  147.2330 C   0  0  0  0  0  3  0  0  0  0  0  0
  186.0770  178.1410  146.6350 C   0  0  0  0  0  3  0  0  0  0  0  0
  185.5750  178.7120  141.5910 C   0  0  0  0  0  0  0  0  0  0  0  0
  186.8400  178.2910  142.3570 C   0  0  0  0  0  2  0  0  0  0  0  0
  184.3500  178.8440  143.6840 C   0  0  0  0  0  0  0  0  0  0  0  0
  183.3340  179.0350  144.6130 C   0  0  0  0  0  3  0  0  0  0  0  0
  184.4030  178.9590  142.2270 C   0  0  0  0  0  3  0  0  0  0  0  0
  185.1200  178.4720  145.6860 C   0  0  0  0  0  0  0  0  0  0  0  0
  185.4390  178.4960  144.3830 C   0  0  0  0  0  0  0  0  0  0  0  0
  183.8230  178.8000  145.8670 N   0  0  0  0  0  0  0  0  0  0  0  0
  189.6060  177.1710  147.2210 C   0  0  0  0  0  3  0  0  0  0  0  0
  190.4880  177.0550  146.1560 C   0  0  0  0  0  0  0  0  0  0  0  0
  190.1590  177.2190  144.8160 C   0  0  0  0  0  3  0  0  0  0  0  0
  187.3910  177.8330  146.1980 C   0  0  0  0  0  0  0  0  0  0  0  0
  188.9520  177.5750  144.2330 C   0  0  0  0  0  3  0  0  0  0  0  0
  187.7070  177.8650  144.7910 C   0  0  0  0  0  0  0  0  0  0  0  0
  191.8910  176.6160  146.4690 C   0  0  0  0  0  3  0  0  0  0  0  0
  192.0590  175.1250  146.2160 C   0  0  0  0  0  2  0  0  0  0  0  0
  191.9040  175.6330  147.6300 C   0  0  0  0  0  2  0  0  0  0  0  0
  185.6850  178.7940  140.1920 O   0  0  0  0  0  0  0  0  0  0  0  0
  187.4960  177.5460  137.2180 C   0  0  0  0  0  3  0  0  0  0  0  0
  188.0530  178.1780  139.8850 C   0  0  0  0  0  3  0  0  0  0  0  0
  190.8370  176.0630  137.5810 N   0  0  0  0  0  0  0  0  0  0  0  0
  191.5470  175.0200  136.8930 C   0  0  0  0  0  0  0  0  0  0  0  0
  189.8950  176.9090  136.8340 C   0  0  0  0  0  2  0  0  0  0  0  0
  192.4000  174.3220  137.5050 O   0  0  0  0  0  0  0  0  0  0  0  0
  188.7880  177.3830  137.7190 C   0  0  0  0  0  0  0  0  0  0  0  0
  191.2980  174.7410  135.4490 C   0  0  0  0  0  1  0  0  0  0  0  0
  190.4670  177.5640  139.5570 C   0  0  0  0  0  2  0  0  0  0  0  0
  189.0680  177.6990  139.0530 C   0  0  0  0  0  0  0  0  0  0  0  0
  191.1190  176.2890  139.0090 C   0  0  0  0  0  2  0  0  0  0  0  0
  186.7470  178.3420  139.3910 C   0  0  0  0  0  0  0  0  0  0  0  0
  186.4790  178.0190  138.0550 C   0  0  0  0  0  3  0  0  0  0  0  0
  1 10  1  0  0  0  0
  1 17  2  0  0  0  0
  4  8  2  0  0  0  0
  4  5  1  0  0  0  0
  5  1  1  0  0  0  0
  6 10  2  0  0  0  0
  6  7  1  0  0  0  0
  7 11  2  0  0  0  0
  8  6  1  0  0  0  0
  9 11  1  0  0  0  0
  9  3  2  0  0  0  0
 10  9  1  0  0  0  0
 12  2  1  0  0  0  0
 13 18  1  0  0  0  0
 13 12  2  0  0  0  0
 14 13  1  0  0  0  0
 15  3  1  0  0  0  0
 15  2  2  0  0  0  0
 16 17  1  0  0  0  0
 16 14  2  0  0  0  0
 17 15  1  0  0  0  0
 18 20  1  0  0  0  0
 19 18  1  0  0  0  0
 19 20  1  0  0  0  0
 21  4  1  0  0  0  0
 22 28  2  0  0  0  0
 22 34  1  0  0  0  0
 24 32  1  0  0  0  0
 25 27  2  0  0  0  0
 25 24  1  0  0  0  0
 26 24  1  0  0  0  0
 26 28  1  0  0  0  0
 28 31  1  0  0  0  0
 29 25  1  0  0  0  0
 31 30  1  0  0  0  0
 31 23  2  0  0  0  0
 32 30  1  0  0  0  0
 33 23  1  0  0  0  0
 33 21  1  0  0  0  0
 34 33  2  0  0  0  0
M  END
>  <MODEL>
1

>  <REMARK>
 VINA RESULT:     -12.4      0.000      0.000
  Name = 
  3 active torsions:
  status: ('A' for Active; 'I' for Inactive)
    1  A    between atoms: C_3  and  C_25
    2  A    between atoms: C_8  and  O_18
    3  A    between atoms: O_18  and  C_30
                            x       y       z     vdW  Elec       q    Type
                         _______ _______ _______ _____ _____    ______ ____

>  <TORSDO>
F 3

$$$$
=
 OpenBabel10262423123D

 34 40  0  0  0  0  0  0  0  0999 V2000
  187.4630  177.8090  145.0550 C   0  0  0  0  0  0  0  0  0  0  0  0
  190.8850  176.6770  143.9110 C   0  0  0  0  0  3  0  0  0  0  0  0
  190.0230  177.1260  146.0510 C   0  0  0  0  0  3  0  0  0  0  0  0
  185.1420  178.5970  145.8660 C   0  0  0  0  0  0  0  0  0  0  0  0
  186.0380  178.1990  144.6820 C   0  0  0  0  0  3  0  0  0  0  0  0
  186.9740  178.1640  147.4000 C   0  0  0  0  0  0  0  0  0  0  0  0
  187.7260  178.0400  148.5630 C   0  0  0  0  0  2  0  0  0  0  0  0
  185.5910  178.5650  147.1450 C   0  0  0  0  0  3  0  0  0  0  0  0
  188.9890  177.5110  146.8940 C   0  0  0  0  0  0  0  0  0  0  0  0
  187.7870  177.8270  146.3880 C   0  0  0  0  0  0  0  0  0  0  0  0
  188.9890  177.6300  148.2380 N   0  0  0  0  0  0  0  0  0  0  0  0
  191.0550  176.5170  142.5440 C   0  0  0  0  0  3  0  0  0  0  0  0
  190.1600  176.7230  141.5030 C   0  0  0  0  0  0  0  0  0  0  0  0
  188.8310  177.1010  141.6480 C   0  0  0  0  0  3  0  0  0  0  0  0
  189.7810  177.0780  144.6550 C   0  0  0  0  0  0  0  0  0  0  0  0
  188.1110  177.4070  142.7920 C   0  0  0  0  0  3  0  0  0  0  0  0
  188.4790  177.4230  144.1380 C   0  0  0  0  0  0  0  0  0  0  0  0
  190.6380  176.4130  140.1130 C   0  0  0  0  0  3  0  0  0  0  0  0
  191.6170  177.4740  139.6300 C   0  0  0  0  0  2  0  0  0  0  0  0
  190.1900  177.4890  139.1340 C   0  0  0  0  0  2  0  0  0  0  0  0
  183.8200  178.9620  145.5600 O   0  0  0  0  0  0  0  0  0  0  0  0
  181.0900  178.8450  143.0670 C   0  0  0  0  0  3  0  0  0  0  0  0
  183.8840  178.7180  143.1060 C   0  0  0  0  0  3  0  0  0  0  0  0
  181.7640  177.6820  139.6470 N   0  0  0  0  0  0  0  0  0  0  0  0
  180.9950  176.9690  138.6660 C   0  0  0  0  0  0  0  0  0  0  0  0
  181.0830  178.6060  140.5660 C   0  0  0  0  0  2  0  0  0  0  0  0
  181.5690  176.2160  137.8330 O   0  0  0  0  0  0  0  0  0  0  0  0
  181.7990  178.6780  141.8760 C   0  0  0  0  0  0  0  0  0  0  0  0
  179.5100  177.1030  138.6030 C   0  0  0  0  0  1  0  0  0  0  0  0
  183.9380  178.4860  140.6050 C   0  0  0  0  0  2  0  0  0  0  0  0
  183.1960  178.6150  141.8950 C   0  0  0  0  0  0  0  0  0  0  0  0
  183.2260  177.5060  139.6660 C   0  0  0  0  0  2  0  0  0  0  0  0
  183.1790  178.8810  144.3120 C   0  0  0  0  0  0  0  0  0  0  0  0
  181.7800  178.9400  144.2800 C   0  0  0  0  0  3  0  0  0  0  0  0
  1 10  1  0  0  0  0
  2 15  1  0  0  0  0
  3  9  1  0  0  0  0
  4  8  2  0  0  0  0
  5  1  2  0  0  0  0
  5  4  1  0  0  0  0
  6  7  1  0  0  0  0
  8  6  1  0  0  0  0
  9 11  2  0  0  0  0
 10  9  1  0  0  0  0
 10  6  2  0  0  0  0
 11  7  1  0  0  0  0
 12  2  2  0  0  0  0
 13 14  2  0  0  0  0
 13 12  1  0  0  0  0
 14 16  1  0  0  0  0
 15  3  2  0  0  0  0
 16 17  2  0  0  0  0
 17 15  1  0  0  0  0
 17  1  1  0  0  0  0
 18 13  1  0  0  0  0
 19 18  1  0  0  0  0
 20 19  1  0  0  0  0
 20 18  1  0  0  0  0
 21  4  1  0  0  0  0
 22 34  1  0  0  0  0
 23 33  1  0  0  0  0
 24 32  1  0  0  0  0
 24 26  1  0  0  0  0
 25 24  1  0  0  0  0
 26 28  1  0  0  0  0
 27 25  2  0  0  0  0
 28 31  1  0  0  0  0
 28 22  2  0  0  0  0
 29 25  1  0  0  0  0
 30 31  1  0  0  0  0
 31 23  2  0  0  0  0
 32 30  1  0  0  0  0
 33 21  1  0  0  0  0
 34 33  2  0  0  0  0
M  END
>  <MODEL>
2

>  <REMARK>
 VINA RESULT:     -12.0      3.398      6.598
  Name = 
  3 active torsions:
  status: ('A' for Active; 'I' for Inactive)
    1  A    between atoms: C_3  and  C_25
    2  A    between atoms: C_8  and  O_18
    3  A    between atoms: O_18  and  C_30
                            x       y       z     vdW  Elec       q    Type
                         _______ _______ _______ _____ _____    ______ ____

>  <TORSDO>
F 3

$$$$
=
 OpenBabel10262423123D

 34 40  0  0  0  0  0  0  0  0999 V2000
  187.5990  177.8020  145.1920 C   0  0  0  0  0  0  0  0  0  0  0  0
  191.0410  176.7430  144.0380 C   0  0  0  0  0  3  0  0  0  0  0  0
  190.1880  177.2170  146.1760 C   0  0  0  0  0  3  0  0  0  0  0  0
  185.2650  178.5430  146.0080 C   0  0  0  0  0  0  0  0  0  0  0  0
  186.1600  178.1430  144.8250 C   0  0  0  0  0  3  0  0  0  0  0  0
  187.1240  178.1970  147.5330 C   0  0  0  0  0  0  0  0  0  0  0  0
  187.8910  178.1220  148.6900 C   0  0  0  0  0  2  0  0  0  0  0  0
  185.7280  178.5530  147.2840 C   0  0  0  0  0  3  0  0  0  0  0  0
  189.1520  177.5910  147.0210 C   0  0  0  0  0  0  0  0  0  0  0  0
  187.9360  177.8610  146.5210 C   0  0  0  0  0  0  0  0  0  0  0  0
  189.1620  177.7410  148.3620 N   0  0  0  0  0  0  0  0  0  0  0  0
  191.2030  176.5560  142.6740 C   0  0  0  0  0  3  0  0  0  0  0  0
  190.2920  176.7120  141.6380 C   0  0  0  0  0  0  0  0  0  0  0  0
  188.9540  177.0550  141.7870 C   0  0  0  0  0  3  0  0  0  0  0  0
  189.9340  177.1290  144.7840 C   0  0  0  0  0  0  0  0  0  0  0  0
  188.2360  177.3670  142.9320 C   0  0  0  0  0  3  0  0  0  0  0  0
  188.6170  177.4250  144.2730 C   0  0  0  0  0  0  0  0  0  0  0  0
  190.7660  176.3840  140.2500 C   0  0  0  0  0  3  0  0  0  0  0  0
  191.7170  177.4560  139.7370 C   0  0  0  0  0  2  0  0  0  0  0  0
  190.2860  177.4290  139.2530 C   0  0  0  0  0  2  0  0  0  0  0  0
  183.9300  178.8620  145.7080 O   0  0  0  0  0  0  0  0  0  0  0  0
  183.5430  178.6490  142.0360 C   0  0  0  0  0  3  0  0  0  0  0  0
  181.9140  178.9480  144.2890 C   0  0  0  0  0  3  0  0  0  0  0  0
  180.3730  179.6230  140.4550 N   0  0  0  0  0  0  0  0  0  0  0  0
  180.0280  180.2210  139.1960 C   0  0  0  0  0  0  0  0  0  0  0  0
  181.5310  178.7210  140.5320 C   0  0  0  0  0  2  0  0  0  0  0  0
  179.0040  180.9510  139.0990 O   0  0  0  0  0  0  0  0  0  0  0  0
  182.1610  178.7790  141.8870 C   0  0  0  0  0  0  0  0  0  0  0  0
  180.8610  179.9930  137.9790 C   0  0  0  0  0  1  0  0  0  0  0  0
  179.8660  179.0170  142.8360 C   0  0  0  0  0  2  0  0  0  0  0  0
  181.3460  178.9290  143.0130 C   0  0  0  0  0  0  0  0  0  0  0  0
  179.5160  179.8880  141.6240 C   0  0  0  0  0  2  0  0  0  0  0  0
  183.3050  178.8220  144.4500 C   0  0  0  0  0  0  0  0  0  0  0  0
  184.1110  178.6760  143.3140 C   0  0  0  0  0  3  0  0  0  0  0  0
  1 10  1  0  0  0  0
  2 15  1  0  0  0  0
  3  9  1  0  0  0  0
  4  8  2  0  0  0  0
  5  1  2  0  0  0  0
  5  4  1  0  0  0  0
  6  7  1  0  0  0  0
  8  6  1  0  0  0  0
  9 11  2  0  0  0  0
 10  9  1  0  0  0  0
 10  6  2  0  0  0  0
 11  7  1  0  0  0  0
 12  2  2  0  0  0  0
 13 14  2  0  0  0  0
 13 12  1  0  0  0  0
 14 16  1  0  0  0  0
 15  3  2  0  0  0  0
 16 17  2  0  0  0  0
 17 15  1  0  0  0  0
 17  1  1  0  0  0  0
 18 13  1  0  0  0  0
 19 18  1  0  0  0  0
 20 19  1  0  0  0  0
 20 18  1  0  0  0  0
 21  4  1  0  0  0  0
 22 34  1  0  0  0  0
 23 33  1  0  0  0  0
 24 26  1  0  0  0  0
 24 32  1  0  0  0  0
 25 24  1  0  0  0  0
 26 28  1  0  0  0  0
 27 25  2  0  0  0  0
 28 22  2  0  0  0  0
 28 31  1  0  0  0  0
 29 25  1  0  0  0  0
 30 31  1  0  0  0  0
 31 23  2  0  0  0  0
 32 30  1  0  0  0  0
 33 21  1  0  0  0  0
 34 33  2  0  0  0  0
M  END
>  <MODEL>
3

>  <REMARK>
 VINA RESULT:     -11.9      3.755      7.325
  Name = 
  3 active torsions:
  status: ('A' for Active; 'I' for Inactive)
    1  A    between atoms: C_3  and  C_25
    2  A    between atoms: C_8  and  O_18
    3  A    between atoms: O_18  and  C_30
                            x       y       z     vdW  Elec       q    Type
                         _______ _______ _______ _____ _____    ______ ____

>  <TORSDO>
F 3

$$$$
=
 OpenBabel10262423123D

 34 40  0  0  0  0  0  0  0  0999 V2000
  188.6220  177.5440  144.2300 C   0  0  0  0  0  0  0  0  0  0  0  0
  185.7440  178.2440  146.5810 C   0  0  0  0  0  3  0  0  0  0  0  0
  187.9400  177.5030  146.9770 C   0  0  0  0  0  3  0  0  0  0  0  0
  190.6000  177.0410  142.6480 C   0  0  0  0  0  0  0  0  0  0  0  0
  189.1460  177.5160  142.7990 C   0  0  0  0  0  3  0  0  0  0  0  0
  190.7650  176.7780  145.0580 C   0  0  0  0  0  0  0  0  0  0  0  0
  191.2560  176.5010  146.3280 C   0  0  0  0  0  2  0  0  0  0  0  0
  191.3580  176.7070  143.7230 C   0  0  0  0  0  3  0  0  0  0  0  0
  189.2040  177.1410  146.5310 C   0  0  0  0  0  0  0  0  0  0  0  0
  189.4940  177.1720  145.2220 C   0  0  0  0  0  0  0  0  0  0  0  0
  190.2710  176.7310  147.2490 N   0  0  0  0  0  0  0  0  0  0  0  0
  184.5600  178.6660  145.9960 C   0  0  0  0  0  3  0  0  0  0  0  0
  184.2470  178.8650  144.6580 C   0  0  0  0  0  0  0  0  0  0  0  0
  185.1290  178.7180  143.5950 C   0  0  0  0  0  3  0  0  0  0  0  0
  186.9700  177.9010  146.0220 C   0  0  0  0  0  0  0  0  0  0  0  0
  186.4530  178.3070  143.5860 C   0  0  0  0  0  3  0  0  0  0  0  0
  187.3080  177.9270  144.6200 C   0  0  0  0  0  0  0  0  0  0  0  0
  182.8710  179.3790  144.3440 C   0  0  0  0  0  3  0  0  0  0  0  0
  181.9080  178.2260  144.0970 C   0  0  0  0  0  2  0  0  0  0  0  0
  182.4640  179.0030  142.9260 C   0  0  0  0  0  2  0  0  0  0  0  0
  191.1180  177.0040  141.3430 O   0  0  0  0  0  0  0  0  0  0  0  0
  188.7230  178.2570  138.8180 C   0  0  0  0  0  3  0  0  0  0  0  0
  190.5550  176.1630  139.0940 C   0  0  0  0  0  3  0  0  0  0  0  0
  187.7600  176.1360  135.9770 N   0  0  0  0  0  0  0  0  0  0  0  0
  186.5560  175.9830  135.2080 C   0  0  0  0  0  0  0  0  0  0  0  0
  188.1080  177.4590  136.5160 C   0  0  0  0  0  2  0  0  0  0  0  0
  186.2710  174.8700  134.6900 O   0  0  0  0  0  0  0  0  0  0  0  0
  188.8810  177.3270  137.7890 C   0  0  0  0  0  0  0  0  0  0  0  0
  185.6210  177.1280  135.0020 C   0  0  0  0  0  1  0  0  0  0  0  0
  189.9880  175.3240  136.7940 C   0  0  0  0  0  2  0  0  0  0  0  0
  189.7980  176.2800  137.9260 C   0  0  0  0  0  0  0  0  0  0  0  0
  188.6410  174.9690  136.1530 C   0  0  0  0  0  2  0  0  0  0  0  0
  190.4010  177.0910  140.1370 C   0  0  0  0  0  0  0  0  0  0  0  0
  189.4780  178.1340  139.9890 C   0  0  0  0  0  3  0  0  0  0  0  0
  1 17  1  0  0  0  0
  1 10  1  0  0  0  0
  4  5  1  0  0  0  0
  4  8  2  0  0  0  0
  5  1  2  0  0  0  0
  6 10  2  0  0  0  0
  6  7  1  0  0  0  0
  7 11  1  0  0  0  0
  8  6  1  0  0  0  0
  9  3  1  0  0  0  0
  9 11  2  0  0  0  0
 10  9  1  0  0  0  0
 12  2  2  0  0  0  0
 13 12  1  0  0  0  0
 14 13  2  0  0  0  0
 15  2  1  0  0  0  0
 15  3  2  0  0  0  0
 16 14  1  0  0  0  0
 16 17  2  0  0  0  0
 17 15  1  0  0  0  0
 18 13  1  0  0  0  0
 19 18  1  0  0  0  0
 20 19  1  0  0  0  0
 20 18  1  0  0  0  0
 21  4  1  0  0  0  0
 22 34  1  0  0  0  0
 23 33  1  0  0  0  0
 24 32  1  0  0  0  0
 24 26  1  0  0  0  0
 25 24  1  0  0  0  0
 26 28  1  0  0  0  0
 27 25  2  0  0  0  0
 28 31  1  0  0  0  0
 28 22  2  0  0  0  0
 29 25  1  0  0  0  0
 30 31  1  0  0  0  0
 31 23  2  0  0  0  0
 32 30  1  0  0  0  0
 33 21  1  0  0  0  0
 34 33  2  0  0  0  0
M  END
>  <MODEL>
4

>  <REMARK>
 VINA RESULT:     -11.6      2.305      5.408
  Name = 
  3 active torsions:
  status: ('A' for Active; 'I' for Inactive)
    1  A    between atoms: C_3  and  C_25
    2  A    between atoms: C_8  and  O_18
    3  A    between atoms: O_18  and  C_30
                            x       y       z     vdW  Elec       q    Type
                         _______ _______ _______ _____ _____    ______ ____

>  <TORSDO>
F 3

$$$$
=
 OpenBabel10262423123D

 34 40  0  0  0  0  0  0  0  0999 V2000
  187.0320  177.9140  144.4530 C   0  0  0  0  0  0  0  0  0  0  0  0
  183.4810  178.8590  145.3460 C   0  0  0  0  0  3  0  0  0  0  0  0
  185.3740  178.4560  146.6810 C   0  0  0  0  0  3  0  0  0  0  0  0
  189.4600  177.2520  143.8760 C   0  0  0  0  0  0  0  0  0  0  0  0
  188.0530  177.6010  143.3650 C   0  0  0  0  0  3  0  0  0  0  0  0
  188.7150  177.5850  146.1640 C   0  0  0  0  0  0  0  0  0  0  0  0
  188.6960  177.6670  147.5510 C   0  0  0  0  0  2  0  0  0  0  0  0
  189.7640  177.2590  145.1980 C   0  0  0  0  0  3  0  0  0  0  0  0
  186.7140  178.1280  146.8300 C   0  0  0  0  0  0  0  0  0  0  0  0
  187.4720  177.8770  145.7520 C   0  0  0  0  0  0  0  0  0  0  0  0
  187.4380  178.0080  147.9630 N   0  0  0  0  0  0  0  0  0  0  0  0
  182.6000  179.0090  144.2860 C   0  0  0  0  0  3  0  0  0  0  0  0
  182.8080  178.8530  142.9220 C   0  0  0  0  0  0  0  0  0  0  0  0
  184.0240  178.5480  142.3240 C   0  0  0  0  0  3  0  0  0  0  0  0
  184.8290  178.5180  145.3740 C   0  0  0  0  0  0  0  0  0  0  0  0
  185.2580  178.2810  142.8980 C   0  0  0  0  0  3  0  0  0  0  0  0
  185.6670  178.2440  144.2310 C   0  0  0  0  0  0  0  0  0  0  0  0
  181.6470  179.1360  142.0120 C   0  0  0  0  0  3  0  0  0  0  0  0
  180.8250  177.8770  141.7770 C   0  0  0  0  0  2  0  0  0  0  0  0
  181.7780  178.3610  140.7100 C   0  0  0  0  0  2  0  0  0  0  0  0
  190.4290  176.9590  142.9010 O   0  0  0  0  0  0  0  0  0  0  0  0
  188.9070  177.7010  139.6120 C   0  0  0  0  0  3  0  0  0  0  0  0
  191.3390  176.7530  140.6180 C   0  0  0  0  0  3  0  0  0  0  0  0
  190.4740  176.4560  136.5310 N   0  0  0  0  0  0  0  0  0  0  0  0
  189.9680  176.0220  135.2590 C   0  0  0  0  0  0  0  0  0  0  0  0
  189.7730  177.5230  137.2610 C   0  0  0  0  0  2  0  0  0  0  0  0
  190.5880  175.1480  134.5940 O   0  0  0  0  0  0  0  0  0  0  0  0
  189.9380  177.3550  138.7370 C   0  0  0  0  0  0  0  0  0  0  0  0
  188.7090  176.5900  134.6950 C   0  0  0  0  0  1  0  0  0  0  0  0
  192.2610  176.5630  138.2890 C   0  0  0  0  0  2  0  0  0  0  0  0
  191.1540  176.8810  139.2390 C   0  0  0  0  0  0  0  0  0  0  0  0
  191.7190  175.8550  137.0420 C   0  0  0  0  0  2  0  0  0  0  0  0
  190.3060  177.0950  141.5080 C   0  0  0  0  0  0  0  0  0  0  0  0
  189.0910  177.5650  140.9930 C   0  0  0  0  0  3  0  0  0  0  0  0
  1 10  1  0  0  0  0
  2 15  1  0  0  0  0
  3  9  1  0  0  0  0
  4  8  2  0  0  0  0
  5  4  1  0  0  0  0
  5  1  2  0  0  0  0
  6  7  1  0  0  0  0
  7 11  1  0  0  0  0
  8  6  1  0  0  0  0
  9 11  2  0  0  0  0
 10  6  2  0  0  0  0
 10  9  1  0  0  0  0
 12  2  2  0  0  0  0
 13 12  1  0  0  0  0
 14 16  1  0  0  0  0
 14 13  2  0  0  0  0
 15  3  2  0  0  0  0
 16 17  2  0  0  0  0
 17  1  1  0  0  0  0
 17 15  1  0  0  0  0
 18 13  1  0  0  0  0
 19 18  1  0  0  0  0
 20 19  1  0  0  0  0
 20 18  1  0  0  0  0
 21  4  1  0  0  0  0
 22 34  1  0  0  0  0
 23 33  1  0  0  0  0
 24 32  1  0  0  0  0
 24 26  1  0  0  0  0
 25 24  1  0  0  0  0
 26 28  1  0  0  0  0
 27 25  2  0  0  0  0
 28 31  1  0  0  0  0
 28 22  2  0  0  0  0
 29 25  1  0  0  0  0
 30 31  1  0  0  0  0
 31 23  2  0  0  0  0
 32 30  1  0  0  0  0
 33 21  1  0  0  0  0
 34 33  2  0  0  0  0
M  END
>  <MODEL>
5

>  <REMARK>
 VINA RESULT:     -11.6      2.004      5.362
  Name = 
  3 active torsions:
  status: ('A' for Active; 'I' for Inactive)
    1  A    between atoms: C_3  and  C_25
    2  A    between atoms: C_8  and  O_18
    3  A    between atoms: O_18  and  C_30
                            x       y       z     vdW  Elec       q    Type
                         _______ _______ _______ _____ _____    ______ ____

>  <TORSDO>
F 3

$$$$
=
 OpenBabel10262423123D

 34 40  0  0  0  0  0  0  0  0999 V2000
  186.6570  178.3080  143.7980 C   0  0  0  0  0  0  0  0  0  0  0  0
  188.2740  177.4150  147.0970 C   0  0  0  0  0  3  0  0  0  0  0  0
  186.0720  178.0320  146.5530 C   0  0  0  0  0  3  0  0  0  0  0  0
  185.5290  178.9400  141.5630 C   0  0  0  0  0  0  0  0  0  0  0  0
  186.8070  178.4950  142.2930 C   0  0  0  0  0  2  0  0  0  0  0  0
  184.3120  178.8980  143.6650 C   0  0  0  0  0  0  0  0  0  0  0  0
  183.2970  179.0000  144.6090 C   0  0  0  0  0  3  0  0  0  0  0  0
  184.3540  179.1150  142.2190 C   0  0  0  0  0  3  0  0  0  0  0  0
  185.1020  178.4060  145.6340 C   0  0  0  0  0  0  0  0  0  0  0  0
  185.4130  178.5270  144.3340 C   0  0  0  0  0  0  0  0  0  0  0  0
  183.7990  178.6900  145.8430 N   0  0  0  0  0  0  0  0  0  0  0  0
  189.6250  177.1060  147.0560 C   0  0  0  0  0  3  0  0  0  0  0  0
  190.5040  177.0840  145.9820 C   0  0  0  0  0  0  0  0  0  0  0  0
  190.1630  177.3330  144.6580 C   0  0  0  0  0  3  0  0  0  0  0  0
  187.3900  177.7850  146.0910 C   0  0  0  0  0  0  0  0  0  0  0  0
  188.9450  177.7000  144.1060 C   0  0  0  0  0  3  0  0  0  0  0  0
  187.6970  177.9220  144.6880 C   0  0  0  0  0  0  0  0  0  0  0  0
  191.9180  176.6570  146.2580 C   0  0  0  0  0  3  0  0  0  0  0  0
  192.0550  175.1450  146.1570 C   0  0  0  0  0  2  0  0  0  0  0  0
  191.9890  175.8020  147.5150 C   0  0  0  0  0  2  0  0  0  0  0  0
  185.6280  179.1210  140.1730 O   0  0  0  0  0  0  0  0  0  0  0  0
  183.2910  176.9340  138.3200 C   0  0  0  0  0  3  0  0  0  0  0  0
  185.9110  177.8770  138.0620 C   0  0  0  0  0  3  0  0  0  0  0  0
  184.5400  174.7410  135.6500 N   0  0  0  0  0  0  0  0  0  0  0  0
  184.1580  173.4460  135.1610 C   0  0  0  0  0  0  0  0  0  0  0  0
  183.5080  175.6490  136.1720 C   0  0  0  0  0  2  0  0  0  0  0  0
  185.0210  172.6770  134.6580 O   0  0  0  0  0  0  0  0  0  0  0  0
  184.0700  176.5410  137.2310 C   0  0  0  0  0  0  0  0  0  0  0  0
  182.7420  172.9810  135.2340 C   0  0  0  0  0  1  0  0  0  0  0  0
  186.1820  176.6210  135.9030 C   0  0  0  0  0  2  0  0  0  0  0  0
  185.3810  177.0130  137.1010 C   0  0  0  0  0  0  0  0  0  0  0  0
  185.9540  175.1450  135.5590 C   0  0  0  0  0  2  0  0  0  0  0  0
  185.1350  178.2750  139.1650 C   0  0  0  0  0  0  0  0  0  0  0  0
  183.8260  177.7940  139.2850 C   0  0  0  0  0  3  0  0  0  0  0  0
  1 10  1  0  0  0  0
  1 17  2  0  0  0  0
  4  8  2  0  0  0  0
  4  5  1  0  0  0  0
  5  1  1  0  0  0  0
  6 10  2  0  0  0  0
  6  7  1  0  0  0  0
  7 11  2  0  0  0  0
  8  6  1  0  0  0  0
  9 11  1  0  0  0  0
  9  3  2  0  0  0  0
 10  9  1  0  0  0  0
 12  2  1  0  0  0  0
 13 18  1  0  0  0  0
 13 12  2  0  0  0  0
 14 13  1  0  0  0  0
 15  3  1  0  0  0  0
 15  2  2  0  0  0  0
 16 14  2  0  0  0  0
 16 17  1  0  0  0  0
 17 15  1  0  0  0  0
 18 20  1  0  0  0  0
 19 18  1  0  0  0  0
 19 20  1  0  0  0  0
 21  4  1  0  0  0  0
 22 34  1  0  0  0  0
 23 33  1  0  0  0  0
 24 26  1  0  0  0  0
 25 29  1  0  0  0  0
 25 24  1  0  0  0  0
 26 28  1  0  0  0  0
 27 25  2  0  0  0  0
 28 22  2  0  0  0  0
 30 31  1  0  0  0  0
 31 28  1  0  0  0  0
 31 23  2  0  0  0  0
 32 24  1  0  0  0  0
 32 30  1  0  0  0  0
 33 34  2  0  0  0  0
 33 21  1  0  0  0  0
M  END
>  <MODEL>
6

>  <REMARK>
 VINA RESULT:     -11.5      2.831      3.607
  Name = 
  3 active torsions:
  status: ('A' for Active; 'I' for Inactive)
    1  A    between atoms: C_3  and  C_25
    2  A    between atoms: C_8  and  O_18
    3  A    between atoms: O_18  and  C_30
                            x       y       z     vdW  Elec       q    Type
                         _______ _______ _______ _____ _____    ______ ____

>  <TORSDO>
F 3

$$$$
=
 OpenBabel10262423123D

 34 40  0  0  0  0  0  0  0  0999 V2000
  188.9330  177.5460  143.7690 C   0  0  0  0  0  0  0  0  0  0  0  0
  191.6570  177.0520  141.1930 C   0  0  0  0  0  3  0  0  0  0  0  0
  191.6940  176.9660  143.5420 C   0  0  0  0  0  3  0  0  0  0  0  0
  187.0990  177.8950  145.5530 C   0  0  0  0  0  0  0  0  0  0  0  0
  187.4670  177.8430  144.0610 C   0  0  0  0  0  3  0  0  0  0  0  0
  189.3970  177.3700  146.1400 C   0  0  0  0  0  0  0  0  0  0  0  0
  190.5480  177.1000  146.8710 C   0  0  0  0  0  2  0  0  0  0  0  0
  188.0160  177.6580  146.5240 C   0  0  0  0  0  3  0  0  0  0  0  0
  191.0660  177.0580  144.7760 C   0  0  0  0  0  0  0  0  0  0  0  0
  189.7550  177.3340  144.8480 C   0  0  0  0  0  0  0  0  0  0  0  0
  191.5920  176.9060  146.0100 N   0  0  0  0  0  0  0  0  0  0  0  0
  191.2800  177.1880  139.8660 C   0  0  0  0  0  3  0  0  0  0  0  0
  190.0430  177.4970  139.3160 C   0  0  0  0  0  0  0  0  0  0  0  0
  188.8690  177.6880  140.0330 C   0  0  0  0  0  3  0  0  0  0  0  0
  190.9250  177.1710  142.3690 C   0  0  0  0  0  0  0  0  0  0  0  0
  188.6490  177.6780  141.4030 C   0  0  0  0  0  3  0  0  0  0  0  0
  189.5160  177.4660  142.4740 C   0  0  0  0  0  0  0  0  0  0  0  0
  189.9440  177.5260  137.8170 C   0  0  0  0  0  3  0  0  0  0  0  0
  189.0890  178.6970  137.3550 C   0  0  0  0  0  2  0  0  0  0  0  0
  188.5090  177.3020  137.3640 C   0  0  0  0  0  2  0  0  0  0  0  0
  185.7550  178.1650  145.8600 O   0  0  0  0  0  0  0  0  0  0  0  0
  182.3670  178.9930  144.6290 C   0  0  0  0  0  3  0  0  0  0  0  0
  184.8770  178.3710  143.5650 C   0  0  0  0  0  3  0  0  0  0  0  0
  181.4810  178.3830  141.1160 N   0  0  0  0  0  0  0  0  0  0  0  0
  180.2680  178.0110  140.4430 C   0  0  0  0  0  0  0  0  0  0  0  0
  181.4090  179.2270  142.3180 C   0  0  0  0  0  2  0  0  0  0  0  0
  180.3130  177.3360  139.3790 O   0  0  0  0  0  0  0  0  0  0  0  0
  182.5430  178.9280  143.2460 C   0  0  0  0  0  0  0  0  0  0  0  0
  178.9340  178.4130  140.9780 C   0  0  0  0  0  1  0  0  0  0  0  0
  183.9770  178.6000  141.2300 C   0  0  0  0  0  2  0  0  0  0  0  0
  183.7980  178.6170  142.7130 C   0  0  0  0  0  0  0  0  0  0  0  0
  182.7690  177.9520  140.5460 C   0  0  0  0  0  2  0  0  0  0  0  0
  184.7100  178.4300  144.9590 C   0  0  0  0  0  0  0  0  0  0  0  0
  183.4480  178.7400  145.4810 C   0  0  0  0  0  3  0  0  0  0  0  0
  1  5  2  0  0  0  0
  1 10  1  0  0  0  0
  2 15  1  0  0  0  0
  3  9  1  0  0  0  0
  4 21  1  0  0  0  0
  4  8  2  0  0  0  0
  5  4  1  0  0  0  0
  6  8  1  0  0  0  0
  6  7  1  0  0  0  0
  9 10  1  0  0  0  0
  9 11  2  0  0  0  0
 10  6  2  0  0  0  0
 11  7  1  0  0  0  0
 12  2  2  0  0  0  0
 13 12  1  0  0  0  0
 13 14  2  0  0  0  0
 14 16  1  0  0  0  0
 15 17  1  0  0  0  0
 15  3  2  0  0  0  0
 16 17  2  0  0  0  0
 17  1  1  0  0  0  0
 18 13  1  0  0  0  0
 19 20  1  0  0  0  0
 19 18  1  0  0  0  0
 20 18  1  0  0  0  0
 22 34  1  0  0  0  0
 23 33  1  0  0  0  0
 24 26  1  0  0  0  0
 25 29  1  0  0  0  0
 25 24  1  0  0  0  0
 26 28  1  0  0  0  0
 27 25  2  0  0  0  0
 28 22  2  0  0  0  0
 30 31  1  0  0  0  0
 31 28  1  0  0  0  0
 31 23  2  0  0  0  0
 32 24  1  0  0  0  0
 32 30  1  0  0  0  0
 33 34  2  0  0  0  0
 33 21  1  0  0  0  0
M  END
>  <MODEL>
7

>  <REMARK>
 VINA RESULT:     -11.3      3.128      7.732
  Name = 
  3 active torsions:
  status: ('A' for Active; 'I' for Inactive)
    1  A    between atoms: C_3  and  C_25
    2  A    between atoms: C_8  and  O_18
    3  A    between atoms: O_18  and  C_30
                            x       y       z     vdW  Elec       q    Type
                         _______ _______ _______ _____ _____    ______ ____

>  <TORSDO>
F 3

$$$$
=
 OpenBabel10262423123D

 34 40  0  0  0  0  0  0  0  0999 V2000
  184.1500  178.4540  142.1710 C   0  0  0  0  0  0  0  0  0  0  0  0
  185.0830  178.4350  145.8360 C   0  0  0  0  0  3  0  0  0  0  0  0
  183.0550  178.9030  144.7430 C   0  0  0  0  0  3  0  0  0  0  0  0
  183.4870  178.4920  139.6760 C   0  0  0  0  0  0  0  0  0  0  0  0
  184.5830  178.2440  140.7250 C   0  0  0  0  0  2  0  0  0  0  0  0
  181.9050  179.0030  141.4480 C   0  0  0  0  0  0  0  0  0  0  0  0
  180.7420  179.3520  142.1230 C   0  0  0  0  0  3  0  0  0  0  0  0
  182.2240  178.8380  140.0300 C   0  0  0  0  0  3  0  0  0  0  0  0
  182.2930  179.0320  143.5900 C   0  0  0  0  0  0  0  0  0  0  0  0
  182.8430  178.8110  142.3870 C   0  0  0  0  0  0  0  0  0  0  0  0
  180.9910  179.3690  143.4670 N   0  0  0  0  0  0  0  0  0  0  0  0
  186.3990  178.1180  146.1340 C   0  0  0  0  0  3  0  0  0  0  0  0
  187.4580  177.8130  145.2890 C   0  0  0  0  0  0  0  0  0  0  0  0
  187.3790  177.7130  143.9060 C   0  0  0  0  0  3  0  0  0  0  0  0
  184.4200  178.5380  144.6190 C   0  0  0  0  0  0  0  0  0  0  0  0
  186.3060  177.9320  143.0560 C   0  0  0  0  0  3  0  0  0  0  0  0
  184.9870  178.3050  143.3120 C   0  0  0  0  0  0  0  0  0  0  0  0
  188.7710  177.4640  145.9300 C   0  0  0  0  0  3  0  0  0  0  0  0
  189.9070  178.2530  145.2960 C   0  0  0  0  0  2  0  0  0  0  0  0
  189.7040  176.8020  144.9260 C   0  0  0  0  0  2  0  0  0  0  0  0
  183.8500  178.3060  138.3320 O   0  0  0  0  0  0  0  0  0  0  0  0
  185.9280  175.7270  136.6860 C   0  0  0  0  0  3  0  0  0  0  0  0
  186.2900  178.1680  138.0020 C   0  0  0  0  0  3  0  0  0  0  0  0
  189.5660  175.6880  137.1940 N   0  0  0  0  0  0  0  0  0  0  0  0
  190.5540  174.6470  137.2590 C   0  0  0  0  0  0  0  0  0  0  0  0
  188.4040  175.5250  136.3090 C   0  0  0  0  0  2  0  0  0  0  0  0
  191.5860  174.7940  137.9680 O   0  0  0  0  0  0  0  0  0  0  0  0
  187.2130  176.2440  136.8570 C   0  0  0  0  0  0  0  0  0  0  0  0
  190.3890  173.3780  136.4920 C   0  0  0  0  0  1  0  0  0  0  0  0
  188.7730  178.0240  137.6450 C   0  0  0  0  0  2  0  0  0  0  0  0
  187.3950  177.4640  137.5150 C   0  0  0  0  0  0  0  0  0  0  0  0
  189.7790  176.9170  137.9780 C   0  0  0  0  0  2  0  0  0  0  0  0
  184.9920  177.6540  137.8380 C   0  0  0  0  0  0  0  0  0  0  0  0
  184.8230  176.4290  137.1800 C   0  0  0  0  0  3  0  0  0  0  0  0
  1 10  1  0  0  0  0
  1 17  2  0  0  0  0
  2 12  1  0  0  0  0
  4  8  2  0  0  0  0
  4  5  1  0  0  0  0
  5  1  1  0  0  0  0
  6  7  1  0  0  0  0
  6 10  2  0  0  0  0
  7 11  2  0  0  0  0
  8  6  1  0  0  0  0
  9  3  2  0  0  0  0
 10  9  1  0  0  0  0
 11  9  1  0  0  0  0
 13 18  1  0  0  0  0
 13 12  2  0  0  0  0
 14 13  1  0  0  0  0
 15  3  1  0  0  0  0
 15  2  2  0  0  0  0
 16 17  1  0  0  0  0
 16 14  2  0  0  0  0
 17 15  1  0  0  0  0
 19 18  1  0  0  0  0
 20 19  1  0  0  0  0
 20 18  1  0  0  0  0
 21  4  1  0  0  0  0
 22 28  2  0  0  0  0
 22 34  1  0  0  0  0
 24 25  1  0  0  0  0
 24 32  1  0  0  0  0
 25 27  2  0  0  0  0
 26 28  1  0  0  0  0
 26 24  1  0  0  0  0
 28 31  1  0  0  0  0
 29 25  1  0  0  0  0
 30 32  1  0  0  0  0
 31 30  1  0  0  0  0
 31 23  2  0  0  0  0
 33 23  1  0  0  0  0
 33 21  1  0  0  0  0
 34 33  2  0  0  0  0
M  END
>  <MODEL>
8

>  <REMARK>
 VINA RESULT:     -11.3      1.746      2.910
  Name = 
  3 active torsions:
  status: ('A' for Active; 'I' for Inactive)
    1  A    between atoms: C_3  and  C_25
    2  A    between atoms: C_8  and  O_18
    3  A    between atoms: O_18  and  C_30
                            x       y       z     vdW  Elec       q    Type
                         _______ _______ _______ _____ _____    ______ ____

>  <TORSDO>
F 3

$$$$
=
 OpenBabel10262423123D

 34 40  0  0  0  0  0  0  0  0999 V2000
  188.1090  177.7600  142.7430 C   0  0  0  0  0  0  0  0  0  0  0  0
  185.6700  178.1960  145.5990 C   0  0  0  0  0  3  0  0  0  0  0  0
  187.9110  177.4890  145.5530 C   0  0  0  0  0  3  0  0  0  0  0  0
  189.7930  177.4360  140.8120 C   0  0  0  0  0  0  0  0  0  0  0  0
  188.3790  177.8580  141.2460 C   0  0  0  0  0  2  0  0  0  0  0  0
  190.3740  176.9940  143.1290 C   0  0  0  0  0  0  0  0  0  0  0  0
  191.0800  176.6340  144.2710 C   0  0  0  0  0  3  0  0  0  0  0  0
  190.7290  177.0420  141.7110 C   0  0  0  0  0  3  0  0  0  0  0  0
  189.0840  177.1980  144.8720 C   0  0  0  0  0  0  0  0  0  0  0  0
  189.1440  177.3380  143.5390 C   0  0  0  0  0  0  0  0  0  0  0  0
  190.2650  176.7640  145.3610 N   0  0  0  0  0  0  0  0  0  0  0  0
  184.3960  178.6280  145.2600 C   0  0  0  0  0  3  0  0  0  0  0  0
  183.8550  178.9200  144.0160 C   0  0  0  0  0  0  0  0  0  0  0  0
  184.5420  178.8800  142.8090 C   0  0  0  0  0  3  0  0  0  0  0  0
  186.7860  177.9320  144.8140 C   0  0  0  0  0  0  0  0  0  0  0  0
  185.8510  178.5080  142.5410 C   0  0  0  0  0  3  0  0  0  0  0  0
  186.8770  178.0740  143.3800 C   0  0  0  0  0  0  0  0  0  0  0  0
  182.4370  179.4170  143.9820 C   0  0  0  0  0  3  0  0  0  0  0  0
  181.4570  178.2530  143.9680 C   0  0  0  0  0  2  0  0  0  0  0  0
  181.7490  179.0030  142.6900 C   0  0  0  0  0  2  0  0  0  0  0  0
  190.0790  177.5150  139.4390 O   0  0  0  0  0  0  0  0  0  0  0  0
  190.3960  174.6110  137.1700 C   0  0  0  0  0  3  0  0  0  0  0  0
  192.0740  176.4130  138.4960 C   0  0  0  0  0  3  0  0  0  0  0  0
  193.6460  172.9520  136.7400 N   0  0  0  0  0  0  0  0  0  0  0  0
  194.0490  171.5970  136.4910 C   0  0  0  0  0  0  0  0  0  0  0  0
  192.3840  173.4460  136.1690 C   0  0  0  0  0  2  0  0  0  0  0  0
  195.1550  171.1730  136.9250 O   0  0  0  0  0  0  0  0  0  0  0  0
  191.7810  174.4990  137.0420 C   0  0  0  0  0  0  0  0  0  0  0  0
  193.1810  170.6630  135.7160 C   0  0  0  0  0  1  0  0  0  0  0  0
  194.0990  175.2940  137.5170 C   0  0  0  0  0  2  0  0  0  0  0  0
  192.6210  175.4000  137.7050 C   0  0  0  0  0  0  0  0  0  0  0  0
  194.5410  173.8270  137.5180 C   0  0  0  0  0  2  0  0  0  0  0  0
  190.6800  176.5320  138.6350 C   0  0  0  0  0  0  0  0  0  0  0  0
  189.8500  175.6220  137.9680 C   0  0  0  0  0  3  0  0  0  0  0  0
  1 17  2  0  0  0  0
  1 10  1  0  0  0  0
  4  5  1  0  0  0  0
  4  8  2  0  0  0  0
  5  1  1  0  0  0  0
  6 10  2  0  0  0  0
  6  7  1  0  0  0  0
  7 11  2  0  0  0  0
  8  6  1  0  0  0  0
  9 11  1  0  0  0  0
  9  3  2  0  0  0  0
 10  9  1  0  0  0  0
 12  2  1  0  0  0  0
 13 12  2  0  0  0  0
 14 13  1  0  0  0  0
 15  3  1  0  0  0  0
 15  2  2  0  0  0  0
 16 14  2  0  0  0  0
 16 17  1  0  0  0  0
 17 15  1  0  0  0  0
 18 13  1  0  0  0  0
 19 18  1  0  0  0  0
 20 19  1  0  0  0  0
 20 18  1  0  0  0  0
 21  4  1  0  0  0  0
 22 34  1  0  0  0  0
 23 33  1  0  0  0  0
 24 32  1  0  0  0  0
 25 24  1  0  0  0  0
 25 27  2  0  0  0  0
 26 24  1  0  0  0  0
 26 28  1  0  0  0  0
 28 22  2  0  0  0  0
 28 31  1  0  0  0  0
 29 25  1  0  0  0  0
 30 32  1  0  0  0  0
 30 31  1  0  0  0  0
 31 23  2  0  0  0  0
 33 21  1  0  0  0  0
 34 33  2  0  0  0  0
M  END
>  <MODEL>
9

>  <REMARK>
 VINA RESULT:     -11.1      2.443      5.563
  Name = 
  3 active torsions:
  status: ('A' for Active; 'I' for Inactive)
    1  A    between atoms: C_3  and  C_25
    2  A    between atoms: C_8  and  O_18
    3  A    between atoms: O_18  and  C_30
                            x       y       z     vdW  Elec       q    Type
                         _______ _______ _______ _____ _____    ______ ____

>  <TORSDO>
F 3

$$$$
