=
 OpenBabel10262422423D

 43 47  0  0  1  0  0  0  0  0999 V2000
  183.9140  178.6900  142.5300 N   0  0  0  0  0  0  0  0  0  0  0  0
  181.6720  179.1230  142.0140 O   0  0  0  0  0  0  0  0  0  0  0  0
  187.5930  178.1320  136.1260 C   0  0  0  0  0  0  0  0  0  0  0  0
  182.7480  178.5480  141.6930 C   0  0  0  0  0  0  0  0  0  0  0  0
  187.9140  178.2260  141.1440 C   0  0  0  0  0  0  0  0  0  0  0  0
  185.5000  178.3970  140.7770 N   0  0  0  0  0  0  0  0  0  0  0  0
  188.3950  178.1430  138.4100 C   0  0  0  0  0  0  0  0  0  0  0  0
  186.2750  178.2260  136.5840 C   0  0  0  0  0  3  0  0  0  0  0  0
  187.8430  178.0740  134.7960 F   0  0  0  0  0  0  0  0  0  0  0  0
  187.0650  178.2350  138.8770 C   0  0  0  0  0  0  0  0  0  0  0  0
  188.6510  178.0890  137.0370 C   0  0  0  0  0  3  0  0  0  0  0  0
  186.0100  178.2780  137.9550 C   0  0  0  0  0  3  0  0  0  0  0  0
  185.2620  178.5340  142.0470 C   0  0  0  0  0  0  0  0  0  0  0  0
  186.8300  178.2810  140.2600 C   0  0  0  0  0  0  0  0  0  0  0  0
  189.2140  178.1400  140.6370 C   0  0  0  0  0  3  0  0  0  0  0  0
  187.6720  178.1910  142.6250 C   0  0  1  0  0  3  0  0  0  0  0  0
  186.3340  178.5820  142.9550 O   0  0  0  0  0  0  0  0  0  0  0  0
  189.4250  178.1030  139.2950 N   0  0  0  0  0  0  0  0  0  0  0  0
  183.7300  179.0330  143.8810 C   0  0  0  0  0  0  0  0  0  0  0  0
  183.5790  179.3140  144.9940 N   0  0  0  0  0  0  0  0  0  0  0  0
  187.9410  176.7880  143.1540 C   0  0  0  0  0  2  0  0  0  0  0  0
  189.8100  177.1140  146.4400 C   0  0  0  0  0  3  0  0  0  0  0  0
  191.1230  176.8070  146.0450 C   0  0  0  0  0  0  0  0  0  0  0  0
  190.3470  176.4970  143.7650 C   0  0  0  0  0  3  0  0  0  0  0  0
  188.7720  177.1110  145.5020 C   0  0  0  0  0  3  0  0  0  0  0  0
  189.0400  176.8010  144.1630 C   0  0  0  0  0  0  0  0  0  0  0  0
  191.3840  176.5000  144.7040 C   0  0  0  0  0  3  0  0  0  0  0  0
  192.4160  175.7150  147.8520 C   0  0  0  0  0  1  0  0  0  0  0  0
  192.1820  176.7980  146.9590 O   0  0  0  0  0  0  0  0  0  0  0  0
  182.7740  177.7150  140.4470 C   0  0  0  0  0  2  0  0  0  0  0  0
  181.5180  177.9170  139.5970 C   0  0  0  0  0  2  0  0  0  0  0  0
  181.7330  178.7740  138.3420 C   0  0  2  0  0  3  0  0  0  0  0  0
  182.6620  178.1450  137.3490 C   0  0  0  0  0  3  0  0  0  0  0  0
  182.4470  177.0200  136.9270 O   0  0  0  0  0  0  0  0  0  0  0  0
  182.1000  180.1970  138.6550 C   0  0  0  0  0  0  0  0  0  0  0  0
  183.2780  180.4940  138.7830 O   0  0  0  0  0  0  0  0  0  0  0  0
  181.0520  181.2620  138.7900 C   0  0  0  0  0  2  0  0  0  0  0  0
  180.9770  182.1130  137.5660 C   0  0  0  0  0  0  0  0  0  0  0  0
  181.2030  184.2820  136.5070 C   0  0  0  0  0  3  0  0  0  0  0  0
  180.5410  182.3560  135.1920 C   0  0  0  0  0  3  0  0  0  0  0  0
  180.8380  183.7190  135.2770 C   0  0  0  0  0  3  0  0  0  0  0  0
  180.6080  181.5530  136.3350 C   0  0  0  0  0  3  0  0  0  0  0  0
  181.2730  183.4780  137.6500 C   0  0  0  0  0  3  0  0  0  0  0  0
  1 19  1  0  0  0  0
  3  8  2  0  0  0  0
  3 11  1  0  0  0  0
  4  2  2  0  0  0  0
  4  1  1  0  0  0  0
  5 16  1  0  0  0  0
  6 13  2  0  0  0  0
  7 10  1  0  0  0  0
  7 18  1  0  0  0  0
  8 12  1  0  0  0  0
  9  3  1  0  0  0  0
 10 14  1  0  0  0  0
 11  7  2  0  0  0  0
 12 10  2  0  0  0  0
 13  1  1  0  0  0  0
 13 17  1  0  0  0  0
 14  6  1  0  0  0  0
 14  5  2  0  0  0  0
 15  5  1  0  0  0  0
 16 17  1  0  0  0  0
 16 21  1  6  0  0  0
 18 15  2  0  0  0  0
 19 20  3  0  0  0  0
 21 26  1  0  0  0  0
 23 22  1  0  0  0  0
 23 29  1  0  0  0  0
 24 26  2  0  0  0  0
 24 27  1  0  0  0  0
 25 22  2  0  0  0  0
 26 25  1  0  0  0  0
 27 23  2  0  0  0  0
 29 28  1  0  0  0  0
 30  4  1  0  0  0  0
 31 30  1  0  0  0  0
 32 33  1  6  0  0  0
 32 35  1  0  0  0  0
 32 31  1  0  0  0  0
 34 33  2  0  0  0  0
 35 36  2  0  0  0  0
 35 37  1  0  0  0  0
 38 43  1  0  0  0  0
 38 37  1  0  0  0  0
 39 43  2  0  0  0  0
 40 41  2  0  0  0  0
 40 42  1  0  0  0  0
 41 39  1  0  0  0  0
 42 38  2  0  0  0  0
M  END
>  <MODEL>
1

>  <REMARK>
 VINA RESULT:      -9.1      0.000      0.000
  Name = 
  11 active torsions:
  status: ('A' for Active; 'I' for Inactive)
    1  A    between atoms: C_1  and  C_34
    2  A    between atoms: C_1  and  C_35
    3  A    between atoms: N_2  and  C_12
    4  A    between atoms: C_4  and  C_7
    5  A    between atoms: C_4  and  C_15
    6  A    between atoms: C_6  and  C_7
    7  A    between atoms: C_10  and  C_15
    8  A    between atoms: C_11  and  C_14
    9  A    between atoms: C_14  and  C_22
   10  A    between atoms: C_15  and  C_22
   11  A    between atoms: C_19  and  O_37
                            x       y       z     vdW  Elec       q    Type
                         _______ _______ _______ _____ _____    ______ ____

>  <TORSDO>
F 11

$$$$
=
 OpenBabel10262422423D

 43 47  0  0  1  0  0  0  0  0999 V2000
  184.3420  178.5900  142.8430 N   0  0  0  0  0  0  0  0  0  0  0  0
  182.0720  179.0030  142.4450 O   0  0  0  0  0  0  0  0  0  0  0  0
  187.6880  178.0730  136.2560 C   0  0  0  0  0  0  0  0  0  0  0  0
  183.1350  178.4380  142.0680 C   0  0  0  0  0  0  0  0  0  0  0  0
  188.2680  178.1650  141.2510 C   0  0  0  0  0  0  0  0  0  0  0  0
  185.8370  178.3130  141.0100 N   0  0  0  0  0  0  0  0  0  0  0  0
  188.6080  178.0890  138.4960 C   0  0  0  0  0  0  0  0  0  0  0  0
  186.3960  178.1550  136.7820 C   0  0  0  0  0  3  0  0  0  0  0  0
  187.8700  178.0200  134.9150 F   0  0  0  0  0  0  0  0  0  0  0  0
  187.3020  178.1680  139.0310 C   0  0  0  0  0  0  0  0  0  0  0  0
  188.7920  178.0400  137.1110 C   0  0  0  0  0  3  0  0  0  0  0  0
  186.2010  178.2030  138.1650 C   0  0  0  0  0  3  0  0  0  0  0  0
  185.6640  178.4470  142.2910 C   0  0  0  0  0  0  0  0  0  0  0  0
  187.1400  178.2110  140.4240 C   0  0  0  0  0  0  0  0  0  0  0  0
  189.5400  178.0920  140.6770 C   0  0  0  0  0  3  0  0  0  0  0  0
  188.1030  178.1260  142.7420 C   0  0  1  0  0  3  0  0  0  0  0  0
  186.7800  178.5040  143.1420 O   0  0  0  0  0  0  0  0  0  0  0  0
  189.6830  178.0590  139.3260 N   0  0  0  0  0  0  0  0  0  0  0  0
  184.2240  178.9290  144.2020 C   0  0  0  0  0  0  0  0  0  0  0  0
  184.1270  179.2070  145.3220 N   0  0  0  0  0  0  0  0  0  0  0  0
  188.4130  176.7250  143.2550 C   0  0  0  0  0  2  0  0  0  0  0  0
  189.6690  177.1270  146.8130 C   0  0  0  0  0  3  0  0  0  0  0  0
  191.0400  176.8620  146.6550 C   0  0  0  0  0  0  0  0  0  0  0  0
  190.6840  176.5170  144.2780 C   0  0  0  0  0  3  0  0  0  0  0  0
  188.8100  177.0850  145.7090 C   0  0  0  0  0  3  0  0  0  0  0  0
  189.3180  176.7790  144.4390 C   0  0  0  0  0  0  0  0  0  0  0  0
  191.5410  176.5590  145.3830 C   0  0  0  0  0  3  0  0  0  0  0  0
  192.7110  175.7700  148.1180 C   0  0  0  0  0  1  0  0  0  0  0  0
  191.9230  176.8920  147.7390 O   0  0  0  0  0  0  0  0  0  0  0  0
  183.1040  177.6070  140.8200 C   0  0  0  0  0  2  0  0  0  0  0  0
  182.0620  178.1120  139.8210 C   0  0  0  0  0  2  0  0  0  0  0  0
  182.6530  178.6960  138.5300 C   0  0  2  0  0  3  0  0  0  0  0  0
  182.9050  180.1700  138.6110 C   0  0  0  0  0  3  0  0  0  0  0  0
  183.9640  180.5940  139.0440 O   0  0  0  0  0  0  0  0  0  0  0  0
  181.8810  178.3090  137.3000 C   0  0  0  0  0  0  0  0  0  0  0  0
  181.4760  179.1850  136.5520 O   0  0  0  0  0  0  0  0  0  0  0  0
  181.6210  176.8710  136.9620 C   0  0  0  0  0  2  0  0  0  0  0  0
  182.8790  176.1600  136.5890 C   0  0  0  0  0  0  0  0  0  0  0  0
  184.6360  174.5840  137.1420 C   0  0  0  0  0  3  0  0  0  0  0  0
  184.6660  175.7290  135.0060 C   0  0  0  0  0  3  0  0  0  0  0  0
  185.2400  174.8220  135.9010 C   0  0  0  0  0  3  0  0  0  0  0  0
  183.4880  176.4000  135.3490 C   0  0  0  0  0  3  0  0  0  0  0  0
  183.4560  175.2530  137.4840 C   0  0  0  0  0  3  0  0  0  0  0  0
  1 19  1  0  0  0  0
  3  8  2  0  0  0  0
  3 11  1  0  0  0  0
  4  2  2  0  0  0  0
  4  1  1  0  0  0  0
  5 16  1  0  0  0  0
  6 13  2  0  0  0  0
  7 10  1  0  0  0  0
  7 18  1  0  0  0  0
  8 12  1  0  0  0  0
  9  3  1  0  0  0  0
 10 14  1  0  0  0  0
 11  7  2  0  0  0  0
 12 10  2  0  0  0  0
 13  1  1  0  0  0  0
 13 17  1  0  0  0  0
 14  6  1  0  0  0  0
 14  5  2  0  0  0  0
 15  5  1  0  0  0  0
 16 17  1  0  0  0  0
 16 21  1  6  0  0  0
 18 15  2  0  0  0  0
 19 20  3  0  0  0  0
 21 26  1  0  0  0  0
 23 22  1  0  0  0  0
 23 29  1  0  0  0  0
 24 26  2  0  0  0  0
 24 27  1  0  0  0  0
 25 22  2  0  0  0  0
 26 25  1  0  0  0  0
 27 23  2  0  0  0  0
 29 28  1  0  0  0  0
 30  4  1  0  0  0  0
 31 30  1  0  0  0  0
 32 33  1  1  0  0  0
 32 31  1  0  0  0  0
 33 34  2  0  0  0  0
 35 32  1  0  0  0  0
 36 35  2  0  0  0  0
 37 35  1  0  0  0  0
 38 37  1  0  0  0  0
 38 43  1  0  0  0  0
 39 43  2  0  0  0  0
 40 42  1  0  0  0  0
 40 41  2  0  0  0  0
 41 39  1  0  0  0  0
 42 38  2  0  0  0  0
M  END
>  <MODEL>
2

>  <REMARK>
 VINA RESULT:      -9.1      1.736      3.361
  Name = 
  11 active torsions:
  status: ('A' for Active; 'I' for Inactive)
    1  A    between atoms: C_1  and  C_34
    2  A    between atoms: C_1  and  C_35
    3  A    between atoms: N_2  and  C_12
    4  A    between atoms: C_4  and  C_7
    5  A    between atoms: C_4  and  C_15
    6  A    between atoms: C_6  and  C_7
    7  A    between atoms: C_10  and  C_15
    8  A    between atoms: C_11  and  C_14
    9  A    between atoms: C_14  and  C_22
   10  A    between atoms: C_15  and  C_22
   11  A    between atoms: C_19  and  O_37
                            x       y       z     vdW  Elec       q    Type
                         _______ _______ _______ _____ _____    ______ ____

>  <TORSDO>
F 11

$$$$
=
 OpenBabel10262422423D

 43 47  0  0  1  0  0  0  0  0999 V2000
  187.6190  178.3590  140.6600 N   0  0  0  0  0  0  0  0  0  0  0  0
  189.1770  178.4650  142.4050 O   0  0  0  0  0  0  0  0  0  0  0  0
  180.8780  178.9530  143.6710 C   0  0  0  0  0  0  0  0  0  0  0  0
  188.0320  178.1020  142.0180 C   0  0  0  0  0  0  0  0  0  0  0  0
  183.5560  178.6700  139.4230 C   0  0  0  0  0  0  0  0  0  0  0  0
  185.2890  178.4770  141.1410 N   0  0  0  0  0  0  0  0  0  0  0  0
  181.5700  178.8990  141.3520 C   0  0  0  0  0  0  0  0  0  0  0  0
  182.2070  178.7920  144.0760 C   0  0  0  0  0  3  0  0  0  0  0  0
  179.8970  179.0500  144.5990 F   0  0  0  0  0  0  0  0  0  0  0  0
  182.9150  178.7340  141.7570 C   0  0  0  0  0  0  0  0  0  0  0  0
  180.5610  179.0050  142.3120 C   0  0  0  0  0  3  0  0  0  0  0  0
  183.2230  178.6840  143.1230 C   0  0  0  0  0  3  0  0  0  0  0  0
  186.2410  178.4650  140.2570 C   0  0  0  0  0  0  0  0  0  0  0  0
  183.9120  178.6240  140.7770 C   0  0  0  0  0  0  0  0  0  0  0  0
  182.2150  178.8400  139.0690 C   0  0  0  0  0  3  0  0  0  0  0  0
  184.6030  178.4700  138.3660 C   0  0  1  0  0  3  0  0  0  0  0  0
  185.9270  178.6090  138.8940 O   0  0  0  0  0  0  0  0  0  0  0  0
  181.2610  178.9520  140.0300 N   0  0  0  0  0  0  0  0  0  0  0  0
  188.6130  178.5510  139.6840 C   0  0  0  0  0  0  0  0  0  0  0  0
  189.4310  178.7080  138.8790 N   0  0  0  0  0  0  0  0  0  0  0  0
  184.4420  177.0900  137.7420 C   0  0  0  0  0  2  0  0  0  0  0  0
  187.7460  175.5470  136.6950 C   0  0  0  0  0  3  0  0  0  0  0  0
  187.8870  176.0490  135.3890 C   0  0  0  0  0  0  0  0  0  0  0  0
  185.7800  177.2310  135.6360 C   0  0  0  0  0  3  0  0  0  0  0  0
  186.6280  175.8840  137.4650 C   0  0  0  0  0  3  0  0  0  0  0  0
  185.6420  176.7270  136.9340 C   0  0  0  0  0  0  0  0  0  0  0  0
  186.8980  176.8920  134.8670 C   0  0  0  0  0  3  0  0  0  0  0  0
  190.3270  175.7830  135.0780 C   0  0  0  0  0  1  0  0  0  0  0  0
  188.9910  175.7270  134.5940 O   0  0  0  0  0  0  0  0  0  0  0  0
  187.1370  177.3930  142.9890 C   0  0  0  0  0  2  0  0  0  0  0  0
  186.7670  178.2790  144.1790 C   0  0  0  0  0  2  0  0  0  0  0  0
  186.5800  177.5210  145.5010 C   0  0  2  0  0  3  0  0  0  0  0  0
  185.2710  177.8120  146.1690 C   0  0  0  0  0  3  0  0  0  0  0  0
  184.9240  178.9640  146.3750 O   0  0  0  0  0  0  0  0  0  0  0  0
  187.7490  177.6650  146.4350 C   0  0  0  0  0  0  0  0  0  0  0  0
  187.6430  177.2700  147.5850 O   0  0  0  0  0  0  0  0  0  0  0  0
  189.0470  178.2610  145.9750 C   0  0  0  0  0  2  0  0  0  0  0  0
  190.1720  177.2900  146.1110 C   0  0  0  0  0  0  0  0  0  0  0  0
  191.6970  176.0360  147.5170 C   0  0  0  0  0  3  0  0  0  0  0  0
  191.8170  175.8180  145.1060 C   0  0  0  0  0  3  0  0  0  0  0  0
  192.2840  175.4720  146.3770 C   0  0  0  0  0  3  0  0  0  0  0  0
  190.7640  176.7270  144.9710 C   0  0  0  0  0  3  0  0  0  0  0  0
  190.6420  176.9440  147.3820 C   0  0  0  0  0  3  0  0  0  0  0  0
  1  4  1  0  0  0  0
  3  8  1  0  0  0  0
  3  9  1  0  0  0  0
  4  2  2  0  0  0  0
  4 30  1  0  0  0  0
  5 14  1  0  0  0  0
  7 10  1  0  0  0  0
  7 11  1  0  0  0  0
 10 12  1  0  0  0  0
 11  3  2  0  0  0  0
 12  8  2  0  0  0  0
 13  1  1  0  0  0  0
 13  6  2  0  0  0  0
 14  6  1  0  0  0  0
 14 10  2  0  0  0  0
 15  5  2  0  0  0  0
 15 18  1  0  0  0  0
 16 21  1  1  0  0  0
 16 17  1  0  0  0  0
 16  5  1  0  0  0  0
 17 13  1  0  0  0  0
 18  7  2  0  0  0  0
 19  1  1  0  0  0  0
 20 19  3  0  0  0  0
 22 25  1  0  0  0  0
 23 22  2  0  0  0  0
 24 26  1  0  0  0  0
 26 25  2  0  0  0  0
 26 21  1  0  0  0  0
 27 23  1  0  0  0  0
 27 24  2  0  0  0  0
 29 28  1  0  0  0  0
 29 23  1  0  0  0  0
 30 31  1  0  0  0  0
 32 31  1  6  0  0  0
 32 33  1  0  0  0  0
 32 35  1  0  0  0  0
 33 34  2  0  0  0  0
 35 36  2  0  0  0  0
 37 38  1  0  0  0  0
 37 35  1  0  0  0  0
 38 43  1  0  0  0  0
 40 41  2  0  0  0  0
 41 39  1  0  0  0  0
 42 40  1  0  0  0  0
 42 38  2  0  0  0  0
 43 39  2  0  0  0  0
M  END
>  <MODEL>
3

>  <REMARK>
 VINA RESULT:      -8.9      3.373      9.720
  Name = 
  11 active torsions:
  status: ('A' for Active; 'I' for Inactive)
    1  A    between atoms: C_1  and  C_34
    2  A    between atoms: C_1  and  C_35
    3  A    between atoms: N_2  and  C_12
    4  A    between atoms: C_4  and  C_7
    5  A    between atoms: C_4  and  C_15
    6  A    between atoms: C_6  and  C_7
    7  A    between atoms: C_10  and  C_15
    8  A    between atoms: C_11  and  C_14
    9  A    between atoms: C_14  and  C_22
   10  A    between atoms: C_15  and  C_22
   11  A    between atoms: C_19  and  O_37
                            x       y       z     vdW  Elec       q    Type
                         _______ _______ _______ _____ _____    ______ ____

>  <TORSDO>
F 11

$$$$
=
 OpenBabel10262422423D

 43 47  0  0  1  0  0  0  0  0999 V2000
  191.4600  177.1710  139.9960 N   0  0  0  0  0  0  0  0  0  0  0  0
  192.7700  177.2160  141.9360 O   0  0  0  0  0  0  0  0  0  0  0  0
  184.5520  178.9960  141.9450 C   0  0  0  0  0  0  0  0  0  0  0  0
  191.6450  176.9850  141.4140 C   0  0  0  0  0  0  0  0  0  0  0  0
  187.6950  177.9410  138.1630 C   0  0  0  0  0  0  0  0  0  0  0  0
  189.1330  177.6640  140.1230 N   0  0  0  0  0  0  0  0  0  0  0  0
  185.5290  178.6290  139.7610 C   0  0  0  0  0  0  0  0  0  0  0  0
  185.7740  178.6860  142.5490 C   0  0  0  0  0  3  0  0  0  0  0  0
  183.4820  179.3180  142.7110 F   0  0  0  0  0  0  0  0  0  0  0  0
  186.7660  178.3120  140.3680 C   0  0  0  0  0  0  0  0  0  0  0  0
  184.4290  178.9660  140.5540 C   0  0  0  0  0  3  0  0  0  0  0  0
  186.8790  178.3460  141.7640 C   0  0  0  0  0  3  0  0  0  0  0  0
  190.1810  177.4350  139.3890 C   0  0  0  0  0  0  0  0  0  0  0  0
  187.8560  177.9700  139.5530 C   0  0  0  0  0  0  0  0  0  0  0  0
  186.4540  178.2660  137.6060 C   0  0  0  0  0  3  0  0  0  0  0  0
  188.8290  177.4970  137.2860 C   0  0  1  0  0  3  0  0  0  0  0  0
  190.0770  177.4940  137.9890 O   0  0  0  0  0  0  0  0  0  0  0  0
  185.4090  178.6020  138.4080 N   0  0  0  0  0  0  0  0  0  0  0  0
  192.5920  177.1280  139.1630 C   0  0  0  0  0  0  0  0  0  0  0  0
  193.5260  177.0930  138.4780 N   0  0  0  0  0  0  0  0  0  0  0  0
  188.5420  176.1010  136.7460 C   0  0  0  0  0  2  0  0  0  0  0  0
  191.6660  175.1620  134.8090 C   0  0  0  0  0  3  0  0  0  0  0  0
  192.1820  174.1210  135.6010 C   0  0  0  0  0  0  0  0  0  0  0  0
  190.3120  174.3790  137.1290 C   0  0  0  0  0  3  0  0  0  0  0  0
  190.4810  175.8080  135.1770 C   0  0  0  0  0  3  0  0  0  0  0  0
  189.8030  175.4170  136.3400 C   0  0  0  0  0  0  0  0  0  0  0  0
  191.4980  173.7350  136.7600 C   0  0  0  0  0  3  0  0  0  0  0  0
  194.6400  174.0900  135.3130 C   0  0  0  0  0  1  0  0  0  0  0  0
  193.3660  173.4590  135.2620 O   0  0  0  0  0  0  0  0  0  0  0  0
  190.5300  176.5050  142.2940 C   0  0  0  0  0  2  0  0  0  0  0  0
  190.9660  176.3780  143.7540 C   0  0  0  0  0  2  0  0  0  0  0  0
  190.2420  177.3290  144.7170 C   0  0  2  0  0  3  0  0  0  0  0  0
  190.4000  178.7740  144.3510 C   0  0  0  0  0  3  0  0  0  0  0  0
  191.5060  179.2370  144.1230 O   0  0  0  0  0  0  0  0  0  0  0  0
  190.5590  177.0620  146.1610 C   0  0  0  0  0  0  0  0  0  0  0  0
  191.6810  177.3030  146.5780 O   0  0  0  0  0  0  0  0  0  0  0  0
  189.5210  176.5280  147.1030 C   0  0  0  0  0  2  0  0  0  0  0  0
  188.2670  177.3350  147.0480 C   0  0  0  0  0  0  0  0  0  0  0  0
  186.2070  177.9300  145.9160 C   0  0  0  0  0  3  0  0  0  0  0  0
  186.7920  179.0050  148.0080 C   0  0  0  0  0  3  0  0  0  0  0  0
  185.9110  178.8440  146.9350 C   0  0  0  0  0  3  0  0  0  0  0  0
  187.9700  178.2540  148.0650 C   0  0  0  0  0  3  0  0  0  0  0  0
  187.3840  177.1760  145.9740 C   0  0  0  0  0  3  0  0  0  0  0  0
  1  4  1  0  0  0  0
  3  8  1  0  0  0  0
  3  9  1  0  0  0  0
  4  2  2  0  0  0  0
  4 30  1  0  0  0  0
  5 14  1  0  0  0  0
  7 10  1  0  0  0  0
  7 11  1  0  0  0  0
 10 12  1  0  0  0  0
 11  3  2  0  0  0  0
 12  8  2  0  0  0  0
 13  1  1  0  0  0  0
 13  6  2  0  0  0  0
 14  6  1  0  0  0  0
 14 10  2  0  0  0  0
 15  5  2  0  0  0  0
 15 18  1  0  0  0  0
 16 21  1  1  0  0  0
 16 17  1  0  0  0  0
 16  5  1  0  0  0  0
 17 13  1  0  0  0  0
 18  7  2  0  0  0  0
 19  1  1  0  0  0  0
 20 19  3  0  0  0  0
 22 25  2  0  0  0  0
 22 23  1  0  0  0  0
 23 27  2  0  0  0  0
 25 26  1  0  0  0  0
 26 21  1  0  0  0  0
 26 24  2  0  0  0  0
 27 24  1  0  0  0  0
 29 28  1  0  0  0  0
 29 23  1  0  0  0  0
 30 31  1  0  0  0  0
 32 31  1  6  0  0  0
 32 35  1  0  0  0  0
 33 32  1  0  0  0  0
 34 33  2  0  0  0  0
 35 36  2  0  0  0  0
 35 37  1  0  0  0  0
 38 37  1  0  0  0  0
 38 42  1  0  0  0  0
 39 43  1  0  0  0  0
 39 41  2  0  0  0  0
 40 42  2  0  0  0  0
 41 40  1  0  0  0  0
 43 38  2  0  0  0  0
M  END
>  <MODEL>
4

>  <REMARK>
 VINA RESULT:      -8.6      4.274      9.483
  Name = 
  11 active torsions:
  status: ('A' for Active; 'I' for Inactive)
    1  A    between atoms: C_1  and  C_34
    2  A    between atoms: C_1  and  C_35
    3  A    between atoms: N_2  and  C_12
    4  A    between atoms: C_4  and  C_7
    5  A    between atoms: C_4  and  C_15
    6  A    between atoms: C_6  and  C_7
    7  A    between atoms: C_10  and  C_15
    8  A    between atoms: C_11  and  C_14
    9  A    between atoms: C_14  and  C_22
   10  A    between atoms: C_15  and  C_22
   11  A    between atoms: C_19  and  O_37
                            x       y       z     vdW  Elec       q    Type
                         _______ _______ _______ _____ _____    ______ ____

>  <TORSDO>
F 11

$$$$
=
 OpenBabel10262422423D

 43 47  0  0  1  0  0  0  0  0999 V2000
  186.8570  178.2850  137.7200 N   0  0  0  0  0  0  0  0  0  0  0  0
  189.0600  179.0120  138.0370 O   0  0  0  0  0  0  0  0  0  0  0  0
  183.3050  179.1060  144.1670 C   0  0  0  0  0  0  0  0  0  0  0  0
  188.0390  178.4560  138.5280 C   0  0  0  0  0  0  0  0  0  0  0  0
  182.9250  177.8800  139.3040 C   0  0  0  0  0  0  0  0  0  0  0  0
  185.3190  178.3290  139.5390 N   0  0  0  0  0  0  0  0  0  0  0  0
  182.4810  178.4650  141.9830 C   0  0  0  0  0  0  0  0  0  0  0  0
  184.6050  179.1830  143.6590 C   0  0  0  0  0  3  0  0  0  0  0  0
  183.0740  179.3730  145.4740 F   0  0  0  0  0  0  0  0  0  0  0  0
  183.7940  178.5390  141.4660 C   0  0  0  0  0  0  0  0  0  0  0  0
  182.2450  178.7470  143.3310 C   0  0  0  0  0  3  0  0  0  0  0  0
  184.8510  178.9010  142.3120 C   0  0  0  0  0  3  0  0  0  0  0  0
  185.5320  178.1530  138.2690 C   0  0  0  0  0  0  0  0  0  0  0  0
  184.0100  178.2460  140.1100 C   0  0  0  0  0  0  0  0  0  0  0  0
  181.6430  177.8250  139.8570 C   0  0  0  0  0  3  0  0  0  0  0  0
  183.1540  177.4840  137.8750 C   0  0  1  0  0  3  0  0  0  0  0  0
  184.4510  177.8810  137.4130 O   0  0  0  0  0  0  0  0  0  0  0  0
  181.4490  178.1180  141.1700 N   0  0  0  0  0  0  0  0  0  0  0  0
  186.9980  178.2820  136.3210 C   0  0  0  0  0  0  0  0  0  0  0  0
  187.1140  178.2780  135.1690 N   0  0  0  0  0  0  0  0  0  0  0  0
  182.9990  175.9750  137.7300 C   0  0  0  0  0  2  0  0  0  0  0  0
  185.2560  175.1790  134.7870 C   0  0  0  0  0  3  0  0  0  0  0  0
  186.1960  174.3180  135.3810 C   0  0  0  0  0  0  0  0  0  0  0  0
  185.0340  174.5430  137.5020 C   0  0  0  0  0  3  0  0  0  0  0  0
  184.2130  175.7190  135.5470 C   0  0  0  0  0  3  0  0  0  0  0  0
  184.1030  175.4020  136.9070 C   0  0  0  0  0  0  0  0  0  0  0  0
  186.0760  174.0040  136.7410 C   0  0  0  0  0  3  0  0  0  0  0  0
  187.5550  172.3750  134.6730 C   0  0  0  0  0  1  0  0  0  0  0  0
  187.2510  173.7650  134.6490 O   0  0  0  0  0  0  0  0  0  0  0  0
  188.0970  177.9730  139.9460 C   0  0  0  0  0  2  0  0  0  0  0  0
  189.1190  176.8500  140.1270 C   0  0  0  0  0  2  0  0  0  0  0  0
  190.5330  177.3300  140.4840 C   0  0  2  0  0  3  0  0  0  0  0  0
  191.5870  176.8010  139.5610 C   0  0  0  0  0  3  0  0  0  0  0  0
  191.3230  176.5590  138.3930 O   0  0  0  0  0  0  0  0  0  0  0  0
  190.8780  177.1250  141.9320 C   0  0  0  0  0  0  0  0  0  0  0  0
  191.6750  177.8800  142.4660 O   0  0  0  0  0  0  0  0  0  0  0  0
  190.2460  176.0290  142.7380 C   0  0  0  0  0  2  0  0  0  0  0  0
  189.3640  176.5760  143.8100 C   0  0  0  0  0  0  0  0  0  0  0  0
  187.1460  177.1280  144.6180 C   0  0  0  0  0  3  0  0  0  0  0  0
  189.0840  177.5650  146.0070 C   0  0  0  0  0  3  0  0  0  0  0  0
  187.6990  177.6020  145.8140 C   0  0  0  0  0  3  0  0  0  0  0  0
  189.9160  177.0550  145.0060 C   0  0  0  0  0  3  0  0  0  0  0  0
  187.9790  176.6150  143.6170 C   0  0  0  0  0  3  0  0  0  0  0  0
  1 13  1  0  0  0  0
  1  4  1  0  0  0  0
  2  4  2  0  0  0  0
  3  9  1  0  0  0  0
  4 30  1  0  0  0  0
  5 15  2  0  0  0  0
  5 14  1  0  0  0  0
  6 14  1  0  0  0  0
  7 11  1  0  0  0  0
  8  3  1  0  0  0  0
 10  7  1  0  0  0  0
 10 12  1  0  0  0  0
 11  3  2  0  0  0  0
 12  8  2  0  0  0  0
 13  6  2  0  0  0  0
 14 10  2  0  0  0  0
 15 18  1  0  0  0  0
 16 21  1  1  0  0  0
 16  5  1  0  0  0  0
 17 16  1  0  0  0  0
 17 13  1  0  0  0  0
 18  7  2  0  0  0  0
 19  1  1  0  0  0  0
 20 19  3  0  0  0  0
 22 23  2  0  0  0  0
 22 25  1  0  0  0  0
 23 27  1  0  0  0  0
 25 26  2  0  0  0  0
 26 24  1  0  0  0  0
 26 21  1  0  0  0  0
 27 24  2  0  0  0  0
 29 28  1  0  0  0  0
 29 23  1  0  0  0  0
 30 31  1  0  0  0  0
 31 32  1  0  0  0  0
 32 33  1  6  0  0  0
 32 35  1  0  0  0  0
 34 33  2  0  0  0  0
 35 36  2  0  0  0  0
 35 37  1  0  0  0  0
 37 38  1  0  0  0  0
 38 42  1  0  0  0  0
 39 41  2  0  0  0  0
 41 40  1  0  0  0  0
 42 40  2  0  0  0  0
 43 38  2  0  0  0  0
 43 39  1  0  0  0  0
M  END
>  <MODEL>
5

>  <REMARK>
 VINA RESULT:      -8.3      3.627      9.408
  Name = 
  11 active torsions:
  status: ('A' for Active; 'I' for Inactive)
    1  A    between atoms: C_1  and  C_34
    2  A    between atoms: C_1  and  C_35
    3  A    between atoms: N_2  and  C_12
    4  A    between atoms: C_4  and  C_7
    5  A    between atoms: C_4  and  C_15
    6  A    between atoms: C_6  and  C_7
    7  A    between atoms: C_10  and  C_15
    8  A    between atoms: C_11  and  C_14
    9  A    between atoms: C_14  and  C_22
   10  A    between atoms: C_15  and  C_22
   11  A    between atoms: C_19  and  O_37
                            x       y       z     vdW  Elec       q    Type
                         _______ _______ _______ _____ _____    ______ ____

>  <TORSDO>
F 11

$$$$
=
 OpenBabel10262422423D

 43 47  0  0  1  0  0  0  0  0999 V2000
  189.2410  176.7580  141.7830 N   0  0  0  0  0  0  0  0  0  0  0  0
  190.5590  176.4310  139.8750 O   0  0  0  0  0  0  0  0  0  0  0  0
  182.8390  179.7510  139.5650 C   0  0  0  0  0  0  0  0  0  0  0  0
  189.6930  177.1340  140.4660 C   0  0  0  0  0  0  0  0  0  0  0  0
  185.4740  177.8800  143.4200 C   0  0  0  0  0  0  0  0  0  0  0  0
  187.0790  177.7370  141.5780 N   0  0  0  0  0  0  0  0  0  0  0  0
  183.5400  178.9610  141.7450 C   0  0  0  0  0  0  0  0  0  0  0  0
  184.0960  179.4350  139.0420 C   0  0  0  0  0  3  0  0  0  0  0  0
  181.8910  180.2930  138.7650 F   0  0  0  0  0  0  0  0  0  0  0  0
  184.8140  178.6440  141.2190 C   0  0  0  0  0  0  0  0  0  0  0  0
  182.5620  179.5150  140.9140 C   0  0  0  0  0  3  0  0  0  0  0  0
  185.0820  178.8820  139.8650 C   0  0  0  0  0  3  0  0  0  0  0  0
  187.9620  177.1420  142.3230 C   0  0  0  0  0  0  0  0  0  0  0  0
  185.7830  178.0940  142.0720 C   0  0  0  0  0  0  0  0  0  0  0  0
  184.2000  178.2050  143.8950 C   0  0  0  0  0  3  0  0  0  0  0  0
  186.5280  177.3710  144.3590 C   0  0  1  0  0  3  0  0  0  0  0  0
  187.6490  176.8240  143.6550 O   0  0  0  0  0  0  0  0  0  0  0  0
  183.2690  178.7310  143.0550 N   0  0  0  0  0  0  0  0  0  0  0  0
  190.0770  175.9460  142.5700 C   0  0  0  0  0  0  0  0  0  0  0  0
  190.7640  175.2760  143.2180 N   0  0  0  0  0  0  0  0  0  0  0  0
  186.9950  178.5030  145.2660 C   0  0  0  0  0  2  0  0  0  0  0  0
  189.3120  177.4910  148.0950 C   0  0  0  0  0  3  0  0  0  0  0  0
  190.5380  177.3600  147.4180 C   0  0  0  0  0  0  0  0  0  0  0  0
  189.4390  177.9830  145.3440 C   0  0  0  0  0  3  0  0  0  0  0  0
  188.1580  177.8640  147.3990 C   0  0  0  0  0  3  0  0  0  0  0  0
  188.2200  178.1100  146.0210 C   0  0  0  0  0  0  0  0  0  0  0  0
  190.5920  177.6100  146.0410 C   0  0  0  0  0  3  0  0  0  0  0  0
  192.4300  175.8030  147.7610 C   0  0  0  0  0  1  0  0  0  0  0  0
  191.7090  176.9860  148.0840 O   0  0  0  0  0  0  0  0  0  0  0  0
  189.1710  178.3580  139.7760 C   0  0  0  0  0  2  0  0  0  0  0  0
  189.0490  178.1570  138.2650 C   0  0  0  0  0  2  0  0  0  0  0  0
  187.9120  177.2190  137.8400 C   0  0  2  0  0  3  0  0  0  0  0  0
  188.3950  175.8830  137.3630 C   0  0  0  0  0  3  0  0  0  0  0  0
  189.3820  175.8010  136.6500 O   0  0  0  0  0  0  0  0  0  0  0  0
  186.9460  177.8580  136.8830 C   0  0  0  0  0  0  0  0  0  0  0  0
  186.8660  179.0760  136.8430 O   0  0  0  0  0  0  0  0  0  0  0  0
  186.0970  177.0330  135.9610 C   0  0  0  0  0  2  0  0  0  0  0  0
  184.7260  176.8310  136.5150 C   0  0  0  0  0  0  0  0  0  0  0  0
  182.3530  177.3190  136.4590 C   0  0  0  0  0  3  0  0  0  0  0  0
  183.2340  175.7860  138.1170 C   0  0  0  0  0  3  0  0  0  0  0  0
  182.1500  176.4590  137.5450 C   0  0  0  0  0  3  0  0  0  0  0  0
  184.5210  175.9720  137.6050 C   0  0  0  0  0  3  0  0  0  0  0  0
  183.6400  177.5040  135.9450 C   0  0  0  0  0  3  0  0  0  0  0  0
  1 13  1  0  0  0  0
  1 19  1  0  0  0  0
  2  4  2  0  0  0  0
  3 11  1  0  0  0  0
  4  1  1  0  0  0  0
  5 15  1  0  0  0  0
  5 16  1  0  0  0  0
  6 14  1  0  0  0  0
  6 13  2  0  0  0  0
  7 18  1  0  0  0  0
  8  3  2  0  0  0  0
  8 12  1  0  0  0  0
  9  3  1  0  0  0  0
 10  7  1  0  0  0  0
 10 14  1  0  0  0  0
 11  7  2  0  0  0  0
 12 10  2  0  0  0  0
 13 17  1  0  0  0  0
 14  5  2  0  0  0  0
 16 21  1  6  0  0  0
 17 16  1  0  0  0  0
 18 15  2  0  0  0  0
 19 20  3  0  0  0  0
 21 26  1  0  0  0  0
 23 29  1  0  0  0  0
 23 22  1  0  0  0  0
 24 26  2  0  0  0  0
 24 27  1  0  0  0  0
 25 22  2  0  0  0  0
 26 25  1  0  0  0  0
 27 23  2  0  0  0  0
 28 29  1  0  0  0  0
 30  4  1  0  0  0  0
 31 30  1  0  0  0  0
 32 33  1  6  0  0  0
 32 31  1  0  0  0  0
 34 33  2  0  0  0  0
 35 32  1  0  0  0  0
 36 35  2  0  0  0  0
 37 38  1  0  0  0  0
 37 35  1  0  0  0  0
 38 42  1  0  0  0  0
 39 41  2  0  0  0  0
 41 40  1  0  0  0  0
 42 40  2  0  0  0  0
 43 39  1  0  0  0  0
 43 38  2  0  0  0  0
M  END
>  <MODEL>
6

>  <REMARK>
 VINA RESULT:      -8.2      2.939      5.509
  Name = 
  11 active torsions:
  status: ('A' for Active; 'I' for Inactive)
    1  A    between atoms: C_1  and  C_34
    2  A    between atoms: C_1  and  C_35
    3  A    between atoms: N_2  and  C_12
    4  A    between atoms: C_4  and  C_7
    5  A    between atoms: C_4  and  C_15
    6  A    between atoms: C_6  and  C_7
    7  A    between atoms: C_10  and  C_15
    8  A    between atoms: C_11  and  C_14
    9  A    between atoms: C_14  and  C_22
   10  A    between atoms: C_15  and  C_22
   11  A    between atoms: C_19  and  O_37
                            x       y       z     vdW  Elec       q    Type
                         _______ _______ _______ _____ _____    ______ ____

>  <TORSDO>
F 11

$$$$
=
 OpenBabel10262422423D

 43 47  0  0  1  0  0  0  0  0999 V2000
  187.1720  178.2410  137.4390 N   0  0  0  0  0  0  0  0  0  0  0  0
  189.2660  179.2620  137.6650 O   0  0  0  0  0  0  0  0  0  0  0  0
  183.4770  179.3410  143.7630 C   0  0  0  0  0  0  0  0  0  0  0  0
  188.3160  178.6450  138.2190 C   0  0  0  0  0  0  0  0  0  0  0  0
  183.3010  177.5400  139.0700 C   0  0  0  0  0  0  0  0  0  0  0  0
  185.6210  178.3010  139.2460 N   0  0  0  0  0  0  0  0  0  0  0  0
  182.7600  178.3630  141.6670 C   0  0  0  0  0  0  0  0  0  0  0  0
  184.7640  179.5180  143.2460 C   0  0  0  0  0  3  0  0  0  0  0  0
  183.2010  179.7230  145.0330 F   0  0  0  0  0  0  0  0  0  0  0  0
  184.0610  178.5380  141.1410 C   0  0  0  0  0  0  0  0  0  0  0  0
  182.4780  178.7640  142.9760 C   0  0  0  0  0  3  0  0  0  0  0  0
  185.0560  179.1190  141.9380 C   0  0  0  0  0  3  0  0  0  0  0  0
  185.8670  178.0110  138.0030 C   0  0  0  0  0  0  0  0  0  0  0  0
  184.3250  178.1240  139.8270 C   0  0  0  0  0  0  0  0  0  0  0  0
  182.0290  177.3920  139.6300 C   0  0  0  0  0  3  0  0  0  0  0  0
  183.5920  177.0170  137.6940 C   0  0  1  0  0  3  0  0  0  0  0  0
  184.8360  177.5150  137.1870 O   0  0  0  0  0  0  0  0  0  0  0  0
  181.7870  177.8050  140.9020 N   0  0  0  0  0  0  0  0  0  0  0  0
  187.3270  178.0990  136.0490 C   0  0  0  0  0  0  0  0  0  0  0  0
  187.4540  177.9810  134.9030 N   0  0  0  0  0  0  0  0  0  0  0  0
  183.6230  175.4950  137.7210 C   0  0  0  0  0  2  0  0  0  0  0  0
  181.1000  173.0170  136.3440 C   0  0  0  0  0  3  0  0  0  0  0  0
  180.1520  173.8780  135.7640 C   0  0  0  0  0  0  0  0  0  0  0  0
  181.4830  175.7860  136.4620 C   0  0  0  0  0  3  0  0  0  0  0  0
  182.2320  173.5390  136.9790 C   0  0  0  0  0  3  0  0  0  0  0  0
  182.4230  174.9250  137.0400 C   0  0  0  0  0  0  0  0  0  0  0  0
  180.3520  175.2630  135.8270 C   0  0  0  0  0  3  0  0  0  0  0  0
  178.9310  172.0680  134.6000 C   0  0  0  0  0  1  0  0  0  0  0  0
  179.0090  173.3880  135.1240 O   0  0  0  0  0  0  0  0  0  0  0  0
  188.4170  178.3340  139.6820 C   0  0  0  0  0  2  0  0  0  0  0  0
  189.3310  177.1380  139.9520 C   0  0  0  0  0  2  0  0  0  0  0  0
  190.5990  177.4770  140.7460 C   0  0  2  0  0  3  0  0  0  0  0  0
  191.8620  177.1330  140.0170 C   0  0  0  0  0  3  0  0  0  0  0  0
  191.8250  176.7720  138.8520 O   0  0  0  0  0  0  0  0  0  0  0  0
  190.5790  176.9380  142.1490 C   0  0  0  0  0  0  0  0  0  0  0  0
  190.6020  175.7290  142.3230 O   0  0  0  0  0  0  0  0  0  0  0  0
  190.5550  177.8540  143.3370 C   0  0  0  0  0  2  0  0  0  0  0  0
  189.3250  177.6530  144.1580 C   0  0  0  0  0  0  0  0  0  0  0  0
  186.9460  177.2070  144.2910 C   0  0  0  0  0  3  0  0  0  0  0  0
  188.2320  177.5330  146.3200 C   0  0  0  0  0  3  0  0  0  0  0  0
  187.0110  177.2740  145.6880 C   0  0  0  0  0  3  0  0  0  0  0  0
  189.3880  177.7240  145.5570 C   0  0  0  0  0  3  0  0  0  0  0  0
  188.1030  177.3960  143.5280 C   0  0  0  0  0  3  0  0  0  0  0  0
  1 13  1  0  0  0  0
  1  4  1  0  0  0  0
  2  4  2  0  0  0  0
  3  9  1  0  0  0  0
  4 30  1  0  0  0  0
  5 15  2  0  0  0  0
  5 14  1  0  0  0  0
  6 14  1  0  0  0  0
  7 11  1  0  0  0  0
  8  3  1  0  0  0  0
 10  7  1  0  0  0  0
 10 12  1  0  0  0  0
 11  3  2  0  0  0  0
 12  8  2  0  0  0  0
 13  6  2  0  0  0  0
 14 10  2  0  0  0  0
 15 18  1  0  0  0  0
 16 21  1  1  0  0  0
 16  5  1  0  0  0  0
 17 16  1  0  0  0  0
 17 13  1  0  0  0  0
 18  7  2  0  0  0  0
 19  1  1  0  0  0  0
 20 19  3  0  0  0  0
 22 25  1  0  0  0  0
 23 27  1  0  0  0  0
 23 22  2  0  0  0  0
 24 26  1  0  0  0  0
 25 26  2  0  0  0  0
 26 21  1  0  0  0  0
 27 24  2  0  0  0  0
 28 29  1  0  0  0  0
 29 23  1  0  0  0  0
 30 31  1  0  0  0  0
 32 31  1  6  0  0  0
 32 35  1  0  0  0  0
 33 32  1  0  0  0  0
 34 33  2  0  0  0  0
 35 36  2  0  0  0  0
 35 37  1  0  0  0  0
 37 38  1  0  0  0  0
 38 42  1  0  0  0  0
 39 41  2  0  0  0  0
 41 40  1  0  0  0  0
 42 40  2  0  0  0  0
 43 38  2  0  0  0  0
 43 39  1  0  0  0  0
M  END
>  <MODEL>
7

>  <REMARK>
 VINA RESULT:      -8.1      3.786     10.081
  Name = 
  11 active torsions:
  status: ('A' for Active; 'I' for Inactive)
    1  A    between atoms: C_1  and  C_34
    2  A    between atoms: C_1  and  C_35
    3  A    between atoms: N_2  and  C_12
    4  A    between atoms: C_4  and  C_7
    5  A    between atoms: C_4  and  C_15
    6  A    between atoms: C_6  and  C_7
    7  A    between atoms: C_10  and  C_15
    8  A    between atoms: C_11  and  C_14
    9  A    between atoms: C_14  and  C_22
   10  A    between atoms: C_15  and  C_22
   11  A    between atoms: C_19  and  O_37
                            x       y       z     vdW  Elec       q    Type
                         _______ _______ _______ _____ _____    ______ ____

>  <TORSDO>
F 11

$$$$
=
 OpenBabel10262422423D

 43 47  0  0  1  0  0  0  0  0999 V2000
  183.9760  178.6120  142.0730 N   0  0  0  0  0  0  0  0  0  0  0  0
  181.8080  178.9690  141.2640 O   0  0  0  0  0  0  0  0  0  0  0  0
  188.4520  177.9720  136.2070 C   0  0  0  0  0  0  0  0  0  0  0  0
  182.9300  178.4150  141.1000 C   0  0  0  0  0  0  0  0  0  0  0  0
  188.1290  178.2180  141.2200 C   0  0  0  0  0  0  0  0  0  0  0  0
  185.7790  178.3120  140.5450 N   0  0  0  0  0  0  0  0  0  0  0  0
  188.9570  178.0690  138.5730 C   0  0  0  0  0  0  0  0  0  0  0  0
  187.0850  178.0430  136.4910 C   0  0  0  0  0  3  0  0  0  0  0  0
  188.8710  177.8830  134.9230 F   0  0  0  0  0  0  0  0  0  0  0  0
  187.5760  178.1390  138.8650 C   0  0  0  0  0  0  0  0  0  0  0  0
  189.3860  177.9840  137.2460 C   0  0  0  0  0  3  0  0  0  0  0  0
  186.6470  178.1270  137.8160 C   0  0  0  0  0  3  0  0  0  0  0  0
  185.3780  178.4790  141.7700 C   0  0  0  0  0  0  0  0  0  0  0  0
  187.1660  178.2180  140.2040 C   0  0  0  0  0  0  0  0  0  0  0  0
  189.4850  178.1520  140.8850 C   0  0  0  0  0  3  0  0  0  0  0  0
  187.7010  178.2180  142.6590 C   0  0  1  0  0  3  0  0  0  0  0  0
  186.3230  178.5820  142.8050 O   0  0  0  0  0  0  0  0  0  0  0  0
  189.8660  178.0830  139.5820 N   0  0  0  0  0  0  0  0  0  0  0  0
  183.6130  178.9880  143.3780 C   0  0  0  0  0  0  0  0  0  0  0  0
  183.3120  179.2980  144.4530 N   0  0  0  0  0  0  0  0  0  0  0  0
  187.9340  176.8390  143.2620 C   0  0  0  0  0  2  0  0  0  0  0  0
  189.3770  177.2540  146.7470 C   0  0  0  0  0  3  0  0  0  0  0  0
  190.7430  177.0220  146.5110 C   0  0  0  0  0  0  0  0  0  0  0  0
  190.2620  176.6790  144.1560 C   0  0  0  0  0  3  0  0  0  0  0  0
  188.4590  177.1980  145.6920 C   0  0  0  0  0  3  0  0  0  0  0  0
  188.9020  176.9080  144.3950 C   0  0  0  0  0  0  0  0  0  0  0  0
  191.1780  176.7360  145.2120 C   0  0  0  0  0  3  0  0  0  0  0  0
  192.4330  175.9290  147.9520 C   0  0  0  0  0  1  0  0  0  0  0  0
  191.6840  177.0690  147.5450 O   0  0  0  0  0  0  0  0  0  0  0  0
  183.1330  177.5480  139.8940 C   0  0  0  0  0  2  0  0  0  0  0  0
  182.8240  178.2920  138.5950 C   0  0  0  0  0  2  0  0  0  0  0  0
  182.8690  177.4150  137.3360 C   0  0  2  0  0  3  0  0  0  0  0  0
  182.1590  178.0240  136.1660 C   0  0  0  0  0  3  0  0  0  0  0  0
  182.6050  177.8970  135.0360 O   0  0  0  0  0  0  0  0  0  0  0  0
  182.4470  175.9940  137.5900 C   0  0  0  0  0  0  0  0  0  0  0  0
  183.2680  175.1980  138.0190 O   0  0  0  0  0  0  0  0  0  0  0  0
  181.0370  175.5440  137.3520 C   0  0  0  0  0  2  0  0  0  0  0  0
  180.3050  175.3340  138.6350 C   0  0  0  0  0  0  0  0  0  0  0  0
  179.2310  176.2490  140.6060 C   0  0  0  0  0  3  0  0  0  0  0  0
  179.3190  173.8490  140.2800 C   0  0  0  0  0  3  0  0  0  0  0  0
  178.9310  174.9530  141.0450 C   0  0  0  0  0  3  0  0  0  0  0  0
  180.0070  174.0380  139.0770 C   0  0  0  0  0  3  0  0  0  0  0  0
  179.9170  176.4380  139.4020 C   0  0  0  0  0  3  0  0  0  0  0  0
  1 19  1  0  0  0  0
  3  8  2  0  0  0  0
  3 11  1  0  0  0  0
  4  2  2  0  0  0  0
  4  1  1  0  0  0  0
  5 16  1  0  0  0  0
  6 13  2  0  0  0  0
  7 10  1  0  0  0  0
  7 18  1  0  0  0  0
  8 12  1  0  0  0  0
  9  3  1  0  0  0  0
 10 14  1  0  0  0  0
 11  7  2  0  0  0  0
 12 10  2  0  0  0  0
 13  1  1  0  0  0  0
 13 17  1  0  0  0  0
 14  6  1  0  0  0  0
 14  5  2  0  0  0  0
 15  5  1  0  0  0  0
 16 17  1  0  0  0  0
 16 21  1  6  0  0  0
 18 15  2  0  0  0  0
 19 20  3  0  0  0  0
 21 26  1  0  0  0  0
 23 22  1  0  0  0  0
 23 29  1  0  0  0  0
 24 26  2  0  0  0  0
 24 27  1  0  0  0  0
 25 22  2  0  0  0  0
 26 25  1  0  0  0  0
 27 23  2  0  0  0  0
 29 28  1  0  0  0  0
 30  4  1  0  0  0  0
 31 30  1  0  0  0  0
 32 33  1  6  0  0  0
 32 35  1  0  0  0  0
 32 31  1  0  0  0  0
 34 33  2  0  0  0  0
 35 36  2  0  0  0  0
 37 35  1  0  0  0  0
 37 38  1  0  0  0  0
 38 42  2  0  0  0  0
 38 43  1  0  0  0  0
 39 41  1  0  0  0  0
 40 41  2  0  0  0  0
 42 40  1  0  0  0  0
 43 39  2  0  0  0  0
M  END
>  <MODEL>
8

>  <REMARK>
 VINA RESULT:      -8.1      2.194      3.641
  Name = 
  11 active torsions:
  status: ('A' for Active; 'I' for Inactive)
    1  A    between atoms: C_1  and  C_34
    2  A    between atoms: C_1  and  C_35
    3  A    between atoms: N_2  and  C_12
    4  A    between atoms: C_4  and  C_7
    5  A    between atoms: C_4  and  C_15
    6  A    between atoms: C_6  and  C_7
    7  A    between atoms: C_10  and  C_15
    8  A    between atoms: C_11  and  C_14
    9  A    between atoms: C_14  and  C_22
   10  A    between atoms: C_15  and  C_22
   11  A    between atoms: C_19  and  O_37
                            x       y       z     vdW  Elec       q    Type
                         _______ _______ _______ _____ _____    ______ ____

>  <TORSDO>
F 11

$$$$
=
 OpenBabel10262422423D

 43 47  0  0  1  0  0  0  0  0999 V2000
  187.5920  178.3370  139.2820 N   0  0  0  0  0  0  0  0  0  0  0  0
  189.8970  178.1520  138.9130 O   0  0  0  0  0  0  0  0  0  0  0  0
  186.4940  178.0750  146.6020 C   0  0  0  0  0  0  0  0  0  0  0  0
  188.9010  177.8310  139.6170 C   0  0  0  0  0  0  0  0  0  0  0  0
  184.4040  178.7390  142.0750 C   0  0  0  0  0  0  0  0  0  0  0  0
  186.7370  178.2730  141.5040 N   0  0  0  0  0  0  0  0  0  0  0  0
  184.9480  178.5080  144.7890 C   0  0  0  0  0  0  0  0  0  0  0  0
  187.5280  177.8860  145.6800 C   0  0  0  0  0  3  0  0  0  0  0  0
  186.7390  177.9500  147.9280 F   0  0  0  0  0  0  0  0  0  0  0  0
  185.9900  178.3150  143.8540 C   0  0  0  0  0  0  0  0  0  0  0  0
  185.2060  178.3840  146.1570 C   0  0  0  0  0  3  0  0  0  0  0  0
  187.2790  178.0060  144.3100 C   0  0  0  0  0  3  0  0  0  0  0  0
  186.5240  178.4710  140.2380 C   0  0  0  0  0  0  0  0  0  0  0  0
  185.7080  178.4380  142.4850 C   0  0  0  0  0  0  0  0  0  0  0  0
  183.4050  178.9260  143.0360 C   0  0  0  0  0  3  0  0  0  0  0  0
  184.0710  178.7910  140.6130 C   0  0  1  0  0  3  0  0  0  0  0  0
  185.2490  178.8710  139.8010 O   0  0  0  0  0  0  0  0  0  0  0  0
  183.6960  178.8110  144.3590 N   0  0  0  0  0  0  0  0  0  0  0  0
  187.3560  178.7550  137.9600 C   0  0  0  0  0  0  0  0  0  0  0  0
  187.1610  179.0980  136.8710 N   0  0  0  0  0  0  0  0  0  0  0  0
  183.2660  177.5570  140.2270 C   0  0  0  0  0  2  0  0  0  0  0  0
  180.6590  178.9600  137.8540 C   0  0  0  0  0  3  0  0  0  0  0  0
  180.9670  178.2740  136.6660 C   0  0  0  0  0  0  0  0  0  0  0  0
  182.7680  177.1220  137.8170 C   0  0  0  0  0  3  0  0  0  0  0  0
  181.4030  178.7280  139.0150 C   0  0  0  0  0  3  0  0  0  0  0  0
  182.4600  177.8090  138.9970 C   0  0  0  0  0  0  0  0  0  0  0  0
  182.0230  177.3550  136.6560 C   0  0  0  0  0  3  0  0  0  0  0  0
  180.5290  179.5560  134.5950 C   0  0  0  0  0  1  0  0  0  0  0  0
  180.2440  178.4860  135.4870 O   0  0  0  0  0  0  0  0  0  0  0  0
  189.1110  176.9120  140.7820 C   0  0  0  0  0  2  0  0  0  0  0  0
  190.5590  176.4310  140.8790 C   0  0  0  0  0  2  0  0  0  0  0  0
  191.5290  177.4570  141.4820 C   0  0  2  0  0  3  0  0  0  0  0  0
  192.8480  177.5110  140.7740 C   0  0  0  0  0  3  0  0  0  0  0  0
  192.9630  177.0620  139.6450 O   0  0  0  0  0  0  0  0  0  0  0  0
  191.6780  177.3230  142.9720 C   0  0  0  0  0  0  0  0  0  0  0  0
  191.8330  178.3290  143.6470 O   0  0  0  0  0  0  0  0  0  0  0  0
  191.6170  175.9850  143.6450 C   0  0  0  0  0  2  0  0  0  0  0  0
  191.6080  176.1200  145.1310 C   0  0  0  0  0  0  0  0  0  0  0  0
  192.4250  175.4180  147.3030 C   0  0  0  0  0  3  0  0  0  0  0  0
  190.7760  177.1880  147.1440 C   0  0  0  0  0  3  0  0  0  0  0  0
  191.5980  176.3650  147.9200 C   0  0  0  0  0  3  0  0  0  0  0  0
  190.7780  177.0650  145.7520 C   0  0  0  0  0  3  0  0  0  0  0  0
  192.4290  175.2970  145.9100 C   0  0  0  0  0  3  0  0  0  0  0  0
  1  4  1  0  0  0  0
  1 13  1  0  0  0  0
  2  4  2  0  0  0  0
  3  9  1  0  0  0  0
  4 30  1  0  0  0  0
  5 14  2  0  0  0  0
  5 15  1  0  0  0  0
  6 14  1  0  0  0  0
  7 11  2  0  0  0  0
  8  3  2  0  0  0  0
 10 12  2  0  0  0  0
 10  7  1  0  0  0  0
 11  3  1  0  0  0  0
 12  8  1  0  0  0  0
 13  6  2  0  0  0  0
 14 10  1  0  0  0  0
 15 18  2  0  0  0  0
 16 21  1  6  0  0  0
 16  5  1  0  0  0  0
 17 13  1  0  0  0  0
 17 16  1  0  0  0  0
 18  7  1  0  0  0  0
 19  1  1  0  0  0  0
 20 19  3  0  0  0  0
 22 25  1  0  0  0  0
 23 22  2  0  0  0  0
 24 26  1  0  0  0  0
 26 25  2  0  0  0  0
 26 21  1  0  0  0  0
 27 23  1  0  0  0  0
 27 24  2  0  0  0  0
 28 29  1  0  0  0  0
 29 23  1  0  0  0  0
 30 31  1  0  0  0  0
 31 32  1  0  0  0  0
 32 33  1  6  0  0  0
 32 35  1  0  0  0  0
 34 33  2  0  0  0  0
 35 37  1  0  0  0  0
 35 36  2  0  0  0  0
 37 38  1  0  0  0  0
 38 42  2  0  0  0  0
 38 43  1  0  0  0  0
 39 41  1  0  0  0  0
 40 41  2  0  0  0  0
 42 40  1  0  0  0  0
 43 39  2  0  0  0  0
M  END
>  <MODEL>
9

>  <REMARK>
 VINA RESULT:      -7.9      3.030     10.649
  Name = 
  11 active torsions:
  status: ('A' for Active; 'I' for Inactive)
    1  A    between atoms: C_1  and  C_34
    2  A    between atoms: C_1  and  C_35
    3  A    between atoms: N_2  and  C_12
    4  A    between atoms: C_4  and  C_7
    5  A    between atoms: C_4  and  C_15
    6  A    between atoms: C_6  and  C_7
    7  A    between atoms: C_10  and  C_15
    8  A    between atoms: C_11  and  C_14
    9  A    between atoms: C_14  and  C_22
   10  A    between atoms: C_15  and  C_22
   11  A    between atoms: C_19  and  O_37
                            x       y       z     vdW  Elec       q    Type
                         _______ _______ _______ _____ _____    ______ ____

>  <TORSDO>
F 11

$$$$
