=
 OpenBabel10262421523D

 30 33  0  0  1  0  0  0  0  0999 V2000
  183.7080  178.1980  140.8300 C   0  0  0  0  0  2  0  0  0  0  0  0
  185.7910  178.1940  142.3470 C   0  0  2  0  0  3  0  0  0  0  0  0
  181.1740  179.3320  144.0490 N   0  0  0  0  0  0  0  0  0  0  0  0
  182.1600  178.1750  140.8330 C   0  0  1  0  0  3  0  0  0  0  0  0
  180.1050  179.4620  143.3360 C   0  0  0  0  0  0  0  0  0  0  0  0
  186.2660  177.8290  143.7620 C   0  0  0  0  0  2  0  0  0  0  0  0
  186.2750  179.5900  141.9800 C   0  0  0  0  0  1  0  0  0  0  0  0
  182.1180  178.7500  143.1100 C   0  0  1  0  0  3  0  0  0  0  0  0
  185.3260  178.2490  144.8770 C   0  0  0  0  0  3  0  0  0  0  0  0
  184.2690  178.0740  142.2640 C   0  0  1  0  0  3  0  0  0  0  0  0
  181.6950  179.1810  141.7880 N   0  0  2  0  0  0  0  0  0  0  0  0
  178.9310  179.9050  143.8460 F   0  0  0  0  0  0  0  0  0  0  0  0
  180.3070  179.2090  141.9510 N   0  0  0  0  0  2  0  0  0  0  0  0
  184.0950  178.7440  144.6590 C   0  0  0  0  0  3  0  0  0  0  0  0
  183.5940  179.0250  143.2700 C   0  0  2  0  0  3  0  0  0  0  0  0
  180.4020  177.7980  137.6320 O   0  0  0  0  0  0  0  0  0  0  0  0
  180.7310  177.5710  138.8280 C   0  0  0  0  0  0  0  0  0  0  0  0
  181.6660  178.4570  139.4820 N   0  0  0  0  0  0  0  0  0  0  0  0
  180.4520  175.0570  139.2130 C   0  0  0  0  0  3  0  0  0  0  0  0
  179.2650  176.4580  140.4360 O   0  0  0  0  0  0  0  0  0  0  0  0
  180.1560  176.3780  139.4810 C   0  0  0  0  0  0  0  0  0  0  0  0
  179.6550  174.3320  140.0800 C   0  0  0  0  0  3  0  0  0  0  0  0
  178.9310  175.2510  140.8170 C   0  0  0  0  0  3  0  0  0  0  0  0
  182.3030  179.5130  138.6970 C   0  0  0  0  0  2  0  0  0  0  0  0
  181.5350  180.8150  138.8570 C   0  0  0  0  0  2  0  0  0  0  0  0
  181.1590  181.3860  137.5040 C   0  0  0  0  0  2  0  0  0  0  0  0
  180.5390  182.7630  137.6620 C   0  0  0  0  0  2  0  0  0  0  0  0
  181.0810  183.6120  135.3860 O   0  0  0  0  0  0  0  0  0  0  0  0
  181.2350  183.7210  136.7600 C   0  0  0  0  0  0  0  0  0  0  0  0
  181.9560  184.6320  137.2430 O   0  0  0  0  0  1  0  0  0  0  0  0
  1  4  1  0  0  0  0
  2  7  1  1  0  0  0
  2  6  1  0  0  0  0
  4 18  1  6  0  0  0
  4 11  1  0  0  0  0
  5 12  1  0  0  0  0
  5  3  2  0  0  0  0
  6  9  1  0  0  0  0
  8 15  1  0  0  0  0
  8  3  1  1  0  0  0
 10  1  1  6  0  0  0
 10  2  1  0  0  0  0
 10 15  1  0  0  0  0
 11 13  1  1  0  0  0
 11  8  1  0  0  0  0
 13  5  1  0  0  0  0
 14  9  2  0  0  0  0
 15 14  1  1  0  0  0
 16 17  2  0  0  0  0
 17 21  1  0  0  0  0
 17 18  1  0  0  0  0
 19 21  2  0  0  0  0
 19 22  1  0  0  0  0
 20 23  1  0  0  0  0
 21 20  1  0  0  0  0
 22 23  2  0  0  0  0
 24 25  1  0  0  0  0
 24 18  1  0  0  0  0
 26 27  1  0  0  0  0
 26 25  1  0  0  0  0
 28 29  2  0  0  0  0
 29 30  1  0  0  0  0
 29 27  1  0  0  0  0
M  END
>  <MODEL>
1

>  <REMARK>
 VINA RESULT:      -6.1      0.000      0.000
  Name = 
  7 active torsions:
  status: ('A' for Active; 'I' for Inactive)
    1  A    between atoms: C_4  and  N_13
    2  A    between atoms: C_7  and  C_15
    3  A    between atoms: C_7  and  C_16
    4  A    between atoms: C_8  and  C_12
    5  A    between atoms: N_13  and  C_27
    6  A    between atoms: C_16  and  C_30
    7  A    between atoms: C_27  and  C_30
                            x       y       z     vdW  Elec       q    Type
                         _______ _______ _______ _____ _____    ______ ____

>  <TORSDO>
F 7

$$$$
=
 OpenBabel10262421523D

 30 33  0  0  1  0  0  0  0  0999 V2000
  188.6480  177.2780  140.5910 C   0  0  0  0  0  2  0  0  0  0  0  0
  189.0930  177.1690  143.1260 C   0  0  2  0  0  3  0  0  0  0  0  0
  184.8910  179.1790  141.1740 N   0  0  0  0  0  0  0  0  0  0  0  0
  187.5470  177.4820  139.5220 C   0  0  1  0  0  3  0  0  0  0  0  0
  184.6440  179.3700  139.9210 C   0  0  0  0  0  0  0  0  0  0  0  0
  188.3970  176.9250  144.4750 C   0  0  0  0  0  2  0  0  0  0  0  0
  189.9570  178.4190  143.2050 C   0  0  0  0  0  1  0  0  0  0  0  0
  186.0840  178.3490  141.1430 C   0  0  1  0  0  3  0  0  0  0  0  0
  187.0570  177.6190  144.6330 C   0  0  0  0  0  3  0  0  0  0  0  0
  188.0490  177.2620  142.0140 C   0  0  1  0  0  3  0  0  0  0  0  0
  186.7650  178.6610  139.8990 N   0  0  2  0  0  0  0  0  0  0  0  0
  183.5530  180.0420  139.4810 F   0  0  0  0  0  0  0  0  0  0  0  0
  185.6770  178.9120  139.0570 N   0  0  0  0  0  2  0  0  0  0  0  0
  186.4300  178.2560  143.6290 C   0  0  0  0  0  3  0  0  0  0  0  0
  187.0740  178.4240  142.2810 C   0  0  2  0  0  3  0  0  0  0  0  0
  188.2860  177.0600  135.9510 O   0  0  0  0  0  0  0  0  0  0  0  0
  187.6670  176.9570  137.0450 C   0  0  0  0  0  0  0  0  0  0  0  0
  188.1680  177.6550  138.2060 N   0  0  0  0  0  0  0  0  0  0  0  0
  186.4370  174.7200  137.2180 C   0  0  0  0  0  3  0  0  0  0  0  0
  185.2550  176.5670  136.9740 O   0  0  0  0  0  0  0  0  0  0  0  0
  186.4710  176.0930  137.0760 C   0  0  0  0  0  0  0  0  0  0  0  0
  185.0930  174.3920  137.1820 C   0  0  0  0  0  3  0  0  0  0  0  0
  184.4000  175.5770  137.0240 C   0  0  0  0  0  3  0  0  0  0  0  0
  189.4510  178.3500  138.1110 C   0  0  0  0  0  2  0  0  0  0  0  0
  190.4980  177.4280  137.5080 C   0  0  0  0  0  2  0  0  0  0  0  0
  190.9310  176.3790  138.5140 C   0  0  0  0  0  2  0  0  0  0  0  0
  192.0910  175.5650  137.9680 C   0  0  0  0  0  2  0  0  0  0  0  0
  193.9730  176.7410  136.8440 O   0  0  0  0  0  0  0  0  0  0  0  0
  193.3330  176.3820  138.0200 C   0  0  0  0  0  0  0  0  0  0  0  0
  193.7980  176.7530  139.1290 O   0  0  0  0  0  1  0  0  0  0  0  0
  2  7  1  1  0  0  0
  2  6  1  0  0  0  0
  4 18  1  6  0  0  0
  4 11  1  0  0  0  0
  4  1  1  0  0  0  0
  5  3  2  0  0  0  0
  6  9  1  0  0  0  0
  8  3  1  1  0  0  0
  8 15  1  0  0  0  0
 10  1  1  6  0  0  0
 10 15  1  0  0  0  0
 10  2  1  0  0  0  0
 11 13  1  6  0  0  0
 11  8  1  0  0  0  0
 12  5  1  0  0  0  0
 13  5  1  0  0  0  0
 14  9  2  0  0  0  0
 15 14  1  1  0  0  0
 16 17  2  0  0  0  0
 17 21  1  0  0  0  0
 17 18  1  0  0  0  0
 20 23  1  0  0  0  0
 20 21  1  0  0  0  0
 21 19  2  0  0  0  0
 22 19  1  0  0  0  0
 23 22  2  0  0  0  0
 24 18  1  0  0  0  0
 25 24  1  0  0  0  0
 25 26  1  0  0  0  0
 27 29  1  0  0  0  0
 27 26  1  0  0  0  0
 28 29  2  0  0  0  0
 29 30  1  0  0  0  0
M  END
>  <MODEL>
2

>  <REMARK>
 VINA RESULT:      -6.0      5.934      7.672
  Name = 
  7 active torsions:
  status: ('A' for Active; 'I' for Inactive)
    1  A    between atoms: C_4  and  N_13
    2  A    between atoms: C_7  and  C_15
    3  A    between atoms: C_7  and  C_16
    4  A    between atoms: C_8  and  C_12
    5  A    between atoms: N_13  and  C_27
    6  A    between atoms: C_16  and  C_30
    7  A    between atoms: C_27  and  C_30
                            x       y       z     vdW  Elec       q    Type
                         _______ _______ _______ _____ _____    ______ ____

>  <TORSDO>
F 7

$$$$
=
 OpenBabel10262421523D

 30 33  0  0  1  0  0  0  0  0999 V2000
  188.6970  177.7840  143.0300 C   0  0  0  0  0  2  0  0  0  0  0  0
  190.9860  177.4890  144.1750 C   0  0  2  0  0  3  0  0  0  0  0  0
  186.6570  177.7940  146.7590 N   0  0  0  0  0  0  0  0  0  0  0  0
  187.1680  177.6610  143.2410 C   0  0  1  0  0  3  0  0  0  0  0  0
  185.4890  178.0500  146.2700 C   0  0  0  0  0  0  0  0  0  0  0  0
  191.6790  176.7700  145.3440 C   0  0  0  0  0  2  0  0  0  0  0  0
  191.3760  178.9600  144.1640 C   0  0  0  0  0  1  0  0  0  0  0  0
  187.4600  177.5640  145.5700 C   0  0  1  0  0  3  0  0  0  0  0  0
  190.9090  176.7960  146.6520 C   0  0  0  0  0  3  0  0  0  0  0  0
  189.4720  177.2980  144.2740 C   0  0  1  0  0  3  0  0  0  0  0  0
  186.8310  178.3230  144.5020 N   0  0  2  0  0  0  0  0  0  0  0  0
  184.3960  178.2520  147.0440 F   0  0  0  0  0  0  0  0  0  0  0  0
  185.4840  178.2130  144.8570 N   0  0  0  0  0  2  0  0  0  0  0  0
  189.6490  177.2500  146.7600 C   0  0  0  0  0  3  0  0  0  0  0  0
  188.9370  177.8790  145.5960 C   0  0  2  0  0  3  0  0  0  0  0  0
  186.4910  179.0040  139.8920 O   0  0  0  0  0  0  0  0  0  0  0  0
  187.0890  178.3820  140.8120 C   0  0  0  0  0  0  0  0  0  0  0  0
  186.4680  178.2800  142.1120 N   0  0  0  0  0  0  0  0  0  0  0  0
  189.4560  178.4430  139.8420 C   0  0  0  0  0  3  0  0  0  0  0  0
  188.7700  176.6090  140.8580 O   0  0  0  0  0  0  0  0  0  0  0  0
  188.4190  177.8190  140.5060 C   0  0  0  0  0  0  0  0  0  0  0  0
  190.4710  177.5040  139.8070 C   0  0  0  0  0  3  0  0  0  0  0  0
  189.9920  176.3780  140.4490 C   0  0  0  0  0  3  0  0  0  0  0  0
  185.2270  179.0120  142.3590 C   0  0  0  0  0  2  0  0  0  0  0  0
  184.0340  178.1730  141.9310 C   0  0  0  0  0  2  0  0  0  0  0  0
  182.7570  178.9880  141.9870 C   0  0  0  0  0  2  0  0  0  0  0  0
  182.1980  179.0040  143.3990 C   0  0  0  0  0  2  0  0  0  0  0  0
  180.2830  180.4890  142.8360 O   0  0  0  0  0  0  0  0  0  0  0  0
  180.7380  179.2830  143.3460 C   0  0  0  0  0  0  0  0  0  0  0  0
  179.9160  178.4230  143.7580 O   0  0  0  0  0  1  0  0  0  0  0  0
  1  4  1  0  0  0  0
  2  7  1  1  0  0  0
  2 10  1  0  0  0  0
  2  6  1  0  0  0  0
  4 18  1  6  0  0  0
  4 11  1  0  0  0  0
  5  3  2  0  0  0  0
  5 12  1  0  0  0  0
  6  9  1  0  0  0  0
  8 15  1  0  0  0  0
  8  3  1  1  0  0  0
  9 14  2  0  0  0  0
 10  1  1  6  0  0  0
 10 15  1  0  0  0  0
 11 13  1  1  0  0  0
 11  8  1  0  0  0  0
 13  5  1  0  0  0  0
 15 14  1  1  0  0  0
 16 17  2  0  0  0  0
 17 18  1  0  0  0  0
 18 24  1  0  0  0  0
 19 21  2  0  0  0  0
 21 17  1  0  0  0  0
 21 20  1  0  0  0  0
 22 19  1  0  0  0  0
 22 23  2  0  0  0  0
 23 20  1  0  0  0  0
 25 26  1  0  0  0  0
 25 24  1  0  0  0  0
 26 27  1  0  0  0  0
 28 29  2  0  0  0  0
 29 27  1  0  0  0  0
 29 30  1  0  0  0  0
M  END
>  <MODEL>
3

>  <REMARK>
 VINA RESULT:      -5.7      4.497      7.042
  Name = 
  7 active torsions:
  status: ('A' for Active; 'I' for Inactive)
    1  A    between atoms: C_4  and  N_13
    2  A    between atoms: C_7  and  C_15
    3  A    between atoms: C_7  and  C_16
    4  A    between atoms: C_8  and  C_12
    5  A    between atoms: N_13  and  C_27
    6  A    between atoms: C_16  and  C_30
    7  A    between atoms: C_27  and  C_30
                            x       y       z     vdW  Elec       q    Type
                         _______ _______ _______ _____ _____    ______ ____

>  <TORSDO>
F 7

$$$$
=
 OpenBabel10262421523D

 30 33  0  0  1  0  0  0  0  0999 V2000
  188.9760  177.5990  143.1140 C   0  0  0  0  0  2  0  0  0  0  0  0
  191.1860  177.2400  144.3890 C   0  0  2  0  0  3  0  0  0  0  0  0
  186.7350  177.7400  146.7230 N   0  0  0  0  0  0  0  0  0  0  0  0
  187.4340  177.5340  143.2410 C   0  0  1  0  0  3  0  0  0  0  0  0
  185.6060  178.0300  146.1670 C   0  0  0  0  0  0  0  0  0  0  0  0
  191.7860  176.5150  145.6030 C   0  0  0  0  0  2  0  0  0  0  0  0
  191.6300  178.6960  144.3800 C   0  0  0  0  0  1  0  0  0  0  0  0
  187.5930  177.4630  145.5840 C   0  0  1  0  0  3  0  0  0  0  0  0
  190.9480  176.5880  146.8660 C   0  0  0  0  0  3  0  0  0  0  0  0
  189.6630  177.1040  144.4050 C   0  0  1  0  0  3  0  0  0  0  0  0
  187.0530  178.2270  144.4720 N   0  0  2  0  0  0  0  0  0  0  0  0
  184.4810  178.2830  146.8760 F   0  0  0  0  0  0  0  0  0  0  0  0
  185.6850  178.1710  144.7530 N   0  0  0  0  0  2  0  0  0  0  0  0
  189.7000  177.0890  146.8980 C   0  0  0  0  0  3  0  0  0  0  0  0
  189.0770  177.7250  145.6870 C   0  0  2  0  0  3  0  0  0  0  0  0
  187.0030  178.8770  139.8520 O   0  0  0  0  0  0  0  0  0  0  0  0
  187.5280  178.2490  140.8110 C   0  0  0  0  0  0  0  0  0  0  0  0
  186.8200  178.1600  142.0670 N   0  0  0  0  0  0  0  0  0  0  0  0
  189.1660  176.4810  139.9500 C   0  0  0  0  0  3  0  0  0  0  0  0
  189.9650  178.2440  141.0080 O   0  0  0  0  0  0  0  0  0  0  0  0
  188.8660  177.6640  140.5950 C   0  0  0  0  0  0  0  0  0  0  0  0
  190.5440  176.3790  140.0160 C   0  0  0  0  0  3  0  0  0  0  0  0
  190.9930  177.5000  140.6880 C   0  0  0  0  0  3  0  0  0  0  0  0
  185.5780  178.9120  142.2290 C   0  0  0  0  0  2  0  0  0  0  0  0
  184.4000  178.0800  141.7480 C   0  0  0  0  0  2  0  0  0  0  0  0
  183.2120  178.9660  141.4300 C   0  0  0  0  0  2  0  0  0  0  0  0
  182.6800  178.6650  140.0400 C   0  0  0  0  0  2  0  0  0  0  0  0
  184.2220  180.3660  139.0800 O   0  0  0  0  0  1  0  0  0  0  0  0
  183.6840  179.0890  139.0270 C   0  0  0  0  0  0  0  0  0  0  0  0
  184.0500  178.2890  138.1280 O   0  0  0  0  0  0  0  0  0  0  0  0
  1  4  1  0  0  0  0
  2  7  1  1  0  0  0
  2 10  1  0  0  0  0
  2  6  1  0  0  0  0
  4 18  1  6  0  0  0
  4 11  1  0  0  0  0
  5  3  2  0  0  0  0
  5 12  1  0  0  0  0
  6  9  1  0  0  0  0
  8 15  1  0  0  0  0
  8  3  1  1  0  0  0
  9 14  2  0  0  0  0
 10  1  1  6  0  0  0
 10 15  1  0  0  0  0
 11 13  1  1  0  0  0
 11  8  1  0  0  0  0
 13  5  1  0  0  0  0
 15 14  1  1  0  0  0
 16 17  2  0  0  0  0
 17 18  1  0  0  0  0
 18 24  1  0  0  0  0
 19 22  1  0  0  0  0
 19 21  2  0  0  0  0
 21 17  1  0  0  0  0
 21 20  1  0  0  0  0
 22 23  2  0  0  0  0
 23 20  1  0  0  0  0
 25 24  1  0  0  0  0
 26 25  1  0  0  0  0
 27 26  1  0  0  0  0
 29 28  1  0  0  0  0
 29 27  1  0  0  0  0
 30 29  2  0  0  0  0
M  END
>  <MODEL>
4

>  <REMARK>
 VINA RESULT:      -5.7      4.644      6.958
  Name = 
  7 active torsions:
  status: ('A' for Active; 'I' for Inactive)
    1  A    between atoms: C_4  and  N_13
    2  A    between atoms: C_7  and  C_15
    3  A    between atoms: C_7  and  C_16
    4  A    between atoms: C_8  and  C_12
    5  A    between atoms: N_13  and  C_27
    6  A    between atoms: C_16  and  C_30
    7  A    between atoms: C_27  and  C_30
                            x       y       z     vdW  Elec       q    Type
                         _______ _______ _______ _____ _____    ______ ____

>  <TORSDO>
F 7

$$$$
=
 OpenBabel10262421523D

 30 33  0  0  1  0  0  0  0  0999 V2000
  183.8030  177.6790  140.9290 C   0  0  0  0  0  2  0  0  0  0  0  0
  185.6100  177.9240  142.7490 C   0  0  2  0  0  3  0  0  0  0  0  0
  181.0080  179.9610  143.1750 N   0  0  0  0  0  0  0  0  0  0  0  0
  182.2870  177.8090  140.6470 C   0  0  1  0  0  3  0  0  0  0  0  0
  180.0900  179.9770  142.2670 C   0  0  0  0  0  0  0  0  0  0  0  0
  185.8060  177.9520  144.2730 C   0  0  0  0  0  2  0  0  0  0  0  0
  186.3440  179.0930  142.1080 C   0  0  0  0  0  1  0  0  0  0  0  0
  181.9870  179.0370  142.6270 C   0  0  1  0  0  3  0  0  0  0  0  0
  184.7810  178.7740  145.0320 C   0  0  0  0  0  3  0  0  0  0  0  0
  184.1170  177.9330  142.4190 C   0  0  1  0  0  3  0  0  0  0  0  0
  181.8360  179.0940  141.1830 N   0  0  2  0  0  0  0  0  0  0  0  0
  178.9310  180.6630  142.4050 F   0  0  0  0  0  0  0  0  0  0  0  0
  180.4590  179.3040  141.0690 N   0  0  0  0  0  2  0  0  0  0  0  0
  183.6840  179.2990  144.4590 C   0  0  0  0  0  3  0  0  0  0  0  0
  183.4460  179.2020  142.9790 C   0  0  2  0  0  3  0  0  0  0  0  0
  181.0400  176.6360  137.4000 O   0  0  0  0  0  0  0  0  0  0  0  0
  181.1460  176.7390  138.6520 C   0  0  0  0  0  0  0  0  0  0  0  0
  182.0490  177.7230  139.2030 N   0  0  0  0  0  0  0  0  0  0  0  0
  179.4340  176.1470  140.4590 C   0  0  0  0  0  3  0  0  0  0  0  0
  180.4410  174.5120  139.3720 O   0  0  0  0  0  0  0  0  0  0  0  0
  180.3530  175.8130  139.4840 C   0  0  0  0  0  0  0  0  0  0  0  0
  178.9740  174.9350  140.9430 C   0  0  0  0  0  3  0  0  0  0  0  0
  179.6360  173.9490  140.2360 C   0  0  0  0  0  3  0  0  0  0  0  0
  182.9100  178.4760  138.2940 C   0  0  0  0  0  2  0  0  0  0  0  0
  183.9590  177.5560  137.6890 C   0  0  0  0  0  2  0  0  0  0  0  0
  185.3360  178.1820  137.7800 C   0  0  0  0  0  2  0  0  0  0  0  0
  186.4070  177.1620  137.4330 C   0  0  0  0  0  2  0  0  0  0  0  0
  187.7850  178.5390  138.9820 O   0  0  0  0  0  1  0  0  0  0  0  0
  187.7260  177.6500  137.9190 C   0  0  0  0  0  0  0  0  0  0  0  0
  188.7870  177.2530  137.3710 O   0  0  0  0  0  0  0  0  0  0  0  0
  2  7  1  6  0  0  0
  2  6  1  0  0  0  0
  4 18  1  6  0  0  0
  4  1  1  0  0  0  0
  4 11  1  0  0  0  0
  5 12  1  0  0  0  0
  5  3  2  0  0  0  0
  6  9  1  0  0  0  0
  8 15  1  0  0  0  0
  8  3  1  1  0  0  0
 10  1  1  6  0  0  0
 10  2  1  0  0  0  0
 10 15  1  0  0  0  0
 11 13  1  1  0  0  0
 11  8  1  0  0  0  0
 13  5  1  0  0  0  0
 14  9  2  0  0  0  0
 15 14  1  1  0  0  0
 16 17  2  0  0  0  0
 17 18  1  0  0  0  0
 17 21  1  0  0  0  0
 19 22  1  0  0  0  0
 20 21  1  0  0  0  0
 20 23  1  0  0  0  0
 21 19  2  0  0  0  0
 23 22  2  0  0  0  0
 24 18  1  0  0  0  0
 25 26  1  0  0  0  0
 25 24  1  0  0  0  0
 27 26  1  0  0  0  0
 27 29  1  0  0  0  0
 29 28  1  0  0  0  0
 30 29  2  0  0  0  0
M  END
>  <MODEL>
5

>  <REMARK>
 VINA RESULT:      -5.7      2.688      3.678
  Name = 
  7 active torsions:
  status: ('A' for Active; 'I' for Inactive)
    1  A    between atoms: C_4  and  N_13
    2  A    between atoms: C_7  and  C_15
    3  A    between atoms: C_7  and  C_16
    4  A    between atoms: C_8  and  C_12
    5  A    between atoms: N_13  and  C_27
    6  A    between atoms: C_16  and  C_30
    7  A    between atoms: C_27  and  C_30
                            x       y       z     vdW  Elec       q    Type
                         _______ _______ _______ _____ _____    ______ ____

>  <TORSDO>
F 7

$$$$
=
 OpenBabel10262421523D

 30 33  0  0  1  0  0  0  0  0999 V2000
  185.3640  178.4850  138.8400 C   0  0  0  0  0  2  0  0  0  0  0  0
  187.7500  178.4070  137.8720 C   0  0  2  0  0  3  0  0  0  0  0  0
  183.9520  175.6540  136.0000 N   0  0  0  0  0  0  0  0  0  0  0  0
  183.8840  178.1380  138.5460 C   0  0  1  0  0  3  0  0  0  0  0  0
  182.7630  175.5540  136.4940 C   0  0  0  0  0  0  0  0  0  0  0  0
  188.5240  178.3120  136.5480 C   0  0  0  0  0  2  0  0  0  0  0  0
  188.3120  177.4110  138.8760 C   0  0  0  0  0  1  0  0  0  0  0  0
  184.5240  176.7530  136.7600 C   0  0  1  0  0  3  0  0  0  0  0  0
  187.9800  177.2920  135.5650 C   0  0  0  0  0  3  0  0  0  0  0  0
  186.2590  178.1870  137.6180 C   0  0  1  0  0  3  0  0  0  0  0  0
  183.8330  176.7670  138.0390 N   0  0  2  0  0  0  0  0  0  0  0  0
  181.8390  174.6880  136.0140 F   0  0  0  0  0  0  0  0  0  0  0  0
  182.5550  176.3520  137.6530 N   0  0  0  0  0  2  0  0  0  0  0  0
  186.8170  176.6410  135.7430 C   0  0  0  0  0  3  0  0  0  0  0  0
  186.0140  176.7960  137.0040 C   0  0  2  0  0  3  0  0  0  0  0  0
  181.3760  179.3440  140.9410 O   0  0  0  0  0  0  0  0  0  0  0  0
  181.9700  179.1820  139.8400 C   0  0  0  0  0  0  0  0  0  0  0  0
  183.0960  178.2800  139.7740 N   0  0  0  0  0  0  0  0  0  0  0  0
  181.5660  181.3260  138.5040 C   0  0  0  0  0  3  0  0  0  0  0  0
  180.9150  179.4000  137.6460 O   0  0  0  0  0  0  0  0  0  0  0  0
  181.4880  179.9590  138.6820 C   0  0  0  0  0  0  0  0  0  0  0  0
  180.9780  181.5580  137.2730 C   0  0  0  0  0  3  0  0  0  0  0  0
  180.5850  180.3270  136.7830 C   0  0  0  0  0  3  0  0  0  0  0  0
  183.5960  177.6850  141.0130 C   0  0  0  0  0  2  0  0  0  0  0  0
  184.3470  178.7290  141.8240 C   0  0  0  0  0  2  0  0  0  0  0  0
  184.0070  178.6110  143.2960 C   0  0  0  0  0  2  0  0  0  0  0  0
  185.2710  178.6350  144.1380 C   0  0  0  0  0  2  0  0  0  0  0  0
  185.8990  178.9050  146.5300 O   0  0  0  0  0  1  0  0  0  0  0  0
  184.9090  178.8880  145.5590 C   0  0  0  0  0  0  0  0  0  0  0  0
  183.7100  179.0920  145.8780 O   0  0  0  0  0  0  0  0  0  0  0  0
  2  7  1  1  0  0  0
  3  5  2  0  0  0  0
  4  1  1  0  0  0  0
  4 18  1  1  0  0  0
  5 13  1  0  0  0  0
  6  2  1  0  0  0  0
  8  3  1  1  0  0  0
  8 15  1  0  0  0  0
  8 11  1  0  0  0  0
  9 14  2  0  0  0  0
  9  6  1  0  0  0  0
 10  2  1  0  0  0  0
 10  1  1  1  0  0  0
 11 13  1  6  0  0  0
 11  4  1  0  0  0  0
 12  5  1  0  0  0  0
 15 14  1  6  0  0  0
 15 10  1  0  0  0  0
 17 16  2  0  0  0  0
 18 17  1  0  0  0  0
 18 24  1  0  0  0  0
 19 21  2  0  0  0  0
 20 21  1  0  0  0  0
 21 17  1  0  0  0  0
 22 19  1  0  0  0  0
 23 22  2  0  0  0  0
 23 20  1  0  0  0  0
 24 25  1  0  0  0  0
 25 26  1  0  0  0  0
 26 27  1  0  0  0  0
 27 29  1  0  0  0  0
 29 30  2  0  0  0  0
 29 28  1  0  0  0  0
M  END
>  <MODEL>
6

>  <REMARK>
 VINA RESULT:      -5.6      4.275      7.054
  Name = 
  7 active torsions:
  status: ('A' for Active; 'I' for Inactive)
    1  A    between atoms: C_4  and  N_13
    2  A    between atoms: C_7  and  C_15
    3  A    between atoms: C_7  and  C_16
    4  A    between atoms: C_8  and  C_12
    5  A    between atoms: N_13  and  C_27
    6  A    between atoms: C_16  and  C_30
    7  A    between atoms: C_27  and  C_30
                            x       y       z     vdW  Elec       q    Type
                         _______ _______ _______ _____ _____    ______ ____

>  <TORSDO>
F 7

$$$$
=
 OpenBabel10262421523D

 30 33  0  0  1  0  0  0  0  0999 V2000
  187.7220  177.9320  142.1810 C   0  0  0  0  0  2  0  0  0  0  0  0
  185.1930  178.2010  142.5970 C   0  0  2  0  0  3  0  0  0  0  0  0
  187.2840  178.7350  138.0300 N   0  0  0  0  0  0  0  0  0  0  0  0
  188.7920  177.7100  141.0850 C   0  0  1  0  0  3  0  0  0  0  0  0
  188.5470  178.7240  137.7600 C   0  0  0  0  0  0  0  0  0  0  0  0
  183.8190  177.9020  141.9760 C   0  0  0  0  0  2  0  0  0  0  0  0
  185.2480  179.6470  143.0690 C   0  0  0  0  0  1  0  0  0  0  0  0
  187.2470  178.2780  139.4090 C   0  0  1  0  0  3  0  0  0  0  0  0
  183.7140  178.1990  140.4920 C   0  0  0  0  0  3  0  0  0  0  0  0
  186.2970  177.8850  141.5870 C   0  0  1  0  0  3  0  0  0  0  0  0
  188.5240  178.6490  139.9950 N   0  0  2  0  0  0  0  0  0  0  0  0
  189.0380  179.0120  136.5310 F   0  0  0  0  0  0  0  0  0  0  0  0
  189.3730  178.4970  138.8950 N   0  0  0  0  0  2  0  0  0  0  0  0
  184.7690  178.5300  139.7270 C   0  0  0  0  0  3  0  0  0  0  0  0
  186.1340  178.7420  140.3180 C   0  0  2  0  0  3  0  0  0  0  0  0
  192.4210  177.4990  141.5950 O   0  0  0  0  0  0  0  0  0  0  0  0
  191.3040  177.3730  141.0250 C   0  0  0  0  0  0  0  0  0  0  0  0
  190.1260  177.9230  141.6540 N   0  0  0  0  0  0  0  0  0  0  0  0
  192.1440  176.7530  138.6890 C   0  0  0  0  0  3  0  0  0  0  0  0
  190.3530  175.7350  139.4790 O   0  0  0  0  0  0  0  0  0  0  0  0
  191.2670  176.6330  139.7480 C   0  0  0  0  0  0  0  0  0  0  0  0
  191.6810  175.8570  137.7410 C   0  0  0  0  0  3  0  0  0  0  0  0
  190.5620  175.2520  138.2810 C   0  0  0  0  0  3  0  0  0  0  0  0
  190.2450  178.4910  142.9960 C   0  0  0  0  0  2  0  0  0  0  0  0
  190.3520  177.3770  144.0240 C   0  0  0  0  0  2  0  0  0  0  0  0
  190.1870  177.9260  145.4280 C   0  0  0  0  0  2  0  0  0  0  0  0
  189.2890  177.0190  146.2510 C   0  0  0  0  0  2  0  0  0  0  0  0
  187.6200  177.8520  147.8980 O   0  0  0  0  0  1  0  0  0  0  0  0
  188.0290  177.7400  146.5780 C   0  0  0  0  0  0  0  0  0  0  0  0
  187.3390  178.2530  145.6590 O   0  0  0  0  0  0  0  0  0  0  0  0
  2  7  1  6  0  0  0
  4 18  1  1  0  0  0
  4  1  1  0  0  0  0
  5  3  2  0  0  0  0
  5 13  1  0  0  0  0
  6  2  1  0  0  0  0
  8  3  1  6  0  0  0
  8 11  1  0  0  0  0
  8 15  1  0  0  0  0
  9  6  1  0  0  0  0
 10  1  1  1  0  0  0
 10  2  1  0  0  0  0
 11 13  1  6  0  0  0
 11  4  1  0  0  0  0
 12  5  1  0  0  0  0
 14  9  2  0  0  0  0
 15 14  1  6  0  0  0
 15 10  1  0  0  0  0
 17 16  2  0  0  0  0
 17 18  1  0  0  0  0
 18 24  1  0  0  0  0
 19 21  2  0  0  0  0
 20 21  1  0  0  0  0
 21 17  1  0  0  0  0
 22 23  2  0  0  0  0
 22 19  1  0  0  0  0
 23 20  1  0  0  0  0
 24 25  1  0  0  0  0
 25 26  1  0  0  0  0
 26 27  1  0  0  0  0
 27 29  1  0  0  0  0
 29 28  1  0  0  0  0
 30 29  2  0  0  0  0
M  END
>  <MODEL>
7

>  <REMARK>
 VINA RESULT:      -5.6      6.398      9.629
  Name = 
  7 active torsions:
  status: ('A' for Active; 'I' for Inactive)
    1  A    between atoms: C_4  and  N_13
    2  A    between atoms: C_7  and  C_15
    3  A    between atoms: C_7  and  C_16
    4  A    between atoms: C_8  and  C_12
    5  A    between atoms: N_13  and  C_27
    6  A    between atoms: C_16  and  C_30
    7  A    between atoms: C_27  and  C_30
                            x       y       z     vdW  Elec       q    Type
                         _______ _______ _______ _____ _____    ______ ____

>  <TORSDO>
F 7

$$$$
=
 OpenBabel10262421523D

 30 33  0  0  1  0  0  0  0  0999 V2000
  186.2490  178.0990  139.9660 C   0  0  0  0  0  2  0  0  0  0  0  0
  184.2190  178.2330  138.3850 C   0  0  2  0  0  3  0  0  0  0  0  0
  183.8800  179.1150  143.3470 N   0  0  0  0  0  0  0  0  0  0  0  0
  186.7710  178.5030  141.3660 C   0  0  1  0  0  3  0  0  0  0  0  0
  184.8200  178.9620  144.2180 C   0  0  0  0  0  0  0  0  0  0  0  0
  182.9380  179.0380  138.1140 C   0  0  0  0  0  2  0  0  0  0  0  0
  183.9100  176.7430  138.3720 C   0  0  0  0  0  1  0  0  0  0  0  0
  184.5870  178.9850  142.0840 C   0  0  1  0  0  3  0  0  0  0  0  0
  182.1290  179.3810  139.3510 C   0  0  0  0  0  3  0  0  0  0  0  0
  184.8410  178.6790  139.7080 C   0  0  1  0  0  3  0  0  0  0  0  0
  185.7470  178.1510  142.3500 N   0  0  2  0  0  0  0  0  0  0  0  0
  184.6150  179.0850  145.5510 F   0  0  0  0  0  0  0  0  0  0  0  0
  186.0580  178.5400  143.6560 N   0  0  0  0  0  2  0  0  0  0  0  0
  182.5660  179.1630  140.6040 C   0  0  0  0  0  3  0  0  0  0  0  0
  183.8600  178.4490  140.8730 C   0  0  2  0  0  3  0  0  0  0  0  0
  190.0110  176.8590  140.8400 O   0  0  0  0  0  0  0  0  0  0  0  0
  188.9840  177.5440  140.5850 C   0  0  0  0  0  0  0  0  0  0  0  0
  188.0310  177.8030  141.6380 N   0  0  0  0  0  0  0  0  0  0  0  0
  188.3590  177.2820  138.1170 C   0  0  0  0  0  3  0  0  0  0  0  0
  189.0550  179.2480  138.8340 O   0  0  0  0  0  0  0  0  0  0  0  0
  188.8040  178.0160  139.1980 C   0  0  0  0  0  0  0  0  0  0  0  0
  188.3700  178.1680  137.0560 C   0  0  0  0  0  3  0  0  0  0  0  0
  188.8160  179.3780  137.5540 C   0  0  0  0  0  3  0  0  0  0  0  0
  188.2180  177.1530  142.9340 C   0  0  0  0  0  2  0  0  0  0  0  0
  189.2700  177.8960  143.7410 C   0  0  0  0  0  2  0  0  0  0  0  0
  189.6220  177.1280  144.9990 C   0  0  0  0  0  2  0  0  0  0  0  0
  188.6830  177.5030  146.1320 C   0  0  0  0  0  2  0  0  0  0  0  0
  190.6060  176.7640  147.5270 O   0  0  0  0  0  0  0  0  0  0  0  0
  189.4350  177.4980  147.4150 C   0  0  0  0  0  0  0  0  0  0  0  0
  189.0130  178.1630  148.3970 O   0  0  0  0  0  1  0  0  0  0  0  0
  1  4  1  0  0  0  0
  2  7  1  1  0  0  0
  2 10  1  0  0  0  0
  3  5  2  0  0  0  0
  4 18  1  1  0  0  0
  4 11  1  0  0  0  0
  5 12  1  0  0  0  0
  6  2  1  0  0  0  0
  6  9  1  0  0  0  0
  8 11  1  0  0  0  0
  8  3  1  1  0  0  0
  9 14  2  0  0  0  0
 10  1  1  1  0  0  0
 10 15  1  0  0  0  0
 11 13  1  1  0  0  0
 13  5  1  0  0  0  0
 15 14  1  6  0  0  0
 15  8  1  0  0  0  0
 17 16  2  0  0  0  0
 17 18  1  0  0  0  0
 18 24  1  0  0  0  0
 19 21  2  0  0  0  0
 20 21  1  0  0  0  0
 21 17  1  0  0  0  0
 22 23  2  0  0  0  0
 22 19  1  0  0  0  0
 23 20  1  0  0  0  0
 24 25  1  0  0  0  0
 25 26  1  0  0  0  0
 26 27  1  0  0  0  0
 27 29  1  0  0  0  0
 29 28  2  0  0  0  0
 29 30  1  0  0  0  0
M  END
>  <MODEL>
8

>  <REMARK>
 VINA RESULT:      -5.3      5.324      8.567
  Name = 
  7 active torsions:
  status: ('A' for Active; 'I' for Inactive)
    1  A    between atoms: C_4  and  N_13
    2  A    between atoms: C_7  and  C_15
    3  A    between atoms: C_7  and  C_16
    4  A    between atoms: C_8  and  C_12
    5  A    between atoms: N_13  and  C_27
    6  A    between atoms: C_16  and  C_30
    7  A    between atoms: C_27  and  C_30
                            x       y       z     vdW  Elec       q    Type
                         _______ _______ _______ _____ _____    ______ ____

>  <TORSDO>
F 7

$$$$
=
 OpenBabel10262421523D

 30 33  0  0  1  0  0  0  0  0999 V2000
  183.0700  175.5980  138.0790 C   0  0  0  0  0  2  0  0  0  0  0  0
  183.3990  173.2410  137.0920 C   0  0  2  0  0  3  0  0  0  0  0  0
  186.8370  176.9100  136.6090 N   0  0  0  0  0  0  0  0  0  0  0  0
  183.8050  176.9030  138.4700 C   0  0  1  0  0  3  0  0  0  0  0  0
  186.7010  178.1400  136.9770 C   0  0  0  0  0  0  0  0  0  0  0  0
  184.4640  172.1580  136.8560 C   0  0  0  0  0  2  0  0  0  0  0  0
  182.6020  173.4740  135.8170 C   0  0  0  0  0  1  0  0  0  0  0  0
  185.6860  176.2630  137.2190 C   0  0  1  0  0  3  0  0  0  0  0  0
  185.7930  172.6750  136.3370 C   0  0  0  0  0  3  0  0  0  0  0  0
  184.0660  174.5220  137.5940 C   0  0  1  0  0  3  0  0  0  0  0  0
  184.6660  177.2890  137.3520 N   0  0  2  0  0  0  0  0  0  0  0  0
  187.6130  179.0980  136.6890 F   0  0  0  0  0  0  0  0  0  0  0  0
  185.4550  178.4150  137.6070 N   0  0  0  0  0  2  0  0  0  0  0  0
  186.0950  173.9820  136.2500 C   0  0  0  0  0  3  0  0  0  0  0  0
  185.0800  175.0460  136.5610 C   0  0  2  0  0  3  0  0  0  0  0  0
  182.0350  179.6120  140.2050 O   0  0  0  0  0  0  0  0  0  0  0  0
  182.9510  178.7880  139.9340 C   0  0  0  0  0  0  0  0  0  0  0  0
  182.8200  177.9480  138.7670 N   0  0  0  0  0  0  0  0  0  0  0  0
  184.1810  177.9890  142.0310 C   0  0  0  0  0  3  0  0  0  0  0  0
  185.2190  179.3570  140.6460 O   0  0  0  0  0  0  0  0  0  0  0  0
  184.0990  178.7140  140.8590 C   0  0  0  0  0  0  0  0  0  0  0  0
  185.4460  178.2530  142.5250 C   0  0  0  0  0  3  0  0  0  0  0  0
  186.0500  179.1140  141.6280 C   0  0  0  0  0  3  0  0  0  0  0  0
  181.5700  177.9830  138.0110 C   0  0  0  0  0  2  0  0  0  0  0  0
  181.6650  179.0150  136.8980 C   0  0  0  0  0  2  0  0  0  0  0  0
  180.4260  179.8870  136.8690 C   0  0  0  0  0  2  0  0  0  0  0  0
  180.8060  181.3450  136.6760 C   0  0  0  0  0  2  0  0  0  0  0  0
  179.9420  182.1240  138.8760 O   0  0  0  0  0  1  0  0  0  0  0  0
  181.0120  181.9790  138.0060 C   0  0  0  0  0  0  0  0  0  0  0  0
  182.1570  182.3780  138.3430 O   0  0  0  0  0  0  0  0  0  0  0  0
  1  4  1  0  0  0  0
  2  7  1  6  0  0  0
  2 10  1  0  0  0  0
  3  5  2  0  0  0  0
  4 18  1  6  0  0  0
  5 13  1  0  0  0  0
  6  2  1  0  0  0  0
  8  3  1  6  0  0  0
  8 11  1  0  0  0  0
  9  6  1  0  0  0  0
 10  1  1  6  0  0  0
 11 13  1  1  0  0  0
 11  4  1  0  0  0  0
 12  5  1  0  0  0  0
 14  9  2  0  0  0  0
 15 14  1  1  0  0  0
 15  8  1  0  0  0  0
 15 10  1  0  0  0  0
 17 16  2  0  0  0  0
 17 21  1  0  0  0  0
 18 17  1  0  0  0  0
 19 22  1  0  0  0  0
 20 21  1  0  0  0  0
 20 23  1  0  0  0  0
 21 19  2  0  0  0  0
 23 22  2  0  0  0  0
 24 18  1  0  0  0  0
 25 24  1  0  0  0  0
 26 25  1  0  0  0  0
 27 26  1  0  0  0  0
 27 29  1  0  0  0  0
 29 30  2  0  0  0  0
 29 28  1  0  0  0  0
M  END
>  <MODEL>
9

>  <REMARK>
 VINA RESULT:      -5.3      4.215      6.521
  Name = 
  7 active torsions:
  status: ('A' for Active; 'I' for Inactive)
    1  A    between atoms: C_4  and  N_13
    2  A    between atoms: C_7  and  C_15
    3  A    between atoms: C_7  and  C_16
    4  A    between atoms: C_8  and  C_12
    5  A    between atoms: N_13  and  C_27
    6  A    between atoms: C_16  and  C_30
    7  A    between atoms: C_27  and  C_30
                            x       y       z     vdW  Elec       q    Type
                         _______ _______ _______ _____ _____    ______ ____

>  <TORSDO>
F 7

$$$$
