=
 OpenBabel10262419093D

 34 41  0  0  1  0  0  0  0  0999 V2000
  188.5860  177.5520  144.4130 C   0  0  0  0  0  0  0  0  0  0  0  0
  186.1910  178.1020  144.2920 C   0  0  0  0  0  0  0  0  0  0  0  0
  187.6390  178.2910  142.3340 C   0  0  0  0  0  0  0  0  0  0  0  0
  186.5930  178.1680  140.2180 C   0  0  1  0  0  3  0  0  0  0  0  0
  187.2000  177.4090  146.3950 C   0  0  0  0  0  3  0  0  0  0  0  0
  186.0770  177.8110  145.6560 C   0  0  0  0  0  3  0  0  0  0  0  0
  185.2180  178.5750  142.0210 C   0  0  0  0  0  0  0  0  0  0  0  0
  187.4680  178.0000  143.6830 C   0  0  0  0  0  0  0  0  0  0  0  0
  185.2030  178.4530  139.6730 C   0  0  0  0  0  2  0  0  0  0  0  0
  188.4480  177.2710  145.7740 C   0  0  0  0  0  3  0  0  0  0  0  0
  188.8400  178.0210  141.6720 C   0  0  0  0  0  0  0  0  0  0  0  0
  189.8080  177.3590  143.7450 C   0  0  0  0  0  3  0  0  0  0  0  0
  184.9360  178.4650  143.5010 C   0  0  0  0  0  2  0  0  0  0  0  0
  187.7410  178.6350  139.5500 O   0  0  0  0  0  0  0  0  0  0  0  0
  188.8140  178.0490  140.2020 N   0  0  0  0  0  0  0  0  0  0  0  0
  184.4170  178.4130  140.9640 C   0  0  0  0  0  0  0  0  0  0  0  0
  186.5600  178.8700  141.5340 C   0  0  1  0  0  3  0  0  0  0  0  0
  189.9040  177.5720  142.3970 N   0  0  0  0  0  0  0  0  0  0  0  0
  192.0460  176.6790  138.8350 C   0  0  0  0  0  0  0  0  0  0  0  0
  191.5690  175.8450  137.8220 C   0  0  0  0  0  3  0  0  0  0  0  0
  189.7630  177.3210  139.3950 C   0  0  0  0  0  0  0  0  0  0  0  0
  190.1960  175.7410  137.5920 C   0  0  0  0  0  3  0  0  0  0  0  0
  191.1480  177.4090  139.6180 C   0  0  0  0  0  3  0  0  0  0  0  0
  189.3000  176.4740  138.3760 C   0  0  0  0  0  3  0  0  0  0  0  0
  193.3770  176.7780  139.0630 F   0  0  0  0  0  0  0  0  0  0  0  0
  183.0140  178.1230  141.0070 N   0  0  0  0  0  2  0  0  0  0  0  0
  181.9740  179.1370  140.9510 C   0  0  0  0  0  2  0  0  0  0  0  0
  182.2930  179.6590  143.6850 F   0  0  0  0  0  0  0  0  0  0  0  0
  180.8140  178.7250  141.8390 C   0  0  1  0  0  3  0  0  0  0  0  0
  181.1170  179.0410  143.2930 C   0  0  2  0  0  0  0  0  0  0  0  0
  179.1280  179.1090  144.2430 C   0  0  0  0  0  2  0  0  0  0  0  0
  178.9320  179.6860  142.9780 O   0  0  0  0  0  0  0  0  0  0  0  0
  180.2220  179.9570  142.5220 C   0  0  2  0  0  3  0  0  0  0  0  0
  180.3450  178.4110  144.2670 O   0  0  0  0  0  0  0  0  0  0  0  0
  1 10  2  0  0  0  0
  2  6  1  0  0  0  0
  3  8  1  0  0  0  0
  4  9  1  6  0  0  0
  4 17  1  0  0  0  0
  6  5  2  0  0  0  0
  7 13  1  0  0  0  0
  8  2  2  0  0  0  0
  8  1  1  0  0  0  0
  9 16  1  0  0  0  0
 10  5  1  0  0  0  0
 11  3  2  0  0  0  0
 11 18  1  0  0  0  0
 12  1  1  0  0  0  0
 13  2  1  0  0  0  0
 14 15  1  0  0  0  0
 14  4  1  0  0  0  0
 15 11  1  0  0  0  0
 16 26  1  0  0  0  0
 16  7  2  0  0  0  0
 17  7  1  1  0  0  0
 17  3  1  0  0  0  0
 18 12  2  0  0  0  0
 19 25  1  0  0  0  0
 19 23  1  0  0  0  0
 20 19  2  0  0  0  0
 21 23  2  0  0  0  0
 21 15  1  0  0  0  0
 22 20  1  0  0  0  0
 22 24  2  0  0  0  0
 24 21  1  0  0  0  0
 27 26  1  0  0  0  0
 29 27  1  6  0  0  0
 29 33  1  0  0  0  0
 29 30  1  0  0  0  0
 30 28  1  1  0  0  0
 30 34  1  0  0  0  0
 31 34  1  0  0  0  0
 32 31  1  0  0  0  0
 33 32  1  1  0  0  0
 33 30  1  0  0  0  0
M  END
>  <MODEL>
1

>  <REMARK>
 VINA RESULT:      -9.9      0.000      0.000
  Name = 
  4 active torsions:
  status: ('A' for Active; 'I' for Inactive)
    1  A    between atoms: C_3  and  C_13
    2  A    between atoms: C_3  and  N_17
    3  A    between atoms: C_12  and  N_28
    4  A    between atoms: N_17  and  C_29
                            x       y       z     vdW  Elec       q    Type
                         _______ _______ _______ _____ _____    ______ ____

>  <TORSDO>
F 4

$$$$
=
 OpenBabel10262419093D

 34 41  0  0  1  0  0  0  0  0999 V2000
  188.4210  177.5980  138.6560 C   0  0  0  0  0  0  0  0  0  0  0  0
  189.0530  177.3840  141.0240 C   0  0  0  0  0  0  0  0  0  0  0  0
  186.9560  178.4460  140.3590 C   0  0  0  0  0  0  0  0  0  0  0  0
  185.2200  178.4760  141.9620 C   0  0  1  0  0  3  0  0  0  0  0  0
  190.5380  176.5920  139.2670 C   0  0  0  0  0  3  0  0  0  0  0  0
  190.2500  176.7760  140.6270 C   0  0  0  0  0  3  0  0  0  0  0  0
  187.3370  178.0210  142.7490 C   0  0  0  0  0  0  0  0  0  0  0  0
  188.1540  177.8250  140.0200 C   0  0  0  0  0  0  0  0  0  0  0  0
  185.1380  178.4260  143.4800 C   0  0  0  0  0  2  0  0  0  0  0  0
  189.6240  176.9930  138.2840 C   0  0  0  0  0  3  0  0  0  0  0  0
  185.9760  178.7210  139.4020 C   0  0  0  0  0  0  0  0  0  0  0  0
  187.4530  177.9510  137.7000 C   0  0  0  0  0  3  0  0  0  0  0  0
  188.7360  177.5030  142.5130 C   0  0  0  0  0  2  0  0  0  0  0  0
  184.4700  179.4150  141.2300 O   0  0  0  0  0  0  0  0  0  0  0  0
  184.6350  179.0650  139.8990 N   0  0  0  0  0  0  0  0  0  0  0  0
  186.5060  177.8560  143.7830 C   0  0  0  0  0  0  0  0  0  0  0  0
  186.6550  178.8210  141.7410 C   0  0  1  0  0  3  0  0  0  0  0  0
  186.2520  178.4780  138.0890 N   0  0  0  0  0  0  0  0  0  0  0  0
  181.6130  179.7280  137.7500 C   0  0  0  0  0  0  0  0  0  0  0  0
  181.1460  178.4290  137.5460 C   0  0  0  0  0  3  0  0  0  0  0  0
  183.4420  178.8690  139.1110 C   0  0  0  0  0  0  0  0  0  0  0  0
  181.8200  177.3470  138.1170 C   0  0  0  0  0  3  0  0  0  0  0  0
  182.7550  179.9460  138.5250 C   0  0  0  0  0  3  0  0  0  0  0  0
  182.9630  177.5680  138.8920 C   0  0  0  0  0  3  0  0  0  0  0  0
  180.9630  180.7780  137.1940 F   0  0  0  0  0  0  0  0  0  0  0  0
  186.7960  177.1390  144.9900 N   0  0  0  0  0  2  0  0  0  0  0  0
  187.6430  177.6510  146.0540 C   0  0  0  0  0  2  0  0  0  0  0  0
  190.0310  178.8130  145.1640 F   0  0  0  0  0  0  0  0  0  0  0  0
  188.8820  176.7840  146.1790 C   0  0  1  0  0  3  0  0  0  0  0  0
  190.1020  177.5160  145.6460 C   0  0  2  0  0  0  0  0  0  0  0  0
  191.7980  176.4760  146.5980 C   0  0  0  0  0  2  0  0  0  0  0  0
  190.8040  176.5080  147.5900 O   0  0  0  0  0  0  0  0  0  0  0  0
  189.8840  177.4460  147.1240 C   0  0  2  0  0  3  0  0  0  0  0  0
  191.2310  176.7580  145.3450 O   0  0  0  0  0  0  0  0  0  0  0  0
  1  8  1  0  0  0  0
  2 13  1  0  0  0  0
  4  9  1  1  0  0  0
  5  6  2  0  0  0  0
  6  2  1  0  0  0  0
  7 16  2  0  0  0  0
  8  3  1  0  0  0  0
  8  2  2  0  0  0  0
  9 16  1  0  0  0  0
 10  1  2  0  0  0  0
 10  5  1  0  0  0  0
 11 15  1  0  0  0  0
 11  3  2  0  0  0  0
 12 18  2  0  0  0  0
 12  1  1  0  0  0  0
 13  7  1  0  0  0  0
 14  4  1  0  0  0  0
 15 14  1  0  0  0  0
 16 26  1  0  0  0  0
 17  3  1  6  0  0  0
 17  4  1  0  0  0  0
 17  7  1  0  0  0  0
 18 11  1  0  0  0  0
 19 23  1  0  0  0  0
 20 19  2  0  0  0  0
 20 22  1  0  0  0  0
 21 15  1  0  0  0  0
 22 24  2  0  0  0  0
 23 21  2  0  0  0  0
 24 21  1  0  0  0  0
 25 19  1  0  0  0  0
 26 27  1  0  0  0  0
 29 27  1  6  0  0  0
 29 33  1  0  0  0  0
 30 28  1  6  0  0  0
 30 29  1  0  0  0  0
 30 33  1  0  0  0  0
 31 32  1  0  0  0  0
 33 32  1  1  0  0  0
 34 30  1  0  0  0  0
 34 31  1  0  0  0  0
M  END
>  <MODEL>
2

>  <REMARK>
 VINA RESULT:      -9.8      3.265      7.618
  Name = 
  4 active torsions:
  status: ('A' for Active; 'I' for Inactive)
    1  A    between atoms: C_3  and  C_13
    2  A    between atoms: C_3  and  N_17
    3  A    between atoms: C_12  and  N_28
    4  A    between atoms: N_17  and  C_29
                            x       y       z     vdW  Elec       q    Type
                         _______ _______ _______ _____ _____    ______ ____

>  <TORSDO>
F 4

$$$$
=
 OpenBabel10262419093D

 34 41  0  0  1  0  0  0  0  0999 V2000
  187.9150  178.0040  138.6640 C   0  0  0  0  0  0  0  0  0  0  0  0
  188.6810  177.8600  140.9980 C   0  0  0  0  0  0  0  0  0  0  0  0
  186.4200  178.6030  140.4450 C   0  0  0  0  0  0  0  0  0  0  0  0
  184.7760  178.3530  142.1240 C   0  0  1  0  0  3  0  0  0  0  0  0
  190.1850  177.3220  139.1620 C   0  0  0  0  0  3  0  0  0  0  0  0
  189.9360  177.4450  140.5370 C   0  0  0  0  0  3  0  0  0  0  0  0
  186.9710  178.2130  142.8080 C   0  0  0  0  0  0  0  0  0  0  0  0
  187.6800  178.1730  140.0420 C   0  0  0  0  0  0  0  0  0  0  0  0
  184.7730  178.2730  143.6420 C   0  0  0  0  0  2  0  0  0  0  0  0
  189.1760  177.5920  138.2280 C   0  0  0  0  0  3  0  0  0  0  0  0
  185.3660  178.7370  139.5380 C   0  0  0  0  0  0  0  0  0  0  0  0
  186.8610  178.2180  137.7580 C   0  0  0  0  0  3  0  0  0  0  0  0
  188.4190  177.9130  142.5010 C   0  0  0  0  0  2  0  0  0  0  0  0
  183.8590  179.1760  141.4420 O   0  0  0  0  0  0  0  0  0  0  0  0
  184.0130  178.8700  140.0990 N   0  0  0  0  0  0  0  0  0  0  0  0
  186.2230  177.9120  143.8740 C   0  0  0  0  0  0  0  0  0  0  0  0
  186.1300  178.9120  141.8450 C   0  0  1  0  0  3  0  0  0  0  0  0
  185.6140  178.5540  138.2090 N   0  0  0  0  0  0  0  0  0  0  0  0
  181.0410  176.9400  138.8220 C   0  0  0  0  0  0  0  0  0  0  0  0
  180.4900  177.8650  137.9330 C   0  0  0  0  0  3  0  0  0  0  0  0
  182.8280  178.5060  139.3620 C   0  0  0  0  0  0  0  0  0  0  0  0
  181.0990  179.1090  137.7550 C   0  0  0  0  0  3  0  0  0  0  0  0
  182.1990  177.2610  139.5340 C   0  0  0  0  0  3  0  0  0  0  0  0
  182.2590  179.4270  138.4680 C   0  0  0  0  0  3  0  0  0  0  0  0
  180.4500  175.7340  138.9990 F   0  0  0  0  0  0  0  0  0  0  0  0
  186.6720  177.2340  145.0540 N   0  0  0  0  0  2  0  0  0  0  0  0
  187.5620  177.8240  146.0390 C   0  0  0  0  0  2  0  0  0  0  0  0
  189.9860  178.8310  145.0610 F   0  0  0  0  0  0  0  0  0  0  0  0
  188.7720  176.9290  146.2330 C   0  0  1  0  0  3  0  0  0  0  0  0
  190.0140  177.5750  145.6440 C   0  0  2  0  0  0  0  0  0  0  0  0
  191.6770  176.5570  146.6750 C   0  0  0  0  0  2  0  0  0  0  0  0
  190.6870  176.7000  147.6620 O   0  0  0  0  0  0  0  0  0  0  0  0
  189.7980  177.6290  147.1230 C   0  0  2  0  0  3  0  0  0  0  0  0
  191.1170  176.7580  145.4040 O   0  0  0  0  0  0  0  0  0  0  0  0
  1  8  1  0  0  0  0
  2 13  1  0  0  0  0
  4  9  1  1  0  0  0
  5  6  2  0  0  0  0
  6  2  1  0  0  0  0
  7 16  2  0  0  0  0
  8  3  1  0  0  0  0
  8  2  2  0  0  0  0
  9 16  1  0  0  0  0
 10  1  2  0  0  0  0
 10  5  1  0  0  0  0
 11 15  1  0  0  0  0
 11  3  2  0  0  0  0
 12 18  2  0  0  0  0
 12  1  1  0  0  0  0
 13  7  1  0  0  0  0
 14  4  1  0  0  0  0
 15 14  1  0  0  0  0
 16 26  1  0  0  0  0
 17  3  1  6  0  0  0
 17  4  1  0  0  0  0
 17  7  1  0  0  0  0
 18 11  1  0  0  0  0
 19 25  1  0  0  0  0
 19 23  1  0  0  0  0
 20 19  2  0  0  0  0
 21 23  2  0  0  0  0
 21 15  1  0  0  0  0
 22 20  1  0  0  0  0
 22 24  2  0  0  0  0
 24 21  1  0  0  0  0
 26 27  1  0  0  0  0
 29 27  1  6  0  0  0
 29 33  1  0  0  0  0
 30 28  1  6  0  0  0
 30 29  1  0  0  0  0
 30 33  1  0  0  0  0
 31 32  1  0  0  0  0
 33 32  1  1  0  0  0
 34 30  1  0  0  0  0
 34 31  1  0  0  0  0
M  END
>  <MODEL>
3

>  <REMARK>
 VINA RESULT:      -9.7      3.252      7.714
  Name = 
  4 active torsions:
  status: ('A' for Active; 'I' for Inactive)
    1  A    between atoms: C_3  and  C_13
    2  A    between atoms: C_3  and  N_17
    3  A    between atoms: C_12  and  N_28
    4  A    between atoms: N_17  and  C_29
                            x       y       z     vdW  Elec       q    Type
                         _______ _______ _______ _____ _____    ______ ____

>  <TORSDO>
F 4

$$$$
=
 OpenBabel10262419093D

 34 41  0  0  1  0  0  0  0  0999 V2000
  189.9740  177.1550  145.2160 C   0  0  0  0  0  0  0  0  0  0  0  0
  187.7280  177.7930  145.9920 C   0  0  0  0  0  0  0  0  0  0  0  0
  188.4160  178.1330  143.6720 C   0  0  0  0  0  0  0  0  0  0  0  0
  186.6960  178.2600  142.0570 C   0  0  1  0  0  3  0  0  0  0  0  0
  189.3560  176.8570  147.5390 C   0  0  0  0  0  3  0  0  0  0  0  0
  188.0760  177.3680  147.2790 C   0  0  0  0  0  3  0  0  0  0  0  0
  186.0620  178.5260  144.2560 C   0  0  0  0  0  0  0  0  0  0  0  0
  188.7050  177.7120  144.9660 C   0  0  0  0  0  0  0  0  0  0  0  0
  185.2250  178.6450  142.0610 C   0  0  0  0  0  2  0  0  0  0  0  0
  190.2990  176.7420  146.5100 C   0  0  0  0  0  3  0  0  0  0  0  0
  189.2930  177.8930  142.6100 C   0  0  0  0  0  0  0  0  0  0  0  0
  190.8730  176.9910  144.1480 C   0  0  0  0  0  3  0  0  0  0  0  0
  186.3040  178.2760  145.7250 C   0  0  0  0  0  2  0  0  0  0  0  0
  187.5690  178.7550  141.0700 O   0  0  0  0  0  0  0  0  0  0  0  0
  188.7600  178.0710  141.2510 N   0  0  0  0  0  0  0  0  0  0  0  0
  184.9350  178.4990  143.5380 C   0  0  0  0  0  0  0  0  0  0  0  0
  187.1670  178.8250  143.3550 C   0  0  1  0  0  3  0  0  0  0  0  0
  190.5100  177.3380  142.8750 N   0  0  0  0  0  0  0  0  0  0  0  0
  189.1250  176.4830  137.8550 C   0  0  0  0  0  0  0  0  0  0  0  0
  190.4750  176.1270  137.8750 C   0  0  0  0  0  3  0  0  0  0  0  0
  189.3200  177.3980  140.1040 C   0  0  0  0  0  0  0  0  0  0  0  0
  191.2520  176.4040  139.0020 C   0  0  0  0  0  3  0  0  0  0  0  0
  188.5530  177.1180  138.9600 C   0  0  0  0  0  3  0  0  0  0  0  0
  190.6770  177.0380  140.1070 C   0  0  0  0  0  3  0  0  0  0  0  0
  188.3700  176.2190  136.7620 F   0  0  0  0  0  0  0  0  0  0  0  0
  183.6180  178.2520  144.0480 N   0  0  0  0  0  2  0  0  0  0  0  0
  182.5180  179.1960  143.9450 C   0  0  0  0  0  2  0  0  0  0  0  0
  179.9100  178.4610  144.6540 F   0  0  0  0  0  0  0  0  0  0  0  0
  181.6120  178.7990  142.7950 C   0  0  1  0  0  3  0  0  0  0  0  0
  180.2380  178.4030  143.3090 C   0  0  2  0  0  0  0  0  0  0  0  0
  178.9310  178.6270  141.5480 C   0  0  0  0  0  2  0  0  0  0  0  0
  179.8370  179.6960  141.4500 O   0  0  0  0  0  0  0  0  0  0  0  0
  180.4280  179.7610  142.7120 C   0  0  2  0  0  3  0  0  0  0  0  0
  179.4130  177.6730  142.4570 O   0  0  0  0  0  0  0  0  0  0  0  0
  1 10  2  0  0  0  0
  2  6  1  0  0  0  0
  3  8  1  0  0  0  0
  4  9  1  6  0  0  0
  4 17  1  0  0  0  0
  6  5  2  0  0  0  0
  7 13  1  0  0  0  0
  8  1  1  0  0  0  0
  8  2  2  0  0  0  0
  9 16  1  0  0  0  0
 10  5  1  0  0  0  0
 11 18  1  0  0  0  0
 11  3  2  0  0  0  0
 12  1  1  0  0  0  0
 13  2  1  0  0  0  0
 14 15  1  0  0  0  0
 14  4  1  0  0  0  0
 15 11  1  0  0  0  0
 16 26  1  0  0  0  0
 16  7  2  0  0  0  0
 17  3  1  1  0  0  0
 17  7  1  0  0  0  0
 18 12  2  0  0  0  0
 19 20  2  0  0  0  0
 19 23  1  0  0  0  0
 20 22  1  0  0  0  0
 21 24  1  0  0  0  0
 21 15  1  0  0  0  0
 22 24  2  0  0  0  0
 23 21  2  0  0  0  0
 25 19  1  0  0  0  0
 27 26  1  0  0  0  0
 29 30  1  0  0  0  0
 29 27  1  1  0  0  0
 30 28  1  1  0  0  0
 31 34  1  0  0  0  0
 32 31  1  0  0  0  0
 33 32  1  6  0  0  0
 33 29  1  0  0  0  0
 33 30  1  0  0  0  0
 34 30  1  0  0  0  0
M  END
>  <MODEL>
4

>  <REMARK>
 VINA RESULT:      -9.6      1.637      2.258
  Name = 
  4 active torsions:
  status: ('A' for Active; 'I' for Inactive)
    1  A    between atoms: C_3  and  C_13
    2  A    between atoms: C_3  and  N_17
    3  A    between atoms: C_12  and  N_28
    4  A    between atoms: N_17  and  C_29
                            x       y       z     vdW  Elec       q    Type
                         _______ _______ _______ _____ _____    ______ ____

>  <TORSDO>
F 4

$$$$
=
 OpenBabel10262419093D

 34 41  0  0  1  0  0  0  0  0999 V2000
  188.1120  177.5330  144.1190 C   0  0  0  0  0  0  0  0  0  0  0  0
  185.7580  178.2480  144.1400 C   0  0  0  0  0  0  0  0  0  0  0  0
  187.0900  178.3200  142.0930 C   0  0  0  0  0  0  0  0  0  0  0  0
  185.9090  178.2530  140.0480 C   0  0  1  0  0  3  0  0  0  0  0  0
  186.8470  177.5040  146.1840 C   0  0  0  0  0  3  0  0  0  0  0  0
  185.7110  177.9770  145.5120 C   0  0  0  0  0  3  0  0  0  0  0  0
  184.6810  178.7690  141.9280 C   0  0  0  0  0  0  0  0  0  0  0  0
  186.9850  178.0530  143.4540 C   0  0  0  0  0  0  0  0  0  0  0  0
  184.5100  178.6300  139.5860 C   0  0  0  0  0  2  0  0  0  0  0  0
  188.0410  177.2740  145.4900 C   0  0  0  0  0  3  0  0  0  0  0  0
  188.2270  177.9620  141.3620 C   0  0  0  0  0  0  0  0  0  0  0  0
  189.2740  177.2510  143.3800 C   0  0  0  0  0  3  0  0  0  0  0  0
  184.4850  178.6920  143.4230 C   0  0  0  0  0  2  0  0  0  0  0  0
  187.0420  178.6330  139.3040 O   0  0  0  0  0  0  0  0  0  0  0  0
  188.1110  177.9790  139.8960 N   0  0  0  0  0  0  0  0  0  0  0  0
  183.8050  178.6550  140.9240 C   0  0  0  0  0  0  0  0  0  0  0  0
  186.0060  178.9660  141.3550 C   0  0  1  0  0  3  0  0  0  0  0  0
  189.3000  177.4460  142.0260 N   0  0  0  0  0  0  0  0  0  0  0  0
  191.1460  176.3570  138.3650 C   0  0  0  0  0  0  0  0  0  0  0  0
  190.5530  175.5690  137.3780 C   0  0  0  0  0  3  0  0  0  0  0  0
  188.9550  177.1810  139.0410 C   0  0  0  0  0  0  0  0  0  0  0  0
  189.1650  175.5790  137.2170 C   0  0  0  0  0  3  0  0  0  0  0  0
  190.3520  177.1540  139.1940 C   0  0  0  0  0  3  0  0  0  0  0  0
  188.3730  176.3790  138.0470 C   0  0  0  0  0  3  0  0  0  0  0  0
  192.4910  176.3460  138.5250 F   0  0  0  0  0  0  0  0  0  0  0  0
  182.3920  178.4640  141.0580 N   0  0  0  0  0  2  0  0  0  0  0  0
  181.4460  178.6100  139.9640 C   0  0  0  0  0  2  0  0  0  0  0  0
  182.1270  179.8410  137.5420 F   0  0  0  0  0  0  0  0  0  0  0  0
  181.0430  180.0670  139.8310 C   0  0  1  0  0  3  0  0  0  0  0  0
  181.4850  180.6230  138.4880 C   0  0  2  0  0  0  0  0  0  0  0  0
  180.1850  182.3800  138.1910 C   0  0  0  0  0  2  0  0  0  0  0  0
  179.3530  181.4270  138.8030 O   0  0  0  0  0  0  0  0  0  0  0  0
  180.0550  180.2280  138.6770 C   0  0  2  0  0  3  0  0  0  0  0  0
  181.5300  182.0070  138.3430 O   0  0  0  0  0  0  0  0  0  0  0  0
  1 10  2  0  0  0  0
  2  6  1  0  0  0  0
  3  8  1  0  0  0  0
  4  9  1  6  0  0  0
  4 17  1  0  0  0  0
  6  5  2  0  0  0  0
  7 13  1  0  0  0  0
  8  1  1  0  0  0  0
  8  2  2  0  0  0  0
  9 16  1  0  0  0  0
 10  5  1  0  0  0  0
 11 18  1  0  0  0  0
 11  3  2  0  0  0  0
 12  1  1  0  0  0  0
 13  2  1  0  0  0  0
 14 15  1  0  0  0  0
 14  4  1  0  0  0  0
 15 11  1  0  0  0  0
 16 26  1  0  0  0  0
 16  7  2  0  0  0  0
 17  7  1  1  0  0  0
 17  3  1  0  0  0  0
 18 12  2  0  0  0  0
 19 25  1  0  0  0  0
 19 23  1  0  0  0  0
 20 19  2  0  0  0  0
 21 23  2  0  0  0  0
 21 15  1  0  0  0  0
 22 20  1  0  0  0  0
 22 24  2  0  0  0  0
 24 21  1  0  0  0  0
 27 26  1  0  0  0  0
 29 27  1  6  0  0  0
 30 28  1  6  0  0  0
 30 33  1  0  0  0  0
 30 29  1  0  0  0  0
 31 34  1  0  0  0  0
 31 32  1  0  0  0  0
 33 32  1  1  0  0  0
 33 29  1  0  0  0  0
 34 30  1  0  0  0  0
M  END
>  <MODEL>
5

>  <REMARK>
 VINA RESULT:      -9.4      2.169      2.539
  Name = 
  4 active torsions:
  status: ('A' for Active; 'I' for Inactive)
    1  A    between atoms: C_3  and  C_13
    2  A    between atoms: C_3  and  N_17
    3  A    between atoms: C_12  and  N_28
    4  A    between atoms: N_17  and  C_29
                            x       y       z     vdW  Elec       q    Type
                         _______ _______ _______ _____ _____    ______ ____

>  <TORSDO>
F 4

$$$$
=
 OpenBabel10262419093D

 34 41  0  0  1  0  0  0  0  0999 V2000
  187.8950  177.6800  144.2490 C   0  0  0  0  0  0  0  0  0  0  0  0
  185.5210  178.3260  144.2010 C   0  0  0  0  0  0  0  0  0  0  0  0
  186.9140  178.4500  142.1970 C   0  0  0  0  0  0  0  0  0  0  0  0
  185.7980  178.3630  140.1160 C   0  0  1  0  0  3  0  0  0  0  0  0
  186.5680  177.6000  146.2740 C   0  0  0  0  0  3  0  0  0  0  0  0
  185.4400  178.0440  145.5690 C   0  0  0  0  0  3  0  0  0  0  0  0
  184.4980  178.8310  141.9600 C   0  0  0  0  0  0  0  0  0  0  0  0
  186.7740  178.1710  143.5530 C   0  0  0  0  0  0  0  0  0  0  0  0
  184.4040  178.7020  139.6130 C   0  0  0  0  0  2  0  0  0  0  0  0
  187.7900  177.4090  145.6160 C   0  0  0  0  0  3  0  0  0  0  0  0
  188.0820  178.1310  141.5000 C   0  0  0  0  0  0  0  0  0  0  0  0
  189.0870  177.4360  143.5450 C   0  0  0  0  0  3  0  0  0  0  0  0
  184.2590  178.7370  143.4480 C   0  0  0  0  0  2  0  0  0  0  0  0
  186.9420  178.7820  139.4100 O   0  0  0  0  0  0  0  0  0  0  0  0
  188.0110  178.1550  140.0310 N   0  0  0  0  0  0  0  0  0  0  0  0
  183.6580  178.6980  140.9280 C   0  0  0  0  0  0  0  0  0  0  0  0
  185.8340  179.0700  141.4290 C   0  0  1  0  0  3  0  0  0  0  0  0
  189.1500  177.6420  142.1930 N   0  0  0  0  0  0  0  0  0  0  0  0
  191.1430  176.6820  138.5450 C   0  0  0  0  0  0  0  0  0  0  0  0
  190.6010  175.8330  137.5790 C   0  0  0  0  0  3  0  0  0  0  0  0
  188.9050  177.3870  139.1980 C   0  0  0  0  0  0  0  0  0  0  0  0
  189.2160  175.7540  137.4180 C   0  0  0  0  0  3  0  0  0  0  0  0
  190.3000  177.4510  139.3520 C   0  0  0  0  0  3  0  0  0  0  0  0
  188.3750  176.5250  138.2250 C   0  0  0  0  0  3  0  0  0  0  0  0
  192.4860  176.7580  138.7050 F   0  0  0  0  0  0  0  0  0  0  0  0
  182.2470  178.4650  141.0170 N   0  0  0  0  0  2  0  0  0  0  0  0
  181.4000  178.1680  139.8740 C   0  0  0  0  0  2  0  0  0  0  0  0
  179.1030  177.2090  141.1580 F   0  0  0  0  0  0  0  0  0  0  0  0
  181.1730  176.6700  139.7840 C   0  0  1  0  0  3  0  0  0  0  0  0
  179.9130  176.2750  140.5340 C   0  0  2  0  0  0  0  0  0  0  0  0
  179.3680  174.3250  139.6600 C   0  0  0  0  0  2  0  0  0  0  0  0
  179.8500  175.0740  138.5740 O   0  0  0  0  0  0  0  0  0  0  0  0
  179.8670  176.3870  139.0440 C   0  0  2  0  0  3  0  0  0  0  0  0
  179.7510  174.9320  140.8660 O   0  0  0  0  0  0  0  0  0  0  0  0
  1 10  2  0  0  0  0
  2  6  1  0  0  0  0
  3  8  1  0  0  0  0
  4  9  1  6  0  0  0
  4 17  1  0  0  0  0
  6  5  2  0  0  0  0
  7 13  1  0  0  0  0
  8  2  2  0  0  0  0
  8  1  1  0  0  0  0
  9 16  1  0  0  0  0
 10  5  1  0  0  0  0
 11 18  1  0  0  0  0
 11  3  2  0  0  0  0
 12  1  1  0  0  0  0
 13  2  1  0  0  0  0
 14 15  1  0  0  0  0
 14  4  1  0  0  0  0
 15 11  1  0  0  0  0
 16 26  1  0  0  0  0
 16  7  2  0  0  0  0
 17  7  1  1  0  0  0
 17  3  1  0  0  0  0
 18 12  2  0  0  0  0
 19 25  1  0  0  0  0
 19 23  1  0  0  0  0
 20 19  2  0  0  0  0
 21 23  2  0  0  0  0
 21 15  1  0  0  0  0
 22 20  1  0  0  0  0
 22 24  2  0  0  0  0
 24 21  1  0  0  0  0
 27 26  1  0  0  0  0
 29 27  1  1  0  0  0
 29 30  1  0  0  0  0
 30 34  1  0  0  0  0
 30 28  1  1  0  0  0
 31 34  1  0  0  0  0
 32 31  1  0  0  0  0
 33 32  1  6  0  0  0
 33 29  1  0  0  0  0
 33 30  1  0  0  0  0
M  END
>  <MODEL>
6

>  <REMARK>
 VINA RESULT:      -9.4      2.193      2.438
  Name = 
  4 active torsions:
  status: ('A' for Active; 'I' for Inactive)
    1  A    between atoms: C_3  and  C_13
    2  A    between atoms: C_3  and  N_17
    3  A    between atoms: C_12  and  N_28
    4  A    between atoms: N_17  and  C_29
                            x       y       z     vdW  Elec       q    Type
                         _______ _______ _______ _____ _____    ______ ____

>  <TORSDO>
F 4

$$$$
=
 OpenBabel10262419093D

 34 41  0  0  1  0  0  0  0  0999 V2000
  185.7910  178.2950  144.9290 C   0  0  0  0  0  0  0  0  0  0  0  0
  185.5180  178.5970  142.5020 C   0  0  0  0  0  0  0  0  0  0  0  0
  187.7300  178.3670  143.5140 C   0  0  0  0  0  0  0  0  0  0  0  0
  189.4690  177.5930  142.1120 C   0  0  1  0  0  3  0  0  0  0  0  0
  183.5830  178.5810  143.9760 C   0  0  0  0  0  3  0  0  0  0  0  0
  184.1340  178.6760  142.6900 C   0  0  0  0  0  3  0  0  0  0  0  0
  187.5670  178.3590  141.0620 C   0  0  0  0  0  0  0  0  0  0  0  0
  186.3470  178.4380  143.6430 C   0  0  0  0  0  0  0  0  0  0  0  0
  189.7510  177.6070  140.6180 C   0  0  0  0  0  2  0  0  0  0  0  0
  184.4070  178.3820  145.0910 C   0  0  0  0  0  3  0  0  0  0  0  0
  188.5510  178.0270  144.5930 C   0  0  0  0  0  0  0  0  0  0  0  0
  186.6410  178.0290  146.0170 C   0  0  0  0  0  3  0  0  0  0  0  0
  186.0810  178.6300  141.0830 C   0  0  0  0  0  2  0  0  0  0  0  0
  190.4660  177.9540  143.0390 O   0  0  0  0  0  0  0  0  0  0  0  0
  189.9400  177.6540  144.2850 N   0  0  0  0  0  0  0  0  0  0  0  0
  188.3500  177.8540  140.1040 C   0  0  0  0  0  0  0  0  0  0  0  0
  188.3920  178.6190  142.2340 C   0  0  1  0  0  3  0  0  0  0  0  0
  187.9870  177.8780  145.8260 N   0  0  0  0  0  0  0  0  0  0  0  0
  192.1710  174.8890  145.5360 C   0  0  0  0  0  0  0  0  0  0  0  0
  192.2930  175.2400  146.8820 C   0  0  0  0  0  3  0  0  0  0  0  0
  190.7290  176.8150  145.1540 C   0  0  0  0  0  0  0  0  0  0  0  0
  191.6410  176.3740  147.3700 C   0  0  0  0  0  3  0  0  0  0  0  0
  191.3970  175.6740  144.6780 C   0  0  0  0  0  3  0  0  0  0  0  0
  190.8660  177.1580  146.5090 C   0  0  0  0  0  3  0  0  0  0  0  0
  192.8050  173.7910  145.0600 F   0  0  0  0  0  0  0  0  0  0  0  0
  187.9310  177.4740  138.7880 N   0  0  0  0  0  2  0  0  0  0  0  0
  188.8380  177.3040  137.6650 C   0  0  0  0  0  2  0  0  0  0  0  0
  190.2710  176.6810  135.3400 F   0  0  0  0  0  0  0  0  0  0  0  0
  189.0420  175.8250  137.3950 C   0  0  1  0  0  3  0  0  0  0  0  0
  189.8110  175.6190  136.1020 C   0  0  2  0  0  0  0  0  0  0  0  0
  190.6450  173.5870  136.3010 C   0  0  0  0  0  2  0  0  0  0  0  0
  190.7310  174.1300  137.5940 O   0  0  0  0  0  0  0  0  0  0  0  0
  190.5350  175.4980  137.4040 C   0  0  2  0  0  3  0  0  0  0  0  0
  189.7700  174.3550  135.5170 O   0  0  0  0  0  0  0  0  0  0  0  0
  1 10  1  0  0  0  0
  1 12  1  0  0  0  0
  2  6  2  0  0  0  0
  2  8  1  0  0  0  0
  3  8  1  0  0  0  0
  3 11  2  0  0  0  0
  4  9  1  6  0  0  0
  4 17  1  0  0  0  0
  4 14  1  0  0  0  0
  5 10  2  0  0  0  0
  6  5  1  0  0  0  0
  7 13  1  0  0  0  0
  8  1  2  0  0  0  0
 11 18  1  0  0  0  0
 13  2  1  0  0  0  0
 14 15  1  0  0  0  0
 15 11  1  0  0  0  0
 15 21  1  0  0  0  0
 16  9  1  0  0  0  0
 16  7  2  0  0  0  0
 17  7  1  6  0  0  0
 17  3  1  0  0  0  0
 18 12  2  0  0  0  0
 19 20  1  0  0  0  0
 20 22  2  0  0  0  0
 21 24  2  0  0  0  0
 23 21  1  0  0  0  0
 23 19  2  0  0  0  0
 24 22  1  0  0  0  0
 25 19  1  0  0  0  0
 26 16  1  0  0  0  0
 27 26  1  0  0  0  0
 29 33  1  0  0  0  0
 29 27  1  6  0  0  0
 30 28  1  6  0  0  0
 30 29  1  0  0  0  0
 30 33  1  0  0  0  0
 31 32  1  0  0  0  0
 33 32  1  1  0  0  0
 34 30  1  0  0  0  0
 34 31  1  0  0  0  0
M  END
>  <MODEL>
7

>  <REMARK>
 VINA RESULT:      -9.3      4.040      7.371
  Name = 
  4 active torsions:
  status: ('A' for Active; 'I' for Inactive)
    1  A    between atoms: C_3  and  C_13
    2  A    between atoms: C_3  and  N_17
    3  A    between atoms: C_12  and  N_28
    4  A    between atoms: N_17  and  C_29
                            x       y       z     vdW  Elec       q    Type
                         _______ _______ _______ _____ _____    ______ ____

>  <TORSDO>
F 4

$$$$
=
 OpenBabel10262419093D

 34 41  0  0  1  0  0  0  0  0999 V2000
  189.1940  177.0950  146.7060 C   0  0  0  0  0  0  0  0  0  0  0  0
  191.0260  176.7200  145.1070 C   0  0  0  0  0  0  0  0  0  0  0  0
  188.6980  176.8180  144.3740 C   0  0  0  0  0  0  0  0  0  0  0  0
  188.3140  177.3970  142.1150 C   0  0  1  0  0  3  0  0  0  0  0  0
  191.4830  176.9440  147.4860 C   0  0  0  0  0  3  0  0  0  0  0  0
  191.9340  176.7550  146.1720 C   0  0  0  0  0  3  0  0  0  0  0  0
  190.4540  176.7400  142.6580 C   0  0  0  0  0  0  0  0  0  0  0  0
  189.6430  176.8580  145.3930 C   0  0  0  0  0  0  0  0  0  0  0  0
  189.1010  177.3020  140.8180 C   0  0  0  0  0  2  0  0  0  0  0  0
  190.1190  177.1230  147.7530 C   0  0  0  0  0  3  0  0  0  0  0  0
  187.3560  177.1360  144.6050 C   0  0  0  0  0  0  0  0  0  0  0  0
  187.8280  177.3380  146.9310 C   0  0  0  0  0  3  0  0  0  0  0  0
  191.5540  176.5860  143.6810 C   0  0  0  0  0  2  0  0  0  0  0  0
  186.9650  176.9980  142.1720 O   0  0  0  0  0  0  0  0  0  0  0  0
  186.5160  177.3870  143.4240 N   0  0  0  0  0  0  0  0  0  0  0  0
  190.4940  177.1450  141.3840 C   0  0  0  0  0  0  0  0  0  0  0  0
  189.0660  176.4640  143.0030 C   0  0  1  0  0  3  0  0  0  0  0  0
  186.9480  177.3770  145.8830 N   0  0  0  0  0  0  0  0  0  0  0  0
  183.2370  178.9990  142.5100 C   0  0  0  0  0  0  0  0  0  0  0  0
  182.9880  179.7560  143.6570 C   0  0  0  0  0  3  0  0  0  0  0  0
  185.3230  178.1960  143.4790 C   0  0  0  0  0  0  0  0  0  0  0  0
  183.8970  179.7370  144.7160 C   0  0  0  0  0  3  0  0  0  0  0  0
  184.3940  178.2210  142.4240 C   0  0  0  0  0  3  0  0  0  0  0  0
  185.0560  178.9590  144.6270 C   0  0  0  0  0  3  0  0  0  0  0  0
  182.3540  179.0130  141.4830 F   0  0  0  0  0  0  0  0  0  0  0  0
  191.6730  177.5030  140.6520 N   0  0  0  0  0  2  0  0  0  0  0  0
  191.7650  177.4820  139.2020 C   0  0  0  0  0  2  0  0  0  0  0  0
  189.6840  176.4980  137.6050 F   0  0  0  0  0  0  0  0  0  0  0  0
  191.9240  176.0510  138.7230 C   0  0  1  0  0  3  0  0  0  0  0  0
  190.7270  175.6310  137.8880 C   0  0  2  0  0  0  0  0  0  0  0  0
  191.4800  173.9290  136.7050 C   0  0  0  0  0  2  0  0  0  0  0  0
  192.5620  174.8230  136.7610 O   0  0  0  0  0  0  0  0  0  0  0  0
  191.9940  176.0200  137.1970 C   0  0  2  0  0  3  0  0  0  0  0  0
  190.5290  174.2680  137.6800 O   0  0  0  0  0  0  0  0  0  0  0  0
  1 12  1  0  0  0  0
  1 10  2  0  0  0  0
  2  8  2  0  0  0  0
  2  6  1  0  0  0  0
  3 11  2  0  0  0  0
  3  8  1  0  0  0  0
  4  9  1  6  0  0  0
  4 14  1  0  0  0  0
  4 17  1  0  0  0  0
  5 10  1  0  0  0  0
  6  5  2  0  0  0  0
  7 13  1  0  0  0  0
  8  1  1  0  0  0  0
  9 16  1  0  0  0  0
 11 18  1  0  0  0  0
 13  2  1  0  0  0  0
 14 15  1  0  0  0  0
 15 21  1  0  0  0  0
 15 11  1  0  0  0  0
 16  7  2  0  0  0  0
 17  7  1  1  0  0  0
 17  3  1  0  0  0  0
 18 12  2  0  0  0  0
 19 20  1  0  0  0  0
 20 22  2  0  0  0  0
 21 24  2  0  0  0  0
 23 19  2  0  0  0  0
 23 21  1  0  0  0  0
 24 22  1  0  0  0  0
 25 19  1  0  0  0  0
 26 16  1  0  0  0  0
 27 26  1  0  0  0  0
 29 27  1  6  0  0  0
 30 28  1  6  0  0  0
 30 29  1  0  0  0  0
 31 32  1  0  0  0  0
 31 34  1  0  0  0  0
 33 32  1  1  0  0  0
 33 30  1  0  0  0  0
 33 29  1  0  0  0  0
 34 30  1  0  0  0  0
M  END
>  <MODEL>
8

>  <REMARK>
 VINA RESULT:      -9.3      2.825      8.288
  Name = 
  4 active torsions:
  status: ('A' for Active; 'I' for Inactive)
    1  A    between atoms: C_3  and  C_13
    2  A    between atoms: C_3  and  N_17
    3  A    between atoms: C_12  and  N_28
    4  A    between atoms: N_17  and  C_29
                            x       y       z     vdW  Elec       q    Type
                         _______ _______ _______ _____ _____    ______ ____

>  <TORSDO>
F 4

$$$$
=
 OpenBabel10262419093D

 34 41  0  0  1  0  0  0  0  0999 V2000
  189.4450  177.5390  141.6550 C   0  0  0  0  0  0  0  0  0  0  0  0
  187.1060  178.2360  141.3390 C   0  0  0  0  0  0  0  0  0  0  0  0
  187.8890  177.3440  143.4740 C   0  0  0  0  0  0  0  0  0  0  0  0
  186.6570  177.9470  145.3980 C   0  0  1  0  0  3  0  0  0  0  0  0
  188.6980  178.3610  139.5030 C   0  0  0  0  0  3  0  0  0  0  0  0
  187.4050  178.5570  140.0100 C   0  0  0  0  0  3  0  0  0  0  0  0
  185.6210  178.2830  143.3680 C   0  0  0  0  0  0  0  0  0  0  0  0
  188.1350  177.6910  142.1500 C   0  0  0  0  0  0  0  0  0  0  0  0
  185.2280  178.3780  145.6850 C   0  0  0  0  0  2  0  0  0  0  0  0
  189.7170  177.8620  140.3240 C   0  0  0  0  0  3  0  0  0  0  0  0
  188.9240  176.9820  144.3420 C   0  0  0  0  0  0  0  0  0  0  0  0
  190.4590  177.1000  142.5240 C   0  0  0  0  0  3  0  0  0  0  0  0
  185.7100  178.5300  141.8810 C   0  0  0  0  0  2  0  0  0  0  0  0
  187.2900  176.9700  146.1910 O   0  0  0  0  0  0  0  0  0  0  0  0
  188.6130  176.9590  145.7790 N   0  0  0  0  0  0  0  0  0  0  0  0
  184.8150  178.8100  144.2960 C   0  0  0  0  0  0  0  0  0  0  0  0
  186.5370  177.3630  144.0310 C   0  0  1  0  0  3  0  0  0  0  0  0
  190.1860  176.8560  143.8430 N   0  0  0  0  0  0  0  0  0  0  0  0
  191.7930  176.5650  147.7600 C   0  0  0  0  0  0  0  0  0  0  0  0
  191.5880  177.5040  148.7730 C   0  0  0  0  0  3  0  0  0  0  0  0
  189.6250  177.1190  146.7940 C   0  0  0  0  0  0  0  0  0  0  0  0
  190.4100  178.2530  148.8030 C   0  0  0  0  0  3  0  0  0  0  0  0
  190.8190  176.3780  146.7750 C   0  0  0  0  0  3  0  0  0  0  0  0
  189.4370  178.0620  147.8170 C   0  0  0  0  0  3  0  0  0  0  0  0
  192.9360  175.8400  147.7270 F   0  0  0  0  0  0  0  0  0  0  0  0
  183.7620  179.7520  144.0590 N   0  0  0  0  0  2  0  0  0  0  0  0
  182.3610  179.4920  144.3440 C   0  0  0  0  0  2  0  0  0  0  0  0
  179.7750  178.4800  144.7060 F   0  0  0  0  0  0  0  0  0  0  0  0
  181.6740  178.9790  143.0910 C   0  0  1  0  0  3  0  0  0  0  0  0
  180.2930  178.4410  143.4220 C   0  0  2  0  0  0  0  0  0  0  0  0
  179.2300  178.4920  141.4910 C   0  0  0  0  0  2  0  0  0  0  0  0
  180.0200  179.6540  141.4880 O   0  0  0  0  0  0  0  0  0  0  0  0
  180.4170  179.8020  142.8170 C   0  0  2  0  0  3  0  0  0  0  0  0
  179.6800  177.6110  142.4860 O   0  0  0  0  0  0  0  0  0  0  0  0
  1  8  2  0  0  0  0
  1 12  1  0  0  0  0
  2 13  1  0  0  0  0
  2  8  1  0  0  0  0
  3 17  1  0  0  0  0
  3 11  2  0  0  0  0
  4  9  1  1  0  0  0
  4 14  1  0  0  0  0
  5  6  1  0  0  0  0
  5 10  2  0  0  0  0
  6  2  2  0  0  0  0
  7 16  2  0  0  0  0
  8  3  1  0  0  0  0
 10  1  1  0  0  0  0
 11 15  1  0  0  0  0
 12 18  2  0  0  0  0
 13  7  1  0  0  0  0
 15 14  1  0  0  0  0
 15 21  1  0  0  0  0
 16  9  1  0  0  0  0
 17  7  1  6  0  0  0
 17  4  1  0  0  0  0
 18 11  1  0  0  0  0
 19 20  1  0  0  0  0
 20 22  2  0  0  0  0
 21 24  2  0  0  0  0
 23 21  1  0  0  0  0
 23 19  2  0  0  0  0
 24 22  1  0  0  0  0
 25 19  1  0  0  0  0
 26 16  1  0  0  0  0
 26 27  1  0  0  0  0
 29 30  1  0  0  0  0
 29 27  1  1  0  0  0
 30 28  1  1  0  0  0
 31 34  1  0  0  0  0
 32 31  1  0  0  0  0
 33 32  1  6  0  0  0
 33 29  1  0  0  0  0
 33 30  1  0  0  0  0
 34 30  1  0  0  0  0
M  END
>  <MODEL>
9

>  <REMARK>
 VINA RESULT:      -9.2      2.726      5.374
  Name = 
  4 active torsions:
  status: ('A' for Active; 'I' for Inactive)
    1  A    between atoms: C_3  and  C_13
    2  A    between atoms: C_3  and  N_17
    3  A    between atoms: C_12  and  N_28
    4  A    between atoms: N_17  and  C_29
                            x       y       z     vdW  Elec       q    Type
                         _______ _______ _______ _____ _____    ______ ____

>  <TORSDO>
F 4

$$$$
