=
 OpenBabel10262421453D

 30 32  0  0  1  0  0  0  0  0999 V2000
  184.1520  178.6450  140.7590 N   0  0  1  0  0  0  0  0  0  0  0  0
  183.5730  179.6020  139.7880 C   0  0  1  0  0  3  0  0  0  0  0  0
  184.6740  178.6970  139.3740 C   0  0  2  0  0  3  0  0  0  0  0  0
  186.4550  178.5390  141.4630 C   0  0  0  0  0  0  0  0  0  0  0  0
  186.9530  177.6900  142.5630 C   0  0  0  0  0  3  0  0  0  0  0  0
  187.0950  178.5940  140.3770 O   0  0  0  0  0  0  0  0  0  0  0  0
  184.7120  179.3810  143.0550 C   0  0  0  0  0  3  0  0  0  0  0  0
  184.7350  178.8050  145.4290 C   0  0  0  0  0  1  0  0  0  0  0  0
  185.1550  179.2940  141.6020 C   0  0  2  0  0  3  0  0  0  0  0  0
  186.3780  177.7450  143.7710 C   0  0  0  0  0  3  0  0  0  0  0  0
  185.2510  178.6520  144.0360 C   0  0  0  0  0  0  0  0  0  0  0  0
  184.5600  175.9340  136.7420 C   0  0  0  0  0  3  0  0  0  0  0  0
  184.9100  177.1290  137.3930 C   0  0  0  0  0  0  0  0  0  0  0  0
  183.3700  176.5490  139.1860 C   0  0  0  0  0  3  0  0  0  0  0  0
  184.2840  177.4530  138.6130 C   0  0  0  0  0  0  0  0  0  0  0  0
  183.6300  175.0550  137.3100 C   0  0  0  0  0  3  0  0  0  0  0  0
  183.0400  175.3570  138.5370 C   0  0  0  0  0  3  0  0  0  0  0  0
  185.8890  177.9940  136.8670 O   0  0  0  0  0  0  0  0  0  0  0  0
  187.6870  176.5210  137.5700 C   0  0  0  0  0  1  0  0  0  0  0  0
  187.4870  177.2660  135.2350 C   0  0  0  0  0  1  0  0  0  0  0  0
  188.1460  178.8930  136.9510 C   0  0  0  0  0  1  0  0  0  0  0  0
  187.2730  177.6780  136.6770 C   0  0  0  0  0  0  0  0  0  0  0  0
  182.1460  179.1560  139.4330 C   0  0  2  0  0  3  0  0  0  0  0  0
  181.3110  178.1220  136.7990 O   0  0  0  0  0  0  0  0  0  0  0  0
  181.2410  179.3610  137.0240 C   0  0  0  0  0  0  0  0  0  0  0  0
  180.7560  180.2660  135.9530 C   0  0  0  0  0  1  0  0  0  0  0  0
  181.6080  179.9130  138.2990 N   0  0  0  0  0  2  0  0  0  0  0  0
  180.4200  180.3190  140.6850 O   0  0  0  0  0  1  0  0  0  0  0  0
  180.3090  177.9300  140.6290 C   0  0  0  0  0  1  0  0  0  0  0  0
  181.2030  179.1600  140.6470 C   0  0  1  0  0  3  0  0  0  0  0  0
  1  9  1  1  0  0  0
  2 23  1  6  0  0  0
  2  1  1  0  0  0  0
  3 15  1  6  0  0  0
  3  2  1  0  0  0  0
  3  1  1  0  0  0  0
  4  9  1  0  0  0  0
  4  5  1  0  0  0  0
  5 10  2  0  0  0  0
  6  4  2  0  0  0  0
  7 11  2  0  0  0  0
  9  7  1  1  0  0  0
 10 11  1  0  0  0  0
 11  8  1  0  0  0  0
 12 16  2  0  0  0  0
 12 13  1  0  0  0  0
 13 15  2  0  0  0  0
 15 14  1  0  0  0  0
 16 17  1  0  0  0  0
 17 14  2  0  0  0  0
 18 13  1  0  0  0  0
 20 22  1  0  0  0  0
 22 18  1  0  0  0  0
 22 21  1  0  0  0  0
 22 19  1  0  0  0  0
 23 27  1  6  0  0  0
 23 30  1  0  0  0  0
 24 25  2  0  0  0  0
 25 27  1  0  0  0  0
 26 25  1  0  0  0  0
 30 29  1  6  0  0  0
 30 28  1  0  0  0  0
M  END
>  <MODEL>
1

>  <REMARK>
 VINA RESULT:      -6.0      0.000      0.000
  Name = 
  7 active torsions:
  status: ('A' for Active; 'I' for Inactive)
    1  A    between atoms: N_1  and  C_22
    2  A    between atoms: C_4  and  C_23
    3  A    between atoms: C_5  and  C_12
    4  A    between atoms: C_8  and  O_13
    5  A    between atoms: O_13  and  C_30
    6  A    between atoms: C_23  and  N_25
    7  A    between atoms: C_23  and  C_26
                            x       y       z     vdW  Elec       q    Type
                         _______ _______ _______ _____ _____    ______ ____

>  <TORSDO>
F 7

$$$$
=
 OpenBabel10262421453D

 30 32  0  0  1  0  0  0  0  0999 V2000
  188.0710  177.2160  136.8580 N   0  0  1  0  0  0  0  0  0  0  0  0
  187.7030  175.9880  137.5990 C   0  0  1  0  0  3  0  0  0  0  0  0
  186.8450  177.1960  137.6870 C   0  0  2  0  0  3  0  0  0  0  0  0
  190.2860  177.1490  137.8070 C   0  0  0  0  0  0  0  0  0  0  0  0
  190.6050  176.6030  139.1400 C   0  0  0  0  0  3  0  0  0  0  0  0
  191.0170  176.8590  136.8200 O   0  0  0  0  0  0  0  0  0  0  0  0
  188.5030  178.5140  138.9210 C   0  0  0  0  0  3  0  0  0  0  0  0
  188.2710  178.6130  141.3510 C   0  0  0  0  0  1  0  0  0  0  0  0
  189.0570  178.0020  137.5990 C   0  0  2  0  0  3  0  0  0  0  0  0
  189.9380  177.0270  140.2210 C   0  0  0  0  0  3  0  0  0  0  0  0
  188.8850  178.0480  140.1120 C   0  0  0  0  0  0  0  0  0  0  0  0
  183.2040  177.3000  136.5440 C   0  0  0  0  0  3  0  0  0  0  0  0
  184.3260  177.2190  137.3860 C   0  0  0  0  0  0  0  0  0  0  0  0
  185.7550  177.3700  135.4220 C   0  0  0  0  0  3  0  0  0  0  0  0
  185.6140  177.2220  136.8150 C   0  0  0  0  0  0  0  0  0  0  0  0
  183.3580  177.4210  135.1570 C   0  0  0  0  0  3  0  0  0  0  0  0
  184.6330  177.4640  134.5950 C   0  0  0  0  0  3  0  0  0  0  0  0
  184.1900  177.1590  138.7870 O   0  0  0  0  0  0  0  0  0  0  0  0
  182.1980  178.1720  139.7360 C   0  0  0  0  0  1  0  0  0  0  0  0
  184.2930  178.0350  141.0160 C   0  0  0  0  0  1  0  0  0  0  0  0
  184.1650  179.5690  139.1040 C   0  0  0  0  0  1  0  0  0  0  0  0
  183.7120  178.2140  139.6290 C   0  0  0  0  0  0  0  0  0  0  0  0
  187.2690  174.9070  136.5960 C   0  0  2  0  0  3  0  0  0  0  0  0
  184.5920  174.0120  135.7380 O   0  0  0  0  0  0  0  0  0  0  0  0
  185.1020  173.5170  136.7800 C   0  0  0  0  0  0  0  0  0  0  0  0
  184.3340  172.5100  137.5530 C   0  0  0  0  0  1  0  0  0  0  0  0
  186.4130  173.8970  137.2250 N   0  0  0  0  0  2  0  0  0  0  0  0
  189.3650  173.6870  136.7130 O   0  0  0  0  0  1  0  0  0  0  0  0
  187.9610  173.2710  134.8210 C   0  0  0  0  0  1  0  0  0  0  0  0
  188.4540  174.2890  135.8390 C   0  0  1  0  0  3  0  0  0  0  0  0
  1  2  1  0  0  0  0
  1  9  1  1  0  0  0
  1  3  1  0  0  0  0
  2 23  1  6  0  0  0
  2  3  1  0  0  0  0
  3 15  1  6  0  0  0
  4  5  1  0  0  0  0
  5 10  2  0  0  0  0
  6  4  2  0  0  0  0
  7 11  2  0  0  0  0
  9  4  1  0  0  0  0
  9  7  1  1  0  0  0
 11 10  1  0  0  0  0
 11  8  1  0  0  0  0
 12 13  1  0  0  0  0
 13 18  1  0  0  0  0
 14 15  1  0  0  0  0
 15 13  2  0  0  0  0
 16 12  2  0  0  0  0
 17 16  1  0  0  0  0
 17 14  2  0  0  0  0
 18 22  1  0  0  0  0
 21 22  1  0  0  0  0
 22 19  1  0  0  0  0
 22 20  1  0  0  0  0
 23 27  1  1  0  0  0
 24 25  2  0  0  0  0
 25 27  1  0  0  0  0
 25 26  1  0  0  0  0
 30 29  1  6  0  0  0
 30 23  1  0  0  0  0
 30 28  1  0  0  0  0
M  END
>  <MODEL>
2

>  <REMARK>
 VINA RESULT:      -5.6      3.021      6.130
  Name = 
  7 active torsions:
  status: ('A' for Active; 'I' for Inactive)
    1  A    between atoms: N_1  and  C_22
    2  A    between atoms: C_4  and  C_23
    3  A    between atoms: C_5  and  C_12
    4  A    between atoms: C_8  and  O_13
    5  A    between atoms: O_13  and  C_30
    6  A    between atoms: C_23  and  N_25
    7  A    between atoms: C_23  and  C_26
                            x       y       z     vdW  Elec       q    Type
                         _______ _______ _______ _____ _____    ______ ____

>  <TORSDO>
F 7

$$$$
=
 OpenBabel10262421453D

 30 32  0  0  1  0  0  0  0  0999 V2000
  192.4450  175.8180  137.1310 N   0  0  1  0  0  0  0  0  0  0  0  0
  191.6980  174.6130  137.5590 C   0  0  1  0  0  3  0  0  0  0  0  0
  191.6990  175.8290  138.4090 C   0  0  2  0  0  3  0  0  0  0  0  0
  194.6810  176.0620  136.2630 C   0  0  0  0  0  0  0  0  0  0  0  0
  195.4040  175.0150  135.5150 C   0  0  0  0  0  3  0  0  0  0  0  0
  194.7050  177.2550  135.8520 O   0  0  0  0  0  0  0  0  0  0  0  0
  194.2150  174.3280  138.0120 C   0  0  0  0  0  3  0  0  0  0  0  0
  195.2290  172.1070  137.9410 C   0  0  0  0  0  1  0  0  0  0  0  0
  193.8610  175.7100  137.4810 C   0  0  2  0  0  3  0  0  0  0  0  0
  195.5210  173.7820  136.0230 C   0  0  0  0  0  3  0  0  0  0  0  0
  194.9470  173.4420  137.3330 C   0  0  0  0  0  0  0  0  0  0  0  0
  188.5610  177.8100  139.3080 C   0  0  0  0  0  3  0  0  0  0  0  0
  189.6430  176.9200  139.4200 C   0  0  0  0  0  0  0  0  0  0  0  0
  190.2780  177.4770  137.1380 C   0  0  0  0  0  3  0  0  0  0  0  0
  190.4920  176.7290  138.3120 C   0  0  0  0  0  0  0  0  0  0  0  0
  188.3450  178.5290  138.1250 C   0  0  0  0  0  3  0  0  0  0  0  0
  189.2080  178.3690  137.0420 C   0  0  0  0  0  3  0  0  0  0  0  0
  189.9110  176.2370  140.6220 O   0  0  0  0  0  0  0  0  0  0  0  0
  189.3060  177.8640  142.3190 C   0  0  0  0  0  1  0  0  0  0  0  0
  190.4310  175.7600  142.9130 C   0  0  0  0  0  1  0  0  0  0  0  0
  191.6930  177.4860  141.7060 C   0  0  0  0  0  1  0  0  0  0  0  0
  190.3240  176.8380  141.8550 C   0  0  0  0  0  0  0  0  0  0  0  0
  190.4850  174.4200  136.6350 C   0  0  2  0  0  3  0  0  0  0  0  0
  187.6670  173.9780  135.8780 O   0  0  0  0  0  0  0  0  0  0  0  0
  188.1840  173.2570  136.7740 C   0  0  0  0  0  0  0  0  0  0  0  0
  187.3560  172.2180  137.4350 C   0  0  0  0  0  1  0  0  0  0  0  0
  189.5590  173.4110  137.1600 N   0  0  0  0  0  2  0  0  0  0  0  0
  191.4870  175.2720  134.5940 O   0  0  0  0  0  1  0  0  0  0  0  0
  191.8230  172.9570  135.0940 C   0  0  0  0  0  1  0  0  0  0  0  0
  190.8850  174.1510  135.1760 C   0  0  1  0  0  3  0  0  0  0  0  0
  1  9  1  1  0  0  0
  1  2  1  0  0  0  0
  1  3  1  0  0  0  0
  2 23  1  6  0  0  0
  2  3  1  0  0  0  0
  3 15  1  6  0  0  0
  4  9  1  0  0  0  0
  5 10  2  0  0  0  0
  5  4  1  0  0  0  0
  6  4  2  0  0  0  0
  9  7  1  6  0  0  0
 10 11  1  0  0  0  0
 11  8  1  0  0  0  0
 11  7  2  0  0  0  0
 12 13  1  0  0  0  0
 13 18  1  0  0  0  0
 14 15  1  0  0  0  0
 15 13  2  0  0  0  0
 16 12  2  0  0  0  0
 17 14  2  0  0  0  0
 17 16  1  0  0  0  0
 18 22  1  0  0  0  0
 21 22  1  0  0  0  0
 22 19  1  0  0  0  0
 22 20  1  0  0  0  0
 23 27  1  1  0  0  0
 24 25  2  0  0  0  0
 25 27  1  0  0  0  0
 25 26  1  0  0  0  0
 28 30  1  0  0  0  0
 30 29  1  1  0  0  0
 30 23  1  0  0  0  0
M  END
>  <MODEL>
3

>  <REMARK>
 VINA RESULT:      -5.6      5.696      9.579
  Name = 
  7 active torsions:
  status: ('A' for Active; 'I' for Inactive)
    1  A    between atoms: N_1  and  C_22
    2  A    between atoms: C_4  and  C_23
    3  A    between atoms: C_5  and  C_12
    4  A    between atoms: C_8  and  O_13
    5  A    between atoms: O_13  and  C_30
    6  A    between atoms: C_23  and  N_25
    7  A    between atoms: C_23  and  C_26
                            x       y       z     vdW  Elec       q    Type
                         _______ _______ _______ _____ _____    ______ ____

>  <TORSDO>
F 7

$$$$
=
 OpenBabel10262421453D

 30 32  0  0  1  0  0  0  0  0999 V2000
  189.2380  177.7470  138.5270 N   0  0  1  0  0  0  0  0  0  0  0  0
  188.9030  176.3130  138.6910 C   0  0  1  0  0  3  0  0  0  0  0  0
  187.8210  177.3150  138.5280 C   0  0  2  0  0  3  0  0  0  0  0  0
  190.4580  177.5350  140.5950 C   0  0  0  0  0  0  0  0  0  0  0  0
  190.0120  176.7270  141.7480 C   0  0  0  0  0  3  0  0  0  0  0  0
  191.6610  177.4780  140.2190 O   0  0  0  0  0  0  0  0  0  0  0  0
  188.1840  178.5900  140.6030 C   0  0  0  0  0  3  0  0  0  0  0  0
  186.5630  178.1670  142.3810 C   0  0  0  0  0  1  0  0  0  0  0  0
  189.4750  178.3820  139.8240 C   0  0  2  0  0  3  0  0  0  0  0  0
  188.7860  176.8970  142.2570 C   0  0  0  0  0  3  0  0  0  0  0  0
  187.8610  177.8910  141.6950 C   0  0  0  0  0  0  0  0  0  0  0  0
  185.3150  177.4680  135.6520 C   0  0  0  0  0  3  0  0  0  0  0  0
  185.8420  177.2750  136.9400 C   0  0  0  0  0  0  0  0  0  0  0  0
  188.0370  177.8840  136.0820 C   0  0  0  0  0  3  0  0  0  0  0  0
  187.2240  177.4550  137.1490 C   0  0  0  0  0  0  0  0  0  0  0  0
  186.1390  177.8700  134.5940 C   0  0  0  0  0  3  0  0  0  0  0  0
  187.4990  178.0860  134.8090 C   0  0  0  0  0  3  0  0  0  0  0  0
  185.0180  176.9320  138.0290 O   0  0  0  0  0  0  0  0  0  0  0  0
  182.8610  177.9650  137.6080 C   0  0  0  0  0  1  0  0  0  0  0  0
  183.4330  177.0630  139.8220 C   0  0  0  0  0  1  0  0  0  0  0  0
  184.5630  179.0960  139.0380 C   0  0  0  0  0  1  0  0  0  0  0  0
  183.9930  177.7560  138.5980 C   0  0  0  0  0  0  0  0  0  0  0  0
  189.3310  175.5510  137.4270 C   0  0  2  0  0  3  0  0  0  0  0  0
  187.4370  174.3850  135.4880 O   0  0  0  0  0  0  0  0  0  0  0  0
  187.8450  173.6800  136.4510 C   0  0  0  0  0  0  0  0  0  0  0  0
  187.3480  172.2890  136.5900 C   0  0  0  0  0  1  0  0  0  0  0  0
  188.7890  174.1890  137.4060 N   0  0  0  0  0  2  0  0  0  0  0  0
  191.5060  174.6030  137.9490 O   0  0  0  0  0  1  0  0  0  0  0  0
  191.1690  175.4070  135.7210 C   0  0  0  0  0  1  0  0  0  0  0  0
  190.8500  175.5850  137.1980 C   0  0  1  0  0  3  0  0  0  0  0  0
  1  3  1  0  0  0  0
  1  2  1  0  0  0  0
  1  9  1  1  0  0  0
  2 23  1  6  0  0  0
  3 15  1  6  0  0  0
  3  2  1  0  0  0  0
  4  5  1  0  0  0  0
  5 10  2  0  0  0  0
  6  4  2  0  0  0  0
  7 11  2  0  0  0  0
  9  4  1  0  0  0  0
  9  7  1  1  0  0  0
 11 10  1  0  0  0  0
 11  8  1  0  0  0  0
 12 13  1  0  0  0  0
 13 15  2  0  0  0  0
 13 18  1  0  0  0  0
 14 15  1  0  0  0  0
 16 17  1  0  0  0  0
 16 12  2  0  0  0  0
 17 14  2  0  0  0  0
 18 22  1  0  0  0  0
 19 22  1  0  0  0  0
 22 21  1  0  0  0  0
 22 20  1  0  0  0  0
 23 27  1  1  0  0  0
 24 25  2  0  0  0  0
 25 26  1  0  0  0  0
 25 27  1  0  0  0  0
 30 29  1  6  0  0  0
 30 23  1  0  0  0  0
 30 28  1  0  0  0  0
M  END
>  <MODEL>
4

>  <REMARK>
 VINA RESULT:      -5.5      3.126      6.432
  Name = 
  7 active torsions:
  status: ('A' for Active; 'I' for Inactive)
    1  A    between atoms: N_1  and  C_22
    2  A    between atoms: C_4  and  C_23
    3  A    between atoms: C_5  and  C_12
    4  A    between atoms: C_8  and  O_13
    5  A    between atoms: O_13  and  C_30
    6  A    between atoms: C_23  and  N_25
    7  A    between atoms: C_23  and  C_26
                            x       y       z     vdW  Elec       q    Type
                         _______ _______ _______ _____ _____    ______ ____

>  <TORSDO>
F 7

$$$$
=
 OpenBabel10262421453D

 30 32  0  0  1  0  0  0  0  0999 V2000
  184.6030  179.0430  140.1680 N   0  0  1  0  0  0  0  0  0  0  0  0
  184.0740  177.7020  140.5090 C   0  0  1  0  0  3  0  0  0  0  0  0
  183.3660  178.9210  140.9730 C   0  0  2  0  0  3  0  0  0  0  0  0
  186.8690  178.5740  140.8420 C   0  0  0  0  0  0  0  0  0  0  0  0
  187.2530  177.5200  141.8000 C   0  0  0  0  0  3  0  0  0  0  0  0
  187.5260  178.7190  139.7740 O   0  0  0  0  0  0  0  0  0  0  0  0
  185.2090  179.3590  142.5480 C   0  0  0  0  0  3  0  0  0  0  0  0
  185.1350  178.4360  144.8080 C   0  0  0  0  0  1  0  0  0  0  0  0
  185.6600  179.4420  141.0960 C   0  0  2  0  0  3  0  0  0  0  0  0
  186.6710  177.4580  143.0040 C   0  0  0  0  0  3  0  0  0  0  0  0
  185.6500  178.4360  143.4060 C   0  0  0  0  0  0  0  0  0  0  0  0
  179.7660  179.5770  139.8860 C   0  0  0  0  0  3  0  0  0  0  0  0
  180.8590  179.1050  140.6330 C   0  0  0  0  0  0  0  0  0  0  0  0
  182.3530  180.1300  139.0080 C   0  0  0  0  0  3  0  0  0  0  0  0
  182.1650  179.3580  140.1710 C   0  0  0  0  0  0  0  0  0  0  0  0
  179.9660  180.3220  138.7170 C   0  0  0  0  0  3  0  0  0  0  0  0
  181.2600  180.6060  138.2810 C   0  0  0  0  0  3  0  0  0  0  0  0
  180.6760  178.4090  141.8430 O   0  0  0  0  0  0  0  0  0  0  0  0
  179.8650  180.3740  143.0170 C   0  0  0  0  0  1  0  0  0  0  0  0
  179.5980  178.1210  143.9650 C   0  0  0  0  0  1  0  0  0  0  0  0
  181.8430  179.1080  143.8580 C   0  0  0  0  0  1  0  0  0  0  0  0
  180.5080  179.0030  143.1350 C   0  0  0  0  0  0  0  0  0  0  0  0
  183.5340  177.0360  139.2340 C   0  0  2  0  0  3  0  0  0  0  0  0
  180.7870  176.6860  138.2160 O   0  0  0  0  0  0  0  0  0  0  0  0
  181.2500  175.8500  139.0390 C   0  0  0  0  0  0  0  0  0  0  0  0
  180.3940  174.7230  139.4850 C   0  0  0  0  0  1  0  0  0  0  0  0
  182.5900  175.9580  139.5430 N   0  0  0  0  0  2  0  0  0  0  0  0
  184.3610  175.3490  137.6950 O   0  0  0  0  0  1  0  0  0  0  0  0
  184.8760  177.6320  137.1960 C   0  0  0  0  0  1  0  0  0  0  0  0
  184.6510  176.5870  138.2790 C   0  0  1  0  0  3  0  0  0  0  0  0
  1  2  1  0  0  0  0
  1  3  1  0  0  0  0
  1  9  1  1  0  0  0
  2 23  1  6  0  0  0
  2  3  1  0  0  0  0
  3 15  1  6  0  0  0
  4  9  1  0  0  0  0
  4  5  1  0  0  0  0
  5 10  2  0  0  0  0
  6  4  2  0  0  0  0
  7 11  2  0  0  0  0
  9  7  1  1  0  0  0
 10 11  1  0  0  0  0
 11  8  1  0  0  0  0
 12 13  1  0  0  0  0
 13 18  1  0  0  0  0
 14 15  1  0  0  0  0
 15 13  2  0  0  0  0
 16 12  2  0  0  0  0
 17 16  1  0  0  0  0
 17 14  2  0  0  0  0
 18 22  1  0  0  0  0
 19 22  1  0  0  0  0
 22 21  1  0  0  0  0
 22 20  1  0  0  0  0
 23 27  1  1  0  0  0
 24 25  2  0  0  0  0
 25 26  1  0  0  0  0
 25 27  1  0  0  0  0
 28 30  1  0  0  0  0
 30 29  1  6  0  0  0
 30 23  1  0  0  0  0
M  END
>  <MODEL>
5

>  <REMARK>
 VINA RESULT:      -5.3      1.865      5.348
  Name = 
  7 active torsions:
  status: ('A' for Active; 'I' for Inactive)
    1  A    between atoms: N_1  and  C_22
    2  A    between atoms: C_4  and  C_23
    3  A    between atoms: C_5  and  C_12
    4  A    between atoms: C_8  and  O_13
    5  A    between atoms: O_13  and  C_30
    6  A    between atoms: C_23  and  N_25
    7  A    between atoms: C_23  and  C_26
                            x       y       z     vdW  Elec       q    Type
                         _______ _______ _______ _____ _____    ______ ____

>  <TORSDO>
F 7

$$$$
=
 OpenBabel10262421453D

 30 32  0  0  1  0  0  0  0  0999 V2000
  184.5940  177.5120  138.4520 N   0  0  1  0  0  0  0  0  0  0  0  0
  184.0730  178.7780  139.0180 C   0  0  1  0  0  3  0  0  0  0  0  0
  183.3960  178.1480  137.8570 C   0  0  2  0  0  3  0  0  0  0  0  0
  186.0670  176.4650  136.8560 C   0  0  0  0  0  0  0  0  0  0  0  0
  187.3170  175.7660  137.2100 C   0  0  0  0  0  3  0  0  0  0  0  0
  185.2730  175.9460  136.0240 O   0  0  0  0  0  0  0  0  0  0  0  0
  186.8950  178.3950  138.2240 C   0  0  0  0  0  3  0  0  0  0  0  0
  189.1550  178.4550  139.1510 C   0  0  0  0  0  1  0  0  0  0  0  0
  185.6980  177.7670  137.5270 C   0  0  2  0  0  3  0  0  0  0  0  0
  188.2410  176.3750  137.9640 C   0  0  0  0  0  3  0  0  0  0  0  0
  188.0420  177.7490  138.4480 C   0  0  0  0  0  0  0  0  0  0  0  0
  179.7560  177.0220  138.0960 C   0  0  0  0  0  3  0  0  0  0  0  0
  180.8780  177.8350  137.8620 C   0  0  0  0  0  0  0  0  0  0  0  0
  182.3000  176.0040  138.6030 C   0  0  0  0  0  3  0  0  0  0  0  0
  182.1620  177.3300  138.1490 C   0  0  0  0  0  0  0  0  0  0  0  0
  179.9060  175.7140  138.5720 C   0  0  0  0  0  3  0  0  0  0  0  0
  181.1790  175.2010  138.8180 C   0  0  0  0  0  3  0  0  0  0  0  0
  180.7490  179.1300  137.3250 O   0  0  0  0  0  0  0  0  0  0  0  0
  181.1280  178.4940  135.0120 C   0  0  0  0  0  1  0  0  0  0  0  0
  178.9320  179.3000  135.7700 C   0  0  0  0  0  1  0  0  0  0  0  0
  180.8030  180.8850  135.6430 C   0  0  0  0  0  1  0  0  0  0  0  0
  180.4270  179.4460  135.9650 C   0  0  0  0  0  0  0  0  0  0  0  0
  183.4670  178.4970  140.4020 C   0  0  2  0  0  3  0  0  0  0  0  0
  180.7570  177.8570  141.3760 O   0  0  0  0  0  0  0  0  0  0  0  0
  181.0660  179.0610  141.1650 C   0  0  0  0  0  0  0  0  0  0  0  0
  180.0540  180.1200  141.3960 C   0  0  0  0  0  1  0  0  0  0  0  0
  182.3810  179.4300  140.7180 N   0  0  0  0  0  2  0  0  0  0  0  0
  185.5370  179.3790  141.3170 O   0  0  0  0  0  1  0  0  0  0  0  0
  183.8840  178.6280  142.8750 C   0  0  0  0  0  1  0  0  0  0  0  0
  184.5280  178.4290  141.5120 C   0  0  1  0  0  3  0  0  0  0  0  0
  1  9  1  6  0  0  0
  1  2  1  0  0  0  0
  2 23  1  1  0  0  0
  3 15  1  1  0  0  0
  3  1  1  0  0  0  0
  3  2  1  0  0  0  0
  4  5  1  0  0  0  0
  4  9  1  0  0  0  0
  5 10  2  0  0  0  0
  6  4  2  0  0  0  0
  7 11  2  0  0  0  0
  9  7  1  1  0  0  0
 10 11  1  0  0  0  0
 11  8  1  0  0  0  0
 12 16  1  0  0  0  0
 13 12  2  0  0  0  0
 13 15  1  0  0  0  0
 14 17  1  0  0  0  0
 15 14  2  0  0  0  0
 16 17  2  0  0  0  0
 18 13  1  0  0  0  0
 19 22  1  0  0  0  0
 20 22  1  0  0  0  0
 21 22  1  0  0  0  0
 22 18  1  0  0  0  0
 23 27  1  1  0  0  0
 23 30  1  0  0  0  0
 25 24  2  0  0  0  0
 25 26  1  0  0  0  0
 27 25  1  0  0  0  0
 28 30  1  0  0  0  0
 30 29  1  1  0  0  0
M  END
>  <MODEL>
6

>  <REMARK>
 VINA RESULT:      -5.1      1.774      5.037
  Name = 
  7 active torsions:
  status: ('A' for Active; 'I' for Inactive)
    1  A    between atoms: N_1  and  C_22
    2  A    between atoms: C_4  and  C_23
    3  A    between atoms: C_5  and  C_12
    4  A    between atoms: C_8  and  O_13
    5  A    between atoms: O_13  and  C_30
    6  A    between atoms: C_23  and  N_25
    7  A    between atoms: C_23  and  C_26
                            x       y       z     vdW  Elec       q    Type
                         _______ _______ _______ _____ _____    ______ ____

>  <TORSDO>
F 7

$$$$
=
 OpenBabel10262421453D

 30 32  0  0  1  0  0  0  0  0999 V2000
  189.5630  177.6720  138.4570 N   0  0  1  0  0  0  0  0  0  0  0  0
  189.3500  176.2100  138.5580 C   0  0  1  0  0  3  0  0  0  0  0  0
  188.1870  177.1240  138.4500 C   0  0  2  0  0  3  0  0  0  0  0  0
  190.6940  177.3760  140.5650 C   0  0  0  0  0  0  0  0  0  0  0  0
  190.1850  176.5490  141.6760 C   0  0  0  0  0  3  0  0  0  0  0  0
  191.9100  177.3020  140.2350 O   0  0  0  0  0  0  0  0  0  0  0  0
  188.4460  178.4830  140.5120 C   0  0  0  0  0  3  0  0  0  0  0  0
  186.7460  178.0510  142.2130 C   0  0  0  0  0  1  0  0  0  0  0  0
  189.7620  178.2660  139.7790 C   0  0  2  0  0  3  0  0  0  0  0  0
  188.9430  176.7330  142.1410 C   0  0  0  0  0  3  0  0  0  0  0  0
  188.0630  177.7630  141.5700 C   0  0  0  0  0  0  0  0  0  0  0  0
  185.9750  176.5840  135.3850 C   0  0  0  0  0  3  0  0  0  0  0  0
  186.5710  176.3780  136.6410 C   0  0  0  0  0  0  0  0  0  0  0  0
  187.8940  178.3910  136.2900 C   0  0  0  0  0  3  0  0  0  0  0  0
  187.5640  177.2750  137.0830 C   0  0  0  0  0  0  0  0  0  0  0  0
  186.3310  177.6840  134.5950 C   0  0  0  0  0  3  0  0  0  0  0  0
  187.2850  178.5930  135.0500 C   0  0  0  0  0  3  0  0  0  0  0  0
  186.1810  175.3130  137.4750 O   0  0  0  0  0  0  0  0  0  0  0  0
  184.8270  174.2280  135.7760 C   0  0  0  0  0  1  0  0  0  0  0  0
  185.3470  173.1060  137.9010 C   0  0  0  0  0  1  0  0  0  0  0  0
  183.8070  175.0180  137.9110 C   0  0  0  0  0  1  0  0  0  0  0  0
  185.0590  174.4480  137.2610 C   0  0  0  0  0  0  0  0  0  0  0  0
  189.8250  175.5420  137.2580 C   0  0  2  0  0  3  0  0  0  0  0  0
  188.5420  174.0940  135.0310 O   0  0  0  0  0  0  0  0  0  0  0  0
  188.7960  173.4770  136.1010 C   0  0  0  0  0  0  0  0  0  0  0  0
  188.4270  172.0440  136.2160 C   0  0  0  0  0  1  0  0  0  0  0  0
  189.4450  174.1270  137.2050 N   0  0  0  0  0  2  0  0  0  0  0  0
  192.1030  174.7660  137.5850 O   0  0  0  0  0  1  0  0  0  0  0  0
  191.5910  175.8070  135.4930 C   0  0  0  0  0  1  0  0  0  0  0  0
  191.3220  175.7620  136.9890 C   0  0  1  0  0  3  0  0  0  0  0  0
  1  2  1  0  0  0  0
  1  9  1  1  0  0  0
  2 23  1  6  0  0  0
  3 15  1  6  0  0  0
  3  1  1  0  0  0  0
  3  2  1  0  0  0  0
  4  5  1  0  0  0  0
  5 10  2  0  0  0  0
  6  4  2  0  0  0  0
  7 11  2  0  0  0  0
  9  7  1  1  0  0  0
  9  4  1  0  0  0  0
 11 10  1  0  0  0  0
 11  8  1  0  0  0  0
 12 13  1  0  0  0  0
 13 15  2  0  0  0  0
 13 18  1  0  0  0  0
 14 15  1  0  0  0  0
 16 17  1  0  0  0  0
 16 12  2  0  0  0  0
 17 14  2  0  0  0  0
 19 22  1  0  0  0  0
 22 18  1  0  0  0  0
 22 20  1  0  0  0  0
 22 21  1  0  0  0  0
 23 27  1  1  0  0  0
 24 25  2  0  0  0  0
 25 26  1  0  0  0  0
 25 27  1  0  0  0  0
 30 29  1  6  0  0  0
 30 23  1  0  0  0  0
 30 28  1  0  0  0  0
M  END
>  <MODEL>
7

>  <REMARK>
 VINA RESULT:      -5.1      3.955      6.800
  Name = 
  7 active torsions:
  status: ('A' for Active; 'I' for Inactive)
    1  A    between atoms: N_1  and  C_22
    2  A    between atoms: C_4  and  C_23
    3  A    between atoms: C_5  and  C_12
    4  A    between atoms: C_8  and  O_13
    5  A    between atoms: O_13  and  C_30
    6  A    between atoms: C_23  and  N_25
    7  A    between atoms: C_23  and  C_26
                            x       y       z     vdW  Elec       q    Type
                         _______ _______ _______ _____ _____    ______ ____

>  <TORSDO>
F 7

$$$$
=
 OpenBabel10262421453D

 30 32  0  0  1  0  0  0  0  0999 V2000
  183.5220  178.4230  138.0650 N   0  0  1  0  0  0  0  0  0  0  0  0
  183.7560  177.0230  138.4880 C   0  0  1  0  0  3  0  0  0  0  0  0
  182.3710  177.5210  138.2980 C   0  0  2  0  0  3  0  0  0  0  0  0
  184.6790  178.8780  140.1300 C   0  0  0  0  0  0  0  0  0  0  0  0
  184.3670  178.2330  141.4210 C   0  0  0  0  0  3  0  0  0  0  0  0
  185.8810  179.0050  139.7690 O   0  0  0  0  0  0  0  0  0  0  0  0
  182.2370  179.4090  139.9370 C   0  0  0  0  0  3  0  0  0  0  0  0
  180.6710  179.0050  141.7680 C   0  0  0  0  0  1  0  0  0  0  0  0
  183.5720  179.3320  139.2100 C   0  0  2  0  0  3  0  0  0  0  0  0
  183.1130  178.2350  141.8900 C   0  0  0  0  0  3  0  0  0  0  0  0
  182.0240  178.8830  141.1450 C   0  0  0  0  0  0  0  0  0  0  0  0
  180.2860  175.7290  135.6490 C   0  0  0  0  0  3  0  0  0  0  0  0
  180.9470  175.9890  136.8620 C   0  0  0  0  0  0  0  0  0  0  0  0
  181.7150  178.1060  135.9360 C   0  0  0  0  0  3  0  0  0  0  0  0
  181.6950  177.1760  136.9940 C   0  0  0  0  0  0  0  0  0  0  0  0
  180.3340  176.6510  134.5950 C   0  0  0  0  0  3  0  0  0  0  0  0
  181.0420  177.8430  134.7400 C   0  0  0  0  0  3  0  0  0  0  0  0
  180.8580  175.1030  137.9520 O   0  0  0  0  0  0  0  0  0  0  0  0
  178.9950  173.8280  138.8450 C   0  0  0  0  0  1  0  0  0  0  0  0
  180.4630  175.1410  140.3170 C   0  0  0  0  0  1  0  0  0  0  0  0
  178.9320  176.3210  138.8020 C   0  0  0  0  0  1  0  0  0  0  0  0
  179.8240  175.0960  138.9440 C   0  0  0  0  0  0  0  0  0  0  0  0
  184.3720  176.2410  137.3170 C   0  0  2  0  0  3  0  0  0  0  0  0
  183.5990  173.9840  135.5790 O   0  0  0  0  0  0  0  0  0  0  0  0
  184.0440  173.7470  136.7350 C   0  0  0  0  0  0  0  0  0  0  0  0
  184.1510  172.3400  137.1950 C   0  0  0  0  0  1  0  0  0  0  0  0
  184.4610  174.8070  137.6100 N   0  0  0  0  0  2  0  0  0  0  0  0
  186.7860  176.0070  137.1910 O   0  0  0  0  0  1  0  0  0  0  0  0
  185.6900  177.0570  135.3420 C   0  0  0  0  0  1  0  0  0  0  0  0
  185.7100  176.8320  136.8460 C   0  0  1  0  0  3  0  0  0  0  0  0
  1  3  1  0  0  0  0
  1  2  1  0  0  0  0
  1  9  1  1  0  0  0
  2 23  1  6  0  0  0
  3 15  1  6  0  0  0
  3  2  1  0  0  0  0
  4  5  1  0  0  0  0
  5 10  2  0  0  0  0
  6  4  2  0  0  0  0
  7 11  2  0  0  0  0
  9  7  1  1  0  0  0
  9  4  1  0  0  0  0
 11  8  1  0  0  0  0
 11 10  1  0  0  0  0
 12 13  1  0  0  0  0
 13 15  2  0  0  0  0
 13 18  1  0  0  0  0
 14 15  1  0  0  0  0
 16 17  1  0  0  0  0
 16 12  2  0  0  0  0
 17 14  2  0  0  0  0
 18 22  1  0  0  0  0
 19 22  1  0  0  0  0
 21 22  1  0  0  0  0
 22 20  1  0  0  0  0
 23 27  1  1  0  0  0
 24 25  2  0  0  0  0
 25 26  1  0  0  0  0
 25 27  1  0  0  0  0
 30 29  1  6  0  0  0
 30 28  1  0  0  0  0
 30 23  1  0  0  0  0
M  END
>  <MODEL>
8

>  <REMARK>
 VINA RESULT:      -5.1      2.559      5.645
  Name = 
  7 active torsions:
  status: ('A' for Active; 'I' for Inactive)
    1  A    between atoms: N_1  and  C_22
    2  A    between atoms: C_4  and  C_23
    3  A    between atoms: C_5  and  C_12
    4  A    between atoms: C_8  and  O_13
    5  A    between atoms: O_13  and  C_30
    6  A    between atoms: C_23  and  N_25
    7  A    between atoms: C_23  and  C_26
                            x       y       z     vdW  Elec       q    Type
                         _______ _______ _______ _____ _____    ______ ____

>  <TORSDO>
F 7

$$$$
=
 OpenBabel10262421453D

 30 32  0  0  1  0  0  0  0  0999 V2000
  180.9900  180.1720  137.3540 N   0  0  1  0  0  0  0  0  0  0  0  0
  180.8030  179.6780  138.7380 C   0  0  1  0  0  3  0  0  0  0  0  0
  180.1460  178.9810  137.6050 C   0  0  2  0  0  3  0  0  0  0  0  0
  179.8270  181.3030  135.5720 C   0  0  0  0  0  0  0  0  0  0  0  0
  180.4160  182.3660  134.7350 C   0  0  0  0  0  3  0  0  0  0  0  0
  179.1540  180.3820  135.0320 O   0  0  0  0  0  0  0  0  0  0  0  0
  180.6000  182.6070  137.5680 C   0  0  0  0  0  3  0  0  0  0  0  0
  181.5540  184.8470  137.3660 C   0  0  0  0  0  1  0  0  0  0  0  0
  180.0730  181.2720  137.0610 C   0  0  2  0  0  3  0  0  0  0  0  0
  180.9930  183.4320  135.3040 C   0  0  0  0  0  3  0  0  0  0  0  0
  181.0460  183.5770  136.7660 C   0  0  0  0  0  0  0  0  0  0  0  0
  181.0970  175.3240  137.0600 C   0  0  0  0  0  3  0  0  0  0  0  0
  180.4870  176.4670  137.6050 C   0  0  0  0  0  0  0  0  0  0  0  0
  181.7080  177.8270  135.9980 C   0  0  0  0  0  3  0  0  0  0  0  0
  180.8210  177.7340  137.0890 C   0  0  0  0  0  0  0  0  0  0  0  0
  181.9970  175.4320  135.9920 C   0  0  0  0  0  3  0  0  0  0  0  0
  182.2970  176.6830  135.4550 C   0  0  0  0  0  3  0  0  0  0  0  0
  179.5330  176.3700  138.6370 O   0  0  0  0  0  0  0  0  0  0  0  0
  179.4040  177.0080  140.9760 C   0  0  0  0  0  1  0  0  0  0  0  0
  178.9500  174.7010  140.2560 C   0  0  0  0  0  1  0  0  0  0  0  0
  181.2510  175.5500  140.1490 C   0  0  0  0  0  1  0  0  0  0  0  0
  179.7880  175.9310  139.9760 C   0  0  0  0  0  0  0  0  0  0  0  0
  182.1260  179.0790  139.2410 C   0  0  2  0  0  3  0  0  0  0  0  0
  183.8120  177.5160  141.0900 O   0  0  0  0  0  0  0  0  0  0  0  0
  183.1090  178.4580  141.5460 C   0  0  0  0  0  0  0  0  0  0  0  0
  183.1370  178.7450  143.0010 C   0  0  0  0  0  1  0  0  0  0  0  0
  182.2930  179.2690  140.6850 N   0  0  0  0  0  2  0  0  0  0  0  0
  184.0160  180.5990  139.0980 O   0  0  0  0  0  1  0  0  0  0  0  0
  184.2970  178.4120  138.1690 C   0  0  0  0  0  1  0  0  0  0  0  0
  183.3420  179.5650  138.4370 C   0  0  1  0  0  3  0  0  0  0  0  0
  1  9  1  1  0  0  0
  1  3  1  0  0  0  0
  1  2  1  0  0  0  0
  2 23  1  6  0  0  0
  3 15  1  6  0  0  0
  3  2  1  0  0  0  0
  4  9  1  0  0  0  0
  5 10  2  0  0  0  0
  5  4  1  0  0  0  0
  6  4  2  0  0  0  0
  9  7  1  6  0  0  0
 10 11  1  0  0  0  0
 11  8  1  0  0  0  0
 11  7  2  0  0  0  0
 12 13  1  0  0  0  0
 13 18  1  0  0  0  0
 14 15  1  0  0  0  0
 15 13  2  0  0  0  0
 16 12  2  0  0  0  0
 17 16  1  0  0  0  0
 17 14  2  0  0  0  0
 18 22  1  0  0  0  0
 22 21  1  0  0  0  0
 22 20  1  0  0  0  0
 22 19  1  0  0  0  0
 23 27  1  1  0  0  0
 24 25  2  0  0  0  0
 25 26  1  0  0  0  0
 27 25  1  0  0  0  0
 30 29  1  1  0  0  0
 30 28  1  0  0  0  0
 30 23  1  0  0  0  0
M  END
>  <MODEL>
9

>  <REMARK>
 VINA RESULT:      -4.9      2.717      6.880
  Name = 
  7 active torsions:
  status: ('A' for Active; 'I' for Inactive)
    1  A    between atoms: N_1  and  C_22
    2  A    between atoms: C_4  and  C_23
    3  A    between atoms: C_5  and  C_12
    4  A    between atoms: C_8  and  O_13
    5  A    between atoms: O_13  and  C_30
    6  A    between atoms: C_23  and  N_25
    7  A    between atoms: C_23  and  C_26
                            x       y       z     vdW  Elec       q    Type
                         _______ _______ _______ _____ _____    ______ ____

>  <TORSDO>
F 7

$$$$
