=
 OpenBabel10262422433D

 43 47  0  0  1  0  0  0  0  0999 V2000
  189.3970  177.5220  138.6300 N   0  0  0  0  0  0  0  0  0  0  0  0
  188.6540  177.7410  139.8400 C   0  0  0  0  0  0  0  0  0  0  0  0
  187.6720  178.5310  139.8440 O   0  0  0  0  0  0  0  0  0  0  0  0
  193.8970  175.9050  136.3520 C   0  0  0  0  0  0  0  0  0  0  0  0
  191.3630  175.9050  136.4570 C   0  0  1  0  0  3  0  0  0  0  0  0
  193.9850  176.4280  137.5360 N   0  0  0  0  0  0  0  0  0  0  0  0
  195.1140  175.7860  135.5040 C   0  0  0  0  0  1  0  0  0  0  0  0
  191.5460  176.8070  137.6690 C   0  0  2  0  0  3  0  0  0  0  0  0
  192.6250  175.5050  135.8310 N   0  0  0  0  0  2  0  0  0  0  0  0
  192.8350  176.4830  138.4290 C   0  0  0  0  0  2  0  0  0  0  0  0
  190.3780  176.4360  138.5640 C   0  0  2  0  0  3  0  0  0  0  0  0
  189.7590  175.2050  138.0690 N   0  0  0  0  0  2  0  0  0  0  0  0
  190.6110  174.7150  136.9910 C   0  0  0  0  0  2  0  0  0  0  0  0
  189.0000  177.0060  141.0970 C   0  0  0  0  0  2  0  0  0  0  0  0
  190.4950  178.2920  143.8800 C   0  0  1  0  0  3  0  0  0  0  0  0
  189.6770  177.9200  145.1260 C   0  0  2  0  0  3  0  0  0  0  0  0
  190.5390  176.6600  146.0460 Cl  0  0  0  0  0  0  0  0  0  0  0  0
  188.1850  176.7780  143.4330 C   0  0  0  0  0  2  0  0  0  0  0  0
  189.6040  178.8100  142.7520 C   0  0  0  0  0  2  0  0  0  0  0  0
  188.5430  177.7760  142.3270 C   0  0  1  0  0  3  0  0  0  0  0  0
  191.5270  179.3390  144.2440 C   0  0  0  0  0  1  0  0  0  0  0  0
  188.2530  177.4400  144.8060 C   0  0  0  0  0  2  0  0  0  0  0  0
  189.0990  178.3250  137.4440 C   0  0  0  0  0  2  0  0  0  0  0  0
  187.9890  177.7000  136.5990 C   0  0  0  0  0  2  0  0  0  0  0  0
  186.7530  178.3150  136.8320 O   0  0  0  0  0  0  0  0  0  0  0  0
  185.8560  177.2790  137.1160 C   0  0  0  0  0  2  0  0  0  0  0  0
  184.6530  177.8040  137.8890 C   0  0  0  0  0  2  0  0  0  0  0  0
  182.2220  177.2200  138.3840 N   0  0  0  0  0  2  0  0  0  0  0  0
  183.4810  176.8770  137.7930 C   0  0  0  0  0  0  0  0  0  0  0  0
  183.6200  175.7540  137.2450 O   0  0  0  0  0  0  0  0  0  0  0  0
  181.7600  178.5600  138.6110 C   0  0  0  0  0  0  0  0  0  0  0  0
  180.8580  180.2540  140.1030 C   0  0  0  0  0  3  0  0  0  0  0  0
  181.6550  179.4680  137.5460 C   0  0  0  0  0  3  0  0  0  0  0  0
  181.1630  180.7570  137.7570 C   0  0  0  0  0  3  0  0  0  0  0  0
  181.3490  178.9590  139.8960 C   0  0  0  0  0  0  0  0  0  0  0  0
  180.7620  181.1490  139.0360 C   0  0  0  0  0  3  0  0  0  0  0  0
  181.5190  178.0510  141.0730 C   0  0  0  0  0  2  0  0  0  0  0  0
  182.6450  178.5230  141.9340 C   0  0  0  0  0  0  0  0  0  0  0  0
  184.7680  179.3500  143.5620 C   0  0  0  0  0  3  0  0  0  0  0  0
  183.4590  179.3730  144.0550 C   0  0  0  0  0  3  0  0  0  0  0  0
  185.0170  178.9160  142.2550 C   0  0  0  0  0  3  0  0  0  0  0  0
  182.3990  178.9620  143.2410 C   0  0  0  0  0  3  0  0  0  0  0  0
  183.9570  178.5010  141.4420 C   0  0  0  0  0  3  0  0  0  0  0  0
  1  2  1  0  0  0  0
  2  3  2  0  0  0  0
  2 14  1  0  0  0  0
  4  6  2  0  0  0  0
  5 13  1  1  0  0  0
  5  8  1  0  0  0  0
  6 10  1  0  0  0  0
  7  4  1  0  0  0  0
  8 10  1  1  0  0  0
  8 11  1  0  0  0  0
  9  4  1  0  0  0  0
  9  5  1  0  0  0  0
 11  1  1  6  0  0  0
 12 11  1  0  0  0  0
 13 12  1  0  0  0  0
 15 21  1  1  0  0  0
 15 16  1  0  0  0  0
 16 17  1  6  0  0  0
 18 22  1  0  0  0  0
 19 15  1  0  0  0  0
 20 14  1  6  0  0  0
 20 19  1  0  0  0  0
 20 18  1  0  0  0  0
 22 16  1  0  0  0  0
 23  1  1  0  0  0  0
 24 25  1  0  0  0  0
 24 23  1  0  0  0  0
 25 26  1  0  0  0  0
 26 27  1  0  0  0  0
 28 31  1  0  0  0  0
 29 27  1  0  0  0  0
 29 28  1  0  0  0  0
 30 29  2  0  0  0  0
 31 35  1  0  0  0  0
 33 34  1  0  0  0  0
 33 31  2  0  0  0  0
 34 36  2  0  0  0  0
 35 32  2  0  0  0  0
 35 37  1  0  0  0  0
 36 32  1  0  0  0  0
 37 38  1  0  0  0  0
 38 42  1  0  0  0  0
 39 40  1  0  0  0  0
 41 39  2  0  0  0  0
 42 40  2  0  0  0  0
 43 38  2  0  0  0  0
 43 41  1  0  0  0  0
M  END
>  <MODEL>
1

>  <REMARK>
 VINA RESULT:      -8.1      0.000      0.000
  Name = 
  12 active torsions:
  status: ('A' for Active; 'I' for Inactive)
    1  A    between atoms: C_1  and  C_34
    2  A    between atoms: C_1  and  C_35
    3  A    between atoms: O_2  and  C_7
    4  A    between atoms: O_2  and  C_13
    5  A    between atoms: N_3  and  C_4
    6  A    between atoms: C_6  and  C_7
    7  A    between atoms: C_6  and  C_12
    8  A    between atoms: N_8  and  C_27
    9  A    between atoms: N_8  and  C_30
   10  A    between atoms: C_11  and  C_14
   11  A    between atoms: C_13  and  C_27
   12  A    between atoms: C_14  and  C_41
                            x       y       z     vdW  Elec       q    Type
                         _______ _______ _______ _____ _____    ______ ____

>  <TORSDO>
F 12

$$$$
=
 OpenBabel10262422433D

 43 47  0  0  1  0  0  0  0  0999 V2000
  185.6730  178.6380  144.4820 N   0  0  0  0  0  0  0  0  0  0  0  0
  186.3240  178.3150  145.7210 C   0  0  0  0  0  0  0  0  0  0  0  0
  185.9800  178.8960  146.7860 O   0  0  0  0  0  0  0  0  0  0  0  0
  188.6640  178.0060  140.1570 C   0  0  0  0  0  0  0  0  0  0  0  0
  186.5420  178.8550  141.2570 C   0  0  1  0  0  3  0  0  0  0  0  0
  188.9620  177.2880  141.1950 N   0  0  0  0  0  0  0  0  0  0  0  0
  189.6590  178.1740  139.0630 C   0  0  0  0  0  1  0  0  0  0  0  0
  187.1250  178.2640  142.5320 C   0  0  2  0  0  3  0  0  0  0  0  0
  187.4100  178.6940  140.0880 N   0  0  0  0  0  2  0  0  0  0  0  0
  187.9850  177.0290  142.2450 C   0  0  0  0  0  2  0  0  0  0  0  0
  185.9000  177.8030  143.3000 C   0  0  2  0  0  3  0  0  0  0  0  0
  184.7350  177.8270  142.4140 N   0  0  0  0  0  2  0  0  0  0  0  0
  185.2350  178.1310  141.0770 C   0  0  0  0  0  2  0  0  0  0  0  0
  187.3800  177.2570  145.7790 C   0  0  0  0  0  2  0  0  0  0  0  0
  190.6790  177.1550  144.9190 C   0  0  1  0  0  3  0  0  0  0  0  0
  191.5270  176.8150  146.1540 C   0  0  2  0  0  3  0  0  0  0  0  0
  192.1170  175.1380  146.0240 Cl  0  0  0  0  0  0  0  0  0  0  0  0
  189.2770  176.7720  147.3090 C   0  0  0  0  0  2  0  0  0  0  0  0
  189.6390  178.2310  145.2250 C   0  0  0  0  0  2  0  0  0  0  0  0
  188.6780  177.8070  146.3520 C   0  0  1  0  0  3  0  0  0  0  0  0
  191.5830  177.6170  143.7940 C   0  0  0  0  0  1  0  0  0  0  0  0
  190.7770  176.9950  147.4820 C   0  0  0  0  0  2  0  0  0  0  0  0
  184.7140  179.7430  144.4360 C   0  0  0  0  0  2  0  0  0  0  0  0
  183.2760  179.2540  144.6130 C   0  0  0  0  0  2  0  0  0  0  0  0
  182.4120  179.8410  143.6790 O   0  0  0  0  0  0  0  0  0  0  0  0
  181.4370  178.8760  143.4010 C   0  0  0  0  0  2  0  0  0  0  0  0
  181.2200  178.7470  141.8980 C   0  0  0  0  0  2  0  0  0  0  0  0
  180.0240  177.2270  140.2400 N   0  0  0  0  0  2  0  0  0  0  0  0
  180.1690  177.7330  141.5720 C   0  0  0  0  0  0  0  0  0  0  0  0
  179.3600  177.3680  142.4620 O   0  0  0  0  0  0  0  0  0  0  0  0
  181.0790  177.1580  139.2680 C   0  0  0  0  0  0  0  0  0  0  0  0
  181.9590  177.7100  137.0710 C   0  0  0  0  0  3  0  0  0  0  0  0
  182.2250  176.3870  139.5140 C   0  0  0  0  0  3  0  0  0  0  0  0
  183.2310  176.2830  138.5520 C   0  0  0  0  0  3  0  0  0  0  0  0
  180.9460  177.8170  138.0320 C   0  0  0  0  0  0  0  0  0  0  0  0
  183.0970  176.9430  137.3290 C   0  0  0  0  0  3  0  0  0  0  0  0
  179.7800  178.7140  137.7600 C   0  0  0  0  0  2  0  0  0  0  0  0
  180.2400  180.1240  137.5850 C   0  0  0  0  0  0  0  0  0  0  0  0
  181.1510  182.7480  137.2280 C   0  0  0  0  0  3  0  0  0  0  0  0
  181.4020  182.0780  138.4300 C   0  0  0  0  0  3  0  0  0  0  0  0
  180.4420  182.1090  136.2050 C   0  0  0  0  0  3  0  0  0  0  0  0
  180.9450  180.7690  138.6090 C   0  0  0  0  0  3  0  0  0  0  0  0
  179.9890  180.7970  136.3820 C   0  0  0  0  0  3  0  0  0  0  0  0
  1  2  1  0  0  0  0
  2 14  1  0  0  0  0
  2  3  2  0  0  0  0
  4  6  2  0  0  0  0
  5 13  1  6  0  0  0
  5  8  1  0  0  0  0
  6 10  1  0  0  0  0
  7  4  1  0  0  0  0
  8 10  1  6  0  0  0
  8 11  1  0  0  0  0
  9  4  1  0  0  0  0
  9  5  1  0  0  0  0
 11  1  1  1  0  0  0
 12 11  1  0  0  0  0
 13 12  1  0  0  0  0
 15 21  1  6  0  0  0
 15 19  1  0  0  0  0
 15 16  1  0  0  0  0
 16 17  1  6  0  0  0
 16 22  1  0  0  0  0
 18 22  1  0  0  0  0
 19 20  1  0  0  0  0
 20 14  1  6  0  0  0
 20 18  1  0  0  0  0
 23  1  1  0  0  0  0
 23 24  1  0  0  0  0
 25 24  1  0  0  0  0
 26 25  1  0  0  0  0
 27 26  1  0  0  0  0
 28 29  1  0  0  0  0
 29 27  1  0  0  0  0
 29 30  2  0  0  0  0
 31 33  1  0  0  0  0
 31 28  1  0  0  0  0
 32 36  2  0  0  0  0
 32 35  1  0  0  0  0
 34 33  2  0  0  0  0
 35 31  2  0  0  0  0
 36 34  1  0  0  0  0
 37 35  1  0  0  0  0
 38 37  1  0  0  0  0
 38 42  1  0  0  0  0
 39 40  1  0  0  0  0
 40 42  2  0  0  0  0
 41 43  1  0  0  0  0
 41 39  2  0  0  0  0
 43 38  2  0  0  0  0
M  END
>  <MODEL>
2

>  <REMARK>
 VINA RESULT:      -8.1      3.329      5.895
  Name = 
  12 active torsions:
  status: ('A' for Active; 'I' for Inactive)
    1  A    between atoms: C_1  and  C_34
    2  A    between atoms: C_1  and  C_35
    3  A    between atoms: O_2  and  C_7
    4  A    between atoms: O_2  and  C_13
    5  A    between atoms: N_3  and  C_4
    6  A    between atoms: C_6  and  C_7
    7  A    between atoms: C_6  and  C_12
    8  A    between atoms: N_8  and  C_27
    9  A    between atoms: N_8  and  C_30
   10  A    between atoms: C_11  and  C_14
   11  A    between atoms: C_13  and  C_27
   12  A    between atoms: C_14  and  C_41
                            x       y       z     vdW  Elec       q    Type
                         _______ _______ _______ _____ _____    ______ ____

>  <TORSDO>
F 12

$$$$
=
 OpenBabel10262422433D

 43 47  0  0  1  0  0  0  0  0999 V2000
  188.4510  177.6130  138.6930 N   0  0  0  0  0  0  0  0  0  0  0  0
  187.2260  178.2530  139.0840 C   0  0  0  0  0  0  0  0  0  0  0  0
  187.1700  178.9050  140.1610 O   0  0  0  0  0  0  0  0  0  0  0  0
  188.2540  173.1810  135.8000 C   0  0  0  0  0  0  0  0  0  0  0  0
  189.5950  174.9180  137.0710 C   0  0  1  0  0  3  0  0  0  0  0  0
  187.2000  173.9370  135.8010 N   0  0  0  0  0  0  0  0  0  0  0  0
  188.1500  171.7690  135.3440 C   0  0  0  0  0  1  0  0  0  0  0  0
  188.2490  175.5840  137.3170 C   0  0  2  0  0  3  0  0  0  0  0  0
  189.5010  173.6770  136.2980 N   0  0  0  0  0  2  0  0  0  0  0  0
  187.2780  175.3480  136.1570 C   0  0  0  0  0  2  0  0  0  0  0  0
  188.5860  177.0630  137.3420 C   0  0  2  0  0  3  0  0  0  0  0  0
  189.9450  177.2590  136.8340 N   0  0  0  0  0  2  0  0  0  0  0  0
  190.3970  175.9620  136.3420 C   0  0  0  0  0  2  0  0  0  0  0  0
  186.0160  178.1980  138.2050 C   0  0  0  0  0  2  0  0  0  0  0  0
  182.7150  177.5820  137.6090 C   0  0  1  0  0  3  0  0  0  0  0  0
  181.8580  178.6860  138.2470 C   0  0  2  0  0  3  0  0  0  0  0  0
  181.2150  179.7500  136.9700 Cl  0  0  0  0  0  0  0  0  0  0  0  0
  184.1070  179.5920  138.9690 C   0  0  0  0  0  2  0  0  0  0  0  0
  183.7890  177.0730  138.5690 C   0  0  0  0  0  2  0  0  0  0  0  0
  184.7370  178.1970  139.0290 C   0  0  1  0  0  3  0  0  0  0  0  0
  181.8250  176.4350  137.1770 C   0  0  0  0  0  1  0  0  0  0  0  0
  182.6150  179.5280  139.2850 C   0  0  0  0  0  2  0  0  0  0  0  0
  189.5860  177.6010  139.6160 C   0  0  0  0  0  2  0  0  0  0  0  0
  189.3880  176.5910  140.7470 C   0  0  0  0  0  2  0  0  0  0  0  0
  190.5290  176.4870  141.5520 O   0  0  0  0  0  0  0  0  0  0  0  0
  190.0990  175.9090  142.7520 C   0  0  0  0  0  2  0  0  0  0  0  0
  190.9720  176.3670  143.9140 C   0  0  0  0  0  2  0  0  0  0  0  0
  189.9790  178.5830  144.6890 N   0  0  0  0  0  2  0  0  0  0  0  0
  191.0200  177.8600  144.0200 C   0  0  0  0  0  0  0  0  0  0  0  0
  191.9500  178.4930  143.4610 O   0  0  0  0  0  0  0  0  0  0  0  0
  189.1500  178.0510  145.7330 C   0  0  0  0  0  0  0  0  0  0  0  0
  187.0130  177.1690  146.4840 C   0  0  0  0  0  3  0  0  0  0  0  0
  189.6210  177.9860  147.0540 C   0  0  0  0  0  3  0  0  0  0  0  0
  188.7990  177.5110  148.0780 C   0  0  0  0  0  3  0  0  0  0  0  0
  187.8320  177.6460  145.4530 C   0  0  0  0  0  0  0  0  0  0  0  0
  187.4950  177.1050  147.7930 C   0  0  0  0  0  3  0  0  0  0  0  0
  187.3170  177.6220  144.0480 C   0  0  0  0  0  2  0  0  0  0  0  0
  185.9160  178.1380  144.0000 C   0  0  0  0  0  0  0  0  0  0  0  0
  183.3100  179.1570  143.8940 C   0  0  0  0  0  3  0  0  0  0  0  0
  183.9920  179.1080  145.1140 C   0  0  0  0  0  3  0  0  0  0  0  0
  183.9280  178.6950  142.7270 C   0  0  0  0  0  3  0  0  0  0  0  0
  185.2920  178.5960  145.1670 C   0  0  0  0  0  3  0  0  0  0  0  0
  185.2310  178.1870  142.7790 C   0  0  0  0  0  3  0  0  0  0  0  0
  1  2  1  0  0  0  0
  1 23  1  0  0  0  0
  2  3  2  0  0  0  0
  4  6  2  0  0  0  0
  4  9  1  0  0  0  0
  5 13  1  6  0  0  0
  5  8  1  0  0  0  0
  6 10  1  0  0  0  0
  7  4  1  0  0  0  0
  8 10  1  6  0  0  0
  8 11  1  0  0  0  0
  9  5  1  0  0  0  0
 11  1  1  1  0  0  0
 12 11  1  0  0  0  0
 13 12  1  0  0  0  0
 14  2  1  0  0  0  0
 15 21  1  1  0  0  0
 15 16  1  0  0  0  0
 15 19  1  0  0  0  0
 16 17  1  6  0  0  0
 16 22  1  0  0  0  0
 18 20  1  0  0  0  0
 18 22  1  0  0  0  0
 19 20  1  0  0  0  0
 20 14  1  6  0  0  0
 23 24  1  0  0  0  0
 24 25  1  0  0  0  0
 25 26  1  0  0  0  0
 26 27  1  0  0  0  0
 27 29  1  0  0  0  0
 28 31  1  0  0  0  0
 29 28  1  0  0  0  0
 30 29  2  0  0  0  0
 31 33  1  0  0  0  0
 32 36  2  0  0  0  0
 33 34  2  0  0  0  0
 35 31  2  0  0  0  0
 35 32  1  0  0  0  0
 36 34  1  0  0  0  0
 37 35  1  0  0  0  0
 38 37  1  0  0  0  0
 38 42  1  0  0  0  0
 39 40  1  0  0  0  0
 40 42  2  0  0  0  0
 41 43  1  0  0  0  0
 41 39  2  0  0  0  0
 43 38  2  0  0  0  0
M  END
>  <MODEL>
3

>  <REMARK>
 VINA RESULT:      -8.0      3.083      7.347
  Name = 
  12 active torsions:
  status: ('A' for Active; 'I' for Inactive)
    1  A    between atoms: C_1  and  C_34
    2  A    between atoms: C_1  and  C_35
    3  A    between atoms: O_2  and  C_7
    4  A    between atoms: O_2  and  C_13
    5  A    between atoms: N_3  and  C_4
    6  A    between atoms: C_6  and  C_7
    7  A    between atoms: C_6  and  C_12
    8  A    between atoms: N_8  and  C_27
    9  A    between atoms: N_8  and  C_30
   10  A    between atoms: C_11  and  C_14
   11  A    between atoms: C_13  and  C_27
   12  A    between atoms: C_14  and  C_41
                            x       y       z     vdW  Elec       q    Type
                         _______ _______ _______ _____ _____    ______ ____

>  <TORSDO>
F 12

$$$$
=
 OpenBabel10262422433D

 43 47  0  0  1  0  0  0  0  0999 V2000
  185.7310  178.6080  144.5630 N   0  0  0  0  0  0  0  0  0  0  0  0
  186.4110  178.2780  145.7850 C   0  0  0  0  0  0  0  0  0  0  0  0
  186.0920  178.8520  146.8610 O   0  0  0  0  0  0  0  0  0  0  0  0
  188.6050  178.0180  140.1540 C   0  0  0  0  0  0  0  0  0  0  0  0
  186.5090  178.8470  141.3170 C   0  0  1  0  0  3  0  0  0  0  0  0
  188.9370  177.2970  141.1800 N   0  0  0  0  0  0  0  0  0  0  0  0
  189.5680  178.1970  139.0340 C   0  0  0  0  0  1  0  0  0  0  0  0
  187.1310  178.2530  142.5730 C   0  0  2  0  0  3  0  0  0  0  0  0
  187.3450  178.6970  140.1240 N   0  0  0  0  0  2  0  0  0  0  0  0
  187.9910  177.0260  142.2550 C   0  0  0  0  0  2  0  0  0  0  0  0
  185.9310  177.7810  143.3710 C   0  0  2  0  0  3  0  0  0  0  0  0
  184.7410  177.8020  142.5180 N   0  0  0  0  0  2  0  0  0  0  0  0
  185.2020  178.1150  141.1700 C   0  0  0  0  0  2  0  0  0  0  0  0
  187.4690  177.2200  145.8120 C   0  0  0  0  0  2  0  0  0  0  0  0
  190.7480  177.0700  144.8860 C   0  0  1  0  0  3  0  0  0  0  0  0
  191.6180  176.7480  146.1100 C   0  0  2  0  0  3  0  0  0  0  0  0
  192.1910  175.0640  146.0030 Cl  0  0  0  0  0  0  0  0  0  0  0  0
  189.3930  176.7490  147.3120 C   0  0  0  0  0  2  0  0  0  0  0  0
  189.7230  178.1620  145.1910 C   0  0  0  0  0  2  0  0  0  0  0  0
  188.7830  177.7700  146.3470 C   0  0  1  0  0  3  0  0  0  0  0  0
  191.6320  177.5010  143.7330 C   0  0  0  0  0  1  0  0  0  0  0  0
  190.8980  176.9620  147.4500 C   0  0  0  0  0  2  0  0  0  0  0  0
  184.7720  179.7130  144.5470 C   0  0  0  0  0  2  0  0  0  0  0  0
  183.3350  179.2200  144.7270 C   0  0  0  0  0  2  0  0  0  0  0  0
  182.4520  179.8750  143.8600 O   0  0  0  0  0  0  0  0  0  0  0  0
  181.4560  178.9420  143.5510 C   0  0  0  0  0  2  0  0  0  0  0  0
  181.2530  178.8490  142.0440 C   0  0  0  0  0  2  0  0  0  0  0  0
  179.1510  179.1700  140.6400 N   0  0  0  0  0  2  0  0  0  0  0  0
  179.8430  178.4880  141.6920 C   0  0  0  0  0  0  0  0  0  0  0  0
  179.2360  177.6200  142.3700 O   0  0  0  0  0  0  0  0  0  0  0  0
  179.7820  179.8010  139.5160 C   0  0  0  0  0  0  0  0  0  0  0  0
  180.7390  179.6660  137.2860 C   0  0  0  0  0  3  0  0  0  0  0  0
  180.1570  181.1530  139.5770 C   0  0  0  0  0  3  0  0  0  0  0  0
  180.8110  181.7570  138.5010 C   0  0  0  0  0  3  0  0  0  0  0  0
  180.0840  179.0550  138.3630 C   0  0  0  0  0  0  0  0  0  0  0  0
  181.1040  181.0130  137.3570 C   0  0  0  0  0  3  0  0  0  0  0  0
  179.6310  177.6360  138.2240 C   0  0  0  0  0  2  0  0  0  0  0  0
  180.8080  176.7230  138.1190 C   0  0  0  0  0  0  0  0  0  0  0  0
  183.0490  175.0570  137.9060 C   0  0  0  0  0  3  0  0  0  0  0  0
  182.1490  175.1570  136.8400 C   0  0  0  0  0  3  0  0  0  0  0  0
  182.8290  175.7870  139.0790 C   0  0  0  0  0  3  0  0  0  0  0  0
  181.0290  175.9870  136.9480 C   0  0  0  0  0  3  0  0  0  0  0  0
  181.7110  176.6210  139.1860 C   0  0  0  0  0  3  0  0  0  0  0  0
  1  2  1  0  0  0  0
  2 14  1  0  0  0  0
  2  3  2  0  0  0  0
  4  6  2  0  0  0  0
  5 13  1  6  0  0  0
  5  8  1  0  0  0  0
  6 10  1  0  0  0  0
  7  4  1  0  0  0  0
  8 10  1  6  0  0  0
  8 11  1  0  0  0  0
  9  4  1  0  0  0  0
  9  5  1  0  0  0  0
 11  1  1  1  0  0  0
 12 11  1  0  0  0  0
 13 12  1  0  0  0  0
 15 21  1  6  0  0  0
 15 19  1  0  0  0  0
 15 16  1  0  0  0  0
 16 17  1  6  0  0  0
 16 22  1  0  0  0  0
 18 22  1  0  0  0  0
 19 20  1  0  0  0  0
 20 14  1  6  0  0  0
 20 18  1  0  0  0  0
 23  1  1  0  0  0  0
 23 24  1  0  0  0  0
 25 24  1  0  0  0  0
 26 25  1  0  0  0  0
 27 26  1  0  0  0  0
 28 29  1  0  0  0  0
 29 27  1  0  0  0  0
 29 30  2  0  0  0  0
 31 33  1  0  0  0  0
 31 28  1  0  0  0  0
 32 36  2  0  0  0  0
 32 35  1  0  0  0  0
 34 33  2  0  0  0  0
 35 31  2  0  0  0  0
 36 34  1  0  0  0  0
 37 35  1  0  0  0  0
 38 37  1  0  0  0  0
 38 43  1  0  0  0  0
 39 41  1  0  0  0  0
 40 42  1  0  0  0  0
 40 39  2  0  0  0  0
 41 43  2  0  0  0  0
 42 38  2  0  0  0  0
M  END
>  <MODEL>
4

>  <REMARK>
 VINA RESULT:      -7.9      3.436      5.760
  Name = 
  12 active torsions:
  status: ('A' for Active; 'I' for Inactive)
    1  A    between atoms: C_1  and  C_34
    2  A    between atoms: C_1  and  C_35
    3  A    between atoms: O_2  and  C_7
    4  A    between atoms: O_2  and  C_13
    5  A    between atoms: N_3  and  C_4
    6  A    between atoms: C_6  and  C_7
    7  A    between atoms: C_6  and  C_12
    8  A    between atoms: N_8  and  C_27
    9  A    between atoms: N_8  and  C_30
   10  A    between atoms: C_11  and  C_14
   11  A    between atoms: C_13  and  C_27
   12  A    between atoms: C_14  and  C_41
                            x       y       z     vdW  Elec       q    Type
                         _______ _______ _______ _____ _____    ______ ____

>  <TORSDO>
F 12

$$$$
=
 OpenBabel10262422433D

 43 47  0  0  1  0  0  0  0  0999 V2000
  187.0820  178.2520  142.1000 N   0  0  0  0  0  0  0  0  0  0  0  0
  185.7870  178.6350  141.6120 C   0  0  0  0  0  0  0  0  0  0  0  0
  185.6810  179.2650  140.5250 O   0  0  0  0  0  0  0  0  0  0  0  0
  188.0470  177.8600  147.2930 C   0  0  0  0  0  0  0  0  0  0  0  0
  188.8520  177.7260  144.8910 C   0  0  1  0  0  3  0  0  0  0  0  0
  186.8050  177.8630  146.9180 N   0  0  0  0  0  0  0  0  0  0  0  0
  188.3900  178.1390  148.7130 C   0  0  0  0  0  1  0  0  0  0  0  0
  187.4130  178.0660  144.5300 C   0  0  2  0  0  3  0  0  0  0  0  0
  189.0910  177.6590  146.3350 N   0  0  0  0  0  2  0  0  0  0  0  0
  186.4220  177.5090  145.5560 C   0  0  0  0  0  2  0  0  0  0  0  0
  187.1920  177.3220  143.2260 C   0  0  2  0  0  3  0  0  0  0  0  0
  188.2890  176.3760  143.0150 N   0  0  0  0  0  2  0  0  0  0  0  0
  189.0950  176.3950  144.2300 C   0  0  0  0  0  2  0  0  0  0  0  0
  184.5440  178.2540  142.3540 C   0  0  0  0  0  2  0  0  0  0  0  0
  181.1920  178.2770  142.9820 C   0  0  1  0  0  3  0  0  0  0  0  0
  180.4160  178.3170  141.6570 C   0  0  2  0  0  3  0  0  0  0  0  0
  179.6830  176.7210  141.3520 Cl  0  0  0  0  0  0  0  0  0  0  0  0
  182.7370  178.3240  140.6510 C   0  0  0  0  0  2  0  0  0  0  0  0
  182.3370  179.2890  142.9990 C   0  0  0  0  0  2  0  0  0  0  0  0
  183.3430  179.0460  141.8580 C   0  0  1  0  0  3  0  0  0  0  0  0
  180.2450  178.5520  144.1330 C   0  0  0  0  0  1  0  0  0  0  0  0
  181.2780  178.7260  140.4530 C   0  0  0  0  0  2  0  0  0  0  0  0
  188.2820  178.7210  141.4050 C   0  0  0  0  0  2  0  0  0  0  0  0
  188.4700  178.0190  140.0600 C   0  0  0  0  0  2  0  0  0  0  0  0
  188.6650  178.9370  139.0200 O   0  0  0  0  0  0  0  0  0  0  0  0
  188.7550  178.1770  137.8490 C   0  0  0  0  0  2  0  0  0  0  0  0
  187.9030  176.9180  137.9570 C   0  0  0  0  0  2  0  0  0  0  0  0
  186.6500  175.4310  136.3110 N   0  0  0  0  0  2  0  0  0  0  0  0
  187.8160  176.1900  136.6520 C   0  0  0  0  0  0  0  0  0  0  0  0
  188.8020  176.1910  135.8730 O   0  0  0  0  0  0  0  0  0  0  0  0
  185.3290  175.6840  136.8110 C   0  0  0  0  0  0  0  0  0  0  0  0
  183.3070  174.9060  137.9120 C   0  0  0  0  0  3  0  0  0  0  0  0
  184.7150  176.9290  136.6010 C   0  0  0  0  0  3  0  0  0  0  0  0
  183.4120  177.1620  137.0470 C   0  0  0  0  0  3  0  0  0  0  0  0
  184.6120  174.6660  137.4650 C   0  0  0  0  0  0  0  0  0  0  0  0
  182.7080  176.1500  137.7010 C   0  0  0  0  0  3  0  0  0  0  0  0
  185.2570  173.3530  137.7810 C   0  0  0  0  0  2  0  0  0  0  0  0
  184.7890  172.3020  136.8290 C   0  0  0  0  0  0  0  0  0  0  0  0
  183.9290  170.2900  135.0810 C   0  0  0  0  0  3  0  0  0  0  0  0
  185.1850  170.8790  134.9050 C   0  0  0  0  0  3  0  0  0  0  0  0
  183.1010  170.7070  136.1300 C   0  0  0  0  0  3  0  0  0  0  0  0
  185.6130  171.8860  135.7760 C   0  0  0  0  0  3  0  0  0  0  0  0
  183.5310  171.7100  137.0040 C   0  0  0  0  0  3  0  0  0  0  0  0
  2  1  1  0  0  0  0
  2 14  1  0  0  0  0
  3  2  2  0  0  0  0
  4  7  1  0  0  0  0
  5 13  1  6  0  0  0
  5  9  1  0  0  0  0
  6  4  2  0  0  0  0
  8  5  1  0  0  0  0
  8 10  1  1  0  0  0
  9  4  1  0  0  0  0
 10  6  1  0  0  0  0
 11  1  1  6  0  0  0
 11  8  1  0  0  0  0
 12 11  1  0  0  0  0
 12 13  1  0  0  0  0
 15 19  1  0  0  0  0
 15 21  1  1  0  0  0
 16 17  1  6  0  0  0
 16 15  1  0  0  0  0
 18 20  1  0  0  0  0
 20 14  1  1  0  0  0
 20 19  1  0  0  0  0
 22 18  1  0  0  0  0
 22 16  1  0  0  0  0
 23  1  1  0  0  0  0
 24 23  1  0  0  0  0
 25 24  1  0  0  0  0
 26 27  1  0  0  0  0
 26 25  1  0  0  0  0
 28 29  1  0  0  0  0
 28 31  1  0  0  0  0
 29 27  1  0  0  0  0
 30 29  2  0  0  0  0
 31 35  1  0  0  0  0
 33 31  2  0  0  0  0
 33 34  1  0  0  0  0
 34 36  2  0  0  0  0
 35 37  1  0  0  0  0
 35 32  2  0  0  0  0
 36 32  1  0  0  0  0
 38 43  1  0  0  0  0
 38 37  1  0  0  0  0
 39 41  1  0  0  0  0
 40 39  2  0  0  0  0
 40 42  1  0  0  0  0
 41 43  2  0  0  0  0
 42 38  2  0  0  0  0
M  END
>  <MODEL>
5

>  <REMARK>
 VINA RESULT:      -7.7      3.878      7.971
  Name = 
  12 active torsions:
  status: ('A' for Active; 'I' for Inactive)
    1  A    between atoms: C_1  and  C_34
    2  A    between atoms: C_1  and  C_35
    3  A    between atoms: O_2  and  C_7
    4  A    between atoms: O_2  and  C_13
    5  A    between atoms: N_3  and  C_4
    6  A    between atoms: C_6  and  C_7
    7  A    between atoms: C_6  and  C_12
    8  A    between atoms: N_8  and  C_27
    9  A    between atoms: N_8  and  C_30
   10  A    between atoms: C_11  and  C_14
   11  A    between atoms: C_13  and  C_27
   12  A    between atoms: C_14  and  C_41
                            x       y       z     vdW  Elec       q    Type
                         _______ _______ _______ _____ _____    ______ ____

>  <TORSDO>
F 12

$$$$
=
 OpenBabel10262422433D

 43 47  0  0  1  0  0  0  0  0999 V2000
  185.7850  177.2490  136.8870 N   0  0  0  0  0  0  0  0  0  0  0  0
  185.0880  178.0990  137.8120 C   0  0  0  0  0  0  0  0  0  0  0  0
  185.7000  179.0330  138.3970 O   0  0  0  0  0  0  0  0  0  0  0  0
  183.8670  172.3270  136.4970 C   0  0  0  0  0  0  0  0  0  0  0  0
  185.6750  174.0300  135.9790 C   0  0  1  0  0  3  0  0  0  0  0  0
  183.0450  173.2570  136.8750 N   0  0  0  0  0  0  0  0  0  0  0  0
  183.5250  170.8980  136.7300 C   0  0  0  0  0  1  0  0  0  0  0  0
  184.7890  175.0050  136.7400 C   0  0  2  0  0  3  0  0  0  0  0  0
  185.1320  172.6710  135.9200 N   0  0  0  0  0  2  0  0  0  0  0  0
  183.3040  174.6620  136.5880 C   0  0  0  0  0  2  0  0  0  0  0  0
  185.0310  176.3260  136.0350 C   0  0  2  0  0  3  0  0  0  0  0  0
  185.7400  176.0820  134.7780 N   0  0  0  0  0  2  0  0  0  0  0  0
  185.7960  174.6340  134.6060 C   0  0  0  0  0  2  0  0  0  0  0  0
  183.6230  177.9230  138.0610 C   0  0  0  0  0  2  0  0  0  0  0  0
  180.9650  176.8430  139.9050 C   0  0  1  0  0  3  0  0  0  0  0  0
  180.7670  177.7640  141.1180 C   0  0  2  0  0  3  0  0  0  0  0  0
  179.3300  178.7870  140.8570 Cl  0  0  0  0  0  0  0  0  0  0  0  0
  182.7740  178.9620  140.1520 C   0  0  0  0  0  2  0  0  0  0  0  0
  182.4310  176.4510  139.7250 C   0  0  0  0  0  2  0  0  0  0  0  0
  183.3410  177.6790  139.5360 C   0  0  1  0  0  3  0  0  0  0  0  0
  180.1160  175.5990  140.0690 C   0  0  0  0  0  1  0  0  0  0  0  0
  181.9830  178.6520  141.4200 C   0  0  0  0  0  2  0  0  0  0  0  0
  187.2350  177.3810  136.7370 C   0  0  0  0  0  2  0  0  0  0  0  0
  187.9680  177.1250  138.0550 C   0  0  0  0  0  2  0  0  0  0  0  0
  188.8790  178.1470  138.3460 O   0  0  0  0  0  0  0  0  0  0  0  0
  190.0050  177.5140  138.8850 C   0  0  0  0  0  2  0  0  0  0  0  0
  189.6480  176.7840  140.1740 C   0  0  0  0  0  2  0  0  0  0  0  0
  189.6650  178.2450  142.2620 N   0  0  0  0  0  2  0  0  0  0  0  0
  190.3510  177.3700  141.3590 C   0  0  0  0  0  0  0  0  0  0  0  0
  191.5760  177.1440  141.5290 O   0  0  0  0  0  0  0  0  0  0  0  0
  188.2490  178.2370  142.4960 C   0  0  0  0  0  0  0  0  0  0  0  0
  186.3230  177.4300  143.7410 C   0  0  0  0  0  3  0  0  0  0  0  0
  187.3820  178.9460  141.6490 C   0  0  0  0  0  3  0  0  0  0  0  0
  186.0010  178.9030  141.8490 C   0  0  0  0  0  3  0  0  0  0  0  0
  187.7090  177.4680  143.5440 C   0  0  0  0  0  0  0  0  0  0  0  0
  185.4710  178.1430  142.8940 C   0  0  0  0  0  3  0  0  0  0  0  0
  188.5990  176.7640  144.5180 C   0  0  0  0  0  2  0  0  0  0  0  0
  188.3990  177.3100  145.8930 C   0  0  0  0  0  0  0  0  0  0  0  0
  188.0170  178.2790  148.4930 C   0  0  0  0  0  3  0  0  0  0  0  0
  186.9410  178.2290  147.6010 C   0  0  0  0  0  3  0  0  0  0  0  0
  189.2850  177.8480  148.0860 C   0  0  0  0  0  3  0  0  0  0  0  0
  187.1330  177.7470  146.3020 C   0  0  0  0  0  3  0  0  0  0  0  0
  189.4760  177.3620  146.7890 C   0  0  0  0  0  3  0  0  0  0  0  0
  1  2  1  0  0  0  0
  2 14  1  0  0  0  0
  2  3  2  0  0  0  0
  4  7  1  0  0  0  0
  4  6  2  0  0  0  0
  5 13  1  6  0  0  0
  5  8  1  0  0  0  0
  8 10  1  6  0  0  0
  9  5  1  0  0  0  0
  9  4  1  0  0  0  0
 10  6  1  0  0  0  0
 11  8  1  0  0  0  0
 11  1  1  1  0  0  0
 12 11  1  0  0  0  0
 13 12  1  0  0  0  0
 15 21  1  1  0  0  0
 15 16  1  0  0  0  0
 16 17  1  6  0  0  0
 16 22  1  0  0  0  0
 18 22  1  0  0  0  0
 19 15  1  0  0  0  0
 20 14  1  6  0  0  0
 20 19  1  0  0  0  0
 20 18  1  0  0  0  0
 23  1  1  0  0  0  0
 23 24  1  0  0  0  0
 24 25  1  0  0  0  0
 25 26  1  0  0  0  0
 26 27  1  0  0  0  0
 27 29  1  0  0  0  0
 28 31  1  0  0  0  0
 29 30  2  0  0  0  0
 29 28  1  0  0  0  0
 31 35  1  0  0  0  0
 33 34  1  0  0  0  0
 33 31  2  0  0  0  0
 34 36  2  0  0  0  0
 35 32  2  0  0  0  0
 35 37  1  0  0  0  0
 36 32  1  0  0  0  0
 37 38  1  0  0  0  0
 38 42  2  0  0  0  0
 38 43  1  0  0  0  0
 40 39  2  0  0  0  0
 41 39  1  0  0  0  0
 42 40  1  0  0  0  0
 43 41  2  0  0  0  0
M  END
>  <MODEL>
6

>  <REMARK>
 VINA RESULT:      -7.7      3.481      7.548
  Name = 
  12 active torsions:
  status: ('A' for Active; 'I' for Inactive)
    1  A    between atoms: C_1  and  C_34
    2  A    between atoms: C_1  and  C_35
    3  A    between atoms: O_2  and  C_7
    4  A    between atoms: O_2  and  C_13
    5  A    between atoms: N_3  and  C_4
    6  A    between atoms: C_6  and  C_7
    7  A    between atoms: C_6  and  C_12
    8  A    between atoms: N_8  and  C_27
    9  A    between atoms: N_8  and  C_30
   10  A    between atoms: C_11  and  C_14
   11  A    between atoms: C_13  and  C_27
   12  A    between atoms: C_14  and  C_41
                            x       y       z     vdW  Elec       q    Type
                         _______ _______ _______ _____ _____    ______ ____

>  <TORSDO>
F 12

$$$$
=
 OpenBabel10262422433D

 43 47  0  0  1  0  0  0  0  0999 V2000
  186.9650  176.5180  136.5530 N   0  0  0  0  0  0  0  0  0  0  0  0
  186.2060  177.5460  137.2090 C   0  0  0  0  0  0  0  0  0  0  0  0
  186.7990  178.4750  137.8210 O   0  0  0  0  0  0  0  0  0  0  0  0
  184.1690  172.0270  136.2910 C   0  0  0  0  0  0  0  0  0  0  0  0
  186.3870  173.2480  136.1360 C   0  0  1  0  0  3  0  0  0  0  0  0
  183.5070  173.1420  136.2480 N   0  0  0  0  0  0  0  0  0  0  0  0
  183.4590  170.7580  136.6080 C   0  0  0  0  0  1  0  0  0  0  0  0
  185.5680  174.4970  136.4240 C   0  0  2  0  0  3  0  0  0  0  0  0
  185.5890  172.0200  136.1050 N   0  0  0  0  0  2  0  0  0  0  0  0
  184.1490  174.3910  135.8560 C   0  0  0  0  0  2  0  0  0  0  0  0
  186.2930  175.5810  135.6490 C   0  0  2  0  0  3  0  0  0  0  0  0
  187.2540  174.9630  134.7330 N   0  0  0  0  0  2  0  0  0  0  0  0
  187.0260  173.5230  134.8010 C   0  0  0  0  0  2  0  0  0  0  0  0
  184.7120  177.5600  137.1380 C   0  0  0  0  0  2  0  0  0  0  0  0
  181.7300  176.6470  138.5200 C   0  0  1  0  0  3  0  0  0  0  0  0
  181.2180  177.7680  139.4360 C   0  0  2  0  0  3  0  0  0  0  0  0
  179.8510  178.5990  138.6490 Cl  0  0  0  0  0  0  0  0  0  0  0  0
  183.3550  178.9150  138.7190 C   0  0  0  0  0  2  0  0  0  0  0  0
  183.2090  176.3500  138.7610 C   0  0  0  0  0  2  0  0  0  0  0  0
  184.0960  177.5870  138.5300 C   0  0  1  0  0  3  0  0  0  0  0  0
  180.9090  175.3930  138.7440 C   0  0  0  0  0  1  0  0  0  0  0  0
  182.2960  178.7950  139.8120 C   0  0  0  0  0  2  0  0  0  0  0  0
  188.4180  176.4740  136.7200 C   0  0  0  0  0  2  0  0  0  0  0  0
  188.8260  175.6320  137.9300 C   0  0  0  0  0  2  0  0  0  0  0  0
  190.1970  175.7390  138.1950 O   0  0  0  0  0  0  0  0  0  0  0  0
  190.3710  176.9810  138.8160 C   0  0  0  0  0  2  0  0  0  0  0  0
  189.7830  176.9690  140.2210 C   0  0  0  0  0  2  0  0  0  0  0  0
  188.7800  178.6040  141.8980 N   0  0  0  0  0  2  0  0  0  0  0  0
  189.0840  178.2530  140.5430 C   0  0  0  0  0  0  0  0  0  0  0  0
  188.7010  179.0040  139.6110 O   0  0  0  0  0  0  0  0  0  0  0  0
  189.5100  178.1500  143.0480 C   0  0  0  0  0  0  0  0  0  0  0  0
  189.6190  176.8400  145.0930 C   0  0  0  0  0  3  0  0  0  0  0  0
  190.7940  178.6470  143.3180 C   0  0  0  0  0  3  0  0  0  0  0  0
  191.4870  178.2400  144.4610 C   0  0  0  0  0  3  0  0  0  0  0  0
  188.9190  177.2460  143.9500 C   0  0  0  0  0  0  0  0  0  0  0  0
  190.8980  177.3380  145.3490 C   0  0  0  0  0  3  0  0  0  0  0  0
  187.5870  176.6300  143.6590 C   0  0  0  0  0  2  0  0  0  0  0  0
  186.4880  177.5060  144.1660 C   0  0  0  0  0  0  0  0  0  0  0  0
  184.4620  179.1960  145.1040 C   0  0  0  0  0  3  0  0  0  0  0  0
  185.3600  178.6150  146.0050 C   0  0  0  0  0  3  0  0  0  0  0  0
  184.5740  178.9320  143.7340 C   0  0  0  0  0  3  0  0  0  0  0  0
  186.3700  177.7690  145.5360 C   0  0  0  0  0  3  0  0  0  0  0  0
  185.5870  178.0890  143.2650 C   0  0  0  0  0  3  0  0  0  0  0  0
  1 23  1  0  0  0  0
  1  2  1  0  0  0  0
  2  3  2  0  0  0  0
  4  7  1  0  0  0  0
  5 13  1  6  0  0  0
  5  8  1  0  0  0  0
  6  4  2  0  0  0  0
  8 10  1  6  0  0  0
  9  5  1  0  0  0  0
  9  4  1  0  0  0  0
 10  6  1  0  0  0  0
 11  8  1  0  0  0  0
 11  1  1  1  0  0  0
 12 13  1  0  0  0  0
 12 11  1  0  0  0  0
 14  2  1  0  0  0  0
 15 21  1  1  0  0  0
 15 19  1  0  0  0  0
 15 16  1  0  0  0  0
 16 17  1  6  0  0  0
 16 22  1  0  0  0  0
 18 22  1  0  0  0  0
 20 14  1  6  0  0  0
 20 18  1  0  0  0  0
 20 19  1  0  0  0  0
 23 24  1  0  0  0  0
 24 25  1  0  0  0  0
 25 26  1  0  0  0  0
 26 27  1  0  0  0  0
 27 29  1  0  0  0  0
 28 31  1  0  0  0  0
 29 28  1  0  0  0  0
 30 29  2  0  0  0  0
 31 33  2  0  0  0  0
 31 35  1  0  0  0  0
 32 36  1  0  0  0  0
 33 34  1  0  0  0  0
 34 36  2  0  0  0  0
 35 32  2  0  0  0  0
 37 35  1  0  0  0  0
 37 38  1  0  0  0  0
 38 42  1  0  0  0  0
 39 40  1  0  0  0  0
 41 39  2  0  0  0  0
 42 40  2  0  0  0  0
 43 41  1  0  0  0  0
 43 38  2  0  0  0  0
M  END
>  <MODEL>
7

>  <REMARK>
 VINA RESULT:      -7.6      3.298      7.676
  Name = 
  12 active torsions:
  status: ('A' for Active; 'I' for Inactive)
    1  A    between atoms: C_1  and  C_34
    2  A    between atoms: C_1  and  C_35
    3  A    between atoms: O_2  and  C_7
    4  A    between atoms: O_2  and  C_13
    5  A    between atoms: N_3  and  C_4
    6  A    between atoms: C_6  and  C_7
    7  A    between atoms: C_6  and  C_12
    8  A    between atoms: N_8  and  C_27
    9  A    between atoms: N_8  and  C_30
   10  A    between atoms: C_11  and  C_14
   11  A    between atoms: C_13  and  C_27
   12  A    between atoms: C_14  and  C_41
                            x       y       z     vdW  Elec       q    Type
                         _______ _______ _______ _____ _____    ______ ____

>  <TORSDO>
F 12

$$$$
=
 OpenBabel10262422433D

 43 47  0  0  1  0  0  0  0  0999 V2000
  189.4170  177.2710  142.1610 N   0  0  0  0  0  0  0  0  0  0  0  0
  188.0960  177.7470  141.8560 C   0  0  0  0  0  0  0  0  0  0  0  0
  187.8800  178.3610  140.7760 O   0  0  0  0  0  0  0  0  0  0  0  0
  191.2210  176.8860  147.1260 C   0  0  0  0  0  0  0  0  0  0  0  0
  191.5770  176.6090  144.6300 C   0  0  1  0  0  3  0  0  0  0  0  0
  189.9400  177.0200  146.9680 N   0  0  0  0  0  0  0  0  0  0  0  0
  191.8340  177.1550  148.4550 C   0  0  0  0  0  1  0  0  0  0  0  0
  190.1420  177.1020  144.5050 C   0  0  2  0  0  3  0  0  0  0  0  0
  192.0550  176.5480  146.0130 N   0  0  0  0  0  2  0  0  0  0  0  0
  189.2910  176.6830  145.7070 C   0  0  0  0  0  2  0  0  0  0  0  0
  189.6190  176.3590  143.2900 C   0  0  2  0  0  3  0  0  0  0  0  0
  190.5550  175.2910  142.9340 N   0  0  0  0  0  2  0  0  0  0  0  0
  191.5570  175.2460  143.9930 C   0  0  0  0  0  2  0  0  0  0  0  0
  186.9520  177.4850  142.7840 C   0  0  0  0  0  2  0  0  0  0  0  0
  184.8850  178.3420  145.3580 C   0  0  1  0  0  3  0  0  0  0  0  0
  183.8590  179.3780  144.8760 C   0  0  2  0  0  3  0  0  0  0  0  0
  182.2620  178.6020  144.7180 Cl  0  0  0  0  0  0  0  0  0  0  0  0
  185.0830  179.1190  142.6780 C   0  0  0  0  0  2  0  0  0  0  0  0
  186.3000  178.6910  144.9000 C   0  0  0  0  0  2  0  0  0  0  0  0
  186.4090  178.7820  143.3670 C   0  0  1  0  0  3  0  0  0  0  0  0
  184.8400  178.2480  146.8700 C   0  0  0  0  0  1  0  0  0  0  0  0
  184.2400  180.0480  143.5470 C   0  0  0  0  0  2  0  0  0  0  0  0
  190.5330  177.6250  141.2840 C   0  0  0  0  0  2  0  0  0  0  0  0
  190.5680  176.7530  140.0280 C   0  0  0  0  0  2  0  0  0  0  0  0
  190.6500  177.5260  138.8640 O   0  0  0  0  0  0  0  0  0  0  0  0
  190.2110  176.6980  137.8230 C   0  0  0  0  0  2  0  0  0  0  0  0
  188.6890  176.6970  137.7420 C   0  0  0  0  0  2  0  0  0  0  0  0
  187.3930  175.9000  135.6980 N   0  0  0  0  0  2  0  0  0  0  0  0
  188.2060  176.8900  136.3380 C   0  0  0  0  0  0  0  0  0  0  0  0
  188.5710  177.9030  135.6890 O   0  0  0  0  0  0  0  0  0  0  0  0
  186.5320  174.9770  136.3810 C   0  0  0  0  0  0  0  0  0  0  0  0
  184.3710  174.4350  137.3530 C   0  0  0  0  0  3  0  0  0  0  0  0
  187.0290  173.7480  136.8430 C   0  0  0  0  0  3  0  0  0  0  0  0
  186.2040  172.8690  137.5480 C   0  0  0  0  0  3  0  0  0  0  0  0
  185.1940  175.3220  136.6480 C   0  0  0  0  0  0  0  0  0  0  0  0
  184.8760  173.2130  137.8040 C   0  0  0  0  0  3  0  0  0  0  0  0
  184.6030  176.5840  136.1040 C   0  0  0  0  0  2  0  0  0  0  0  0
  184.2260  177.5030  137.2190 C   0  0  0  0  0  0  0  0  0  0  0  0
  183.5200  179.2730  139.2710 C   0  0  0  0  0  3  0  0  0  0  0  0
  184.8620  178.9300  139.0750 C   0  0  0  0  0  3  0  0  0  0  0  0
  182.5310  178.7300  138.4450 C   0  0  0  0  0  3  0  0  0  0  0  0
  185.2140  178.0450  138.0520 C   0  0  0  0  0  3  0  0  0  0  0  0
  182.8830  177.8480  137.4180 C   0  0  0  0  0  3  0  0  0  0  0  0
  2  1  1  0  0  0  0
  2 14  1  0  0  0  0
  3  2  2  0  0  0  0
  4  7  1  0  0  0  0
  5 13  1  1  0  0  0
  5  9  1  0  0  0  0
  6  4  2  0  0  0  0
  8  5  1  0  0  0  0
  8 10  1  1  0  0  0
  9  4  1  0  0  0  0
 10  6  1  0  0  0  0
 11  1  1  6  0  0  0
 11  8  1  0  0  0  0
 12 11  1  0  0  0  0
 12 13  1  0  0  0  0
 15 21  1  1  0  0  0
 16 17  1  6  0  0  0
 16 15  1  0  0  0  0
 18 20  1  0  0  0  0
 18 22  1  0  0  0  0
 19 15  1  0  0  0  0
 20 14  1  6  0  0  0
 20 19  1  0  0  0  0
 22 16  1  0  0  0  0
 23  1  1  0  0  0  0
 24 23  1  0  0  0  0
 25 24  1  0  0  0  0
 26 25  1  0  0  0  0
 27 26  1  0  0  0  0
 28 29  1  0  0  0  0
 28 31  1  0  0  0  0
 29 27  1  0  0  0  0
 30 29  2  0  0  0  0
 31 35  2  0  0  0  0
 31 33  1  0  0  0  0
 32 36  2  0  0  0  0
 33 34  2  0  0  0  0
 34 36  1  0  0  0  0
 35 32  1  0  0  0  0
 37 35  1  0  0  0  0
 37 38  1  0  0  0  0
 38 43  2  0  0  0  0
 38 42  1  0  0  0  0
 40 39  1  0  0  0  0
 41 39  2  0  0  0  0
 42 40  2  0  0  0  0
 43 41  1  0  0  0  0
M  END
>  <MODEL>
8

>  <REMARK>
 VINA RESULT:      -7.6      3.172      6.490
  Name = 
  12 active torsions:
  status: ('A' for Active; 'I' for Inactive)
    1  A    between atoms: C_1  and  C_34
    2  A    between atoms: C_1  and  C_35
    3  A    between atoms: O_2  and  C_7
    4  A    between atoms: O_2  and  C_13
    5  A    between atoms: N_3  and  C_4
    6  A    between atoms: C_6  and  C_7
    7  A    between atoms: C_6  and  C_12
    8  A    between atoms: N_8  and  C_27
    9  A    between atoms: N_8  and  C_30
   10  A    between atoms: C_11  and  C_14
   11  A    between atoms: C_13  and  C_27
   12  A    between atoms: C_14  and  C_41
                            x       y       z     vdW  Elec       q    Type
                         _______ _______ _______ _____ _____    ______ ____

>  <TORSDO>
F 12

$$$$
=
 OpenBabel10262422433D

 43 47  0  0  1  0  0  0  0  0999 V2000
  186.8680  178.3480  142.1040 N   0  0  0  0  0  0  0  0  0  0  0  0
  185.5510  178.7400  141.6870 C   0  0  0  0  0  0  0  0  0  0  0  0
  185.3950  179.4050  140.6270 O   0  0  0  0  0  0  0  0  0  0  0  0
  187.9790  177.7980  147.2540 C   0  0  0  0  0  0  0  0  0  0  0  0
  188.7230  177.7690  144.8290 C   0  0  1  0  0  3  0  0  0  0  0  0
  186.7280  177.7810  146.9110 N   0  0  0  0  0  0  0  0  0  0  0  0
  188.3530  178.0350  148.6740 C   0  0  0  0  0  1  0  0  0  0  0  0
  187.2670  178.0850  144.5170 C   0  0  2  0  0  3  0  0  0  0  0  0
  189.0030  177.6580  146.2630 N   0  0  0  0  0  2  0  0  0  0  0  0
  186.3180  177.4660  145.5480 C   0  0  0  0  0  2  0  0  0  0  0  0
  187.0300  177.3820  143.1930 C   0  0  2  0  0  3  0  0  0  0  0  0
  188.1450  176.4720  142.9200 N   0  0  0  0  0  2  0  0  0  0  0  0
  188.9820  176.4700  144.1150 C   0  0  0  0  0  2  0  0  0  0  0  0
  184.3430  178.3280  142.4700 C   0  0  0  0  0  2  0  0  0  0  0  0
  180.9960  178.2070  143.1100 C   0  0  1  0  0  3  0  0  0  0  0  0
  180.2110  178.3590  141.7990 C   0  0  2  0  0  3  0  0  0  0  0  0
  179.5140  176.7840  141.3390 Cl  0  0  0  0  0  0  0  0  0  0  0  0
  182.5240  178.5230  140.7890 C   0  0  0  0  0  2  0  0  0  0  0  0
  182.1160  179.2390  143.2230 C   0  0  0  0  0  2  0  0  0  0  0  0
  183.1210  179.1360  142.0600 C   0  0  1  0  0  3  0  0  0  0  0  0
  180.0500  178.3430  144.2860 C   0  0  0  0  0  1  0  0  0  0  0  0
  181.0550  178.9070  140.6380 C   0  0  0  0  0  2  0  0  0  0  0  0
  188.0350  178.8460  141.3740 C   0  0  0  0  0  2  0  0  0  0  0  0
  188.3490  177.9830  140.1510 C   0  0  0  0  0  2  0  0  0  0  0  0
  188.0340  178.6440  138.9570 O   0  0  0  0  0  0  0  0  0  0  0  0
  189.1090  178.4080  138.0930 C   0  0  0  0  0  2  0  0  0  0  0  0
  189.1020  176.9640  137.6060 C   0  0  0  0  0  2  0  0  0  0  0  0
  188.9090  175.6430  135.4360 N   0  0  0  0  0  2  0  0  0  0  0  0
  189.1600  176.8800  136.1120 C   0  0  0  0  0  0  0  0  0  0  0  0
  189.4970  177.8910  135.4450 O   0  0  0  0  0  0  0  0  0  0  0  0
  188.0950  174.5770  135.9480 C   0  0  0  0  0  0  0  0  0  0  0  0
  185.9040  173.5950  136.3300 C   0  0  0  0  0  3  0  0  0  0  0  0
  188.6750  173.5170  136.6610 C   0  0  0  0  0  3  0  0  0  0  0  0
  187.8790  172.5030  137.1980 C   0  0  0  0  0  3  0  0  0  0  0  0
  186.6970  174.6160  135.7900 C   0  0  0  0  0  0  0  0  0  0  0  0
  186.4940  172.5430  137.0340 C   0  0  0  0  0  3  0  0  0  0  0  0
  186.0460  175.6830  134.9690 C   0  0  0  0  0  2  0  0  0  0  0  0
  185.0450  176.4310  135.7880 C   0  0  0  0  0  0  0  0  0  0  0  0
  183.1640  177.7840  137.3600 C   0  0  0  0  0  3  0  0  0  0  0  0
  182.7610  177.1440  136.1840 C   0  0  0  0  0  3  0  0  0  0  0  0
  184.5070  177.7510  137.7500 C   0  0  0  0  0  3  0  0  0  0  0  0
  183.7010  176.4700  135.3980 C   0  0  0  0  0  3  0  0  0  0  0  0
  185.4470  177.0730  136.9670 C   0  0  0  0  0  3  0  0  0  0  0  0
  2  1  1  0  0  0  0
  2 14  1  0  0  0  0
  3  2  2  0  0  0  0
  4  7  1  0  0  0  0
  5 13  1  6  0  0  0
  5  9  1  0  0  0  0
  6  4  2  0  0  0  0
  8  5  1  0  0  0  0
  8 10  1  1  0  0  0
  9  4  1  0  0  0  0
 10  6  1  0  0  0  0
 11  1  1  6  0  0  0
 11  8  1  0  0  0  0
 12 11  1  0  0  0  0
 12 13  1  0  0  0  0
 15 19  1  0  0  0  0
 15 21  1  1  0  0  0
 16 17  1  6  0  0  0
 16 15  1  0  0  0  0
 18 20  1  0  0  0  0
 20 14  1  1  0  0  0
 20 19  1  0  0  0  0
 22 18  1  0  0  0  0
 22 16  1  0  0  0  0
 23  1  1  0  0  0  0
 24 23  1  0  0  0  0
 25 24  1  0  0  0  0
 26 25  1  0  0  0  0
 27 26  1  0  0  0  0
 28 31  1  0  0  0  0
 28 29  1  0  0  0  0
 29 27  1  0  0  0  0
 30 29  2  0  0  0  0
 31 33  1  0  0  0  0
 32 36  2  0  0  0  0
 33 34  2  0  0  0  0
 35 31  2  0  0  0  0
 35 32  1  0  0  0  0
 36 34  1  0  0  0  0
 37 38  1  0  0  0  0
 37 35  1  0  0  0  0
 38 43  1  0  0  0  0
 39 41  1  0  0  0  0
 40 39  2  0  0  0  0
 42 38  2  0  0  0  0
 42 40  1  0  0  0  0
 43 41  2  0  0  0  0
M  END
>  <MODEL>
9

>  <REMARK>
 VINA RESULT:      -7.6      3.367      8.078
  Name = 
  12 active torsions:
  status: ('A' for Active; 'I' for Inactive)
    1  A    between atoms: C_1  and  C_34
    2  A    between atoms: C_1  and  C_35
    3  A    between atoms: O_2  and  C_7
    4  A    between atoms: O_2  and  C_13
    5  A    between atoms: N_3  and  C_4
    6  A    between atoms: C_6  and  C_7
    7  A    between atoms: C_6  and  C_12
    8  A    between atoms: N_8  and  C_27
    9  A    between atoms: N_8  and  C_30
   10  A    between atoms: C_11  and  C_14
   11  A    between atoms: C_13  and  C_27
   12  A    between atoms: C_14  and  C_41
                            x       y       z     vdW  Elec       q    Type
                         _______ _______ _______ _____ _____    ______ ____

>  <TORSDO>
F 12

$$$$
