=
 OpenBabel10262422463D

 37 43  0  0  1  0  0  0  0  0999 V2000
  188.6840  176.2250  142.8190 C   0  0  0  0  0  2  0  0  0  0  0  0
  183.7020  177.8030  140.3380 C   0  0  0  0  0  2  0  0  0  0  0  0
  187.6080  177.7720  138.6380 C   0  0  0  0  0  0  0  0  0  0  0  0
  188.6300  176.4840  144.3260 C   0  0  1  0  0  3  0  0  0  0  0  0
  190.8010  176.9900  140.4680 C   0  0  0  0  0  2  0  0  0  0  0  0
  185.3270  178.6580  138.5430 C   0  0  0  0  0  0  0  0  0  0  0  0
  188.3330  177.1990  139.5940 C   0  0  1  0  0  3  0  0  0  0  0  0
  191.3040  179.1120  144.0070 C   0  0  0  0  0  0  0  0  0  0  0  0
  186.4340  178.3820  139.2340 C   0  0  0  0  0  0  0  0  0  0  0  0
  189.7360  176.7220  139.4110 C   0  0  0  0  0  0  0  0  0  0  0  0
  185.3930  178.4550  137.0710 C   0  0  0  0  0  3  0  0  0  0  0  0
  189.4190  177.7760  144.7490 C   0  0  0  0  0  2  0  0  0  0  0  0
  186.6640  178.3840  140.6740 C   0  0  0  0  0  0  0  0  0  0  0  0
  184.9410  178.6450  142.4550 C   0  0  0  0  0  2  0  0  0  0  0  0
  188.1070  176.2360  136.7870 C   0  0  0  0  0  3  0  0  0  0  0  0
  186.5060  178.0330  136.4220 C   0  0  0  0  0  3  0  0  0  0  0  0
  186.0690  179.3510  141.6330 C   0  0  0  0  0  2  0  0  0  0  0  0
  190.3260  178.3310  143.6510 C   0  0  0  0  0  0  0  0  0  0  0  0
  190.6590  178.3890  141.0700 C   0  0  0  0  0  2  0  0  0  0  0  0
  187.7910  177.6670  137.1510 C   0  0  0  0  0  0  0  0  0  0  0  0
  187.7360  177.6360  140.8700 C   0  0  0  0  0  0  0  0  0  0  0  0
  183.9660  178.8100  139.1840 C   0  0  0  0  0  2  0  0  0  0  0  0
  190.0950  175.9910  138.3040 C   0  0  0  0  0  0  0  0  0  0  0  0
  183.6210  178.5550  141.6660 C   0  0  0  0  0  2  0  0  0  0  0  0
  189.7110  178.4740  142.2650 C   0  0  1  0  0  3  0  0  0  0  0  0
  192.2710  179.8500  144.3470 O   0  0  0  0  0  0  0  0  0  0  0  0
  188.4350  177.5840  142.1790 C   0  0  2  0  0  3  0  0  0  0  0  0
  189.1280  175.5480  137.2960 C   0  0  0  0  0  3  0  0  0  0  0  0
  192.4700  176.5700  137.9870 C   0  0  0  0  0  3  0  0  0  0  0  0
  191.4750  175.5690  138.0460 C   0  0  0  0  0  0  0  0  0  0  0  0
  191.7740  174.2580  137.6380 C   0  0  0  0  0  3  0  0  0  0  0  0
  193.3060  172.6930  136.7240 F   0  0  0  0  0  0  0  0  0  0  0  0
  194.0350  174.9610  137.0900 C   0  0  0  0  0  3  0  0  0  0  0  0
  193.0430  173.9500  137.1630 C   0  0  0  0  0  0  0  0  0  0  0  0
  193.7320  176.2650  137.5000 C   0  0  0  0  0  3  0  0  0  0  0  0
  187.0360  177.9110  145.6290 C   0  0  0  0  0  1  0  0  0  0  0  0
  187.1460  176.6990  144.7180 C   0  0  0  0  0  2  0  0  0  0  0  0
  1  4  1  0  0  0  0
  2 24  1  0  0  0  0
  3  9  2  0  0  0  0
  4 37  1  6  0  0  0
  4 12  1  0  0  0  0
  5 19  1  0  0  0  0
  6 22  1  0  0  0  0
  6  9  1  0  0  0  0
  7  3  1  6  0  0  0
  7 21  1  0  0  0  0
  8 26  2  0  0  0  0
  9 13  1  0  0  0  0
 10  7  1  0  0  0  0
 10  5  1  0  0  0  0
 11  6  2  0  0  0  0
 13 21  2  0  0  0  0
 13 17  1  0  0  0  0
 15 20  1  0  0  0  0
 15 28  2  0  0  0  0
 16 11  1  0  0  0  0
 16 20  2  0  0  0  0
 17 14  1  0  0  0  0
 18  8  2  0  0  0  0
 18 12  1  0  0  0  0
 20  3  1  0  0  0  0
 21 27  1  0  0  0  0
 22  2  1  0  0  0  0
 23 10  2  0  0  0  0
 24 14  1  0  0  0  0
 25 19  1  6  0  0  0
 25 18  1  0  0  0  0
 27 25  1  0  0  0  0
 27  1  1  6  0  0  0
 28 23  1  0  0  0  0
 29 30  1  0  0  0  0
 30 23  1  0  0  0  0
 31 30  2  0  0  0  0
 32 34  1  0  0  0  0
 33 34  2  0  0  0  0
 33 35  1  0  0  0  0
 34 31  1  0  0  0  0
 35 29  2  0  0  0  0
 37 36  1  0  0  0  0
M  END
>  <MODEL>
1

>  <REMARK>
 VINA RESULT:      -8.0      0.000      0.000
  Name = 
  2 active torsions:
  status: ('A' for Active; 'I' for Inactive)
    1  A    between atoms: C_5  and  C_23
    2  A    between atoms: C_6  and  C_31
                            x       y       z     vdW  Elec       q    Type
                         _______ _______ _______ _____ _____    ______ ____

>  <TORSDO>
F 2

$$$$
=
 OpenBabel10262422463D

 37 43  0  0  1  0  0  0  0  0999 V2000
  183.5960  176.9310  138.8180 C   0  0  0  0  0  2  0  0  0  0  0  0
  188.6470  175.8120  136.2290 C   0  0  0  0  0  2  0  0  0  0  0  0
  187.9400  178.0270  139.7990 C   0  0  0  0  0  0  0  0  0  0  0  0
  182.4710  176.9860  137.7820 C   0  0  1  0  0  3  0  0  0  0  0  0
  184.5670  178.9150  141.2080 C   0  0  0  0  0  2  0  0  0  0  0  0
  189.4520  177.5600  137.9290 C   0  0  0  0  0  0  0  0  0  0  0  0
  186.6380  177.8490  139.9940 C   0  0  0  0  0  0  0  0  0  0  0  0
  181.9730  180.6530  138.4630 C   0  0  0  0  0  0  0  0  0  0  0  0
  188.2360  177.8590  138.3880 C   0  0  0  0  0  0  0  0  0  0  0  0
  185.9200  178.2150  141.2510 C   0  0  0  0  0  0  0  0  0  0  0  0
  190.5560  177.5550  138.9260 C   0  0  0  0  0  3  0  0  0  0  0  0
  182.0370  178.4550  137.4350 C   0  0  0  0  0  2  0  0  0  0  0  0
  186.9490  177.8560  137.7010 C   0  0  0  0  0  0  0  0  0  0  0  0
  186.4900  176.9940  135.4080 C   0  0  0  0  0  2  0  0  0  0  0  0
  188.7850  177.1670  141.9390 C   0  0  0  0  0  3  0  0  0  0  0  0
  190.3840  177.8530  140.2370 C   0  0  0  0  0  3  0  0  0  0  0  0
  186.7330  178.2640  136.2880 C   0  0  0  0  0  2  0  0  0  0  0  0
  182.5840  179.5050  138.4030 C   0  0  0  0  0  0  0  0  0  0  0  0
  184.5090  179.9610  140.0940 C   0  0  0  0  0  2  0  0  0  0  0  0
  189.0190  178.1690  140.8330 C   0  0  1  0  0  3  0  0  0  0  0  0
  186.0330  177.7830  138.6500 C   0  0  0  0  0  0  0  0  0  0  0  0
  189.6950  176.9020  136.5900 C   0  0  0  0  0  2  0  0  0  0  0  0
  186.4400  177.8900  142.4810 C   0  0  0  0  0  0  0  0  0  0  0  0
  187.8060  176.2830  135.0430 C   0  0  0  0  0  2  0  0  0  0  0  0
  184.0670  179.4190  138.7350 C   0  0  1  0  0  3  0  0  0  0  0  0
  181.3710  181.7600  138.5480 O   0  0  0  0  0  0  0  0  0  0  0  0
  184.5890  177.9960  138.3740 C   0  0  2  0  0  3  0  0  0  0  0  0
  187.6580  177.0910  142.6440 C   0  0  0  0  0  3  0  0  0  0  0  0
  186.5570  178.1500  144.9300 C   0  0  0  0  0  3  0  0  0  0  0  0
  185.8090  178.2970  143.7410 C   0  0  0  0  0  0  0  0  0  0  0  0
  184.4380  178.6000  143.8070 C   0  0  0  0  0  3  0  0  0  0  0  0
  182.4820  178.9810  145.0940 F   0  0  0  0  0  0  0  0  0  0  0  0
  184.5660  178.5750  146.2340 C   0  0  0  0  0  3  0  0  0  0  0  0
  183.8160  178.7390  145.0420 C   0  0  0  0  0  0  0  0  0  0  0  0
  185.9330  178.2760  146.1610 C   0  0  0  0  0  3  0  0  0  0  0  0
  182.7130  177.2640  135.3040 C   0  0  0  0  0  1  0  0  0  0  0  0
  182.9970  176.3380  136.4750 C   0  0  0  0  0  2  0  0  0  0  0  0
  2 22  1  0  0  0  0
  3  7  2  0  0  0  0
  3 20  1  0  0  0  0
  4 37  1  6  0  0  0
  4  1  1  0  0  0  0
  5 10  1  0  0  0  0
  6  9  2  0  0  0  0
  6 11  1  0  0  0  0
  7 10  1  0  0  0  0
  8 26  2  0  0  0  0
  9  3  1  0  0  0  0
 10 23  2  0  0  0  0
 11 16  2  0  0  0  0
 12  4  1  0  0  0  0
 12 18  1  0  0  0  0
 13  9  1  0  0  0  0
 13 21  2  0  0  0  0
 14 17  1  0  0  0  0
 15 28  2  0  0  0  0
 17 13  1  0  0  0  0
 18  8  2  0  0  0  0
 18 25  1  0  0  0  0
 19  5  1  0  0  0  0
 20 16  1  6  0  0  0
 20 15  1  0  0  0  0
 21  7  1  0  0  0  0
 22  6  1  0  0  0  0
 23 28  1  0  0  0  0
 23 30  1  0  0  0  0
 24 14  1  0  0  0  0
 24  2  1  0  0  0  0
 25 19  1  1  0  0  0
 27 21  1  0  0  0  0
 27 25  1  0  0  0  0
 27  1  1  1  0  0  0
 29 35  1  0  0  0  0
 30 31  1  0  0  0  0
 30 29  2  0  0  0  0
 31 34  2  0  0  0  0
 34 32  1  0  0  0  0
 34 33  1  0  0  0  0
 35 33  2  0  0  0  0
 36 37  1  0  0  0  0
M  END
>  <MODEL>
2

>  <REMARK>
 VINA RESULT:      -7.7      3.782      8.112
  Name = 
  2 active torsions:
  status: ('A' for Active; 'I' for Inactive)
    1  A    between atoms: C_5  and  C_23
    2  A    between atoms: C_6  and  C_31
                            x       y       z     vdW  Elec       q    Type
                         _______ _______ _______ _____ _____    ______ ____

>  <TORSDO>
F 2

$$$$
=
 OpenBabel10262422463D

 37 43  0  0  1  0  0  0  0  0999 V2000
  184.0080  176.7990  138.9580 C   0  0  0  0  0  2  0  0  0  0  0  0
  189.1630  175.9110  136.4860 C   0  0  0  0  0  2  0  0  0  0  0  0
  188.2990  177.8850  140.1610 C   0  0  0  0  0  0  0  0  0  0  0  0
  182.9200  176.9060  137.8870 C   0  0  1  0  0  3  0  0  0  0  0  0
  184.8650  178.6400  141.5020 C   0  0  0  0  0  2  0  0  0  0  0  0
  189.8820  177.5570  138.3210 C   0  0  0  0  0  0  0  0  0  0  0  0
  186.9930  177.6780  140.2980 C   0  0  0  0  0  0  0  0  0  0  0  0
  182.3440  180.5150  138.7810 C   0  0  0  0  0  0  0  0  0  0  0  0
  188.6460  177.8110  138.7540 C   0  0  0  0  0  0  0  0  0  0  0  0
  186.2260  177.9540  141.5490 C   0  0  0  0  0  0  0  0  0  0  0  0
  190.9510  177.5020  139.3550 C   0  0  0  0  0  3  0  0  0  0  0  0
  182.4760  178.3890  137.6180 C   0  0  0  0  0  2  0  0  0  0  0  0
  187.3840  177.8350  138.0230 C   0  0  0  0  0  0  0  0  0  0  0  0
  187.0180  177.1160  135.6650 C   0  0  0  0  0  2  0  0  0  0  0  0
  189.0810  176.9010  142.2720 C   0  0  0  0  0  3  0  0  0  0  0  0
  190.7270  177.7140  140.6750 C   0  0  0  0  0  3  0  0  0  0  0  0
  187.2120  178.3300  136.6320 C   0  0  0  0  0  2  0  0  0  0  0  0
  182.9730  179.3810  138.6700 C   0  0  0  0  0  0  0  0  0  0  0  0
  184.8310  179.7530  140.4550 C   0  0  0  0  0  2  0  0  0  0  0  0
  189.3390  177.9740  141.2410 C   0  0  1  0  0  3  0  0  0  0  0  0
  186.4370  177.6910  138.9320 C   0  0  0  0  0  0  0  0  0  0  0  0
  190.1820  176.9890  136.9530 C   0  0  0  0  0  2  0  0  0  0  0  0
  186.7070  177.5590  142.7740 C   0  0  0  0  0  0  0  0  0  0  0  0
  188.3570  176.4460  135.3030 C   0  0  0  0  0  2  0  0  0  0  0  0
  184.4450  179.2940  139.0490 C   0  0  1  0  0  3  0  0  0  0  0  0
  181.7230  181.6070  138.9130 O   0  0  0  0  0  0  0  0  0  0  0  0
  185.0000  177.9030  138.6180 C   0  0  2  0  0  3  0  0  0  0  0  0
  187.9300  176.7660  142.9300 C   0  0  0  0  0  3  0  0  0  0  0  0
  184.7400  178.4530  143.9600 C   0  0  0  0  0  3  0  0  0  0  0  0
  186.0270  177.8770  144.0340 C   0  0  0  0  0  0  0  0  0  0  0  0
  186.7080  177.8360  145.2630 C   0  0  0  0  0  3  0  0  0  0  0  0
  186.8090  178.3770  147.5700 F   0  0  0  0  0  0  0  0  0  0  0  0
  184.8350  178.9680  146.3200 C   0  0  0  0  0  3  0  0  0  0  0  0
  186.1210  178.3760  146.4010 C   0  0  0  0  0  0  0  0  0  0  0  0
  184.1600  179.0030  145.0930 C   0  0  0  0  0  3  0  0  0  0  0  0
  184.0620  174.9580  136.8040 C   0  0  0  0  0  1  0  0  0  0  0  0
  183.5000  176.3490  136.5620 C   0  0  0  0  0  2  0  0  0  0  0  0
  2 22  1  0  0  0  0
  3  7  2  0  0  0  0
  3 20  1  0  0  0  0
  4 37  1  6  0  0  0
  4  1  1  0  0  0  0
  5 10  1  0  0  0  0
  6  9  2  0  0  0  0
  6 11  1  0  0  0  0
  7 10  1  0  0  0  0
  8 26  2  0  0  0  0
  9  3  1  0  0  0  0
 10 23  2  0  0  0  0
 11 16  2  0  0  0  0
 12  4  1  0  0  0  0
 12 18  1  0  0  0  0
 13  9  1  0  0  0  0
 13 21  2  0  0  0  0
 14 17  1  0  0  0  0
 15 28  2  0  0  0  0
 17 13  1  0  0  0  0
 18  8  2  0  0  0  0
 18 25  1  0  0  0  0
 19  5  1  0  0  0  0
 20 16  1  6  0  0  0
 20 15  1  0  0  0  0
 21  7  1  0  0  0  0
 22  6  1  0  0  0  0
 23 28  1  0  0  0  0
 23 30  1  0  0  0  0
 24 14  1  0  0  0  0
 24  2  1  0  0  0  0
 25 19  1  1  0  0  0
 27 21  1  0  0  0  0
 27  1  1  1  0  0  0
 27 25  1  0  0  0  0
 29 30  2  0  0  0  0
 29 35  1  0  0  0  0
 30 31  1  0  0  0  0
 31 34  2  0  0  0  0
 33 34  1  0  0  0  0
 34 32  1  0  0  0  0
 35 33  2  0  0  0  0
 37 36  1  0  0  0  0
M  END
>  <MODEL>
3

>  <REMARK>
 VINA RESULT:      -7.1      3.535      7.904
  Name = 
  2 active torsions:
  status: ('A' for Active; 'I' for Inactive)
    1  A    between atoms: C_5  and  C_23
    2  A    between atoms: C_6  and  C_31
                            x       y       z     vdW  Elec       q    Type
                         _______ _______ _______ _____ _____    ______ ____

>  <TORSDO>
F 2

$$$$
=
 OpenBabel10262422463D

 37 43  0  0  1  0  0  0  0  0999 V2000
  182.3160  179.4780  137.5960 C   0  0  0  0  0  2  0  0  0  0  0  0
  180.1790  180.5050  142.8730 C   0  0  0  0  0  2  0  0  0  0  0  0
  183.7140  178.3720  141.8220 C   0  0  0  0  0  0  0  0  0  0  0  0
  181.1820  179.4080  136.5710 C   0  0  1  0  0  3  0  0  0  0  0  0
  184.8260  177.5380  138.3260 C   0  0  0  0  0  2  0  0  0  0  0  0
  181.9820  178.7890  143.5030 C   0  0  0  0  0  0  0  0  0  0  0  0
  183.7850  178.5640  140.5090 C   0  0  0  0  0  0  0  0  0  0  0  0
  181.8910  175.7600  135.9790 C   0  0  0  0  0  0  0  0  0  0  0  0
  182.3330  178.5080  142.2470 C   0  0  0  0  0  0  0  0  0  0  0  0
  184.9790  178.2300  139.6750 C   0  0  0  0  0  0  0  0  0  0  0  0
  183.0750  178.8070  144.5110 C   0  0  0  0  0  3  0  0  0  0  0  0
  180.8270  177.9350  136.1570 C   0  0  0  0  0  2  0  0  0  0  0  0
  181.5310  178.5050  141.0290 C   0  0  0  0  0  0  0  0  0  0  0  0
  179.1880  179.3210  140.7890 C   0  0  0  0  0  2  0  0  0  0  0  0
  185.9050  179.2720  142.4750 C   0  0  0  0  0  3  0  0  0  0  0  0
  184.3710  178.5380  144.2160 C   0  0  0  0  0  3  0  0  0  0  0  0
  180.1130  178.0680  140.9400 C   0  0  0  0  0  2  0  0  0  0  0  0
  181.8630  176.9030  136.6030 C   0  0  0  0  0  0  0  0  0  0  0  0
  183.7330  176.4700  138.3610 C   0  0  0  0  0  2  0  0  0  0  0  0
  184.8460  178.2450  142.8000 C   0  0  1  0  0  3  0  0  0  0  0  0
  182.3900  178.6050  140.0300 C   0  0  0  0  0  0  0  0  0  0  0  0
  180.6570  179.4160  143.8740 C   0  0  0  0  0  2  0  0  0  0  0  0
  186.2440  178.5770  140.0830 C   0  0  0  0  0  0  0  0  0  0  0  0
  178.9310  180.0140  142.1400 C   0  0  0  0  0  2  0  0  0  0  0  0
  182.3280  176.9850  138.0510 C   0  0  1  0  0  3  0  0  0  0  0  0
  181.9420  174.6600  135.3620 O   0  0  0  0  0  0  0  0  0  0  0  0
  181.9880  178.3960  138.6160 C   0  0  2  0  0  3  0  0  0  0  0  0
  186.5020  179.3710  141.2880 C   0  0  0  0  0  3  0  0  0  0  0  0
  188.5130  177.6130  140.0550 C   0  0  0  0  0  3  0  0  0  0  0  0
  187.4490  178.2020  139.3360 C   0  0  0  0  0  0  0  0  0  0  0  0
  187.6440  178.6190  138.0080 C   0  0  0  0  0  3  0  0  0  0  0  0
  189.0790  178.9180  136.1430 F   0  0  0  0  0  0  0  0  0  0  0  0
  189.9590  177.8890  138.1370 C   0  0  0  0  0  3  0  0  0  0  0  0
  188.8880  178.4660  137.4080 C   0  0  0  0  0  0  0  0  0  0  0  0
  189.7570  177.4730  139.4590 C   0  0  0  0  0  3  0  0  0  0  0  0
  180.2150  181.4500  137.6520 C   0  0  0  0  0  1  0  0  0  0  0  0
  179.9160  180.0240  137.2190 C   0  0  0  0  0  2  0  0  0  0  0  0
  2 22  1  0  0  0  0
  3  9  1  0  0  0  0
  3 20  1  0  0  0  0
  4 37  1  1  0  0  0
  4  1  1  0  0  0  0
  5 19  1  0  0  0  0
  5 10  1  0  0  0  0
  6 22  1  0  0  0  0
  6 11  1  0  0  0  0
  7  3  2  0  0  0  0
  8 18  2  0  0  0  0
  9  6  2  0  0  0  0
 10 23  2  0  0  0  0
 10  7  1  0  0  0  0
 12  4  1  0  0  0  0
 12 18  1  0  0  0  0
 13  9  1  0  0  0  0
 14 17  1  0  0  0  0
 14 24  1  0  0  0  0
 16 11  2  0  0  0  0
 17 13  1  0  0  0  0
 18 25  1  0  0  0  0
 20 15  1  6  0  0  0
 20 16  1  0  0  0  0
 21  7  1  0  0  0  0
 21 13  2  0  0  0  0
 23 28  1  0  0  0  0
 24  2  1  0  0  0  0
 25 19  1  6  0  0  0
 25 27  1  0  0  0  0
 26  8  2  0  0  0  0
 27  1  1  6  0  0  0
 27 21  1  0  0  0  0
 28 15  2  0  0  0  0
 30 29  2  0  0  0  0
 30 23  1  0  0  0  0
 31 30  1  0  0  0  0
 32 34  1  0  0  0  0
 33 35  2  0  0  0  0
 34 31  2  0  0  0  0
 34 33  1  0  0  0  0
 35 29  1  0  0  0  0
 37 36  1  0  0  0  0
M  END
>  <MODEL>
4

>  <REMARK>
 VINA RESULT:      -7.1      3.819      7.665
  Name = 
  2 active torsions:
  status: ('A' for Active; 'I' for Inactive)
    1  A    between atoms: C_5  and  C_23
    2  A    between atoms: C_6  and  C_31
                            x       y       z     vdW  Elec       q    Type
                         _______ _______ _______ _____ _____    ______ ____

>  <TORSDO>
F 2

$$$$
=
 OpenBabel10262422463D

 37 43  0  0  1  0  0  0  0  0999 V2000
  182.4780  176.4280  140.5940 C   0  0  0  0  0  2  0  0  0  0  0  0
  186.2370  176.4950  136.1970 C   0  0  0  0  0  2  0  0  0  0  0  0
  186.6150  178.3260  140.0250 C   0  0  0  0  0  0  0  0  0  0  0  0
  181.0470  176.3100  140.0640 C   0  0  1  0  0  3  0  0  0  0  0  0
  183.9570  178.4370  142.6850 C   0  0  0  0  0  2  0  0  0  0  0  0
  187.3370  178.2750  137.6850 C   0  0  0  0  0  0  0  0  0  0  0  0
  185.5400  177.8780  140.6650 C   0  0  1  0  0  3  0  0  0  0  0  0
  180.2510  179.7590  141.3420 C   0  0  0  0  0  0  0  0  0  0  0  0
  186.3630  178.2970  138.5960 C   0  0  0  0  0  0  0  0  0  0  0  0
  185.3160  178.0230  142.1340 C   0  0  0  0  0  0  0  0  0  0  0  0
  188.7260  178.4410  138.1920 C   0  0  0  0  0  3  0  0  0  0  0  0
  180.2750  177.6780  140.0930 C   0  0  0  0  0  2  0  0  0  0  0  0
  184.9310  178.0710  138.4400 C   0  0  0  0  0  0  0  0  0  0  0  0
  183.7670  177.2580  136.3920 C   0  0  0  0  0  2  0  0  0  0  0  0
  188.3550  177.5420  141.5720 C   0  0  0  0  0  3  0  0  0  0  0  0
  189.0290  178.6270  139.5000 C   0  0  0  0  0  3  0  0  0  0  0  0
  184.1190  178.5020  137.2730 C   0  0  0  0  0  2  0  0  0  0  0  0
  180.9720  178.7630  140.9140 C   0  0  0  0  0  0  0  0  0  0  0  0
  183.2980  179.5070  141.8140 C   0  0  0  0  0  2  0  0  0  0  0  0
  187.9710  178.6280  140.5950 C   0  0  0  0  0  0  0  0  0  0  0  0
  184.4810  177.7630  139.6440 C   0  0  0  0  0  0  0  0  0  0  0  0
  187.1470  177.7530  136.2790 C   0  0  0  0  0  2  0  0  0  0  0  0
  186.3190  177.7450  143.0320 C   0  0  0  0  0  0  0  0  0  0  0  0
  184.9370  176.8490  135.4770 C   0  0  0  0  0  2  0  0  0  0  0  0
  182.4600  178.9620  140.6590 C   0  0  1  0  0  3  0  0  0  0  0  0
  179.5540  180.7150  141.7830 O   0  0  0  0  0  0  0  0  0  0  0  0
  183.0290  177.6950  139.9530 C   0  0  2  0  0  3  0  0  0  0  0  0
  187.6190  177.2010  142.6290 C   0  0  0  0  0  3  0  0  0  0  0  0
  185.3020  178.9750  144.9100 C   0  0  0  0  0  3  0  0  0  0  0  0
  186.1690  177.9480  144.4760 C   0  0  0  0  0  0  0  0  0  0  0  0
  187.0230  177.3150  145.3950 C   0  0  0  0  0  3  0  0  0  0  0  0
  187.8890  177.1270  147.5960 F   0  0  0  0  0  0  0  0  0  0  0  0
  186.1650  178.7520  147.1580 C   0  0  0  0  0  3  0  0  0  0  0  0
  187.0250  177.7100  146.7280 C   0  0  0  0  0  0  0  0  0  0  0  0
  185.3140  179.3780  146.2370 C   0  0  0  0  0  3  0  0  0  0  0  0
  180.2540  176.7600  137.7320 C   0  0  0  0  0  1  0  0  0  0  0  0
  181.1240  175.8530  138.5850 C   0  0  0  0  0  2  0  0  0  0  0  0
  2 22  1  0  0  0  0
  3 20  1  0  0  0  0
  3  7  1  0  0  0  0
  4 37  1  6  0  0  0
  4 12  1  0  0  0  0
  4  1  1  0  0  0  0
  6 11  2  0  0  0  0
  6  9  1  0  0  0  0
  7 21  1  6  0  0  0
  7 10  1  0  0  0  0
  8 26  2  0  0  0  0
  9  3  2  0  0  0  0
 10  5  1  0  0  0  0
 10 23  2  0  0  0  0
 11 16  1  0  0  0  0
 12 18  1  0  0  0  0
 13  9  1  0  0  0  0
 13 21  2  0  0  0  0
 14 17  1  0  0  0  0
 15 28  2  0  0  0  0
 16 20  2  0  0  0  0
 17 13  1  0  0  0  0
 18  8  2  0  0  0  0
 19  5  1  0  0  0  0
 20 15  1  0  0  0  0
 21 27  1  0  0  0  0
 22  6  1  0  0  0  0
 23 30  1  0  0  0  0
 24  2  1  0  0  0  0
 24 14  1  0  0  0  0
 25 18  1  0  0  0  0
 25 19  1  1  0  0  0
 27  1  1  1  0  0  0
 27 25  1  0  0  0  0
 28 23  1  0  0  0  0
 29 35  1  0  0  0  0
 30 29  2  0  0  0  0
 30 31  1  0  0  0  0
 31 34  2  0  0  0  0
 34 33  1  0  0  0  0
 34 32  1  0  0  0  0
 35 33  2  0  0  0  0
 36 37  1  0  0  0  0
M  END
>  <MODEL>
5

>  <REMARK>
 VINA RESULT:      -7.0      4.041      7.842
  Name = 
  2 active torsions:
  status: ('A' for Active; 'I' for Inactive)
    1  A    between atoms: C_5  and  C_23
    2  A    between atoms: C_6  and  C_31
                            x       y       z     vdW  Elec       q    Type
                         _______ _______ _______ _____ _____    ______ ____

>  <TORSDO>
F 2

$$$$
=
 OpenBabel10262422463D

 37 43  0  0  1  0  0  0  0  0999 V2000
  183.7570  180.0250  138.7630 C   0  0  0  0  0  2  0  0  0  0  0  0
  184.1740  179.9560  144.5320 C   0  0  0  0  0  2  0  0  0  0  0  0
  186.5440  177.8510  141.6860 C   0  0  0  0  0  0  0  0  0  0  0  0
  182.3100  180.2890  138.3400 C   0  0  1  0  0  3  0  0  0  0  0  0
  185.9690  177.7720  137.9690 C   0  0  0  0  0  2  0  0  0  0  0  0
  185.7490  178.0000  143.9980 C   0  0  0  0  0  0  0  0  0  0  0  0
  186.1050  178.3390  140.5300 C   0  0  0  0  0  0  0  0  0  0  0  0
  182.0720  176.8360  136.8630 C   0  0  0  0  0  0  0  0  0  0  0  0
  185.5030  177.9940  142.6880 C   0  0  0  0  0  0  0  0  0  0  0  0
  186.7760  178.1140  139.2150 C   0  0  0  0  0  0  0  0  0  0  0  0
  187.1440  177.6940  144.4150 C   0  0  0  0  0  3  0  0  0  0  0  0
  181.5680  178.9870  137.8690 C   0  0  0  0  0  2  0  0  0  0  0  0
  184.2860  178.3420  141.9620 C   0  0  0  0  0  0  0  0  0  0  0  0
  182.2300  179.3770  142.9160 C   0  0  0  0  0  2  0  0  0  0  0  0
  188.9300  178.3930  141.4660 C   0  0  0  0  0  3  0  0  0  0  0  0
  188.1390  177.3980  143.5420 C   0  0  0  0  0  3  0  0  0  0  0  0
  182.9040  178.0530  142.4240 C   0  0  0  0  0  2  0  0  0  0  0  0
  182.5000  177.7990  137.6280 C   0  0  0  0  0  0  0  0  0  0  0  0
  184.8190  176.8170  138.2870 C   0  0  0  0  0  2  0  0  0  0  0  0
  187.9360  177.4070  142.0330 C   0  0  1  0  0  3  0  0  0  0  0  0
  184.6670  178.6030  140.7240 C   0  0  0  0  0  0  0  0  0  0  0  0
  184.8220  178.6280  145.0140 C   0  0  0  0  0  2  0  0  0  0  0  0
  188.1380  178.2530  139.0850 C   0  0  0  0  0  0  0  0  0  0  0  0
  182.6710  179.7530  144.3430 C   0  0  0  0  0  2  0  0  0  0  0  0
  183.5220  177.5020  138.7170 C   0  0  1  0  0  3  0  0  0  0  0  0
  181.6760  175.9110  136.1010 O   0  0  0  0  0  0  0  0  0  0  0  0
  183.6920  178.7640  139.6140 C   0  0  2  0  0  3  0  0  0  0  0  0
  188.9980  178.7190  140.1760 C   0  0  0  0  0  3  0  0  0  0  0  0
  188.4190  178.6360  136.6660 C   0  0  0  0  0  3  0  0  0  0  0  0
  188.8470  177.9670  137.8340 C   0  0  0  0  0  0  0  0  0  0  0  0
  189.7590  176.9020  137.7390 C   0  0  0  0  0  3  0  0  0  0  0  0
  191.0680  175.4360  136.4100 F   0  0  0  0  0  0  0  0  0  0  0  0
  189.7830  177.1600  135.3230 C   0  0  0  0  0  3  0  0  0  0  0  0
  190.2270  176.4970  136.4950 C   0  0  0  0  0  0  0  0  0  0  0  0
  188.8760  178.2230  135.4240 C   0  0  0  0  0  3  0  0  0  0  0  0
  180.2560  180.0550  139.7540 C   0  0  0  0  0  1  0  0  0  0  0  0
  181.5470  180.8360  139.5740 C   0  0  0  0  0  2  0  0  0  0  0  0
  2 22  1  0  0  0  0
  3 20  1  0  0  0  0
  3  9  1  0  0  0  0
  4  1  1  0  0  0  0
  4 37  1  1  0  0  0
  5 19  1  0  0  0  0
  5 10  1  0  0  0  0
  6 11  1  0  0  0  0
  6 22  1  0  0  0  0
  7 21  1  0  0  0  0
  7  3  2  0  0  0  0
  8 18  2  0  0  0  0
  9  6  2  0  0  0  0
 10  7  1  0  0  0  0
 12  4  1  0  0  0  0
 13 17  1  0  0  0  0
 13  9  1  0  0  0  0
 14 24  1  0  0  0  0
 16 11  2  0  0  0  0
 17 14  1  0  0  0  0
 18 12  1  0  0  0  0
 18 25  1  0  0  0  0
 20 15  1  6  0  0  0
 20 16  1  0  0  0  0
 21 13  2  0  0  0  0
 23 10  2  0  0  0  0
 23 28  1  0  0  0  0
 24  2  1  0  0  0  0
 25 19  1  6  0  0  0
 25 27  1  0  0  0  0
 26  8  2  0  0  0  0
 27  1  1  6  0  0  0
 27 21  1  0  0  0  0
 28 15  2  0  0  0  0
 29 30  1  0  0  0  0
 30 23  1  0  0  0  0
 31 30  2  0  0  0  0
 32 34  1  0  0  0  0
 33 35  1  0  0  0  0
 33 34  2  0  0  0  0
 34 31  1  0  0  0  0
 35 29  2  0  0  0  0
 37 36  1  0  0  0  0
M  END
>  <MODEL>
6

>  <REMARK>
 VINA RESULT:      -6.8      3.036      6.380
  Name = 
  2 active torsions:
  status: ('A' for Active; 'I' for Inactive)
    1  A    between atoms: C_5  and  C_23
    2  A    between atoms: C_6  and  C_31
                            x       y       z     vdW  Elec       q    Type
                         _______ _______ _______ _____ _____    ______ ____

>  <TORSDO>
F 2

$$$$
=
 OpenBabel10262422463D

 37 43  0  0  1  0  0  0  0  0999 V2000
  185.3000  178.6600  137.6230 C   0  0  0  0  0  2  0  0  0  0  0  0
  183.0350  173.8900  135.2610 C   0  0  0  0  0  2  0  0  0  0  0  0
  180.9950  177.2230  136.9570 C   0  0  0  0  0  0  0  0  0  0  0  0
  186.6660  178.3490  138.2390 C   0  0  1  0  0  3  0  0  0  0  0  0
  182.6100  180.1300  138.7190 C   0  0  0  0  0  2  0  0  0  0  0  0
  180.9030  174.8630  136.3100 C   0  0  0  0  0  0  0  0  0  0  0  0
  181.9890  178.0670  137.2140 C   0  0  1  0  0  3  0  0  0  0  0  0
  185.3150  179.0420  141.6810 C   0  0  0  0  0  0  0  0  0  0  0  0
  181.5170  175.8690  136.9330 C   0  0  0  0  0  0  0  0  0  0  0  0
  181.7980  179.4990  137.5930 C   0  0  0  0  0  0  0  0  0  0  0  0
  179.5530  175.1490  135.7550 C   0  0  0  0  0  3  0  0  0  0  0  0
  186.6110  178.2160  139.8030 C   0  0  0  0  0  2  0  0  0  0  0  0
  182.8620  175.9420  137.4930 C   0  0  0  0  0  0  0  0  0  0  0  0
  184.6730  174.2480  137.2400 C   0  0  0  0  0  2  0  0  0  0  0  0
  179.6190  178.6570  135.5140 C   0  0  0  0  0  3  0  0  0  0  0  0
  178.9330  176.3490  135.8720 C   0  0  0  0  0  3  0  0  0  0  0  0
  183.5640  174.8270  138.1800 C   0  0  0  0  0  2  0  0  0  0  0  0
  185.3070  178.7220  140.4190 C   0  0  0  0  0  0  0  0  0  0  0  0
  182.7970  179.1630  139.8880 C   0  0  0  0  0  2  0  0  0  0  0  0
  179.5900  177.5490  136.5400 C   0  0  0  0  0  0  0  0  0  0  0  0
  183.1450  177.2300  137.5880 C   0  0  0  0  0  0  0  0  0  0  0  0
  181.6190  173.6160  135.8410 C   0  0  0  0  0  2  0  0  0  0  0  0
  180.9140  180.2980  136.9080 C   0  0  0  0  0  0  0  0  0  0  0  0
  184.0920  173.2870  136.1850 C   0  0  0  0  0  2  0  0  0  0  0  0
  184.0150  178.2480  139.7680 C   0  0  1  0  0  3  0  0  0  0  0  0
  185.3210  179.3790  142.8980 O   0  0  0  0  0  0  0  0  0  0  0  0
  184.3290  177.7270  138.3340 C   0  0  2  0  0  3  0  0  0  0  0  0
  180.1870  179.8440  135.7190 C   0  0  0  0  0  3  0  0  0  0  0  0
  179.6250  181.9130  138.2540 C   0  0  0  0  0  3  0  0  0  0  0  0
  180.6370  181.6860  137.2940 C   0  0  0  0  0  0  0  0  0  0  0  0
  181.1800  182.7660  136.5780 C   0  0  0  0  0  3  0  0  0  0  0  0
  181.2070  185.0820  136.0680 F   0  0  0  0  0  0  0  0  0  0  0  0
  179.6850  184.2780  137.7540 C   0  0  0  0  0  3  0  0  0  0  0  0
  180.7110  184.0540  136.8020 C   0  0  0  0  0  0  0  0  0  0  0  0
  179.1490  183.1970  138.4670 C   0  0  0  0  0  3  0  0  0  0  0  0
  187.0990  177.0260  136.1560 C   0  0  0  0  0  1  0  0  0  0  0  0
  187.1410  176.9850  137.6750 C   0  0  0  0  0  2  0  0  0  0  0  0
  1  4  1  0  0  0  0
  2 22  1  0  0  0  0
  2 24  1  0  0  0  0
  4 37  1  6  0  0  0
  4 12  1  0  0  0  0
  5 19  1  0  0  0  0
  6  9  1  0  0  0  0
  7  3  1  1  0  0  0
  7 21  1  0  0  0  0
  7 10  1  0  0  0  0
  8 26  2  0  0  0  0
  9  3  2  0  0  0  0
  9 13  1  0  0  0  0
 10  5  1  0  0  0  0
 11 16  1  0  0  0  0
 11  6  2  0  0  0  0
 12 18  1  0  0  0  0
 13 21  2  0  0  0  0
 13 17  1  0  0  0  0
 14 17  1  0  0  0  0
 15 28  2  0  0  0  0
 15 20  1  0  0  0  0
 16 20  2  0  0  0  0
 18  8  2  0  0  0  0
 20  3  1  0  0  0  0
 21 27  1  0  0  0  0
 22  6  1  0  0  0  0
 23 30  1  0  0  0  0
 23 10  2  0  0  0  0
 24 14  1  0  0  0  0
 25 19  1  6  0  0  0
 25 18  1  0  0  0  0
 27  1  1  6  0  0  0
 27 25  1  0  0  0  0
 28 23  1  0  0  0  0
 29 35  1  0  0  0  0
 30 29  2  0  0  0  0
 31 34  2  0  0  0  0
 31 30  1  0  0  0  0
 32 34  1  0  0  0  0
 33 35  2  0  0  0  0
 34 33  1  0  0  0  0
 36 37  1  0  0  0  0
M  END
>  <MODEL>
7

>  <REMARK>
 VINA RESULT:      -6.3      5.207      9.359
  Name = 
  2 active torsions:
  status: ('A' for Active; 'I' for Inactive)
    1  A    between atoms: C_5  and  C_23
    2  A    between atoms: C_6  and  C_31
                            x       y       z     vdW  Elec       q    Type
                         _______ _______ _______ _____ _____    ______ ____

>  <TORSDO>
F 2

$$$$
=
 OpenBabel10262422463D

 37 43  0  0  1  0  0  0  0  0999 V2000
  185.1920  176.9460  135.4090 C   0  0  0  0  0  2  0  0  0  0  0  0
  182.4720  171.8460  135.6430 C   0  0  0  0  0  2  0  0  0  0  0  0
  181.4970  175.4570  137.6830 C   0  0  0  0  0  0  0  0  0  0  0  0
  186.6810  176.7390  135.1240 C   0  0  1  0  0  3  0  0  0  0  0  0
  183.5320  178.6220  137.6530 C   0  0  0  0  0  2  0  0  0  0  0  0
  181.2830  173.0190  137.5940 C   0  0  0  0  0  0  0  0  0  0  0  0
  182.3590  176.3240  137.1600 C   0  0  0  0  0  0  0  0  0  0  0  0
  187.5580  178.0710  138.5320 C   0  0  0  0  0  0  0  0  0  0  0  0
  182.0390  174.1160  137.5610 C   0  0  0  0  0  0  0  0  0  0  0  0
  182.2820  177.8030  137.3520 C   0  0  0  0  0  0  0  0  0  0  0  0
  179.8450  173.2120  137.9210 C   0  0  0  0  0  3  0  0  0  0  0  0
  187.5730  176.8990  136.4070 C   0  0  0  0  0  2  0  0  0  0  0  0
  183.4400  174.2770  137.1850 C   0  0  0  0  0  0  0  0  0  0  0  0
  184.9140  172.5470  136.1640 C   0  0  0  0  0  2  0  0  0  0  0  0
  179.3970  176.6140  137.1500 C   0  0  0  0  0  3  0  0  0  0  0  0
  179.2950  174.4200  138.1990 C   0  0  0  0  0  3  0  0  0  0  0  0
  184.5210  173.3010  137.4770 C   0  0  0  0  0  2  0  0  0  0  0  0
  186.8400  177.5240  137.5940 C   0  0  0  0  0  0  0  0  0  0  0  0
  184.4710  177.8860  138.6090 C   0  0  0  0  0  2  0  0  0  0  0  0
  180.0920  175.7150  138.1450 C   0  0  1  0  0  3  0  0  0  0  0  0
  183.5900  175.5570  136.8920 C   0  0  0  0  0  0  0  0  0  0  0  0
  181.7070  171.7000  136.9890 C   0  0  0  0  0  2  0  0  0  0  0  0
  181.0890  178.4710  137.2180 C   0  0  0  0  0  0  0  0  0  0  0  0
  183.9250  171.4130  135.8310 C   0  0  0  0  0  2  0  0  0  0  0  0
  185.4690  176.9510  137.9280 C   0  0  1  0  0  3  0  0  0  0  0  0
  188.2450  178.6280  139.4330 O   0  0  0  0  0  0  0  0  0  0  0  0
  184.9280  176.1710  136.6930 C   0  0  2  0  0  3  0  0  0  0  0  0
  179.8520  177.8130  136.7880 C   0  0  0  0  0  3  0  0  0  0  0  0
  180.7360  180.3240  138.8060 C   0  0  0  0  0  3  0  0  0  0  0  0
  180.9530  179.9090  137.4730 C   0  0  0  0  0  0  0  0  0  0  0  0
  180.8050  180.8270  136.4190 C   0  0  0  0  0  3  0  0  0  0  0  0
  180.2430  183.0020  135.6590 F   0  0  0  0  0  0  0  0  0  0  0  0
  180.1990  182.5480  138.0250 C   0  0  0  0  0  3  0  0  0  0  0  0
  180.4320  182.1380  136.6870 C   0  0  0  0  0  0  0  0  0  0  0  0
  180.3500  181.6290  139.0710 C   0  0  0  0  0  3  0  0  0  0  0  0
  187.9930  174.6210  135.3790 C   0  0  0  0  0  1  0  0  0  0  0  0
  186.8680  175.2900  134.6070 C   0  0  0  0  0  2  0  0  0  0  0  0
  2 24  1  0  0  0  0
  2 22  1  0  0  0  0
  3 20  1  0  0  0  0
  4 37  1  1  0  0  0
  4  1  1  0  0  0  0
  4 12  1  0  0  0  0
  5 19  1  0  0  0  0
  6 11  1  0  0  0  0
  7 10  1  0  0  0  0
  7  3  2  0  0  0  0
  8 26  2  0  0  0  0
  9  6  2  0  0  0  0
  9  3  1  0  0  0  0
 10  5  1  0  0  0  0
 11 16  2  0  0  0  0
 12 18  1  0  0  0  0
 13 17  1  0  0  0  0
 13  9  1  0  0  0  0
 14 17  1  0  0  0  0
 18 25  1  0  0  0  0
 18  8  2  0  0  0  0
 20 15  1  6  0  0  0
 20 16  1  0  0  0  0
 21  7  1  0  0  0  0
 21 13  2  0  0  0  0
 22  6  1  0  0  0  0
 23 10  2  0  0  0  0
 23 30  1  0  0  0  0
 24 14  1  0  0  0  0
 25 19  1  6  0  0  0
 27  1  1  6  0  0  0
 27 21  1  0  0  0  0
 27 25  1  0  0  0  0
 28 15  2  0  0  0  0
 28 23  1  0  0  0  0
 29 35  1  0  0  0  0
 30 29  2  0  0  0  0
 31 34  2  0  0  0  0
 31 30  1  0  0  0  0
 32 34  1  0  0  0  0
 33 35  2  0  0  0  0
 34 33  1  0  0  0  0
 37 36  1  0  0  0  0
M  END
>  <MODEL>
8

>  <REMARK>
 VINA RESULT:      -6.2      5.121      9.428
  Name = 
  2 active torsions:
  status: ('A' for Active; 'I' for Inactive)
    1  A    between atoms: C_5  and  C_23
    2  A    between atoms: C_6  and  C_31
                            x       y       z     vdW  Elec       q    Type
                         _______ _______ _______ _____ _____    ______ ____

>  <TORSDO>
F 2

$$$$
=
 OpenBabel10262422463D

 37 43  0  0  1  0  0  0  0  0999 V2000
  181.7070  176.8980  138.9670 C   0  0  0  0  0  2  0  0  0  0  0  0
  180.4400  171.4950  137.3350 C   0  0  0  0  0  2  0  0  0  0  0  0
  183.6540  173.9660  136.0260 C   0  0  0  0  0  0  0  0  0  0  0  0
  180.4320  177.6430  139.3660 C   0  0  1  0  0  3  0  0  0  0  0  0
  184.1850  177.5700  136.9660 C   0  0  0  0  0  2  0  0  0  0  0  0
  182.2170  172.0380  135.5630 C   0  0  0  0  0  0  0  0  0  0  0  0
  183.5400  175.0280  136.8170 C   0  0  1  0  0  3  0  0  0  0  0  0
  180.8390  179.9810  136.4470 C   0  0  0  0  0  0  0  0  0  0  0  0
  182.3610  173.3150  135.9160 C   0  0  0  0  0  0  0  0  0  0  0  0
  184.5750  176.0970  136.9420 C   0  0  0  0  0  0  0  0  0  0  0  0
  183.4470  171.3250  135.1260 C   0  0  0  0  0  3  0  0  0  0  0  0
  179.9370  178.6390  138.2560 C   0  0  0  0  0  2  0  0  0  0  0  0
  181.3880  174.2490  136.4730 C   0  0  0  0  0  0  0  0  0  0  0  0
  179.0850  173.7050  137.2550 C   0  0  0  0  0  2  0  0  0  0  0  0
  185.9650  173.3220  136.5570 C   0  0  0  0  0  3  0  0  0  0  0  0
  184.6680  171.9110  135.0560 C   0  0  0  0  0  3  0  0  0  0  0  0
  179.9510  174.3080  136.0990 C   0  0  0  0  0  2  0  0  0  0  0  0
  180.9680  178.8990  137.1580 C   0  0  0  0  0  0  0  0  0  0  0  0
  183.0520  177.8690  135.9850 C   0  0  0  0  0  2  0  0  0  0  0  0
  184.9100  173.3540  135.4760 C   0  0  0  0  0  0  0  0  0  0  0  0
  182.0940  175.2050  137.0500 C   0  0  0  0  0  0  0  0  0  0  0  0
  180.9990  171.2120  135.9120 C   0  0  0  0  0  2  0  0  0  0  0  0
  185.9050  175.7790  137.0820 C   0  0  0  0  0  0  0  0  0  0  0  0
  179.0710  172.1650  137.2220 C   0  0  0  0  0  2  0  0  0  0  0  0
  181.6480  177.6760  136.5560 C   0  0  1  0  0  3  0  0  0  0  0  0
  180.7370  181.0420  135.7700 O   0  0  0  0  0  0  0  0  0  0  0  0
  181.4740  176.4680  137.5250 C   0  0  2  0  0  3  0  0  0  0  0  0
  186.3830  174.4000  137.2180 C   0  0  0  0  0  3  0  0  0  0  0  0
  187.7110  177.0210  135.9530 C   0  0  0  0  0  3  0  0  0  0  0  0
  186.9620  176.7940  137.1290 C   0  0  0  0  0  0  0  0  0  0  0  0
  187.3820  177.3550  138.3480 C   0  0  0  0  0  3  0  0  0  0  0  0
  188.9630  178.6150  139.5880 F   0  0  0  0  0  0  0  0  0  0  0  0
  189.2980  178.3340  137.2180 C   0  0  0  0  0  3  0  0  0  0  0  0
  188.5400  178.1210  138.3970 C   0  0  0  0  0  0  0  0  0  0  0  0
  188.8740  177.7740  136.0060 C   0  0  0  0  0  3  0  0  0  0  0  0
  179.7780  175.5560  140.5880 C   0  0  0  0  0  1  0  0  0  0  0  0
  179.3130  176.5910  139.5760 C   0  0  0  0  0  2  0  0  0  0  0  0
  1  4  1  0  0  0  0
  4 37  1  6  0  0  0
  6 22  1  0  0  0  0
  6  9  1  0  0  0  0
  7  3  1  6  0  0  0
  7 10  1  0  0  0  0
  7 21  1  0  0  0  0
  8 18  2  0  0  0  0
  9  3  2  0  0  0  0
  9 13  1  0  0  0  0
 10  5  1  0  0  0  0
 10 23  2  0  0  0  0
 11  6  2  0  0  0  0
 12  4  1  0  0  0  0
 13 21  2  0  0  0  0
 15 28  2  0  0  0  0
 16 11  1  0  0  0  0
 16 20  2  0  0  0  0
 17 13  1  0  0  0  0
 17 14  1  0  0  0  0
 18 12  1  0  0  0  0
 19  5  1  0  0  0  0
 20  3  1  0  0  0  0
 20 15  1  0  0  0  0
 21 27  1  0  0  0  0
 22  2  1  0  0  0  0
 23 30  1  0  0  0  0
 23 28  1  0  0  0  0
 24 14  1  0  0  0  0
 24  2  1  0  0  0  0
 25 19  1  1  0  0  0
 25 18  1  0  0  0  0
 25 27  1  0  0  0  0
 26  8  2  0  0  0  0
 27  1  1  1  0  0  0
 29 35  2  0  0  0  0
 29 30  1  0  0  0  0
 30 31  2  0  0  0  0
 31 34  1  0  0  0  0
 33 34  2  0  0  0  0
 34 32  1  0  0  0  0
 35 33  1  0  0  0  0
 37 36  1  0  0  0  0
M  END
>  <MODEL>
9

>  <REMARK>
 VINA RESULT:      -5.9      5.268      8.095
  Name = 
  2 active torsions:
  status: ('A' for Active; 'I' for Inactive)
    1  A    between atoms: C_5  and  C_23
    2  A    between atoms: C_6  and  C_31
                            x       y       z     vdW  Elec       q    Type
                         _______ _______ _______ _____ _____    ______ ____

>  <TORSDO>
F 2

$$$$
