=
 OpenBabel10262423353D

 34 39  0  0  1  0  0  0  0  0999 V2000
  189.8960  176.4190  144.0820 C   0  0  1  0  0  3  0  0  0  0  0  0
  187.1680  177.6620  146.3110 C   0  0  0  0  0  3  0  0  0  0  0  0
  184.7670  179.5990  144.4020 C   0  0  0  0  0  2  0  0  0  0  0  0
  189.5130  177.3280  146.7340 C   0  0  0  0  0  3  0  0  0  0  0  0
  190.7640  176.5510  141.6240 C   0  0  2  0  0  3  0  0  0  0  0  0
  190.1370  175.7100  142.7400 C   0  0  0  0  0  2  0  0  0  0  0  0
  191.6240  178.2570  144.4040 N   0  0  0  0  0  2  0  0  0  0  0  0
  191.4000  178.5570  142.9890 C   0  0  0  0  0  2  0  0  0  0  0  0
  184.5150  178.0480  146.6200 S   0  0  0  0  0  0  0  0  0  0  0  0
  191.9140  177.4480  142.0830 C   0  0  0  0  0  2  0  0  0  0  0  0
  190.7650  177.0710  146.3240 C   0  0  0  0  0  0  0  0  0  0  0  0
  191.1150  176.9510  144.8600 C   0  0  1  0  0  3  0  0  0  0  0  0
  191.7760  176.9630  147.2690 O   0  0  0  0  0  1  0  0  0  0  0  0
  185.9030  177.6450  145.5200 C   0  0  1  0  0  3  0  0  0  0  0  0
  183.7040  179.0300  145.3210 C   0  0  0  0  0  2  0  0  0  0  0  0
  185.9130  178.6610  144.4340 C   0  0  0  0  0  0  0  0  0  0  0  0
  186.8010  178.6610  143.4410 C   0  0  0  0  0  3  0  0  0  0  0  0
  188.3760  177.4350  145.7950 C   0  0  0  0  0  0  0  0  0  0  0  0
  187.9760  177.7750  143.3440 C   0  0  0  0  0  3  0  0  0  0  0  0
  188.6330  177.1810  144.3510 C   0  0  0  0  0  0  0  0  0  0  0  0
  189.7110  177.3010  140.8090 C   0  0  0  0  0  2  0  0  0  0  0  0
  188.6720  179.1840  138.3400 O   0  0  0  0  0  1  0  0  0  0  0  0
  191.1860  176.7610  138.8920 N   0  0  0  0  0  2  0  0  0  0  0  0
  188.6880  175.5750  135.7610 C   0  0  0  0  0  0  0  0  0  0  0  0
  188.6940  176.8930  136.2330 O   0  0  0  0  0  0  0  0  0  0  0  0
  189.6800  177.4080  137.1360 C   0  0  2  0  0  3  0  0  0  0  0  0
  190.2060  174.9680  137.5810 C   0  0  0  0  0  2  0  0  0  0  0  0
  190.7500  176.3970  137.5480 C   0  0  2  0  0  3  0  0  0  0  0  0
  189.4370  174.6430  136.3440 C   0  0  0  0  0  3  0  0  0  0  0  0
  190.2040  177.7110  139.4210 C   0  0  1  0  0  3  0  0  0  0  0  0
  189.0650  177.8490  138.4300 C   0  0  1  0  0  3  0  0  0  0  0  0
  187.8350  175.2120  134.5940 C   0  0  0  0  0  2  0  0  0  0  0  0
  186.5280  174.5870  135.0540 C   0  0  0  0  0  2  0  0  0  0  0  0
  185.9490  175.3730  136.1300 N   0  0  0  0  0  1  0  0  0  0  0  0
  1  6  1  6  0  0  0
  1 20  1  0  0  0  0
  1 12  1  0  0  0  0
  3 16  1  0  0  0  0
  3 15  1  0  0  0  0
  5 21  1  1  0  0  0
  5 10  1  0  0  0  0
  5  6  1  0  0  0  0
  8  7  1  0  0  0  0
 10  8  1  0  0  0  0
 11  4  2  0  0  0  0
 11 13  1  0  0  0  0
 12  7  1  6  0  0  0
 12 11  1  0  0  0  0
 14  2  1  1  0  0  0
 14  9  1  0  0  0  0
 15  9  1  0  0  0  0
 16 14  1  0  0  0  0
 17 16  2  0  0  0  0
 18  2  2  0  0  0  0
 18  4  1  0  0  0  0
 19 17  1  0  0  0  0
 19 20  2  0  0  0  0
 20 18  1  0  0  0  0
 23 30  1  0  0  0  0
 24 25  1  0  0  0  0
 24 29  2  0  0  0  0
 26 25  1  6  0  0  0
 26 28  1  0  0  0  0
 26 31  1  0  0  0  0
 28 27  1  1  0  0  0
 28 23  1  0  0  0  0
 29 27  1  0  0  0  0
 30 21  1  1  0  0  0
 31 22  1  6  0  0  0
 31 30  1  0  0  0  0
 32 33  1  0  0  0  0
 32 24  1  0  0  0  0
 33 34  1  0  0  0  0
M  END
>  <MODEL>
1

>  <REMARK>
 VINA RESULT:      -9.2      0.000      0.000
  Name = 
  4 active torsions:
  status: ('A' for Active; 'I' for Inactive)
    1  A    between atoms: C_7  and  C_11
    2  A    between atoms: C_8  and  C_18
    3  A    between atoms: C_11  and  C_15
    4  A    between atoms: C_18  and  C_30
                            x       y       z     vdW  Elec       q    Type
                         _______ _______ _______ _____ _____    ______ ____

>  <TORSDO>
F 4

$$$$
=
 OpenBabel10262423353D

 34 39  0  0  1  0  0  0  0  0999 V2000
  183.2290  179.2520  140.7500 C   0  0  1  0  0  3  0  0  0  0  0  0
  183.7310  178.8840  144.4330 C   0  0  0  0  0  3  0  0  0  0  0  0
  186.9050  177.2660  145.1170 C   0  0  0  0  0  2  0  0  0  0  0  0
  181.7300  178.7750  143.1020 C   0  0  0  0  0  3  0  0  0  0  0  0
  184.3140  178.6410  138.4560 C   0  0  2  0  0  3  0  0  0  0  0  0
  183.9380  179.7250  139.4710 C   0  0  0  0  0  2  0  0  0  0  0  0
  181.8850  177.1500  140.2590 N   0  0  0  0  0  2  0  0  0  0  0  0
  183.0440  176.7320  139.4710 C   0  0  0  0  0  2  0  0  0  0  0  0
  185.4510  179.0970  146.5020 S   0  0  0  0  0  0  0  0  0  0  0  0
  183.2280  177.5900  138.2280 C   0  0  0  0  0  2  0  0  0  0  0  0
  181.0960  178.7160  141.9200 C   0  0  0  0  0  0  0  0  0  0  0  0
  181.8500  178.5790  140.6190 C   0  0  1  0  0  3  0  0  0  0  0  0
  179.7090  178.7280  141.8970 O   0  0  0  0  0  1  0  0  0  0  0  0
  185.1870  179.0660  144.7060 C   0  0  1  0  0  3  0  0  0  0  0  0
  186.9970  178.1510  146.3440 C   0  0  0  0  0  2  0  0  0  0  0  0
  185.9980  177.9440  144.1620 C   0  0  0  0  0  0  0  0  0  0  0  0
  186.0460  177.6370  142.8660 C   0  0  0  0  0  3  0  0  0  0  0  0
  183.2040  178.7910  143.2130 C   0  0  0  0  0  0  0  0  0  0  0  0
  185.2100  178.2420  141.8130 C   0  0  0  0  0  3  0  0  0  0  0  0
  184.0020  178.8070  141.9560 C   0  0  0  0  0  0  0  0  0  0  0  0
  185.6850  178.0310  138.7480 C   0  0  0  0  0  2  0  0  0  0  0  0
  186.4410  175.9120  136.3690 O   0  0  0  0  0  1  0  0  0  0  0  0
  187.6810  178.9760  137.6240 N   0  0  0  0  0  2  0  0  0  0  0  0
  190.6440  176.0360  137.7820 C   0  0  0  0  0  0  0  0  0  0  0  0
  189.4850  175.8660  137.0140 O   0  0  0  0  0  0  0  0  0  0  0  0
  188.5540  176.9200  136.7400 C   0  0  2  0  0  3  0  0  0  0  0  0
  189.6970  178.1110  138.6640 C   0  0  0  0  0  2  0  0  0  0  0  0
  188.9290  178.2700  137.3510 C   0  0  2  0  0  3  0  0  0  0  0  0
  190.8030  177.1170  138.5380 C   0  0  0  0  0  3  0  0  0  0  0  0
  186.5990  177.9930  137.5240 C   0  0  1  0  0  3  0  0  0  0  0  0
  187.1990  176.6180  137.3040 C   0  0  1  0  0  3  0  0  0  0  0  0
  191.7090  174.9930  137.7520 C   0  0  0  0  0  2  0  0  0  0  0  0
  192.9800  175.5360  137.1190 C   0  0  0  0  0  2  0  0  0  0  0  0
  194.0420  175.6020  138.1080 N   0  0  0  0  0  1  0  0  0  0  0  0
  1  6  1  6  0  0  0
  1 20  1  0  0  0  0
  3 15  1  0  0  0  0
  4 18  1  0  0  0  0
  5 21  1  1  0  0  0
  5  6  1  0  0  0  0
  8  7  1  0  0  0  0
 10  5  1  0  0  0  0
 10  8  1  0  0  0  0
 11  4  2  0  0  0  0
 12  7  1  1  0  0  0
 12  1  1  0  0  0  0
 12 11  1  0  0  0  0
 13 11  1  0  0  0  0
 14  2  1  1  0  0  0
 14  9  1  0  0  0  0
 15  9  1  0  0  0  0
 16 14  1  0  0  0  0
 16  3  1  0  0  0  0
 17 16  2  0  0  0  0
 18  2  2  0  0  0  0
 19 20  2  0  0  0  0
 19 17  1  0  0  0  0
 20 18  1  0  0  0  0
 24 29  2  0  0  0  0
 25 24  1  0  0  0  0
 26 25  1  1  0  0  0
 26 31  1  0  0  0  0
 26 28  1  0  0  0  0
 28 23  1  0  0  0  0
 28 27  1  1  0  0  0
 29 27  1  0  0  0  0
 30 23  1  0  0  0  0
 30 21  1  1  0  0  0
 31 22  1  6  0  0  0
 31 30  1  0  0  0  0
 32 24  1  0  0  0  0
 33 32  1  0  0  0  0
 33 34  1  0  0  0  0
M  END
>  <MODEL>
2

>  <REMARK>
 VINA RESULT:      -8.6      3.462      6.276
  Name = 
  4 active torsions:
  status: ('A' for Active; 'I' for Inactive)
    1  A    between atoms: C_7  and  C_11
    2  A    between atoms: C_8  and  C_18
    3  A    between atoms: C_11  and  C_15
    4  A    between atoms: C_18  and  C_30
                            x       y       z     vdW  Elec       q    Type
                         _______ _______ _______ _____ _____    ______ ____

>  <TORSDO>
F 4

$$$$
=
 OpenBabel10262423353D

 34 39  0  0  1  0  0  0  0  0999 V2000
  189.7920  176.4080  143.8080 C   0  0  1  0  0  3  0  0  0  0  0  0
  187.0650  177.7480  145.9800 C   0  0  0  0  0  3  0  0  0  0  0  0
  184.6440  179.5680  143.9840 C   0  0  0  0  0  2  0  0  0  0  0  0
  189.4130  177.4510  146.4100 C   0  0  0  0  0  3  0  0  0  0  0  0
  190.6500  176.4180  141.3420 C   0  0  2  0  0  3  0  0  0  0  0  0
  190.0320  175.6320  142.5030 C   0  0  0  0  0  2  0  0  0  0  0  0
  191.5090  178.2710  144.0270 N   0  0  0  0  0  2  0  0  0  0  0  0
  191.2770  178.4950  142.5990 C   0  0  0  0  0  2  0  0  0  0  0  0
  184.4100  178.1320  146.2800 S   0  0  0  0  0  0  0  0  0  0  0  0
  191.7960  177.3440  141.7500 C   0  0  0  0  0  2  0  0  0  0  0  0
  190.6650  177.1800  146.0090 C   0  0  0  0  0  0  0  0  0  0  0  0
  191.0100  176.9870  144.5520 C   0  0  1  0  0  3  0  0  0  0  0  0
  191.6800  177.1280  146.9540 O   0  0  0  0  0  1  0  0  0  0  0  0
  185.7960  177.6810  145.1970 C   0  0  1  0  0  3  0  0  0  0  0  0
  183.5880  179.0410  144.9360 C   0  0  0  0  0  2  0  0  0  0  0  0
  185.7960  178.6400  144.0590 C   0  0  0  0  0  0  0  0  0  0  0  0
  186.6800  178.5940  143.0640 C   0  0  0  0  0  3  0  0  0  0  0  0
  188.2720  177.5020  145.4720 C   0  0  0  0  0  0  0  0  0  0  0  0
  187.8600  177.7120  143.0080 C   0  0  0  0  0  3  0  0  0  0  0  0
  188.5250  177.1750  144.0420 C   0  0  0  0  0  0  0  0  0  0  0  0
  189.5880  177.1180  140.4940 C   0  0  0  0  0  2  0  0  0  0  0  0
  188.7740  175.2140  137.9570 O   0  0  0  0  0  1  0  0  0  0  0  0
  191.1050  177.7800  138.6490 N   0  0  0  0  0  2  0  0  0  0  0  0
  193.0830  174.3100  137.4260 C   0  0  0  0  0  0  0  0  0  0  0  0
  191.7070  174.4760  137.2270 O   0  0  0  0  0  0  0  0  0  0  0  0
  191.0240  175.7220  137.4130 C   0  0  2  0  0  3  0  0  0  0  0  0
  193.1030  176.4030  138.6930 C   0  0  0  0  0  2  0  0  0  0  0  0
  191.9240  176.8790  137.8440 C   0  0  2  0  0  3  0  0  0  0  0  0
  193.7910  175.2320  138.0730 C   0  0  0  0  0  3  0  0  0  0  0  0
  189.8800  177.0550  138.9940 C   0  0  1  0  0  3  0  0  0  0  0  0
  189.9920  175.6280  138.4960 C   0  0  1  0  0  3  0  0  0  0  0  0
  193.7620  173.0880  136.9090 C   0  0  0  0  0  2  0  0  0  0  0  0
  195.2220  173.0600  137.3320 C   0  0  0  0  0  2  0  0  0  0  0  0
  195.4300  172.0380  138.3440 N   0  0  0  0  0  1  0  0  0  0  0  0
  1  6  1  6  0  0  0
  1 20  1  0  0  0  0
  1 12  1  0  0  0  0
  3 16  1  0  0  0  0
  3 15  1  0  0  0  0
  5 21  1  1  0  0  0
  5 10  1  0  0  0  0
  5  6  1  0  0  0  0
  8  7  1  0  0  0  0
 10  8  1  0  0  0  0
 11  4  2  0  0  0  0
 11 13  1  0  0  0  0
 12  7  1  6  0  0  0
 12 11  1  0  0  0  0
 14  2  1  1  0  0  0
 14  9  1  0  0  0  0
 15  9  1  0  0  0  0
 16 14  1  0  0  0  0
 17 16  2  0  0  0  0
 18  2  2  0  0  0  0
 18  4  1  0  0  0  0
 19 17  1  0  0  0  0
 19 20  2  0  0  0  0
 20 18  1  0  0  0  0
 23 30  1  0  0  0  0
 24 29  2  0  0  0  0
 25 24  1  0  0  0  0
 26 25  1  1  0  0  0
 26 28  1  0  0  0  0
 26 31  1  0  0  0  0
 28 23  1  0  0  0  0
 28 27  1  1  0  0  0
 29 27  1  0  0  0  0
 30 21  1  1  0  0  0
 31 22  1  6  0  0  0
 31 30  1  0  0  0  0
 32 33  1  0  0  0  0
 32 24  1  0  0  0  0
 33 34  1  0  0  0  0
M  END
>  <MODEL>
3

>  <REMARK>
 VINA RESULT:      -8.0      2.047      3.164
  Name = 
  4 active torsions:
  status: ('A' for Active; 'I' for Inactive)
    1  A    between atoms: C_7  and  C_11
    2  A    between atoms: C_8  and  C_18
    3  A    between atoms: C_11  and  C_15
    4  A    between atoms: C_18  and  C_30
                            x       y       z     vdW  Elec       q    Type
                         _______ _______ _______ _____ _____    ______ ____

>  <TORSDO>
F 4

$$$$
=
 OpenBabel10262423353D

 34 39  0  0  1  0  0  0  0  0999 V2000
  188.7920  176.3500  137.9400 C   0  0  1  0  0  3  0  0  0  0  0  0
  191.1410  176.5690  140.8350 C   0  0  0  0  0  3  0  0  0  0  0  0
  189.6790  178.5540  143.4960 C   0  0  0  0  0  2  0  0  0  0  0  0
  191.5680  176.4860  138.4690 C   0  0  0  0  0  3  0  0  0  0  0  0
  186.4850  177.2310  137.0910 C   0  0  2  0  0  3  0  0  0  0  0  0
  187.3260  176.0500  137.5870 C   0  0  0  0  0  2  0  0  0  0  0  0
  189.6390  178.2780  136.5150 N   0  0  0  0  0  2  0  0  0  0  0  0
  188.3370  178.8930  136.7760 C   0  0  0  0  0  2  0  0  0  0  0  0
  191.4220  176.4690  143.5180 S   0  0  0  0  0  0  0  0  0  0  0  0
  187.2050  178.1400  136.0940 C   0  0  0  0  0  2  0  0  0  0  0  0
  191.1610  176.5290  137.1910 C   0  0  0  0  0  0  0  0  0  0  0  0
  189.7300  176.8390  136.8200 C   0  0  1  0  0  3  0  0  0  0  0  0
  192.0910  176.3330  136.1790 O   0  0  0  0  0  1  0  0  0  0  0  0
  190.3180  176.5680  142.0800 C   0  0  1  0  0  3  0  0  0  0  0  0
  190.3790  177.6200  144.4640 C   0  0  0  0  0  2  0  0  0  0  0  0
  189.5230  177.8170  142.2210 C   0  0  0  0  0  0  0  0  0  0  0  0
  188.6020  178.2020  141.3380 C   0  0  0  0  0  3  0  0  0  0  0  0
  190.6370  176.6610  139.6050 C   0  0  0  0  0  0  0  0  0  0  0  0
  188.3350  177.5520  140.0420 C   0  0  0  0  0  3  0  0  0  0  0  0
  189.1890  176.8240  139.3060 C   0  0  0  0  0  0  0  0  0  0  0  0
  185.8400  178.0010  138.2440 C   0  0  0  0  0  2  0  0  0  0  0  0
  184.1150  180.6980  138.9310 O   0  0  0  0  0  1  0  0  0  0  0  0
  183.5430  177.5470  137.4330 N   0  0  0  0  0  2  0  0  0  0  0  0
  180.9960  178.0880  140.6990 C   0  0  0  0  0  0  0  0  0  0  0  0
  181.6870  179.1620  140.1250 O   0  0  0  0  0  0  0  0  0  0  0  0
  182.3850  179.0780  138.8770 C   0  0  2  0  0  3  0  0  0  0  0  0
  182.2180  176.5720  139.2190 C   0  0  0  0  0  2  0  0  0  0  0  0
  182.3120  177.7090  138.2010 C   0  0  2  0  0  3  0  0  0  0  0  0
  181.1830  176.8480  140.2580 C   0  0  0  0  0  3  0  0  0  0  0  0
  184.4730  178.5840  137.8860 C   0  0  1  0  0  3  0  0  0  0  0  0
  183.8520  179.3330  139.0480 C   0  0  1  0  0  3  0  0  0  0  0  0
  180.0410  178.3370  141.8170 C   0  0  0  0  0  2  0  0  0  0  0  0
  180.6510  179.2700  142.8510 C   0  0  0  0  0  2  0  0  0  0  0  0
  180.0110  180.5730  142.7890 N   0  0  0  0  0  1  0  0  0  0  0  0
  1  6  1  6  0  0  0
  1 20  1  0  0  0  0
  3 15  1  0  0  0  0
  4 18  1  0  0  0  0
  5  6  1  0  0  0  0
  5 21  1  1  0  0  0
  7  8  1  0  0  0  0
  9 15  1  0  0  0  0
 10  8  1  0  0  0  0
 10  5  1  0  0  0  0
 11  4  2  0  0  0  0
 12  7  1  1  0  0  0
 12 11  1  0  0  0  0
 12  1  1  0  0  0  0
 13 11  1  0  0  0  0
 14  2  1  6  0  0  0
 14 16  1  0  0  0  0
 14  9  1  0  0  0  0
 16  3  1  0  0  0  0
 17 16  2  0  0  0  0
 18  2  2  0  0  0  0
 19 17  1  0  0  0  0
 20 18  1  0  0  0  0
 20 19  2  0  0  0  0
 23 30  1  0  0  0  0
 23 28  1  0  0  0  0
 24 32  1  0  0  0  0
 25 24  1  0  0  0  0
 26 31  1  0  0  0  0
 26 25  1  1  0  0  0
 27 29  1  0  0  0  0
 28 26  1  0  0  0  0
 28 27  1  1  0  0  0
 29 24  2  0  0  0  0
 30 21  1  1  0  0  0
 30 31  1  0  0  0  0
 31 22  1  6  0  0  0
 32 33  1  0  0  0  0
 34 33  1  0  0  0  0
M  END
>  <MODEL>
4

>  <REMARK>
 VINA RESULT:      -7.5      4.221      7.516
  Name = 
  4 active torsions:
  status: ('A' for Active; 'I' for Inactive)
    1  A    between atoms: C_7  and  C_11
    2  A    between atoms: C_8  and  C_18
    3  A    between atoms: C_11  and  C_15
    4  A    between atoms: C_18  and  C_30
                            x       y       z     vdW  Elec       q    Type
                         _______ _______ _______ _____ _____    ______ ____

>  <TORSDO>
F 4

$$$$
=
 OpenBabel10262423353D

 34 39  0  0  1  0  0  0  0  0999 V2000
  188.1960  178.6280  138.6300 C   0  0  1  0  0  3  0  0  0  0  0  0
  188.2720  178.3250  142.3520 C   0  0  0  0  0  3  0  0  0  0  0  0
  190.9390  176.0910  143.3800 C   0  0  0  0  0  2  0  0  0  0  0  0
  186.4240  178.5910  140.8350 C   0  0  0  0  0  3  0  0  0  0  0  0
  189.3230  177.6950  136.4670 C   0  0  2  0  0  3  0  0  0  0  0  0
  189.1040  178.8790  137.4150 C   0  0  0  0  0  2  0  0  0  0  0  0
  186.4730  176.8460  138.0610 N   0  0  0  0  0  2  0  0  0  0  0  0
  187.5790  176.1520  137.3990 C   0  0  0  0  0  2  0  0  0  0  0  0
  189.8030  178.2520  144.5730 S   0  0  0  0  0  0  0  0  0  0  0  0
  188.0570  176.8940  136.1600 C   0  0  0  0  0  2  0  0  0  0  0  0
  185.9020  178.6180  139.5990 C   0  0  0  0  0  0  0  0  0  0  0  0
  186.7200  178.2640  138.3800 C   0  0  1  0  0  3  0  0  0  0  0  0
  184.5580  178.9290  139.4400 O   0  0  0  0  0  1  0  0  0  0  0  0
  189.7020  178.1990  142.7610 C   0  0  1  0  0  3  0  0  0  0  0  0
  191.1120  176.9890  144.5900 C   0  0  0  0  0  2  0  0  0  0  0  0
  190.2920  176.9050  142.3250 C   0  0  0  0  0  0  0  0  0  0  0  0
  190.3880  176.5380  141.0480 C   0  0  0  0  0  3  0  0  0  0  0  0
  187.8500  178.2930  141.0880 C   0  0  0  0  0  0  0  0  0  0  0  0
  189.8040  177.2620  139.9040 C   0  0  0  0  0  3  0  0  0  0  0  0
  188.7410  178.0800  139.9160 C   0  0  0  0  0  0  0  0  0  0  0  0
  190.4940  176.8170  136.9070 C   0  0  0  0  0  2  0  0  0  0  0  0
  190.1190  173.5790  137.2180 O   0  0  0  0  0  1  0  0  0  0  0  0
  191.5800  175.8250  134.9120 N   0  0  0  0  0  2  0  0  0  0  0  0
  194.4410  173.1300  136.3260 C   0  0  0  0  0  0  0  0  0  0  0  0
  193.0700  172.9010  136.5020 O   0  0  0  0  0  0  0  0  0  0  0  0
  192.0490  173.6620  135.8450 C   0  0  2  0  0  3  0  0  0  0  0  0
  193.9050  175.3300  135.4020 C   0  0  0  0  0  2  0  0  0  0  0  0
  192.5740  174.7560  134.9170 C   0  0  2  0  0  3  0  0  0  0  0  0
  194.8730  174.2510  135.7590 C   0  0  0  0  0  3  0  0  0  0  0  0
  190.6730  175.5740  136.0350 C   0  0  1  0  0  3  0  0  0  0  0  0
  191.1860  174.3900  136.8300 C   0  0  1  0  0  3  0  0  0  0  0  0
  195.4250  172.1060  136.7820 C   0  0  0  0  0  2  0  0  0  0  0  0
  196.2740  172.6440  137.9230 C   0  0  0  0  0  2  0  0  0  0  0  0
  195.4310  173.0030  139.0490 N   0  0  0  0  0  1  0  0  0  0  0  0
  1  6  1  6  0  0  0
  1 20  1  0  0  0  0
  3 15  1  0  0  0  0
  4 18  1  0  0  0  0
  5 21  1  1  0  0  0
  5  6  1  0  0  0  0
  8  7  1  0  0  0  0
  9 15  1  0  0  0  0
 10  5  1  0  0  0  0
 10  8  1  0  0  0  0
 11  4  2  0  0  0  0
 12  7  1  1  0  0  0
 12  1  1  0  0  0  0
 12 11  1  0  0  0  0
 13 11  1  0  0  0  0
 14  2  1  1  0  0  0
 14  9  1  0  0  0  0
 16 14  1  0  0  0  0
 16  3  1  0  0  0  0
 17 16  2  0  0  0  0
 18  2  2  0  0  0  0
 19 20  2  0  0  0  0
 19 17  1  0  0  0  0
 20 18  1  0  0  0  0
 23 28  1  0  0  0  0
 23 30  1  0  0  0  0
 24 25  1  0  0  0  0
 24 32  1  0  0  0  0
 26 25  1  1  0  0  0
 26 31  1  0  0  0  0
 27 29  1  0  0  0  0
 28 27  1  1  0  0  0
 28 26  1  0  0  0  0
 29 24  2  0  0  0  0
 30 31  1  0  0  0  0
 30 21  1  1  0  0  0
 31 22  1  6  0  0  0
 32 33  1  0  0  0  0
 33 34  1  0  0  0  0
M  END
>  <MODEL>
5

>  <REMARK>
 VINA RESULT:      -7.3      3.526      6.441
  Name = 
  4 active torsions:
  status: ('A' for Active; 'I' for Inactive)
    1  A    between atoms: C_7  and  C_11
    2  A    between atoms: C_8  and  C_18
    3  A    between atoms: C_11  and  C_15
    4  A    between atoms: C_18  and  C_30
                            x       y       z     vdW  Elec       q    Type
                         _______ _______ _______ _____ _____    ______ ____

>  <TORSDO>
F 4

$$$$
=
 OpenBabel10262423353D

 34 39  0  0  1  0  0  0  0  0999 V2000
  182.4800  178.3600  137.8090 C   0  0  1  0  0  3  0  0  0  0  0  0
  180.4490  181.1980  136.4780 C   0  0  0  0  0  3  0  0  0  0  0  0
  178.9310  183.0480  139.2050 C   0  0  0  0  0  2  0  0  0  0  0  0
  180.8410  178.9960  135.5920 C   0  0  0  0  0  3  0  0  0  0  0  0
  183.1080  177.1450  140.0330 C   0  0  2  0  0  3  0  0  0  0  0  0
  183.5510  178.0230  138.8580 C   0  0  0  0  0  2  0  0  0  0  0  0
  180.7710  176.4800  137.6920 N   0  0  0  0  0  2  0  0  0  0  0  0
  180.8600  176.4640  139.1520 C   0  0  0  0  0  2  0  0  0  0  0  0
  179.7780  183.8000  136.7350 S   0  0  0  0  0  0  0  0  0  0  0  0
  182.2150  175.9690  139.6360 C   0  0  0  0  0  2  0  0  0  0  0  0
  181.3030  177.7410  135.7020 C   0  0  0  0  0  0  0  0  0  0  0  0
  181.8530  177.2060  137.0030 C   0  0  1  0  0  3  0  0  0  0  0  0
  181.2260  176.8940  134.6050 O   0  0  0  0  0  1  0  0  0  0  0  0
  180.5820  182.3320  137.4390 C   0  0  1  0  0  3  0  0  0  0  0  0
  179.1330  184.2920  138.3630 C   0  0  0  0  0  2  0  0  0  0  0  0
  179.9130  182.0430  138.7360 C   0  0  0  0  0  0  0  0  0  0  0  0
  180.2610  181.0310  139.5280 C   0  0  0  0  0  3  0  0  0  0  0  0
  180.9080  179.9680  136.7050 C   0  0  0  0  0  0  0  0  0  0  0  0
  181.2310  179.9740  139.1900 C   0  0  0  0  0  3  0  0  0  0  0  0
  181.5730  179.5440  137.9660 C   0  0  0  0  0  0  0  0  0  0  0  0
  182.5310  177.9720  141.1810 C   0  0  0  0  0  2  0  0  0  0  0  0
  185.7630  178.4880  141.1160 O   0  0  0  0  0  1  0  0  0  0  0  0
  182.9610  179.7200  142.8850 N   0  0  0  0  0  2  0  0  0  0  0  0
  185.7720  178.1350  145.5370 C   0  0  0  0  0  0  0  0  0  0  0  0
  186.1040  178.4270  144.2080 O   0  0  0  0  0  0  0  0  0  0  0  0
  185.2590  179.1770  143.3270 C   0  0  2  0  0  3  0  0  0  0  0  0
  183.4440  178.6810  145.0250 C   0  0  0  0  0  2  0  0  0  0  0  0
  183.9490  179.6500  143.9570 C   0  0  2  0  0  3  0  0  0  0  0  0
  184.5270  178.2940  145.9760 C   0  0  0  0  0  3  0  0  0  0  0  0
  183.5180  178.9970  141.7380 C   0  0  1  0  0  3  0  0  0  0  0  0
  184.8320  178.3600  142.1460 C   0  0  1  0  0  3  0  0  0  0  0  0
  186.8250  177.6390  146.4690 C   0  0  0  0  0  2  0  0  0  0  0  0
  188.2010  177.7330  145.8290 C   0  0  0  0  0  2  0  0  0  0  0  0
  189.2210  177.8840  146.8520 N   0  0  0  0  0  1  0  0  0  0  0  0
  1 20  1  0  0  0  0
  1  6  1  1  0  0  0
  2 18  2  0  0  0  0
  4 11  2  0  0  0  0
  4 18  1  0  0  0  0
  5 21  1  1  0  0  0
  6  5  1  0  0  0  0
  7  8  1  0  0  0  0
  8 10  1  0  0  0  0
  9 14  1  0  0  0  0
  9 15  1  0  0  0  0
 10  5  1  0  0  0  0
 12 11  1  6  0  0  0
 12  7  1  0  0  0  0
 12  1  1  0  0  0  0
 13 11  1  0  0  0  0
 14  2  1  6  0  0  0
 14 16  1  0  0  0  0
 15  3  1  0  0  0  0
 16  3  1  0  0  0  0
 16 17  2  0  0  0  0
 18 20  1  0  0  0  0
 19 17  1  0  0  0  0
 20 19  2  0  0  0  0
 23 28  1  0  0  0  0
 24 29  2  0  0  0  0
 24 32  1  0  0  0  0
 25 24  1  0  0  0  0
 26 28  1  0  0  0  0
 26 25  1  1  0  0  0
 27 29  1  0  0  0  0
 28 27  1  1  0  0  0
 30 21  1  1  0  0  0
 30 31  1  0  0  0  0
 30 23  1  0  0  0  0
 31 22  1  6  0  0  0
 31 26  1  0  0  0  0
 33 32  1  0  0  0  0
 33 34  1  0  0  0  0
M  END
>  <MODEL>
6

>  <REMARK>
 VINA RESULT:      -7.0      6.225     10.477
  Name = 
  4 active torsions:
  status: ('A' for Active; 'I' for Inactive)
    1  A    between atoms: C_7  and  C_11
    2  A    between atoms: C_8  and  C_18
    3  A    between atoms: C_11  and  C_15
    4  A    between atoms: C_18  and  C_30
                            x       y       z     vdW  Elec       q    Type
                         _______ _______ _______ _____ _____    ______ ____

>  <TORSDO>
F 4

$$$$
=
 OpenBabel10262423353D

 34 39  0  0  1  0  0  0  0  0999 V2000
  182.3060  175.5190  138.4200 C   0  0  1  0  0  3  0  0  0  0  0  0
  183.0990  172.5860  136.2470 C   0  0  0  0  0  3  0  0  0  0  0  0
  186.4340  172.9130  134.8570 C   0  0  0  0  0  2  0  0  0  0  0  0
  181.0230  173.7390  136.6340 C   0  0  0  0  0  3  0  0  0  0  0  0
  183.2700  177.8130  139.2110 C   0  0  2  0  0  3  0  0  0  0  0  0
  182.8810  176.3730  139.5610 C   0  0  0  0  0  2  0  0  0  0  0  0
  181.1030  177.0140  136.7510 N   0  0  0  0  0  2  0  0  0  0  0  0
  182.2330  177.9270  136.9290 C   0  0  0  0  0  2  0  0  0  0  0  0
  184.9400  170.7460  135.5340 S   0  0  0  0  0  0  0  0  0  0  0  0
  182.2580  178.5380  138.3220 C   0  0  0  0  0  2  0  0  0  0  0  0
  180.3130  174.7640  137.1310 C   0  0  0  0  0  0  0  0  0  0  0  0
  180.9790  175.9580  137.7720 C   0  0  1  0  0  3  0  0  0  0  0  0
  178.9310  174.7510  137.0060 O   0  0  0  0  0  1  0  0  0  0  0  0
  184.5510  172.2860  136.4130 C   0  0  1  0  0  3  0  0  0  0  0  0
  186.5420  171.4060  134.9780 C   0  0  0  0  0  2  0  0  0  0  0  0
  185.4090  173.3540  135.8310 C   0  0  0  0  0  0  0  0  0  0  0  0
  185.3880  174.6180  136.2500 C   0  0  0  0  0  3  0  0  0  0  0  0
  182.4950  173.6640  136.7470 C   0  0  0  0  0  0  0  0  0  0  0  0
  184.4330  175.1820  137.2220 C   0  0  0  0  0  3  0  0  0  0  0  0
  183.1960  174.7400  137.4980 C   0  0  0  0  0  0  0  0  0  0  0  0
  184.7020  177.9100  138.6870 C   0  0  0  0  0  2  0  0  0  0  0  0
  187.8890  178.5770  139.0270 O   0  0  0  0  0  1  0  0  0  0  0  0
  184.8640  179.3990  140.6610 N   0  0  0  0  0  2  0  0  0  0  0  0
  187.5030  177.5620  143.3270 C   0  0  0  0  0  0  0  0  0  0  0  0
  187.9400  178.0660  142.0960 O   0  0  0  0  0  0  0  0  0  0  0  0
  187.1390  178.9010  141.2520 C   0  0  2  0  0  3  0  0  0  0  0  0
  185.2050  178.0720  142.6650 C   0  0  0  0  0  2  0  0  0  0  0  0
  185.7490  179.2140  141.8070 C   0  0  2  0  0  3  0  0  0  0  0  0
  186.2160  177.5970  143.6550 C   0  0  0  0  0  3  0  0  0  0  0  0
  185.5690  178.8840  139.4850 C   0  0  1  0  0  3  0  0  0  0  0  0
  186.8750  178.2520  139.9270 C   0  0  1  0  0  3  0  0  0  0  0  0
  188.4920  176.9800  144.2800 C   0  0  0  0  0  2  0  0  0  0  0  0
  188.6060  177.8370  145.5310 C   0  0  0  0  0  2  0  0  0  0  0  0
  189.1790  177.0620  146.6170 N   0  0  0  0  0  1  0  0  0  0  0  0
  1  6  1  6  0  0  0
  2 18  2  0  0  0  0
  3 15  1  0  0  0  0
  3 16  1  0  0  0  0
  4 18  1  0  0  0  0
  4 11  2  0  0  0  0
  5 21  1  6  0  0  0
  5  6  1  0  0  0  0
  7  8  1  0  0  0  0
  8 10  1  0  0  0  0
  9 14  1  0  0  0  0
 10  5  1  0  0  0  0
 11 12  1  0  0  0  0
 12  7  1  6  0  0  0
 12  1  1  0  0  0  0
 13 11  1  0  0  0  0
 14  2  1  6  0  0  0
 15  9  1  0  0  0  0
 16 17  2  0  0  0  0
 16 14  1  0  0  0  0
 17 19  1  0  0  0  0
 18 20  1  0  0  0  0
 19 20  2  0  0  0  0
 20  1  1  0  0  0  0
 23 28  1  0  0  0  0
 24 29  2  0  0  0  0
 24 32  1  0  0  0  0
 25 24  1  0  0  0  0
 26 28  1  0  0  0  0
 26 25  1  1  0  0  0
 27 29  1  0  0  0  0
 28 27  1  1  0  0  0
 30 21  1  1  0  0  0
 30 31  1  0  0  0  0
 30 23  1  0  0  0  0
 31 22  1  6  0  0  0
 31 26  1  0  0  0  0
 32 33  1  0  0  0  0
 33 34  1  0  0  0  0
M  END
>  <MODEL>
7

>  <REMARK>
 VINA RESULT:      -7.0      4.884      9.980
  Name = 
  4 active torsions:
  status: ('A' for Active; 'I' for Inactive)
    1  A    between atoms: C_7  and  C_11
    2  A    between atoms: C_8  and  C_18
    3  A    between atoms: C_11  and  C_15
    4  A    between atoms: C_18  and  C_30
                            x       y       z     vdW  Elec       q    Type
                         _______ _______ _______ _____ _____    ______ ____

>  <TORSDO>
F 4

$$$$
=
 OpenBabel10262423353D

 34 39  0  0  1  0  0  0  0  0999 V2000
  182.7790  179.0820  140.8350 C   0  0  1  0  0  3  0  0  0  0  0  0
  183.6750  178.7220  144.4430 C   0  0  0  0  0  3  0  0  0  0  0  0
  187.0590  177.4590  144.7800 C   0  0  0  0  0  2  0  0  0  0  0  0
  181.5780  178.4080  143.3060 C   0  0  0  0  0  3  0  0  0  0  0  0
  183.6960  178.6290  138.4330 C   0  0  2  0  0  3  0  0  0  0  0  0
  183.3030  179.6490  139.5060 C   0  0  0  0  0  2  0  0  0  0  0  0
  181.6320  176.8500  140.4220 N   0  0  0  0  0  2  0  0  0  0  0  0
  182.7480  176.5750  139.5170 C   0  0  0  0  0  2  0  0  0  0  0  0
  185.5550  179.0960  146.3430 S   0  0  0  0  0  0  0  0  0  0  0  0
  182.7150  177.4660  138.2830 C   0  0  0  0  0  2  0  0  0  0  0  0
  180.8430  178.2950  142.1890 C   0  0  0  0  0  0  0  0  0  0  0  0
  181.4760  178.2610  140.8190 C   0  0  1  0  0  3  0  0  0  0  0  0
  179.4660  178.1520  142.2990 O   0  0  0  0  0  1  0  0  0  0  0  0
  185.1220  179.0610  144.5800 C   0  0  1  0  0  3  0  0  0  0  0  0
  187.1730  178.3310  146.0150 C   0  0  0  0  0  2  0  0  0  0  0  0
  185.9940  178.0440  143.9330 C   0  0  0  0  0  0  0  0  0  0  0  0
  185.9490  177.7630  142.6320 C   0  0  0  0  0  3  0  0  0  0  0  0
  183.0450  178.5870  143.2760 C   0  0  0  0  0  0  0  0  0  0  0  0
  184.9530  178.2850  141.6780 C   0  0  0  0  0  3  0  0  0  0  0  0
  183.7100  178.7090  141.9500 C   0  0  0  0  0  0  0  0  0  0  0  0
  185.1470  178.1720  138.5780 C   0  0  0  0  0  2  0  0  0  0  0  0
  184.6130  177.6430  135.3910 O   0  0  0  0  0  1  0  0  0  0  0  0
  187.3840  178.2110  137.5120 N   0  0  0  0  0  2  0  0  0  0  0  0
  187.8130  174.5730  135.5030 C   0  0  0  0  0  0  0  0  0  0  0  0
  186.8790  175.5320  135.0900 O   0  0  0  0  0  0  0  0  0  0  0  0
  186.8460  176.8740  135.5900 C   0  0  2  0  0  3  0  0  0  0  0  0
  188.3060  175.9660  137.4530 C   0  0  0  0  0  2  0  0  0  0  0  0
  187.9290  177.1920  136.6200 C   0  0  2  0  0  3  0  0  0  0  0  0
  188.5480  174.7700  136.5930 C   0  0  0  0  0  3  0  0  0  0  0  0
  185.9390  178.2630  137.2740 C   0  0  1  0  0  3  0  0  0  0  0  0
  185.5580  177.1660  136.2990 C   0  0  1  0  0  3  0  0  0  0  0  0
  187.9840  173.3200  134.7140 C   0  0  0  0  0  2  0  0  0  0  0  0
  187.3890  172.1320  135.4520 C   0  0  0  0  0  2  0  0  0  0  0  0
  185.9510  172.2910  135.5820 N   0  0  0  0  0  1  0  0  0  0  0  0
  1  6  1  6  0  0  0
  1 20  1  0  0  0  0
  3 15  1  0  0  0  0
  5 21  1  1  0  0  0
  5  6  1  0  0  0  0
  8  7  1  0  0  0  0
 10  5  1  0  0  0  0
 10  8  1  0  0  0  0
 11 13  1  0  0  0  0
 11  4  2  0  0  0  0
 12  7  1  1  0  0  0
 12  1  1  0  0  0  0
 12 11  1  0  0  0  0
 14  2  1  1  0  0  0
 14  9  1  0  0  0  0
 15  9  1  0  0  0  0
 16 14  1  0  0  0  0
 16  3  1  0  0  0  0
 17 16  2  0  0  0  0
 18  4  1  0  0  0  0
 18  2  2  0  0  0  0
 19 20  2  0  0  0  0
 19 17  1  0  0  0  0
 20 18  1  0  0  0  0
 24 29  2  0  0  0  0
 25 24  1  0  0  0  0
 26 25  1  1  0  0  0
 26 31  1  0  0  0  0
 26 28  1  0  0  0  0
 28 27  1  1  0  0  0
 28 23  1  0  0  0  0
 29 27  1  0  0  0  0
 30 23  1  0  0  0  0
 30 21  1  1  0  0  0
 31 22  1  6  0  0  0
 31 30  1  0  0  0  0
 32 33  1  0  0  0  0
 32 24  1  0  0  0  0
 33 34  1  0  0  0  0
M  END
>  <MODEL>
8

>  <REMARK>
 VINA RESULT:      -6.9      3.870      6.162
  Name = 
  4 active torsions:
  status: ('A' for Active; 'I' for Inactive)
    1  A    between atoms: C_7  and  C_11
    2  A    between atoms: C_8  and  C_18
    3  A    between atoms: C_11  and  C_15
    4  A    between atoms: C_18  and  C_30
                            x       y       z     vdW  Elec       q    Type
                         _______ _______ _______ _____ _____    ______ ____

>  <TORSDO>
F 4

$$$$
=
 OpenBabel10262423353D

 34 39  0  0  1  0  0  0  0  0999 V2000
  182.2070  177.0600  137.5330 C   0  0  1  0  0  3  0  0  0  0  0  0
  180.8770  177.6360  140.9760 C   0  0  0  0  0  3  0  0  0  0  0  0
  183.5610  178.6050  143.2170 C   0  0  0  0  0  2  0  0  0  0  0  0
  180.2210  176.0580  139.2830 C   0  0  0  0  0  3  0  0  0  0  0  0
  184.4340  176.9910  136.1740 C   0  0  2  0  0  3  0  0  0  0  0  0
  183.1030  177.6940  136.4580 C   0  0  0  0  0  2  0  0  0  0  0  0
  182.6020  174.5490  137.6090 N   0  0  0  0  0  2  0  0  0  0  0  0
  184.0200  174.8840  137.4710 C   0  0  0  0  0  2  0  0  0  0  0  0
  180.9120  179.2110  143.1670 S   0  0  0  0  0  0  0  0  0  0  0  0
  184.3370  175.4660  136.1010 C   0  0  0  0  0  2  0  0  0  0  0  0
  180.4110  175.4320  138.1100 C   0  0  0  0  0  0  0  0  0  0  0  0
  181.6630  175.6390  137.2910 C   0  0  1  0  0  3  0  0  0  0  0  0
  179.4550  174.5310  137.6640 O   0  0  0  0  0  1  0  0  0  0  0  0
  181.6550  178.7610  141.5730 C   0  0  1  0  0  3  0  0  0  0  0  0
  182.5480  179.4970  143.9090 C   0  0  0  0  0  2  0  0  0  0  0  0
  183.0680  178.3810  141.8380 C   0  0  0  0  0  0  0  0  0  0  0  0
  183.9150  178.0000  140.8820 C   0  0  0  0  0  3  0  0  0  0  0  0
  181.1790  177.0500  139.8180 C   0  0  0  0  0  0  0  0  0  0  0  0
  183.5590  177.7550  139.4720 C   0  0  0  0  0  3  0  0  0  0  0  0
  182.3590  177.4050  138.9850 C   0  0  0  0  0  0  0  0  0  0  0  0
  185.5490  177.4740  137.1010 C   0  0  0  0  0  2  0  0  0  0  0  0
  187.6180  176.2470  134.8800 O   0  0  0  0  0  1  0  0  0  0  0  0
  187.4670  179.0420  137.0390 N   0  0  0  0  0  2  0  0  0  0  0  0
  190.8860  176.7770  137.8310 C   0  0  0  0  0  0  0  0  0  0  0  0
  190.1510  176.6030  136.6520 O   0  0  0  0  0  0  0  0  0  0  0  0
  189.1170  177.4980  136.2240 C   0  0  2  0  0  3  0  0  0  0  0  0
  189.1650  178.3270  138.6190 C   0  0  0  0  0  2  0  0  0  0  0  0
  188.8760  178.6820  137.1600 C   0  0  2  0  0  3  0  0  0  0  0  0
  190.4760  177.6280  138.7660 C   0  0  0  0  0  3  0  0  0  0  0  0
  186.7970  177.9360  136.3500 C   0  0  1  0  0  3  0  0  0  0  0  0
  187.7890  176.8080  136.1450 C   0  0  1  0  0  3  0  0  0  0  0  0
  192.1410  175.9990  138.0400 C   0  0  0  0  0  2  0  0  0  0  0  0
  192.9380  175.9020  136.7480 C   0  0  0  0  0  2  0  0  0  0  0  0
  194.1470  176.7010  136.8450 N   0  0  0  0  0  1  0  0  0  0  0  0
  1  6  1  6  0  0  0
  1 20  1  0  0  0  0
  3 15  1  0  0  0  0
  4 18  1  0  0  0  0
  5  6  1  0  0  0  0
  5 21  1  1  0  0  0
  8  7  1  0  0  0  0
  9 15  1  0  0  0  0
 10  5  1  0  0  0  0
 10  8  1  0  0  0  0
 11  4  2  0  0  0  0
 12  1  1  0  0  0  0
 12  7  1  1  0  0  0
 12 11  1  0  0  0  0
 13 11  1  0  0  0  0
 14  2  1  1  0  0  0
 14 16  1  0  0  0  0
 14  9  1  0  0  0  0
 16  3  1  0  0  0  0
 17 16  2  0  0  0  0
 18  2  2  0  0  0  0
 19 17  1  0  0  0  0
 20 19  2  0  0  0  0
 20 18  1  0  0  0  0
 23 28  1  0  0  0  0
 24 32  1  0  0  0  0
 24 29  2  0  0  0  0
 25 24  1  0  0  0  0
 26 25  1  1  0  0  0
 26 28  1  0  0  0  0
 27 29  1  0  0  0  0
 28 27  1  1  0  0  0
 30 23  1  0  0  0  0
 30 21  1  1  0  0  0
 31 22  1  6  0  0  0
 31 26  1  0  0  0  0
 31 30  1  0  0  0  0
 33 34  1  0  0  0  0
 33 32  1  0  0  0  0
M  END
>  <MODEL>
9

>  <REMARK>
 VINA RESULT:      -6.8      4.401      7.634
  Name = 
  4 active torsions:
  status: ('A' for Active; 'I' for Inactive)
    1  A    between atoms: C_7  and  C_11
    2  A    between atoms: C_8  and  C_18
    3  A    between atoms: C_11  and  C_15
    4  A    between atoms: C_18  and  C_30
                            x       y       z     vdW  Elec       q    Type
                         _______ _______ _______ _____ _____    ______ ____

>  <TORSDO>
F 4

$$$$
