=
 OpenBabel10262419183D

 31 34  0  0  1  0  0  0  0  0999 V2000
  191.3230  176.5900  146.2140 C   0  0  0  0  0  0  0  0  0  0  0  0
  188.1120  177.5400  144.4710 C   0  0  0  0  0  0  0  0  0  0  0  0
  187.0620  177.8900  145.4180 C   0  0  2  0  0  3  0  0  0  0  0  0
  186.5870  179.1390  147.4970 C   0  0  0  0  0  3  0  0  0  0  0  0
  189.5530  177.3640  144.7610 C   0  0  0  0  0  0  0  0  0  0  0  0
  192.2460  176.9920  145.3010 N   0  0  0  0  0  0  0  0  0  0  0  0
  187.2020  177.9180  146.9020 C   0  0  0  0  0  2  0  0  0  0  0  0
  189.4260  177.7250  141.5510 C   0  0  1  0  0  3  0  0  0  0  0  0
  191.8430  175.8640  147.7210 Cl  0  0  0  0  0  0  0  0  0  0  0  0
  186.0910  177.6180  143.3240 C   0  0  0  0  0  3  0  0  0  0  0  0
  185.3130  179.5010  147.3240 C   0  0  0  0  0  3  0  0  0  0  0  0
  190.1590  178.5590  142.6080 C   0  0  0  0  0  2  0  0  0  0  0  0
  187.5640  177.3930  143.2710 C   0  0  0  0  0  0  0  0  0  0  0  0
  189.9610  176.7670  145.9590 C   0  0  0  0  0  3  0  0  0  0  0  0
  184.3630  178.8320  146.4770 N   0  0  0  0  0  0  0  0  0  0  0  0
  190.5300  177.7830  143.8360 C   0  0  0  0  0  0  0  0  0  0  0  0
  191.8800  177.5830  144.1310 C   0  0  0  0  0  3  0  0  0  0  0  0
  188.2870  176.8420  142.0770 C   0  0  0  0  0  2  0  0  0  0  0  0
  185.9060  177.9440  144.7710 C   0  0  0  0  0  0  0  0  0  0  0  0
  184.5830  178.1680  145.3780 C   0  0  0  0  0  3  0  0  0  0  0  0
  188.9060  178.6370  140.4520 C   0  0  0  0  0  2  0  0  0  0  0  0
  186.8140  178.3860  138.5880 O   0  0  0  0  0  0  0  0  0  0  0  0
  190.2680  177.5730  138.7420 O   0  0  0  0  0  1  0  0  0  0  0  0
  189.0460  177.9940  139.1500 N   0  0  0  0  0  0  0  0  0  0  0  0
  187.9200  177.8630  138.2780 C   0  0  0  0  0  0  0  0  0  0  0  0
  187.0990  177.5720  136.0790 O   0  0  0  0  0  1  0  0  0  0  0  0
  188.0550  177.1120  136.9850 C   0  0  2  0  0  3  0  0  0  0  0  0
  187.8800  175.6090  137.1900 C   0  0  0  0  0  2  0  0  0  0  0  0
  189.0970  174.8490  136.7640 C   0  0  0  0  0  0  0  0  0  0  0  0
  189.3420  174.5970  135.3170 C   0  0  0  0  0  1  0  0  0  0  0  0
  189.8860  174.4270  137.5960 O   0  0  0  0  0  0  0  0  0  0  0  0
  1  9  1  0  0  0  0
  2  5  1  0  0  0  0
  2  3  1  0  0  0  0
  3  7  1  1  0  0  0
  5 14  2  0  0  0  0
  6  1  2  0  0  0  0
  7  4  1  0  0  0  0
  8 21  1  6  0  0  0
  8 18  1  0  0  0  0
  8 12  1  0  0  0  0
 10 19  2  0  0  0  0
 11  4  2  0  0  0  0
 12 16  1  0  0  0  0
 13 10  1  0  0  0  0
 13  2  2  0  0  0  0
 14  1  1  0  0  0  0
 15 11  1  0  0  0  0
 16 17  2  0  0  0  0
 16  5  1  0  0  0  0
 17  6  1  0  0  0  0
 18 13  1  0  0  0  0
 19 20  1  0  0  0  0
 19  3  1  0  0  0  0
 20 15  2  0  0  0  0
 23 24  1  0  0  0  0
 24 21  1  0  0  0  0
 25 22  2  0  0  0  0
 25 24  1  0  0  0  0
 27 26  1  6  0  0  0
 27 28  1  0  0  0  0
 27 25  1  0  0  0  0
 29 28  1  0  0  0  0
 29 31  2  0  0  0  0
 30 29  1  0  0  0  0
M  END
>  <MODEL>
1

>  <REMARK>
 VINA RESULT:      -7.8      0.000      0.000
  Name = 
  5 active torsions:
  status: ('A' for Active; 'I' for Inactive)
    1  A    between atoms: C_1  and  C_24
    2  A    between atoms: N_9  and  C_23
    3  A    between atoms: C_15  and  C_23
    4  A    between atoms: C_19  and  C_22
    5  A    between atoms: C_19  and  C_24
                            x       y       z     vdW  Elec       q    Type
                         _______ _______ _______ _____ _____    ______ ____

>  <TORSDO>
F 5

$$$$
=
 OpenBabel10262419183D

 31 34  0  0  1  0  0  0  0  0999 V2000
  185.3010  179.1230  145.8750 C   0  0  0  0  0  0  0  0  0  0  0  0
  186.6190  178.3090  142.4330 C   0  0  0  0  0  0  0  0  0  0  0  0
  187.9530  177.7250  142.4840 C   0  0  2  0  0  3  0  0  0  0  0  0
  189.3660  176.0870  143.6780 C   0  0  0  0  0  3  0  0  0  0  0  0
  185.6910  178.5190  143.5670 C   0  0  0  0  0  0  0  0  0  0  0  0
  183.9640  178.9550  145.6900 N   0  0  0  0  0  0  0  0  0  0  0  0
  188.7260  177.4330  143.7250 C   0  0  0  0  0  2  0  0  0  0  0  0
  183.8100  178.7490  140.9480 C   0  0  1  0  0  3  0  0  0  0  0  0
  185.9130  179.5900  147.4470 Cl  0  0  0  0  0  0  0  0  0  0  0  0
  187.5040  178.3170  140.2830 C   0  0  0  0  0  3  0  0  0  0  0  0
  190.2020  175.6830  142.7180 C   0  0  0  0  0  3  0  0  0  0  0  0
  183.7320  177.7830  142.1360 C   0  0  0  0  0  2  0  0  0  0  0  0
  186.3540  178.6400  141.1750 C   0  0  0  0  0  0  0  0  0  0  0  0
  186.1860  178.9100  144.8160 C   0  0  0  0  0  3  0  0  0  0  0  0
  190.5490  176.4360  141.5430 N   0  0  0  0  0  0  0  0  0  0  0  0
  184.3030  178.3410  143.4050 C   0  0  0  0  0  0  0  0  0  0  0  0
  183.4540  178.5680  144.4890 C   0  0  0  0  0  3  0  0  0  0  0  0
  185.1620  179.4470  140.7490 C   0  0  0  0  0  2  0  0  0  0  0  0
  188.4630  177.7190  141.2610 C   0  0  0  0  0  0  0  0  0  0  0  0
  189.8270  177.3030  140.8930 C   0  0  0  0  0  3  0  0  0  0  0  0
  183.4100  178.0250  139.6730 C   0  0  0  0  0  2  0  0  0  0  0  0
  181.4380  179.9410  139.0810 O   0  0  0  0  0  0  0  0  0  0  0  0
  181.5440  176.4790  139.8680 O   0  0  0  0  0  1  0  0  0  0  0  0
  181.9790  177.7480  139.6740 N   0  0  0  0  0  0  0  0  0  0  0  0
  181.0360  178.7910  139.4100 C   0  0  0  0  0  0  0  0  0  0  0  0
  178.9310  178.9340  138.3400 O   0  0  0  0  0  1  0  0  0  0  0  0
  179.5630  178.5160  139.5110 C   0  0  2  0  0  3  0  0  0  0  0  0
  178.9410  179.2310  140.7090 C   0  0  0  0  0  2  0  0  0  0  0  0
  179.5110  178.7400  142.0030 C   0  0  0  0  0  0  0  0  0  0  0  0
  180.2910  179.6690  142.8670 C   0  0  0  0  0  1  0  0  0  0  0  0
  179.3470  177.5800  142.3490 O   0  0  0  0  0  0  0  0  0  0  0  0
  1  9  1  0  0  0  0
  2  3  1  0  0  0  0
  2  5  1  0  0  0  0
  3  7  1  1  0  0  0
  4  7  1  0  0  0  0
  5 14  1  0  0  0  0
  6  1  1  0  0  0  0
  8 21  1  6  0  0  0
  8 12  1  0  0  0  0
 10 13  1  0  0  0  0
 10 19  2  0  0  0  0
 11  4  2  0  0  0  0
 12 16  1  0  0  0  0
 13  2  2  0  0  0  0
 14  1  2  0  0  0  0
 15 11  1  0  0  0  0
 16  5  2  0  0  0  0
 16 17  1  0  0  0  0
 17  6  2  0  0  0  0
 18  8  1  0  0  0  0
 18 13  1  0  0  0  0
 19  3  1  0  0  0  0
 20 19  1  0  0  0  0
 20 15  2  0  0  0  0
 21 24  1  0  0  0  0
 22 25  2  0  0  0  0
 24 23  1  0  0  0  0
 25 27  1  0  0  0  0
 25 24  1  0  0  0  0
 27 26  1  6  0  0  0
 27 28  1  0  0  0  0
 28 29  1  0  0  0  0
 29 31  2  0  0  0  0
 29 30  1  0  0  0  0
M  END
>  <MODEL>
2

>  <REMARK>
 VINA RESULT:      -7.6      4.433      7.242
  Name = 
  5 active torsions:
  status: ('A' for Active; 'I' for Inactive)
    1  A    between atoms: C_1  and  C_24
    2  A    between atoms: N_9  and  C_23
    3  A    between atoms: C_15  and  C_23
    4  A    between atoms: C_19  and  C_22
    5  A    between atoms: C_19  and  C_24
                            x       y       z     vdW  Elec       q    Type
                         _______ _______ _______ _____ _____    ______ ____

>  <TORSDO>
F 5

$$$$
=
 OpenBabel10262419183D

 31 34  0  0  1  0  0  0  0  0999 V2000
  185.3820  179.1500  146.0160 C   0  0  0  0  0  0  0  0  0  0  0  0
  186.6600  178.2980  142.5680 C   0  0  0  0  0  0  0  0  0  0  0  0
  187.9850  177.6930  142.6130 C   0  0  2  0  0  3  0  0  0  0  0  0
  189.3820  176.0400  143.8040 C   0  0  0  0  0  3  0  0  0  0  0  0
  185.7450  178.5290  143.7080 C   0  0  0  0  0  0  0  0  0  0  0  0
  184.0410  179.0030  145.8420 N   0  0  0  0  0  0  0  0  0  0  0  0
  188.7630  177.3960  143.8480 C   0  0  0  0  0  2  0  0  0  0  0  0
  183.8470  178.7750  141.1020 C   0  0  1  0  0  3  0  0  0  0  0  0
  186.0140  179.6160  147.5810 Cl  0  0  0  0  0  0  0  0  0  0  0  0
  187.5290  178.2810  140.4110 C   0  0  0  0  0  3  0  0  0  0  0  0
  190.2040  175.6170  142.8400 C   0  0  0  0  0  3  0  0  0  0  0  0
  183.7640  177.8160  142.2960 C   0  0  0  0  0  2  0  0  0  0  0  0
  186.3910  178.6270  141.3100 C   0  0  0  0  0  0  0  0  0  0  0  0
  186.2550  178.9180  144.9510 C   0  0  0  0  0  3  0  0  0  0  0  0
  190.5540  176.3580  141.6590 N   0  0  0  0  0  0  0  0  0  0  0  0
  184.3530  178.3720  143.5570 C   0  0  0  0  0  0  0  0  0  0  0  0
  183.5160  178.6170  144.6470 C   0  0  0  0  0  3  0  0  0  0  0  0
  185.2080  179.4500  140.8890 C   0  0  0  0  0  2  0  0  0  0  0  0
  188.4860  177.6730  141.3850 C   0  0  0  0  0  0  0  0  0  0  0  0
  189.8400  177.2340  141.0090 C   0  0  0  0  0  3  0  0  0  0  0  0
  183.4270  178.0500  139.8340 C   0  0  0  0  0  2  0  0  0  0  0  0
  182.6780  178.0600  137.1230 O   0  0  0  0  0  0  0  0  0  0  0  0
  181.2310  179.0170  140.2210 O   0  0  0  0  0  1  0  0  0  0  0  0
  182.1640  178.5850  139.3390 N   0  0  0  0  0  0  0  0  0  0  0  0
  181.8780  178.5970  137.9380 C   0  0  0  0  0  0  0  0  0  0  0  0
  180.0210  178.4100  136.4840 O   0  0  0  0  0  1  0  0  0  0  0  0
  180.6190  179.2400  137.4330 C   0  0  2  0  0  3  0  0  0  0  0  0
  180.8980  180.6060  136.8100 C   0  0  0  0  0  2  0  0  0  0  0  0
  180.8350  181.7010  137.8290 C   0  0  0  0  0  0  0  0  0  0  0  0
  179.5170  182.2820  138.2090 C   0  0  0  0  0  1  0  0  0  0  0  0
  181.8580  182.1260  138.3440 O   0  0  0  0  0  0  0  0  0  0  0  0
  1  9  1  0  0  0  0
  2  3  1  0  0  0  0
  2  5  1  0  0  0  0
  3  7  1  1  0  0  0
  4  7  1  0  0  0  0
  5 14  1  0  0  0  0
  6  1  1  0  0  0  0
  8 21  1  6  0  0  0
  8 12  1  0  0  0  0
 10 13  1  0  0  0  0
 10 19  2  0  0  0  0
 11  4  2  0  0  0  0
 12 16  1  0  0  0  0
 13  2  2  0  0  0  0
 14  1  2  0  0  0  0
 15 11  1  0  0  0  0
 16  5  2  0  0  0  0
 16 17  1  0  0  0  0
 17  6  2  0  0  0  0
 18  8  1  0  0  0  0
 18 13  1  0  0  0  0
 19  3  1  0  0  0  0
 20 19  1  0  0  0  0
 20 15  2  0  0  0  0
 22 25  2  0  0  0  0
 24 21  1  0  0  0  0
 24 23  1  0  0  0  0
 25 24  1  0  0  0  0
 27 26  1  6  0  0  0
 27 25  1  0  0  0  0
 28 27  1  0  0  0  0
 28 29  1  0  0  0  0
 29 30  1  0  0  0  0
 29 31  2  0  0  0  0
M  END
>  <MODEL>
3

>  <REMARK>
 VINA RESULT:      -7.3      4.524      6.906
  Name = 
  5 active torsions:
  status: ('A' for Active; 'I' for Inactive)
    1  A    between atoms: C_1  and  C_24
    2  A    between atoms: N_9  and  C_23
    3  A    between atoms: C_15  and  C_23
    4  A    between atoms: C_19  and  C_22
    5  A    between atoms: C_19  and  C_24
                            x       y       z     vdW  Elec       q    Type
                         _______ _______ _______ _____ _____    ______ ____

>  <TORSDO>
F 5

$$$$
=
 OpenBabel10262419183D

 31 34  0  0  1  0  0  0  0  0999 V2000
  185.4140  179.1420  146.0440 C   0  0  0  0  0  0  0  0  0  0  0  0
  186.6780  178.2930  142.5900 C   0  0  0  0  0  0  0  0  0  0  0  0
  187.9990  177.6810  142.6280 C   0  0  2  0  0  3  0  0  0  0  0  0
  189.3900  176.0150  143.8110 C   0  0  0  0  0  3  0  0  0  0  0  0
  185.7670  178.5250  143.7340 C   0  0  0  0  0  0  0  0  0  0  0  0
  184.0720  179.0030  145.8730 N   0  0  0  0  0  0  0  0  0  0  0  0
  188.7790  177.3750  143.8610 C   0  0  0  0  0  2  0  0  0  0  0  0
  183.8630  178.7910  141.1340 C   0  0  1  0  0  3  0  0  0  0  0  0
  186.0540  179.5990  147.6090 Cl  0  0  0  0  0  0  0  0  0  0  0  0
  187.5400  178.2780  140.4300 C   0  0  0  0  0  3  0  0  0  0  0  0
  190.2070  175.5910  142.8430 C   0  0  0  0  0  3  0  0  0  0  0  0
  183.7780  177.8280  142.3250 C   0  0  0  0  0  2  0  0  0  0  0  0
  186.4070  178.6270  141.3340 C   0  0  0  0  0  0  0  0  0  0  0  0
  186.2840  178.9080  144.9760 C   0  0  0  0  0  3  0  0  0  0  0  0
  190.5570  176.3340  141.6630 N   0  0  0  0  0  0  0  0  0  0  0  0
  184.3740  178.3770  143.5860 C   0  0  0  0  0  0  0  0  0  0  0  0
  183.5420  178.6240  144.6790 C   0  0  0  0  0  3  0  0  0  0  0  0
  185.2280  179.4590  140.9190 C   0  0  0  0  0  2  0  0  0  0  0  0
  188.4960  177.6610  141.4000 C   0  0  0  0  0  0  0  0  0  0  0  0
  189.8470  177.2160  141.0180 C   0  0  0  0  0  3  0  0  0  0  0  0
  183.4350  178.0730  139.8650 C   0  0  0  0  0  2  0  0  0  0  0  0
  184.4430  176.2590  137.9660 O   0  0  0  0  0  0  0  0  0  0  0  0
  184.5610  179.7640  138.5310 O   0  0  0  0  0  1  0  0  0  0  0  0
  184.2960  178.4530  138.7510 N   0  0  0  0  0  0  0  0  0  0  0  0
  184.8080  177.4630  137.8550 C   0  0  0  0  0  0  0  0  0  0  0  0
  185.2460  177.4990  135.5310 O   0  0  0  0  0  1  0  0  0  0  0  0
  185.7720  177.8550  136.7730 C   0  0  2  0  0  3  0  0  0  0  0  0
  187.1300  177.1820  136.9620 C   0  0  0  0  0  2  0  0  0  0  0  0
  188.2370  178.1860  137.0370 C   0  0  0  0  0  0  0  0  0  0  0  0
  189.6370  177.7270  137.2550 C   0  0  0  0  0  1  0  0  0  0  0  0
  187.9990  179.3790  136.9290 O   0  0  0  0  0  0  0  0  0  0  0  0
  1  9  1  0  0  0  0
  2  3  1  0  0  0  0
  2  5  1  0  0  0  0
  3  7  1  1  0  0  0
  4  7  1  0  0  0  0
  5 14  1  0  0  0  0
  6  1  1  0  0  0  0
  8 21  1  6  0  0  0
  8 12  1  0  0  0  0
 10 13  1  0  0  0  0
 10 19  2  0  0  0  0
 11  4  2  0  0  0  0
 12 16  1  0  0  0  0
 13  2  2  0  0  0  0
 14  1  2  0  0  0  0
 15 11  1  0  0  0  0
 16  5  2  0  0  0  0
 16 17  1  0  0  0  0
 17  6  2  0  0  0  0
 18  8  1  0  0  0  0
 18 13  1  0  0  0  0
 19  3  1  0  0  0  0
 20 19  1  0  0  0  0
 20 15  2  0  0  0  0
 23 24  1  0  0  0  0
 24 21  1  0  0  0  0
 25 22  2  0  0  0  0
 25 24  1  0  0  0  0
 27 26  1  6  0  0  0
 27 28  1  0  0  0  0
 27 25  1  0  0  0  0
 28 29  1  0  0  0  0
 29 30  1  0  0  0  0
 31 29  2  0  0  0  0
M  END
>  <MODEL>
4

>  <REMARK>
 VINA RESULT:      -7.2      2.589      5.215
  Name = 
  5 active torsions:
  status: ('A' for Active; 'I' for Inactive)
    1  A    between atoms: C_1  and  C_24
    2  A    between atoms: N_9  and  C_23
    3  A    between atoms: C_15  and  C_23
    4  A    between atoms: C_19  and  C_22
    5  A    between atoms: C_19  and  C_24
                            x       y       z     vdW  Elec       q    Type
                         _______ _______ _______ _____ _____    ______ ____

>  <TORSDO>
F 5

$$$$
=
 OpenBabel10262419183D

 31 34  0  0  1  0  0  0  0  0999 V2000
  185.8850  178.6660  139.3160 C   0  0  0  0  0  0  0  0  0  0  0  0
  183.1410  178.5870  141.9080 C   0  0  0  0  0  0  0  0  0  0  0  0
  181.8910  178.0770  141.3610 C   0  0  0  0  0  0  0  0  0  0  0  0
  180.9140  176.3230  139.9220 C   0  0  0  0  0  3  0  0  0  0  0  0
  184.4800  178.5300  141.2780 C   0  0  0  0  0  0  0  0  0  0  0  0
  186.9840  178.4650  140.0920 N   0  0  0  0  0  0  0  0  0  0  0  0
  181.6840  177.5990  139.9650 C   0  0  0  0  0  2  0  0  0  0  0  0
  185.0910  179.1470  144.3930 C   0  0  1  0  0  3  0  0  0  0  0  0
  186.0610  178.8620  137.5850 Cl  0  0  0  0  0  0  0  0  0  0  0  0
  181.4400  179.0470  143.4240 C   0  0  0  0  0  3  0  0  0  0  0  0
  179.7060  176.1520  140.4640 C   0  0  0  0  0  3  0  0  0  0  0  0
  185.5360  177.9710  143.5150 C   0  0  0  0  0  2  0  0  0  0  0  0
  182.8910  179.1340  143.0910 C   0  0  2  0  0  3  0  0  0  0  0  0
  184.6160  178.7050  139.8970 C   0  0  0  0  0  3  0  0  0  0  0  0
  178.9960  177.1300  141.2440 N   0  0  0  0  0  0  0  0  0  0  0  0
  185.6340  178.3110  142.0580 C   0  0  0  0  0  0  0  0  0  0  0  0
  186.8830  178.2830  141.4360 C   0  0  0  0  0  3  0  0  0  0  0  0
  183.8850  179.9410  143.8740 C   0  0  0  0  0  2  0  0  0  0  0  0
  180.9150  178.3290  142.2230 C   0  0  0  0  0  0  0  0  0  0  0  0
  179.4830  178.0640  142.0110 C   0  0  0  0  0  3  0  0  0  0  0  0
  184.8150  178.6540  145.8040 C   0  0  0  0  0  2  0  0  0  0  0  0
  186.3770  179.5440  147.9680 O   0  0  0  0  0  0  0  0  0  0  0  0
  186.2780  176.7130  145.8260 O   0  0  0  0  0  1  0  0  0  0  0  0
  185.9720  177.9350  146.3250 N   0  0  0  0  0  0  0  0  0  0  0  0
  186.7450  178.4790  147.3990 C   0  0  0  0  0  0  0  0  0  0  0  0
  188.1750  178.0080  149.2230 O   0  0  0  0  0  1  0  0  0  0  0  0
  187.9900  177.7780  147.8590 C   0  0  2  0  0  3  0  0  0  0  0  0
  189.2200  178.2570  147.0910 C   0  0  0  0  0  2  0  0  0  0  0  0
  189.9240  177.1230  146.4140 C   0  0  0  0  0  0  0  0  0  0  0  0
  191.0670  176.4520  147.0940 C   0  0  0  0  0  1  0  0  0  0  0  0
  189.5720  176.7500  145.3050 O   0  0  0  0  0  0  0  0  0  0  0  0
  1 14  2  0  0  0  0
  1  6  1  0  0  0  0
  2 13  1  0  0  0  0
  3  2  2  0  0  0  0
  3 19  1  0  0  0  0
  4  7  1  0  0  0  0
  4 11  2  0  0  0  0
  5  2  1  0  0  0  0
  5 16  2  0  0  0  0
  6 17  2  0  0  0  0
  7  3  1  0  0  0  0
  8 21  1  1  0  0  0
  9  1  1  0  0  0  0
 11 15  1  0  0  0  0
 12  8  1  0  0  0  0
 13 10  1  6  0  0  0
 13 18  1  0  0  0  0
 14  5  1  0  0  0  0
 15 20  2  0  0  0  0
 16 12  1  0  0  0  0
 17 16  1  0  0  0  0
 18  8  1  0  0  0  0
 19 10  2  0  0  0  0
 20 19  1  0  0  0  0
 21 24  1  0  0  0  0
 23 24  1  0  0  0  0
 24 25  1  0  0  0  0
 25 27  1  0  0  0  0
 25 22  2  0  0  0  0
 27 26  1  1  0  0  0
 28 27  1  0  0  0  0
 29 28  1  0  0  0  0
 29 30  1  0  0  0  0
 31 29  2  0  0  0  0
M  END
>  <MODEL>
5

>  <REMARK>
 VINA RESULT:      -7.2      5.102      8.250
  Name = 
  5 active torsions:
  status: ('A' for Active; 'I' for Inactive)
    1  A    between atoms: C_1  and  C_24
    2  A    between atoms: N_9  and  C_23
    3  A    between atoms: C_15  and  C_23
    4  A    between atoms: C_19  and  C_22
    5  A    between atoms: C_19  and  C_24
                            x       y       z     vdW  Elec       q    Type
                         _______ _______ _______ _____ _____    ______ ____

>  <TORSDO>
F 5

$$$$
=
 OpenBabel10262419183D

 31 34  0  0  1  0  0  0  0  0999 V2000
  193.1420  176.3940  137.2820 C   0  0  0  0  0  0  0  0  0  0  0  0
  189.3950  176.3610  137.7310 C   0  0  0  0  0  0  0  0  0  0  0  0
  188.7440  175.4410  136.8080 C   0  0  0  0  0  0  0  0  0  0  0  0
  188.8870  173.1870  135.8070 C   0  0  0  0  0  3  0  0  0  0  0  0
  190.8430  176.4570  138.0240 C   0  0  0  0  0  0  0  0  0  0  0  0
  193.5560  176.6730  138.5470 N   0  0  0  0  0  0  0  0  0  0  0  0
  189.4360  174.5730  135.8130 C   0  0  0  0  0  2  0  0  0  0  0  0
  189.4300  178.0090  140.4830 C   0  0  1  0  0  3  0  0  0  0  0  0
  194.3220  176.1560  136.0100 Cl  0  0  0  0  0  0  0  0  0  0  0  0
  187.1100  176.7910  137.7610 C   0  0  0  0  0  3  0  0  0  0  0  0
  187.6020  172.8850  135.6040 C   0  0  0  0  0  3  0  0  0  0  0  0
  190.3500  176.7820  140.4900 C   0  0  0  0  0  2  0  0  0  0  0  0
  188.4640  177.1280  138.2860 C   0  0  2  0  0  3  0  0  0  0  0  0
  191.7790  176.2830  136.9990 C   0  0  0  0  0  3  0  0  0  0  0  0
  186.5370  173.8380  135.4470 N   0  0  0  0  0  0  0  0  0  0  0  0
  191.2970  176.7340  139.3290 C   0  0  0  0  0  0  0  0  0  0  0  0
  192.6690  176.8390  139.5660 C   0  0  0  0  0  3  0  0  0  0  0  0
  188.7600  178.3260  139.1400 C   0  0  0  0  0  2  0  0  0  0  0  0
  187.4390  175.6750  136.8220 C   0  0  0  0  0  0  0  0  0  0  0  0
  186.4330  175.0310  135.9610 C   0  0  0  0  0  3  0  0  0  0  0  0
  188.3730  177.8600  141.5650 C   0  0  0  0  0  2  0  0  0  0  0  0
  187.5570  176.3780  143.8120 O   0  0  0  0  0  0  0  0  0  0  0  0
  190.0680  178.7710  143.0510 O   0  0  0  0  0  1  0  0  0  0  0  0
  188.9790  177.9820  142.8860 N   0  0  0  0  0  0  0  0  0  0  0  0
  188.4740  177.2270  143.9910 C   0  0  0  0  0  0  0  0  0  0  0  0
  190.2590  176.7620  145.4710 O   0  0  0  0  0  1  0  0  0  0  0  0
  189.0420  177.4350  145.3650 C   0  0  2  0  0  3  0  0  0  0  0  0
  188.0880  176.9340  146.4480 C   0  0  0  0  0  2  0  0  0  0  0  0
  187.8940  177.9530  147.5270 C   0  0  0  0  0  0  0  0  0  0  0  0
  189.0080  178.2530  148.4680 C   0  0  0  0  0  1  0  0  0  0  0  0
  186.8250  178.5330  147.6450 O   0  0  0  0  0  0  0  0  0  0  0  0
  1  6  1  0  0  0  0
  2  5  1  0  0  0  0
  2 13  1  0  0  0  0
  3 19  1  0  0  0  0
  3  2  2  0  0  0  0
  4  7  1  0  0  0  0
  5 16  2  0  0  0  0
  6 17  2  0  0  0  0
  7  3  1  0  0  0  0
  8 12  1  0  0  0  0
  8 21  1  1  0  0  0
  9  1  1  0  0  0  0
 11  4  2  0  0  0  0
 13 10  1  6  0  0  0
 13 18  1  0  0  0  0
 14  1  2  0  0  0  0
 14  5  1  0  0  0  0
 15 11  1  0  0  0  0
 15 20  2  0  0  0  0
 16 17  1  0  0  0  0
 16 12  1  0  0  0  0
 18  8  1  0  0  0  0
 19 10  2  0  0  0  0
 20 19  1  0  0  0  0
 21 24  1  0  0  0  0
 22 25  2  0  0  0  0
 24 23  1  0  0  0  0
 24 25  1  0  0  0  0
 25 27  1  0  0  0  0
 27 26  1  6  0  0  0
 27 28  1  0  0  0  0
 28 29  1  0  0  0  0
 29 31  2  0  0  0  0
 29 30  1  0  0  0  0
M  END
>  <MODEL>
6

>  <REMARK>
 VINA RESULT:      -7.2      3.984      8.587
  Name = 
  5 active torsions:
  status: ('A' for Active; 'I' for Inactive)
    1  A    between atoms: C_1  and  C_24
    2  A    between atoms: N_9  and  C_23
    3  A    between atoms: C_15  and  C_23
    4  A    between atoms: C_19  and  C_22
    5  A    between atoms: C_19  and  C_24
                            x       y       z     vdW  Elec       q    Type
                         _______ _______ _______ _____ _____    ______ ____

>  <TORSDO>
F 5

$$$$
=
 OpenBabel10262419183D

 31 34  0  0  1  0  0  0  0  0999 V2000
  185.4120  179.1550  146.0150 C   0  0  0  0  0  0  0  0  0  0  0  0
  186.6880  178.2960  142.5680 C   0  0  0  0  0  0  0  0  0  0  0  0
  188.0150  177.6960  142.6120 C   0  0  2  0  0  3  0  0  0  0  0  0
  189.4190  176.0510  143.8070 C   0  0  0  0  0  3  0  0  0  0  0  0
  185.7740  178.5270  143.7090 C   0  0  0  0  0  0  0  0  0  0  0  0
  184.0710  179.0030  145.8440 N   0  0  0  0  0  0  0  0  0  0  0  0
  188.7960  177.4050  143.8480 C   0  0  0  0  0  2  0  0  0  0  0  0
  183.8710  178.7580  141.1050 C   0  0  1  0  0  3  0  0  0  0  0  0
  186.0450  179.6280  147.5780 Cl  0  0  0  0  0  0  0  0  0  0  0  0
  187.5530  178.2740  140.4100 C   0  0  0  0  0  3  0  0  0  0  0  0
  190.2410  175.6280  142.8430 C   0  0  0  0  0  3  0  0  0  0  0  0
  183.7920  177.8030  142.3020 C   0  0  0  0  0  2  0  0  0  0  0  0
  186.4150  178.6190  141.3100 C   0  0  0  0  0  0  0  0  0  0  0  0
  186.2850  178.9220  144.9500 C   0  0  0  0  0  3  0  0  0  0  0  0
  190.5860  176.3660  141.6590 N   0  0  0  0  0  0  0  0  0  0  0  0
  184.3810  178.3650  143.5610 C   0  0  0  0  0  0  0  0  0  0  0  0
  183.5460  178.6120  144.6510 C   0  0  0  0  0  3  0  0  0  0  0  0
  185.2290  179.4370  140.8880 C   0  0  0  0  0  2  0  0  0  0  0  0
  188.5140  177.6730  141.3850 C   0  0  0  0  0  0  0  0  0  0  0  0
  189.8690  177.2370  141.0070 C   0  0  0  0  0  3  0  0  0  0  0  0
  183.4510  178.0280  139.8410 C   0  0  0  0  0  2  0  0  0  0  0  0
  182.3880  175.5710  138.9750 O   0  0  0  0  0  0  0  0  0  0  0  0
  181.1660  178.5410  140.4930 O   0  0  0  0  0  1  0  0  0  0  0  0
  182.0340  177.6870  139.8990 N   0  0  0  0  0  0  0  0  0  0  0  0
  181.5660  176.4330  139.3920 C   0  0  0  0  0  0  0  0  0  0  0  0
  179.3960  177.2800  138.9820 O   0  0  0  0  0  1  0  0  0  0  0  0
  180.0950  176.1360  139.3670 C   0  0  2  0  0  3  0  0  0  0  0  0
  179.5930  175.6700  140.7330 C   0  0  0  0  0  2  0  0  0  0  0  0
  179.4080  174.1850  140.7750 C   0  0  0  0  0  0  0  0  0  0  0  0
  179.3060  173.4910  142.0890 C   0  0  0  0  0  1  0  0  0  0  0  0
  179.3480  173.5400  139.7400 O   0  0  0  0  0  0  0  0  0  0  0  0
  1  9  1  0  0  0  0
  2  3  1  0  0  0  0
  2  5  1  0  0  0  0
  3  7  1  1  0  0  0
  4  7  1  0  0  0  0
  5 14  1  0  0  0  0
  6  1  1  0  0  0  0
  8 21  1  6  0  0  0
  8 12  1  0  0  0  0
 10 13  1  0  0  0  0
 10 19  2  0  0  0  0
 11  4  2  0  0  0  0
 12 16  1  0  0  0  0
 13  2  2  0  0  0  0
 14  1  2  0  0  0  0
 15 11  1  0  0  0  0
 16  5  2  0  0  0  0
 16 17  1  0  0  0  0
 17  6  2  0  0  0  0
 18  8  1  0  0  0  0
 18 13  1  0  0  0  0
 19  3  1  0  0  0  0
 20 19  1  0  0  0  0
 20 15  2  0  0  0  0
 21 24  1  0  0  0  0
 22 25  2  0  0  0  0
 24 23  1  0  0  0  0
 25 24  1  0  0  0  0
 27 26  1  1  0  0  0
 27 25  1  0  0  0  0
 27 28  1  0  0  0  0
 28 29  1  0  0  0  0
 29 30  1  0  0  0  0
 31 29  2  0  0  0  0
M  END
>  <MODEL>
7

>  <REMARK>
 VINA RESULT:      -7.2      4.590      6.952
  Name = 
  5 active torsions:
  status: ('A' for Active; 'I' for Inactive)
    1  A    between atoms: C_1  and  C_24
    2  A    between atoms: N_9  and  C_23
    3  A    between atoms: C_15  and  C_23
    4  A    between atoms: C_19  and  C_22
    5  A    between atoms: C_19  and  C_24
                            x       y       z     vdW  Elec       q    Type
                         _______ _______ _______ _____ _____    ______ ____

>  <TORSDO>
F 5

$$$$
=
 OpenBabel10262419183D

 31 34  0  0  1  0  0  0  0  0999 V2000
  188.9540  176.8980  147.2770 C   0  0  0  0  0  0  0  0  0  0  0  0
  187.6750  177.5900  143.7940 C   0  0  0  0  0  0  0  0  0  0  0  0
  186.3190  178.1230  143.8080 C   0  0  2  0  0  3  0  0  0  0  0  0
  184.8210  179.7290  144.9390 C   0  0  0  0  0  3  0  0  0  0  0  0
  188.5870  177.4390  144.9500 C   0  0  0  0  0  0  0  0  0  0  0  0
  190.2870  177.1120  147.1140 N   0  0  0  0  0  0  0  0  0  0  0  0
  185.5110  178.4100  145.0260 C   0  0  0  0  0  2  0  0  0  0  0  0
  190.5280  177.2280  142.3730 C   0  0  1  0  0  3  0  0  0  0  0  0
  188.3280  176.4390  148.8470 Cl  0  0  0  0  0  0  0  0  0  0  0  0
  186.8340  177.5050  141.6280 C   0  0  0  0  0  3  0  0  0  0  0  0
  183.9890  180.0820  143.9550 C   0  0  0  0  0  3  0  0  0  0  0  0
  190.5450  178.2210  143.5410 C   0  0  0  0  0  2  0  0  0  0  0  0
  187.9780  177.2440  142.5480 C   0  0  0  0  0  0  0  0  0  0  0  0
  188.0830  177.0550  146.1970 C   0  0  0  0  0  3  0  0  0  0  0  0
  183.6950  179.2930  142.7900 N   0  0  0  0  0  0  0  0  0  0  0  0
  189.9710  177.6670  144.8100 C   0  0  0  0  0  0  0  0  0  0  0  0
  190.8060  177.4950  145.9150 C   0  0  0  0  0  3  0  0  0  0  0  0
  189.2080  176.4750  142.1630 C   0  0  0  0  0  2  0  0  0  0  0  0
  185.8330  178.0850  142.5750 C   0  0  0  0  0  0  0  0  0  0  0  0
  184.4630  178.4400  142.1720 C   0  0  0  0  0  3  0  0  0  0  0  0
  190.9250  177.9420  141.0910 C   0  0  0  0  0  2  0  0  0  0  0  0
  189.0530  179.0040  139.2800 O   0  0  0  0  0  0  0  0  0  0  0  0
  190.9280  176.0070  139.6200 O   0  0  0  0  0  1  0  0  0  0  0  0
  190.4140  177.2220  139.9300 N   0  0  0  0  0  0  0  0  0  0  0  0
  189.4250  177.8140  139.0830 C   0  0  0  0  0  0  0  0  0  0  0  0
  189.5200  177.3220  136.7720 O   0  0  0  0  0  1  0  0  0  0  0  0
  188.8360  177.0240  137.9510 C   0  0  2  0  0  3  0  0  0  0  0  0
  187.3510  177.3290  137.7680 C   0  0  0  0  0  2  0  0  0  0  0  0
  186.6980  176.3550  136.8380 C   0  0  0  0  0  0  0  0  0  0  0  0
  186.3330  176.7810  135.4590 C   0  0  0  0  0  1  0  0  0  0  0  0
  186.4550  175.2160  137.2070 O   0  0  0  0  0  0  0  0  0  0  0  0
  1  9  1  0  0  0  0
  2  3  1  0  0  0  0
  2  5  1  0  0  0  0
  3  7  1  1  0  0  0
  4  7  1  0  0  0  0
  5 14  1  0  0  0  0
  6  1  1  0  0  0  0
  8 21  1  6  0  0  0
  8 12  1  0  0  0  0
 10 13  1  0  0  0  0
 10 19  2  0  0  0  0
 11  4  2  0  0  0  0
 12 16  1  0  0  0  0
 13  2  2  0  0  0  0
 14  1  2  0  0  0  0
 15 11  1  0  0  0  0
 16  5  2  0  0  0  0
 16 17  1  0  0  0  0
 17  6  2  0  0  0  0
 18  8  1  0  0  0  0
 18 13  1  0  0  0  0
 19  3  1  0  0  0  0
 20 19  1  0  0  0  0
 20 15  2  0  0  0  0
 23 24  1  0  0  0  0
 24 21  1  0  0  0  0
 25 22  2  0  0  0  0
 25 24  1  0  0  0  0
 27 26  1  6  0  0  0
 27 25  1  0  0  0  0
 28 27  1  0  0  0  0
 29 31  2  0  0  0  0
 29 28  1  0  0  0  0
 30 29  1  0  0  0  0
M  END
>  <MODEL>
8

>  <REMARK>
 VINA RESULT:      -7.2      1.948      2.386
  Name = 
  5 active torsions:
  status: ('A' for Active; 'I' for Inactive)
    1  A    between atoms: C_1  and  C_24
    2  A    between atoms: N_9  and  C_23
    3  A    between atoms: C_15  and  C_23
    4  A    between atoms: C_19  and  C_22
    5  A    between atoms: C_19  and  C_24
                            x       y       z     vdW  Elec       q    Type
                         _______ _______ _______ _____ _____    ______ ____

>  <TORSDO>
F 5

$$$$
=
 OpenBabel10262419183D

 31 34  0  0  1  0  0  0  0  0999 V2000
  182.8890  178.5640  142.2050 C   0  0  0  0  0  0  0  0  0  0  0  0
  186.4940  177.7540  142.9770 C   0  0  0  0  0  0  0  0  0  0  0  0
  187.3150  177.7230  141.7740 C   0  0  0  0  0  0  0  0  0  0  0  0
  187.7810  178.8950  139.6490 C   0  0  0  0  0  3  0  0  0  0  0  0
  185.1140  178.2750  143.1040 C   0  0  0  0  0  0  0  0  0  0  0  0
  182.5160  179.2090  143.3420 N   0  0  0  0  0  0  0  0  0  0  0  0
  186.8400  178.0070  140.3900 C   0  0  0  0  0  2  0  0  0  0  0  0
  186.1860  178.1140  146.1500 C   0  0  1  0  0  3  0  0  0  0  0  0
  181.7370  178.3500  140.9030 Cl  0  0  0  0  0  0  0  0  0  0  0  0
  188.5350  176.7750  143.5100 C   0  0  0  0  0  3  0  0  0  0  0  0
  189.0750  178.6290  139.4580 C   0  0  0  0  0  3  0  0  0  0  0  0
  185.6850  179.3180  145.3430 C   0  0  0  0  0  2  0  0  0  0  0  0
  187.1900  177.2220  143.9750 C   0  0  2  0  0  3  0  0  0  0  0  0
  184.1930  178.0840  142.0680 C   0  0  0  0  0  3  0  0  0  0  0  0
  189.7850  177.5030  140.0010 N   0  0  0  0  0  0  0  0  0  0  0  0
  184.7050  178.9560  144.2680 C   0  0  0  0  0  0  0  0  0  0  0  0
  183.3910  179.4160  144.3630 C   0  0  0  0  0  3  0  0  0  0  0  0
  186.6160  176.8950  145.3230 C   0  0  0  0  0  2  0  0  0  0  0  0
  188.4840  177.1730  142.0700 C   0  0  0  0  0  0  0  0  0  0  0  0
  189.5640  176.8660  141.1170 C   0  0  0  0  0  3  0  0  0  0  0  0
  187.3230  178.5470  147.0610 C   0  0  0  0  0  2  0  0  0  0  0  0
  189.8600  178.7340  145.8610 O   0  0  0  0  0  0  0  0  0  0  0  0
  188.1180  176.4110  147.9050 O   0  0  0  0  0  1  0  0  0  0  0  0
  188.3390  177.5030  147.1350 N   0  0  0  0  0  0  0  0  0  0  0  0
  189.5880  177.6540  146.4560 C   0  0  0  0  0  0  0  0  0  0  0  0
  191.1610  176.4250  147.7240 O   0  0  0  0  0  1  0  0  0  0  0  0
  190.5850  176.5320  146.4580 C   0  0  2  0  0  3  0  0  0  0  0  0
  191.6810  176.7530  145.4170 C   0  0  0  0  0  2  0  0  0  0  0  0
  191.8530  175.5560  144.5340 C   0  0  0  0  0  0  0  0  0  0  0  0
  192.4310  174.3030  145.0940 C   0  0  0  0  0  1  0  0  0  0  0  0
  191.5300  175.6050  143.3570 O   0  0  0  0  0  0  0  0  0  0  0  0
  1  6  1  0  0  0  0
  2  5  1  0  0  0  0
  2 13  1  0  0  0  0
  3 19  1  0  0  0  0
  3  2  2  0  0  0  0
  4  7  1  0  0  0  0
  5 16  2  0  0  0  0
  6 17  2  0  0  0  0
  7  3  1  0  0  0  0
  8 21  1  6  0  0  0
  9  1  1  0  0  0  0
 11  4  2  0  0  0  0
 11 15  1  0  0  0  0
 12  8  1  0  0  0  0
 13 10  1  6  0  0  0
 13 18  1  0  0  0  0
 14  1  2  0  0  0  0
 14  5  1  0  0  0  0
 15 20  2  0  0  0  0
 16 17  1  0  0  0  0
 16 12  1  0  0  0  0
 18  8  1  0  0  0  0
 19 10  2  0  0  0  0
 20 19  1  0  0  0  0
 21 24  1  0  0  0  0
 22 25  2  0  0  0  0
 24 23  1  0  0  0  0
 25 27  1  0  0  0  0
 25 24  1  0  0  0  0
 27 26  1  1  0  0  0
 28 27  1  0  0  0  0
 29 30  1  0  0  0  0
 29 28  1  0  0  0  0
 31 29  2  0  0  0  0
M  END
>  <MODEL>
9

>  <REMARK>
 VINA RESULT:      -6.9      4.004      7.671
  Name = 
  5 active torsions:
  status: ('A' for Active; 'I' for Inactive)
    1  A    between atoms: C_1  and  C_24
    2  A    between atoms: N_9  and  C_23
    3  A    between atoms: C_15  and  C_23
    4  A    between atoms: C_19  and  C_22
    5  A    between atoms: C_19  and  C_24
                            x       y       z     vdW  Elec       q    Type
                         _______ _______ _______ _____ _____    ______ ____

>  <TORSDO>
F 5

$$$$
