=
 OpenBabel10252415023D

 34 40  0  0  1  0  0  0  0  0999 V2000
  189.7810  177.4800  140.4530 C   0  0  0  0  0  0  0  0  0  0  0  0
  187.7790  178.2040  139.1590 C   0  0  0  0  0  0  0  0  0  0  0  0
  187.7250  178.1010  141.6070 N   0  0  0  0  0  0  0  0  0  0  0  0
  185.6220  178.4820  142.6910 C   0  0  0  0  0  0  0  0  0  0  0  0
  189.7520  177.3940  138.0400 C   0  0  0  0  0  3  0  0  0  0  0  0
  188.3760  177.8270  138.0640 N   0  0  0  0  0  0  0  0  0  0  0  0
  185.6910  178.6540  140.2490 C   0  0  0  0  0  0  0  0  0  0  0  0
  188.5610  178.3560  140.4400 C   0  0  1  0  0  3  0  0  0  0  0  0
  184.2290  179.0300  140.2360 C   0  0  2  0  0  3  0  0  0  0  0  0
  184.1780  178.9000  142.6380 C   0  0  0  0  0  2  0  0  0  0  0  0
  190.4400  177.2000  139.1720 C   0  0  0  0  0  3  0  0  0  0  0  0
  188.3300  177.7320  142.8530 C   0  0  0  0  0  0  0  0  0  0  0  0
  190.2530  177.0190  141.5760 N   0  0  0  0  0  0  0  0  0  0  0  0
  186.3810  178.5370  139.1470 N   0  0  0  0  0  0  0  0  0  0  0  0
  186.2530  178.2250  143.9600 N   0  0  0  0  0  0  0  0  0  0  0  0
  187.5080  177.8730  144.0900 C   0  0  0  0  0  0  0  0  0  0  0  0
  183.5480  178.4390  141.3950 N   0  0  0  0  0  2  0  0  0  0  0  0
  186.3360  178.4320  141.5600 C   0  0  0  0  0  0  0  0  0  0  0  0
  189.5620  177.2020  142.8270 C   0  0  0  0  0  3  0  0  0  0  0  0
  189.8420  177.0100  146.9720 C   0  0  0  0  0  0  0  0  0  0  0  0
  189.0180  177.2620  148.0720 C   0  0  0  0  0  3  0  0  0  0  0  0
  188.0390  177.6430  145.4610 C   0  0  0  0  0  0  0  0  0  0  0  0
  187.7090  177.7060  147.8740 C   0  0  0  0  0  3  0  0  0  0  0  0
  189.3560  177.2030  145.6760 C   0  0  0  0  0  3  0  0  0  0  0  0
  187.2250  177.8980  146.5760 C   0  0  0  0  0  3  0  0  0  0  0  0
  191.4840  176.4580  147.2160 Cl  0  0  0  0  0  0  0  0  0  0  0  0
  183.5430  178.5630  138.9570 C   0  0  0  0  0  2  0  0  0  0  0  0
  182.3010  175.8720  139.2380 C   0  0  0  0  0  1  0  0  0  0  0  0
  182.1160  178.3460  139.1960 N   0  0  0  0  0  0  0  0  0  0  0  0
  181.6630  177.0840  138.5800 C   0  0  1  0  0  3  0  0  0  0  0  0
  181.6470  178.4290  136.4180 C   0  0  0  0  0  2  0  0  0  0  0  0
  180.7520  179.3040  137.2840 C   0  0  0  0  0  2  0  0  0  0  0  0
  181.3810  179.5140  138.6720 C   0  0  0  0  0  2  0  0  0  0  0  0
  181.8490  177.0520  137.0550 C   0  0  0  0  0  2  0  0  0  0  0  0
  1 13  2  0  0  0  0
  3 12  1  0  0  0  0
  4 15  1  0  0  0  0
  5  6  1  0  0  0  0
  5 11  2  0  0  0  0
  6  2  2  0  0  0  0
  7 18  1  0  0  0  0
  8  2  1  6  0  0  0
  8  1  1  0  0  0  0
  8  3  1  0  0  0  0
  9 27  1  6  0  0  0
  9  7  1  0  0  0  0
  9 17  1  0  0  0  0
 10  4  1  0  0  0  0
 11  1  1  0  0  0  0
 12 16  1  0  0  0  0
 13 19  1  0  0  0  0
 14  2  1  0  0  0  0
 14  7  2  0  0  0  0
 15 16  2  0  0  0  0
 16 22  1  0  0  0  0
 17 10  1  0  0  0  0
 18  3  1  0  0  0  0
 18  4  2  0  0  0  0
 19 12  2  0  0  0  0
 20 26  1  0  0  0  0
 20 21  1  0  0  0  0
 22 24  1  0  0  0  0
 22 25  2  0  0  0  0
 23 21  2  0  0  0  0
 24 20  2  0  0  0  0
 25 23  1  0  0  0  0
 27 29  1  0  0  0  0
 30 29  1  0  0  0  0
 30 28  1  1  0  0  0
 31 34  1  0  0  0  0
 31 32  1  0  0  0  0
 32 33  1  0  0  0  0
 33 29  1  0  0  0  0
 34 30  1  0  0  0  0
M  END
>  <MODEL>
1

>  <REMARK>
 VINA RESULT:     -10.3      0.000      0.000
  Name = 
  3 active torsions:
  status: ('A' for Active; 'I' for Inactive)
    1  A    between atoms: C_3  and  N_13
    2  A    between atoms: C_3  and  C_17
    3  A    between atoms: C_12  and  C_28
                            x       y       z     vdW  Elec       q    Type
                         _______ _______ _______ _____ _____    ______ ____

>  <TORSDO>
F 3

$$$$
=
 OpenBabel10252415023D

 34 40  0  0  1  0  0  0  0  0999 V2000
  189.7500  177.5380  140.5950 C   0  0  0  0  0  0  0  0  0  0  0  0
  187.7640  178.2250  139.2560 C   0  0  0  0  0  0  0  0  0  0  0  0
  187.6610  178.1340  141.7030 N   0  0  0  0  0  0  0  0  0  0  0  0
  185.5310  178.4900  142.7410 C   0  0  0  0  0  0  0  0  0  0  0  0
  189.7720  177.4390  138.1820 C   0  0  0  0  0  3  0  0  0  0  0  0
  188.3890  177.8520  138.1760 N   0  0  0  0  0  0  0  0  0  0  0  0
  185.6480  178.6500  140.3000 C   0  0  0  0  0  0  0  0  0  0  0  0
  188.5180  178.3950  140.5520 C   0  0  1  0  0  3  0  0  0  0  0  0
  184.1810  179.0040  140.2550 C   0  0  2  0  0  3  0  0  0  0  0  0
  184.0820  178.8850  142.6560 C   0  0  0  0  0  2  0  0  0  0  0  0
  190.4390  177.2610  139.3290 C   0  0  0  0  0  3  0  0  0  0  0  0
  188.2460  177.7810  142.9630 C   0  0  0  0  0  0  0  0  0  0  0  0
  190.2050  177.0900  141.7290 N   0  0  0  0  0  0  0  0  0  0  0  0
  186.3620  178.5380  139.2130 N   0  0  0  0  0  0  0  0  0  0  0  0
  186.1400  178.2480  144.0240 N   0  0  0  0  0  0  0  0  0  0  0  0
  187.3960  177.9160  144.1820 C   0  0  0  0  0  0  0  0  0  0  0  0
  183.4850  178.4090  141.4030 N   0  0  0  0  0  2  0  0  0  0  0  0
  186.2690  178.4440  141.6250 C   0  0  0  0  0  0  0  0  0  0  0  0
  189.4860  177.2690  142.9650 C   0  0  0  0  0  3  0  0  0  0  0  0
  189.6310  176.9620  147.1130 C   0  0  0  0  0  0  0  0  0  0  0  0
  188.8400  177.3520  148.1950 C   0  0  0  0  0  3  0  0  0  0  0  0
  187.9030  177.7010  145.5650 C   0  0  0  0  0  0  0  0  0  0  0  0
  187.5830  177.9180  147.9700 C   0  0  0  0  0  3  0  0  0  0  0  0
  189.1670  177.1390  145.8070 C   0  0  0  0  0  3  0  0  0  0  0  0
  187.1200  178.0940  146.6630 C   0  0  0  0  0  3  0  0  0  0  0  0
  191.2080  176.2560  147.3910 Cl  0  0  0  0  0  0  0  0  0  0  0  0
  183.5290  178.5210  138.9650 C   0  0  0  0  0  2  0  0  0  0  0  0
  184.9150  176.5420  137.2240 C   0  0  0  0  0  1  0  0  0  0  0  0
  183.2940  177.0780  139.0250 N   0  0  0  0  0  0  0  0  0  0  0  0
  183.4740  176.4580  137.6980 C   0  0  1  0  0  3  0  0  0  0  0  0
  181.1410  177.3620  137.2280 C   0  0  0  0  0  2  0  0  0  0  0  0
  180.8670  176.5630  138.4940 C   0  0  0  0  0  2  0  0  0  0  0  0
  181.9360  176.8570  139.5600 C   0  0  0  0  0  2  0  0  0  0  0  0
  182.5050  177.0030  136.6370 C   0  0  0  0  0  2  0  0  0  0  0  0
  1 13  2  0  0  0  0
  3 12  1  0  0  0  0
  4 15  1  0  0  0  0
  5 11  2  0  0  0  0
  6  5  1  0  0  0  0
  6  2  2  0  0  0  0
  7 18  1  0  0  0  0
  8  2  1  6  0  0  0
  8  1  1  0  0  0  0
  8  3  1  0  0  0  0
  9 27  1  6  0  0  0
  9  7  1  0  0  0  0
  9 17  1  0  0  0  0
 10  4  1  0  0  0  0
 11  1  1  0  0  0  0
 12 19  2  0  0  0  0
 12 16  1  0  0  0  0
 13 19  1  0  0  0  0
 14  2  1  0  0  0  0
 14  7  2  0  0  0  0
 15 16  2  0  0  0  0
 16 22  1  0  0  0  0
 17 10  1  0  0  0  0
 18  3  1  0  0  0  0
 18  4  2  0  0  0  0
 20 26  1  0  0  0  0
 20 21  1  0  0  0  0
 22 24  1  0  0  0  0
 22 25  2  0  0  0  0
 23 21  2  0  0  0  0
 24 20  2  0  0  0  0
 25 23  1  0  0  0  0
 27 29  1  0  0  0  0
 29 33  1  0  0  0  0
 30 28  1  6  0  0  0
 30 29  1  0  0  0  0
 31 32  1  0  0  0  0
 32 33  1  0  0  0  0
 34 31  1  0  0  0  0
 34 30  1  0  0  0  0
M  END
>  <MODEL>
2

>  <REMARK>
 VINA RESULT:      -9.7      0.756      1.077
  Name = 
  3 active torsions:
  status: ('A' for Active; 'I' for Inactive)
    1  A    between atoms: C_3  and  N_13
    2  A    between atoms: C_3  and  C_17
    3  A    between atoms: C_12  and  C_28
                            x       y       z     vdW  Elec       q    Type
                         _______ _______ _______ _____ _____    ______ ____

>  <TORSDO>
F 3

$$$$
=
 OpenBabel10252415023D

 34 40  0  0  1  0  0  0  0  0999 V2000
  183.8750  178.8420  144.2190 C   0  0  0  0  0  0  0  0  0  0  0  0
  186.2920  178.2740  144.4160 C   0  0  0  0  0  0  0  0  0  0  0  0
  185.2780  178.7170  142.2290 N   0  0  0  0  0  0  0  0  0  0  0  0
  186.6260  178.3480  140.2820 C   0  0  0  0  0  0  0  0  0  0  0  0
  184.8420  178.2060  146.3380 C   0  0  0  0  0  3  0  0  0  0  0  0
  186.0970  177.9680  145.6670 N   0  0  0  0  0  0  0  0  0  0  0  0
  187.6610  177.9720  142.4700 C   0  0  0  0  0  0  0  0  0  0  0  0
  185.2490  179.0470  143.6500 C   0  0  1  0  0  3  0  0  0  0  0  0
  188.9680  177.6380  141.7930 C   0  0  2  0  0  3  0  0  0  0  0  0
  187.9570  178.0470  139.6480 C   0  0  0  0  0  2  0  0  0  0  0  0
  183.7570  178.6050  145.6620 C   0  0  0  0  0  3  0  0  0  0  0  0
  184.1220  178.9520  141.4160 C   0  0  0  0  0  0  0  0  0  0  0  0
  182.8240  178.9100  143.4530 N   0  0  0  0  0  0  0  0  0  0  0  0
  187.5290  177.9310  143.7680 N   0  0  0  0  0  0  0  0  0  0  0  0
  185.4960  178.6960  139.4600 N   0  0  0  0  0  0  0  0  0  0  0  0
  184.3120  178.9860  139.9360 C   0  0  0  0  0  0  0  0  0  0  0  0
  188.7140  177.0840  140.4570 N   0  0  0  0  0  2  0  0  0  0  0  0
  186.5210  178.3680  141.6170 C   0  0  0  0  0  0  0  0  0  0  0  0
  182.9290  179.0420  142.0220 C   0  0  0  0  0  3  0  0  0  0  0  0
  181.7010  180.9510  137.9830 C   0  0  0  0  0  0  0  0  0  0  0  0
  181.2130  179.9680  137.1180 C   0  0  0  0  0  3  0  0  0  0  0  0
  183.2300  179.3370  138.9770 C   0  0  0  0  0  0  0  0  0  0  0  0
  181.7300  178.6720  137.1760 C   0  0  0  0  0  3  0  0  0  0  0  0
  182.7050  180.6380  138.9030 C   0  0  0  0  0  3  0  0  0  0  0  0
  182.7340  178.3610  138.0970 C   0  0  0  0  0  3  0  0  0  0  0  0
  181.0580  182.5770  137.9110 Cl  0  0  0  0  0  0  0  0  0  0  0  0
  189.7790  176.6360  142.6070 C   0  0  0  0  0  2  0  0  0  0  0  0
  191.8920  175.1240  144.0610 C   0  0  0  0  0  1  0  0  0  0  0  0
  191.1470  177.1210  142.7920 N   0  0  0  0  0  0  0  0  0  0  0  0
  191.7130  176.6330  144.0640 C   0  0  1  0  0  3  0  0  0  0  0  0
  190.3350  178.4980  145.1140 C   0  0  0  0  0  2  0  0  0  0  0  0
  191.1350  179.2980  144.0960 C   0  0  0  0  0  2  0  0  0  0  0  0
  191.1220  178.5960  142.7270 C   0  0  0  0  0  2  0  0  0  0  0  0
  190.9250  177.0990  145.2980 C   0  0  0  0  0  2  0  0  0  0  0  0
  1 11  1  0  0  0  0
  2  6  2  0  0  0  0
  3  8  1  0  0  0  0
  4 18  2  0  0  0  0
  6  5  1  0  0  0  0
  7 14  2  0  0  0  0
  8  1  1  1  0  0  0
  8  2  1  0  0  0  0
  9  7  1  0  0  0  0
  9 27  1  1  0  0  0
 10  4  1  0  0  0  0
 10 17  1  0  0  0  0
 11  5  2  0  0  0  0
 12 19  2  0  0  0  0
 12  3  1  0  0  0  0
 13  1  2  0  0  0  0
 14  2  1  0  0  0  0
 15 16  2  0  0  0  0
 15  4  1  0  0  0  0
 16 12  1  0  0  0  0
 17  9  1  0  0  0  0
 18  3  1  0  0  0  0
 18  7  1  0  0  0  0
 19 13  1  0  0  0  0
 20 24  1  0  0  0  0
 21 23  1  0  0  0  0
 21 20  2  0  0  0  0
 22 16  1  0  0  0  0
 23 25  2  0  0  0  0
 24 22  2  0  0  0  0
 25 22  1  0  0  0  0
 26 20  1  0  0  0  0
 27 29  1  0  0  0  0
 29 30  1  0  0  0  0
 30 28  1  6  0  0  0
 30 34  1  0  0  0  0
 31 34  1  0  0  0  0
 32 31  1  0  0  0  0
 33 29  1  0  0  0  0
 33 32  1  0  0  0  0
M  END
>  <MODEL>
3

>  <REMARK>
 VINA RESULT:      -9.5      3.180      8.777
  Name = 
  3 active torsions:
  status: ('A' for Active; 'I' for Inactive)
    1  A    between atoms: C_3  and  N_13
    2  A    between atoms: C_3  and  C_17
    3  A    between atoms: C_12  and  C_28
                            x       y       z     vdW  Elec       q    Type
                         _______ _______ _______ _____ _____    ______ ____

>  <TORSDO>
F 3

$$$$
=
 OpenBabel10252415023D

 34 40  0  0  1  0  0  0  0  0999 V2000
  189.4290  177.2500  144.9120 C   0  0  0  0  0  0  0  0  0  0  0  0
  190.8280  176.9600  142.8720 C   0  0  0  0  0  0  0  0  0  0  0  0
  188.4870  177.6630  142.7010 N   0  0  0  0  0  0  0  0  0  0  0  0
  187.5300  177.8240  140.5100 C   0  0  0  0  0  0  0  0  0  0  0  0
  191.6710  176.3650  145.0480 C   0  0  0  0  0  3  0  0  0  0  0  0
  191.7510  176.4100  143.6080 N   0  0  0  0  0  0  0  0  0  0  0  0
  189.8900  177.1890  140.6770 C   0  0  0  0  0  0  0  0  0  0  0  0
  189.6970  177.7240  143.5130 C   0  0  1  0  0  3  0  0  0  0  0  0
  189.9830  177.1490  139.1700 C   0  0  2  0  0  3  0  0  0  0  0  0
  187.6760  177.8120  139.0130 C   0  0  0  0  0  2  0  0  0  0  0  0
  190.5610  176.7420  145.6940 C   0  0  0  0  0  3  0  0  0  0  0  0
  187.2090  177.8970  143.3050 C   0  0  0  0  0  0  0  0  0  0  0  0
  188.2310  177.3250  145.4180 N   0  0  0  0  0  0  0  0  0  0  0  0
  190.9090  176.8970  141.4380 N   0  0  0  0  0  0  0  0  0  0  0  0
  186.2680  178.1740  141.1100 N   0  0  0  0  0  0  0  0  0  0  0  0
  186.0650  178.2220  142.4020 C   0  0  0  0  0  0  0  0  0  0  0  0
  188.6740  176.8190  138.5950 N   0  0  0  0  0  2  0  0  0  0  0  0
  188.6000  177.5880  141.2780 C   0  0  0  0  0  0  0  0  0  0  0  0
  187.0930  177.7270  144.6300 C   0  0  0  0  0  3  0  0  0  0  0  0
  182.3290  178.9430  142.5320 C   0  0  0  0  0  0  0  0  0  0  0  0
  182.1680  179.2940  143.8750 C   0  0  0  0  0  3  0  0  0  0  0  0
  184.7140  178.6050  142.8930 C   0  0  0  0  0  0  0  0  0  0  0  0
  183.2720  179.2980  144.7300 C   0  0  0  0  0  3  0  0  0  0  0  0
  183.5930  178.5980  142.0460 C   0  0  0  0  0  3  0  0  0  0  0  0
  184.5350  178.9520  144.2420 C   0  0  0  0  0  3  0  0  0  0  0  0
  180.9480  178.9320  141.4580 Cl  0  0  0  0  0  0  0  0  0  0  0  0
  191.0110  176.1240  138.7030 C   0  0  0  0  0  2  0  0  0  0  0  0
  190.3980  176.2080  135.7900 C   0  0  0  0  0  1  0  0  0  0  0  0
  191.8970  176.7160  137.7000 N   0  0  0  0  0  0  0  0  0  0  0  0
  191.7730  176.0170  136.4070 C   0  0  1  0  0  3  0  0  0  0  0  0
  193.2750  174.2660  137.4850 C   0  0  0  0  0  2  0  0  0  0  0  0
  194.1300  175.5110  137.6840 C   0  0  0  0  0  2  0  0  0  0  0  0
  193.2770  176.6710  138.2240 C   0  0  0  0  0  2  0  0  0  0  0  0
  192.1500  174.5290  136.4820 C   0  0  0  0  0  2  0  0  0  0  0  0
  1 13  2  0  0  0  0
  1 11  1  0  0  0  0
  2  6  2  0  0  0  0
  3 12  1  0  0  0  0
  3  8  1  0  0  0  0
  4 15  1  0  0  0  0
  4 18  2  0  0  0  0
  5 11  2  0  0  0  0
  6  5  1  0  0  0  0
  7 18  1  0  0  0  0
  7 14  2  0  0  0  0
  8  2  1  6  0  0  0
  8  1  1  0  0  0  0
  9 27  1  1  0  0  0
  9  7  1  0  0  0  0
 10  4  1  0  0  0  0
 12 19  2  0  0  0  0
 14  2  1  0  0  0  0
 15 16  2  0  0  0  0
 16 22  1  0  0  0  0
 16 12  1  0  0  0  0
 17 10  1  0  0  0  0
 17  9  1  0  0  0  0
 18  3  1  0  0  0  0
 19 13  1  0  0  0  0
 20 21  1  0  0  0  0
 21 23  2  0  0  0  0
 22 25  2  0  0  0  0
 24 20  2  0  0  0  0
 24 22  1  0  0  0  0
 25 23  1  0  0  0  0
 26 20  1  0  0  0  0
 29 33  1  0  0  0  0
 29 27  1  0  0  0  0
 30 28  1  1  0  0  0
 30 34  1  0  0  0  0
 30 29  1  0  0  0  0
 31 32  1  0  0  0  0
 32 33  1  0  0  0  0
 34 31  1  0  0  0  0
M  END
>  <MODEL>
4

>  <REMARK>
 VINA RESULT:      -9.3      3.401      7.226
  Name = 
  3 active torsions:
  status: ('A' for Active; 'I' for Inactive)
    1  A    between atoms: C_3  and  N_13
    2  A    between atoms: C_3  and  C_17
    3  A    between atoms: C_12  and  C_28
                            x       y       z     vdW  Elec       q    Type
                         _______ _______ _______ _____ _____    ______ ____

>  <TORSDO>
F 3

$$$$
=
 OpenBabel10252415023D

 34 40  0  0  1  0  0  0  0  0999 V2000
  186.7300  177.8070  138.3990 C   0  0  0  0  0  0  0  0  0  0  0  0
  187.0790  178.7020  140.6970 C   0  0  0  0  0  0  0  0  0  0  0  0
  188.8610  177.4830  139.5390 N   0  0  0  0  0  0  0  0  0  0  0  0
  190.8480  176.9740  140.7760 C   0  0  0  0  0  0  0  0  0  0  0  0
  184.9230  178.8320  139.6310 C   0  0  0  0  0  3  0  0  0  0  0  0
  185.8060  178.9730  140.7630 N   0  0  0  0  0  0  0  0  0  0  0  0
  189.0960  178.2530  141.9130 C   0  0  0  0  0  0  0  0  0  0  0  0
  187.7210  178.3770  139.3720 C   0  0  1  0  0  3  0  0  0  0  0  0
  189.9660  178.3480  143.1440 C   0  0  2  0  0  3  0  0  0  0  0  0
  191.6990  177.1250  142.0080 C   0  0  0  0  0  2  0  0  0  0  0  0
  185.3370  178.2570  138.4940 C   0  0  0  0  0  3  0  0  0  0  0  0
  189.3140  176.6900  138.4350 C   0  0  0  0  0  0  0  0  0  0  0  0
  187.1120  176.9680  137.4800 N   0  0  0  0  0  0  0  0  0  0  0  0
  187.8980  178.7700  141.8770 N   0  0  0  0  0  0  0  0  0  0  0  0
  191.3590  176.2720  139.6280 N   0  0  0  0  0  0  0  0  0  0  0  0
  190.6870  176.1110  138.5160 C   0  0  0  0  0  0  0  0  0  0  0  0
  190.8650  177.1890  143.2140 N   0  0  0  0  0  2  0  0  0  0  0  0
  189.6480  177.5650  140.7280 C   0  0  0  0  0  0  0  0  0  0  0  0
  188.4530  176.4410  137.4370 C   0  0  0  0  0  3  0  0  0  0  0  0
  192.9390  175.2370  135.5730 C   0  0  0  0  0  0  0  0  0  0  0  0
  192.5600  173.9160  135.3240 C   0  0  0  0  0  3  0  0  0  0  0  0
  191.3340  175.3700  137.3990 C   0  0  0  0  0  0  0  0  0  0  0  0
  191.5730  173.3160  136.1090 C   0  0  0  0  0  3  0  0  0  0  0  0
  192.3330  175.9570  136.6050 C   0  0  0  0  0  3  0  0  0  0  0  0
  190.9670  174.0380  137.1420 C   0  0  0  0  0  3  0  0  0  0  0  0
  194.1790  175.9910  134.5940 Cl  0  0  0  0  0  0  0  0  0  0  0  0
  189.1280  178.4130  144.4160 C   0  0  0  0  0  2  0  0  0  0  0  0
  186.4300  177.1550  144.3650 C   0  0  0  0  0  1  0  0  0  0  0  0
  188.8490  177.0640  144.9090 N   0  0  0  0  0  0  0  0  0  0  0  0
  187.4790  176.9720  145.4490 C   0  0  1  0  0  3  0  0  0  0  0  0
  188.4740  178.1000  147.5040 C   0  0  0  0  0  2  0  0  0  0  0  0
  189.4050  176.9020  147.3790 C   0  0  0  0  0  2  0  0  0  0  0  0
  189.8680  176.7270  145.9230 C   0  0  0  0  0  2  0  0  0  0  0  0
  187.2280  177.9190  146.6330 C   0  0  0  0  0  2  0  0  0  0  0  0
  1 11  1  0  0  0  0
  2  6  2  0  0  0  0
  2 14  1  0  0  0  0
  3 18  1  0  0  0  0
  4 10  1  0  0  0  0
  5  6  1  0  0  0  0
  7  9  1  0  0  0  0
  8  1  1  6  0  0  0
  8  3  1  0  0  0  0
  8  2  1  0  0  0  0
  9 17  1  0  0  0  0
  9 27  1  1  0  0  0
 10 17  1  0  0  0  0
 11  5  2  0  0  0  0
 12 16  1  0  0  0  0
 12  3  1  0  0  0  0
 13  1  2  0  0  0  0
 14  7  2  0  0  0  0
 15  4  1  0  0  0  0
 16 15  2  0  0  0  0
 18  4  2  0  0  0  0
 18  7  1  0  0  0  0
 19 13  1  0  0  0  0
 19 12  2  0  0  0  0
 20 24  1  0  0  0  0
 21 20  2  0  0  0  0
 21 23  1  0  0  0  0
 22 16  1  0  0  0  0
 23 25  2  0  0  0  0
 24 22  2  0  0  0  0
 25 22  1  0  0  0  0
 26 20  1  0  0  0  0
 27 29  1  0  0  0  0
 29 30  1  0  0  0  0
 29 33  1  0  0  0  0
 30 28  1  6  0  0  0
 30 34  1  0  0  0  0
 32 31  1  0  0  0  0
 33 32  1  0  0  0  0
 34 31  1  0  0  0  0
M  END
>  <MODEL>
5

>  <REMARK>
 VINA RESULT:      -8.9      3.163      8.279
  Name = 
  3 active torsions:
  status: ('A' for Active; 'I' for Inactive)
    1  A    between atoms: C_3  and  N_13
    2  A    between atoms: C_3  and  C_17
    3  A    between atoms: C_12  and  C_28
                            x       y       z     vdW  Elec       q    Type
                         _______ _______ _______ _____ _____    ______ ____

>  <TORSDO>
F 3

$$$$
=
 OpenBabel10252415023D

 34 40  0  0  1  0  0  0  0  0999 V2000
  188.8780  177.6190  137.7760 C   0  0  0  0  0  0  0  0  0  0  0  0
  186.4760  178.2670  137.6520 C   0  0  0  0  0  0  0  0  0  0  0  0
  187.6480  178.1920  139.8030 N   0  0  0  0  0  0  0  0  0  0  0  0
  186.3510  178.5230  141.7900 C   0  0  0  0  0  0  0  0  0  0  0  0
  187.6570  177.5020  135.6960 C   0  0  0  0  0  3  0  0  0  0  0  0
  186.4620  177.8950  136.4030 N   0  0  0  0  0  0  0  0  0  0  0  0
  185.1910  178.6670  139.6370 C   0  0  0  0  0  0  0  0  0  0  0  0
  187.7850  178.4570  138.3750 C   0  0  1  0  0  3  0  0  0  0  0  0
  183.9050  179.0000  140.3540 C   0  0  2  0  0  3  0  0  0  0  0  0
  185.0590  178.8970  142.4630 C   0  0  0  0  0  2  0  0  0  0  0  0
  188.8220  177.3430  136.3370 C   0  0  0  0  0  3  0  0  0  0  0  0
  188.8030  177.8560  140.5810 C   0  0  0  0  0  0  0  0  0  0  0  0
  189.8590  177.1850  138.5140 N   0  0  0  0  0  0  0  0  0  0  0  0
  185.2460  178.5580  138.3370 N   0  0  0  0  0  0  0  0  0  0  0  0
  187.5370  178.3000  142.5760 N   0  0  0  0  0  0  0  0  0  0  0  0
  188.7000  177.9870  142.0640 C   0  0  0  0  0  0  0  0  0  0  0  0
  183.9090  178.4030  141.6950 N   0  0  0  0  0  2  0  0  0  0  0  0
  186.4090  178.4800  140.4530 C   0  0  0  0  0  0  0  0  0  0  0  0
  189.8760  177.3630  139.9440 C   0  0  0  0  0  3  0  0  0  0  0  0
  191.4470  176.3480  144.1300 C   0  0  0  0  0  0  0  0  0  0  0  0
  192.0540  177.4650  144.7080 C   0  0  0  0  0  3  0  0  0  0  0  0
  189.8500  177.7900  142.9880 C   0  0  0  0  0  0  0  0  0  0  0  0
  191.5670  178.7440  144.4290 C   0  0  0  0  0  3  0  0  0  0  0  0
  190.3550  176.5100  143.2730 C   0  0  0  0  0  3  0  0  0  0  0  0
  190.4740  178.9040  143.5720 C   0  0  0  0  0  3  0  0  0  0  0  0
  192.0570  174.7440  144.4730 Cl  0  0  0  0  0  0  0  0  0  0  0  0
  182.6900  178.4980  139.5820 C   0  0  0  0  0  2  0  0  0  0  0  0
  180.3180  178.9170  141.3330 C   0  0  0  0  0  1  0  0  0  0  0  0
  181.7230  179.5810  139.3980 N   0  0  0  0  0  0  0  0  0  0  0  0
  180.3760  179.1650  139.8350 C   0  0  1  0  0  3  0  0  0  0  0  0
  180.2800  177.9720  137.5880 C   0  0  0  0  0  2  0  0  0  0  0  0
  180.6110  179.3850  137.1260 C   0  0  0  0  0  2  0  0  0  0  0  0
  181.7460  179.9790  137.9770 C   0  0  0  0  0  2  0  0  0  0  0  0
  179.8260  177.9650  139.0490 C   0  0  0  0  0  2  0  0  0  0  0  0
  1  8  1  0  0  0  0
  1 13  2  0  0  0  0
  2 14  1  0  0  0  0
  3 18  1  0  0  0  0
  3 12  1  0  0  0  0
  4 10  1  0  0  0  0
  4 15  1  0  0  0  0
  5 11  2  0  0  0  0
  5  6  1  0  0  0  0
  6  2  2  0  0  0  0
  7  9  1  0  0  0  0
  7 18  1  0  0  0  0
  8  2  1  6  0  0  0
  8  3  1  0  0  0  0
  9 27  1  6  0  0  0
  9 17  1  0  0  0  0
 11  1  1  0  0  0  0
 12 16  1  0  0  0  0
 13 19  1  0  0  0  0
 14  7  2  0  0  0  0
 16 15  2  0  0  0  0
 16 22  1  0  0  0  0
 17 10  1  0  0  0  0
 18  4  2  0  0  0  0
 19 12  2  0  0  0  0
 20 26  1  0  0  0  0
 20 21  1  0  0  0  0
 22 24  1  0  0  0  0
 22 25  2  0  0  0  0
 23 21  2  0  0  0  0
 24 20  2  0  0  0  0
 25 23  1  0  0  0  0
 29 27  1  0  0  0  0
 29 30  1  0  0  0  0
 30 28  1  1  0  0  0
 31 34  1  0  0  0  0
 32 31  1  0  0  0  0
 32 33  1  0  0  0  0
 33 29  1  0  0  0  0
 34 30  1  0  0  0  0
M  END
>  <MODEL>
6

>  <REMARK>
 VINA RESULT:      -8.4      2.152      2.627
  Name = 
  3 active torsions:
  status: ('A' for Active; 'I' for Inactive)
    1  A    between atoms: C_3  and  N_13
    2  A    between atoms: C_3  and  C_17
    3  A    between atoms: C_12  and  C_28
                            x       y       z     vdW  Elec       q    Type
                         _______ _______ _______ _____ _____    ______ ____

>  <TORSDO>
F 3

$$$$
=
 OpenBabel10252415023D

 34 40  0  0  1  0  0  0  0  0999 V2000
  187.0950  177.9960  143.0040 C   0  0  0  0  0  0  0  0  0  0  0  0
  189.0290  177.4260  141.5420 C   0  0  0  0  0  0  0  0  0  0  0  0
  186.9290  178.2480  140.5840 N   0  0  0  0  0  0  0  0  0  0  0  0
  186.7200  178.2530  138.1970 C   0  0  0  0  0  0  0  0  0  0  0  0
  189.0960  176.9950  143.9110 C   0  0  0  0  0  3  0  0  0  0  0  0
  189.6250  176.8950  142.5720 N   0  0  0  0  0  0  0  0  0  0  0  0
  188.8450  177.4950  139.1520 C   0  0  0  0  0  0  0  0  0  0  0  0
  187.8260  178.3150  141.7320 C   0  0  1  0  0  3  0  0  0  0  0  0
  189.4000  177.3030  137.7610 C   0  0  2  0  0  3  0  0  0  0  0  0
  187.3240  178.0860  136.8290 C   0  0  0  0  0  2  0  0  0  0  0  0
  187.8770  177.4990  144.1410 C   0  0  0  0  0  3  0  0  0  0  0  0
  185.5520  178.6170  140.7310 C   0  0  0  0  0  0  0  0  0  0  0  0
  185.8100  178.1920  143.0960 N   0  0  0  0  0  0  0  0  0  0  0  0
  189.5470  177.2180  140.2170 N   0  0  0  0  0  0  0  0  0  0  0  0
  185.3700  178.7340  138.3370 N   0  0  0  0  0  0  0  0  0  0  0  0
  184.7800  178.9200  139.4900 C   0  0  0  0  0  0  0  0  0  0  0  0
  188.3110  176.9990  136.8240 N   0  0  0  0  0  2  0  0  0  0  0  0
  187.4730  178.0290  139.2810 C   0  0  0  0  0  0  0  0  0  0  0  0
  185.0150  178.5830  141.9600 C   0  0  0  0  0  3  0  0  0  0  0  0
  181.6740  180.9840  138.7250 C   0  0  0  0  0  0  0  0  0  0  0  0
  180.7170  180.3320  139.5050 C   0  0  0  0  0  3  0  0  0  0  0  0
  183.3820  179.4290  139.4970 C   0  0  0  0  0  0  0  0  0  0  0  0
  181.0830  179.2290  140.2790 C   0  0  0  0  0  3  0  0  0  0  0  0
  182.9960  180.5330  138.7180 C   0  0  0  0  0  3  0  0  0  0  0  0
  182.4070  178.7790  140.2710 C   0  0  0  0  0  3  0  0  0  0  0  0
  181.2170  182.3640  137.7510 Cl  0  0  0  0  0  0  0  0  0  0  0  0
  190.4280  176.1780  137.7210 C   0  0  0  0  0  2  0  0  0  0  0  0
  190.8960  175.9400  134.7900 C   0  0  0  0  0  1  0  0  0  0  0  0
  191.6480  176.6300  137.0520 N   0  0  0  0  0  0  0  0  0  0  0  0
  191.9480  175.7890  135.8770 C   0  0  1  0  0  3  0  0  0  0  0  0
  192.8540  174.1390  137.5900 C   0  0  0  0  0  2  0  0  0  0  0  0
  193.6590  175.3770  137.9600 C   0  0  0  0  0  2  0  0  0  0  0  0
  192.7450  176.6120  138.0400 C   0  0  0  0  0  2  0  0  0  0  0  0
  192.1770  174.3120  136.2290 C   0  0  0  0  0  2  0  0  0  0  0  0
  1 13  2  0  0  0  0
  1 11  1  0  0  0  0
  2  6  2  0  0  0  0
  3 12  1  0  0  0  0
  3  8  1  0  0  0  0
  4 15  1  0  0  0  0
  4 18  2  0  0  0  0
  5 11  2  0  0  0  0
  6  5  1  0  0  0  0
  7 18  1  0  0  0  0
  7 14  2  0  0  0  0
  8  2  1  6  0  0  0
  8  1  1  0  0  0  0
  9 27  1  1  0  0  0
  9  7  1  0  0  0  0
 10  4  1  0  0  0  0
 12 19  2  0  0  0  0
 14  2  1  0  0  0  0
 15 16  2  0  0  0  0
 16 22  1  0  0  0  0
 16 12  1  0  0  0  0
 17 10  1  0  0  0  0
 17  9  1  0  0  0  0
 18  3  1  0  0  0  0
 19 13  1  0  0  0  0
 20 21  1  0  0  0  0
 21 23  2  0  0  0  0
 22 25  2  0  0  0  0
 24 20  2  0  0  0  0
 24 22  1  0  0  0  0
 25 23  1  0  0  0  0
 26 20  1  0  0  0  0
 29 27  1  0  0  0  0
 29 33  1  0  0  0  0
 30 28  1  6  0  0  0
 30 34  1  0  0  0  0
 30 29  1  0  0  0  0
 31 32  1  0  0  0  0
 32 33  1  0  0  0  0
 34 31  1  0  0  0  0
M  END
>  <MODEL>
7

>  <REMARK>
 VINA RESULT:      -8.3      3.318      8.078
  Name = 
  3 active torsions:
  status: ('A' for Active; 'I' for Inactive)
    1  A    between atoms: C_3  and  N_13
    2  A    between atoms: C_3  and  C_17
    3  A    between atoms: C_12  and  C_28
                            x       y       z     vdW  Elec       q    Type
                         _______ _______ _______ _____ _____    ______ ____

>  <TORSDO>
F 3

$$$$
=
 OpenBabel10252415023D

 34 40  0  0  1  0  0  0  0  0999 V2000
  189.2110  177.5960  143.6590 C   0  0  0  0  0  0  0  0  0  0  0  0
  190.2910  177.6840  141.4160 C   0  0  0  0  0  0  0  0  0  0  0  0
  187.9000  178.1540  141.6790 N   0  0  0  0  0  0  0  0  0  0  0  0
  186.6000  178.4590  139.6910 C   0  0  0  0  0  0  0  0  0  0  0  0
  191.5150  176.9390  143.3530 C   0  0  0  0  0  3  0  0  0  0  0  0
  191.3630  177.1540  141.9340 N   0  0  0  0  0  0  0  0  0  0  0  0
  189.0020  178.0580  139.4290 C   0  0  0  0  0  0  0  0  0  0  0  0
  189.2140  178.2490  142.3070 C   0  0  1  0  0  3  0  0  0  0  0  0
  188.8600  178.1960  137.9320 C   0  0  2  0  0  3  0  0  0  0  0  0
  186.5090  178.6290  138.1990 C   0  0  0  0  0  2  0  0  0  0  0  0
  190.4920  177.1240  144.1970 C   0  0  0  0  0  3  0  0  0  0  0  0
  186.7180  178.1850  142.4890 C   0  0  0  0  0  0  0  0  0  0  0  0
  188.1060  177.4890  144.3400 N   0  0  0  0  0  0  0  0  0  0  0  0
  190.1500  177.7900  139.9890 N   0  0  0  0  0  0  0  0  0  0  0  0
  185.4230  178.6060  140.5070 N   0  0  0  0  0  0  0  0  0  0  0  0
  185.4240  178.4880  141.8110 C   0  0  0  0  0  0  0  0  0  0  0  0
  187.5090  177.7990  137.5170 N   0  0  0  0  0  2  0  0  0  0  0  0
  187.7940  178.2510  140.2580 C   0  0  0  0  0  0  0  0  0  0  0  0
  186.8290  177.8560  143.7840 C   0  0  0  0  0  3  0  0  0  0  0  0
  181.7070  178.7930  142.5780 C   0  0  0  0  0  0  0  0  0  0  0  0
  181.7300  178.9770  143.9620 C   0  0  0  0  0  3  0  0  0  0  0  0
  184.1390  178.6710  142.5390 C   0  0  0  0  0  0  0  0  0  0  0  0
  182.9510  179.0060  144.6400 C   0  0  0  0  0  3  0  0  0  0  0  0
  182.9030  178.6370  141.8720 C   0  0  0  0  0  3  0  0  0  0  0  0
  184.1470  178.8500  143.9320 C   0  0  0  0  0  3  0  0  0  0  0  0
  180.1790  178.7520  141.7250 Cl  0  0  0  0  0  0  0  0  0  0  0  0
  189.8850  177.3430  137.1930 C   0  0  0  0  0  2  0  0  0  0  0  0
  192.2050  175.8720  138.3430 C   0  0  0  0  0  1  0  0  0  0  0  0
  189.8210  175.9570  137.6580 N   0  0  0  0  0  0  0  0  0  0  0  0
  191.1160  175.2750  137.4670 C   0  0  1  0  0  3  0  0  0  0  0  0
  190.3700  175.0630  135.0420 C   0  0  0  0  0  2  0  0  0  0  0  0
  189.1820  174.4190  135.7440 C   0  0  0  0  0  2  0  0  0  0  0  0
  188.7270  175.2810  136.9340 C   0  0  0  0  0  2  0  0  0  0  0  0
  191.5570  175.2110  135.9960 C   0  0  0  0  0  2  0  0  0  0  0  0
  1 11  1  0  0  0  0
  1 13  2  0  0  0  0
  2  6  2  0  0  0  0
  3  8  1  0  0  0  0
  3 12  1  0  0  0  0
  4 18  2  0  0  0  0
  4 15  1  0  0  0  0
  5 11  2  0  0  0  0
  6  5  1  0  0  0  0
  7 14  2  0  0  0  0
  7 18  1  0  0  0  0
  8  2  1  6  0  0  0
  8  1  1  0  0  0  0
  9 27  1  6  0  0  0
  9  7  1  0  0  0  0
 10  4  1  0  0  0  0
 12 19  2  0  0  0  0
 14  2  1  0  0  0  0
 15 16  2  0  0  0  0
 16 12  1  0  0  0  0
 16 22  1  0  0  0  0
 17  9  1  0  0  0  0
 17 10  1  0  0  0  0
 18  3  1  0  0  0  0
 19 13  1  0  0  0  0
 20 21  1  0  0  0  0
 21 23  2  0  0  0  0
 22 25  2  0  0  0  0
 24 22  1  0  0  0  0
 24 20  2  0  0  0  0
 25 23  1  0  0  0  0
 26 20  1  0  0  0  0
 27 29  1  0  0  0  0
 30 29  1  0  0  0  0
 30 28  1  1  0  0  0
 31 32  1  0  0  0  0
 31 34  1  0  0  0  0
 32 33  1  0  0  0  0
 33 29  1  0  0  0  0
 34 30  1  0  0  0  0
M  END
>  <MODEL>
8

>  <REMARK>
 VINA RESULT:      -8.2      3.410      6.427
  Name = 
  3 active torsions:
  status: ('A' for Active; 'I' for Inactive)
    1  A    between atoms: C_3  and  N_13
    2  A    between atoms: C_3  and  C_17
    3  A    between atoms: C_12  and  C_28
                            x       y       z     vdW  Elec       q    Type
                         _______ _______ _______ _____ _____    ______ ____

>  <TORSDO>
F 3

$$$$
=
 OpenBabel10252415023D

 34 40  0  0  1  0  0  0  0  0999 V2000
  186.4930  178.0370  144.8620 C   0  0  0  0  0  0  0  0  0  0  0  0
  184.3000  178.4940  143.7730 C   0  0  0  0  0  0  0  0  0  0  0  0
  186.3190  178.1290  142.4310 N   0  0  0  0  0  0  0  0  0  0  0  0
  186.1590  178.4670  140.0650 C   0  0  0  0  0  0  0  0  0  0  0  0
  184.5400  178.5970  146.1670 C   0  0  0  0  0  3  0  0  0  0  0  0
  183.8050  178.7890  144.9410 N   0  0  0  0  0  0  0  0  0  0  0  0
  184.1240  178.7640  141.3960 C   0  0  0  0  0  0  0  0  0  0  0  0
  185.6230  177.7790  143.6650 C   0  0  1  0  0  3  0  0  0  0  0  0
  183.3430  179.0500  140.1360 C   0  0  2  0  0  3  0  0  0  0  0  0
  185.3370  178.7180  138.8300 C   0  0  0  0  0  2  0  0  0  0  0  0
  185.8350  178.2570  146.1550 C   0  0  0  0  0  3  0  0  0  0  0  0
  187.7380  177.9570  142.3380 C   0  0  0  0  0  0  0  0  0  0  0  0
  187.7900  178.0260  144.7520 N   0  0  0  0  0  0  0  0  0  0  0  0
  183.5630  178.7910  142.5750 N   0  0  0  0  0  0  0  0  0  0  0  0
  187.5650  178.1810  139.9500 N   0  0  0  0  0  0  0  0  0  0  0  0
  188.3440  177.9380  140.9740 C   0  0  0  0  0  0  0  0  0  0  0  0
  184.2270  179.6340  139.1200 N   0  0  0  0  0  2  0  0  0  0  0  0
  185.5580  178.4320  141.2610 C   0  0  0  0  0  0  0  0  0  0  0  0
  188.4480  177.9110  143.4750 C   0  0  0  0  0  3  0  0  0  0  0  0
  191.5980  177.0230  139.2220 C   0  0  0  0  0  0  0  0  0  0  0  0
  192.5150  177.1550  140.2680 C   0  0  0  0  0  3  0  0  0  0  0  0
  189.7810  177.6490  140.7180 C   0  0  0  0  0  0  0  0  0  0  0  0
  192.0730  177.5340  141.5370 C   0  0  0  0  0  3  0  0  0  0  0  0
  190.2420  177.2730  139.4450 C   0  0  0  0  0  3  0  0  0  0  0  0
  190.7150  177.7830  141.7580 C   0  0  0  0  0  3  0  0  0  0  0  0
  192.1490  176.5520  137.6290 Cl  0  0  0  0  0  0  0  0  0  0  0  0
  182.1830  180.0020  140.4030 C   0  0  0  0  0  2  0  0  0  0  0  0
  179.8780  181.6460  139.4820 C   0  0  0  0  0  1  0  0  0  0  0  0
  180.9360  179.4380  139.8870 N   0  0  0  0  0  0  0  0  0  0  0  0
  179.7900  180.3130  140.2050 C   0  0  1  0  0  3  0  0  0  0  0  0
  179.9390  179.2600  142.5180 C   0  0  0  0  0  2  0  0  0  0  0  0
  179.8220  178.0070  141.6610 C   0  0  0  0  0  2  0  0  0  0  0  0
  180.7740  178.0860  140.4560 C   0  0  0  0  0  2  0  0  0  0  0  0
  179.5770  180.5100  141.7140 C   0  0  0  0  0  2  0  0  0  0  0  0
  1 11  1  0  0  0  0
  2  6  2  0  0  0  0
  3  8  1  0  0  0  0
  4 18  2  0  0  0  0
  6  5  1  0  0  0  0
  7 14  2  0  0  0  0
  8  2  1  1  0  0  0
  8  1  1  0  0  0  0
  9 27  1  1  0  0  0
  9  7  1  0  0  0  0
 10 17  1  0  0  0  0
 10  4  1  0  0  0  0
 11  5  2  0  0  0  0
 12  3  1  0  0  0  0
 12 19  2  0  0  0  0
 13  1  2  0  0  0  0
 14  2  1  0  0  0  0
 15  4  1  0  0  0  0
 15 16  2  0  0  0  0
 16 12  1  0  0  0  0
 17  9  1  0  0  0  0
 18  7  1  0  0  0  0
 18  3  1  0  0  0  0
 19 13  1  0  0  0  0
 20 24  2  0  0  0  0
 20 21  1  0  0  0  0
 21 23  2  0  0  0  0
 22 16  1  0  0  0  0
 22 25  2  0  0  0  0
 23 25  1  0  0  0  0
 24 22  1  0  0  0  0
 26 20  1  0  0  0  0
 29 30  1  0  0  0  0
 29 27  1  0  0  0  0
 29 33  1  0  0  0  0
 30 28  1  6  0  0  0
 30 34  1  0  0  0  0
 32 31  1  0  0  0  0
 33 32  1  0  0  0  0
 34 31  1  0  0  0  0
M  END
>  <MODEL>
9

>  <REMARK>
 VINA RESULT:      -8.1      2.676      5.381
  Name = 
  3 active torsions:
  status: ('A' for Active; 'I' for Inactive)
    1  A    between atoms: C_3  and  N_13
    2  A    between atoms: C_3  and  C_17
    3  A    between atoms: C_12  and  C_28
                            x       y       z     vdW  Elec       q    Type
                         _______ _______ _______ _____ _____    ______ ____

>  <TORSDO>
F 3

$$$$
