=
 OpenBabel10262422523D

 37 44  0  0  1  0  0  0  0  0999 V2000
  181.9500  178.1050  137.2500 C   0  0  0  0  0  0  0  0  0  0  0  0
  180.4690  177.9150  139.9110 C   0  0  1  0  0  0  0  0  0  0  0  0
  181.4240  177.5200  135.9820 C   0  0  1  0  0  3  0  0  0  0  0  0
  181.2860  178.9840  140.6250 C   0  0  1  0  0  0  0  0  0  0  0  0
  180.2240  174.1170  138.4920 C   0  0  0  0  0  2  0  0  0  0  0  0
  182.3740  180.0000  138.7980 C   0  0  0  0  0  2  0  0  0  0  0  0
  180.0190  177.6550  135.9470 O   0  0  0  0  0  0  0  0  0  0  0  0
  181.8950  176.0490  138.8490 C   0  0  1  0  0  3  0  0  0  0  0  0
  179.2590  174.8680  139.3810 C   0  0  0  0  0  2  0  0  0  0  0  0
  179.8250  180.1260  135.7250 C   0  0  1  0  0  3  0  0  0  0  0  0
  182.7270  177.1730  138.1690 C   0  0  0  0  0  2  0  0  0  0  0  0
  180.0490  175.4200  140.5480 C   0  0  0  0  0  2  0  0  0  0  0  0
  179.4710  180.2250  137.1840 C   0  0  0  0  0  2  0  0  0  0  0  0
  181.3770  180.2120  139.8460 N   0  0  0  0  0  2  0  0  0  0  0  0
  181.0380  176.4900  140.0750 C   0  0  2  0  0  3  0  0  0  0  0  0
  181.7370  179.4080  137.5690 C   0  0  0  0  0  0  0  0  0  0  0  0
  181.2460  175.0570  137.8480 C   0  0  1  0  0  3  0  0  0  0  0  0
  179.8850  178.6550  141.1480 C   0  0  1  0  0  0  0  0  0  0  0  0
  180.9290  180.4090  136.7590 C   0  0  1  0  0  3  0  0  0  0  0  0
  179.6490  178.7260  135.1210 C   0  0  0  0  0  2  0  0  0  0  0  0
  178.9720  178.0920  140.0780 C   0  0  0  0  0  2  0  0  0  0  0  0
  183.6860  178.2690  141.0770 C   0  0  0  0  0  3  0  0  0  0  0  0
  182.4460  178.7070  141.5620 C   0  0  0  0  0  0  0  0  0  0  0  0
  182.3180  179.0140  142.9260 C   0  0  0  0  0  3  0  0  0  0  0  0
  183.2570  179.1190  145.1140 F   0  0  0  0  0  0  0  0  0  0  0  0
  184.6190  178.3700  143.3070 C   0  0  0  0  0  3  0  0  0  0  0  0
  183.3960  178.8350  143.7970 C   0  0  0  0  0  0  0  0  0  0  0  0
  184.7650  178.0910  141.9460 C   0  0  0  0  0  3  0  0  0  0  0  0
  182.3170  174.1970  137.1690 C   0  0  0  0  0  0  0  0  0  0  0  0
  182.1360  173.9000  135.6990 C   0  0  0  0  0  2  0  0  0  0  0  0
  183.7520  174.2010  137.6700 C   0  0  0  0  0  1  0  0  0  0  0  0
  181.8390  172.8280  136.7350 C   0  0  0  0  0  2  0  0  0  0  0  0
  183.5380  177.2130  134.6130 C   0  0  0  0  0  1  0  0  0  0  0  0
  182.2120  177.9450  134.7220 C   0  0  0  0  0  2  0  0  0  0  0  0
  179.8430  177.7840  142.4050 C   0  0  0  0  0  2  0  0  0  0  0  0
  178.9320  179.2140  144.4670 C   0  0  0  0  0  3  0  0  0  0  0  0
  179.3420  178.5680  143.5370 C   0  0  0  0  0  0  0  0  0  0  0  0
  1 16  2  0  0  0  0
  1 11  1  0  0  0  0
  2 15  1  0  0  0  0
  2 21  1  6  0  0  0
  2  4  1  0  0  0  0
  2 18  1  0  0  0  0
  3 34  1  6  0  0  0
  3  1  1  0  0  0  0
  4 18  1  0  0  0  0
  4 23  1  1  0  0  0
  5  9  1  0  0  0  0
  6 14  1  0  0  0  0
  7  3  1  0  0  0  0
  8 11  1  6  0  0  0
  8 15  1  0  0  0  0
  9 12  1  0  0  0  0
 10 20  1  1  0  0  0
 10 19  1  0  0  0  0
 10 13  1  0  0  0  0
 14  4  1  0  0  0  0
 15 12  1  6  0  0  0
 16  6  1  0  0  0  0
 17 29  1  1  0  0  0
 17  5  1  0  0  0  0
 17  8  1  0  0  0  0
 18 35  1  1  0  0  0
 19 13  1  1  0  0  0
 19 16  1  0  0  0  0
 20  7  1  0  0  0  0
 21 18  1  0  0  0  0
 22 23  2  0  0  0  0
 22 28  1  0  0  0  0
 23 24  1  0  0  0  0
 24 27  2  0  0  0  0
 26 27  1  0  0  0  0
 27 25  1  0  0  0  0
 28 26  2  0  0  0  0
 29 31  1  0  0  0  0
 30 32  1  0  0  0  0
 30 29  1  0  0  0  0
 32 29  1  0  0  0  0
 33 34  1  0  0  0  0
 35 37  1  0  0  0  0
 37 36  3  0  0  0  0
M  END
>  <MODEL>
1

>  <REMARK>
 VINA RESULT:      -6.6      0.000      0.000
  Name = 
  5 active torsions:
  status: ('A' for Active; 'I' for Inactive)
    1  A    between atoms: C_3  and  C_30
    2  A    between atoms: C_5  and  C_23
    3  A    between atoms: C_6  and  C_7
    4  A    between atoms: C_14  and  C_31
    5  A    between atoms: C_14  and  C_37
                            x       y       z     vdW  Elec       q    Type
                         _______ _______ _______ _____ _____    ______ ____

>  <TORSDO>
F 5

$$$$
=
 OpenBabel10262422523D

 37 44  0  0  1  0  0  0  0  0999 V2000
  182.9580  174.9830  137.2140 C   0  0  0  0  0  0  0  0  0  0  0  0
  181.4680  177.6360  136.9740 C   0  0  1  0  0  0  0  0  0  0  0  0
  183.1850  174.0700  136.0570 C   0  0  1  0  0  3  0  0  0  0  0  0
  181.9250  178.1970  138.3140 C   0  0  1  0  0  0  0  0  0  0  0  0
  179.0580  175.0810  134.9310 C   0  0  0  0  0  2  0  0  0  0  0  0
  183.6870  176.7210  138.8320 C   0  0  0  0  0  2  0  0  0  0  0  0
  183.4140  174.8320  134.8900 O   0  0  0  0  0  0  0  0  0  0  0  0
  180.3740  175.3070  137.1390 C   0  0  1  0  0  3  0  0  0  0  0  0
  179.2770  176.5620  134.7210 C   0  0  0  0  0  2  0  0  0  0  0  0
  185.6220  175.8320  135.4520 C   0  0  1  0  0  3  0  0  0  0  0  0
  181.6270  174.8570  137.9410 C   0  0  0  0  0  2  0  0  0  0  0  0
  179.0580  177.2500  136.0500 C   0  0  0  0  0  2  0  0  0  0  0  0
  184.9450  177.1360  135.7770 C   0  0  0  0  0  2  0  0  0  0  0  0
  183.3690  178.1040  138.4800 N   0  0  0  0  0  2  0  0  0  0  0  0
  180.1440  176.8470  137.0540 C   0  0  2  0  0  3  0  0  0  0  0  0
  183.8960  175.8900  137.5940 C   0  0  0  0  0  0  0  0  0  0  0  0
  180.1250  174.4790  135.8500 C   0  0  1  0  0  3  0  0  0  0  0  0
  181.4630  179.1700  137.2250 C   0  0  1  0  0  0  0  0  0  0  0  0
  185.2270  176.1440  136.9070 C   0  0  1  0  0  3  0  0  0  0  0  0
  184.7840  174.8760  134.5940 C   0  0  0  0  0  2  0  0  0  0  0  0
  181.6290  178.6130  135.8260 C   0  0  0  0  0  2  0  0  0  0  0  0
  180.0630  177.2480  139.7650 C   0  0  0  0  0  3  0  0  0  0  0  0
  181.1080  178.1660  139.5920 C   0  0  0  0  0  0  0  0  0  0  0  0
  181.4830  178.9840  140.6690 C   0  0  0  0  0  3  0  0  0  0  0  0
  181.1500  179.7260  142.9100 F   0  0  0  0  0  0  0  0  0  0  0  0
  179.7320  178.0230  142.0340 C   0  0  0  0  0  3  0  0  0  0  0  0
  180.7900  178.9210  141.8810 C   0  0  0  0  0  0  0  0  0  0  0  0
  179.3700  177.1830  140.9770 C   0  0  0  0  0  3  0  0  0  0  0  0
  179.6940  173.0510  136.2020 C   0  0  0  0  0  0  0  0  0  0  0  0
  180.3840  171.9220  135.4720 C   0  0  0  0  0  2  0  0  0  0  0  0
  179.1610  172.7160  137.5850 C   0  0  0  0  0  1  0  0  0  0  0  0
  178.9680  172.3240  135.0890 C   0  0  0  0  0  2  0  0  0  0  0  0
  183.5200  171.8290  137.1990 C   0  0  0  0  0  1  0  0  0  0  0  0
  184.1670  172.9130  136.3550 C   0  0  0  0  0  2  0  0  0  0  0  0
  180.0580  179.7450  137.4130 C   0  0  0  0  0  2  0  0  0  0  0  0
  180.2130  182.3290  138.0660 C   0  0  0  0  0  3  0  0  0  0  0  0
  180.1440  181.1620  137.7710 C   0  0  0  0  0  0  0  0  0  0  0  0
  1 16  2  0  0  0  0
  1 11  1  0  0  0  0
  2 21  1  6  0  0  0
  2 15  1  0  0  0  0
  2 18  1  0  0  0  0
  2  4  1  0  0  0  0
  3 34  1  1  0  0  0
  3  1  1  0  0  0  0
  4 14  1  0  0  0  0
  4 23  1  1  0  0  0
  7  3  1  0  0  0  0
  8 11  1  6  0  0  0
  9  5  1  0  0  0  0
  9 12  1  0  0  0  0
 10 20  1  6  0  0  0
 10 13  1  0  0  0  0
 10 19  1  0  0  0  0
 14  6  1  0  0  0  0
 15 12  1  6  0  0  0
 15  8  1  0  0  0  0
 16  6  1  0  0  0  0
 17  5  1  6  0  0  0
 17 29  1  0  0  0  0
 17  8  1  0  0  0  0
 18 35  1  1  0  0  0
 18  4  1  0  0  0  0
 19 13  1  6  0  0  0
 19 16  1  0  0  0  0
 20  7  1  0  0  0  0
 21 18  1  0  0  0  0
 22 28  1  0  0  0  0
 23 22  2  0  0  0  0
 23 24  1  0  0  0  0
 24 27  2  0  0  0  0
 27 26  1  0  0  0  0
 27 25  1  0  0  0  0
 28 26  2  0  0  0  0
 29 31  1  0  0  0  0
 30 29  1  0  0  0  0
 32 30  1  0  0  0  0
 32 29  1  0  0  0  0
 34 33  1  0  0  0  0
 35 37  1  0  0  0  0
 37 36  3  0  0  0  0
M  END
>  <MODEL>
2

>  <REMARK>
 VINA RESULT:      -4.9      2.026      4.514
  Name = 
  5 active torsions:
  status: ('A' for Active; 'I' for Inactive)
    1  A    between atoms: C_3  and  C_30
    2  A    between atoms: C_5  and  C_23
    3  A    between atoms: C_6  and  C_7
    4  A    between atoms: C_14  and  C_31
    5  A    between atoms: C_14  and  C_37
                            x       y       z     vdW  Elec       q    Type
                         _______ _______ _______ _____ _____    ______ ____

>  <TORSDO>
F 5

$$$$
=
 OpenBabel10262422523D

 37 44  0  0  1  0  0  0  0  0999 V2000
  184.2040  175.1600  137.2750 C   0  0  0  0  0  0  0  0  0  0  0  0
  182.0340  177.1770  136.5390 C   0  0  1  0  0  0  0  0  0  0  0  0
  184.7040  174.1220  136.3270 C   0  0  1  0  0  3  0  0  0  0  0  0
  182.2850  178.1150  137.7130 C   0  0  1  0  0  0  0  0  0  0  0  0
  180.4860  173.6770  135.1750 C   0  0  0  0  0  2  0  0  0  0  0  0
  184.3790  177.3350  138.4620 C   0  0  0  0  0  2  0  0  0  0  0  0
  184.7360  174.6520  135.0190 O   0  0  0  0  0  0  0  0  0  0  0  0
  181.6350  174.7260  137.2330 C   0  0  1  0  0  3  0  0  0  0  0  0
  180.2840  175.0810  134.6490 C   0  0  0  0  0  2  0  0  0  0  0  0
  186.5610  176.3240  135.2710 C   0  0  1  0  0  3  0  0  0  0  0  0
  182.9460  174.8250  138.0630 C   0  0  0  0  0  2  0  0  0  0  0  0
  179.8510  175.9470  135.8120 C   0  0  0  0  0  2  0  0  0  0  0  0
  185.5380  177.4250  135.3410 C   0  0  0  0  0  2  0  0  0  0  0  0
  183.6930  178.4660  137.8390 N   0  0  0  0  0  2  0  0  0  0  0  0
  180.9840  176.0860  136.8350 C   0  0  2  0  0  3  0  0  0  0  0  0
  184.8400  176.3520  137.4180 C   0  0  0  0  0  0  0  0  0  0  0  0
  181.6570  173.6070  136.1580 C   0  0  1  0  0  3  0  0  0  0  0  0
  181.5930  178.6660  136.4620 C   0  0  1  0  0  0  0  0  0  0  0  0
  186.0620  176.8150  136.6420 C   0  0  1  0  0  3  0  0  0  0  0  0
  186.0450  175.0120  134.6670 C   0  0  0  0  0  2  0  0  0  0  0  0
  181.9410  177.8930  135.2060 C   0  0  0  0  0  2  0  0  0  0  0  0
  181.3240  179.3050  139.7460 C   0  0  0  0  0  3  0  0  0  0  0  0
  181.4810  178.1300  138.9990 C   0  0  0  0  0  0  0  0  0  0  0  0
  180.7760  176.9780  139.3830 C   0  0  0  0  0  3  0  0  0  0  0  0
  179.3070  175.8670  140.8960 F   0  0  0  0  0  0  0  0  0  0  0  0
  179.8440  178.1580  141.2790 C   0  0  0  0  0  3  0  0  0  0  0  0
  179.9710  176.9880  140.5250 C   0  0  0  0  0  0  0  0  0  0  0  0
  180.5180  179.3170  140.8870 C   0  0  0  0  0  3  0  0  0  0  0  0
  181.6380  172.2240  136.8180 C   0  0  0  0  0  0  0  0  0  0  0  0
  182.9580  171.5020  136.9480 C   0  0  0  0  0  2  0  0  0  0  0  0
  180.5860  171.8730  137.8570 C   0  0  0  0  0  1  0  0  0  0  0  0
  181.9600  171.0790  135.8820 C   0  0  0  0  0  2  0  0  0  0  0  0
  186.1680  172.0630  136.0890 C   0  0  0  0  0  1  0  0  0  0  0  0
  185.9640  173.3760  136.8240 C   0  0  0  0  0  2  0  0  0  0  0  0
  180.0790  178.8520  136.5790 C   0  0  0  0  0  2  0  0  0  0  0  0
  179.4770  181.4510  136.5190 C   0  0  0  0  0  3  0  0  0  0  0  0
  179.7490  180.2780  136.5450 C   0  0  0  0  0  0  0  0  0  0  0  0
  1 16  2  0  0  0  0
  1 11  1  0  0  0  0
  2 21  1  6  0  0  0
  2 15  1  0  0  0  0
  2  4  1  0  0  0  0
  3 34  1  1  0  0  0
  3  1  1  0  0  0  0
  4 14  1  0  0  0  0
  4 23  1  1  0  0  0
  7  3  1  0  0  0  0
  8 11  1  6  0  0  0
  9  5  1  0  0  0  0
  9 12  1  0  0  0  0
 10 20  1  6  0  0  0
 10 13  1  0  0  0  0
 10 19  1  0  0  0  0
 14  6  1  0  0  0  0
 15 12  1  6  0  0  0
 15  8  1  0  0  0  0
 16  6  1  0  0  0  0
 17  5  1  6  0  0  0
 17 29  1  0  0  0  0
 17  8  1  0  0  0  0
 18  2  1  0  0  0  0
 18 35  1  1  0  0  0
 18  4  1  0  0  0  0
 19 13  1  6  0  0  0
 19 16  1  0  0  0  0
 20  7  1  0  0  0  0
 21 18  1  0  0  0  0
 22 28  1  0  0  0  0
 23 24  1  0  0  0  0
 23 22  2  0  0  0  0
 24 27  2  0  0  0  0
 27 25  1  0  0  0  0
 27 26  1  0  0  0  0
 28 26  2  0  0  0  0
 29 30  1  0  0  0  0
 29 31  1  0  0  0  0
 32 29  1  0  0  0  0
 32 30  1  0  0  0  0
 33 34  1  0  0  0  0
 36 37  3  0  0  0  0
 37 35  1  0  0  0  0
M  END
>  <MODEL>
3

>  <REMARK>
 VINA RESULT:      -4.4      2.441      4.915
  Name = 
  5 active torsions:
  status: ('A' for Active; 'I' for Inactive)
    1  A    between atoms: C_3  and  C_30
    2  A    between atoms: C_5  and  C_23
    3  A    between atoms: C_6  and  C_7
    4  A    between atoms: C_14  and  C_31
    5  A    between atoms: C_14  and  C_37
                            x       y       z     vdW  Elec       q    Type
                         _______ _______ _______ _____ _____    ______ ____

>  <TORSDO>
F 5

$$$$
=
 OpenBabel10262422523D

 37 44  0  0  1  0  0  0  0  0999 V2000
  179.7420  179.3980  138.0050 C   0  0  0  0  0  0  0  0  0  0  0  0
  181.8140  177.2120  137.5130 C   0  0  1  0  0  0  0  0  0  0  0  0
  180.0970  180.7580  138.5050 C   0  0  1  0  0  3  0  0  0  0  0  0
  180.9020  176.3120  136.6890 C   0  0  1  0  0  0  0  0  0  0  0  0
  182.8890  178.6440  141.1600 C   0  0  0  0  0  2  0  0  0  0  0  0
  179.1350  177.7940  136.2080 C   0  0  0  0  0  2  0  0  0  0  0  0
  181.3330  181.1570  137.9510 O   0  0  0  0  0  0  0  0  0  0  0  0
  180.8350  177.8660  139.8070 C   0  0  1  0  0  3  0  0  0  0  0  0
  183.7550  178.0350  140.0790 C   0  0  0  0  0  2  0  0  0  0  0  0
  180.6750  181.4240  135.5660 C   0  0  1  0  0  3  0  0  0  0  0  0
  179.5510  178.3080  139.0500 C   0  0  0  0  0  2  0  0  0  0  0  0
  183.1440  176.7040  139.6990 C   0  0  0  0  0  2  0  0  0  0  0  0
  181.3270  180.1070  135.2430 C   0  0  0  0  0  2  0  0  0  0  0  0
  180.2390  177.0410  135.6170 N   0  0  0  0  0  2  0  0  0  0  0  0
  181.7830  176.9050  139.0250 C   0  0  2  0  0  3  0  0  0  0  0  0
  179.6030  179.1470  136.6770 C   0  0  0  0  0  0  0  0  0  0  0  0
  181.4980  179.0010  140.6320 C   0  0  1  0  0  3  0  0  0  0  0  0
  182.4200  176.1700  136.5310 C   0  0  1  0  0  0  0  0  0  0  0  0
  179.8290  180.1390  135.5480 C   0  0  1  0  0  3  0  0  0  0  0  0
  181.1300  182.0520  136.8900 C   0  0  0  0  0  2  0  0  0  0  0  0
  183.1700  177.4400  136.8750 C   0  0  0  0  0  2  0  0  0  0  0  0
  179.7600  174.0580  136.3860 C   0  0  0  0  0  3  0  0  0  0  0  0
  180.1580  175.1050  137.2290 C   0  0  0  0  0  0  0  0  0  0  0  0
  179.9740  174.9730  138.6140 C   0  0  0  0  0  3  0  0  0  0  0  0
  179.1680  173.7250  140.4790 F   0  0  0  0  0  0  0  0  0  0  0  0
  178.9360  172.8110  138.2890 C   0  0  0  0  0  3  0  0  0  0  0  0
  179.3550  173.8360  139.1410 C   0  0  0  0  0  0  0  0  0  0  0  0
  179.1420  172.9210  136.9110 C   0  0  0  0  0  3  0  0  0  0  0  0
  180.6210  179.3780  141.8310 C   0  0  0  0  0  0  0  0  0  0  0  0
  181.1520  179.0490  143.2070 C   0  0  0  0  0  2  0  0  0  0  0  0
  179.6640  180.5560  141.7560 C   0  0  0  0  0  1  0  0  0  0  0  0
  180.0550  178.1960  142.5900 C   0  0  0  0  0  2  0  0  0  0  0  0
  179.1080  182.8930  139.4540 C   0  0  0  0  0  1  0  0  0  0  0  0
  178.9310  181.7720  138.4460 C   0  0  0  0  0  2  0  0  0  0  0  0
  183.0420  174.9660  137.2400 C   0  0  0  0  0  2  0  0  0  0  0  0
  183.8940  173.1910  135.4380 C   0  0  0  0  0  3  0  0  0  0  0  0
  183.5090  173.9920  136.2510 C   0  0  0  0  0  0  0  0  0  0  0  0
  1  3  1  0  0  0  0
  1 11  1  0  0  0  0
  2 21  1  6  0  0  0
  2 15  1  0  0  0  0
  3 34  1  6  0  0  0
  4 23  1  1  0  0  0
  4  2  1  0  0  0  0
  6 16  1  0  0  0  0
  7  3  1  0  0  0  0
  8 11  1  6  0  0  0
  8 17  1  0  0  0  0
  9  5  1  0  0  0  0
 10 13  1  6  0  0  0
 10 20  1  0  0  0  0
 12  9  1  0  0  0  0
 14  6  1  0  0  0  0
 14  4  1  0  0  0  0
 15 12  1  1  0  0  0
 15  8  1  0  0  0  0
 16  1  2  0  0  0  0
 17  5  1  1  0  0  0
 17 29  1  0  0  0  0
 18  4  1  0  0  0  0
 18 21  1  0  0  0  0
 18 35  1  1  0  0  0
 18  2  1  0  0  0  0
 19 13  1  6  0  0  0
 19 10  1  0  0  0  0
 19 16  1  0  0  0  0
 20  7  1  0  0  0  0
 22 28  2  0  0  0  0
 22 23  1  0  0  0  0
 23 24  2  0  0  0  0
 24 27  1  0  0  0  0
 26 27  2  0  0  0  0
 27 25  1  0  0  0  0
 28 26  1  0  0  0  0
 29 32  1  0  0  0  0
 29 30  1  0  0  0  0
 31 29  1  0  0  0  0
 32 30  1  0  0  0  0
 34 33  1  0  0  0  0
 36 37  3  0  0  0  0
 37 35  1  0  0  0  0
M  END
>  <MODEL>
4

>  <REMARK>
 VINA RESULT:      -4.4      2.298      6.251
  Name = 
  5 active torsions:
  status: ('A' for Active; 'I' for Inactive)
    1  A    between atoms: C_3  and  C_30
    2  A    between atoms: C_5  and  C_23
    3  A    between atoms: C_6  and  C_7
    4  A    between atoms: C_14  and  C_31
    5  A    between atoms: C_14  and  C_37
                            x       y       z     vdW  Elec       q    Type
                         _______ _______ _______ _____ _____    ______ ____

>  <TORSDO>
F 5

$$$$
=
 OpenBabel10262422523D

 37 44  0  0  1  0  0  0  0  0999 V2000
  184.7970  175.6530  136.0570 C   0  0  0  0  0  0  0  0  0  0  0  0
  183.2560  177.1440  138.2280 C   0  0  1  0  0  0  0  0  0  0  0  0
  186.0480  174.8860  136.3280 C   0  0  1  0  0  3  0  0  0  0  0  0
  181.9810  177.3330  137.4160 C   0  0  1  0  0  0  0  0  0  0  0  0
  187.0960  178.2540  138.9510 C   0  0  0  0  0  2  0  0  0  0  0  0
  182.3520  175.8170  135.6510 C   0  0  0  0  0  2  0  0  0  0  0  0
  185.9580  174.2660  137.5930 O   0  0  0  0  0  0  0  0  0  0  0  0
  185.3810  177.9930  137.0420 C   0  0  1  0  0  3  0  0  0  0  0  0
  185.9460  178.1030  139.9220 C   0  0  0  0  0  2  0  0  0  0  0  0
  184.1810  172.5870  137.1290 C   0  0  1  0  0  3  0  0  0  0  0  0
  184.9440  177.1480  135.8120 C   0  0  0  0  0  2  0  0  0  0  0  0
  184.7860  178.9120  139.3850 C   0  0  0  0  0  2  0  0  0  0  0  0
  183.1810  173.4540  137.8460 C   0  0  0  0  0  2  0  0  0  0  0  0
  181.5210  176.0850  136.8230 N   0  0  0  0  0  2  0  0  0  0  0  0
  184.2600  178.3060  138.0800 C   0  0  2  0  0  3  0  0  0  0  0  0
  183.5840  175.0410  136.0380 C   0  0  0  0  0  0  0  0  0  0  0  0
  186.7790  177.6120  137.5980 C   0  0  1  0  0  3  0  0  0  0  0  0
  181.8980  177.3910  138.9450 C   0  0  1  0  0  0  0  0  0  0  0  0
  183.3150  173.5740  136.3260 C   0  0  1  0  0  3  0  0  0  0  0  0
  185.6470  172.9060  137.4530 C   0  0  0  0  0  2  0  0  0  0  0  0
  183.0050  176.6120  139.6250 C   0  0  0  0  0  2  0  0  0  0  0  0
  181.5570  178.6250  135.2650 C   0  0  0  0  0  3  0  0  0  0  0  0
  181.6110  178.5990  136.6650 C   0  0  0  0  0  0  0  0  0  0  0  0
  181.1910  179.7280  137.3860 C   0  0  0  0  0  3  0  0  0  0  0  0
  180.3880  181.9730  137.4190 F   0  0  0  0  0  0  0  0  0  0  0  0
  180.7540  180.9080  135.3180 C   0  0  0  0  0  3  0  0  0  0  0  0
  180.7760  180.8820  136.7150 C   0  0  0  0  0  0  0  0  0  0  0  0
  181.1410  179.7770  134.5940 C   0  0  0  0  0  3  0  0  0  0  0  0
  187.8800  178.0180  136.6130 C   0  0  0  0  0  0  0  0  0  0  0  0
  189.2860  177.5540  136.9180 C   0  0  0  0  0  2  0  0  0  0  0  0
  187.5650  178.2510  135.1450 C   0  0  0  0  0  1  0  0  0  0  0  0
  188.8890  179.0000  137.1710 C   0  0  0  0  0  2  0  0  0  0  0  0
  187.9380  174.3550  134.7200 C   0  0  0  0  0  1  0  0  0  0  0  0
  186.5190  174.0150  135.1400 C   0  0  0  0  0  2  0  0  0  0  0  0
  181.7790  178.7940  139.5420 C   0  0  0  0  0  2  0  0  0  0  0  0
  180.2290  178.7240  141.7140 C   0  0  0  0  0  3  0  0  0  0  0  0
  180.9280  178.7570  140.7330 C   0  0  0  0  0  0  0  0  0  0  0  0
  1  3  1  0  0  0  0
  2 18  1  0  0  0  0
  2 21  1  1  0  0  0
  3 34  1  6  0  0  0
  3  7  1  0  0  0  0
  4 23  1  6  0  0  0
  4  2  1  0  0  0  0
  4 18  1  0  0  0  0
  5  9  1  0  0  0  0
  6 16  1  0  0  0  0
  6 14  1  0  0  0  0
  8 11  1  1  0  0  0
  8 17  1  0  0  0  0
  8 15  1  0  0  0  0
 10 20  1  1  0  0  0
 10 13  1  0  0  0  0
 11  1  1  0  0  0  0
 12  9  1  0  0  0  0
 14  4  1  0  0  0  0
 15  2  1  0  0  0  0
 15 12  1  1  0  0  0
 16  1  2  0  0  0  0
 16 19  1  0  0  0  0
 17 29  1  6  0  0  0
 17  5  1  0  0  0  0
 18 35  1  1  0  0  0
 18 21  1  0  0  0  0
 19 10  1  0  0  0  0
 19 13  1  1  0  0  0
 20  7  1  0  0  0  0
 22 23  1  0  0  0  0
 23 24  2  0  0  0  0
 26 27  2  0  0  0  0
 27 24  1  0  0  0  0
 27 25  1  0  0  0  0
 28 22  2  0  0  0  0
 28 26  1  0  0  0  0
 29 30  1  0  0  0  0
 29 32  1  0  0  0  0
 30 32  1  0  0  0  0
 31 29  1  0  0  0  0
 33 34  1  0  0  0  0
 35 37  1  0  0  0  0
 37 36  3  0  0  0  0
M  END
>  <MODEL>
5

>  <REMARK>
 VINA RESULT:      -4.3      3.339      6.263
  Name = 
  5 active torsions:
  status: ('A' for Active; 'I' for Inactive)
    1  A    between atoms: C_3  and  C_30
    2  A    between atoms: C_5  and  C_23
    3  A    between atoms: C_6  and  C_7
    4  A    between atoms: C_14  and  C_31
    5  A    between atoms: C_14  and  C_37
                            x       y       z     vdW  Elec       q    Type
                         _______ _______ _______ _____ _____    ______ ____

>  <TORSDO>
F 5

$$$$
=
 OpenBabel10262422523D

 37 44  0  0  1  0  0  0  0  0999 V2000
  181.3980  179.5710  139.3530 C   0  0  0  0  0  0  0  0  0  0  0  0
  182.0800  176.7840  138.3150 C   0  0  1  0  0  0  0  0  0  0  0  0
  179.9970  180.0570  139.5190 C   0  0  1  0  0  3  0  0  0  0  0  0
  183.5380  176.8030  138.7550 C   0  0  1  0  0  0  0  0  0  0  0  0
  179.2390  178.0310  135.6930 C   0  0  0  0  0  2  0  0  0  0  0  0
  183.5320  178.6460  140.2240 C   0  0  0  0  0  2  0  0  0  0  0  0
  179.1740  178.9920  139.9480 O   0  0  0  0  0  0  0  0  0  0  0  0
  181.4040  178.8040  136.8630 C   0  0  1  0  0  3  0  0  0  0  0  0
  179.5640  176.6280  136.1540 C   0  0  0  0  0  2  0  0  0  0  0  0
  180.0810  178.6390  142.2380 C   0  0  1  0  0  3  0  0  0  0  0  0
  182.0160  179.7100  137.9690 C   0  0  0  0  0  2  0  0  0  0  0  0
  181.0470  176.4110  135.9480 C   0  0  0  0  0  2  0  0  0  0  0  0
  180.8330  177.4300  141.7490 C   0  0  0  0  0  2  0  0  0  0  0  0
  183.6820  177.1940  140.1510 N   0  0  0  0  0  2  0  0  0  0  0  0
  181.8610  177.3130  136.8820 C   0  0  2  0  0  3  0  0  0  0  0  0
  182.0830  179.0240  140.3900 C   0  0  0  0  0  0  0  0  0  0  0  0
  179.9040  179.0840  136.5830 C   0  0  1  0  0  3  0  0  0  0  0  0
  182.8530  175.4520  138.5310 C   0  0  1  0  0  0  0  0  0  0  0  0
  181.5480  178.7830  141.7910 C   0  0  1  0  0  3  0  0  0  0  0  0
  178.9310  179.0850  141.3260 C   0  0  0  0  0  2  0  0  0  0  0  0
  181.3500  175.5150  138.7100 C   0  0  0  0  0  2  0  0  0  0  0  0
  184.5780  177.1370  136.4570 C   0  0  0  0  0  3  0  0  0  0  0  0
  184.7130  177.1300  137.8520 C   0  0  0  0  0  0  0  0  0  0  0  0
  185.9220  177.5570  138.4230 C   0  0  0  0  0  3  0  0  0  0  0  0
  188.1640  178.3270  138.1710 F   0  0  0  0  0  0  0  0  0  0  0  0
  186.8600  177.9080  136.2200 C   0  0  0  0  0  3  0  0  0  0  0  0
  186.9950  177.9330  137.6110 C   0  0  0  0  0  0  0  0  0  0  0  0
  185.6500  177.5130  135.6440 C   0  0  0  0  0  3  0  0  0  0  0  0
  179.7270  180.4500  135.9110 C   0  0  0  0  0  0  0  0  0  0  0  0
  178.9490  180.4890  134.6170 C   0  0  0  0  0  2  0  0  0  0  0  0
  179.7010  181.7260  136.7360 C   0  0  0  0  0  1  0  0  0  0  0  0
  180.4650  180.6030  134.5970 C   0  0  0  0  0  2  0  0  0  0  0  0
  179.0160  182.3970  139.5430 C   0  0  0  0  0  1  0  0  0  0  0  0
  179.8840  181.3960  140.2840 C   0  0  0  0  0  2  0  0  0  0  0  0
  183.2110  174.7450  137.2220 C   0  0  0  0  0  2  0  0  0  0  0  0
  185.0590  172.8740  137.6800 C   0  0  0  0  0  3  0  0  0  0  0  0
  184.2240  173.7180  137.4730 C   0  0  0  0  0  0  0  0  0  0  0  0
  1  3  1  0  0  0  0
  1 16  2  0  0  0  0
  2 18  1  0  0  0  0
  2 21  1  1  0  0  0
  2  4  1  0  0  0  0
  3  7  1  0  0  0  0
  3 34  1  1  0  0  0
  4 23  1  6  0  0  0
  4 14  1  0  0  0  0
  5  9  1  0  0  0  0
  6 16  1  0  0  0  0
  7 20  1  0  0  0  0
  8 15  1  0  0  0  0
  8 11  1  1  0  0  0
 10 20  1  6  0  0  0
 11  1  1  0  0  0  0
 12  9  1  0  0  0  0
 13 10  1  0  0  0  0
 14  6  1  0  0  0  0
 15 12  1  1  0  0  0
 15  2  1  0  0  0  0
 16 19  1  0  0  0  0
 17  5  1  6  0  0  0
 17  8  1  0  0  0  0
 18 35  1  6  0  0  0
 18 21  1  0  0  0  0
 18  4  1  0  0  0  0
 19 13  1  6  0  0  0
 19 10  1  0  0  0  0
 22 23  1  0  0  0  0
 23 24  2  0  0  0  0
 26 27  2  0  0  0  0
 27 25  1  0  0  0  0
 27 24  1  0  0  0  0
 28 26  1  0  0  0  0
 28 22  2  0  0  0  0
 29 17  1  0  0  0  0
 29 31  1  0  0  0  0
 30 29  1  0  0  0  0
 32 30  1  0  0  0  0
 32 29  1  0  0  0  0
 33 34  1  0  0  0  0
 35 37  1  0  0  0  0
 37 36  3  0  0  0  0
M  END
>  <MODEL>
6

>  <REMARK>
 VINA RESULT:      -4.1      2.434      5.944
  Name = 
  5 active torsions:
  status: ('A' for Active; 'I' for Inactive)
    1  A    between atoms: C_3  and  C_30
    2  A    between atoms: C_5  and  C_23
    3  A    between atoms: C_6  and  C_7
    4  A    between atoms: C_14  and  C_31
    5  A    between atoms: C_14  and  C_37
                            x       y       z     vdW  Elec       q    Type
                         _______ _______ _______ _____ _____    ______ ____

>  <TORSDO>
F 5

$$$$
=
 OpenBabel10262422523D

 37 44  0  0  1  0  0  0  0  0999 V2000
  183.1510  176.7250  136.7910 C   0  0  0  0  0  0  0  0  0  0  0  0
  181.7990  178.0890  139.1630 C   0  0  1  0  0  0  0  0  0  0  0  0
  184.1620  175.6380  136.9460 C   0  0  1  0  0  3  0  0  0  0  0  0
  180.6840  178.7410  138.3560 C   0  0  1  0  0  0  0  0  0  0  0  0
  185.7070  178.0600  140.2720 C   0  0  0  0  0  2  0  0  0  0  0  0
  180.8590  177.5590  136.3250 C   0  0  0  0  0  2  0  0  0  0  0  0
  183.8140  174.8210  138.0450 O   0  0  0  0  0  0  0  0  0  0  0  0
  184.1640  178.6080  138.2790 C   0  0  1  0  0  3  0  0  0  0  0  0
  184.4670  178.0060  141.1380 C   0  0  0  0  0  2  0  0  0  0  0  0
  181.7490  173.7530  137.1550 C   0  0  1  0  0  3  0  0  0  0  0  0
  183.6610  178.1560  136.8790 C   0  0  0  0  0  2  0  0  0  0  0  0
  183.5800  179.1640  140.7370 C   0  0  0  0  0  2  0  0  0  0  0  0
  180.9130  174.6790  137.9960 C   0  0  0  0  0  2  0  0  0  0  0  0
  180.0060  177.7850  137.4900 N   0  0  0  0  0  2  0  0  0  0  0  0
  183.0530  178.9750  139.3100 C   0  0  2  0  0  3  0  0  0  0  0  0
  181.8380  176.4450  136.5890 C   0  0  0  0  0  0  0  0  0  0  0  0
  185.3780  177.7950  138.8010 C   0  0  1  0  0  3  0  0  0  0  0  0
  180.4730  178.5140  139.8560 C   0  0  1  0  0  0  0  0  0  0  0  0
  181.2120  175.0610  136.5450 C   0  0  1  0  0  3  0  0  0  0  0  0
  183.2120  173.6340  137.6020 C   0  0  0  0  0  2  0  0  0  0  0  0
  181.3030  177.3700  140.4010 C   0  0  0  0  0  2  0  0  0  0  0  0
  179.6300  180.6970  137.1160 C   0  0  0  0  0  3  0  0  0  0  0  0
  180.6860  180.1810  137.8780 C   0  0  0  0  0  0  0  0  0  0  0  0
  181.7010  181.0480  138.3120 C   0  0  0  0  0  3  0  0  0  0  0  0
  182.6800  183.2210  138.3560 F   0  0  0  0  0  0  0  0  0  0  0  0
  180.6430  182.8940  137.1600 C   0  0  0  0  0  3  0  0  0  0  0  0
  181.6870  182.3960  137.9450 C   0  0  0  0  0  0  0  0  0  0  0  0
  179.6130  182.0450  136.7490 C   0  0  0  0  0  3  0  0  0  0  0  0
  186.6310  178.1060  137.9740 C   0  0  0  0  0  0  0  0  0  0  0  0
  187.6180  176.9810  137.7670 C   0  0  0  0  0  2  0  0  0  0  0  0
  186.6040  179.1700  136.8900 C   0  0  0  0  0  1  0  0  0  0  0  0
  187.9230  178.0880  138.7640 C   0  0  0  0  0  2  0  0  0  0  0  0
  185.4930  175.7560  134.7890 C   0  0  0  0  0  1  0  0  0  0  0  0
  184.5280  174.9300  135.6210 C   0  0  0  0  0  2  0  0  0  0  0  0
  180.6260  179.7570  140.7340 C   0  0  0  0  0  2  0  0  0  0  0  0
  178.9320  179.6260  142.7940 C   0  0  0  0  0  3  0  0  0  0  0  0
  179.6970  179.6840  141.8640 C   0  0  0  0  0  0  0  0  0  0  0  0
  1 11  1  0  0  0  0
  1  3  1  0  0  0  0
  2 15  1  0  0  0  0
  2 18  1  0  0  0  0
  2 21  1  6  0  0  0
  3 34  1  6  0  0  0
  3  7  1  0  0  0  0
  4 23  1  6  0  0  0
  4  2  1  0  0  0  0
  4 18  1  0  0  0  0
  5  9  1  0  0  0  0
  6 16  1  0  0  0  0
  6 14  1  0  0  0  0
  8 11  1  6  0  0  0
  8 17  1  0  0  0  0
  8 15  1  0  0  0  0
 10 20  1  1  0  0  0
 10 13  1  0  0  0  0
 12  9  1  0  0  0  0
 14  4  1  0  0  0  0
 15 12  1  1  0  0  0
 16  1  2  0  0  0  0
 17 29  1  6  0  0  0
 17  5  1  0  0  0  0
 18 21  1  0  0  0  0
 18 35  1  1  0  0  0
 19 16  1  0  0  0  0
 19 10  1  0  0  0  0
 19 13  1  1  0  0  0
 20  7  1  0  0  0  0
 22 23  1  0  0  0  0
 23 24  2  0  0  0  0
 26 27  2  0  0  0  0
 27 24  1  0  0  0  0
 27 25  1  0  0  0  0
 28 22  2  0  0  0  0
 28 26  1  0  0  0  0
 29 32  1  0  0  0  0
 30 29  1  0  0  0  0
 30 32  1  0  0  0  0
 31 29  1  0  0  0  0
 33 34  1  0  0  0  0
 35 37  1  0  0  0  0
 37 36  3  0  0  0  0
M  END
>  <MODEL>
7

>  <REMARK>
 VINA RESULT:      -3.6      2.618      5.124
  Name = 
  5 active torsions:
  status: ('A' for Active; 'I' for Inactive)
    1  A    between atoms: C_3  and  C_30
    2  A    between atoms: C_5  and  C_23
    3  A    between atoms: C_6  and  C_7
    4  A    between atoms: C_14  and  C_31
    5  A    between atoms: C_14  and  C_37
                            x       y       z     vdW  Elec       q    Type
                         _______ _______ _______ _____ _____    ______ ____

>  <TORSDO>
F 5

$$$$
=
 OpenBabel10262422523D

 37 44  0  0  1  0  0  0  0  0999 V2000
  183.1000  177.3300  139.2220 C   0  0  0  0  0  0  0  0  0  0  0  0
  181.7660  176.2950  136.6800 C   0  0  1  0  0  0  0  0  0  0  0  0
  183.7970  178.6470  139.2970 C   0  0  1  0  0  3  0  0  0  0  0  0
  180.9650  175.1920  137.3590 C   0  0  1  0  0  0  0  0  0  0  0  0
  185.3530  177.6280  135.3150 C   0  0  0  0  0  2  0  0  0  0  0  0
  181.1590  175.8320  139.6180 C   0  0  0  0  0  2  0  0  0  0  0  0
  183.1100  179.5910  138.5010 O   0  0  0  0  0  0  0  0  0  0  0  0
  184.2920  176.2130  137.1920 C   0  0  1  0  0  3  0  0  0  0  0  0
  184.0210  177.5680  134.6010 C   0  0  0  0  0  2  0  0  0  0  0  0
  181.0090  179.8200  139.8150 C   0  0  1  0  0  3  0  0  0  0  0  0
  183.9100  176.1520  138.6980 C   0  0  0  0  0  2  0  0  0  0  0  0
  183.4960  176.1560  134.7310 C   0  0  0  0  0  2  0  0  0  0  0  0
  180.2960  178.9470  138.8180 C   0  0  0  0  0  2  0  0  0  0  0  0
  180.2190  175.6880  138.5080 N   0  0  0  0  0  2  0  0  0  0  0  0
  183.1560  175.8360  136.1910 C   0  0  2  0  0  3  0  0  0  0  0  0
  181.8020  177.1940  139.5980 C   0  0  0  0  0  0  0  0  0  0  0  0
  185.1930  177.4200  136.8230 C   0  0  1  0  0  3  0  0  0  0  0  0
  180.4890  175.7230  136.0030 C   0  0  1  0  0  0  0  0  0  0  0  0
  180.8860  178.3080  140.0760 C   0  0  1  0  0  3  0  0  0  0  0  0
  182.3220  180.4280  139.3040 C   0  0  0  0  0  2  0  0  0  0  0  0
  180.9400  177.1440  135.7340 C   0  0  0  0  0  2  0  0  0  0  0  0
  180.4710  172.7390  137.8230 C   0  0  0  0  0  3  0  0  0  0  0  0
  181.3720  173.7320  137.4140 C   0  0  0  0  0  0  0  0  0  0  0  0
  182.6320  173.3500  136.9260 C   0  0  0  0  0  3  0  0  0  0  0  0
  184.2270  171.6460  136.4410 F   0  0  0  0  0  0  0  0  0  0  0  0
  182.1070  171.0240  137.3370 C   0  0  0  0  0  3  0  0  0  0  0  0
  183.0030  172.0030  136.8990 C   0  0  0  0  0  0  0  0  0  0  0  0
  180.8400  171.3920  137.7960 C   0  0  0  0  0  3  0  0  0  0  0  0
  186.5910  177.2550  137.4280 C   0  0  0  0  0  0  0  0  0  0  0  0
  186.9780  178.1970  138.5430 C   0  0  0  0  0  2  0  0  0  0  0  0
  187.2800  175.9000  137.4380 C   0  0  0  0  0  1  0  0  0  0  0  0
  187.5360  178.4040  137.1440 C   0  0  0  0  0  2  0  0  0  0  0  0
  184.5290  177.8760  141.6010 C   0  0  0  0  0  1  0  0  0  0  0  0
  184.1800  179.0730  140.7330 C   0  0  0  0  0  2  0  0  0  0  0  0
  180.7940  174.8250  134.8040 C   0  0  0  0  0  2  0  0  0  0  0  0
  178.9310  172.9240  134.5940 C   0  0  0  0  0  3  0  0  0  0  0  0
  179.7710  173.7830  134.6900 C   0  0  0  0  0  0  0  0  0  0  0  0
  1  3  1  0  0  0  0
  1 16  2  0  0  0  0
  2 21  1  1  0  0  0
  2  4  1  0  0  0  0
  3 34  1  1  0  0  0
  4 23  1  1  0  0  0
  4 14  1  0  0  0  0
  7  3  1  0  0  0  0
  7 20  1  0  0  0  0
  8 11  1  1  0  0  0
  9 12  1  0  0  0  0
  9  5  1  0  0  0  0
 10 13  1  6  0  0  0
 10 19  1  0  0  0  0
 11  1  1  0  0  0  0
 14  6  1  0  0  0  0
 15 12  1  6  0  0  0
 15  2  1  0  0  0  0
 15  8  1  0  0  0  0
 16  6  1  0  0  0  0
 16 19  1  0  0  0  0
 17  5  1  6  0  0  0
 17  8  1  0  0  0  0
 17 29  1  0  0  0  0
 18 35  1  6  0  0  0
 18  2  1  0  0  0  0
 18  4  1  0  0  0  0
 19 13  1  6  0  0  0
 20 10  1  0  0  0  0
 21 18  1  0  0  0  0
 23 22  2  0  0  0  0
 24 23  1  0  0  0  0
 25 27  1  0  0  0  0
 26 28  2  0  0  0  0
 27 24  2  0  0  0  0
 27 26  1  0  0  0  0
 28 22  1  0  0  0  0
 29 31  1  0  0  0  0
 29 30  1  0  0  0  0
 32 29  1  0  0  0  0
 32 30  1  0  0  0  0
 34 33  1  0  0  0  0
 36 37  3  0  0  0  0
 37 35  1  0  0  0  0
M  END
>  <MODEL>
8

>  <REMARK>
 VINA RESULT:      -3.6      2.974      6.532
  Name = 
  5 active torsions:
  status: ('A' for Active; 'I' for Inactive)
    1  A    between atoms: C_3  and  C_30
    2  A    between atoms: C_5  and  C_23
    3  A    between atoms: C_6  and  C_7
    4  A    between atoms: C_14  and  C_31
    5  A    between atoms: C_14  and  C_37
                            x       y       z     vdW  Elec       q    Type
                         _______ _______ _______ _____ _____    ______ ____

>  <TORSDO>
F 5

$$$$
