=
 OpenBabel10262420063D

 27 31  0  0  1  0  0  0  0  0999 V2000
  189.5470  176.9440  142.6230 N   0  0  0  0  0  2  0  0  0  0  0  0
  187.5550  177.7060  143.8080 C   0  0  0  0  0  0  0  0  0  0  0  0
  187.3720  178.5890  141.5300 N   0  0  0  0  0  2  0  0  0  0  0  0
  183.4590  178.5770  144.5300 C   0  0  0  0  0  3  0  0  0  0  0  0
  181.2720  179.1050  143.6610 O   0  0  0  0  0  1  0  0  0  0  0  0
  186.8690  177.1670  145.0450 C   0  0  0  0  0  2  0  0  0  0  0  0
  184.5200  178.7580  141.9470 C   0  0  0  0  0  3  0  0  0  0  0  0
  189.4000  177.8880  138.6790 C   0  0  0  0  0  0  0  0  0  0  0  0
  183.1570  178.9760  142.1610 C   0  0  0  0  0  3  0  0  0  0  0  0
  189.4700  178.2810  137.2470 C   0  0  0  0  0  1  0  0  0  0  0  0
  185.3630  178.4420  143.0210 C   0  0  0  0  0  0  0  0  0  0  0  0
  189.0470  177.7540  143.7220 C   0  0  1  0  0  3  0  0  0  0  0  0
  182.6260  178.8850  143.4510 C   0  0  0  0  0  0  0  0  0  0  0  0
  184.8210  178.3450  144.3190 C   0  0  0  0  0  0  0  0  0  0  0  0
  189.3230  177.1650  141.3640 C   0  0  0  0  0  0  0  0  0  0  0  0
  186.8150  178.2130  142.8050 C   0  0  0  0  0  0  0  0  0  0  0  0
  188.5010  178.5240  139.5320 C   0  0  0  0  0  3  0  0  0  0  0  0
  185.7230  178.0750  145.4830 C   0  0  0  0  0  2  0  0  0  0  0  0
  190.1680  176.8690  139.1400 N   0  0  0  0  0  0  0  0  0  0  0  0
  190.1510  176.5070  140.4490 C   0  0  0  0  0  3  0  0  0  0  0  0
  188.4110  178.1440  140.8750 C   0  0  0  0  0  0  0  0  0  0  0  0
  191.1400  176.8030  147.3590 C   0  0  0  0  0  3  0  0  0  0  0  0
  189.7570  177.4150  145.0010 C   0  0  0  0  0  0  0  0  0  0  0  0
  190.9790  176.7360  144.9420 C   0  0  0  0  0  3  0  0  0  0  0  0
  191.6680  176.4280  146.1190 C   0  0  0  0  0  3  0  0  0  0  0  0
  189.9230  177.4870  147.4220 C   0  0  0  0  0  3  0  0  0  0  0  0
  189.2320  177.7950  146.2450 C   0  0  0  0  0  3  0  0  0  0  0  0
  1 12  1  0  0  0  0
  2  6  1  0  0  0  0
  3 16  1  0  0  0  0
  6 18  1  0  0  0  0
  7  9  2  0  0  0  0
  7 11  1  0  0  0  0
  8 19  2  0  0  0  0
  8 17  1  0  0  0  0
  9 13  1  0  0  0  0
 10  8  1  0  0  0  0
 11 14  2  0  0  0  0
 12  2  1  0  0  0  0
 12 23  1  1  0  0  0
 13  5  1  0  0  0  0
 13  4  2  0  0  0  0
 14  4  1  0  0  0  0
 14 18  1  0  0  0  0
 15  1  1  0  0  0  0
 16 11  1  0  0  0  0
 16  2  2  0  0  0  0
 17 21  2  0  0  0  0
 19 20  1  0  0  0  0
 20 15  2  0  0  0  0
 21 15  1  0  0  0  0
 21  3  1  0  0  0  0
 22 26  1  0  0  0  0
 23 27  1  0  0  0  0
 24 23  2  0  0  0  0
 24 25  1  0  0  0  0
 25 22  2  0  0  0  0
 27 26  2  0  0  0  0
M  END
>  <MODEL>
1

>  <REMARK>
 VINA RESULT:     -11.5      0.000      0.000
  Name = 
  1 active torsions:
  status: ('A' for Active; 'I' for Inactive)
    1  A    between atoms: C_9  and  C_15
                            x       y       z     vdW  Elec       q    Type
                         _______ _______ _______ _____ _____    ______ ____

>  <TORSDO>
F 1

$$$$
=
 OpenBabel10262420063D

 27 31  0  0  1  0  0  0  0  0999 V2000
  187.3520  178.4320  141.7270 N   0  0  0  0  0  2  0  0  0  0  0  0
  187.8880  177.7440  144.0060 C   0  0  0  0  0  0  0  0  0  0  0  0
  189.5580  176.6800  142.5630 N   0  0  0  0  0  2  0  0  0  0  0  0
  190.2330  176.8870  147.4440 C   0  0  0  0  0  3  0  0  0  0  0  0
  192.3620  176.2660  148.3930 O   0  0  0  0  0  1  0  0  0  0  0  0
  187.5420  178.3730  145.3390 C   0  0  0  0  0  2  0  0  0  0  0  0
  191.2800  176.5120  144.8750 C   0  0  0  0  0  3  0  0  0  0  0  0
  190.1610  177.1740  139.0810 C   0  0  0  0  0  0  0  0  0  0  0  0
  192.0830  176.2960  145.9970 C   0  0  0  0  0  3  0  0  0  0  0  0
  191.0900  176.6680  138.0370 C   0  0  0  0  0  1  0  0  0  0  0  0
  189.9480  176.9230  145.0270 C   0  0  0  0  0  0  0  0  0  0  0  0
  186.8850  177.7070  142.8970 C   0  0  1  0  0  3  0  0  0  0  0  0
  191.5620  176.4840  147.2800 C   0  0  0  0  0  0  0  0  0  0  0  0
  189.4290  177.1170  146.3240 C   0  0  0  0  0  0  0  0  0  0  0  0
  188.3800  178.1090  141.0030 C   0  0  0  0  0  0  0  0  0  0  0  0
  189.0830  177.1500  143.8410 C   0  0  0  0  0  0  0  0  0  0  0  0
  190.1600  176.5980  140.3500 C   0  0  0  0  0  3  0  0  0  0  0  0
  187.9900  177.4900  146.5000 C   0  0  0  0  0  2  0  0  0  0  0  0
  189.3580  178.2360  138.8180 N   0  0  0  0  0  0  0  0  0  0  0  0
  188.4760  178.7010  139.7390 C   0  0  0  0  0  3  0  0  0  0  0  0
  189.3080  177.0830  141.3470 C   0  0  0  0  0  0  0  0  0  0  0  0
  182.9070  178.9450  143.9740 C   0  0  0  0  0  3  0  0  0  0  0  0
  185.5060  178.1550  143.2870 C   0  0  0  0  0  0  0  0  0  0  0  0
  184.5290  178.2940  142.2950 C   0  0  0  0  0  3  0  0  0  0  0  0
  183.2320  178.6900  142.6380 C   0  0  0  0  0  3  0  0  0  0  0  0
  183.8790  178.8010  144.9690 C   0  0  0  0  0  3  0  0  0  0  0  0
  185.1760  178.4060  144.6280 C   0  0  0  0  0  3  0  0  0  0  0  0
  1 12  1  0  0  0  0
  2  6  1  0  0  0  0
  3 16  1  0  0  0  0
  6 18  1  0  0  0  0
  7 11  2  0  0  0  0
  7  9  1  0  0  0  0
  8 17  1  0  0  0  0
  9 13  2  0  0  0  0
 10  8  1  0  0  0  0
 11 14  1  0  0  0  0
 12 23  1  1  0  0  0
 12  2  1  0  0  0  0
 13  4  1  0  0  0  0
 13  5  1  0  0  0  0
 14 18  1  0  0  0  0
 14  4  2  0  0  0  0
 15 21  1  0  0  0  0
 15  1  1  0  0  0  0
 16  2  2  0  0  0  0
 16 11  1  0  0  0  0
 17 21  2  0  0  0  0
 19  8  2  0  0  0  0
 19 20  1  0  0  0  0
 20 15  2  0  0  0  0
 21  3  1  0  0  0  0
 22 26  1  0  0  0  0
 23 27  1  0  0  0  0
 24 25  1  0  0  0  0
 24 23  2  0  0  0  0
 25 22  2  0  0  0  0
 27 26  2  0  0  0  0
M  END
>  <MODEL>
2

>  <REMARK>
 VINA RESULT:     -11.2      2.513      5.781
  Name = 
  1 active torsions:
  status: ('A' for Active; 'I' for Inactive)
    1  A    between atoms: C_9  and  C_15
                            x       y       z     vdW  Elec       q    Type
                         _______ _______ _______ _____ _____    ______ ____

>  <TORSDO>
F 1

$$$$
=
 OpenBabel10262420063D

 27 31  0  0  1  0  0  0  0  0999 V2000
  186.8260  178.6870  140.1780 N   0  0  0  0  0  2  0  0  0  0  0  0
  186.1310  178.3730  142.4960 C   0  0  0  0  0  0  0  0  0  0  0  0
  188.2690  177.1980  142.2600 N   0  0  0  0  0  2  0  0  0  0  0  0
  186.4190  178.1580  146.7300 C   0  0  0  0  0  3  0  0  0  0  0  0
  187.7700  177.7990  148.6950 O   0  0  0  0  0  1  0  0  0  0  0  0
  185.1830  179.1710  143.3640 C   0  0  0  0  0  2  0  0  0  0  0  0
  188.5990  177.4650  145.1160 C   0  0  0  0  0  3  0  0  0  0  0  0
  190.5460  177.2060  139.5130 C   0  0  0  0  0  0  0  0  0  0  0  0
  188.7270  177.4600  146.5080 C   0  0  0  0  0  3  0  0  0  0  0  0
  191.8580  176.6020  139.1610 C   0  0  0  0  0  1  0  0  0  0  0  0
  187.3810  177.8220  144.5200 C   0  0  0  0  0  0  0  0  0  0  0  0
  185.8160  178.1190  141.0560 C   0  0  1  0  0  3  0  0  0  0  0  0
  187.6400  177.8070  147.3130 C   0  0  0  0  0  0  0  0  0  0  0  0
  186.2900  178.1770  145.3380 C   0  0  0  0  0  0  0  0  0  0  0  0
  188.0690  178.3170  140.1220 C   0  0  0  0  0  0  0  0  0  0  0  0
  187.2320  177.8250  143.0420 C   0  0  0  0  0  0  0  0  0  0  0  0
  189.8940  176.8240  140.6840 C   0  0  0  0  0  3  0  0  0  0  0  0
  184.9660  178.4940  144.7150 C   0  0  0  0  0  2  0  0  0  0  0  0
  190.0110  178.1720  138.7240 N   0  0  0  0  0  0  0  0  0  0  0  0
  188.8000  178.7200  139.0000 C   0  0  0  0  0  3  0  0  0  0  0  0
  188.6720  177.4040  141.0350 C   0  0  0  0  0  0  0  0  0  0  0  0
  181.8910  179.3310  139.7780 C   0  0  0  0  0  3  0  0  0  0  0  0
  184.4410  178.5450  140.6330 C   0  0  0  0  0  0  0  0  0  0  0  0
  184.3020  179.4350  139.5620 C   0  0  0  0  0  3  0  0  0  0  0  0
  183.0290  179.8290  139.1370 C   0  0  0  0  0  3  0  0  0  0  0  0
  182.0240  178.4360  140.8450 C   0  0  0  0  0  3  0  0  0  0  0  0
  183.2960  178.0420  141.2710 C   0  0  0  0  0  3  0  0  0  0  0  0
  1 12  1  0  0  0  0
  2 16  2  0  0  0  0
  2  6  1  0  0  0  0
  3 16  1  0  0  0  0
  4 13  1  0  0  0  0
  6 18  1  0  0  0  0
  7  9  1  0  0  0  0
  8 17  1  0  0  0  0
  9 13  2  0  0  0  0
 10  8  1  0  0  0  0
 11  7  2  0  0  0  0
 11 14  1  0  0  0  0
 12 23  1  6  0  0  0
 12  2  1  0  0  0  0
 13  5  1  0  0  0  0
 14  4  2  0  0  0  0
 15  1  1  0  0  0  0
 15 21  1  0  0  0  0
 16 11  1  0  0  0  0
 17 21  2  0  0  0  0
 18 14  1  0  0  0  0
 19 20  1  0  0  0  0
 19  8  2  0  0  0  0
 20 15  2  0  0  0  0
 21  3  1  0  0  0  0
 22 26  1  0  0  0  0
 23 27  1  0  0  0  0
 24 23  2  0  0  0  0
 25 24  1  0  0  0  0
 25 22  2  0  0  0  0
 26 27  2  0  0  0  0
M  END
>  <MODEL>
3

>  <REMARK>
 VINA RESULT:     -10.8      2.164      5.724
  Name = 
  1 active torsions:
  status: ('A' for Active; 'I' for Inactive)
    1  A    between atoms: C_9  and  C_15
                            x       y       z     vdW  Elec       q    Type
                         _______ _______ _______ _____ _____    ______ ____

>  <TORSDO>
F 1

$$$$
=
 OpenBabel10262420063D

 27 31  0  0  1  0  0  0  0  0999 V2000
  187.4300  178.3280  145.1950 N   0  0  0  0  0  2  0  0  0  0  0  0
  188.7260  177.7800  143.2020 C   0  0  0  0  0  0  0  0  0  0  0  0
  186.3760  177.7800  142.5080 N   0  0  0  0  0  2  0  0  0  0  0  0
  189.9800  177.8490  139.1430 C   0  0  0  0  0  3  0  0  0  0  0  0
  189.4540  178.2430  136.8220 O   0  0  0  0  0  1  0  0  0  0  0  0
  190.1770  178.0440  142.8580 C   0  0  0  0  0  2  0  0  0  0  0  0
  187.2920  178.2530  139.8110 C   0  0  0  0  0  3  0  0  0  0  0  0
  183.4930  178.8130  144.3390 C   0  0  0  0  0  0  0  0  0  0  0  0
  187.7050  178.3490  138.4790 C   0  0  0  0  0  3  0  0  0  0  0  0
  182.0250  178.9090  144.1290 C   0  0  0  0  0  1  0  0  0  0  0  0
  188.2200  177.9600  140.8200 C   0  0  0  0  0  0  0  0  0  0  0  0
  188.3330  177.3660  144.5840 C   0  0  1  0  0  3  0  0  0  0  0  0
  189.0470  178.1490  138.1450 C   0  0  0  0  0  0  0  0  0  0  0  0
  189.5740  177.7640  140.4770 C   0  0  0  0  0  0  0  0  0  0  0  0
  186.2320  178.6030  144.7810 C   0  0  0  0  0  0  0  0  0  0  0  0
  187.7910  177.8490  142.2370 C   0  0  0  0  0  0  0  0  0  0  0  0
  184.2950  178.1960  143.3810 C   0  0  0  0  0  3  0  0  0  0  0  0
  190.5610  177.3840  141.5360 C   0  0  0  0  0  2  0  0  0  0  0  0
  184.0590  179.3780  145.4350 N   0  0  0  0  0  0  0  0  0  0  0  0
  185.3930  179.2780  145.6730 C   0  0  0  0  0  3  0  0  0  0  0  0
  185.6790  178.1210  143.5580 C   0  0  0  0  0  0  0  0  0  0  0  0
  191.5930  176.4710  147.2450 C   0  0  0  0  0  3  0  0  0  0  0  0
  189.4860  177.0620  145.4960 C   0  0  0  0  0  0  0  0  0  0  0  0
  189.4000  177.4210  146.8460 C   0  0  0  0  0  3  0  0  0  0  0  0
  190.4530  177.1280  147.7190 C   0  0  0  0  0  3  0  0  0  0  0  0
  191.6810  176.1040  145.8990 C   0  0  0  0  0  3  0  0  0  0  0  0
  190.6290  176.3970  145.0250 C   0  0  0  0  0  3  0  0  0  0  0  0
  2 12  1  0  0  0  0
  3 21  1  0  0  0  0
  4 14  1  0  0  0  0
  5 13  1  0  0  0  0
  6  2  1  0  0  0  0
  7 11  1  0  0  0  0
  8 19  1  0  0  0  0
  9  7  2  0  0  0  0
 10  8  1  0  0  0  0
 11 16  1  0  0  0  0
 12  1  1  0  0  0  0
 12 23  1  1  0  0  0
 13  9  1  0  0  0  0
 13  4  2  0  0  0  0
 14 11  2  0  0  0  0
 14 18  1  0  0  0  0
 15  1  1  0  0  0  0
 15 20  1  0  0  0  0
 16  3  1  0  0  0  0
 16  2  2  0  0  0  0
 17 21  1  0  0  0  0
 17  8  2  0  0  0  0
 18  6  1  0  0  0  0
 19 20  2  0  0  0  0
 21 15  2  0  0  0  0
 22 25  1  0  0  0  0
 23 24  1  0  0  0  0
 24 25  2  0  0  0  0
 26 22  2  0  0  0  0
 27 23  2  0  0  0  0
 27 26  1  0  0  0  0
M  END
>  <MODEL>
4

>  <REMARK>
 VINA RESULT:     -10.2      2.566      5.570
  Name = 
  1 active torsions:
  status: ('A' for Active; 'I' for Inactive)
    1  A    between atoms: C_9  and  C_15
                            x       y       z     vdW  Elec       q    Type
                         _______ _______ _______ _____ _____    ______ ____

>  <TORSDO>
F 1

$$$$
=
 OpenBabel10262420063D

 27 31  0  0  1  0  0  0  0  0999 V2000
  189.6740  178.1380  141.7790 N   0  0  0  0  0  2  0  0  0  0  0  0
  187.2430  178.1730  141.5730 C   0  0  0  0  0  0  0  0  0  0  0  0
  187.7240  177.3620  143.8350 N   0  0  0  0  0  2  0  0  0  0  0  0
  183.1820  178.8530  142.6230 C   0  0  0  0  0  3  0  0  0  0  0  0
  181.5070  179.1280  144.3360 O   0  0  0  0  0  1  0  0  0  0  0  0
  186.3370  178.9520  140.6440 C   0  0  0  0  0  2  0  0  0  0  0  0
  185.0790  178.2410  144.5890 C   0  0  0  0  0  3  0  0  0  0  0  0
  190.8480  177.2190  145.5540 C   0  0  0  0  0  0  0  0  0  0  0  0
  183.7620  178.5340  144.9530 C   0  0  0  0  0  3  0  0  0  0  0  0
  191.3610  176.7930  146.8820 C   0  0  0  0  0  1  0  0  0  0  0  0
  185.4600  178.2580  143.2390 C   0  0  0  0  0  0  0  0  0  0  0  0
  188.5260  177.5890  141.0750 C   0  0  1  0  0  3  0  0  0  0  0  0
  182.8150  178.8400  143.9720 C   0  0  0  0  0  0  0  0  0  0  0  0
  184.5020  178.5740  142.2550 C   0  0  0  0  0  0  0  0  0  0  0  0
  189.9260  177.9840  143.0430 C   0  0  0  0  0  0  0  0  0  0  0  0
  186.8560  177.9430  142.8410 C   0  0  0  0  0  0  0  0  0  0  0  0
  189.5210  176.9690  145.2070 C   0  0  0  0  0  3  0  0  0  0  0  0
  184.8800  178.5280  140.8080 C   0  0  0  0  0  2  0  0  0  0  0  0
  191.6530  177.9030  144.7040 N   0  0  0  0  0  0  0  0  0  0  0  0
  191.2250  178.2770  143.4710 C   0  0  0  0  0  3  0  0  0  0  0  0
  189.0230  177.3870  143.9700 C   0  0  0  0  0  0  0  0  0  0  0  0
  189.0220  177.8140  136.8070 C   0  0  0  0  0  3  0  0  0  0  0  0
  188.7190  177.6800  139.5890 C   0  0  0  0  0  0  0  0  0  0  0  0
  188.5300  176.5360  138.8060 C   0  0  0  0  0  3  0  0  0  0  0  0
  188.6830  176.6030  137.4180 C   0  0  0  0  0  3  0  0  0  0  0  0
  189.2050  178.9620  137.5850 C   0  0  0  0  0  3  0  0  0  0  0  0
  189.0530  178.8960  138.9740 C   0  0  0  0  0  3  0  0  0  0  0  0
  1 15  1  0  0  0  0
  2 16  2  0  0  0  0
  3 21  1  0  0  0  0
  4 13  1  0  0  0  0
  6 18  1  0  0  0  0
  6  2  1  0  0  0  0
  7  9  1  0  0  0  0
  8 10  1  0  0  0  0
 11  7  2  0  0  0  0
 12 23  1  6  0  0  0
 12  2  1  0  0  0  0
 12  1  1  0  0  0  0
 13  5  1  0  0  0  0
 13  9  2  0  0  0  0
 14  4  2  0  0  0  0
 14 11  1  0  0  0  0
 15 20  2  0  0  0  0
 15 21  1  0  0  0  0
 16 11  1  0  0  0  0
 16  3  1  0  0  0  0
 17  8  1  0  0  0  0
 18 14  1  0  0  0  0
 19  8  2  0  0  0  0
 20 19  1  0  0  0  0
 21 17  2  0  0  0  0
 22 25  2  0  0  0  0
 22 26  1  0  0  0  0
 24 23  2  0  0  0  0
 25 24  1  0  0  0  0
 26 27  2  0  0  0  0
 27 23  1  0  0  0  0
M  END
>  <MODEL>
5

>  <REMARK>
 VINA RESULT:     -10.0      1.266      5.333
  Name = 
  1 active torsions:
  status: ('A' for Active; 'I' for Inactive)
    1  A    between atoms: C_9  and  C_15
                            x       y       z     vdW  Elec       q    Type
                         _______ _______ _______ _____ _____    ______ ____

>  <TORSDO>
F 1

$$$$
=
 OpenBabel10262420063D

 27 31  0  0  1  0  0  0  0  0999 V2000
  184.6400  178.0760  140.9550 N   0  0  0  0  0  2  0  0  0  0  0  0
  186.4660  178.0790  142.5740 C   0  0  0  0  0  0  0  0  0  0  0  0
  184.5210  179.0070  143.7390 N   0  0  0  0  0  2  0  0  0  0  0  0
  188.4920  177.5440  146.2700 C   0  0  0  0  0  3  0  0  0  0  0  0
  188.4020  177.4010  148.6760 O   0  0  0  0  0  1  0  0  0  0  0  0
  187.7430  177.2680  142.6310 C   0  0  0  0  0  2  0  0  0  0  0  0
  185.7770  178.2270  146.2180 C   0  0  0  0  0  3  0  0  0  0  0  0
  181.1250  179.1830  142.6550 C   0  0  0  0  0  0  0  0  0  0  0  0
  186.4160  177.9830  147.4380 C   0  0  0  0  0  3  0  0  0  0  0  0
  179.8220  179.6730  143.1750 C   0  0  0  0  0  1  0  0  0  0  0  0
  186.4900  178.1260  145.0150 C   0  0  0  0  0  0  0  0  0  0  0  0
  185.9560  178.6080  141.2710 C   0  0  1  0  0  3  0  0  0  0  0  0
  187.7700  177.6410  147.4640 C   0  0  0  0  0  0  0  0  0  0  0  0
  187.8550  177.7750  145.0480 C   0  0  0  0  0  0  0  0  0  0  0  0
  183.5570  178.2970  141.6350 C   0  0  0  0  0  0  0  0  0  0  0  0
  185.8230  178.3890  143.7140 C   0  0  0  0  0  0  0  0  0  0  0  0
  182.2980  179.4400  143.3630 C   0  0  0  0  0  3  0  0  0  0  0  0
  188.6410  177.7300  143.7750 C   0  0  0  0  0  2  0  0  0  0  0  0
  181.1660  178.4350  141.5240 N   0  0  0  0  0  0  0  0  0  0  0  0
  182.3430  178.0010  141.0050 C   0  0  0  0  0  3  0  0  0  0  0  0
  183.5260  178.9630  142.8940 C   0  0  0  0  0  0  0  0  0  0  0  0
  188.6080  178.1350  137.9160 C   0  0  0  0  0  3  0  0  0  0  0  0
  186.8950  178.4290  140.1140 C   0  0  0  0  0  0  0  0  0  0  0  0
  186.3720  178.1420  138.8490 C   0  0  0  0  0  3  0  0  0  0  0  0
  187.2270  177.9920  137.7520 C   0  0  0  0  0  3  0  0  0  0  0  0
  189.1360  178.4290  139.1770 C   0  0  0  0  0  3  0  0  0  0  0  0
  188.2820  178.5780  140.2750 C   0  0  0  0  0  3  0  0  0  0  0  0
  1 12  1  0  0  0  0
  1 15  1  0  0  0  0
  2  6  1  0  0  0  0
  2 16  2  0  0  0  0
  4 13  1  0  0  0  0
  6 18  1  0  0  0  0
  7  9  1  0  0  0  0
  8 10  1  0  0  0  0
  8 17  1  0  0  0  0
  9 13  2  0  0  0  0
 11 14  1  0  0  0  0
 11  7  2  0  0  0  0
 12 23  1  6  0  0  0
 12  2  1  0  0  0  0
 13  5  1  0  0  0  0
 14  4  2  0  0  0  0
 15 21  1  0  0  0  0
 16  3  1  0  0  0  0
 16 11  1  0  0  0  0
 18 14  1  0  0  0  0
 19  8  2  0  0  0  0
 20 19  1  0  0  0  0
 20 15  2  0  0  0  0
 21 17  2  0  0  0  0
 21  3  1  0  0  0  0
 22 26  1  0  0  0  0
 23 27  1  0  0  0  0
 24 23  2  0  0  0  0
 25 22  2  0  0  0  0
 25 24  1  0  0  0  0
 26 27  2  0  0  0  0
M  END
>  <MODEL>
6

>  <REMARK>
 VINA RESULT:      -9.4      2.782      6.621
  Name = 
  1 active torsions:
  status: ('A' for Active; 'I' for Inactive)
    1  A    between atoms: C_9  and  C_15
                            x       y       z     vdW  Elec       q    Type
                         _______ _______ _______ _____ _____    ______ ____

>  <TORSDO>
F 1

$$$$
=
 OpenBabel10262420063D

 27 31  0  0  1  0  0  0  0  0999 V2000
  188.2970  177.3630  139.4560 N   0  0  0  0  0  2  0  0  0  0  0  0
  189.1560  177.3170  141.7400 C   0  0  0  0  0  0  0  0  0  0  0  0
  187.0640  178.5910  141.8240 N   0  0  0  0  0  2  0  0  0  0  0  0
  189.1540  176.9330  145.9710 C   0  0  0  0  0  3  0  0  0  0  0  0
  187.9520  177.0570  148.0590 O   0  0  0  0  0  1  0  0  0  0  0  0
  190.1200  176.3680  142.4180 C   0  0  0  0  0  2  0  0  0  0  0  0
  186.9080  177.9300  144.6290 C   0  0  0  0  0  3  0  0  0  0  0  0
  184.6160  179.0610  139.2700 C   0  0  0  0  0  0  0  0  0  0  0  0
  186.8710  177.7400  146.0140 C   0  0  0  0  0  3  0  0  0  0  0  0
  183.3130  179.7570  139.1020 C   0  0  0  0  0  1  0  0  0  0  0  0
  188.0670  177.6170  143.9040 C   0  0  0  0  0  0  0  0  0  0  0  0
  189.3880  177.7630  140.3310 C   0  0  1  0  0  3  0  0  0  0  0  0
  187.9910  177.2420  146.6840 C   0  0  0  0  0  0  0  0  0  0  0  0
  189.1910  177.1090  144.5850 C   0  0  0  0  0  0  0  0  0  0  0  0
  187.0730  177.7840  139.5410 C   0  0  0  0  0  0  0  0  0  0  0  0
  188.1190  177.8210  142.4330 C   0  0  0  0  0  0  0  0  0  0  0  0
  185.3590  179.2470  140.4350 C   0  0  0  0  0  3  0  0  0  0  0  0
  190.4550  176.8360  143.8310 C   0  0  0  0  0  2  0  0  0  0  0  0
  185.0520  178.1990  138.3180 N   0  0  0  0  0  0  0  0  0  0  0  0
  186.2520  177.5730  138.4280 C   0  0  0  0  0  3  0  0  0  0  0  0
  186.5730  178.5780  140.6130 C   0  0  0  0  0  0  0  0  0  0  0  0
  193.1630  176.6070  138.6220 C   0  0  0  0  0  3  0  0  0  0  0  0
  190.7120  177.3510  139.7550 C   0  0  0  0  0  0  0  0  0  0  0  0
  190.7450  176.7140  138.5100 C   0  0  0  0  0  3  0  0  0  0  0  0
  191.9690  176.3410  137.9450 C   0  0  0  0  0  3  0  0  0  0  0  0
  193.1350  177.2490  139.8640 C   0  0  0  0  0  3  0  0  0  0  0  0
  191.9120  177.6220  140.4300 C   0  0  0  0  0  3  0  0  0  0  0  0
  1 15  1  0  0  0  0
  1 12  1  0  0  0  0
  2  6  1  0  0  0  0
  2 16  2  0  0  0  0
  3 16  1  0  0  0  0
  4 13  1  0  0  0  0
  6 18  1  0  0  0  0
  7  9  1  0  0  0  0
  8 17  1  0  0  0  0
  9 13  2  0  0  0  0
 10  8  1  0  0  0  0
 11 14  1  0  0  0  0
 11  7  2  0  0  0  0
 12 23  1  6  0  0  0
 12  2  1  0  0  0  0
 13  5  1  0  0  0  0
 14  4  2  0  0  0  0
 15 21  1  0  0  0  0
 16 11  1  0  0  0  0
 17 21  2  0  0  0  0
 18 14  1  0  0  0  0
 19 20  1  0  0  0  0
 19  8  2  0  0  0  0
 20 15  2  0  0  0  0
 21  3  1  0  0  0  0
 22 26  1  0  0  0  0
 23 27  1  0  0  0  0
 24 23  2  0  0  0  0
 25 24  1  0  0  0  0
 25 22  2  0  0  0  0
 26 27  2  0  0  0  0
M  END
>  <MODEL>
7

>  <REMARK>
 VINA RESULT:      -9.3      2.553      5.321
  Name = 
  1 active torsions:
  status: ('A' for Active; 'I' for Inactive)
    1  A    between atoms: C_9  and  C_15
                            x       y       z     vdW  Elec       q    Type
                         _______ _______ _______ _____ _____    ______ ____

>  <TORSDO>
F 1

$$$$
=
 OpenBabel10262420063D

 27 31  0  0  1  0  0  0  0  0999 V2000
  190.3300  177.7820  142.6030 N   0  0  0  0  0  2  0  0  0  0  0  0
  188.5770  177.9130  140.9110 C   0  0  0  0  0  0  0  0  0  0  0  0
  187.4420  177.4540  143.0340 N   0  0  0  0  0  2  0  0  0  0  0  0
  184.8800  178.9700  139.1030 C   0  0  0  0  0  3  0  0  0  0  0  0
  182.5670  179.6090  139.3440 O   0  0  0  0  0  1  0  0  0  0  0  0
  188.5580  178.5780  139.5520 C   0  0  0  0  0  2  0  0  0  0  0  0
  185.0540  178.5840  141.8700 C   0  0  0  0  0  3  0  0  0  0  0  0
  188.7860  177.4250  146.3400 C   0  0  0  0  0  0  0  0  0  0  0  0
  183.8510  179.0030  141.2940 C   0  0  0  0  0  3  0  0  0  0  0  0
  188.3060  177.1930  147.7270 C   0  0  0  0  0  1  0  0  0  0  0  0
  186.1820  178.3620  141.0670 C   0  0  0  0  0  0  0  0  0  0  0  0
  189.7940  177.1880  141.3890 C   0  0  1  0  0  3  0  0  0  0  0  0
  183.7640  179.1960  139.9130 C   0  0  0  0  0  0  0  0  0  0  0  0
  186.0890  178.5650  139.6750 C   0  0  0  0  0  0  0  0  0  0  0  0
  189.7250  177.8210  143.7510 C   0  0  0  0  0  0  0  0  0  0  0  0
  187.4640  177.9120  141.6670 C   0  0  0  0  0  0  0  0  0  0  0  0
  187.9350  177.1940  145.2600 C   0  0  0  0  0  3  0  0  0  0  0  0
  187.2660  178.2650  138.8000 C   0  0  0  0  0  2  0  0  0  0  0  0
  190.0320  177.9180  146.1270 N   0  0  0  0  0  0  0  0  0  0  0  0
  190.5120  178.1100  144.8710 C   0  0  0  0  0  3  0  0  0  0  0  0
  188.3690  177.4320  143.9530 C   0  0  0  0  0  0  0  0  0  0  0  0
  192.9220  176.7030  138.4740 C   0  0  0  0  0  3  0  0  0  0  0  0
  190.8710  177.0260  140.3550 C   0  0  0  0  0  0  0  0  0  0  0  0
  192.1570  177.5030  140.6290 C   0  0  0  0  0  3  0  0  0  0  0  0
  193.1800  177.3430  139.6900 C   0  0  0  0  0  3  0  0  0  0  0  0
  191.6390  176.2190  138.1980 C   0  0  0  0  0  3  0  0  0  0  0  0
  190.6150  176.3770  139.1370 C   0  0  0  0  0  3  0  0  0  0  0  0
  1 15  1  0  0  0  0
  2 12  1  0  0  0  0
  2 16  2  0  0  0  0
  3 21  1  0  0  0  0
  4 14  2  0  0  0  0
  4 13  1  0  0  0  0
  5 13  1  0  0  0  0
  6  2  1  0  0  0  0
  8 10  1  0  0  0  0
  9  7  1  0  0  0  0
 11 16  1  0  0  0  0
 11  7  2  0  0  0  0
 12 23  1  6  0  0  0
 12  1  1  0  0  0  0
 13  9  2  0  0  0  0
 14 11  1  0  0  0  0
 15 21  2  0  0  0  0
 15 20  1  0  0  0  0
 16  3  1  0  0  0  0
 17  8  2  0  0  0  0
 18  6  1  0  0  0  0
 18 14  1  0  0  0  0
 19  8  1  0  0  0  0
 20 19  2  0  0  0  0
 21 17  1  0  0  0  0
 22 25  1  0  0  0  0
 23 24  1  0  0  0  0
 25 24  2  0  0  0  0
 26 22  2  0  0  0  0
 26 27  1  0  0  0  0
 27 23  2  0  0  0  0
M  END
>  <MODEL>
8

>  <REMARK>
 VINA RESULT:      -9.2      2.021      5.475
  Name = 
  1 active torsions:
  status: ('A' for Active; 'I' for Inactive)
    1  A    between atoms: C_9  and  C_15
                            x       y       z     vdW  Elec       q    Type
                         _______ _______ _______ _____ _____    ______ ____

>  <TORSDO>
F 1

$$$$
=
 OpenBabel10262420063D

 27 31  0  0  1  0  0  0  0  0999 V2000
  185.1670  178.7820  144.1360 N   0  0  0  0  0  2  0  0  0  0  0  0
  187.0030  178.2530  142.6170 C   0  0  0  0  0  0  0  0  0  0  0  0
  184.9430  177.9910  141.3150 N   0  0  0  0  0  2  0  0  0  0  0  0
  189.3210  178.2190  139.0570 C   0  0  0  0  0  3  0  0  0  0  0  0
  189.4300  178.4330  136.6570 O   0  0  0  0  0  1  0  0  0  0  0  0
  188.4670  178.6340  142.6600 C   0  0  0  0  0  2  0  0  0  0  0  0
  186.5300  178.4000  138.9390 C   0  0  0  0  0  3  0  0  0  0  0  0
  181.5950  178.8410  142.2100 C   0  0  0  0  0  0  0  0  0  0  0  0
  187.2870  178.4630  137.7660 C   0  0  0  0  0  3  0  0  0  0  0  0
  180.2400  178.7860  141.6030 C   0  0  0  0  0  1  0  0  0  0  0  0
  187.1630  178.2520  140.1810 C   0  0  0  0  0  0  0  0  0  0  0  0
  186.2750  177.8790  143.8700 C   0  0  1  0  0  3  0  0  0  0  0  0
  188.6810  178.3730  137.8240 C   0  0  0  0  0  0  0  0  0  0  0  0
  188.5690  178.1690  140.2340 C   0  0  0  0  0  0  0  0  0  0  0  0
  184.1130  178.9180  143.3920 C   0  0  0  0  0  0  0  0  0  0  0  0
  186.3670  178.1790  141.4340 C   0  0  0  0  0  0  0  0  0  0  0  0
  182.6760  178.2530  141.5560 C   0  0  0  0  0  3  0  0  0  0  0  0
  189.2510  177.9430  141.5480 C   0  0  0  0  0  2  0  0  0  0  0  0
  181.7910  179.5170  143.3700 N   0  0  0  0  0  0  0  0  0  0  0  0
  183.0100  179.5580  143.9670 C   0  0  0  0  0  3  0  0  0  0  0  0
  183.9590  178.3200  142.1080 C   0  0  0  0  0  0  0  0  0  0  0  0
  188.7300  177.4470  147.3770 C   0  0  0  0  0  3  0  0  0  0  0  0
  187.1500  177.7360  145.0810 C   0  0  0  0  0  0  0  0  0  0  0  0
  186.6780  178.1830  146.3200 C   0  0  0  0  0  3  0  0  0  0  0  0
  187.4670  178.0410  147.4660 C   0  0  0  0  0  3  0  0  0  0  0  0
  189.2040  176.9930  146.1420 C   0  0  0  0  0  3  0  0  0  0  0  0
  188.4150  177.1350  144.9960 C   0  0  0  0  0  3  0  0  0  0  0  0
  2  6  1  0  0  0  0
  2 12  1  0  0  0  0
  3 16  1  0  0  0  0
  3 21  1  0  0  0  0
  4 14  1  0  0  0  0
  5 13  1  0  0  0  0
  7 11  1  0  0  0  0
  8 19  1  0  0  0  0
  9 13  1  0  0  0  0
  9  7  2  0  0  0  0
 10  8  1  0  0  0  0
 11 14  2  0  0  0  0
 11 16  1  0  0  0  0
 12  1  1  0  0  0  0
 12 23  1  1  0  0  0
 13  4  2  0  0  0  0
 14 18  1  0  0  0  0
 15 20  1  0  0  0  0
 15  1  1  0  0  0  0
 16  2  2  0  0  0  0
 17 21  1  0  0  0  0
 17  8  2  0  0  0  0
 18  6  1  0  0  0  0
 19 20  2  0  0  0  0
 21 15  2  0  0  0  0
 22 25  1  0  0  0  0
 23 24  1  0  0  0  0
 24 25  2  0  0  0  0
 26 22  2  0  0  0  0
 27 23  2  0  0  0  0
 27 26  1  0  0  0  0
M  END
>  <MODEL>
9

>  <REMARK>
 VINA RESULT:      -8.8      2.857      5.854
  Name = 
  1 active torsions:
  status: ('A' for Active; 'I' for Inactive)
    1  A    between atoms: C_9  and  C_15
                            x       y       z     vdW  Elec       q    Type
                         _______ _______ _______ _____ _____    ______ ____

>  <TORSDO>
F 1

$$$$
