=
 OpenBabel10262422483D

 37 44  0  0  1  0  0  0  0  0999 V2000
  181.2850  173.8850  137.2710 O   0  0  0  0  0  0  0  0  0  0  0  0
  185.5330  173.6110  136.5390 C   0  0  0  0  0  0  0  0  0  0  0  0
  184.3690  176.9080  137.7150 C   0  0  0  0  0  0  0  0  0  0  0  0
  180.2640  174.4910  136.5170 C   0  0  2  0  0  3  0  0  0  0  0  0
  181.6110  177.1360  140.5250 C   0  0  0  0  0  2  0  0  0  0  0  0
  186.9640  175.6320  136.3770 C   0  0  0  0  0  3  0  0  0  0  0  0
  183.0040  177.1700  138.3460 C   0  0  2  0  0  3  0  0  0  0  0  0
  179.0250  174.6370  138.7900 C   0  0  2  0  0  3  0  0  0  0  0  0
  184.5650  175.7260  137.0830 C   0  0  0  0  0  0  0  0  0  0  0  0
  183.0350  177.0870  139.9130 C   0  0  1  0  0  3  0  0  0  0  0  0
  187.2930  177.0550  136.3920 C   0  0  0  0  0  3  0  0  0  0  0  0
  178.9310  174.4360  137.2680 C   0  0  0  0  0  2  0  0  0  0  0  0
  183.4930  174.7340  136.7630 C   0  0  1  0  0  3  0  0  0  0  0  0
  186.3560  172.8010  137.5240 C   0  0  0  0  0  1  0  0  0  0  0  0
  185.3490  179.0070  138.6900 C   0  0  0  0  0  3  0  0  0  0  0  0
  186.6440  178.0300  137.0160 C   0  0  0  0  0  3  0  0  0  0  0  0
  184.1080  173.4080  136.8180 N   0  0  0  0  0  2  0  0  0  0  0  0
  179.4670  176.0180  139.3180 C   0  0  1  0  0  3  0  0  0  0  0  0
  180.8720  176.0070  139.8510 C   0  0  1  0  0  3  0  0  0  0  0  0
  185.4400  177.9580  137.8540 C   0  0  0  0  0  0  0  0  0  0  0  0
  181.8550  176.3240  137.7350 C   0  0  2  0  0  3  0  0  0  0  0  0
  185.8020  175.0740  136.7070 C   0  0  0  0  0  0  0  0  0  0  0  0
  184.0230  178.0850  140.5450 C   0  0  1  0  0  3  0  0  0  0  0  0
  185.8350  173.1490  135.1220 C   0  0  0  0  0  1  0  0  0  0  0  0
  180.5760  176.6830  138.5070 C   0  0  1  0  0  3  0  0  0  0  0  0
  179.6540  173.5650  139.4320 O   0  0  0  0  0  1  0  0  0  0  0  0
  182.2710  174.8330  137.6600 C   0  0  1  0  0  3  0  0  0  0  0  0
  184.2590  179.3050  139.6700 C   0  0  0  0  0  2  0  0  0  0  0  0
  182.5190  178.8680  142.4270 C   0  0  0  0  0  3  0  0  0  0  0  0
  183.7750  178.4220  141.9880 C   0  0  0  0  0  0  0  0  0  0  0  0
  184.8090  178.2480  142.9140 C   0  0  0  0  0  3  0  0  0  0  0  0
  185.8960  178.3140  145.4180 Cl  0  0  0  0  0  0  0  0  0  0  0  0
  183.3470  178.9820  144.6990 C   0  0  0  0  0  3  0  0  0  0  0  0
  184.5960  178.5310  144.2660 C   0  0  0  0  0  0  0  0  0  0  0  0
  182.3080  179.1510  143.7800 C   0  0  0  0  0  3  0  0  0  0  0  0
  180.8580  172.4720  135.1840 C   0  0  0  0  0  1  0  0  0  0  0  0
  180.1110  173.7910  135.1780 C   0  0  0  0  0  2  0  0  0  0  0  0
  1 27  1  0  0  0  0
  2 22  1  0  0  0  0
  2 17  1  0  0  0  0
  2 14  1  0  0  0  0
  3 20  1  0  0  0  0
  4 37  1  6  0  0  0
  4 12  1  0  0  0  0
  4  1  1  0  0  0  0
  6 11  1  0  0  0  0
  6 22  2  0  0  0  0
  7  3  1  6  0  0  0
  7 10  1  0  0  0  0
  8 18  1  0  0  0  0
  8 26  1  6  0  0  0
  9  3  2  0  0  0  0
 10  5  1  1  0  0  0
 10 23  1  0  0  0  0
 11 16  2  0  0  0  0
 12  8  1  0  0  0  0
 13 17  1  1  0  0  0
 13  9  1  0  0  0  0
 13 27  1  0  0  0  0
 15 28  1  0  0  0  0
 16 20  1  0  0  0  0
 18 19  1  0  0  0  0
 19  5  1  0  0  0  0
 20 15  2  0  0  0  0
 21  7  1  0  0  0  0
 21 25  1  0  0  0  0
 22  9  1  0  0  0  0
 23 30  1  0  0  0  0
 24  2  1  0  0  0  0
 25 18  1  0  0  0  0
 25 19  1  0  0  0  0
 27 21  1  0  0  0  0
 28 23  1  0  0  0  0
 29 35  1  0  0  0  0
 30 29  2  0  0  0  0
 30 31  1  0  0  0  0
 31 34  2  0  0  0  0
 34 33  1  0  0  0  0
 34 32  1  0  0  0  0
 35 33  2  0  0  0  0
 37 36  1  0  0  0  0
M  END
>  <MODEL>
1

>  <REMARK>
 VINA RESULT:      -8.2      0.000      0.000
  Name = 
  2 active torsions:
  status: ('A' for Active; 'I' for Inactive)
    1  A    between atoms: C_5  and  C_23
    2  A    between atoms: C_6  and  C_31
                            x       y       z     vdW  Elec       q    Type
                         _______ _______ _______ _____ _____    ______ ____

>  <TORSDO>
F 2

$$$$
=
 OpenBabel10262422483D

 37 44  0  0  1  0  0  0  0  0999 V2000
  182.5840  177.3060  137.9740 O   0  0  0  0  0  0  0  0  0  0  0  0
  185.9920  175.2310  136.3190 C   0  0  0  0  0  0  0  0  0  0  0  0
  186.8200  177.9350  138.6890 C   0  0  0  0  0  0  0  0  0  0  0  0
  182.0560  178.5760  137.6800 C   0  0  2  0  0  3  0  0  0  0  0  0
  184.6450  178.4390  141.9410 C   0  0  0  0  0  2  0  0  0  0  0  0
  188.2930  176.1440  136.5040 C   0  0  0  0  0  3  0  0  0  0  0  0
  185.8220  178.5870  139.6410 C   0  0  2  0  0  3  0  0  0  0  0  0
  181.1070  178.4540  140.0900 C   0  0  2  0  0  3  0  0  0  0  0  0
  186.3370  177.1570  137.6900 C   0  0  0  0  0  0  0  0  0  0  0  0
  185.8100  177.9150  141.0600 C   0  0  1  0  0  3  0  0  0  0  0  0
  189.3450  177.0770  136.8970 C   0  0  0  0  0  3  0  0  0  0  0  0
  180.9110  178.9200  138.6380 C   0  0  0  0  0  2  0  0  0  0  0  0
  184.8960  177.0460  137.3070 C   0  0  1  0  0  3  0  0  0  0  0  0
  186.2460  173.8150  136.8040 C   0  0  0  0  0  1  0  0  0  0  0  0
  188.7910  178.7050  140.0460 C   0  0  0  0  0  3  0  0  0  0  0  0
  189.3350  177.9260  137.9170 C   0  0  0  0  0  3  0  0  0  0  0  0
  184.6890  175.6860  136.8120 N   0  0  0  0  0  2  0  0  0  0  0  0
  182.2330  179.1060  140.9210 C   0  0  1  0  0  3  0  0  0  0  0  0
  183.4080  178.1880  141.1160 C   0  0  1  0  0  3  0  0  0  0  0  0
  188.2910  178.1600  138.9230 C   0  0  0  0  0  0  0  0  0  0  0  0
  184.3940  178.7390  139.0500 C   0  0  2  0  0  3  0  0  0  0  0  0
  187.0160  176.1700  136.8780 C   0  0  0  0  0  0  0  0  0  0  0  0
  187.1850  177.9550  141.7510 C   0  0  1  0  0  3  0  0  0  0  0  0
  185.9870  175.2560  134.7990 C   0  0  0  0  0  1  0  0  0  0  0  0
  183.5220  179.3700  140.1460 C   0  0  1  0  0  3  0  0  0  0  0  0
  181.0530  177.0620  140.2160 O   0  0  0  0  0  1  0  0  0  0  0  0
  183.9290  177.3990  138.4250 C   0  0  1  0  0  3  0  0  0  0  0  0
  188.0440  179.1140  141.2760 C   0  0  0  0  0  2  0  0  0  0  0  0
  188.2830  177.3060  143.9400 C   0  0  0  0  0  3  0  0  0  0  0  0
  187.1670  177.7960  143.2450 C   0  0  0  0  0  0  0  0  0  0  0  0
  186.0240  178.1800  143.9560 C   0  0  0  0  0  3  0  0  0  0  0  0
  184.5590  178.5460  146.2300 Cl  0  0  0  0  0  0  0  0  0  0  0  0
  187.1030  177.5720  146.0370 C   0  0  0  0  0  3  0  0  0  0  0  0
  185.9920  178.0660  145.3480 C   0  0  0  0  0  0  0  0  0  0  0  0
  188.2490  177.1920  145.3330 C   0  0  0  0  0  3  0  0  0  0  0  0
  180.7540  179.8890  136.0100 C   0  0  0  0  0  1  0  0  0  0  0  0
  181.5400  178.6150  136.2520 C   0  0  0  0  0  2  0  0  0  0  0  0
  1 27  1  0  0  0  0
  2 14  1  0  0  0  0
  2 17  1  0  0  0  0
  2 22  1  0  0  0  0
  3 20  1  0  0  0  0
  4 37  1  6  0  0  0
  4  1  1  0  0  0  0
  4 12  1  0  0  0  0
  6 22  2  0  0  0  0
  6 11  1  0  0  0  0
  7  3  1  6  0  0  0
  7 10  1  0  0  0  0
  8 26  1  6  0  0  0
  8 18  1  0  0  0  0
  9  3  2  0  0  0  0
 10 23  1  0  0  0  0
 10  5  1  1  0  0  0
 11 16  2  0  0  0  0
 12  8  1  0  0  0  0
 13 17  1  1  0  0  0
 13  9  1  0  0  0  0
 13 27  1  0  0  0  0
 15 28  1  0  0  0  0
 16 20  1  0  0  0  0
 18 19  1  0  0  0  0
 19  5  1  0  0  0  0
 20 15  2  0  0  0  0
 21  7  1  0  0  0  0
 21 25  1  0  0  0  0
 22  9  1  0  0  0  0
 23 30  1  0  0  0  0
 24  2  1  0  0  0  0
 25 18  1  0  0  0  0
 25 19  1  0  0  0  0
 27 21  1  0  0  0  0
 28 23  1  0  0  0  0
 29 35  1  0  0  0  0
 30 29  2  0  0  0  0
 30 31  1  0  0  0  0
 31 34  2  0  0  0  0
 34 33  1  0  0  0  0
 34 32  1  0  0  0  0
 35 33  2  0  0  0  0
 36 37  1  0  0  0  0
M  END
>  <MODEL>
2

>  <REMARK>
 VINA RESULT:      -8.0      2.585      3.719
  Name = 
  2 active torsions:
  status: ('A' for Active; 'I' for Inactive)
    1  A    between atoms: C_5  and  C_23
    2  A    between atoms: C_6  and  C_31
                            x       y       z     vdW  Elec       q    Type
                         _______ _______ _______ _____ _____    ______ ____

>  <TORSDO>
F 2

$$$$
=
 OpenBabel10262422483D

 37 44  0  0  1  0  0  0  0  0999 V2000
  181.5930  177.5650  137.3700 O   0  0  0  0  0  0  0  0  0  0  0  0
  184.9370  174.9360  136.6250 C   0  0  0  0  0  0  0  0  0  0  0  0
  185.7020  177.8590  138.7420 C   0  0  0  0  0  0  0  0  0  0  0  0
  181.2820  178.8260  136.8290 C   0  0  2  0  0  3  0  0  0  0  0  0
  183.1080  179.0510  141.4650 C   0  0  0  0  0  2  0  0  0  0  0  0
  187.2740  175.6270  137.1000 C   0  0  0  0  0  3  0  0  0  0  0  0
  184.6510  178.7410  139.4110 C   0  0  2  0  0  3  0  0  0  0  0  0
  179.9470  179.1550  139.0270 C   0  0  2  0  0  3  0  0  0  0  0  0
  185.2930  176.9960  137.7800 C   0  0  0  0  0  0  0  0  0  0  0  0
  184.3250  178.2890  140.8790 C   0  0  1  0  0  3  0  0  0  0  0  0
  188.3560  176.4960  137.5520 C   0  0  0  0  0  3  0  0  0  0  0  0
  180.0490  179.4210  137.5160 C   0  0  0  0  0  2  0  0  0  0  0  0
  183.9310  176.9770  137.1640 C   0  0  1  0  0  3  0  0  0  0  0  0
  184.9300  173.5870  137.3230 C   0  0  0  0  0  1  0  0  0  0  0  0
  187.5070  178.6140  140.3190 C   0  0  0  0  0  3  0  0  0  0  0  0
  188.2880  177.4820  138.4370 C   0  0  0  0  0  3  0  0  0  0  0  0
  183.6380  175.5870  136.8170 N   0  0  0  0  0  2  0  0  0  0  0  0
  180.9960  179.8030  139.9560 C   0  0  1  0  0  3  0  0  0  0  0  0
  181.9990  178.8090  140.4710 C   0  0  1  0  0  3  0  0  0  0  0  0
  187.1310  177.9650  139.2040 C   0  0  0  0  0  0  0  0  0  0  0  0
  183.3690  178.9490  138.5610 C   0  0  2  0  0  3  0  0  0  0  0  0
  185.9660  175.8370  137.2340 C   0  0  0  0  0  0  0  0  0  0  0  0
  185.5640  178.2890  141.7930 C   0  0  1  0  0  3  0  0  0  0  0  0
  185.1820  174.7380  135.1370 C   0  0  0  0  0  1  0  0  0  0  0  0
  182.4160  179.8190  139.3960 C   0  0  1  0  0  3  0  0  0  0  0  0
  179.6990  177.8090  139.3170 O   0  0  0  0  0  1  0  0  0  0  0  0
  182.8480  177.5860  138.0390 C   0  0  1  0  0  3  0  0  0  0  0  0
  186.6270  179.2730  141.3350 C   0  0  0  0  0  2  0  0  0  0  0  0
  184.0470  178.7990  143.7570 C   0  0  0  0  0  3  0  0  0  0  0  0
  185.2850  178.3530  143.2670 C   0  0  0  0  0  0  0  0  0  0  0  0
  186.2680  177.9220  144.1650 C   0  0  0  0  0  3  0  0  0  0  0  0
  187.2580  177.4110  146.6580 Cl  0  0  0  0  0  0  0  0  0  0  0  0
  184.7930  178.4000  146.0250 C   0  0  0  0  0  3  0  0  0  0  0  0
  186.0230  177.9480  145.5410 C   0  0  0  0  0  0  0  0  0  0  0  0
  183.8040  178.8250  145.1330 C   0  0  0  0  0  3  0  0  0  0  0  0
  180.8280  180.0820  134.7250 C   0  0  0  0  0  1  0  0  0  0  0  0
  181.0140  178.7080  135.3390 C   0  0  0  0  0  2  0  0  0  0  0  0
  1 27  1  0  0  0  0
  2 17  1  0  0  0  0
  2 22  1  0  0  0  0
  2 14  1  0  0  0  0
  3 20  1  0  0  0  0
  4 37  1  6  0  0  0
  4  1  1  0  0  0  0
  4 12  1  0  0  0  0
  6 22  2  0  0  0  0
  6 11  1  0  0  0  0
  7  3  1  6  0  0  0
  7 10  1  0  0  0  0
  8 26  1  6  0  0  0
  8 18  1  0  0  0  0
  9  3  2  0  0  0  0
 10  5  1  1  0  0  0
 10 23  1  0  0  0  0
 11 16  2  0  0  0  0
 12  8  1  0  0  0  0
 13 17  1  1  0  0  0
 13  9  1  0  0  0  0
 13 27  1  0  0  0  0
 15 28  1  0  0  0  0
 16 20  1  0  0  0  0
 18 19  1  0  0  0  0
 19  5  1  0  0  0  0
 20 15  2  0  0  0  0
 21 25  1  0  0  0  0
 21  7  1  0  0  0  0
 22  9  1  0  0  0  0
 23 30  1  0  0  0  0
 24  2  1  0  0  0  0
 25 18  1  0  0  0  0
 25 19  1  0  0  0  0
 27 21  1  0  0  0  0
 28 23  1  0  0  0  0
 29 35  1  0  0  0  0
 30 29  2  0  0  0  0
 30 31  1  0  0  0  0
 31 34  2  0  0  0  0
 34 33  1  0  0  0  0
 34 32  1  0  0  0  0
 35 33  2  0  0  0  0
 36 37  1  0  0  0  0
M  END
>  <MODEL>
3

>  <REMARK>
 VINA RESULT:      -7.9      2.459      3.052
  Name = 
  2 active torsions:
  status: ('A' for Active; 'I' for Inactive)
    1  A    between atoms: C_5  and  C_23
    2  A    between atoms: C_6  and  C_31
                            x       y       z     vdW  Elec       q    Type
                         _______ _______ _______ _____ _____    ______ ____

>  <TORSDO>
F 2

$$$$
=
 OpenBabel10262422483D

 37 44  0  0  1  0  0  0  0  0999 V2000
  182.8580  177.1990  138.0560 O   0  0  0  0  0  0  0  0  0  0  0  0
  185.5140  174.4390  136.0610 C   0  0  0  0  0  0  0  0  0  0  0  0
  187.1820  177.3030  137.6820 C   0  0  0  0  0  0  0  0  0  0  0  0
  182.4120  178.4780  137.6740 C   0  0  2  0  0  3  0  0  0  0  0  0
  185.9370  178.5720  141.2030 C   0  0  0  0  0  2  0  0  0  0  0  0
  187.8740  175.0250  135.5650 C   0  0  0  0  0  3  0  0  0  0  0  0
  186.5230  178.2210  138.7080 C   0  0  2  0  0  3  0  0  0  0  0  0
  182.0750  178.8370  140.2200 C   0  0  2  0  0  3  0  0  0  0  0  0
  186.3880  176.4690  136.9670 C   0  0  0  0  0  0  0  0  0  0  0  0
  186.7870  177.7660  140.1870 C   0  0  1  0  0  3  0  0  0  0  0  0
  189.0840  175.8420  135.5440 C   0  0  0  0  0  3  0  0  0  0  0  0
  181.5810  179.1160  138.7910 C   0  0  0  0  0  2  0  0  0  0  0  0
  184.8940  176.5150  136.9420 C   0  0  1  0  0  3  0  0  0  0  0  0
  185.7250  173.0840  136.7130 C   0  0  0  0  0  1  0  0  0  0  0  0
  189.4960  177.9630  138.4090 C   0  0  0  0  0  3  0  0  0  0  0  0
  189.4160  176.8200  136.3780 C   0  0  0  0  0  3  0  0  0  0  0  0
  184.4270  175.1430  136.7480 N   0  0  0  0  0  2  0  0  0  0  0  0
  183.4340  179.4300  140.6520 C   0  0  1  0  0  3  0  0  0  0  0  0
  184.5150  178.3890  140.7330 C   0  0  1  0  0  3  0  0  0  0  0  0
  188.6810  177.3430  137.5380 C   0  0  0  0  0  0  0  0  0  0  0  0
  185.0190  178.4930  138.4350 C   0  0  2  0  0  3  0  0  0  0  0  0
  186.7380  175.2880  136.2050 C   0  0  0  0  0  0  0  0  0  0  0  0
  188.2850  177.7030  140.5340 C   0  0  1  0  0  3  0  0  0  0  0  0
  185.1400  174.2480  134.5990 C   0  0  0  0  0  1  0  0  0  0  0  0
  184.5140  179.3920  139.5740 C   0  0  1  0  0  3  0  0  0  0  0  0
  181.9050  177.5000  140.5930 O   0  0  0  0  0  1  0  0  0  0  0  0
  184.2740  177.1590  138.1710 C   0  0  1  0  0  3  0  0  0  0  0  0
  189.1210  178.6460  139.6850 C   0  0  0  0  0  2  0  0  0  0  0  0
  187.7700  177.1930  142.9620 C   0  0  0  0  0  3  0  0  0  0  0  0
  188.6170  177.7620  141.9980 C   0  0  0  0  0  0  0  0  0  0  0  0
  189.8140  178.3640  142.4000 C   0  0  0  0  0  3  0  0  0  0  0  0
  191.6550  179.1670  144.2500 Cl  0  0  0  0  0  0  0  0  0  0  0  0
  189.3090  177.8490  144.7120 C   0  0  0  0  0  3  0  0  0  0  0  0
  190.1580  178.4100  143.7540 C   0  0  0  0  0  0  0  0  0  0  0  0
  188.1140  177.2400  144.3150 C   0  0  0  0  0  3  0  0  0  0  0  0
  180.8050  179.6800  136.1980 C   0  0  0  0  0  1  0  0  0  0  0  0
  181.5700  178.3880  136.4140 C   0  0  0  0  0  2  0  0  0  0  0  0
  1 27  1  0  0  0  0
  2 22  1  0  0  0  0
  2 14  1  0  0  0  0
  2 17  1  0  0  0  0
  4 37  1  6  0  0  0
  4  1  1  0  0  0  0
  4 12  1  0  0  0  0
  6 22  2  0  0  0  0
  7  3  1  6  0  0  0
  7 10  1  0  0  0  0
  8 26  1  6  0  0  0
  8 18  1  0  0  0  0
  9  3  2  0  0  0  0
 10 23  1  0  0  0  0
 10  5  1  1  0  0  0
 11  6  1  0  0  0  0
 11 16  2  0  0  0  0
 12  8  1  0  0  0  0
 13 17  1  1  0  0  0
 13  9  1  0  0  0  0
 13 27  1  0  0  0  0
 15 28  1  0  0  0  0
 16 20  1  0  0  0  0
 18 19  1  0  0  0  0
 19  5  1  0  0  0  0
 20  3  1  0  0  0  0
 20 15  2  0  0  0  0
 21  7  1  0  0  0  0
 21 25  1  0  0  0  0
 22  9  1  0  0  0  0
 23 30  1  0  0  0  0
 24  2  1  0  0  0  0
 25 18  1  0  0  0  0
 25 19  1  0  0  0  0
 27 21  1  0  0  0  0
 28 23  1  0  0  0  0
 29 35  1  0  0  0  0
 30 31  1  0  0  0  0
 30 29  2  0  0  0  0
 31 34  2  0  0  0  0
 34 32  1  0  0  0  0
 34 33  1  0  0  0  0
 35 33  2  0  0  0  0
 36 37  1  0  0  0  0
M  END
>  <MODEL>
4

>  <REMARK>
 VINA RESULT:      -7.8      2.877      4.280
  Name = 
  2 active torsions:
  status: ('A' for Active; 'I' for Inactive)
    1  A    between atoms: C_5  and  C_23
    2  A    between atoms: C_6  and  C_31
                            x       y       z     vdW  Elec       q    Type
                         _______ _______ _______ _____ _____    ______ ____

>  <TORSDO>
F 2

$$$$
=
 OpenBabel10262422483D

 37 44  0  0  1  0  0  0  0  0999 V2000
  180.4360  177.4680  139.8230 O   0  0  0  0  0  0  0  0  0  0  0  0
  183.0110  175.2740  137.1370 C   0  0  0  0  0  0  0  0  0  0  0  0
  184.6900  177.9230  139.0820 C   0  0  0  0  0  0  0  0  0  0  0  0
  179.8910  178.7610  139.7160 C   0  0  2  0  0  3  0  0  0  0  0  0
  183.7450  178.4840  142.8700 C   0  0  0  0  0  2  0  0  0  0  0  0
  185.2770  176.0930  136.5400 C   0  0  0  0  0  3  0  0  0  0  0  0
  184.0930  178.6050  140.3090 C   0  0  2  0  0  3  0  0  0  0  0  0
  179.7960  178.6550  142.3050 C   0  0  2  0  0  3  0  0  0  0  0  0
  183.8700  177.1730  138.3050 C   0  0  0  0  0  0  0  0  0  0  0  0
  184.5270  177.9220  141.6540 C   0  0  1  0  0  3  0  0  0  0  0  0
  186.4360  176.9810  136.5550 C   0  0  0  0  0  3  0  0  0  0  0  0
  179.1460  179.1410  140.9990 C   0  0  0  0  0  2  0  0  0  0  0  0
  182.3810  177.1230  138.4250 C   0  0  1  0  0  3  0  0  0  0  0  0
  183.3550  173.8450  137.5170 C   0  0  0  0  0  1  0  0  0  0  0  0
  187.0290  178.6020  139.7010 C   0  0  0  0  0  3  0  0  0  0  0  0
  186.8010  177.8210  137.5160 C   0  0  0  0  0  3  0  0  0  0  0  0
  181.9660  175.7760  138.0350 N   0  0  0  0  0  2  0  0  0  0  0  0
  181.1600  179.2540  142.7100 C   0  0  1  0  0  3  0  0  0  0  0  0
  182.2940  178.2890  142.5060 C   0  0  1  0  0  3  0  0  0  0  0  0
  186.1620  178.0870  138.8120 C   0  0  0  0  0  0  0  0  0  0  0  0
  182.5570  178.8190  140.2280 C   0  0  2  0  0  3  0  0  0  0  0  0
  184.2000  176.1670  137.3180 C   0  0  0  0  0  0  0  0  0  0  0  0
  186.0550  177.9010  141.8470 C   0  0  1  0  0  3  0  0  0  0  0  0
  182.5010  175.3130  135.7050 C   0  0  0  0  0  1  0  0  0  0  0  0
  182.1260  179.4740  141.5490 C   0  0  1  0  0  3  0  0  0  0  0  0
  179.7310  177.2650  142.4490 O   0  0  0  0  0  1  0  0  0  0  0  0
  181.8570  177.5040  139.8000 C   0  0  1  0  0  3  0  0  0  0  0  0
  186.7520  179.0300  141.1070 C   0  0  0  0  0  2  0  0  0  0  0  0
  187.7220  177.0510  143.5550 C   0  0  0  0  0  3  0  0  0  0  0  0
  186.5290  177.7300  143.2620 C   0  0  0  0  0  0  0  0  0  0  0  0
  185.7820  178.2940  144.3030 C   0  0  0  0  0  3  0  0  0  0  0  0
  185.2750  178.8750  146.9220 Cl  0  0  0  0  0  0  0  0  0  0  0  0
  187.4000  177.4870  145.9140 C   0  0  0  0  0  3  0  0  0  0  0  0
  186.2150  178.1700  145.6260 C   0  0  0  0  0  0  0  0  0  0  0  0
  188.1540  176.9280  144.8790 C   0  0  0  0  0  3  0  0  0  0  0  0
  179.6440  179.3520  137.3080 C   0  0  0  0  0  1  0  0  0  0  0  0
  178.9310  178.8320  138.5420 C   0  0  0  0  0  2  0  0  0  0  0  0
  2 22  1  0  0  0  0
  2 14  1  0  0  0  0
  2 17  1  0  0  0  0
  4 37  1  6  0  0  0
  4  1  1  0  0  0  0
  4 12  1  0  0  0  0
  6 11  1  0  0  0  0
  6 22  2  0  0  0  0
  7  3  1  6  0  0  0
  7 10  1  0  0  0  0
  8 26  1  6  0  0  0
  8 18  1  0  0  0  0
  9 13  1  0  0  0  0
  9  3  2  0  0  0  0
 10 23  1  0  0  0  0
 10  5  1  1  0  0  0
 11 16  2  0  0  0  0
 12  8  1  0  0  0  0
 13 17  1  1  0  0  0
 13 27  1  0  0  0  0
 15 28  1  0  0  0  0
 16 20  1  0  0  0  0
 19 18  1  0  0  0  0
 19  5  1  0  0  0  0
 20  3  1  0  0  0  0
 20 15  2  0  0  0  0
 21  7  1  0  0  0  0
 21 25  1  0  0  0  0
 22  9  1  0  0  0  0
 23 30  1  0  0  0  0
 24  2  1  0  0  0  0
 25 19  1  0  0  0  0
 25 18  1  0  0  0  0
 27  1  1  0  0  0  0
 27 21  1  0  0  0  0
 28 23  1  0  0  0  0
 29 35  1  0  0  0  0
 30 29  2  0  0  0  0
 30 31  1  0  0  0  0
 31 34  2  0  0  0  0
 34 33  1  0  0  0  0
 34 32  1  0  0  0  0
 35 33  2  0  0  0  0
 36 37  1  0  0  0  0
M  END
>  <MODEL>
5

>  <REMARK>
 VINA RESULT:      -7.3      2.184      3.823
  Name = 
  2 active torsions:
  status: ('A' for Active; 'I' for Inactive)
    1  A    between atoms: C_5  and  C_23
    2  A    between atoms: C_6  and  C_31
                            x       y       z     vdW  Elec       q    Type
                         _______ _______ _______ _____ _____    ______ ____

>  <TORSDO>
F 2

$$$$
=
 OpenBabel10262422483D

 37 44  0  0  1  0  0  0  0  0999 V2000
  181.4850  178.0140  140.9810 O   0  0  0  0  0  0  0  0  0  0  0  0
  183.4790  175.8840  137.7960 C   0  0  0  0  0  0  0  0  0  0  0  0
  185.6220  178.2240  139.6800 C   0  0  0  0  0  0  0  0  0  0  0  0
  181.0400  179.3460  141.0520 C   0  0  2  0  0  3  0  0  0  0  0  0
  185.2500  178.5180  143.5950 C   0  0  0  0  0  2  0  0  0  0  0  0
  185.7040  176.5860  136.9480 C   0  0  0  0  0  3  0  0  0  0  0  0
  185.2560  178.8380  141.0280 C   0  0  2  0  0  3  0  0  0  0  0  0
  181.2890  179.0220  143.6120 C   0  0  2  0  0  3  0  0  0  0  0  0
  184.6450  177.6060  138.9720 C   0  0  0  0  0  0  0  0  0  0  0  0
  185.8100  178.0100  142.2410 C   0  0  1  0  0  3  0  0  0  0  0  0
  186.9240  177.3840  136.8660 C   0  0  0  0  0  3  0  0  0  0  0  0
  180.5100  179.6660  142.4520 C   0  0  0  0  0  2  0  0  0  0  0  0
  183.1860  177.6530  139.2980 C   0  0  1  0  0  3  0  0  0  0  0  0
  183.7510  174.4060  138.0120 C   0  0  0  0  0  1  0  0  0  0  0  0
  188.0720  178.6760  140.0100 C   0  0  0  0  0  3  0  0  0  0  0  0
  187.4850  178.1070  137.8260 C   0  0  0  0  0  3  0  0  0  0  0  0
  182.6110  176.3790  138.8690 N   0  0  0  0  0  2  0  0  0  0  0  0
  182.7400  179.4840  143.8630 C   0  0  1  0  0  3  0  0  0  0  0  0
  183.7520  178.4610  143.4280 C   0  0  1  0  0  3  0  0  0  0  0  0
  187.0520  178.3050  139.2160 C   0  0  0  0  0  0  0  0  0  0  0  0
  183.7460  179.1680  141.1820 C   0  0  2  0  0  3  0  0  0  0  0  0
  184.7510  176.6690  137.8740 C   0  0  0  0  0  0  0  0  0  0  0  0
  187.3420  177.8620  142.2130 C   0  0  1  0  0  3  0  0  0  0  0  0
  182.7840  176.0840  136.4580 C   0  0  0  0  0  1  0  0  0  0  0  0
  183.5550  179.7340  142.5970 C   0  0  1  0  0  3  0  0  0  0  0  0
  181.1280  177.6330  143.6570 O   0  0  0  0  0  1  0  0  0  0  0  0
  182.8880  177.9490  140.7590 C   0  0  1  0  0  3  0  0  0  0  0  0
  188.0250  178.9980  141.4700 C   0  0  0  0  0  2  0  0  0  0  0  0
  187.2530  177.5360  144.7240 C   0  0  0  0  0  3  0  0  0  0  0  0
  187.9880  177.5340  143.5290 C   0  0  0  0  0  0  0  0  0  0  0  0
  189.3430  177.1840  143.5520 C   0  0  0  0  0  3  0  0  0  0  0  0
  191.6570  176.4160  144.7830 Cl  0  0  0  0  0  0  0  0  0  0  0  0
  189.2280  176.8600  145.9500 C   0  0  0  0  0  3  0  0  0  0  0  0
  189.9620  176.8500  144.7610 C   0  0  0  0  0  0  0  0  0  0  0  0
  187.8720  177.2020  145.9310 C   0  0  0  0  0  3  0  0  0  0  0  0
  180.5040  180.2500  138.7920 C   0  0  0  0  0  1  0  0  0  0  0  0
  179.9390  179.5900  140.0350 C   0  0  0  0  0  2  0  0  0  0  0  0
  1  4  1  0  0  0  0
  2 22  1  0  0  0  0
  2 14  1  0  0  0  0
  2 17  1  0  0  0  0
  4 37  1  6  0  0  0
  4 12  1  0  0  0  0
  6 22  2  0  0  0  0
  7  3  1  6  0  0  0
  7 21  1  0  0  0  0
  7 10  1  0  0  0  0
  8 26  1  6  0  0  0
  8 18  1  0  0  0  0
  9 13  1  0  0  0  0
  9  3  2  0  0  0  0
 10  5  1  1  0  0  0
 11  6  1  0  0  0  0
 11 16  2  0  0  0  0
 12  8  1  0  0  0  0
 13 17  1  1  0  0  0
 13 27  1  0  0  0  0
 15 28  1  0  0  0  0
 16 20  1  0  0  0  0
 19  5  1  0  0  0  0
 19 18  1  0  0  0  0
 20  3  1  0  0  0  0
 20 15  2  0  0  0  0
 21 25  1  0  0  0  0
 22  9  1  0  0  0  0
 23 10  1  0  0  0  0
 23 30  1  0  0  0  0
 24  2  1  0  0  0  0
 25 19  1  0  0  0  0
 25 18  1  0  0  0  0
 27  1  1  0  0  0  0
 27 21  1  0  0  0  0
 28 23  1  0  0  0  0
 29 35  1  0  0  0  0
 30 31  1  0  0  0  0
 30 29  2  0  0  0  0
 31 34  2  0  0  0  0
 34 32  1  0  0  0  0
 34 33  1  0  0  0  0
 35 33  2  0  0  0  0
 36 37  1  0  0  0  0
M  END
>  <MODEL>
6

>  <REMARK>
 VINA RESULT:      -7.2      2.941      4.962
  Name = 
  2 active torsions:
  status: ('A' for Active; 'I' for Inactive)
    1  A    between atoms: C_5  and  C_23
    2  A    between atoms: C_6  and  C_31
                            x       y       z     vdW  Elec       q    Type
                         _______ _______ _______ _____ _____    ______ ____

>  <TORSDO>
F 2

$$$$
=
 OpenBabel10262422483D

 37 44  0  0  1  0  0  0  0  0999 V2000
  191.2870  175.9560  138.9220 O   0  0  0  0  0  0  0  0  0  0  0  0
  189.0190  177.0500  142.4320 C   0  0  0  0  0  0  0  0  0  0  0  0
  187.3500  177.7630  139.2200 C   0  0  0  0  0  0  0  0  0  0  0  0
  192.0030  176.7530  138.0110 C   0  0  2  0  0  3  0  0  0  0  0  0
  187.6090  175.1810  136.2500 C   0  0  0  0  0  2  0  0  0  0  0  0
  187.0350  178.5350  142.2950 C   0  0  0  0  0  3  0  0  0  0  0  0
  187.7810  177.1870  137.8740 C   0  0  2  0  0  3  0  0  0  0  0  0
  191.5820  174.7950  136.3640 C   0  0  2  0  0  3  0  0  0  0  0  0
  188.2010  177.6450  140.2680 C   0  0  2  0  0  3  0  0  0  0  0  0
  187.0110  175.8700  137.5040 C   0  0  1  0  0  3  0  0  0  0  0  0
  186.0190  179.3700  141.6620 C   0  0  0  0  0  3  0  0  0  0  0  0
  192.5290  175.9060  136.8480 C   0  0  0  0  0  2  0  0  0  0  0  0
  189.6210  177.1840  140.1750 C   0  0  1  0  0  3  0  0  0  0  0  0
  188.4290  175.9210  143.2570 C   0  0  0  0  0  1  0  0  0  0  0  0
  185.0420  178.2970  138.3810 C   0  0  0  0  0  2  0  0  0  0  0  0
  185.5860  179.3100  140.4090 C   0  0  0  0  0  3  0  0  0  0  0  0
  189.9270  176.4900  141.4260 N   0  0  0  0  0  2  0  0  0  0  0  0
  190.2540  175.2070  135.6940 C   0  0  1  0  0  3  0  0  0  0  0  0
  189.0660  174.9830  136.5880 C   0  0  1  0  0  3  0  0  0  0  0  0
  185.9910  178.4030  139.3270 C   0  0  0  0  0  0  0  0  0  0  0  0
  189.3180  177.0330  137.7170 C   0  0  2  0  0  3  0  0  0  0  0  0
  187.9430  177.7750  141.6870 C   0  0  0  0  0  0  0  0  0  0  0  0
  185.4850  176.0670  137.4430 C   0  0  1  0  0  3  0  0  0  0  0  0
  189.7970  177.9910  143.3390 C   0  0  0  0  0  1  0  0  0  0  0  0
  189.5660  176.4100  136.3350 C   0  0  1  0  0  3  0  0  0  0  0  0
  191.4400  173.7680  137.3030 O   0  0  0  0  0  1  0  0  0  0  0  0
  189.9130  176.3220  138.9590 C   0  0  1  0  0  3  0  0  0  0  0  0
  185.0950  177.4990  137.1170 C   0  0  0  0  0  2  0  0  0  0  0  0
  184.3180  175.3020  135.3290 C   0  0  0  0  0  3  0  0  0  0  0  0
  184.7290  175.0430  136.6460 C   0  0  0  0  0  0  0  0  0  0  0  0
  184.4640  173.7950  137.2190 C   0  0  0  0  0  3  0  0  0  0  0  0
  183.4520  171.2580  137.2140 Cl  0  0  0  0  0  0  0  0  0  0  0  0
  183.3690  173.0800  135.1810 C   0  0  0  0  0  3  0  0  0  0  0  0
  183.7830  172.8160  136.4890 C   0  0  0  0  0  0  0  0  0  0  0  0
  183.6370  174.3230  134.6000 C   0  0  0  0  0  3  0  0  0  0  0  0
  193.1560  177.1150  140.1900 C   0  0  0  0  0  1  0  0  0  0  0  0
  193.1730  177.4270  138.7060 C   0  0  0  0  0  2  0  0  0  0  0  0
  1 27  1  0  0  0  0
  2 14  1  0  0  0  0
  2 24  1  0  0  0  0
  3 20  2  0  0  0  0
  4 37  1  1  0  0  0
  4  1  1  0  0  0  0
  5 19  1  0  0  0  0
  7  3  1  1  0  0  0
  8 12  1  0  0  0  0
  8 26  1  1  0  0  0
  9  3  1  1  0  0  0
  9 22  1  0  0  0  0
 10  5  1  6  0  0  0
 10  7  1  0  0  0  0
 11  6  1  0  0  0  0
 12  4  1  0  0  0  0
 13  9  1  0  0  0  0
 13 17  1  1  0  0  0
 15 20  1  0  0  0  0
 16 11  2  0  0  0  0
 17  2  1  0  0  0  0
 18 25  1  0  0  0  0
 18  8  1  0  0  0  0
 18 19  1  0  0  0  0
 20 16  1  0  0  0  0
 21  7  1  0  0  0  0
 21 27  1  0  0  0  0
 22  6  2  0  0  0  0
 22  2  1  0  0  0  0
 23 10  1  0  0  0  0
 25 19  1  0  0  0  0
 25 21  1  0  0  0  0
 27 13  1  0  0  0  0
 28 23  1  0  0  0  0
 28 15  1  0  0  0  0
 29 30  1  0  0  0  0
 30 31  2  0  0  0  0
 30 23  1  0  0  0  0
 33 34  2  0  0  0  0
 34 32  1  0  0  0  0
 34 31  1  0  0  0  0
 35 33  1  0  0  0  0
 35 29  2  0  0  0  0
 37 36  1  0  0  0  0
M  END
>  <MODEL>
7

>  <REMARK>
 VINA RESULT:      -7.1      4.520      8.698
  Name = 
  2 active torsions:
  status: ('A' for Active; 'I' for Inactive)
    1  A    between atoms: C_5  and  C_23
    2  A    between atoms: C_6  and  C_31
                            x       y       z     vdW  Elec       q    Type
                         _______ _______ _______ _____ _____    ______ ____

>  <TORSDO>
F 2

$$$$
=
 OpenBabel10262422483D

 37 44  0  0  1  0  0  0  0  0999 V2000
  185.2180  176.2460  137.1630 O   0  0  0  0  0  0  0  0  0  0  0  0
  188.0130  173.0070  136.5720 C   0  0  0  0  0  0  0  0  0  0  0  0
  189.4920  176.1090  137.9150 C   0  0  0  0  0  0  0  0  0  0  0  0
  185.0010  177.4160  136.4120 C   0  0  2  0  0  3  0  0  0  0  0  0
  187.5440  178.2040  140.6300 C   0  0  0  0  0  2  0  0  0  0  0  0
  190.4670  173.3790  136.5930 C   0  0  0  0  0  3  0  0  0  0  0  0
  188.6890  177.2620  138.5100 C   0  0  2  0  0  3  0  0  0  0  0  0
  184.0840  178.3680  138.6430 C   0  0  2  0  0  3  0  0  0  0  0  0
  188.8240  175.1600  137.2150 C   0  0  0  0  0  0  0  0  0  0  0  0
  188.5380  177.1550  140.0690 C   0  0  1  0  0  3  0  0  0  0  0  0
  191.7150  174.1270  136.7130 C   0  0  0  0  0  3  0  0  0  0  0  0
  183.9840  178.3250  137.1080 C   0  0  0  0  0  2  0  0  0  0  0  0
  187.3920  175.2510  136.7920 C   0  0  1  0  0  3  0  0  0  0  0  0
  187.9300  171.8340  137.5330 C   0  0  0  0  0  1  0  0  0  0  0  0
  191.6070  176.8390  139.0590 C   0  0  0  0  0  3  0  0  0  0  0  0
  191.9220  175.2580  137.3730 C   0  0  0  0  0  3  0  0  0  0  0  0
  186.8610  173.8890  136.7840 N   0  0  0  0  0  2  0  0  0  0  0  0
  185.3440  178.9970  139.2750 C   0  0  1  0  0  3  0  0  0  0  0  0
  186.2700  177.9660  139.8570 C   0  0  1  0  0  3  0  0  0  0  0  0
  190.9770  176.0620  138.1610 C   0  0  0  0  0  0  0  0  0  0  0  0
  187.3300  177.5160  137.8040 C   0  0  2  0  0  3  0  0  0  0  0  0
  189.2380  173.8230  136.8430 C   0  0  0  0  0  0  0  0  0  0  0  0
  189.8930  177.1220  140.8000 C   0  0  1  0  0  3  0  0  0  0  0  0
  187.9930  172.4950  135.1400 C   0  0  0  0  0  1  0  0  0  0  0  0
  186.6480  178.6730  138.5500 C   0  0  1  0  0  3  0  0  0  0  0  0
  183.7030  177.1610  139.2370 O   0  0  0  0  0  1  0  0  0  0  0  0
  186.5530  176.1840  137.6490 C   0  0  1  0  0  3  0  0  0  0  0  0
  190.9960  177.8130  140.0150 C   0  0  0  0  0  2  0  0  0  0  0  0
  190.9120  178.2230  142.8410 C   0  0  0  0  0  3  0  0  0  0  0  0
  189.8590  177.5080  142.2510 C   0  0  0  0  0  0  0  0  0  0  0  0
  188.7350  177.1770  143.0160 C   0  0  0  0  0  3  0  0  0  0  0  0
  187.2600  177.1280  145.3130 Cl  0  0  0  0  0  0  0  0  0  0  0  0
  189.7210  178.2530  144.9480 C   0  0  0  0  0  3  0  0  0  0  0  0
  188.6680  177.5470  144.3620 C   0  0  0  0  0  0  0  0  0  0  0  0
  190.8440  178.5910  144.1880 C   0  0  0  0  0  3  0  0  0  0  0  0
  184.1240  175.5950  134.9540 C   0  0  0  0  0  1  0  0  0  0  0  0
  184.4890  177.0650  135.0260 C   0  0  0  0  0  2  0  0  0  0  0  0
  1 27  1  0  0  0  0
  2 17  1  0  0  0  0
  2 22  1  0  0  0  0
  2 14  1  0  0  0  0
  3 20  1  0  0  0  0
  4 37  1  6  0  0  0
  4 12  1  0  0  0  0
  4  1  1  0  0  0  0
  6 11  1  0  0  0  0
  6 22  2  0  0  0  0
  7  3  1  6  0  0  0
  7 10  1  0  0  0  0
  8 26  1  6  0  0  0
  8 18  1  0  0  0  0
  9  3  2  0  0  0  0
 10  5  1  1  0  0  0
 10 23  1  0  0  0  0
 11 16  2  0  0  0  0
 12  8  1  0  0  0  0
 13 17  1  1  0  0  0
 13  9  1  0  0  0  0
 13 27  1  0  0  0  0
 15 28  1  0  0  0  0
 16 20  1  0  0  0  0
 18 19  1  0  0  0  0
 19  5  1  0  0  0  0
 20 15  2  0  0  0  0
 21  7  1  0  0  0  0
 21 25  1  0  0  0  0
 22  9  1  0  0  0  0
 23 30  1  0  0  0  0
 24  2  1  0  0  0  0
 25 18  1  0  0  0  0
 25 19  1  0  0  0  0
 27 21  1  0  0  0  0
 28 23  1  0  0  0  0
 29 35  1  0  0  0  0
 30 29  2  0  0  0  0
 30 31  1  0  0  0  0
 31 34  2  0  0  0  0
 34 33  1  0  0  0  0
 34 32  1  0  0  0  0
 35 33  2  0  0  0  0
 36 37  1  0  0  0  0
M  END
>  <MODEL>
8

>  <REMARK>
 VINA RESULT:      -6.5      3.561      5.404
  Name = 
  2 active torsions:
  status: ('A' for Active; 'I' for Inactive)
    1  A    between atoms: C_5  and  C_23
    2  A    between atoms: C_6  and  C_31
                            x       y       z     vdW  Elec       q    Type
                         _______ _______ _______ _____ _____    ______ ____

>  <TORSDO>
F 2

$$$$
=
 OpenBabel10262422483D

 37 44  0  0  1  0  0  0  0  0999 V2000
  186.7000  178.5760  142.0450 O   0  0  0  0  0  0  0  0  0  0  0  0
  188.5580  178.5210  138.1460 C   0  0  0  0  0  0  0  0  0  0  0  0
  184.9910  177.5770  138.1810 C   0  0  0  0  0  0  0  0  0  0  0  0
  186.3430  177.5210  142.9030 C   0  0  2  0  0  3  0  0  0  0  0  0
  182.4610  179.5260  140.4970 C   0  0  0  0  0  2  0  0  0  0  0  0
  187.4830  177.4110  136.2030 C   0  0  0  0  0  3  0  0  0  0  0  0
  184.0410  177.8290  139.3490 C   0  0  2  0  0  3  0  0  0  0  0  0
  184.6170  179.2120  143.8440 C   0  0  2  0  0  3  0  0  0  0  0  0
  186.3210  177.7190  138.3970 C   0  0  2  0  0  3  0  0  0  0  0  0
  183.2520  179.1790  139.2090 C   0  0  1  0  0  3  0  0  0  0  0  0
  186.4570  176.6750  135.4700 C   0  0  0  0  0  3  0  0  0  0  0  0
  185.5840  178.0490  144.1240 C   0  0  0  0  0  2  0  0  0  0  0  0
  186.9600  177.8970  139.7370 C   0  0  1  0  0  3  0  0  0  0  0  0
  188.8890  179.8610  137.5150 C   0  0  0  0  0  1  0  0  0  0  0  0
  183.0980  177.3280  136.5470 C   0  0  0  0  0  2  0  0  0  0  0  0
  185.1620  176.5960  135.7460 C   0  0  0  0  0  3  0  0  0  0  0  0
  188.1470  178.7290  139.5380 N   0  0  0  0  0  2  0  0  0  0  0  0
  183.3750  178.9340  142.9710 C   0  0  1  0  0  3  0  0  0  0  0  0
  183.5010  179.5150  141.5910 C   0  0  1  0  0  3  0  0  0  0  0  0
  184.4050  177.2180  136.8410 C   0  0  0  0  0  0  0  0  0  0  0  0
  184.7040  177.6770  140.7450 C   0  0  2  0  0  3  0  0  0  0  0  0
  187.3990  177.8820  137.4450 C   0  0  0  0  0  0  0  0  0  0  0  0
  182.4120  179.2490  137.9200 C   0  0  1  0  0  3  0  0  0  0  0  0
  189.7870  177.6250  138.1160 C   0  0  0  0  0  1  0  0  0  0  0  0
  183.6250  178.0000  141.7890 C   0  0  1  0  0  3  0  0  0  0  0  0
  185.2860  180.3930  143.5060 O   0  0  0  0  0  1  0  0  0  0  0  0
  186.0330  178.4730  140.7940 C   0  0  1  0  0  3  0  0  0  0  0  0
  182.0080  177.8750  137.4120 C   0  0  0  0  0  2  0  0  0  0  0  0
  179.9610  179.8350  138.1730 C   0  0  0  0  0  3  0  0  0  0  0  0
  181.2830  180.2390  137.9330 C   0  0  0  0  0  0  0  0  0  0  0  0
  181.5660  181.5960  137.7380 C   0  0  0  0  0  3  0  0  0  0  0  0
  180.8970  184.2340  137.5230 Cl  0  0  0  0  0  0  0  0  0  0  0  0
  179.2200  182.1330  138.0030 C   0  0  0  0  0  3  0  0  0  0  0  0
  180.5360  182.5400  137.7700 C   0  0  0  0  0  0  0  0  0  0  0  0
  178.9320  180.7800  138.2050 C   0  0  0  0  0  3  0  0  0  0  0  0
  187.9370  177.1820  144.7880 C   0  0  0  0  0  1  0  0  0  0  0  0
  187.5830  176.7780  143.3700 C   0  0  0  0  0  2  0  0  0  0  0  0
  1  4  1  0  0  0  0
  2 17  1  0  0  0  0
  3  9  1  0  0  0  0
  4 37  1  1  0  0  0
  4 12  1  0  0  0  0
  5 19  1  0  0  0  0
  6 22  2  0  0  0  0
  7  3  1  6  0  0  0
  7 21  1  0  0  0  0
  8 26  1  6  0  0  0
  8 12  1  0  0  0  0
  9 22  1  6  0  0  0
  9 13  1  0  0  0  0
 10  7  1  0  0  0  0
 10  5  1  1  0  0  0
 11 16  2  0  0  0  0
 11  6  1  0  0  0  0
 13 17  1  6  0  0  0
 13 27  1  0  0  0  0
 14  2  1  0  0  0  0
 15 20  1  0  0  0  0
 15 28  1  0  0  0  0
 16 20  1  0  0  0  0
 18  8  1  0  0  0  0
 19 25  1  0  0  0  0
 19 18  1  0  0  0  0
 20  3  2  0  0  0  0
 21 27  1  0  0  0  0
 21 25  1  0  0  0  0
 22  2  1  0  0  0  0
 23 30  1  0  0  0  0
 23 10  1  0  0  0  0
 24  2  1  0  0  0  0
 25 18  1  0  0  0  0
 27  1  1  0  0  0  0
 28 23  1  0  0  0  0
 29 35  1  0  0  0  0
 30 29  2  0  0  0  0
 31 34  2  0  0  0  0
 31 30  1  0  0  0  0
 32 34  1  0  0  0  0
 33 35  2  0  0  0  0
 34 33  1  0  0  0  0
 37 36  1  0  0  0  0
M  END
>  <MODEL>
9

>  <REMARK>
 VINA RESULT:      -6.4      3.901      6.554
  Name = 
  2 active torsions:
  status: ('A' for Active; 'I' for Inactive)
    1  A    between atoms: C_5  and  C_23
    2  A    between atoms: C_6  and  C_31
                            x       y       z     vdW  Elec       q    Type
                         _______ _______ _______ _____ _____    ______ ____

>  <TORSDO>
F 2

$$$$
