=
 OpenBabel10252414533D

 34 38  0  0  1  0  0  0  0  0999 V2000
  184.1590  177.7060  138.8250 C   0  0  0  0  0  0  0  0  0  0  0  0
  182.4340  176.0820  138.6280 C   0  0  1  0  0  3  0  0  0  0  0  0
  182.5300  177.8880  140.6430 C   0  0  0  0  0  0  0  0  0  0  0  0
  181.1590  179.2930  143.0760 C   0  0  0  0  0  3  0  0  0  0  0  0
  185.5270  177.2620  136.9240 O   0  0  0  0  0  0  0  0  0  0  0  0
  183.7490  175.3600  137.5710 S   0  0  0  0  0  0  0  0  0  0  0  0
  180.2900  176.8140  140.4660 C   0  0  0  0  0  1  0  0  0  0  0  0
  183.0440  177.2420  139.3810 C   0  0  0  0  0  0  0  0  0  0  0  0
  180.6110  178.8160  141.9580 C   0  0  0  0  0  0  0  0  0  0  0  0
  184.6250  176.8990  137.7230 C   0  0  0  0  0  0  0  0  0  0  0  0
  183.5500  178.6790  141.4010 C   0  0  0  0  0  0  0  0  0  0  0  0
  184.7990  178.9860  139.2710 C   0  0  0  0  0  2  0  0  0  0  0  0
  181.3420  176.5870  137.6980 C   0  0  0  0  0  1  0  0  0  0  0  0
  182.4920  178.9960  143.6010 C   0  0  0  0  0  3  0  0  0  0  0  0
  183.5750  178.6870  142.8870 C   0  0  0  0  0  0  0  0  0  0  0  0
  181.2370  177.8130  141.0510 C   0  0  0  0  0  0  0  0  0  0  0  0
  184.6270  179.1490  140.7520 C   0  0  0  0  0  3  0  0  0  0  0  0
  187.0790  177.4370  143.6640 C   0  0  0  0  0  0  0  0  0  0  0  0
  187.1890  177.7390  145.0230 C   0  0  0  0  0  3  0  0  0  0  0  0
  184.8310  178.3740  143.6260 C   0  0  0  0  0  0  0  0  0  0  0  0
  186.1260  178.3510  145.6910 C   0  0  0  0  0  3  0  0  0  0  0  0
  185.9060  177.7500  142.9720 C   0  0  0  0  0  3  0  0  0  0  0  0
  184.9530  178.6640  144.9970 C   0  0  0  0  0  3  0  0  0  0  0  0
  188.4080  176.6670  142.8260 Cl  0  0  0  0  0  0  0  0  0  0  0  0
  179.2290  179.2940  141.6500 C   0  0  0  0  0  2  0  0  0  0  0  0
  179.2640  180.7660  141.2870 C   0  0  0  0  0  2  0  0  0  0  0  0
  179.0450  180.9240  139.7950 C   0  0  0  0  0  2  0  0  0  0  0  0
  181.3960  180.3130  138.0580 C   0  0  0  0  0  1  0  0  0  0  0  0
  179.8640  182.0940  139.2680 C   0  0  1  0  0  3  0  0  0  0  0  0
  180.8450  181.6980  138.1690 C   0  0  0  0  0  0  0  0  0  0  0  0
  180.7790  184.0500  137.4000 C   0  0  0  0  0  2  0  0  0  0  0  0
  179.3580  184.0930  137.9010 C   0  0  0  0  0  3  0  0  0  0  0  0
  178.9310  183.1760  138.7810 C   0  0  0  0  0  3  0  0  0  0  0  0
  181.2620  182.6260  137.2930 C   0  0  0  0  0  3  0  0  0  0  0  0
  1 12  1  0  0  0  0
  1  8  2  0  0  0  0
  2 13  1  6  0  0  0
  2  8  1  0  0  0  0
  3 16  2  0  0  0  0
  3 11  1  0  0  0  0
  4 14  1  0  0  0  0
  5 10  2  0  0  0  0
  6 10  1  0  0  0  0
  6  2  1  0  0  0  0
  7 16  1  0  0  0  0
  8  3  1  0  0  0  0
  9  4  2  0  0  0  0
 10  1  1  0  0  0  0
 11 15  1  0  0  0  0
 12 17  1  0  0  0  0
 15 14  2  0  0  0  0
 15 20  1  0  0  0  0
 16  9  1  0  0  0  0
 17 11  2  0  0  0  0
 18 19  1  0  0  0  0
 19 21  2  0  0  0  0
 20 23  2  0  0  0  0
 22 20  1  0  0  0  0
 22 18  2  0  0  0  0
 23 21  1  0  0  0  0
 24 18  1  0  0  0  0
 25  9  1  0  0  0  0
 26 25  1  0  0  0  0
 27 26  1  0  0  0  0
 28 30  1  0  0  0  0
 29 27  1  6  0  0  0
 30 29  1  0  0  0  0
 31 32  1  0  0  0  0
 32 33  2  0  0  0  0
 33 29  1  0  0  0  0
 34 31  1  0  0  0  0
 34 30  2  0  0  0  0
M  END
>  <MODEL>
1

>  <REMARK>
 VINA RESULT:      -8.6      0.000      0.000
  Name = 
  5 active torsions:
  status: ('A' for Active; 'I' for Inactive)
    1  A    between atoms: C_3  and  C_13
    2  A    between atoms: C_3  and  C_17
    3  A    between atoms: C_12  and  C_28
    4  A    between atoms: C_17  and  C_29
    5  A    between atoms: C_18  and  C_29
                            x       y       z     vdW  Elec       q    Type
                         _______ _______ _______ _____ _____    ______ ____

>  <TORSDO>
F 5

$$$$
=
 OpenBabel10252414533D

 34 38  0  0  1  0  0  0  0  0999 V2000
  181.0460  179.5890  139.4000 C   0  0  0  0  0  0  0  0  0  0  0  0
  180.2520  178.2340  141.1850 C   0  0  1  0  0  3  0  0  0  0  0  0
  182.8380  179.0030  140.9600 C   0  0  0  0  0  0  0  0  0  0  0  0
  185.6970  179.2530  142.2000 C   0  0  0  0  0  3  0  0  0  0  0  0
  179.0770  179.9790  138.1130 O   0  0  0  0  0  0  0  0  0  0  0  0
  178.9310  178.0130  139.9310 S   0  0  0  0  0  0  0  0  0  0  0  0
  182.3220  178.1450  143.2400 C   0  0  0  0  0  1  0  0  0  0  0  0
  181.4000  178.9510  140.5110 C   0  0  0  0  0  0  0  0  0  0  0  0
  184.5090  179.3100  142.8010 C   0  0  0  0  0  0  0  0  0  0  0  0
  179.6850  179.3240  138.9990 C   0  0  0  0  0  0  0  0  0  0  0  0
  183.8150  179.3770  139.8890 C   0  0  0  0  0  0  0  0  0  0  0  0
  181.9670  180.5450  138.7020 C   0  0  0  0  0  2  0  0  0  0  0  0
  179.6770  179.1070  142.2900 C   0  0  0  0  0  1  0  0  0  0  0  0
  185.9850  178.7400  140.8610 C   0  0  0  0  0  3  0  0  0  0  0  0
  185.1600  178.7480  139.8130 C   0  0  0  0  0  0  0  0  0  0  0  0
  183.2340  178.7810  142.2400 C   0  0  2  0  0  3  0  0  0  0  0  0
  183.3810  180.0610  138.8180 C   0  0  0  0  0  2  0  0  0  0  0  0
  187.3980  177.7830  136.8980 C   0  0  0  0  0  0  0  0  0  0  0  0
  186.5360  176.9970  136.1310 C   0  0  0  0  0  3  0  0  0  0  0  0
  185.6370  178.1280  138.5450 C   0  0  0  0  0  0  0  0  0  0  0  0
  185.2250  176.7770  136.5580 C   0  0  0  0  0  3  0  0  0  0  0  0
  186.9510  178.3460  138.0950 C   0  0  0  0  0  3  0  0  0  0  0  0
  184.7780  177.3410  137.7570 C   0  0  0  0  0  3  0  0  0  0  0  0
  189.0400  178.0620  136.3620 Cl  0  0  0  0  0  0  0  0  0  0  0  0
  184.4970  179.8970  144.1750 C   0  0  0  0  0  2  0  0  0  0  0  0
  185.6860  179.3830  144.9640 C   0  0  0  0  0  2  0  0  0  0  0  0
  185.5290  177.8940  145.2030 C   0  0  0  0  0  2  0  0  0  0  0  0
  188.1160  177.0980  143.9420 C   0  0  0  0  0  1  0  0  0  0  0  0
  186.6390  177.3910  146.1140 C   0  0  1  0  0  3  0  0  0  0  0  0
  187.9930  177.2950  145.4190 C   0  0  0  0  0  0  0  0  0  0  0  0
  189.0430  177.4880  147.6530 C   0  0  0  0  0  2  0  0  0  0  0  0
  187.8580  178.3320  148.0500 C   0  0  0  0  0  3  0  0  0  0  0  0
  186.7290  178.2820  147.3290 C   0  0  0  0  0  3  0  0  0  0  0  0
  189.1160  177.3490  146.1540 C   0  0  0  0  0  3  0  0  0  0  0  0
  1  8  2  0  0  0  0
  2 13  1  1  0  0  0
  3 16  1  0  0  0  0
  4  9  2  0  0  0  0
  5 10  2  0  0  0  0
  6  2  1  0  0  0  0
  8  3  1  0  0  0  0
  8  2  1  0  0  0  0
  9 25  1  0  0  0  0
 10  1  1  0  0  0  0
 10  6  1  0  0  0  0
 11  3  2  0  0  0  0
 12 17  1  0  0  0  0
 12  1  1  0  0  0  0
 14  4  1  0  0  0  0
 15 11  1  0  0  0  0
 15 14  2  0  0  0  0
 16  9  1  0  0  0  0
 16  7  1  1  0  0  0
 17 11  1  0  0  0  0
 18 22  1  0  0  0  0
 19 21  1  0  0  0  0
 19 18  2  0  0  0  0
 20 15  1  0  0  0  0
 21 23  2  0  0  0  0
 22 20  2  0  0  0  0
 23 20  1  0  0  0  0
 24 18  1  0  0  0  0
 25 26  1  0  0  0  0
 26 27  1  0  0  0  0
 28 30  1  0  0  0  0
 29 27  1  6  0  0  0
 29 33  1  0  0  0  0
 30 29  1  0  0  0  0
 30 34  2  0  0  0  0
 31 32  1  0  0  0  0
 33 32  2  0  0  0  0
 34 31  1  0  0  0  0
M  END
>  <MODEL>
2

>  <REMARK>
 VINA RESULT:      -8.5      2.742      7.492
  Name = 
  5 active torsions:
  status: ('A' for Active; 'I' for Inactive)
    1  A    between atoms: C_3  and  C_13
    2  A    between atoms: C_3  and  C_17
    3  A    between atoms: C_12  and  C_28
    4  A    between atoms: C_17  and  C_29
    5  A    between atoms: C_18  and  C_29
                            x       y       z     vdW  Elec       q    Type
                         _______ _______ _______ _____ _____    ______ ____

>  <TORSDO>
F 5

$$$$
=
 OpenBabel10252414533D

 34 38  0  0  1  0  0  0  0  0999 V2000
  186.0180  177.4990  137.3730 C   0  0  0  0  0  0  0  0  0  0  0  0
  187.7820  178.5870  138.5360 C   0  0  1  0  0  3  0  0  0  0  0  0
  185.2750  178.3750  139.5350 C   0  0  0  0  0  0  0  0  0  0  0  0
  183.2910  178.6650  141.9340 C   0  0  0  0  0  3  0  0  0  0  0  0
  187.0760  176.7680  135.3660 O   0  0  0  0  0  0  0  0  0  0  0  0
  188.4160  178.5850  136.8140 S   0  0  0  0  0  0  0  0  0  0  0  0
  186.9200  179.0140  141.2910 C   0  0  0  0  0  1  0  0  0  0  0  0
  186.3360  178.1500  138.4880 C   0  0  0  0  0  0  0  0  0  0  0  0
  184.5850  178.3410  141.9420 C   0  0  0  0  0  0  0  0  0  0  0  0
  187.0770  177.4960  136.3920 C   0  0  0  0  0  0  0  0  0  0  0  0
  183.8690  178.2540  139.0360 C   0  0  0  0  0  0  0  0  0  0  0  0
  184.7110  176.7820  137.2160 C   0  0  0  0  0  2  0  0  0  0  0  0
  188.6040  177.5710  139.3140 C   0  0  0  0  0  1  0  0  0  0  0  0
  182.5440  179.2820  140.8380 C   0  0  0  0  0  3  0  0  0  0  0  0
  182.7910  179.1480  139.5340 C   0  0  0  0  0  0  0  0  0  0  0  0
  185.5500  178.6200  140.8420 C   0  0  2  0  0  3  0  0  0  0  0  0
  183.6280  177.5400  137.9240 C   0  0  0  0  0  2  0  0  0  0  0  0
  181.2410  182.0160  137.5810 C   0  0  0  0  0  0  0  0  0  0  0  0
  180.2830  181.3480  136.8150 C   0  0  0  0  0  3  0  0  0  0  0  0
  181.9310  179.9040  138.5810 C   0  0  0  0  0  0  0  0  0  0  0  0
  180.1390  179.9640  136.9300 C   0  0  0  0  0  3  0  0  0  0  0  0
  182.0570  181.2990  138.4600 C   0  0  0  0  0  3  0  0  0  0  0  0
  180.9560  179.2470  137.8090 C   0  0  0  0  0  3  0  0  0  0  0  0
  181.4220  183.7500  137.4420 Cl  0  0  0  0  0  0  0  0  0  0  0  0
  185.0930  177.7080  143.1960 C   0  0  0  0  0  2  0  0  0  0  0  0
  184.7770  178.5950  144.3850 C   0  0  0  0  0  2  0  0  0  0  0  0
  186.0670  179.1140  144.9880 C   0  0  0  0  0  2  0  0  0  0  0  0
  188.5670  177.7720  144.0560 C   0  0  0  0  0  1  0  0  0  0  0  0
  186.6850  178.0550  145.8900 C   0  0  1  0  0  3  0  0  0  0  0  0
  188.0950  177.6510  145.4690 C   0  0  0  0  0  0  0  0  0  0  0  0
  188.4820  176.9390  147.8080 C   0  0  0  0  0  2  0  0  0  0  0  0
  187.5250  178.0290  148.2160 C   0  0  0  0  0  3  0  0  0  0  0  0
  186.6790  178.5490  147.3160 C   0  0  0  0  0  3  0  0  0  0  0  0
  188.9320  177.1340  146.3820 C   0  0  0  0  0  3  0  0  0  0  0  0
  1  8  2  0  0  0  0
  2 13  1  1  0  0  0
  3 16  1  0  0  0  0
  4  9  2  0  0  0  0
  5 10  2  0  0  0  0
  6  2  1  0  0  0  0
  8  2  1  0  0  0  0
  8  3  1  0  0  0  0
  9 25  1  0  0  0  0
 10  6  1  0  0  0  0
 10  1  1  0  0  0  0
 11 15  1  0  0  0  0
 11  3  2  0  0  0  0
 12  1  1  0  0  0  0
 12 17  1  0  0  0  0
 14  4  1  0  0  0  0
 15 14  2  0  0  0  0
 16  7  1  1  0  0  0
 16  9  1  0  0  0  0
 17 11  1  0  0  0  0
 18 22  1  0  0  0  0
 19 21  1  0  0  0  0
 19 18  2  0  0  0  0
 20 15  1  0  0  0  0
 21 23  2  0  0  0  0
 22 20  2  0  0  0  0
 23 20  1  0  0  0  0
 24 18  1  0  0  0  0
 25 26  1  0  0  0  0
 26 27  1  0  0  0  0
 28 30  1  0  0  0  0
 29 27  1  6  0  0  0
 29 33  1  0  0  0  0
 30 29  1  0  0  0  0
 30 34  2  0  0  0  0
 31 32  1  0  0  0  0
 33 32  2  0  0  0  0
 34 31  1  0  0  0  0
M  END
>  <MODEL>
3

>  <REMARK>
 VINA RESULT:      -8.2      2.879      7.965
  Name = 
  5 active torsions:
  status: ('A' for Active; 'I' for Inactive)
    1  A    between atoms: C_3  and  C_13
    2  A    between atoms: C_3  and  C_17
    3  A    between atoms: C_12  and  C_28
    4  A    between atoms: C_17  and  C_29
    5  A    between atoms: C_18  and  C_29
                            x       y       z     vdW  Elec       q    Type
                         _______ _______ _______ _____ _____    ______ ____

>  <TORSDO>
F 5

$$$$
=
 OpenBabel10252414533D

 34 38  0  0  1  0  0  0  0  0999 V2000
  190.6110  178.0720  142.8000 C   0  0  0  0  0  0  0  0  0  0  0  0
  188.8860  176.7040  141.9030 C   0  0  1  0  0  3  0  0  0  0  0  0
  188.8710  177.6030  144.4570 C   0  0  0  0  0  0  0  0  0  0  0  0
  187.3630  178.0210  147.1630 C   0  0  0  0  0  3  0  0  0  0  0  0
  192.0920  178.3390  140.9510 O   0  0  0  0  0  0  0  0  0  0  0  0
  190.2580  176.3950  140.7250 S   0  0  0  0  0  0  0  0  0  0  0  0
  186.6370  176.7530  143.7620 C   0  0  0  0  0  1  0  0  0  0  0  0
  189.4580  177.4690  143.0750 C   0  0  0  0  0  0  0  0  0  0  0  0
  186.8830  178.0240  145.9200 C   0  0  0  0  0  0  0  0  0  0  0  0
  191.1380  177.7300  141.5000 C   0  0  0  0  0  0  0  0  0  0  0  0
  189.8490  178.0120  145.5140 C   0  0  0  0  0  0  0  0  0  0  0  0
  191.2340  179.0640  143.7350 C   0  0  0  0  0  2  0  0  0  0  0  0
  187.8600  177.5610  141.1780 C   0  0  0  0  0  1  0  0  0  0  0  0
  188.6570  177.5040  147.6070 C   0  0  0  0  0  3  0  0  0  0  0  0
  189.7810  177.4530  146.8900 C   0  0  0  0  0  0  0  0  0  0  0  0
  187.5550  177.4220  144.7340 C   0  0  0  0  0  0  0  0  0  0  0  0
  190.9710  178.6570  145.1540 C   0  0  0  0  0  3  0  0  0  0  0  0
  192.7690  176.9200  149.1760 C   0  0  0  0  0  0  0  0  0  0  0  0
  193.2800  175.7130  148.6920 C   0  0  0  0  0  3  0  0  0  0  0  0
  190.9830  176.8400  147.5210 C   0  0  0  0  0  0  0  0  0  0  0  0
  192.6550  175.0690  147.6220 C   0  0  0  0  0  3  0  0  0  0  0  0
  191.6300  177.4800  148.5920 C   0  0  0  0  0  3  0  0  0  0  0  0
  191.5150  175.6310  147.0390 C   0  0  0  0  0  3  0  0  0  0  0  0
  193.5530  177.7300  150.5130 Cl  0  0  0  0  0  0  0  0  0  0  0  0
  185.5280  178.6300  145.7420 C   0  0  0  0  0  2  0  0  0  0  0  0
  185.5040  179.4790  144.4860 C   0  0  0  0  0  2  0  0  0  0  0  0
  184.0720  179.6530  144.0200 C   0  0  0  0  0  2  0  0  0  0  0  0
  181.2220  179.0840  143.3400 C   0  0  0  0  0  1  0  0  0  0  0  0
  183.7930  178.7380  142.8370 C   0  0  1  0  0  3  0  0  0  0  0  0
  182.3320  178.7490  142.3970 C   0  0  0  0  0  0  0  0  0  0  0  0
  183.1020  178.0120  140.1630 C   0  0  0  0  0  2  0  0  0  0  0  0
  184.3700  178.7810  140.4320 C   0  0  0  0  0  3  0  0  0  0  0  0
  184.6950  179.1180  141.6880 C   0  0  0  0  0  3  0  0  0  0  0  0
  182.0220  178.4120  141.1350 C   0  0  0  0  0  3  0  0  0  0  0  0
  1  8  2  0  0  0  0
  1 12  1  0  0  0  0
  2 13  1  6  0  0  0
  2  8  1  0  0  0  0
  3 16  2  0  0  0  0
  3 11  1  0  0  0  0
  4 14  1  0  0  0  0
  5 10  2  0  0  0  0
  6 10  1  0  0  0  0
  6  2  1  0  0  0  0
  7 16  1  0  0  0  0
  8  3  1  0  0  0  0
  9  4  2  0  0  0  0
 10  1  1  0  0  0  0
 11 15  1  0  0  0  0
 12 17  1  0  0  0  0
 15 20  1  0  0  0  0
 15 14  2  0  0  0  0
 16  9  1  0  0  0  0
 17 11  2  0  0  0  0
 18 24  1  0  0  0  0
 19 18  1  0  0  0  0
 20 22  1  0  0  0  0
 21 19  2  0  0  0  0
 22 18  2  0  0  0  0
 23 20  2  0  0  0  0
 23 21  1  0  0  0  0
 25  9  1  0  0  0  0
 26 25  1  0  0  0  0
 27 26  1  0  0  0  0
 29 27  1  1  0  0  0
 30 29  1  0  0  0  0
 30 28  1  0  0  0  0
 31 32  1  0  0  0  0
 31 34  1  0  0  0  0
 32 33  2  0  0  0  0
 33 29  1  0  0  0  0
 34 30  2  0  0  0  0
M  END
>  <MODEL>
4

>  <REMARK>
 VINA RESULT:      -7.9      4.067      7.362
  Name = 
  5 active torsions:
  status: ('A' for Active; 'I' for Inactive)
    1  A    between atoms: C_3  and  C_13
    2  A    between atoms: C_3  and  C_17
    3  A    between atoms: C_12  and  C_28
    4  A    between atoms: C_17  and  C_29
    5  A    between atoms: C_18  and  C_29
                            x       y       z     vdW  Elec       q    Type
                         _______ _______ _______ _____ _____    ______ ____

>  <TORSDO>
F 5

$$$$
=
 OpenBabel10252414533D

 34 38  0  0  1  0  0  0  0  0999 V2000
  184.9540  176.5360  136.7560 C   0  0  0  0  0  0  0  0  0  0  0  0
  187.0100  177.6280  136.2780 C   0  0  1  0  0  3  0  0  0  0  0  0
  185.7450  177.8530  138.6610 C   0  0  0  0  0  0  0  0  0  0  0  0
  185.7620  178.7650  141.6510 C   0  0  0  0  0  3  0  0  0  0  0  0
  184.4980  175.3550  134.7360 O   0  0  0  0  0  0  0  0  0  0  0  0
  186.3860  177.2550  134.5940 S   0  0  0  0  0  0  0  0  0  0  0  0
  188.1090  178.6240  138.7910 C   0  0  0  0  0  1  0  0  0  0  0  0
  185.8900  177.3390  137.2520 C   0  0  0  0  0  0  0  0  0  0  0  0
  186.7680  178.3190  140.8990 C   0  0  0  0  0  0  0  0  0  0  0  0
  185.1310  176.2500  135.3520 C   0  0  0  0  0  0  0  0  0  0  0  0
  184.3540  177.7890  139.2100 C   0  0  0  0  0  0  0  0  0  0  0  0
  183.8800  175.9390  137.6160 C   0  0  0  0  0  2  0  0  0  0  0  0
  188.1770  176.6880  136.5390 C   0  0  0  0  0  1  0  0  0  0  0  0
  184.4630  179.2500  141.1880 C   0  0  0  0  0  3  0  0  0  0  0  0
  183.8170  178.8620  140.0870 C   0  0  0  0  0  0  0  0  0  0  0  0
  186.7870  178.2970  139.4100 C   0  0  2  0  0  3  0  0  0  0  0  0
  183.4810  176.9170  138.6800 C   0  0  0  0  0  2  0  0  0  0  0  0
  181.2180  181.0950  138.4450 C   0  0  0  0  0  0  0  0  0  0  0  0
  180.0790  180.8010  139.1980 C   0  0  0  0  0  3  0  0  0  0  0  0
  182.5170  179.5200  139.7730 C   0  0  0  0  0  0  0  0  0  0  0  0
  180.1520  179.8760  140.2420 C   0  0  0  0  0  3  0  0  0  0  0  0
  182.4280  180.4610  138.7320 C   0  0  0  0  0  3  0  0  0  0  0  0
  181.3640  179.2420  140.5280 C   0  0  0  0  0  3  0  0  0  0  0  0
  181.1290  182.2570  137.1400 Cl  0  0  0  0  0  0  0  0  0  0  0  0
  187.9890  177.8710  141.6360 C   0  0  0  0  0  2  0  0  0  0  0  0
  187.7320  177.9140  143.1300 C   0  0  0  0  0  2  0  0  0  0  0  0
  189.0270  177.6560  143.8740 C   0  0  0  0  0  2  0  0  0  0  0  0
  191.3430  177.0980  145.6740 C   0  0  0  0  0  1  0  0  0  0  0  0
  188.7330  177.1030  145.2610 C   0  0  1  0  0  3  0  0  0  0  0  0
  189.9410  177.1320  146.1910 C   0  0  0  0  0  0  0  0  0  0  0  0
  188.3530  177.1280  148.0910 C   0  0  0  0  0  2  0  0  0  0  0  0
  187.4010  177.8780  147.1950 C   0  0  0  0  0  3  0  0  0  0  0  0
  187.5780  177.8620  145.8660 C   0  0  0  0  0  3  0  0  0  0  0  0
  189.7480  177.1510  147.5200 C   0  0  0  0  0  3  0  0  0  0  0  0
  1  8  2  0  0  0  0
  1 12  1  0  0  0  0
  2 13  1  1  0  0  0
  2  8  1  0  0  0  0
  3 11  2  0  0  0  0
  3 16  1  0  0  0  0
  5 10  2  0  0  0  0
  6 10  1  0  0  0  0
  6  2  1  0  0  0  0
  8  3  1  0  0  0  0
  9 25  1  0  0  0  0
  9  4  2  0  0  0  0
 10  1  1  0  0  0  0
 11 15  1  0  0  0  0
 12 17  1  0  0  0  0
 14  4  1  0  0  0  0
 15 14  2  0  0  0  0
 16  7  1  1  0  0  0
 16  9  1  0  0  0  0
 17 11  1  0  0  0  0
 18 22  2  0  0  0  0
 18 19  1  0  0  0  0
 19 21  2  0  0  0  0
 20 15  1  0  0  0  0
 20 23  2  0  0  0  0
 21 23  1  0  0  0  0
 22 20  1  0  0  0  0
 24 18  1  0  0  0  0
 25 26  1  0  0  0  0
 26 27  1  0  0  0  0
 28 30  1  0  0  0  0
 29 27  1  6  0  0  0
 29 33  1  0  0  0  0
 29 30  1  0  0  0  0
 30 34  2  0  0  0  0
 32 31  1  0  0  0  0
 33 32  2  0  0  0  0
 34 31  1  0  0  0  0
M  END
>  <MODEL>
5

>  <REMARK>
 VINA RESULT:      -7.4      2.912      8.286
  Name = 
  5 active torsions:
  status: ('A' for Active; 'I' for Inactive)
    1  A    between atoms: C_3  and  C_13
    2  A    between atoms: C_3  and  C_17
    3  A    between atoms: C_12  and  C_28
    4  A    between atoms: C_17  and  C_29
    5  A    between atoms: C_18  and  C_29
                            x       y       z     vdW  Elec       q    Type
                         _______ _______ _______ _____ _____    ______ ____

>  <TORSDO>
F 5

$$$$
=
 OpenBabel10252414533D

 34 38  0  0  1  0  0  0  0  0999 V2000
  192.8170  176.0710  138.4930 C   0  0  0  0  0  0  0  0  0  0  0  0
  191.4980  174.5620  137.2160 C   0  0  1  0  0  3  0  0  0  0  0  0
  190.4230  176.4830  138.7900 C   0  0  0  0  0  0  0  0  0  0  0  0
  187.9360  178.1360  139.7180 C   0  0  0  0  0  3  0  0  0  0  0  0
  195.0450  175.4090  137.9610 O   0  0  0  0  0  0  0  0  0  0  0  0
  193.1060  173.6830  137.2860 S   0  0  0  0  0  0  0  0  0  0  0  0
  188.7560  175.5600  137.1890 C   0  0  0  0  0  1  0  0  0  0  0  0
  191.5730  175.7230  138.1800 C   0  0  0  0  0  0  0  0  0  0  0  0
  188.2110  177.6260  138.5170 C   0  0  0  0  0  0  0  0  0  0  0  0
  193.8110  175.1630  137.9710 C   0  0  0  0  0  0  0  0  0  0  0  0
  190.7680  177.2500  140.0300 C   0  0  0  0  0  0  0  0  0  0  0  0
  193.1270  177.3290  139.2460 C   0  0  0  0  0  2  0  0  0  0  0  0
  191.3350  175.0800  135.7940 C   0  0  0  0  0  1  0  0  0  0  0  0
  188.5650  177.7820  140.9910 C   0  0  0  0  0  3  0  0  0  0  0  0
  189.8150  177.3530  141.1660 C   0  0  0  0  0  0  0  0  0  0  0  0
  189.1790  176.5260  138.2480 C   0  0  0  0  0  0  0  0  0  0  0  0
  192.0450  177.6000  140.2480 C   0  0  0  0  0  3  0  0  0  0  0  0
  189.9850  177.2310  144.9600 C   0  0  0  0  0  0  0  0  0  0  0  0
  191.0710  176.3780  145.1660 C   0  0  0  0  0  3  0  0  0  0  0  0
  190.2440  177.0010  142.5500 C   0  0  0  0  0  0  0  0  0  0  0  0
  191.7510  175.8390  144.0720 C   0  0  0  0  0  3  0  0  0  0  0  0
  189.5760  177.5430  143.6620 C   0  0  0  0  0  3  0  0  0  0  0  0
  191.3410  176.1500  142.7720 C   0  0  0  0  0  3  0  0  0  0  0  0
  189.1340  177.9110  146.3300 Cl  0  0  0  0  0  0  0  0  0  0  0  0
  187.4220  178.1790  137.3750 C   0  0  0  0  0  2  0  0  0  0  0  0
  185.9760  178.3650  137.7920 C   0  0  0  0  0  2  0  0  0  0  0  0
  185.1640  177.1630  137.3540 C   0  0  0  0  0  2  0  0  0  0  0  0
  183.7160  174.5910  137.8080 C   0  0  0  0  0  1  0  0  0  0  0  0
  183.7660  177.2300  137.9530 C   0  0  1  0  0  3  0  0  0  0  0  0
  183.2410  175.8730  138.4120 C   0  0  0  0  0  0  0  0  0  0  0  0
  181.7420  177.0900  139.9620 C   0  0  0  0  0  2  0  0  0  0  0  0
  182.8120  178.1490  140.0410 C   0  0  0  0  0  3  0  0  0  0  0  0
  183.7590  178.2160  139.0950 C   0  0  0  0  0  3  0  0  0  0  0  0
  182.2940  175.8220  139.3640 C   0  0  0  0  0  3  0  0  0  0  0  0
  1 12  1  0  0  0  0
  2 13  1  6  0  0  0
  2  6  1  0  0  0  0
  2  8  1  0  0  0  0
  3 11  1  0  0  0  0
  4 14  1  0  0  0  0
  5 10  2  0  0  0  0
  6 10  1  0  0  0  0
  7 16  1  0  0  0  0
  8  1  2  0  0  0  0
  8  3  1  0  0  0  0
  9  4  2  0  0  0  0
 10  1  1  0  0  0  0
 11 17  2  0  0  0  0
 11 15  1  0  0  0  0
 12 17  1  0  0  0  0
 14 15  2  0  0  0  0
 15 20  1  0  0  0  0
 16  9  1  0  0  0  0
 16  3  2  0  0  0  0
 18 19  1  0  0  0  0
 18 24  1  0  0  0  0
 20 23  2  0  0  0  0
 20 22  1  0  0  0  0
 21 19  2  0  0  0  0
 22 18  2  0  0  0  0
 23 21  1  0  0  0  0
 25 26  1  0  0  0  0
 25  9  1  0  0  0  0
 27 26  1  0  0  0  0
 28 30  1  0  0  0  0
 29 27  1  1  0  0  0
 29 30  1  0  0  0  0
 29 33  1  0  0  0  0
 30 34  2  0  0  0  0
 31 32  1  0  0  0  0
 33 32  2  0  0  0  0
 34 31  1  0  0  0  0
M  END
>  <MODEL>
6

>  <REMARK>
 VINA RESULT:      -7.4      5.009      7.596
  Name = 
  5 active torsions:
  status: ('A' for Active; 'I' for Inactive)
    1  A    between atoms: C_3  and  C_13
    2  A    between atoms: C_3  and  C_17
    3  A    between atoms: C_12  and  C_28
    4  A    between atoms: C_17  and  C_29
    5  A    between atoms: C_18  and  C_29
                            x       y       z     vdW  Elec       q    Type
                         _______ _______ _______ _____ _____    ______ ____

>  <TORSDO>
F 5

$$$$
=
 OpenBabel10252414533D

 34 38  0  0  1  0  0  0  0  0999 V2000
  188.6480  177.5400  138.5260 C   0  0  0  0  0  0  0  0  0  0  0  0
  187.2330  176.1470  137.2190 C   0  0  1  0  0  3  0  0  0  0  0  0
  186.2860  177.8760  139.0740 C   0  0  0  0  0  0  0  0  0  0  0  0
  183.8770  179.3780  140.3830 C   0  0  0  0  0  3  0  0  0  0  0  0
  190.8250  176.9780  137.7350 O   0  0  0  0  0  0  0  0  0  0  0  0
  188.8500  175.2950  137.0560 S   0  0  0  0  0  0  0  0  0  0  0  0
  184.4910  177.0920  137.5360 C   0  0  0  0  0  1  0  0  0  0  0  0
  187.3840  177.2040  138.2890 C   0  0  0  0  0  0  0  0  0  0  0  0
  184.0480  179.0000  139.1160 C   0  0  0  0  0  0  0  0  0  0  0  0
  189.6000  176.7100  137.8270 C   0  0  0  0  0  0  0  0  0  0  0  0
  186.7330  178.5160  140.3510 C   0  0  0  0  0  0  0  0  0  0  0  0
  189.0120  178.7200  139.3760 C   0  0  0  0  0  2  0  0  0  0  0  0
  186.9400  176.8060  135.8790 C   0  0  0  0  0  1  0  0  0  0  0  0
  184.6190  178.9060  141.5520 C   0  0  0  0  0  3  0  0  0  0  0  0
  185.8840  178.4840  141.5710 C   0  0  0  0  0  0  0  0  0  0  0  0
  184.9980  177.9510  138.6500 C   0  0  0  0  0  0  0  0  0  0  0  0
  188.0210  178.8660  140.4920 C   0  0  0  0  0  3  0  0  0  0  0  0
  186.3600  177.9350  145.3010 C   0  0  0  0  0  0  0  0  0  0  0  0
  187.4980  177.1260  145.3230 C   0  0  0  0  0  3  0  0  0  0  0  0
  186.4370  178.0000  142.8680 C   0  0  0  0  0  0  0  0  0  0  0  0
  188.1140  176.7550  144.1250 C   0  0  0  0  0  3  0  0  0  0  0  0
  185.8360  178.3710  144.0820 C   0  0  0  0  0  3  0  0  0  0  0  0
  187.5880  177.1920  142.9060 C   0  0  0  0  0  3  0  0  0  0  0  0
  185.5890  178.4030  146.8000 Cl  0  0  0  0  0  0  0  0  0  0  0  0
  183.1550  179.6530  138.1110 C   0  0  0  0  0  2  0  0  0  0  0  0
  182.0000  180.3370  138.8170 C   0  0  0  0  0  2  0  0  0  0  0  0
  180.7070  179.6220  138.4810 C   0  0  0  0  0  2  0  0  0  0  0  0
  181.0170  176.7880  139.3700 C   0  0  0  0  0  1  0  0  0  0  0  0
  179.9970  179.1950  139.7580 C   0  0  1  0  0  3  0  0  0  0  0  0
  180.4530  177.8350  140.2760 C   0  0  0  0  0  0  0  0  0  0  0  0
  179.6950  178.5470  142.5230 C   0  0  0  0  0  2  0  0  0  0  0  0
  180.0530  179.9530  142.1130 C   0  0  0  0  0  3  0  0  0  0  0  0
  180.1910  180.2570  140.8140 C   0  0  0  0  0  3  0  0  0  0  0  0
  180.3120  177.5460  141.5800 C   0  0  0  0  0  3  0  0  0  0  0  0
  1 12  1  0  0  0  0
  2 13  1  6  0  0  0
  2  8  1  0  0  0  0
  3 11  1  0  0  0  0
  4 14  1  0  0  0  0
  5 10  2  0  0  0  0
  6  2  1  0  0  0  0
  6 10  1  0  0  0  0
  7 16  1  0  0  0  0
  8  1  2  0  0  0  0
  8  3  1  0  0  0  0
  9  4  2  0  0  0  0
 10  1  1  0  0  0  0
 11 17  2  0  0  0  0
 11 15  1  0  0  0  0
 12 17  1  0  0  0  0
 14 15  2  0  0  0  0
 15 20  1  0  0  0  0
 16  3  2  0  0  0  0
 16  9  1  0  0  0  0
 18 19  1  0  0  0  0
 18 24  1  0  0  0  0
 20 23  2  0  0  0  0
 20 22  1  0  0  0  0
 21 19  2  0  0  0  0
 22 18  2  0  0  0  0
 23 21  1  0  0  0  0
 25 26  1  0  0  0  0
 25  9  1  0  0  0  0
 27 26  1  0  0  0  0
 28 30  1  0  0  0  0
 29 27  1  6  0  0  0
 29 30  1  0  0  0  0
 29 33  1  0  0  0  0
 30 34  2  0  0  0  0
 32 31  1  0  0  0  0
 33 32  2  0  0  0  0
 34 31  1  0  0  0  0
M  END
>  <MODEL>
7

>  <REMARK>
 VINA RESULT:      -7.3      2.511      4.321
  Name = 
  5 active torsions:
  status: ('A' for Active; 'I' for Inactive)
    1  A    between atoms: C_3  and  C_13
    2  A    between atoms: C_3  and  C_17
    3  A    between atoms: C_12  and  C_28
    4  A    between atoms: C_17  and  C_29
    5  A    between atoms: C_18  and  C_29
                            x       y       z     vdW  Elec       q    Type
                         _______ _______ _______ _____ _____    ______ ____

>  <TORSDO>
F 5

$$$$
=
 OpenBabel10252414533D

 34 38  0  0  1  0  0  0  0  0999 V2000
  188.6790  177.4890  137.0280 C   0  0  0  0  0  0  0  0  0  0  0  0
  186.7720  176.2630  136.3140 C   0  0  1  0  0  3  0  0  0  0  0  0
  186.7740  177.8210  138.5280 C   0  0  0  0  0  0  0  0  0  0  0  0
  185.2080  179.2390  140.8330 C   0  0  0  0  0  3  0  0  0  0  0  0
  190.3030  176.9610  135.3640 O   0  0  0  0  0  0  0  0  0  0  0  0
  188.1250  175.3960  135.4290 S   0  0  0  0  0  0  0  0  0  0  0  0
  184.4630  177.2320  137.8120 C   0  0  0  0  0  1  0  0  0  0  0  0
  187.4110  177.2060  137.3080 C   0  0  0  0  0  0  0  0  0  0  0  0
  184.8230  178.9840  139.5820 C   0  0  0  0  0  0  0  0  0  0  0  0
  189.2090  176.7110  135.9330 C   0  0  0  0  0  0  0  0  0  0  0  0
  187.7430  178.3220  139.5540 C   0  0  0  0  0  0  0  0  0  0  0  0
  189.4300  178.5710  137.7430 C   0  0  0  0  0  2  0  0  0  0  0  0
  185.9960  177.0580  135.2740 C   0  0  0  0  0  1  0  0  0  0  0  0
  186.3340  178.6380  141.5480 C   0  0  0  0  0  3  0  0  0  0  0  0
  187.4680  178.1880  141.0080 C   0  0  0  0  0  0  0  0  0  0  0  0
  185.4320  177.9660  138.6830 C   0  0  0  0  0  0  0  0  0  0  0  0
  188.9950  178.6280  139.1770 C   0  0  0  0  0  3  0  0  0  0  0  0
  189.2690  177.0830  144.1670 C   0  0  0  0  0  0  0  0  0  0  0  0
  190.3870  176.4320  143.6400 C   0  0  0  0  0  3  0  0  0  0  0  0
  188.4730  177.5660  141.9160 C   0  0  0  0  0  0  0  0  0  0  0  0
  190.5580  176.3500  142.2560 C   0  0  0  0  0  3  0  0  0  0  0  0
  188.3210  177.6480  143.3110 C   0  0  0  0  0  3  0  0  0  0  0  0
  189.6080  176.9160  141.4000 C   0  0  0  0  0  3  0  0  0  0  0  0
  189.0540  177.1900  145.9000 Cl  0  0  0  0  0  0  0  0  0  0  0  0
  183.6380  179.7530  139.0930 C   0  0  0  0  0  2  0  0  0  0  0  0
  182.4170  179.3950  139.9190 C   0  0  0  0  0  2  0  0  0  0  0  0
  181.1770  179.4770  139.0500 C   0  0  0  0  0  2  0  0  0  0  0  0
  181.1300  178.5840  136.2020 C   0  0  0  0  0  1  0  0  0  0  0  0
  180.6550  178.0790  138.7520 C   0  0  1  0  0  3  0  0  0  0  0  0
  180.9450  177.6180  137.3270 C   0  0  0  0  0  0  0  0  0  0  0  0
  180.7630  175.2900  138.1500 C   0  0  0  0  0  2  0  0  0  0  0  0
  181.2860  175.7980  139.4680 C   0  0  0  0  0  3  0  0  0  0  0  0
  181.2310  177.1070  139.7520 C   0  0  0  0  0  3  0  0  0  0  0  0
  181.0010  176.3030  137.0590 C   0  0  0  0  0  3  0  0  0  0  0  0
  1  8  2  0  0  0  0
  1 12  1  0  0  0  0
  2 13  1  6  0  0  0
  2  8  1  0  0  0  0
  3 16  2  0  0  0  0
  3 11  1  0  0  0  0
  4 14  1  0  0  0  0
  5 10  2  0  0  0  0
  6 10  1  0  0  0  0
  6  2  1  0  0  0  0
  7 16  1  0  0  0  0
  8  3  1  0  0  0  0
  9  4  2  0  0  0  0
 10  1  1  0  0  0  0
 11 15  1  0  0  0  0
 12 17  1  0  0  0  0
 15 14  2  0  0  0  0
 15 20  1  0  0  0  0
 16  9  1  0  0  0  0
 17 11  2  0  0  0  0
 18 24  1  0  0  0  0
 19 18  1  0  0  0  0
 20 22  1  0  0  0  0
 21 19  2  0  0  0  0
 22 18  2  0  0  0  0
 23 20  2  0  0  0  0
 23 21  1  0  0  0  0
 25  9  1  0  0  0  0
 25 26  1  0  0  0  0
 27 26  1  0  0  0  0
 28 30  1  0  0  0  0
 29 27  1  1  0  0  0
 29 33  1  0  0  0  0
 30 29  1  0  0  0  0
 31 32  1  0  0  0  0
 32 33  2  0  0  0  0
 34 30  2  0  0  0  0
 34 31  1  0  0  0  0
M  END
>  <MODEL>
8

>  <REMARK>
 VINA RESULT:      -7.2      2.888      4.973
  Name = 
  5 active torsions:
  status: ('A' for Active; 'I' for Inactive)
    1  A    between atoms: C_3  and  C_13
    2  A    between atoms: C_3  and  C_17
    3  A    between atoms: C_12  and  C_28
    4  A    between atoms: C_17  and  C_29
    5  A    between atoms: C_18  and  C_29
                            x       y       z     vdW  Elec       q    Type
                         _______ _______ _______ _____ _____    ______ ____

>  <TORSDO>
F 5

$$$$
=
 OpenBabel10252414533D

 34 38  0  0  1  0  0  0  0  0999 V2000
  187.6640  177.9320  136.6350 C   0  0  0  0  0  0  0  0  0  0  0  0
  185.9870  177.4350  138.2440 C   0  0  1  0  0  3  0  0  0  0  0  0
  188.6300  177.4430  138.8300 C   0  0  0  0  0  0  0  0  0  0  0  0
  190.9250  177.3640  140.9510 C   0  0  0  0  0  3  0  0  0  0  0  0
  186.3950  178.3690  134.6640 O   0  0  0  0  0  0  0  0  0  0  0  0
  185.0850  177.1630  136.6700 S   0  0  0  0  0  0  0  0  0  0  0  0
  187.2260  177.4890  140.8850 C   0  0  0  0  0  1  0  0  0  0  0  0
  187.4500  177.6050  137.9050 C   0  0  0  0  0  0  0  0  0  0  0  0
  189.7050  177.8910  141.0470 C   0  0  0  0  0  0  0  0  0  0  0  0
  186.4680  177.8950  135.8270 C   0  0  0  0  0  0  0  0  0  0  0  0
  189.9390  177.2160  138.1390 C   0  0  0  0  0  0  0  0  0  0  0  0
  189.0100  178.3690  136.1400 C   0  0  0  0  0  2  0  0  0  0  0  0
  185.4450  178.7200  138.8520 C   0  0  0  0  0  1  0  0  0  0  0  0
  191.3950  176.4050  139.9500 C   0  0  0  0  0  3  0  0  0  0  0  0
  190.9570  176.2880  138.6960 C   0  0  0  0  0  0  0  0  0  0  0  0
  188.5440  177.5410  140.1810 C   0  0  2  0  0  3  0  0  0  0  0  0
  190.0850  177.6180  136.8660 C   0  0  0  0  0  2  0  0  0  0  0  0
  193.4870  174.1100  136.8790 C   0  0  0  0  0  0  0  0  0  0  0  0
  192.6540  173.1980  136.2270 C   0  0  0  0  0  3  0  0  0  0  0  0
  191.5420  175.2080  137.8520 C   0  0  0  0  0  0  0  0  0  0  0  0
  191.2690  173.2880  136.3760 C   0  0  0  0  0  3  0  0  0  0  0  0
  192.9340  175.1090  137.6840 C   0  0  0  0  0  3  0  0  0  0  0  0
  190.7160  174.2870  137.1820 C   0  0  0  0  0  3  0  0  0  0  0  0
  195.2230  174.0030  136.6910 Cl  0  0  0  0  0  0  0  0  0  0  0  0
  189.4970  178.8610  142.1650 C   0  0  0  0  0  2  0  0  0  0  0  0
  190.1910  178.3590  143.4160 C   0  0  0  0  0  2  0  0  0  0  0  0
  189.3070  177.3450  144.1140 C   0  0  0  0  0  2  0  0  0  0  0  0
  186.3890  177.8920  144.4330 C   0  0  0  0  0  1  0  0  0  0  0  0
  188.8280  177.8990  145.4490 C   0  0  1  0  0  3  0  0  0  0  0  0
  187.3120  177.8630  145.6080 C   0  0  0  0  0  0  0  0  0  0  0  0
  187.6690  177.8730  148.0580 C   0  0  0  0  0  2  0  0  0  0  0  0
  188.9520  177.1280  147.7960 C   0  0  0  0  0  3  0  0  0  0  0  0
  189.4980  177.1440  146.5710 C   0  0  0  0  0  3  0  0  0  0  0  0
  186.7800  177.8440  146.8410 C   0  0  0  0  0  3  0  0  0  0  0  0
  1  8  2  0  0  0  0
  2 13  1  6  0  0  0
  3 16  1  0  0  0  0
  4  9  2  0  0  0  0
  5 10  2  0  0  0  0
  6  2  1  0  0  0  0
  8  2  1  0  0  0  0
  8  3  1  0  0  0  0
  9 25  1  0  0  0  0
 10  1  1  0  0  0  0
 10  6  1  0  0  0  0
 11 15  1  0  0  0  0
 11  3  2  0  0  0  0
 12  1  1  0  0  0  0
 12 17  1  0  0  0  0
 14  4  1  0  0  0  0
 15 14  2  0  0  0  0
 16  7  1  6  0  0  0
 16  9  1  0  0  0  0
 17 11  1  0  0  0  0
 18 22  1  0  0  0  0
 19 21  1  0  0  0  0
 19 18  2  0  0  0  0
 20 15  1  0  0  0  0
 21 23  2  0  0  0  0
 22 20  2  0  0  0  0
 23 20  1  0  0  0  0
 24 18  1  0  0  0  0
 25 26  1  0  0  0  0
 26 27  1  0  0  0  0
 28 30  1  0  0  0  0
 29 27  1  6  0  0  0
 29 30  1  0  0  0  0
 29 33  1  0  0  0  0
 30 34  2  0  0  0  0
 32 31  1  0  0  0  0
 33 32  2  0  0  0  0
 34 31  1  0  0  0  0
M  END
>  <MODEL>
9

>  <REMARK>
 VINA RESULT:      -7.1      4.912      9.330
  Name = 
  5 active torsions:
  status: ('A' for Active; 'I' for Inactive)
    1  A    between atoms: C_3  and  C_13
    2  A    between atoms: C_3  and  C_17
    3  A    between atoms: C_12  and  C_28
    4  A    between atoms: C_17  and  C_29
    5  A    between atoms: C_18  and  C_29
                            x       y       z     vdW  Elec       q    Type
                         _______ _______ _______ _____ _____    ______ ____

>  <TORSDO>
F 5

$$$$
