=
 OpenBabel10262421043D

 32 35  0  0  1  0  0  0  0  0999 V2000
  181.3200  178.2380  139.4780 C   0  0  1  0  0  3  0  0  0  0  0  0
  179.9550  181.0640  140.3310 C   0  0  0  0  0  3  0  0  0  0  0  0
  180.6480  179.6220  135.1140 C   0  0  0  0  0  2  0  0  0  0  0  0
  180.2920  179.1380  138.7600 C   0  0  1  0  0  3  0  0  0  0  0  0
  180.7520  181.8930  135.7500 O   0  0  0  0  0  0  0  0  0  0  0  0
  180.7530  181.1190  136.8840 C   0  0  0  0  0  0  0  0  0  0  0  0
  180.3090  180.6170  139.1240 C   0  0  0  0  0  0  0  0  0  0  0  0
  180.4970  181.5660  138.0700 N   0  0  0  0  0  0  0  0  0  0  0  0
  180.9620  179.6850  136.6030 C   0  0  1  0  0  3  0  0  0  0  0  0
  180.8250  181.0630  134.6000 C   0  0  0  0  0  2  0  0  0  0  0  0
  180.1000  178.8710  137.3730 O   0  0  0  0  0  0  0  0  0  0  0  0
  179.5720  180.1810  141.4750 C   0  0  0  0  0  2  0  0  0  0  0  0
  179.9330  180.7720  142.6850 O   0  0  0  0  0  1  0  0  0  0  0  0
  180.7840  176.5230  139.4950 S   0  0  0  0  0  0  0  0  0  0  0  0
  179.2810  176.3870  140.4350 C   0  0  0  0  0  1  0  0  0  0  0  0
  181.8270  175.6490  140.1300 O   0  0  0  0  0  0  0  0  0  0  0  0
  180.5250  176.0510  138.0930 O   0  0  0  0  0  0  0  0  0  0  0  0
  183.0970  179.6350  138.5430 O   0  0  0  0  0  1  0  0  0  0  0  0
  182.8520  178.4790  139.2950 C   0  0  1  0  0  0  0  0  0  0  0  0
  185.3580  179.1890  142.1260 C   0  0  0  0  0  3  0  0  0  0  0  0
  183.1700  178.8610  143.0940 C   0  0  0  0  0  3  0  0  0  0  0  0
  183.4600  178.6860  140.6760 C   0  0  0  0  0  0  0  0  0  0  0  0
  184.5350  179.1170  143.2550 C   0  0  0  0  0  0  0  0  0  0  0  0
  182.6420  178.6460  141.8200 C   0  0  0  0  0  3  0  0  0  0  0  0
  184.8350  178.9730  140.8470 C   0  0  0  0  0  0  0  0  0  0  0  0
  185.6960  179.0470  139.7580 O   0  0  0  0  0  1  0  0  0  0  0  0
  185.0950  179.4000  144.6170 C   0  0  0  0  0  3  0  0  0  0  0  0
  185.6730  178.1340  145.2280 C   0  0  0  0  0  2  0  0  0  0  0  0
  184.3210  178.6360  145.6790 C   0  0  0  0  0  2  0  0  0  0  0  0
  183.5080  177.3280  138.6470 N   0  0  0  0  0  2  0  0  0  0  0  0
  183.7180  177.5490  137.2230 C   0  0  0  0  0  2  0  0  0  0  0  0
  185.1170  177.1140  136.8450 C   0  0  0  0  0  1  0  0  0  0  0  0
  1 14  1  6  0  0  0
  2 12  1  0  0  0  0
  4  7  1  0  0  0  0
  4  1  1  6  0  0  0
  5  6  1  0  0  0  0
  6  8  2  0  0  0  0
  7  2  2  0  0  0  0
  8  7  1  0  0  0  0
  9  3  1  6  0  0  0
  9  6  1  0  0  0  0
  9 11  1  0  0  0  0
 10  3  1  0  0  0  0
 10  5  1  0  0  0  0
 11  4  1  0  0  0  0
 12 13  1  0  0  0  0
 14 16  2  0  0  0  0
 14 15  1  0  0  0  0
 17 14  2  0  0  0  0
 19 18  1  6  0  0  0
 19  1  1  0  0  0  0
 19 22  1  0  0  0  0
 20 23  1  0  0  0  0
 21 23  2  0  0  0  0
 22 25  1  0  0  0  0
 22 24  2  0  0  0  0
 23 27  1  0  0  0  0
 24 21  1  0  0  0  0
 25 20  2  0  0  0  0
 26 25  1  0  0  0  0
 27 28  1  0  0  0  0
 27 29  1  0  0  0  0
 28 29  1  0  0  0  0
 30 19  1  0  0  0  0
 31 30  1  0  0  0  0
 32 31  1  0  0  0  0
M  END
>  <MODEL>
1

>  <REMARK>
 VINA RESULT:      -6.3      0.000      0.000
  Name = 
  8 active torsions:
  status: ('A' for Active; 'I' for Inactive)
    1  A    between atoms: N_1  and  C_4
    2  A    between atoms: N_1  and  C_27
    3  A    between atoms: S_2  and  C_5
    4  A    between atoms: C_5  and  C_10
    5  A    between atoms: C_5  and  C_27
    6  A    between atoms: C_6  and  C_25
    7  A    between atoms: C_7  and  C_19
    8  A    between atoms: C_16  and  C_27
                            x       y       z     vdW  Elec       q    Type
                         _______ _______ _______ _____ _____    ______ ____

>  <TORSDO>
F 8

$$$$
=
 OpenBabel10262421043D

 32 35  0  0  1  0  0  0  0  0999 V2000
  181.9900  178.8370  139.1230 C   0  0  1  0  0  3  0  0  0  0  0  0
  184.6830  177.5210  137.8600 C   0  0  0  0  0  3  0  0  0  0  0  0
  179.7340  176.6230  135.7440 C   0  0  0  0  0  2  0  0  0  0  0  0
  182.3360  178.3870  137.6870 C   0  0  1  0  0  3  0  0  0  0  0  0
  181.4010  174.9550  135.6370 O   0  0  0  0  0  0  0  0  0  0  0  0
  181.8280  175.9500  136.4800 C   0  0  0  0  0  0  0  0  0  0  0  0
  183.4030  177.3090  137.5490 C   0  0  0  0  0  0  0  0  0  0  0  0
  183.0560  176.1060  136.8560 N   0  0  0  0  0  0  0  0  0  0  0  0
  180.7610  176.9060  136.8320 C   0  0  1  0  0  3  0  0  0  0  0  0
  180.0630  175.2080  135.2330 C   0  0  0  0  0  2  0  0  0  0  0  0
  181.2270  178.2410  136.8030 O   0  0  0  0  0  0  0  0  0  0  0  0
  185.2070  178.7980  138.4380 C   0  0  0  0  0  2  0  0  0  0  0  0
  186.5100  178.6210  138.8990 O   0  0  0  0  0  1  0  0  0  0  0  0
  180.8530  180.2280  139.1130 S   0  0  0  0  0  0  0  0  0  0  0  0
  181.4970  181.5060  138.0590 C   0  0  0  0  0  1  0  0  0  0  0  0
  180.6870  180.7860  140.4970 O   0  0  0  0  0  0  0  0  0  0  0  0
  179.5140  179.7940  138.5880 O   0  0  0  0  0  0  0  0  0  0  0  0
  182.2380  176.5200  139.8660 O   0  0  0  0  0  1  0  0  0  0  0  0
  181.7820  177.7850  140.2580 C   0  0  1  0  0  0  0  0  0  0  0  0
  182.7850  178.9800  143.7730 C   0  0  0  0  0  3  0  0  0  0  0  0
  184.7920  178.5760  142.4920 C   0  0  0  0  0  3  0  0  0  0  0  0
  182.6080  178.2250  141.4600 C   0  0  0  0  0  0  0  0  0  0  0  0
  184.1820  178.9820  143.6830 C   0  0  0  0  0  0  0  0  0  0  0  0
  184.0130  178.2060  141.3950 C   0  0  0  0  0  3  0  0  0  0  0  0
  182.0000  178.6110  142.6770 C   0  0  0  0  0  0  0  0  0  0  0  0
  180.6160  178.6340  142.8160 O   0  0  0  0  0  1  0  0  0  0  0  0
  185.0160  179.3310  144.8780 C   0  0  0  0  0  3  0  0  0  0  0  0
  185.7840  178.1130  145.3650 C   0  0  0  0  0  2  0  0  0  0  0  0
  184.5420  178.5600  146.1000 C   0  0  0  0  0  2  0  0  0  0  0  0
  180.3650  177.6900  140.6560 N   0  0  0  0  0  2  0  0  0  0  0  0
  179.6960  176.5590  140.0280 C   0  0  0  0  0  2  0  0  0  0  0  0
  179.2350  175.5900  141.0950 C   0  0  0  0  0  1  0  0  0  0  0  0
  1 14  1  6  0  0  0
  1 19  1  0  0  0  0
  2 12  1  0  0  0  0
  4  1  1  1  0  0  0
  5  6  1  0  0  0  0
  6  9  1  0  0  0  0
  6  8  2  0  0  0  0
  7  4  1  0  0  0  0
  7  2  2  0  0  0  0
  8  7  1  0  0  0  0
  9  3  1  6  0  0  0
 10  5  1  0  0  0  0
 10  3  1  0  0  0  0
 11  9  1  0  0  0  0
 11  4  1  0  0  0  0
 12 13  1  0  0  0  0
 14 16  2  0  0  0  0
 15 14  1  0  0  0  0
 17 14  2  0  0  0  0
 19 18  1  6  0  0  0
 19 30  1  0  0  0  0
 19 22  1  0  0  0  0
 21 23  2  0  0  0  0
 22 25  1  0  0  0  0
 23 20  1  0  0  0  0
 23 27  1  0  0  0  0
 24 22  2  0  0  0  0
 24 21  1  0  0  0  0
 25 26  1  0  0  0  0
 25 20  2  0  0  0  0
 27 28  1  0  0  0  0
 27 29  1  0  0  0  0
 28 29  1  0  0  0  0
 31 30  1  0  0  0  0
 31 32  1  0  0  0  0
M  END
>  <MODEL>
2

>  <REMARK>
 VINA RESULT:      -5.0      2.102      4.373
  Name = 
  8 active torsions:
  status: ('A' for Active; 'I' for Inactive)
    1  A    between atoms: N_1  and  C_4
    2  A    between atoms: N_1  and  C_27
    3  A    between atoms: S_2  and  C_5
    4  A    between atoms: C_5  and  C_10
    5  A    between atoms: C_5  and  C_27
    6  A    between atoms: C_6  and  C_25
    7  A    between atoms: C_7  and  C_19
    8  A    between atoms: C_16  and  C_27
                            x       y       z     vdW  Elec       q    Type
                         _______ _______ _______ _____ _____    ______ ____

>  <TORSDO>
F 8

$$$$
=
 OpenBabel10262421043D

 32 35  0  0  1  0  0  0  0  0999 V2000
  181.4140  178.1060  138.9410 C   0  0  1  0  0  3  0  0  0  0  0  0
  179.2640  175.7560  139.5960 C   0  0  0  0  0  3  0  0  0  0  0  0
  179.9650  180.0590  142.8780 C   0  0  0  0  0  2  0  0  0  0  0  0
  180.0900  178.1190  139.7350 C   0  0  1  0  0  3  0  0  0  0  0  0
  179.3610  177.9590  143.7730 O   0  0  0  0  0  0  0  0  0  0  0  0
  179.7120  177.7910  142.4560 C   0  0  0  0  0  0  0  0  0  0  0  0
  179.6450  176.7950  140.3410 C   0  0  0  0  0  0  0  0  0  0  0  0
  179.4210  176.7450  141.7530 N   0  0  0  0  0  0  0  0  0  0  0  0
  180.3610  178.9830  141.8750 C   0  0  1  0  0  3  0  0  0  0  0  0
  179.6110  179.2980  144.1700 C   0  0  0  0  0  2  0  0  0  0  0  0
  179.8840  179.2540  140.5730 O   0  0  0  0  0  0  0  0  0  0  0  0
  179.2910  175.7390  138.1010 C   0  0  0  0  0  2  0  0  0  0  0  0
  179.1590  174.4340  137.6290 O   0  0  0  0  0  1  0  0  0  0  0  0
  181.4400  179.4010  137.6960 S   0  0  0  0  0  0  0  0  0  0  0  0
  179.7760  179.9380  137.3720 C   0  0  0  0  0  1  0  0  0  0  0  0
  182.0380  178.8940  136.4160 O   0  0  0  0  0  0  0  0  0  0  0  0
  182.2400  180.5730  138.1890 O   0  0  0  0  0  0  0  0  0  0  0  0
  182.6490  176.7400  140.5510 O   0  0  0  0  0  1  0  0  0  0  0  0
  182.7690  177.8150  139.6600 C   0  0  1  0  0  0  0  0  0  0  0  0
  184.5930  175.9160  136.8570 C   0  0  0  0  0  3  0  0  0  0  0  0
  185.7910  177.9640  137.3100 C   0  0  0  0  0  3  0  0  0  0  0  0
  183.7880  177.4250  138.5970 C   0  0  0  0  0  0  0  0  0  0  0  0
  185.6720  176.7690  136.5940 C   0  0  0  0  0  0  0  0  0  0  0  0
  184.8610  178.2840  138.3000 C   0  0  0  0  0  3  0  0  0  0  0  0
  183.6600  176.2310  137.8490 C   0  0  0  0  0  0  0  0  0  0  0  0
  182.6110  175.3470  138.0770 O   0  0  0  0  0  1  0  0  0  0  0  0
  186.6390  176.4470  135.4950 C   0  0  0  0  0  3  0  0  0  0  0  0
  187.9440  175.9230  136.0710 C   0  0  0  0  0  2  0  0  0  0  0  0
  187.8590  177.3490  135.5800 C   0  0  0  0  0  2  0  0  0  0  0  0
  183.2610  178.9990  140.3890 N   0  0  0  0  0  2  0  0  0  0  0  0
  183.7670  178.6550  141.7120 C   0  0  0  0  0  2  0  0  0  0  0  0
  185.2230  179.0540  141.8140 C   0  0  0  0  0  1  0  0  0  0  0  0
  1 14  1  1  0  0  0
  1 19  1  0  0  0  0
  2  7  2  0  0  0  0
  3 10  1  0  0  0  0
  4  1  1  1  0  0  0
  4  7  1  0  0  0  0
  4 11  1  0  0  0  0
  5 10  1  0  0  0  0
  6  5  1  0  0  0  0
  7  8  1  0  0  0  0
  8  6  2  0  0  0  0
  9  6  1  0  0  0  0
  9  3  1  1  0  0  0
 11  9  1  0  0  0  0
 12  2  1  0  0  0  0
 13 12  1  0  0  0  0
 14 17  2  0  0  0  0
 15 14  1  0  0  0  0
 16 14  2  0  0  0  0
 19 30  1  0  0  0  0
 19 18  1  1  0  0  0
 20 25  1  0  0  0  0
 21 24  2  0  0  0  0
 22 19  1  0  0  0  0
 23 20  2  0  0  0  0
 23 21  1  0  0  0  0
 24 22  1  0  0  0  0
 25 26  1  0  0  0  0
 25 22  2  0  0  0  0
 27 29  1  0  0  0  0
 27 28  1  0  0  0  0
 27 23  1  0  0  0  0
 29 28  1  0  0  0  0
 30 31  1  0  0  0  0
 31 32  1  0  0  0  0
M  END
>  <MODEL>
3

>  <REMARK>
 VINA RESULT:      -4.6      2.283      6.018
  Name = 
  8 active torsions:
  status: ('A' for Active; 'I' for Inactive)
    1  A    between atoms: N_1  and  C_4
    2  A    between atoms: N_1  and  C_27
    3  A    between atoms: S_2  and  C_5
    4  A    between atoms: C_5  and  C_10
    5  A    between atoms: C_5  and  C_27
    6  A    between atoms: C_6  and  C_25
    7  A    between atoms: C_7  and  C_19
    8  A    between atoms: C_16  and  C_27
                            x       y       z     vdW  Elec       q    Type
                         _______ _______ _______ _____ _____    ______ ____

>  <TORSDO>
F 8

$$$$
=
 OpenBabel10262421043D

 32 35  0  0  1  0  0  0  0  0999 V2000
  188.0140  177.2680  137.5930 C   0  0  1  0  0  3  0  0  0  0  0  0
  186.3360  178.2900  140.1850 C   0  0  0  0  0  3  0  0  0  0  0  0
  191.7460  177.5850  140.3100 C   0  0  0  0  0  2  0  0  0  0  0  0
  188.4200  178.1430  138.7980 C   0  0  1  0  0  3  0  0  0  0  0  0
  190.4470  177.2140  142.2460 O   0  0  0  0  0  0  0  0  0  0  0  0
  189.6040  177.3580  141.1720 C   0  0  0  0  0  0  0  0  0  0  0  0
  187.6220  177.9500  140.0810 C   0  0  0  0  0  0  0  0  0  0  0  0
  188.3380  177.6000  141.2700 N   0  0  0  0  0  0  0  0  0  0  0  0
  190.3090  177.3240  139.8760 C   0  0  1  0  0  3  0  0  0  0  0  0
  191.7950  177.2030  141.8020 C   0  0  0  0  0  2  0  0  0  0  0  0
  189.8230  178.3130  138.9920 O   0  0  0  0  0  0  0  0  0  0  0  0
  185.5150  178.8280  139.0570 C   0  0  0  0  0  2  0  0  0  0  0  0
  184.6810  179.8490  139.5090 O   0  0  0  0  0  1  0  0  0  0  0  0
  187.8150  178.2590  136.1070 S   0  0  0  0  0  0  0  0  0  0  0  0
  186.4760  177.6030  135.1390 C   0  0  0  0  0  1  0  0  0  0  0  0
  189.0660  178.2270  135.2780 O   0  0  0  0  0  0  0  0  0  0  0  0
  187.4980  179.6800  136.4750 O   0  0  0  0  0  0  0  0  0  0  0  0
  189.3910  175.4670  138.5110 O   0  0  0  0  0  1  0  0  0  0  0  0
  188.6330  175.8480  137.3970 C   0  0  1  0  0  0  0  0  0  0  0  0
  186.6490  172.5850  136.9340 C   0  0  0  0  0  3  0  0  0  0  0  0
  185.0890  174.3930  137.2990 C   0  0  0  0  0  3  0  0  0  0  0  0
  187.4870  174.8550  137.2540 C   0  0  0  0  0  0  0  0  0  0  0  0
  185.3300  173.0390  137.0500 C   0  0  0  0  0  0  0  0  0  0  0  0
  186.1560  175.2880  137.3960 C   0  0  0  0  0  3  0  0  0  0  0  0
  187.7210  173.4780  137.0290 C   0  0  0  0  0  0  0  0  0  0  0  0
  189.0120  172.9790  136.8980 O   0  0  0  0  0  1  0  0  0  0  0  0
  184.1900  172.0670  136.9960 C   0  0  0  0  0  3  0  0  0  0  0  0
  183.5190  172.1080  135.6330 C   0  0  0  0  0  2  0  0  0  0  0  0
  182.8730  172.8020  136.8100 C   0  0  0  0  0  2  0  0  0  0  0  0
  189.4770  175.7870  136.1890 N   0  0  0  0  0  2  0  0  0  0  0  0
  190.8970  175.7710  136.5150 C   0  0  0  0  0  2  0  0  0  0  0  0
  191.6620  175.0910  135.4010 C   0  0  0  0  0  1  0  0  0  0  0  0
  1 14  1  6  0  0  0
  3 10  1  0  0  0  0
  4  1  1  6  0  0  0
  4 11  1  0  0  0  0
  4  7  1  0  0  0  0
  6  8  2  0  0  0  0
  6  5  1  0  0  0  0
  7  2  2  0  0  0  0
  7  8  1  0  0  0  0
  9  3  1  1  0  0  0
  9  6  1  0  0  0  0
 10  5  1  0  0  0  0
 11  9  1  0  0  0  0
 12 13  1  0  0  0  0
 12  2  1  0  0  0  0
 14 17  2  0  0  0  0
 15 14  1  0  0  0  0
 16 14  2  0  0  0  0
 19  1  1  0  0  0  0
 19 18  1  1  0  0  0
 20 25  2  0  0  0  0
 20 23  1  0  0  0  0
 21 24  1  0  0  0  0
 22 24  2  0  0  0  0
 22 19  1  0  0  0  0
 23 21  2  0  0  0  0
 25 22  1  0  0  0  0
 26 25  1  0  0  0  0
 27 23  1  0  0  0  0
 28 29  1  0  0  0  0
 28 27  1  0  0  0  0
 29 27  1  0  0  0  0
 30 31  1  0  0  0  0
 30 19  1  0  0  0  0
 32 31  1  0  0  0  0
M  END
>  <MODEL>
4

>  <REMARK>
 VINA RESULT:      -4.2      5.138      8.846
  Name = 
  8 active torsions:
  status: ('A' for Active; 'I' for Inactive)
    1  A    between atoms: N_1  and  C_4
    2  A    between atoms: N_1  and  C_27
    3  A    between atoms: S_2  and  C_5
    4  A    between atoms: C_5  and  C_10
    5  A    between atoms: C_5  and  C_27
    6  A    between atoms: C_6  and  C_25
    7  A    between atoms: C_7  and  C_19
    8  A    between atoms: C_16  and  C_27
                            x       y       z     vdW  Elec       q    Type
                         _______ _______ _______ _____ _____    ______ ____

>  <TORSDO>
F 8

$$$$
=
 OpenBabel10262421043D

 32 35  0  0  1  0  0  0  0  0999 V2000
  188.2810  176.5750  136.8710 C   0  0  1  0  0  3  0  0  0  0  0  0
  189.2350  173.4700  137.0390 C   0  0  0  0  0  3  0  0  0  0  0  0
  184.0990  174.8800  135.8480 C   0  0  0  0  0  2  0  0  0  0  0  0
  187.7560  175.3010  136.1740 C   0  0  1  0  0  3  0  0  0  0  0  0
  184.5480  172.8850  137.0290 O   0  0  0  0  0  0  0  0  0  0  0  0
  185.7000  173.6290  136.9690 C   0  0  0  0  0  0  0  0  0  0  0  0
  188.0110  173.9800  136.8860 C   0  0  0  0  0  0  0  0  0  0  0  0
  186.8820  173.1600  137.2030 N   0  0  0  0  0  0  0  0  0  0  0  0
  185.4730  175.0080  136.4940 C   0  0  1  0  0  3  0  0  0  0  0  0
  183.4670  173.6270  136.4840 C   0  0  0  0  0  2  0  0  0  0  0  0
  186.4670  175.4140  135.5750 O   0  0  0  0  0  0  0  0  0  0  0  0
  190.4900  174.1530  136.5980 C   0  0  0  0  0  2  0  0  0  0  0  0
  191.4480  174.1040  137.6100 O   0  0  0  0  0  1  0  0  0  0  0  0
  188.8060  177.8050  135.6710 S   0  0  0  0  0  0  0  0  0  0  0  0
  190.0270  177.0920  134.5940 C   0  0  0  0  0  1  0  0  0  0  0  0
  189.4100  178.9940  136.3600 O   0  0  0  0  0  0  0  0  0  0  0  0
  187.6320  178.2510  134.8460 O   0  0  0  0  0  0  0  0  0  0  0  0
  186.6150  176.2280  138.6270 O   0  0  0  0  0  1  0  0  0  0  0  0
  187.5870  177.1210  138.1590 C   0  0  1  0  0  0  0  0  0  0  0  0
  189.3550  177.9440  141.4740 C   0  0  0  0  0  3  0  0  0  0  0  0
  190.9230  176.8230  140.0190 C   0  0  0  0  0  3  0  0  0  0  0  0
  188.6500  177.2590  139.2400 C   0  0  0  0  0  0  0  0  0  0  0  0
  190.6410  177.4440  141.2390 C   0  0  0  0  0  0  0  0  0  0  0  0
  189.9400  176.7360  139.0320 C   0  0  0  0  0  3  0  0  0  0  0  0
  188.3660  177.8600  140.4890 C   0  0  0  0  0  0  0  0  0  0  0  0
  187.1070  178.3800  140.7680 O   0  0  0  0  0  1  0  0  0  0  0  0
  191.6790  177.4940  142.3200 C   0  0  0  0  0  3  0  0  0  0  0  0
  191.3930  176.4420  143.3800 C   0  0  0  0  0  2  0  0  0  0  0  0
  191.0480  177.8890  143.6450 C   0  0  0  0  0  2  0  0  0  0  0  0
  186.9660  178.4380  137.9220 N   0  0  0  0  0  2  0  0  0  0  0  0
  185.5440  178.3260  137.6250 C   0  0  0  0  0  2  0  0  0  0  0  0
  184.7460  179.0080  138.7150 C   0  0  0  0  0  1  0  0  0  0  0  0
  1 14  1  6  0  0  0
  1 19  1  0  0  0  0
  3 10  1  0  0  0  0
  4  1  1  1  0  0  0
  4  7  1  0  0  0  0
  6  5  1  0  0  0  0
  6  8  2  0  0  0  0
  7  2  2  0  0  0  0
  7  8  1  0  0  0  0
  9  3  1  6  0  0  0
  9  6  1  0  0  0  0
 10  5  1  0  0  0  0
 11  4  1  0  0  0  0
 11  9  1  0  0  0  0
 12  2  1  0  0  0  0
 12 13  1  0  0  0  0
 14 16  2  0  0  0  0
 15 14  1  0  0  0  0
 17 14  2  0  0  0  0
 19 18  1  1  0  0  0
 19 22  1  0  0  0  0
 21 23  2  0  0  0  0
 22 25  1  0  0  0  0
 23 20  1  0  0  0  0
 23 27  1  0  0  0  0
 24 22  2  0  0  0  0
 24 21  1  0  0  0  0
 25 26  1  0  0  0  0
 25 20  2  0  0  0  0
 27 28  1  0  0  0  0
 27 29  1  0  0  0  0
 28 29  1  0  0  0  0
 30 19  1  0  0  0  0
 31 30  1  0  0  0  0
 31 32  1  0  0  0  0
M  END
>  <MODEL>
5

>  <REMARK>
 VINA RESULT:      -4.2      5.178      8.126
  Name = 
  8 active torsions:
  status: ('A' for Active; 'I' for Inactive)
    1  A    between atoms: N_1  and  C_4
    2  A    between atoms: N_1  and  C_27
    3  A    between atoms: S_2  and  C_5
    4  A    between atoms: C_5  and  C_10
    5  A    between atoms: C_5  and  C_27
    6  A    between atoms: C_6  and  C_25
    7  A    between atoms: C_7  and  C_19
    8  A    between atoms: C_16  and  C_27
                            x       y       z     vdW  Elec       q    Type
                         _______ _______ _______ _____ _____    ______ ____

>  <TORSDO>
F 8

$$$$
=
 OpenBabel10262421043D

 32 35  0  0  1  0  0  0  0  0999 V2000
  182.3460  178.4460  138.0440 C   0  0  1  0  0  3  0  0  0  0  0  0
  181.0550  176.5770  135.7160 C   0  0  0  0  0  3  0  0  0  0  0  0
  179.6080  176.1190  140.9580 C   0  0  0  0  0  2  0  0  0  0  0  0
  180.9750  177.7440  137.9350 C   0  0  1  0  0  3  0  0  0  0  0  0
  179.6080  174.2250  139.5480 O   0  0  0  0  0  0  0  0  0  0  0  0
  180.2330  175.2590  138.8960 C   0  0  0  0  0  0  0  0  0  0  0  0
  180.9090  176.5130  137.0420 C   0  0  0  0  0  0  0  0  0  0  0  0
  180.4570  175.2860  137.6230 N   0  0  0  0  0  0  0  0  0  0  0  0
  180.5300  176.4030  139.7800 C   0  0  1  0  0  3  0  0  0  0  0  0
  179.3030  174.6110  140.8800 C   0  0  0  0  0  2  0  0  0  0  0  0
  180.2400  177.6350  139.1510 O   0  0  0  0  0  0  0  0  0  0  0  0
  181.3640  177.8330  134.9650 C   0  0  0  0  0  2  0  0  0  0  0  0
  182.7070  177.8560  134.5940 O   0  0  0  0  0  1  0  0  0  0  0  0
  182.1680  180.1360  138.6270 S   0  0  0  0  0  0  0  0  0  0  0  0
  181.1630  181.0500  137.4810 C   0  0  0  0  0  1  0  0  0  0  0  0
  183.5090  180.8050  138.7290 O   0  0  0  0  0  0  0  0  0  0  0  0
  181.5030  180.1480  139.9740 O   0  0  0  0  0  0  0  0  0  0  0  0
  184.7310  177.9630  137.7870 O   0  0  0  0  0  1  0  0  0  0  0  0
  183.5990  177.6680  138.5580 C   0  0  1  0  0  0  0  0  0  0  0  0
  185.3000  179.2020  141.6470 C   0  0  0  0  0  3  0  0  0  0  0  0
  183.1220  178.3830  142.2910 C   0  0  0  0  0  3  0  0  0  0  0  0
  183.8780  178.1210  139.9840 C   0  0  0  0  0  0  0  0  0  0  0  0
  184.3300  178.9970  142.6340 C   0  0  0  0  0  0  0  0  0  0  0  0
  182.9020  177.9490  140.9830 C   0  0  0  0  0  3  0  0  0  0  0  0
  185.0860  178.7690  140.3350 C   0  0  0  0  0  0  0  0  0  0  0  0
  186.0850  178.9890  139.3930 O   0  0  0  0  0  1  0  0  0  0  0  0
  184.5490  179.5100  144.0250 C   0  0  0  0  0  3  0  0  0  0  0  0
  185.3070  178.4880  144.8570 C   0  0  0  0  0  2  0  0  0  0  0  0
  183.8140  178.6420  145.0340 C   0  0  0  0  0  2  0  0  0  0  0  0
  183.3710  176.2100  138.5510 N   0  0  0  0  0  2  0  0  0  0  0  0
  184.2320  175.5280  137.5940 C   0  0  0  0  0  2  0  0  0  0  0  0
  183.9120  174.0480  137.5940 C   0  0  0  0  0  1  0  0  0  0  0  0
  1 19  1  0  0  0  0
  1 14  1  1  0  0  0
  2  7  2  0  0  0  0
  4  1  1  1  0  0  0
  4 11  1  0  0  0  0
  5 10  1  0  0  0  0
  6  5  1  0  0  0  0
  6  9  1  0  0  0  0
  7  8  1  0  0  0  0
  7  4  1  0  0  0  0
  8  6  2  0  0  0  0
  9  3  1  1  0  0  0
 10  3  1  0  0  0  0
 11  9  1  0  0  0  0
 12  2  1  0  0  0  0
 13 12  1  0  0  0  0
 14 16  2  0  0  0  0
 14 17  2  0  0  0  0
 15 14  1  0  0  0  0
 19 18  1  6  0  0  0
 19 22  1  0  0  0  0
 20 23  1  0  0  0  0
 21 23  2  0  0  0  0
 22 25  1  0  0  0  0
 22 24  2  0  0  0  0
 23 27  1  0  0  0  0
 24 21  1  0  0  0  0
 25 20  2  0  0  0  0
 26 25  1  0  0  0  0
 27 28  1  0  0  0  0
 27 29  1  0  0  0  0
 28 29  1  0  0  0  0
 30 19  1  0  0  0  0
 31 30  1  0  0  0  0
 32 31  1  0  0  0  0
M  END
>  <MODEL>
6

>  <REMARK>
 VINA RESULT:      -4.0      2.258      4.494
  Name = 
  8 active torsions:
  status: ('A' for Active; 'I' for Inactive)
    1  A    between atoms: N_1  and  C_4
    2  A    between atoms: N_1  and  C_27
    3  A    between atoms: S_2  and  C_5
    4  A    between atoms: C_5  and  C_10
    5  A    between atoms: C_5  and  C_27
    6  A    between atoms: C_6  and  C_25
    7  A    between atoms: C_7  and  C_19
    8  A    between atoms: C_16  and  C_27
                            x       y       z     vdW  Elec       q    Type
                         _______ _______ _______ _____ _____    ______ ____

>  <TORSDO>
F 8

$$$$
=
 OpenBabel10262421043D

 32 35  0  0  1  0  0  0  0  0999 V2000
  181.6200  178.3090  138.6120 C   0  0  1  0  0  3  0  0  0  0  0  0
  181.1300  176.3770  136.0410 C   0  0  0  0  0  3  0  0  0  0  0  0
  178.9910  175.3000  140.9450 C   0  0  0  0  0  2  0  0  0  0  0  0
  180.4590  177.3580  138.2500 C   0  0  1  0  0  3  0  0  0  0  0  0
  179.6080  173.5400  139.4970 O   0  0  0  0  0  0  0  0  0  0  0  0
  180.1020  174.7170  138.9930 C   0  0  0  0  0  0  0  0  0  0  0  0
  180.7910  176.1990  137.3200 C   0  0  0  0  0  0  0  0  0  0  0  0
  180.5150  174.8720  137.7780 N   0  0  0  0  0  0  0  0  0  0  0  0
  180.0110  175.8380  139.9490 C   0  0  1  0  0  3  0  0  0  0  0  0
  179.0200  173.7700  140.7690 C   0  0  0  0  0  2  0  0  0  0  0  0
  179.5770  177.0270  139.3200 O   0  0  0  0  0  0  0  0  0  0  0  0
  181.2900  177.7160  135.3940 C   0  0  0  0  0  2  0  0  0  0  0  0
  180.0800  178.1330  134.8410 O   0  0  0  0  0  1  0  0  0  0  0  0
  181.0210  179.9680  138.9530 S   0  0  0  0  0  0  0  0  0  0  0  0
  179.6580  180.3350  137.8720 C   0  0  0  0  0  1  0  0  0  0  0  0
  182.1040  180.9810  138.7180 O   0  0  0  0  0  0  0  0  0  0  0  0
  180.5510  180.0630  140.3770 O   0  0  0  0  0  0  0  0  0  0  0  0
  182.5120  176.5860  140.1020 O   0  0  0  0  0  1  0  0  0  0  0  0
  182.8100  177.8110  139.4930 C   0  0  1  0  0  0  0  0  0  0  0  0
  186.1390  178.3240  137.6360 C   0  0  0  0  0  3  0  0  0  0  0  0
  185.2500  176.1580  137.0440 C   0  0  0  0  0  3  0  0  0  0  0  0
  184.0090  177.5960  138.5780 C   0  0  0  0  0  0  0  0  0  0  0  0
  186.2450  177.1320  136.9110 C   0  0  0  0  0  0  0  0  0  0  0  0
  184.1460  176.3910  137.8650 C   0  0  0  0  0  3  0  0  0  0  0  0
  185.0340  178.5640  138.4590 C   0  0  0  0  0  0  0  0  0  0  0  0
  184.9720  179.7680  139.1510 O   0  0  0  0  0  1  0  0  0  0  0  0
  187.4560  176.8630  136.0710 C   0  0  0  0  0  3  0  0  0  0  0  0
  188.6240  176.4330  136.9440 C   0  0  0  0  0  2  0  0  0  0  0  0
  188.5660  177.8450  136.4100 C   0  0  0  0  0  2  0  0  0  0  0  0
  183.1650  178.7970  140.5300 N   0  0  0  0  0  2  0  0  0  0  0  0
  183.4860  178.1620  141.8010 C   0  0  0  0  0  2  0  0  0  0  0  0
  182.9400  179.0010  142.9360 C   0  0  0  0  0  1  0  0  0  0  0  0
  1 14  1  1  0  0  0
  1 19  1  0  0  0  0
  2  7  2  0  0  0  0
  4  1  1  1  0  0  0
  4 11  1  0  0  0  0
  5 10  1  0  0  0  0
  6  5  1  0  0  0  0
  6  9  1  0  0  0  0
  7  8  1  0  0  0  0
  7  4  1  0  0  0  0
  8  6  2  0  0  0  0
  9  3  1  1  0  0  0
 10  3  1  0  0  0  0
 11  9  1  0  0  0  0
 12  2  1  0  0  0  0
 13 12  1  0  0  0  0
 14 17  2  0  0  0  0
 15 14  1  0  0  0  0
 16 14  2  0  0  0  0
 19 18  1  1  0  0  0
 19 30  1  0  0  0  0
 20 25  1  0  0  0  0
 21 24  2  0  0  0  0
 22 19  1  0  0  0  0
 23 21  1  0  0  0  0
 23 20  2  0  0  0  0
 24 22  1  0  0  0  0
 25 22  2  0  0  0  0
 25 26  1  0  0  0  0
 27 29  1  0  0  0  0
 27 23  1  0  0  0  0
 27 28  1  0  0  0  0
 29 28  1  0  0  0  0
 30 31  1  0  0  0  0
 31 32  1  0  0  0  0
M  END
>  <MODEL>
7

>  <REMARK>
 VINA RESULT:      -3.9      2.296      5.964
  Name = 
  8 active torsions:
  status: ('A' for Active; 'I' for Inactive)
    1  A    between atoms: N_1  and  C_4
    2  A    between atoms: N_1  and  C_27
    3  A    between atoms: S_2  and  C_5
    4  A    between atoms: C_5  and  C_10
    5  A    between atoms: C_5  and  C_27
    6  A    between atoms: C_6  and  C_25
    7  A    between atoms: C_7  and  C_19
    8  A    between atoms: C_16  and  C_27
                            x       y       z     vdW  Elec       q    Type
                         _______ _______ _______ _____ _____    ______ ____

>  <TORSDO>
F 8

$$$$
=
 OpenBabel10262421043D

 32 35  0  0  1  0  0  0  0  0999 V2000
  181.8390  176.2450  137.5810 C   0  0  1  0  0  3  0  0  0  0  0  0
  180.7200  174.2890  135.2360 C   0  0  0  0  0  3  0  0  0  0  0  0
  185.6050  173.5570  137.5560 C   0  0  0  0  0  2  0  0  0  0  0  0
  182.1240  174.7620  137.2590 C   0  0  1  0  0  3  0  0  0  0  0  0
  185.2590  172.9820  135.2920 O   0  0  0  0  0  0  0  0  0  0  0  0
  184.1730  173.6960  135.7360 C   0  0  0  0  0  0  0  0  0  0  0  0
  181.9230  174.3270  135.8140 C   0  0  0  0  0  0  0  0  0  0  0  0
  183.0310  173.7330  135.1310 N   0  0  0  0  0  0  0  0  0  0  0  0
  184.3990  174.3360  137.0470 C   0  0  1  0  0  3  0  0  0  0  0  0
  186.2600  172.9550  136.2980 C   0  0  0  0  0  2  0  0  0  0  0  0
  183.2740  174.2040  137.8910 O   0  0  0  0  0  0  0  0  0  0  0  0
  179.4540  174.7250  135.9010 C   0  0  0  0  0  2  0  0  0  0  0  0
  178.9400  173.6950  136.6860 O   0  0  0  0  0  1  0  0  0  0  0  0
  181.0500  176.4230  139.1850 S   0  0  0  0  0  0  0  0  0  0  0  0
  180.4090  174.8480  139.7020 C   0  0  0  0  0  1  0  0  0  0  0  0
  179.9130  177.4020  139.1100 O   0  0  0  0  0  0  0  0  0  0  0  0
  182.0490  176.8980  140.2000 O   0  0  0  0  0  0  0  0  0  0  0  0
  183.4510  177.0900  135.9460 O   0  0  0  0  0  1  0  0  0  0  0  0
  182.8660  177.3550  137.1910 C   0  0  1  0  0  0  0  0  0  0  0  0
  180.4750  180.1130  135.9770 C   0  0  0  0  0  3  0  0  0  0  0  0
  181.5830  180.8780  137.9830 C   0  0  0  0  0  3  0  0  0  0  0  0
  182.1090  178.6720  137.0770 C   0  0  0  0  0  0  0  0  0  0  0  0
  180.6850  181.1100  136.9360 C   0  0  0  0  0  0  0  0  0  0  0  0
  182.2860  179.6740  138.0480 C   0  0  0  0  0  3  0  0  0  0  0  0
  181.1790  178.9060  136.0370 C   0  0  0  0  0  0  0  0  0  0  0  0
  180.9400  177.9510  135.0550 O   0  0  0  0  0  1  0  0  0  0  0  0
  179.8900  182.3800  136.8910 C   0  0  0  0  0  3  0  0  0  0  0  0
  180.5850  183.4130  136.0190 C   0  0  0  0  0  2  0  0  0  0  0  0
  180.6720  183.5190  137.5240 C   0  0  0  0  0  2  0  0  0  0  0  0
  183.9250  177.4940  138.2080 N   0  0  0  0  0  2  0  0  0  0  0  0
  185.2460  177.6230  137.6070 C   0  0  0  0  0  2  0  0  0  0  0  0
  186.2000  178.2340  138.6110 C   0  0  0  0  0  1  0  0  0  0  0  0
  1 14  1  1  0  0  0
  2  7  2  0  0  0  0
  2 12  1  0  0  0  0
  4  1  1  6  0  0  0
  4 11  1  0  0  0  0
  5  6  1  0  0  0  0
  5 10  1  0  0  0  0
  6  9  1  0  0  0  0
  7  4  1  0  0  0  0
  8  6  2  0  0  0  0
  8  7  1  0  0  0  0
  9  3  1  1  0  0  0
  9 11  1  0  0  0  0
 10  3  1  0  0  0  0
 12 13  1  0  0  0  0
 14 15  1  0  0  0  0
 14 17  2  0  0  0  0
 16 14  2  0  0  0  0
 19 18  1  6  0  0  0
 19  1  1  0  0  0  0
 19 30  1  0  0  0  0
 20 25  2  0  0  0  0
 20 23  1  0  0  0  0
 21 24  1  0  0  0  0
 22 19  1  0  0  0  0
 22 24  2  0  0  0  0
 23 21  2  0  0  0  0
 25 22  1  0  0  0  0
 26 25  1  0  0  0  0
 27 23  1  0  0  0  0
 27 29  1  0  0  0  0
 28 27  1  0  0  0  0
 28 29  1  0  0  0  0
 31 30  1  0  0  0  0
 31 32  1  0  0  0  0
M  END
>  <MODEL>
8

>  <REMARK>
 VINA RESULT:      -3.8      3.512      6.709
  Name = 
  8 active torsions:
  status: ('A' for Active; 'I' for Inactive)
    1  A    between atoms: N_1  and  C_4
    2  A    between atoms: N_1  and  C_27
    3  A    between atoms: S_2  and  C_5
    4  A    between atoms: C_5  and  C_10
    5  A    between atoms: C_5  and  C_27
    6  A    between atoms: C_6  and  C_25
    7  A    between atoms: C_7  and  C_19
    8  A    between atoms: C_16  and  C_27
                            x       y       z     vdW  Elec       q    Type
                         _______ _______ _______ _____ _____    ______ ____

>  <TORSDO>
F 8

$$$$
=
 OpenBabel10262421043D

 32 35  0  0  1  0  0  0  0  0999 V2000
  181.6570  178.6330  137.7190 C   0  0  1  0  0  3  0  0  0  0  0  0
  184.1270  176.5200  137.8150 C   0  0  0  0  0  3  0  0  0  0  0  0
  178.9310  174.9100  137.3720 C   0  0  0  0  0  2  0  0  0  0  0  0
  181.8130  177.2110  137.1380 C   0  0  1  0  0  3  0  0  0  0  0  0
  180.5040  173.5730  138.5180 O   0  0  0  0  0  0  0  0  0  0  0  0
  181.0680  174.7990  138.2700 C   0  0  0  0  0  0  0  0  0  0  0  0
  182.8110  176.2960  137.8350 C   0  0  0  0  0  0  0  0  0  0  0  0
  182.3360  175.0430  138.3360 N   0  0  0  0  0  0  0  0  0  0  0  0
  180.0900  175.8010  137.8020 C   0  0  1  0  0  3  0  0  0  0  0  0
  179.1400  173.5820  138.1240 C   0  0  0  0  0  2  0  0  0  0  0  0
  180.6040  176.5730  136.7360 O   0  0  0  0  0  0  0  0  0  0  0  0
  184.7670  177.7110  137.1760 C   0  0  0  0  0  2  0  0  0  0  0  0
  186.0480  177.3910  136.7300 O   0  0  0  0  0  1  0  0  0  0  0  0
  180.8640  179.7340  136.5410 S   0  0  0  0  0  0  0  0  0  0  0  0
  179.1040  179.4940  136.6040 C   0  0  0  0  0  1  0  0  0  0  0  0
  181.3370  179.4460  135.1450 O   0  0  0  0  0  0  0  0  0  0  0  0
  181.1720  181.1640  136.8850 O   0  0  0  0  0  0  0  0  0  0  0  0
  180.4410  177.8170  139.6780 O   0  0  0  0  0  1  0  0  0  0  0  0
  181.2780  178.8420  139.2200 C   0  0  1  0  0  0  0  0  0  0  0  0
  184.8070  179.6050  140.5460 C   0  0  0  0  0  3  0  0  0  0  0  0
  183.8270  177.8690  141.9100 C   0  0  0  0  0  3  0  0  0  0  0  0
  182.5630  178.7920  140.0360 C   0  0  0  0  0  0  0  0  0  0  0  0
  184.9090  178.7030  141.6120 C   0  0  0  0  0  0  0  0  0  0  0  0
  182.6720  177.9120  141.1280 C   0  0  0  0  0  3  0  0  0  0  0  0
  183.6520  179.6520  139.7590 C   0  0  0  0  0  0  0  0  0  0  0  0
  183.6050  180.5590  138.7070 O   0  0  0  0  0  1  0  0  0  0  0  0
  186.1300  178.6950  142.4800 C   0  0  0  0  0  3  0  0  0  0  0  0
  186.5560  177.2680  142.7860 C   0  0  0  0  0  2  0  0  0  0  0  0
  185.8180  178.0720  143.8310 C   0  0  0  0  0  2  0  0  0  0  0  0
  180.6200  180.1440  139.4360 N   0  0  0  0  0  2  0  0  0  0  0  0
  179.3840  180.0120  140.1960 C   0  0  0  0  0  2  0  0  0  0  0  0
  179.5700  180.6200  141.5700 C   0  0  0  0  0  1  0  0  0  0  0  0
  1 14  1  6  0  0  0
  1 19  1  0  0  0  0
  2  7  2  0  0  0  0
  3 10  1  0  0  0  0
  4  1  1  1  0  0  0
  4  7  1  0  0  0  0
  6  8  2  0  0  0  0
  6  5  1  0  0  0  0
  7  8  1  0  0  0  0
  9  3  1  6  0  0  0
  9  6  1  0  0  0  0
 10  5  1  0  0  0  0
 11  4  1  0  0  0  0
 11  9  1  0  0  0  0
 12  2  1  0  0  0  0
 13 12  1  0  0  0  0
 14 15  1  0  0  0  0
 14 17  2  0  0  0  0
 16 14  2  0  0  0  0
 19 30  1  0  0  0  0
 19 18  1  1  0  0  0
 19 22  1  0  0  0  0
 20 23  1  0  0  0  0
 22 24  2  0  0  0  0
 23 21  2  0  0  0  0
 23 27  1  0  0  0  0
 24 21  1  0  0  0  0
 25 22  1  0  0  0  0
 25 20  2  0  0  0  0
 26 25  1  0  0  0  0
 27 28  1  0  0  0  0
 27 29  1  0  0  0  0
 28 29  1  0  0  0  0
 30 31  1  0  0  0  0
 31 32  1  0  0  0  0
M  END
>  <MODEL>
9

>  <REMARK>
 VINA RESULT:      -3.5      2.100      4.972
  Name = 
  8 active torsions:
  status: ('A' for Active; 'I' for Inactive)
    1  A    between atoms: N_1  and  C_4
    2  A    between atoms: N_1  and  C_27
    3  A    between atoms: S_2  and  C_5
    4  A    between atoms: C_5  and  C_10
    5  A    between atoms: C_5  and  C_27
    6  A    between atoms: C_6  and  C_25
    7  A    between atoms: C_7  and  C_19
    8  A    between atoms: C_16  and  C_27
                            x       y       z     vdW  Elec       q    Type
                         _______ _______ _______ _____ _____    ______ ____

>  <TORSDO>
F 8

$$$$
