=
 OpenBabel10262419383D

 31 37  0  0  1  0  0  0  0  0999 V2000
  184.0050  175.9380  136.2440 C   0  0  0  0  0  0  0  0  0  0  0  0
  183.3890  178.5020  138.7370 C   0  0  1  0  0  3  0  0  0  0  0  0
  183.9780  177.2380  138.3310 N   0  0  2  0  0  0  0  0  0  0  0  0
  183.0610  175.0530  136.7450 O   0  0  0  0  0  0  0  0  0  0  0  0
  182.3350  178.1750  139.6990 C   0  0  1  0  0  0  0  0  0  0  0  0
  184.7360  175.6150  135.2730 O   0  0  0  0  0  0  0  0  0  0  0  0
  183.6960  178.2070  141.5820 C   0  0  1  0  0  3  0  0  0  0  0  0
  182.2270  176.7720  139.8390 O   0  0  0  0  0  0  0  0  0  0  0  0
  183.6150  178.8910  140.2380 C   0  0  2  0  0  0  0  0  0  0  0  0
  184.1120  177.2940  136.8650 C   0  0  0  0  0  2  0  0  0  0  0  0
  183.0560  176.2070  138.8580 C   0  0  1  0  0  3  0  0  0  0  0  0
  182.2120  175.4920  137.7950 C   0  0  0  0  0  2  0  0  0  0  0  0
  184.6890  178.0480  140.6360 O   0  0  0  0  0  0  0  0  0  0  0  0
  179.7380  178.2270  139.7430 C   0  0  0  0  0  2  0  0  0  0  0  0
  181.0370  178.9640  139.4610 C   0  0  0  0  0  0  0  0  0  0  0  0
  180.2450  179.2640  140.7260 C   0  0  0  0  0  2  0  0  0  0  0  0
  180.8050  182.1980  136.6170 C   0  0  0  0  0  0  0  0  0  0  0  0
  181.1830  181.3920  138.8650 C   0  0  0  0  0  3  0  0  0  0  0  0
  180.4810  178.1930  136.4510 Cl  0  0  0  0  0  0  0  0  0  0  0  0
  180.7040  183.5240  135.4800 Cl  0  0  0  0  0  0  0  0  0  0  0  0
  181.1000  182.4500  137.9580 C   0  0  0  0  0  3  0  0  0  0  0  0
  180.7020  179.8190  137.0790 C   0  0  0  0  0  0  0  0  0  0  0  0
  180.9700  180.0710  138.4420 C   0  0  0  0  0  0  0  0  0  0  0  0
  180.6130  180.8860  136.1790 C   0  0  0  0  0  3  0  0  0  0  0  0
  184.2310  179.0370  142.6630 N   0  0  0  0  0  2  0  0  0  0  0  0
  184.9340  178.6460  143.8530 C   0  0  0  0  0  0  0  0  0  0  0  0
  186.7550  177.5190  144.9970 C   0  0  0  0  0  3  0  0  0  0  0  0
  186.1200  177.9020  143.8130 C   0  0  0  0  0  3  0  0  0  0  0  0
  186.2110  177.8830  146.2320 C   0  0  0  0  0  3  0  0  0  0  0  0
  185.0290  178.6260  146.2790 C   0  0  0  0  0  3  0  0  0  0  0  0
  184.3930  179.0020  145.0930 C   0  0  0  0  0  3  0  0  0  0  0  0
  1  4  1  0  0  0  0
  1 10  1  0  0  0  0
  2  5  1  0  0  0  0
  2  9  1  0  0  0  0
  3  2  1  0  0  0  0
  3 11  1  0  0  0  0
  4 12  1  0  0  0  0
  5  8  1  0  0  0  0
  5  9  1  0  0  0  0
  6  1  2  0  0  0  0
  7 25  1  0  0  0  0
  9 13  1  0  0  0  0
  9  7  1  0  0  0  0
 10  3  1  0  0  0  0
 11  8  1  0  0  0  0
 12 11  1  0  0  0  0
 13  7  1  0  0  0  0
 14 16  1  0  0  0  0
 15  5  1  0  0  0  0
 15 14  1  0  0  0  0
 15 16  1  0  0  0  0
 17 21  1  0  0  0  0
 19 22  1  0  0  0  0
 20 17  1  0  0  0  0
 21 18  2  0  0  0  0
 22 23  2  0  0  0  0
 23 18  1  0  0  0  0
 23 15  1  0  0  0  0
 24 17  2  0  0  0  0
 24 22  1  0  0  0  0
 25 26  1  0  0  0  0
 26 31  1  0  0  0  0
 27 29  2  0  0  0  0
 28 26  2  0  0  0  0
 28 27  1  0  0  0  0
 29 30  1  0  0  0  0
 31 30  2  0  0  0  0
M  END
>  <MODEL>
1

>  <REMARK>
 VINA RESULT:      -7.1      0.000      0.000
  Name = 
  4 active torsions:
  status: ('A' for Active; 'I' for Inactive)
    1  A    between atoms: C_5  and  N_30
    2  A    between atoms: C_9  and  C_15
    3  A    between atoms: C_9  and  C_22
    4  A    between atoms: C_17  and  N_30
                            x       y       z     vdW  Elec       q    Type
                         _______ _______ _______ _____ _____    ______ ____

>  <TORSDO>
F 4

$$$$
=
 OpenBabel10262419383D

 31 37  0  0  1  0  0  0  0  0999 V2000
  194.3440  175.3250  136.6600 C   0  0  0  0  0  0  0  0  0  0  0  0
  191.2120  176.9700  137.4710 C   0  0  1  0  0  3  0  0  0  0  0  0
  192.4100  176.2500  137.8660 N   0  0  2  0  0  0  0  0  0  0  0  0
  193.8350  174.0380  136.7680 O   0  0  0  0  0  0  0  0  0  0  0  0
  190.0900  176.0610  137.7050 C   0  0  1  0  0  0  0  0  0  0  0  0
  195.5650  175.5150  136.4270 O   0  0  0  0  0  0  0  0  0  0  0  0
  189.7270  176.6760  139.9160 C   0  0  1  0  0  3  0  0  0  0  0  0
  190.5680  174.8110  138.1630 O   0  0  0  0  0  0  0  0  0  0  0  0
  190.2230  177.3080  138.6380 C   0  0  2  0  0  0  0  0  0  0  0  0
  193.4020  176.4770  136.8000 C   0  0  0  0  0  2  0  0  0  0  0  0
  191.9650  174.8520  138.0480 C   0  0  1  0  0  3  0  0  0  0  0  0
  192.4380  173.8770  136.9610 C   0  0  0  0  0  2  0  0  0  0  0  0
  191.0220  177.1420  139.8020 O   0  0  0  0  0  0  0  0  0  0  0  0
  189.4100  176.9130  135.3460 C   0  0  0  0  0  2  0  0  0  0  0  0
  189.0730  176.0490  136.5510 C   0  0  0  0  0  0  0  0  0  0  0  0
  189.5880  175.4100  135.2700 C   0  0  0  0  0  2  0  0  0  0  0  0
  184.8920  175.2150  137.2010 C   0  0  0  0  0  0  0  0  0  0  0  0
  187.1640  174.4600  136.8680 C   0  0  0  0  0  3  0  0  0  0  0  0
  187.1600  178.5270  136.9550 Cl  0  0  0  0  0  0  0  0  0  0  0  0
  183.1980  174.8580  137.4520 Cl  0  0  0  0  0  0  0  0  0  0  0  0
  185.8120  174.1740  137.0660 C   0  0  0  0  0  3  0  0  0  0  0  0
  186.6800  176.8360  136.9660 C   0  0  0  0  0  0  0  0  0  0  0  0
  187.6110  175.7880  136.8000 C   0  0  0  0  0  0  0  0  0  0  0  0
  185.3270  176.5410  137.1570 C   0  0  0  0  0  3  0  0  0  0  0  0
  188.9980  177.5800  140.8080 N   0  0  0  0  0  2  0  0  0  0  0  0
  188.9560  177.6120  142.2420 C   0  0  0  0  0  0  0  0  0  0  0  0
  189.9070  178.1680  144.4060 C   0  0  0  0  0  3  0  0  0  0  0  0
  189.9770  178.1850  143.0100 C   0  0  0  0  0  3  0  0  0  0  0  0
  188.8120  177.5820  145.0440 C   0  0  0  0  0  3  0  0  0  0  0  0
  187.7890  177.0080  144.2850 C   0  0  0  0  0  3  0  0  0  0  0  0
  187.8640  177.0220  142.8890 C   0  0  0  0  0  3  0  0  0  0  0  0
  1  4  1  0  0  0  0
  1 10  1  0  0  0  0
  2  5  1  0  0  0  0
  2  3  1  0  0  0  0
  2  9  1  0  0  0  0
  3 11  1  0  0  0  0
  4 12  1  0  0  0  0
  5  8  1  0  0  0  0
  5  9  1  0  0  0  0
  6  1  2  0  0  0  0
  7 25  1  0  0  0  0
  9 13  1  0  0  0  0
  9  7  1  0  0  0  0
 10  3  1  0  0  0  0
 11  8  1  0  0  0  0
 12 11  1  0  0  0  0
 13  7  1  0  0  0  0
 14 15  1  0  0  0  0
 15 23  1  0  0  0  0
 15  5  1  0  0  0  0
 16 14  1  0  0  0  0
 16 15  1  0  0  0  0
 17 20  1  0  0  0  0
 18 21  1  0  0  0  0
 19 22  1  0  0  0  0
 21 17  2  0  0  0  0
 22 24  2  0  0  0  0
 23 18  2  0  0  0  0
 23 22  1  0  0  0  0
 24 17  1  0  0  0  0
 25 26  1  0  0  0  0
 26 31  2  0  0  0  0
 26 28  1  0  0  0  0
 27 29  1  0  0  0  0
 28 27  2  0  0  0  0
 30 29  2  0  0  0  0
 31 30  1  0  0  0  0
M  END
>  <MODEL>
2

>  <REMARK>
 VINA RESULT:      -7.1      6.044      8.046
  Name = 
  4 active torsions:
  status: ('A' for Active; 'I' for Inactive)
    1  A    between atoms: C_5  and  N_30
    2  A    between atoms: C_9  and  C_15
    3  A    between atoms: C_9  and  C_22
    4  A    between atoms: C_17  and  N_30
                            x       y       z     vdW  Elec       q    Type
                         _______ _______ _______ _____ _____    ______ ____

>  <TORSDO>
F 4

$$$$
=
 OpenBabel10262419383D

 31 37  0  0  1  0  0  0  0  0999 V2000
  193.4660  175.5090  137.0380 C   0  0  0  0  0  0  0  0  0  0  0  0
  190.9300  177.5390  138.6560 C   0  0  1  0  0  3  0  0  0  0  0  0
  191.8500  176.4150  138.6540 N   0  0  2  0  0  0  0  0  0  0  0  0
  192.5990  174.4800  136.6990 O   0  0  0  0  0  0  0  0  0  0  0  0
  189.5830  176.9680  138.6250 C   0  0  1  0  0  0  0  0  0  0  0  0
  194.6970  175.4190  136.7920 O   0  0  0  0  0  0  0  0  0  0  0  0
  189.3420  176.7730  140.9280 C   0  0  1  0  0  3  0  0  0  0  0  0
  189.6570  175.5590  138.5440 O   0  0  0  0  0  0  0  0  0  0  0  0
  190.0450  177.6740  139.9410 C   0  0  2  0  0  0  0  0  0  0  0  0
  192.9010  176.7380  137.6730 C   0  0  0  0  0  2  0  0  0  0  0  0
  191.0080  175.2410  138.3380 C   0  0  1  0  0  3  0  0  0  0  0  0
  191.2110  174.6620  136.9320 C   0  0  0  0  0  2  0  0  0  0  0  0
  190.7200  176.8580  140.8900 O   0  0  0  0  0  0  0  0  0  0  0  0
  189.0550  179.0890  137.2190 C   0  0  0  0  0  2  0  0  0  0  0  0
  188.6480  177.6850  137.6370 C   0  0  0  0  0  0  0  0  0  0  0  0
  189.2560  177.9290  136.2630 C   0  0  0  0  0  2  0  0  0  0  0  0
  184.4200  176.8340  137.5930 C   0  0  0  0  0  0  0  0  0  0  0  0
  186.2770  178.2520  138.2120 C   0  0  0  0  0  3  0  0  0  0  0  0
  187.7190  175.1040  136.0760 Cl  0  0  0  0  0  0  0  0  0  0  0  0
  182.7030  176.4980  137.5950 Cl  0  0  0  0  0  0  0  0  0  0  0  0
  184.9070  177.9840  138.2160 C   0  0  0  0  0  3  0  0  0  0  0  0
  186.6740  176.2270  136.9340 C   0  0  0  0  0  0  0  0  0  0  0  0
  187.1750  177.3730  137.5880 C   0  0  0  0  0  0  0  0  0  0  0  0
  185.3010  175.9620  136.9490 C   0  0  0  0  0  3  0  0  0  0  0  0
  188.8810  177.4370  142.1480 N   0  0  0  0  0  2  0  0  0  0  0  0
  187.5590  177.8560  142.5170 C   0  0  0  0  0  0  0  0  0  0  0  0
  185.4820  179.0380  142.0830 C   0  0  0  0  0  3  0  0  0  0  0  0
  186.7530  178.6280  141.6700 C   0  0  0  0  0  3  0  0  0  0  0  0
  185.0050  178.6740  143.3450 C   0  0  0  0  0  3  0  0  0  0  0  0
  185.8030  177.9040  144.1950 C   0  0  0  0  0  3  0  0  0  0  0  0
  187.0760  177.5010  143.7820 C   0  0  0  0  0  3  0  0  0  0  0  0
  1 10  1  0  0  0  0
  2  9  1  0  0  0  0
  3  2  1  0  0  0  0
  4 12  1  0  0  0  0
  4  1  1  0  0  0  0
  5  2  1  0  0  0  0
  5  9  1  0  0  0  0
  6  1  2  0  0  0  0
  7 25  1  0  0  0  0
  8  5  1  0  0  0  0
  9 13  1  0  0  0  0
  9  7  1  0  0  0  0
 10  3  1  0  0  0  0
 11  8  1  0  0  0  0
 11  3  1  0  0  0  0
 12 11  1  0  0  0  0
 13  7  1  0  0  0  0
 14 15  1  0  0  0  0
 15  5  1  0  0  0  0
 16 14  1  0  0  0  0
 16 15  1  0  0  0  0
 17 20  1  0  0  0  0
 17 21  1  0  0  0  0
 18 21  2  0  0  0  0
 19 22  1  0  0  0  0
 22 24  1  0  0  0  0
 22 23  2  0  0  0  0
 23 15  1  0  0  0  0
 23 18  1  0  0  0  0
 24 17  2  0  0  0  0
 25 26  1  0  0  0  0
 26 31  1  0  0  0  0
 27 29  2  0  0  0  0
 28 27  1  0  0  0  0
 28 26  2  0  0  0  0
 29 30  1  0  0  0  0
 31 30  2  0  0  0  0
M  END
>  <MODEL>
3

>  <REMARK>
 VINA RESULT:      -7.1      5.475      7.119
  Name = 
  4 active torsions:
  status: ('A' for Active; 'I' for Inactive)
    1  A    between atoms: C_5  and  N_30
    2  A    between atoms: C_9  and  C_15
    3  A    between atoms: C_9  and  C_22
    4  A    between atoms: C_17  and  N_30
                            x       y       z     vdW  Elec       q    Type
                         _______ _______ _______ _____ _____    ______ ____

>  <TORSDO>
F 4

$$$$
=
 OpenBabel10262419383D

 31 37  0  0  1  0  0  0  0  0999 V2000
  194.7420  175.2960  136.4590 C   0  0  0  0  0  0  0  0  0  0  0  0
  191.5270  176.7530  137.3020 C   0  0  1  0  0  3  0  0  0  0  0  0
  192.7900  176.1480  137.6880 N   0  0  2  0  0  0  0  0  0  0  0  0
  194.3360  173.9840  136.6610 O   0  0  0  0  0  0  0  0  0  0  0  0
  190.4860  175.7800  137.6340 C   0  0  1  0  0  0  0  0  0  0  0  0
  195.9360  175.5600  136.1640 O   0  0  0  0  0  0  0  0  0  0  0  0
  190.1590  176.4990  139.8190 C   0  0  1  0  0  3  0  0  0  0  0  0
  191.0730  174.5990  138.1430 O   0  0  0  0  0  0  0  0  0  0  0  0
  190.5590  177.0880  138.4870 C   0  0  2  0  0  0  0  0  0  0  0  0
  193.7220  176.3820  136.5700 C   0  0  0  0  0  2  0  0  0  0  0  0
  192.4590  174.7340  137.9680 C   0  0  1  0  0  3  0  0  0  0  0  0
  192.9630  173.7330  136.9210 C   0  0  0  0  0  2  0  0  0  0  0  0
  191.4100  177.0510  139.6250 O   0  0  0  0  0  0  0  0  0  0  0  0
  189.3330  176.7620  135.5230 C   0  0  0  0  0  2  0  0  0  0  0  0
  189.4310  175.6240  136.5250 C   0  0  0  0  0  0  0  0  0  0  0  0
  190.0110  175.4660  135.1280 C   0  0  0  0  0  2  0  0  0  0  0  0
  185.8820  173.2380  137.0790 C   0  0  0  0  0  0  0  0  0  0  0  0
  188.2490  173.4190  136.6260 C   0  0  0  0  0  3  0  0  0  0  0  0
  186.7790  177.1530  137.2920 Cl  0  0  0  0  0  0  0  0  0  0  0  0
  184.4490  172.2550  137.2890 Cl  0  0  0  0  0  0  0  0  0  0  0  0
  187.1070  172.6340  136.7920 C   0  0  0  0  0  3  0  0  0  0  0  0
  186.9450  175.4180  137.0650 C   0  0  0  0  0  0  0  0  0  0  0  0
  188.1800  174.8150  136.7450 C   0  0  0  0  0  0  0  0  0  0  0  0
  185.8030  174.6250  137.2220 C   0  0  0  0  0  3  0  0  0  0  0  0
  189.3980  177.4000  140.6860 N   0  0  0  0  0  2  0  0  0  0  0  0
  189.3010  177.4250  142.1190 C   0  0  0  0  0  0  0  0  0  0  0  0
  188.2220  176.8170  144.2080 C   0  0  0  0  0  3  0  0  0  0  0  0
  188.2950  176.7410  142.8140 C   0  0  0  0  0  3  0  0  0  0  0  0
  189.1580  177.5730  144.9170 C   0  0  0  0  0  3  0  0  0  0  0  0
  190.1650  178.2570  144.2310 C   0  0  0  0  0  3  0  0  0  0  0  0
  190.2320  178.1840  142.8360 C   0  0  0  0  0  3  0  0  0  0  0  0
  1 10  1  0  0  0  0
  1  4  1  0  0  0  0
  2  5  1  0  0  0  0
  2  3  1  0  0  0  0
  2  9  1  0  0  0  0
  3 11  1  0  0  0  0
  4 12  1  0  0  0  0
  5  8  1  0  0  0  0
  5  9  1  0  0  0  0
  6  1  2  0  0  0  0
  7 25  1  0  0  0  0
  9 13  1  0  0  0  0
  9  7  1  0  0  0  0
 10  3  1  0  0  0  0
 11  8  1  0  0  0  0
 12 11  1  0  0  0  0
 13  7  1  0  0  0  0
 14 15  1  0  0  0  0
 15 23  1  0  0  0  0
 15  5  1  0  0  0  0
 16 14  1  0  0  0  0
 16 15  1  0  0  0  0
 17 24  1  0  0  0  0
 17 20  1  0  0  0  0
 18 23  2  0  0  0  0
 18 21  1  0  0  0  0
 21 17  2  0  0  0  0
 22 24  2  0  0  0  0
 22 19  1  0  0  0  0
 23 22  1  0  0  0  0
 25 26  1  0  0  0  0
 26 28  2  0  0  0  0
 26 31  1  0  0  0  0
 27 29  2  0  0  0  0
 28 27  1  0  0  0  0
 30 29  1  0  0  0  0
 31 30  2  0  0  0  0
M  END
>  <MODEL>
4

>  <REMARK>
 VINA RESULT:      -7.1      6.526      8.764
  Name = 
  4 active torsions:
  status: ('A' for Active; 'I' for Inactive)
    1  A    between atoms: C_5  and  N_30
    2  A    between atoms: C_9  and  C_15
    3  A    between atoms: C_9  and  C_22
    4  A    between atoms: C_17  and  N_30
                            x       y       z     vdW  Elec       q    Type
                         _______ _______ _______ _____ _____    ______ ____

>  <TORSDO>
F 4

$$$$
=
 OpenBabel10262419383D

 31 37  0  0  1  0  0  0  0  0999 V2000
  192.4880  176.0030  147.8400 C   0  0  0  0  0  0  0  0  0  0  0  0
  190.0570  178.1120  146.1640 C   0  0  1  0  0  3  0  0  0  0  0  0
  190.3950  176.9410  146.9530 N   0  0  2  0  0  0  0  0  0  0  0  0
  192.5110  175.0330  146.8470 O   0  0  0  0  0  0  0  0  0  0  0  0
  189.6180  177.6150  144.8590 C   0  0  1  0  0  0  0  0  0  0  0  0
  193.1520  175.8540  148.8980 O   0  0  0  0  0  0  0  0  0  0  0  0
  187.3800  177.3590  145.4300 C   0  0  1  0  0  3  0  0  0  0  0  0
  189.7360  176.2070  144.8130 O   0  0  0  0  0  0  0  0  0  0  0  0
  188.5410  178.2530  145.7950 C   0  0  2  0  0  0  0  0  0  0  0  0
  191.6800  177.2390  147.6100 C   0  0  0  0  0  2  0  0  0  0  0  0
  190.4080  175.8240  145.9840 C   0  0  1  0  0  3  0  0  0  0  0  0
  191.8020  175.2810  145.6430 C   0  0  0  0  0  2  0  0  0  0  0  0
  187.9000  177.3720  146.7090 O   0  0  0  0  0  0  0  0  0  0  0  0
  190.6440  179.8370  143.9840 C   0  0  0  0  0  2  0  0  0  0  0  0
  190.2050  178.4130  143.6820 C   0  0  0  0  0  0  0  0  0  0  0  0
  191.6830  178.7440  143.8260 C   0  0  0  0  0  2  0  0  0  0  0  0
  188.9320  177.5850  139.6450 C   0  0  0  0  0  0  0  0  0  0  0  0
  188.5710  178.6270  141.7960 C   0  0  0  0  0  3  0  0  0  0  0  0
  192.1810  176.7530  141.8660 Cl  0  0  0  0  0  0  0  0  0  0  0  0
  188.3950  177.2490  138.0140 Cl  0  0  0  0  0  0  0  0  0  0  0  0
  188.1400  178.3580  140.4960 C   0  0  0  0  0  3  0  0  0  0  0  0
  190.6060  177.3690  141.3870 C   0  0  0  0  0  0  0  0  0  0  0  0
  189.7960  178.1250  142.2620 C   0  0  0  0  0  0  0  0  0  0  0  0
  190.1640  177.0980  140.0890 C   0  0  0  0  0  3  0  0  0  0  0  0
  186.0680  178.0070  145.4690 N   0  0  0  0  0  2  0  0  0  0  0  0
  185.1300  178.2370  144.4060 C   0  0  0  0  0  0  0  0  0  0  0  0
  184.5070  178.2530  142.0590 C   0  0  0  0  0  3  0  0  0  0  0  0
  185.4420  177.9870  143.0640 C   0  0  0  0  0  3  0  0  0  0  0  0
  183.2500  178.7650  142.3920 C   0  0  0  0  0  3  0  0  0  0  0  0
  182.9320  179.0150  143.7280 C   0  0  0  0  0  3  0  0  0  0  0  0
  183.8710  178.7540  144.7300 C   0  0  0  0  0  3  0  0  0  0  0  0
  1  6  2  0  0  0  0
  2  3  1  0  0  0  0
  3 10  1  0  0  0  0
  4  1  1  0  0  0  0
  5  9  1  0  0  0  0
  5  2  1  0  0  0  0
  7 25  1  0  0  0  0
  7  9  1  0  0  0  0
  7 13  1  0  0  0  0
  8  5  1  0  0  0  0
  8 11  1  0  0  0  0
  9  2  1  0  0  0  0
  9 13  1  0  0  0  0
 10  1  1  0  0  0  0
 11  3  1  0  0  0  0
 12 11  1  0  0  0  0
 12  4  1  0  0  0  0
 15 16  1  0  0  0  0
 15 14  1  0  0  0  0
 15  5  1  0  0  0  0
 16 14  1  0  0  0  0
 17 24  2  0  0  0  0
 17 21  1  0  0  0  0
 18 23  1  0  0  0  0
 20 17  1  0  0  0  0
 21 18  2  0  0  0  0
 22 19  1  0  0  0  0
 22 23  2  0  0  0  0
 23 15  1  0  0  0  0
 24 22  1  0  0  0  0
 26 31  1  0  0  0  0
 26 25  1  0  0  0  0
 27 29  2  0  0  0  0
 27 28  1  0  0  0  0
 28 26  2  0  0  0  0
 29 30  1  0  0  0  0
 30 31  2  0  0  0  0
M  END
>  <MODEL>
5

>  <REMARK>
 VINA RESULT:      -6.7      5.701      9.662
  Name = 
  4 active torsions:
  status: ('A' for Active; 'I' for Inactive)
    1  A    between atoms: C_5  and  N_30
    2  A    between atoms: C_9  and  C_15
    3  A    between atoms: C_9  and  C_22
    4  A    between atoms: C_17  and  N_30
                            x       y       z     vdW  Elec       q    Type
                         _______ _______ _______ _____ _____    ______ ____

>  <TORSDO>
F 4

$$$$
=
 OpenBabel10262419383D

 31 37  0  0  1  0  0  0  0  0999 V2000
  191.7760  175.3250  144.3360 C   0  0  0  0  0  0  0  0  0  0  0  0
  188.5930  176.3260  142.9080 C   0  0  1  0  0  3  0  0  0  0  0  0
  190.0450  176.3360  142.9110 N   0  0  2  0  0  0  0  0  0  0  0  0
  192.0130  176.5400  144.9640 O   0  0  0  0  0  0  0  0  0  0  0  0
  188.1710  177.6840  143.2540 C   0  0  1  0  0  0  0  0  0  0  0  0
  192.6330  174.4050  144.3740 O   0  0  0  0  0  0  0  0  0  0  0  0
  188.1660  178.5050  141.0810 C   0  0  1  0  0  3  0  0  0  0  0  0
  189.3020  178.4880  143.5230 O   0  0  0  0  0  0  0  0  0  0  0  0
  187.9220  177.1950  141.7910 C   0  0  2  0  0  0  0  0  0  0  0  0
  190.4690  175.1270  143.6390 C   0  0  0  0  0  2  0  0  0  0  0  0
  190.4110  177.6270  143.5340 C   0  0  1  0  0  3  0  0  0  0  0  0
  190.9860  177.5190  144.9520 C   0  0  0  0  0  2  0  0  0  0  0  0
  188.9800  177.4110  140.8660 O   0  0  0  0  0  0  0  0  0  0  0  0
  187.1360  176.7560  145.4500 C   0  0  0  0  0  2  0  0  0  0  0  0
  187.0220  177.7150  144.2770 C   0  0  0  0  0  0  0  0  0  0  0  0
  187.4220  178.2310  145.6510 C   0  0  0  0  0  2  0  0  0  0  0  0
  183.0680  178.9020  143.0300 C   0  0  0  0  0  0  0  0  0  0  0  0
  185.2680  178.0410  142.5190 C   0  0  0  0  0  3  0  0  0  0  0  0
  185.0200  178.6340  146.5370 Cl  0  0  0  0  0  0  0  0  0  0  0  0
  181.4720  179.3910  142.5060 Cl  0  0  0  0  0  0  0  0  0  0  0  0
  183.9960  178.4330  142.1000 C   0  0  0  0  0  3  0  0  0  0  0  0
  184.6750  178.5640  144.8150 C   0  0  0  0  0  0  0  0  0  0  0  0
  185.6280  178.1160  143.8740 C   0  0  0  0  0  0  0  0  0  0  0  0
  183.4060  178.9620  144.3840 C   0  0  0  0  0  3  0  0  0  0  0  0
  187.3600  178.7120  139.8770 N   0  0  0  0  0  2  0  0  0  0  0  0
  187.6370  178.3450  138.5160 C   0  0  0  0  0  0  0  0  0  0  0  0
  189.0620  178.3130  136.5500 C   0  0  0  0  0  3  0  0  0  0  0  0
  188.8460  178.6650  137.8860 C   0  0  0  0  0  3  0  0  0  0  0  0
  188.0720  177.6320  135.8380 C   0  0  0  0  0  3  0  0  0  0  0  0
  186.8640  177.3090  136.4600 C   0  0  0  0  0  3  0  0  0  0  0  0
  186.6480  177.6680  137.7940 C   0  0  0  0  0  3  0  0  0  0  0  0
  1  6  2  0  0  0  0
  1  4  1  0  0  0  0
  2  3  1  0  0  0  0
  2  5  1  0  0  0  0
  3 11  1  0  0  0  0
  3 10  1  0  0  0  0
  5  8  1  0  0  0  0
  5 15  1  0  0  0  0
  7  9  1  0  0  0  0
  8 11  1  0  0  0  0
  9  2  1  0  0  0  0
  9  5  1  0  0  0  0
 10  1  1  0  0  0  0
 11 12  1  0  0  0  0
 12  4  1  0  0  0  0
 13  7  1  0  0  0  0
 13  9  1  0  0  0  0
 14 16  1  0  0  0  0
 15 14  1  0  0  0  0
 15 16  1  0  0  0  0
 17 24  1  0  0  0  0
 18 23  2  0  0  0  0
 20 17  1  0  0  0  0
 21 18  1  0  0  0  0
 21 17  2  0  0  0  0
 22 19  1  0  0  0  0
 23 15  1  0  0  0  0
 23 22  1  0  0  0  0
 24 22  2  0  0  0  0
 25  7  1  0  0  0  0
 26 25  1  0  0  0  0
 27 28  2  0  0  0  0
 28 26  1  0  0  0  0
 29 30  2  0  0  0  0
 29 27  1  0  0  0  0
 30 31  1  0  0  0  0
 31 26  2  0  0  0  0
M  END
>  <MODEL>
6

>  <REMARK>
 VINA RESULT:      -6.4      4.725      8.468
  Name = 
  4 active torsions:
  status: ('A' for Active; 'I' for Inactive)
    1  A    between atoms: C_5  and  N_30
    2  A    between atoms: C_9  and  C_15
    3  A    between atoms: C_9  and  C_22
    4  A    between atoms: C_17  and  N_30
                            x       y       z     vdW  Elec       q    Type
                         _______ _______ _______ _____ _____    ______ ____

>  <TORSDO>
F 4

$$$$
=
 OpenBabel10262419383D

 31 37  0  0  1  0  0  0  0  0999 V2000
  184.3210  174.9000  135.9650 C   0  0  0  0  0  0  0  0  0  0  0  0
  183.2630  177.7470  137.9510 C   0  0  1  0  0  3  0  0  0  0  0  0
  183.9630  176.4820  137.8130 N   0  0  2  0  0  0  0  0  0  0  0  0
  183.3680  174.0330  136.4810 O   0  0  0  0  0  0  0  0  0  0  0  0
  182.1150  177.4900  138.8210 C   0  0  1  0  0  0  0  0  0  0  0  0
  185.1850  174.4920  135.1460 O   0  0  0  0  0  0  0  0  0  0  0  0
  183.2240  177.8880  140.8230 C   0  0  1  0  0  3  0  0  0  0  0  0
  182.0630  176.1170  139.1580 O   0  0  0  0  0  0  0  0  0  0  0  0
  183.2780  178.3640  139.3910 C   0  0  2  0  0  0  0  0  0  0  0  0
  184.2780  176.3350  136.3810 C   0  0  0  0  0  2  0  0  0  0  0  0
  183.0380  175.4770  138.3790 C   0  0  1  0  0  3  0  0  0  0  0  0
  182.3720  174.5590  137.3450 C   0  0  0  0  0  2  0  0  0  0  0  0
  184.3350  177.6640  140.0350 O   0  0  0  0  0  0  0  0  0  0  0  0
  179.8770  177.2510  137.5220 C   0  0  0  0  0  2  0  0  0  0  0  0
  180.8180  178.1430  138.3150 C   0  0  0  0  0  0  0  0  0  0  0  0
  179.5510  177.6010  138.9600 C   0  0  0  0  0  2  0  0  0  0  0  0
  180.6900  182.3530  137.3880 C   0  0  0  0  0  0  0  0  0  0  0  0
  180.8340  180.0450  136.6860 C   0  0  0  0  0  3  0  0  0  0  0  0
  180.4310  180.1350  140.7330 Cl  0  0  0  0  0  0  0  0  0  0  0  0
  180.6510  184.0580  136.9950 Cl  0  0  0  0  0  0  0  0  0  0  0  0
  180.8050  181.4040  136.3710 C   0  0  0  0  0  3  0  0  0  0  0  0
  180.6030  180.5810  139.0420 C   0  0  0  0  0  0  0  0  0  0  0  0
  180.7490  179.6180  138.0200 C   0  0  0  0  0  0  0  0  0  0  0  0
  180.5830  181.9420  138.7180 C   0  0  0  0  0  3  0  0  0  0  0  0
  183.5750  178.9000  141.8210 N   0  0  0  0  0  2  0  0  0  0  0  0
  184.1430  178.7360  143.1300 C   0  0  0  0  0  0  0  0  0  0  0  0
  184.0460  178.9170  145.5490 C   0  0  0  0  0  3  0  0  0  0  0  0
  183.4430  179.0670  144.2970 C   0  0  0  0  0  3  0  0  0  0  0  0
  185.3520  178.4290  145.6430 C   0  0  0  0  0  3  0  0  0  0  0  0
  186.0550  178.0960  144.4830 C   0  0  0  0  0  3  0  0  0  0  0  0
  185.4520  178.2530  143.2320 C   0  0  0  0  0  3  0  0  0  0  0  0
  1 10  1  0  0  0  0
  1  4  1  0  0  0  0
  2  5  1  0  0  0  0
  2  9  1  0  0  0  0
  3  2  1  0  0  0  0
  3 11  1  0  0  0  0
  4 12  1  0  0  0  0
  5  8  1  0  0  0  0
  5  9  1  0  0  0  0
  6  1  2  0  0  0  0
  7 25  1  0  0  0  0
  9 13  1  0  0  0  0
  9  7  1  0  0  0  0
 10  3  1  0  0  0  0
 11  8  1  0  0  0  0
 12 11  1  0  0  0  0
 13  7  1  0  0  0  0
 14 15  1  0  0  0  0
 14 16  1  0  0  0  0
 15  5  1  0  0  0  0
 15 16  1  0  0  0  0
 17 24  1  0  0  0  0
 18 23  2  0  0  0  0
 20 17  1  0  0  0  0
 21 18  1  0  0  0  0
 21 17  2  0  0  0  0
 22 19  1  0  0  0  0
 23 15  1  0  0  0  0
 23 22  1  0  0  0  0
 24 22  2  0  0  0  0
 25 26  1  0  0  0  0
 26 31  2  0  0  0  0
 26 28  1  0  0  0  0
 27 29  1  0  0  0  0
 28 27  2  0  0  0  0
 30 29  2  0  0  0  0
 31 30  1  0  0  0  0
M  END
>  <MODEL>
7

>  <REMARK>
 VINA RESULT:      -6.4      1.331      1.867
  Name = 
  4 active torsions:
  status: ('A' for Active; 'I' for Inactive)
    1  A    between atoms: C_5  and  N_30
    2  A    between atoms: C_9  and  C_15
    3  A    between atoms: C_9  and  C_22
    4  A    between atoms: C_17  and  N_30
                            x       y       z     vdW  Elec       q    Type
                         _______ _______ _______ _____ _____    ______ ____

>  <TORSDO>
F 4

$$$$
=
 OpenBabel10262419383D

 31 37  0  0  1  0  0  0  0  0999 V2000
  191.3640  177.3090  144.3800 C   0  0  0  0  0  0  0  0  0  0  0  0
  189.0630  178.6340  141.9060 C   0  0  1  0  0  3  0  0  0  0  0  0
  189.3270  177.9510  143.1610 N   0  0  2  0  0  0  0  0  0  0  0  0
  191.2260  175.9880  143.9770 O   0  0  0  0  0  0  0  0  0  0  0  0
  188.4960  177.6310  141.0040 C   0  0  1  0  0  0  0  0  0  0  0  0
  192.0730  177.6050  145.3760 O   0  0  0  0  0  0  0  0  0  0  0  0
  186.2830  177.9470  141.6380 C   0  0  1  0  0  3  0  0  0  0  0  0
  188.4660  176.3690  141.6410 O   0  0  0  0  0  0  0  0  0  0  0  0
  187.5500  178.7610  141.5230 C   0  0  2  0  0  0  0  0  0  0  0  0
  190.6740  178.3710  143.5870 C   0  0  0  0  0  2  0  0  0  0  0  0
  189.1660  176.5150  142.8490 C   0  0  1  0  0  3  0  0  0  0  0  0
  190.4730  175.7130  142.8060 C   0  0  0  0  0  2  0  0  0  0  0  0
  186.8790  178.5080  142.7510 O   0  0  0  0  0  0  0  0  0  0  0  0
  188.0940  177.8350  138.4450 C   0  0  0  0  0  2  0  0  0  0  0  0
  189.0880  177.6930  139.5860 C   0  0  0  0  0  0  0  0  0  0  0  0
  188.9070  179.0340  138.8900 C   0  0  0  0  0  2  0  0  0  0  0  0
  192.8830  175.8690  138.6510 C   0  0  0  0  0  0  0  0  0  0  0  0
  191.5630  177.4680  139.8940 C   0  0  0  0  0  3  0  0  0  0  0  0
  189.0630  175.3040  137.5230 Cl  0  0  0  0  0  0  0  0  0  0  0  0
  194.4320  175.1480  138.2750 Cl  0  0  0  0  0  0  0  0  0  0  0  0
  192.8000  176.8960  139.5930 C   0  0  0  0  0  3  0  0  0  0  0  0
  190.4810  175.9650  138.3250 C   0  0  0  0  0  0  0  0  0  0  0  0
  190.3960  177.0230  139.2550 C   0  0  0  0  0  0  0  0  0  0  0  0
  191.7250  175.4010  138.0240 C   0  0  0  0  0  3  0  0  0  0  0  0
  185.0490  178.6860  141.3660 N   0  0  0  0  0  2  0  0  0  0  0  0
  183.8310  178.7420  142.1230 C   0  0  0  0  0  0  0  0  0  0  0  0
  182.6100  178.8580  144.2190 C   0  0  0  0  0  3  0  0  0  0  0  0
  183.8200  178.8350  143.5210 C   0  0  0  0  0  3  0  0  0  0  0  0
  181.4000  178.7930  143.5240 C   0  0  0  0  0  3  0  0  0  0  0  0
  181.4020  178.7010  142.1300 C   0  0  0  0  0  3  0  0  0  0  0  0
  182.6150  178.6730  141.4340 C   0  0  0  0  0  3  0  0  0  0  0  0
  1  6  2  0  0  0  0
  2  3  1  0  0  0  0
  3 10  1  0  0  0  0
  4  1  1  0  0  0  0
  5  9  1  0  0  0  0
  5  8  1  0  0  0  0
  5  2  1  0  0  0  0
  7 13  1  0  0  0  0
  8 11  1  0  0  0  0
  9  7  1  0  0  0  0
  9  2  1  0  0  0  0
  9 13  1  0  0  0  0
 10  1  1  0  0  0  0
 11  3  1  0  0  0  0
 12 11  1  0  0  0  0
 12  4  1  0  0  0  0
 14 16  1  0  0  0  0
 14 15  1  0  0  0  0
 15  5  1  0  0  0  0
 16 15  1  0  0  0  0
 17 21  1  0  0  0  0
 19 22  1  0  0  0  0
 20 17  1  0  0  0  0
 21 18  2  0  0  0  0
 22 23  2  0  0  0  0
 23 15  1  0  0  0  0
 23 18  1  0  0  0  0
 24 22  1  0  0  0  0
 24 17  2  0  0  0  0
 25  7  1  0  0  0  0
 25 26  1  0  0  0  0
 26 28  1  0  0  0  0
 28 27  2  0  0  0  0
 29 27  1  0  0  0  0
 30 29  2  0  0  0  0
 31 26  2  0  0  0  0
 31 30  1  0  0  0  0
M  END
>  <MODEL>
8

>  <REMARK>
 VINA RESULT:      -6.0      5.745      8.758
  Name = 
  4 active torsions:
  status: ('A' for Active; 'I' for Inactive)
    1  A    between atoms: C_5  and  N_30
    2  A    between atoms: C_9  and  C_15
    3  A    between atoms: C_9  and  C_22
    4  A    between atoms: C_17  and  N_30
                            x       y       z     vdW  Elec       q    Type
                         _______ _______ _______ _____ _____    ______ ____

>  <TORSDO>
F 4

$$$$
=
 OpenBabel10262419383D

 31 37  0  0  1  0  0  0  0  0999 V2000
  191.3440  177.4650  144.3940 C   0  0  0  0  0  0  0  0  0  0  0  0
  189.1320  178.5630  141.7350 C   0  0  1  0  0  3  0  0  0  0  0  0
  189.3520  178.0360  143.0700 N   0  0  2  0  0  0  0  0  0  0  0  0
  191.1510  176.1110  144.1600 O   0  0  0  0  0  0  0  0  0  0  0  0
  188.5280  177.4790  140.9590 C   0  0  1  0  0  0  0  0  0  0  0  0
  192.0560  177.8550  145.3550 O   0  0  0  0  0  0  0  0  0  0  0  0
  186.3260  177.9710  141.5130 C   0  0  1  0  0  3  0  0  0  0  0  0
  188.4340  176.3120  141.7510 O   0  0  0  0  0  0  0  0  0  0  0  0
  187.6290  178.7070  141.3150 C   0  0  2  0  0  0  0  0  0  0  0  0
  190.7120  178.4470  143.4610 C   0  0  0  0  0  2  0  0  0  0  0  0
  189.1280  176.5790  142.9410 C   0  0  1  0  0  3  0  0  0  0  0  0
  190.3980  175.7220  143.0210 C   0  0  0  0  0  2  0  0  0  0  0  0
  186.9350  178.6420  142.5550 O   0  0  0  0  0  0  0  0  0  0  0  0
  190.5450  177.8740  139.3690 C   0  0  0  0  0  2  0  0  0  0  0  0
  189.1370  177.3330  139.5540 C   0  0  0  0  0  0  0  0  0  0  0  0
  190.3200  176.3790  139.4800 C   0  0  0  0  0  2  0  0  0  0  0  0
  186.6650  177.1250  136.0260 C   0  0  0  0  0  0  0  0  0  0  0  0
  187.5050  176.1460  138.0700 C   0  0  0  0  0  3  0  0  0  0  0  0
  189.0670  179.8840  137.6970 Cl  0  0  0  0  0  0  0  0  0  0  0  0
  185.6660  177.0180  134.5940 Cl  0  0  0  0  0  0  0  0  0  0  0  0
  186.7090  176.0600  136.9270 C   0  0  0  0  0  3  0  0  0  0  0  0
  188.1950  178.3830  137.4260 C   0  0  0  0  0  0  0  0  0  0  0  0
  188.2670  177.2970  138.3250 C   0  0  0  0  0  0  0  0  0  0  0  0
  187.4010  178.2850  136.2790 C   0  0  0  0  0  3  0  0  0  0  0  0
  185.1300  178.7230  141.1300 N   0  0  0  0  0  2  0  0  0  0  0  0
  183.8300  178.7470  141.7390 C   0  0  0  0  0  0  0  0  0  0  0  0
  181.4050  178.6750  141.6270 C   0  0  0  0  0  3  0  0  0  0  0  0
  182.6510  178.6170  140.9950 C   0  0  0  0  0  3  0  0  0  0  0  0
  181.3310  178.8570  143.0100 C   0  0  0  0  0  3  0  0  0  0  0  0
  182.5030  178.9860  143.7590 C   0  0  0  0  0  3  0  0  0  0  0  0
  183.7470  178.9340  143.1230 C   0  0  0  0  0  3  0  0  0  0  0  0
  1  6  2  0  0  0  0
  2  3  1  0  0  0  0
  3 10  1  0  0  0  0
  4  1  1  0  0  0  0
  5  9  1  0  0  0  0
  5  2  1  0  0  0  0
  5  8  1  0  0  0  0
  7 13  1  0  0  0  0
  8 11  1  0  0  0  0
  9  7  1  0  0  0  0
  9  2  1  0  0  0  0
  9 13  1  0  0  0  0
 10  1  1  0  0  0  0
 11 12  1  0  0  0  0
 11  3  1  0  0  0  0
 12  4  1  0  0  0  0
 14 16  1  0  0  0  0
 14 15  1  0  0  0  0
 15  5  1  0  0  0  0
 16 15  1  0  0  0  0
 17 24  2  0  0  0  0
 17 21  1  0  0  0  0
 18 23  1  0  0  0  0
 20 17  1  0  0  0  0
 21 18  2  0  0  0  0
 22 19  1  0  0  0  0
 22 23  2  0  0  0  0
 23 15  1  0  0  0  0
 24 22  1  0  0  0  0
 25  7  1  0  0  0  0
 25 26  1  0  0  0  0
 26 31  1  0  0  0  0
 27 29  2  0  0  0  0
 28 27  1  0  0  0  0
 28 26  2  0  0  0  0
 29 30  1  0  0  0  0
 31 30  2  0  0  0  0
M  END
>  <MODEL>
9

>  <REMARK>
 VINA RESULT:      -6.0      4.469      7.600
  Name = 
  4 active torsions:
  status: ('A' for Active; 'I' for Inactive)
    1  A    between atoms: C_5  and  N_30
    2  A    between atoms: C_9  and  C_15
    3  A    between atoms: C_9  and  C_22
    4  A    between atoms: C_17  and  N_30
                            x       y       z     vdW  Elec       q    Type
                         _______ _______ _______ _____ _____    ______ ____

>  <TORSDO>
F 4

$$$$
