=
 OpenBabel10262420093D

 27 31  0  0  1  0  0  0  0  0999 V2000
  187.5180  178.5510  141.9810 O   0  0  0  0  0  0  0  0  0  0  0  0
  187.9500  177.5810  144.1220 C   0  0  0  0  0  0  0  0  0  0  0  0
  189.6510  176.5390  142.6250 N   0  0  0  0  0  2  0  0  0  0  0  0
  190.4530  177.0670  147.3820 N   0  0  0  0  0  0  0  0  0  0  0  0
  191.6710  176.4740  147.2690 C   0  0  0  0  0  0  0  0  0  0  0  0
  187.5880  177.9950  145.3720 N   0  0  0  0  0  0  0  0  0  0  0  0
  191.3030  176.1840  144.9040 C   0  0  0  0  0  3  0  0  0  0  0  0
  190.1550  177.2050  139.0090 C   0  0  0  0  0  0  0  0  0  0  0  0
  192.1180  176.0220  146.0240 C   0  0  0  0  0  3  0  0  0  0  0  0
  191.0490  176.7170  137.9280 C   0  0  0  0  0  1  0  0  0  0  0  0
  190.0470  176.7940  145.0310 C   0  0  0  0  0  0  0  0  0  0  0  0
  186.9880  177.7000  142.9810 C   0  0  1  0  0  3  0  0  0  0  0  0
  192.4930  176.3140  148.4170 N   0  0  0  0  0  1  0  0  0  0  0  0
  189.6410  177.2350  146.3050 C   0  0  0  0  0  0  0  0  0  0  0  0
  188.4570  178.1100  141.0510 C   0  0  0  0  0  0  0  0  0  0  0  0
  189.2080  176.9870  143.9180 C   0  0  0  0  0  0  0  0  0  0  0  0
  190.2260  176.6370  140.2820 C   0  0  0  0  0  3  0  0  0  0  0  0
  188.3980  177.8440  146.4510 C   0  0  0  0  0  3  0  0  0  0  0  0
  189.2660  178.2500  138.7640 C   0  0  0  0  0  3  0  0  0  0  0  0
  188.4230  178.6970  139.7810 C   0  0  0  0  0  3  0  0  0  0  0  0
  189.3980  177.0830  141.3200 C   0  0  0  0  0  0  0  0  0  0  0  0
  183.0390  178.9710  144.1160 C   0  0  0  0  0  3  0  0  0  0  0  0
  185.6190  178.1590  143.3890 C   0  0  0  0  0  0  0  0  0  0  0  0
  184.6240  178.2960  142.4150 C   0  0  0  0  0  3  0  0  0  0  0  0
  183.3370  178.7040  142.7770 C   0  0  0  0  0  3  0  0  0  0  0  0
  184.0280  178.8310  145.0950 C   0  0  0  0  0  3  0  0  0  0  0  0
  185.3150  178.4230  144.7330 C   0  0  0  0  0  3  0  0  0  0  0  0
  1 12  1  0  0  0  0
  2  6  1  0  0  0  0
  3 16  1  0  0  0  0
  5  4  1  0  0  0  0
  5 13  1  0  0  0  0
  6 18  2  0  0  0  0
  7 11  2  0  0  0  0
  7  9  1  0  0  0  0
  8 17  1  0  0  0  0
  9  5  2  0  0  0  0
 10  8  1  0  0  0  0
 11 14  1  0  0  0  0
 12 23  1  1  0  0  0
 12  2  1  0  0  0  0
 14 18  1  0  0  0  0
 14  4  2  0  0  0  0
 15 21  1  0  0  0  0
 15  1  1  0  0  0  0
 16  2  2  0  0  0  0
 16 11  1  0  0  0  0
 17 21  2  0  0  0  0
 19  8  2  0  0  0  0
 19 20  1  0  0  0  0
 20 15  2  0  0  0  0
 21  3  1  0  0  0  0
 22 26  1  0  0  0  0
 23 27  1  0  0  0  0
 24 25  1  0  0  0  0
 24 23  2  0  0  0  0
 25 22  2  0  0  0  0
 27 26  2  0  0  0  0
M  END
>  <MODEL>
1

>  <REMARK>
 VINA RESULT:     -11.4      0.000      0.000
  Name = 
  1 active torsions:
  status: ('A' for Active; 'I' for Inactive)
    1  A    between atoms: C_9  and  C_15
                            x       y       z     vdW  Elec       q    Type
                         _______ _______ _______ _____ _____    ______ ____

>  <TORSDO>
F 1

$$$$
=
 OpenBabel10262420093D

 27 31  0  0  1  0  0  0  0  0999 V2000
  186.8170  178.8220  140.5080 O   0  0  0  0  0  0  0  0  0  0  0  0
  186.1230  178.2110  142.7120 C   0  0  0  0  0  0  0  0  0  0  0  0
  188.3210  177.0690  142.4260 N   0  0  0  0  0  2  0  0  0  0  0  0
  186.6890  178.3500  146.8130 N   0  0  0  0  0  0  0  0  0  0  0  0
  187.7950  177.8260  147.4060 C   0  0  0  0  0  0  0  0  0  0  0  0
  185.2010  178.7840  143.5410 N   0  0  0  0  0  0  0  0  0  0  0  0
  188.6320  177.1650  145.2440 C   0  0  0  0  0  3  0  0  0  0  0  0
  190.5510  177.2200  139.4630 C   0  0  0  0  0  0  0  0  0  0  0  0
  188.7880  177.2240  146.6290 C   0  0  0  0  0  3  0  0  0  0  0  0
  191.8520  176.6340  139.0500 C   0  0  0  0  0  1  0  0  0  0  0  0
  187.4880  177.7050  144.6420 C   0  0  0  0  0  0  0  0  0  0  0  0
  185.8480  178.0980  141.2450 C   0  0  1  0  0  3  0  0  0  0  0  0
  187.9430  177.8930  148.8180 N   0  0  0  0  0  1  0  0  0  0  0  0
  186.5150  178.3040  145.4660 C   0  0  0  0  0  0  0  0  0  0  0  0
  188.0840  178.3080  140.2390 C   0  0  0  0  0  0  0  0  0  0  0  0
  187.3080  177.6750  143.2470 C   0  0  0  0  0  0  0  0  0  0  0  0
  189.9760  176.8540  140.6810 C   0  0  0  0  0  3  0  0  0  0  0  0
  185.3730  178.8470  144.8860 C   0  0  0  0  0  3  0  0  0  0  0  0
  189.9160  178.1570  138.6500 C   0  0  0  0  0  3  0  0  0  0  0  0
  188.6900  178.6960  139.0390 C   0  0  0  0  0  3  0  0  0  0  0  0
  188.7530  177.3950  141.0950 C   0  0  0  0  0  0  0  0  0  0  0  0
  181.8930  179.3030  140.0620 C   0  0  0  0  0  3  0  0  0  0  0  0
  184.4650  178.5240  140.8520 C   0  0  0  0  0  0  0  0  0  0  0  0
  184.2880  179.3060  139.7060 C   0  0  0  0  0  3  0  0  0  0  0  0
  183.0050  179.6970  139.3120 C   0  0  0  0  0  3  0  0  0  0  0  0
  182.0630  178.5170  141.2060 C   0  0  0  0  0  3  0  0  0  0  0  0
  183.3460  178.1250  141.6000 C   0  0  0  0  0  3  0  0  0  0  0  0
  1 12  1  0  0  0  0
  2 16  2  0  0  0  0
  2  6  1  0  0  0  0
  3 16  1  0  0  0  0
  4  5  1  0  0  0  0
  5 13  1  0  0  0  0
  6 18  2  0  0  0  0
  7  9  1  0  0  0  0
  8 17  1  0  0  0  0
  9  5  2  0  0  0  0
 10  8  1  0  0  0  0
 11  7  2  0  0  0  0
 11 14  1  0  0  0  0
 12 23  1  1  0  0  0
 12  2  1  0  0  0  0
 14  4  2  0  0  0  0
 15  1  1  0  0  0  0
 15 21  1  0  0  0  0
 16 11  1  0  0  0  0
 17 21  2  0  0  0  0
 18 14  1  0  0  0  0
 19 20  1  0  0  0  0
 19  8  2  0  0  0  0
 20 15  2  0  0  0  0
 21  3  1  0  0  0  0
 22 26  1  0  0  0  0
 23 27  1  0  0  0  0
 24 23  2  0  0  0  0
 25 24  1  0  0  0  0
 25 22  2  0  0  0  0
 26 27  2  0  0  0  0
M  END
>  <MODEL>
2

>  <REMARK>
 VINA RESULT:     -10.3      1.871      2.878
  Name = 
  1 active torsions:
  status: ('A' for Active; 'I' for Inactive)
    1  A    between atoms: C_9  and  C_15
                            x       y       z     vdW  Elec       q    Type
                         _______ _______ _______ _____ _____    ______ ____

>  <TORSDO>
F 1

$$$$
=
 OpenBabel10262420093D

 27 31  0  0  1  0  0  0  0  0999 V2000
  189.6910  178.2310  141.9540 O   0  0  0  0  0  0  0  0  0  0  0  0
  187.3660  178.0420  141.4300 C   0  0  0  0  0  0  0  0  0  0  0  0
  187.5100  177.3590  143.8240 N   0  0  0  0  0  2  0  0  0  0  0  0
  183.4560  179.2920  141.9840 N   0  0  0  0  0  0  0  0  0  0  0  0
  182.8250  179.1760  143.1830 C   0  0  0  0  0  0  0  0  0  0  0  0
  186.6400  178.5890  140.4110 N   0  0  0  0  0  0  0  0  0  0  0  0
  184.8180  178.2020  144.1290 C   0  0  0  0  0  3  0  0  0  0  0  0
  190.5560  177.2560  145.9410 C   0  0  0  0  0  0  0  0  0  0  0  0
  183.4980  178.6280  144.2780 C   0  0  0  0  0  3  0  0  0  0  0  0
  190.8990  176.8790  147.3360 C   0  0  0  0  0  1  0  0  0  0  0  0
  185.4590  178.3230  142.8890 C   0  0  0  0  0  0  0  0  0  0  0  0
  188.7460  177.5190  141.1760 C   0  0  1  0  0  3  0  0  0  0  0  0
  181.4800  179.6140  143.3240 N   0  0  0  0  0  1  0  0  0  0  0  0
  184.7410  178.8830  141.8140 C   0  0  0  0  0  0  0  0  0  0  0  0
  189.9080  177.9490  143.3010 C   0  0  0  0  0  0  0  0  0  0  0  0
  186.7940  177.9170  142.7090 C   0  0  0  0  0  0  0  0  0  0  0  0
  189.2530  177.0840  145.4720 C   0  0  0  0  0  3  0  0  0  0  0  0
  185.3610  179.0130  140.5750 C   0  0  0  0  0  3  0  0  0  0  0  0
  191.5260  177.8100  145.1080 C   0  0  0  0  0  3  0  0  0  0  0  0
  191.2010  178.1530  143.7960 C   0  0  0  0  0  3  0  0  0  0  0  0
  188.9040  177.4360  144.1620 C   0  0  0  0  0  0  0  0  0  0  0  0
  189.8540  177.5000  137.0210 C   0  0  0  0  0  3  0  0  0  0  0  0
  189.1410  177.5320  139.7290 C   0  0  0  0  0  0  0  0  0  0  0  0
  189.7320  176.3930  139.1700 C   0  0  0  0  0  3  0  0  0  0  0  0
  190.0900  176.3770  137.8190 C   0  0  0  0  0  3  0  0  0  0  0  0
  189.2590  178.6390  137.5720 C   0  0  0  0  0  3  0  0  0  0  0  0
  188.9010  178.6550  138.9230 C   0  0  0  0  0  3  0  0  0  0  0  0
  1 15  1  0  0  0  0
  2 16  1  0  0  0  0
  3 21  1  0  0  0  0
  4  5  2  0  0  0  0
  5 13  1  0  0  0  0
  5  9  1  0  0  0  0
  6 18  1  0  0  0  0
  6  2  2  0  0  0  0
  7  9  2  0  0  0  0
  8 10  1  0  0  0  0
 11  7  1  0  0  0  0
 12 23  1  6  0  0  0
 12  2  1  0  0  0  0
 12  1  1  0  0  0  0
 14  4  1  0  0  0  0
 14 11  1  0  0  0  0
 15 20  2  0  0  0  0
 15 21  1  0  0  0  0
 16 11  2  0  0  0  0
 16  3  1  0  0  0  0
 17  8  1  0  0  0  0
 18 14  2  0  0  0  0
 19  8  2  0  0  0  0
 20 19  1  0  0  0  0
 21 17  2  0  0  0  0
 22 26  2  0  0  0  0
 22 25  1  0  0  0  0
 24 23  1  0  0  0  0
 25 24  2  0  0  0  0
 26 27  1  0  0  0  0
 27 23  2  0  0  0  0
M  END
>  <MODEL>
3

>  <REMARK>
 VINA RESULT:     -10.3      2.190      6.874
  Name = 
  1 active torsions:
  status: ('A' for Active; 'I' for Inactive)
    1  A    between atoms: C_9  and  C_15
                            x       y       z     vdW  Elec       q    Type
                         _______ _______ _______ _____ _____    ______ ____

>  <TORSDO>
F 1

$$$$
=
 OpenBabel10262420093D

 27 31  0  0  1  0  0  0  0  0999 V2000
  189.5660  176.6330  142.6790 O   0  0  0  0  0  0  0  0  0  0  0  0
  187.8700  177.6760  144.0020 C   0  0  0  0  0  0  0  0  0  0  0  0
  187.5290  178.6180  141.7170 N   0  0  0  0  0  2  0  0  0  0  0  0
  183.8630  178.2590  144.8780 N   0  0  0  0  0  0  0  0  0  0  0  0
  183.0040  178.8180  143.9840 C   0  0  0  0  0  0  0  0  0  0  0  0
  187.3440  177.3200  145.2100 N   0  0  0  0  0  0  0  0  0  0  0  0
  184.8030  179.0220  142.3920 C   0  0  0  0  0  3  0  0  0  0  0  0
  189.4510  177.7980  138.6510 C   0  0  0  0  0  0  0  0  0  0  0  0
  183.4610  179.2090  142.7230 C   0  0  0  0  0  3  0  0  0  0  0  0
  189.4600  178.2210  137.2270 C   0  0  0  0  0  1  0  0  0  0  0  0
  185.6820  178.4480  143.3210 C   0  0  0  0  0  0  0  0  0  0  0  0
  189.3380  177.5350  143.7470 C   0  0  1  0  0  3  0  0  0  0  0  0
  181.6380  179.0030  144.3320 N   0  0  0  0  0  1  0  0  0  0  0  0
  185.1750  178.0670  144.5790 C   0  0  0  0  0  0  0  0  0  0  0  0
  189.4430  177.0150  141.3450 C   0  0  0  0  0  0  0  0  0  0  0  0
  187.0380  178.2320  143.0120 C   0  0  0  0  0  0  0  0  0  0  0  0
  188.5850  178.4130  139.5560 C   0  0  0  0  0  3  0  0  0  0  0  0
  186.0320  177.4940  145.5130 C   0  0  0  0  0  3  0  0  0  0  0  0
  190.2840  176.7660  139.0780 C   0  0  0  0  0  3  0  0  0  0  0  0
  190.2780  176.3790  140.4190 C   0  0  0  0  0  3  0  0  0  0  0  0
  188.5540  178.0290  140.9020 C   0  0  0  0  0  0  0  0  0  0  0  0
  191.6470  176.3780  147.1860 C   0  0  0  0  0  3  0  0  0  0  0  0
  190.1260  177.1250  144.9570 C   0  0  0  0  0  0  0  0  0  0  0  0
  191.2970  176.3780  144.7910 C   0  0  0  0  0  3  0  0  0  0  0  0
  192.0550  176.0030  145.9030 C   0  0  0  0  0  3  0  0  0  0  0  0
  190.4800  177.1290  147.3580 C   0  0  0  0  0  3  0  0  0  0  0  0
  189.7220  177.5040  146.2450 C   0  0  0  0  0  3  0  0  0  0  0  0
  1 12  1  0  0  0  0
  2  6  1  0  0  0  0
  3 16  1  0  0  0  0
  5 13  1  0  0  0  0
  5  4  2  0  0  0  0
  6 18  2  0  0  0  0
  7  9  2  0  0  0  0
  7 11  1  0  0  0  0
  8 19  2  0  0  0  0
  8 17  1  0  0  0  0
  9  5  1  0  0  0  0
 10  8  1  0  0  0  0
 11 14  2  0  0  0  0
 12  2  1  0  0  0  0
 12 23  1  1  0  0  0
 14  4  1  0  0  0  0
 14 18  1  0  0  0  0
 15  1  1  0  0  0  0
 16 11  1  0  0  0  0
 16  2  2  0  0  0  0
 17 21  2  0  0  0  0
 19 20  1  0  0  0  0
 20 15  2  0  0  0  0
 21 15  1  0  0  0  0
 21  3  1  0  0  0  0
 22 26  1  0  0  0  0
 23 27  1  0  0  0  0
 24 23  2  0  0  0  0
 24 25  1  0  0  0  0
 25 22  2  0  0  0  0
 27 26  2  0  0  0  0
M  END
>  <MODEL>
4

>  <REMARK>
 VINA RESULT:     -10.0      1.718      5.729
  Name = 
  1 active torsions:
  status: ('A' for Active; 'I' for Inactive)
    1  A    between atoms: C_9  and  C_15
                            x       y       z     vdW  Elec       q    Type
                         _______ _______ _______ _____ _____    ______ ____

>  <TORSDO>
F 1

$$$$
=
 OpenBabel10262420093D

 27 31  0  0  1  0  0  0  0  0999 V2000
  186.8040  177.4520  143.1830 O   0  0  0  0  0  0  0  0  0  0  0  0
  188.1020  177.8930  141.2250 C   0  0  0  0  0  0  0  0  0  0  0  0
  189.7160  178.1810  143.1050 N   0  0  0  0  0  2  0  0  0  0  0  0
  191.2010  176.8660  138.6760 N   0  0  0  0  0  0  0  0  0  0  0  0
  192.4960  176.8390  139.0900 C   0  0  0  0  0  0  0  0  0  0  0  0
  187.8740  177.5680  139.9190 N   0  0  0  0  0  0  0  0  0  0  0  0
  191.7960  177.5030  141.2990 C   0  0  0  0  0  3  0  0  0  0  0  0
  189.0360  177.7260  146.7240 C   0  0  0  0  0  0  0  0  0  0  0  0
  192.8160  177.1580  140.4120 C   0  0  0  0  0  3  0  0  0  0  0  0
  189.7900  177.8540  147.9980 C   0  0  0  0  0  1  0  0  0  0  0  0
  190.4650  177.5300  140.8630 C   0  0  0  0  0  0  0  0  0  0  0  0
  186.9730  178.3460  142.0970 C   0  0  1  0  0  3  0  0  0  0  0  0
  193.5270  176.4850  138.1770 N   0  0  0  0  0  1  0  0  0  0  0  0
  190.1910  177.1990  139.5210 C   0  0  0  0  0  0  0  0  0  0  0  0
  187.6090  177.5040  144.3190 C   0  0  0  0  0  0  0  0  0  0  0  0
  189.4120  177.8590  141.7370 C   0  0  0  0  0  0  0  0  0  0  0  0
  189.6450  178.0660  145.5150 C   0  0  0  0  0  3  0  0  0  0  0  0
  188.8750  177.2190  139.0700 C   0  0  0  0  0  3  0  0  0  0  0  0
  187.7300  177.2390  146.7320 C   0  0  0  0  0  3  0  0  0  0  0  0
  187.0230  177.1290  145.5340 C   0  0  0  0  0  3  0  0  0  0  0  0
  188.9560  177.9490  144.3020 C   0  0  0  0  0  0  0  0  0  0  0  0
  183.2360  178.9030  140.0420 C   0  0  0  0  0  3  0  0  0  0  0  0
  185.6770  178.5300  141.3630 C   0  0  0  0  0  0  0  0  0  0  0  0
  184.4730  178.2530  142.0190 C   0  0  0  0  0  3  0  0  0  0  0  0
  183.2540  178.4360  141.3600 C   0  0  0  0  0  3  0  0  0  0  0  0
  184.4360  179.1860  139.3830 C   0  0  0  0  0  3  0  0  0  0  0  0
  185.6550  179.0030  140.0420 C   0  0  0  0  0  3  0  0  0  0  0  0
  1 15  1  0  0  0  0
  2 16  1  0  0  0  0
  2 12  1  0  0  0  0
  3 21  1  0  0  0  0
  4  5  2  0  0  0  0
  4 14  1  0  0  0  0
  5  9  1  0  0  0  0
  6  2  2  0  0  0  0
  8 19  1  0  0  0  0
  8 10  1  0  0  0  0
  9  7  2  0  0  0  0
 11  7  1  0  0  0  0
 11 16  2  0  0  0  0
 12 23  1  6  0  0  0
 12  1  1  0  0  0  0
 13  5  1  0  0  0  0
 14 11  1  0  0  0  0
 15 20  1  0  0  0  0
 16  3  1  0  0  0  0
 17  8  2  0  0  0  0
 18 14  2  0  0  0  0
 18  6  1  0  0  0  0
 20 19  2  0  0  0  0
 21 15  2  0  0  0  0
 21 17  1  0  0  0  0
 22 25  1  0  0  0  0
 23 24  1  0  0  0  0
 25 24  2  0  0  0  0
 26 27  1  0  0  0  0
 26 22  2  0  0  0  0
 27 23  2  0  0  0  0
M  END
>  <MODEL>
5

>  <REMARK>
 VINA RESULT:      -9.8      2.291      5.673
  Name = 
  1 active torsions:
  status: ('A' for Active; 'I' for Inactive)
    1  A    between atoms: C_9  and  C_15
                            x       y       z     vdW  Elec       q    Type
                         _______ _______ _______ _____ _____    ______ ____

>  <TORSDO>
F 1

$$$$
=
 OpenBabel10262420093D

 27 31  0  0  1  0  0  0  0  0999 V2000
  189.5650  176.7380  141.3600 O   0  0  0  0  0  0  0  0  0  0  0  0
  187.8550  177.8170  142.6350 C   0  0  0  0  0  0  0  0  0  0  0  0
  187.4770  178.6200  140.3050 N   0  0  0  0  0  2  0  0  0  0  0  0
  183.8430  178.3590  143.5110 N   0  0  0  0  0  0  0  0  0  0  0  0
  182.9650  178.8480  142.5950 C   0  0  0  0  0  0  0  0  0  0  0  0
  187.3460  177.5180  143.8660 N   0  0  0  0  0  0  0  0  0  0  0  0
  184.7480  179.0010  140.9790 C   0  0  0  0  0  3  0  0  0  0  0  0
  189.3950  177.6710  137.2730 C   0  0  0  0  0  0  0  0  0  0  0  0
  183.4040  179.1770  141.3100 C   0  0  0  0  0  3  0  0  0  0  0  0
  189.3850  178.0130  135.8280 C   0  0  0  0  0  1  0  0  0  0  0  0
  185.6460  178.5000  141.9310 C   0  0  0  0  0  0  0  0  0  0  0  0
  189.3250  177.6930  142.3770 C   0  0  1  0  0  3  0  0  0  0  0  0
  181.5980  179.0220  142.9430 N   0  0  0  0  0  1  0  0  0  0  0  0
  185.1570  178.1800  143.2120 C   0  0  0  0  0  0  0  0  0  0  0  0
  189.4240  177.0410  140.0070 C   0  0  0  0  0  0  0  0  0  0  0  0
  187.0030  178.2970  141.6240 C   0  0  0  0  0  0  0  0  0  0  0  0
  188.5220  178.3170  138.1500 C   0  0  0  0  0  3  0  0  0  0  0  0
  186.0330  177.6800  144.1700 C   0  0  0  0  0  3  0  0  0  0  0  0
  190.2540  176.6830  137.7510 C   0  0  0  0  0  3  0  0  0  0  0  0
  190.2660  176.3720  139.1120 C   0  0  0  0  0  3  0  0  0  0  0  0
  188.5100  178.0080  139.5150 C   0  0  0  0  0  0  0  0  0  0  0  0
  191.6800  176.7530  145.8500 C   0  0  0  0  0  3  0  0  0  0  0  0
  190.1290  177.3700  143.6010 C   0  0  0  0  0  0  0  0  0  0  0  0
  190.9060  176.2060  143.6220 C   0  0  0  0  0  3  0  0  0  0  0  0
  191.6790  175.8970  144.7450 C   0  0  0  0  0  3  0  0  0  0  0  0
  190.9100  177.9200  145.8330 C   0  0  0  0  0  3  0  0  0  0  0  0
  190.1380  178.2300  144.7100 C   0  0  0  0  0  3  0  0  0  0  0  0
  1 12  1  0  0  0  0
  2  6  1  0  0  0  0
  3 16  1  0  0  0  0
  5 13  1  0  0  0  0
  5  4  2  0  0  0  0
  6 18  2  0  0  0  0
  7  9  2  0  0  0  0
  7 11  1  0  0  0  0
  8 19  2  0  0  0  0
  8 17  1  0  0  0  0
  9  5  1  0  0  0  0
 10  8  1  0  0  0  0
 11 14  2  0  0  0  0
 12  2  1  0  0  0  0
 12 23  1  1  0  0  0
 14  4  1  0  0  0  0
 14 18  1  0  0  0  0
 15  1  1  0  0  0  0
 16 11  1  0  0  0  0
 16  2  2  0  0  0  0
 17 21  2  0  0  0  0
 19 20  1  0  0  0  0
 20 15  2  0  0  0  0
 21 15  1  0  0  0  0
 21  3  1  0  0  0  0
 23 24  2  0  0  0  0
 23 27  1  0  0  0  0
 24 25  1  0  0  0  0
 25 22  2  0  0  0  0
 26 22  1  0  0  0  0
 27 26  2  0  0  0  0
M  END
>  <MODEL>
6

>  <REMARK>
 VINA RESULT:      -9.8      2.152      5.960
  Name = 
  1 active torsions:
  status: ('A' for Active; 'I' for Inactive)
    1  A    between atoms: C_9  and  C_15
                            x       y       z     vdW  Elec       q    Type
                         _______ _______ _______ _____ _____    ______ ____

>  <TORSDO>
F 1

$$$$
=
 OpenBabel10262420093D

 27 31  0  0  1  0  0  0  0  0999 V2000
  188.0400  178.2190  145.0780 O   0  0  0  0  0  0  0  0  0  0  0  0
  189.1260  177.3810  143.1200 C   0  0  0  0  0  0  0  0  0  0  0  0
  186.7250  177.5410  142.4650 N   0  0  0  0  0  2  0  0  0  0  0  0
  190.2730  177.8770  139.1710 N   0  0  0  0  0  0  0  0  0  0  0  0
  189.3640  178.0160  138.1680 C   0  0  0  0  0  0  0  0  0  0  0  0
  190.4420  177.4080  142.7570 N   0  0  0  0  0  0  0  0  0  0  0  0
  187.5750  177.8420  139.7750 C   0  0  0  0  0  3  0  0  0  0  0  0
  183.9140  178.7680  144.5550 C   0  0  0  0  0  0  0  0  0  0  0  0
  187.9970  178.0020  138.4550 C   0  0  0  0  0  3  0  0  0  0  0  0
  182.4450  178.9360  144.4120 C   0  0  0  0  0  1  0  0  0  0  0  0
  188.5190  177.6970  140.8010 C   0  0  0  0  0  0  0  0  0  0  0  0
  188.7430  177.1120  144.5420 C   0  0  1  0  0  3  0  0  0  0  0  0
  189.8060  178.1790  136.8270 N   0  0  0  0  0  1  0  0  0  0  0  0
  189.8860  177.7200  140.4640 C   0  0  0  0  0  0  0  0  0  0  0  0
  186.6860  178.4320  144.8270 C   0  0  0  0  0  0  0  0  0  0  0  0
  188.1270  177.5500  142.1440 C   0  0  0  0  0  0  0  0  0  0  0  0
  184.6530  178.1820  143.5260 C   0  0  0  0  0  3  0  0  0  0  0  0
  190.8380  177.5790  141.4690 C   0  0  0  0  0  3  0  0  0  0  0  0
  184.5620  179.2230  145.7020 C   0  0  0  0  0  3  0  0  0  0  0  0
  185.9400  179.0540  145.8340 C   0  0  0  0  0  3  0  0  0  0  0  0
  186.0390  178.0180  143.6340 C   0  0  0  0  0  0  0  0  0  0  0  0
  192.0240  176.0510  147.1110 C   0  0  0  0  0  3  0  0  0  0  0  0
  189.9010  176.7490  145.4230 C   0  0  0  0  0  0  0  0  0  0  0  0
  189.8720  177.1090  146.7750 C   0  0  0  0  0  3  0  0  0  0  0  0
  190.9330  176.7630  147.6180 C   0  0  0  0  0  3  0  0  0  0  0  0
  192.0560  175.6840  145.7620 C   0  0  0  0  0  3  0  0  0  0  0  0
  190.9950  176.0300  144.9200 C   0  0  0  0  0  3  0  0  0  0  0  0
  2 12  1  0  0  0  0
  3 21  1  0  0  0  0
  4 14  1  0  0  0  0
  5  9  1  0  0  0  0
  5  4  2  0  0  0  0
  6  2  1  0  0  0  0
  7 11  1  0  0  0  0
  8 19  1  0  0  0  0
  9  7  2  0  0  0  0
 10  8  1  0  0  0  0
 11 16  1  0  0  0  0
 12  1  1  0  0  0  0
 12 23  1  1  0  0  0
 13  5  1  0  0  0  0
 14 11  2  0  0  0  0
 14 18  1  0  0  0  0
 15  1  1  0  0  0  0
 15 20  1  0  0  0  0
 16  3  1  0  0  0  0
 16  2  2  0  0  0  0
 17 21  1  0  0  0  0
 17  8  2  0  0  0  0
 18  6  2  0  0  0  0
 19 20  2  0  0  0  0
 21 15  2  0  0  0  0
 22 25  1  0  0  0  0
 23 24  1  0  0  0  0
 24 25  2  0  0  0  0
 26 22  2  0  0  0  0
 27 23  2  0  0  0  0
 27 26  1  0  0  0  0
M  END
>  <MODEL>
7

>  <REMARK>
 VINA RESULT:      -9.8      1.970      6.975
  Name = 
  1 active torsions:
  status: ('A' for Active; 'I' for Inactive)
    1  A    between atoms: C_9  and  C_15
                            x       y       z     vdW  Elec       q    Type
                         _______ _______ _______ _____ _____    ______ ____

>  <TORSDO>
F 1

$$$$
=
 OpenBabel10262420093D

 27 31  0  0  1  0  0  0  0  0999 V2000
  188.2250  177.0530  143.3910 O   0  0  0  0  0  0  0  0  0  0  0  0
  186.1500  178.2350  143.5050 C   0  0  0  0  0  0  0  0  0  0  0  0
  186.9630  178.6500  141.1840 N   0  0  0  0  0  2  0  0  0  0  0  0
  182.2310  178.7200  142.2560 N   0  0  0  0  0  0  0  0  0  0  0  0
  181.9170  179.0200  140.9670 C   0  0  0  0  0  0  0  0  0  0  0  0
  185.1040  178.1070  144.3720 N   0  0  0  0  0  0  0  0  0  0  0  0
  184.2600  179.0050  140.4000 C   0  0  0  0  0  3  0  0  0  0  0  0
  190.0670  177.3340  139.6330 C   0  0  0  0  0  0  0  0  0  0  0  0
  182.9290  179.1670  140.0160 C   0  0  0  0  0  3  0  0  0  0  0  0
  190.7630  177.4480  138.3250 C   0  0  0  0  0  1  0  0  0  0  0  0
  184.5740  178.6990  141.7310 C   0  0  0  0  0  0  0  0  0  0  0  0
  187.5590  178.1420  144.0040 C   0  0  1  0  0  3  0  0  0  0  0  0
  180.5570  179.1820  140.5870 N   0  0  0  0  0  1  0  0  0  0  0  0
  183.5200  178.5580  142.6550 C   0  0  0  0  0  0  0  0  0  0  0  0
  188.7600  177.1360  142.1070 C   0  0  0  0  0  0  0  0  0  0  0  0
  185.9050  178.5130  142.1480 C   0  0  0  0  0  0  0  0  0  0  0  0
  188.9030  178.0670  139.8700 C   0  0  0  0  0  3  0  0  0  0  0  0
  183.8120  178.2530  143.9810 C   0  0  0  0  0  3  0  0  0  0  0  0
  190.5570  176.4730  140.6120 C   0  0  0  0  0  3  0  0  0  0  0  0
  189.9050  176.3770  141.8420 C   0  0  0  0  0  3  0  0  0  0  0  0
  188.2270  177.9730  141.0930 C   0  0  0  0  0  0  0  0  0  0  0  0
  187.9270  177.8930  148.2820 C   0  0  0  0  0  3  0  0  0  0  0  0
  187.6670  178.0490  145.4980 C   0  0  0  0  0  0  0  0  0  0  0  0
  188.7690  177.4000  146.0660 C   0  0  0  0  0  3  0  0  0  0  0  0
  188.8980  177.3200  147.4550 C   0  0  0  0  0  3  0  0  0  0  0  0
  186.8270  178.5480  147.7200 C   0  0  0  0  0  3  0  0  0  0  0  0
  186.6980  178.6280  146.3300 C   0  0  0  0  0  3  0  0  0  0  0  0
  1 12  1  0  0  0  0
  2 12  1  0  0  0  0
  2  6  1  0  0  0  0
  3 16  1  0  0  0  0
  4 14  1  0  0  0  0
  5  4  2  0  0  0  0
  7 11  1  0  0  0  0
  8 17  2  0  0  0  0
  8 19  1  0  0  0  0
  9  7  2  0  0  0  0
  9  5  1  0  0  0  0
 10  8  1  0  0  0  0
 11 16  1  0  0  0  0
 11 14  2  0  0  0  0
 12 23  1  1  0  0  0
 13  5  1  0  0  0  0
 14 18  1  0  0  0  0
 15  1  1  0  0  0  0
 16  2  2  0  0  0  0
 17 21  1  0  0  0  0
 18  6  2  0  0  0  0
 19 20  2  0  0  0  0
 20 15  1  0  0  0  0
 21  3  1  0  0  0  0
 21 15  2  0  0  0  0
 23 24  2  0  0  0  0
 23 27  1  0  0  0  0
 24 25  1  0  0  0  0
 25 22  2  0  0  0  0
 26 22  1  0  0  0  0
 27 26  2  0  0  0  0
M  END
>  <MODEL>
8

>  <REMARK>
 VINA RESULT:      -9.6      2.650      6.135
  Name = 
  1 active torsions:
  status: ('A' for Active; 'I' for Inactive)
    1  A    between atoms: C_9  and  C_15
                            x       y       z     vdW  Elec       q    Type
                         _______ _______ _______ _____ _____    ______ ____

>  <TORSDO>
F 1

$$$$
=
 OpenBabel10262420093D

 27 31  0  0  1  0  0  0  0  0999 V2000
  190.1760  177.9740  142.6940 O   0  0  0  0  0  0  0  0  0  0  0  0
  188.4230  177.7450  141.0850 C   0  0  0  0  0  0  0  0  0  0  0  0
  187.2980  177.3450  143.2750 N   0  0  0  0  0  2  0  0  0  0  0  0
  184.8570  179.0860  139.4590 N   0  0  0  0  0  0  0  0  0  0  0  0
  183.7030  179.1160  140.1780 C   0  0  0  0  0  0  0  0  0  0  0  0
  188.3450  178.1760  139.7920 N   0  0  0  0  0  0  0  0  0  0  0  0
  184.8810  178.2420  142.0910 C   0  0  0  0  0  3  0  0  0  0  0  0
  188.8530  177.4620  146.6420 C   0  0  0  0  0  0  0  0  0  0  0  0
  183.6960  178.6940  141.5090 C   0  0  0  0  0  3  0  0  0  0  0  0
  188.4230  177.2470  148.0470 C   0  0  0  0  0  1  0  0  0  0  0  0
  186.0640  178.2110  141.3410 C   0  0  0  0  0  0  0  0  0  0  0  0
  189.7050  177.1840  141.6170 C   0  0  1  0  0  3  0  0  0  0  0  0
  182.5020  179.5800  139.5750 N   0  0  0  0  0  1  0  0  0  0  0  0
  186.0230  178.6490  140.0030 C   0  0  0  0  0  0  0  0  0  0  0  0
  189.6670  177.8490  143.9850 C   0  0  0  0  0  0  0  0  0  0  0  0
  187.2780  177.7760  141.9030 C   0  0  0  0  0  0  0  0  0  0  0  0
  187.9540  177.2480  145.5960 C   0  0  0  0  0  3  0  0  0  0  0  0
  187.1880  178.6280  139.2430 C   0  0  0  0  0  3  0  0  0  0  0  0
  190.1450  177.9060  146.3670 C   0  0  0  0  0  3  0  0  0  0  0  0
  190.5470  178.0980  145.0450 C   0  0  0  0  0  3  0  0  0  0  0  0
  188.3350  177.4490  144.2640 C   0  0  0  0  0  0  0  0  0  0  0  0
  192.8070  176.7070  138.6780 C   0  0  0  0  0  3  0  0  0  0  0  0
  190.7740  177.0240  140.5760 C   0  0  0  0  0  0  0  0  0  0  0  0
  192.0620  177.5030  140.8390 C   0  0  0  0  0  3  0  0  0  0  0  0
  193.0770  177.3470  139.8910 C   0  0  0  0  0  3  0  0  0  0  0  0
  191.5230  176.2220  138.4120 C   0  0  0  0  0  3  0  0  0  0  0  0
  190.5080  176.3780  139.3600 C   0  0  0  0  0  3  0  0  0  0  0  0
  1 15  1  0  0  0  0
  2 12  1  0  0  0  0
  2 16  1  0  0  0  0
  3 21  1  0  0  0  0
  4 14  1  0  0  0  0
  4  5  2  0  0  0  0
  5  9  1  0  0  0  0
  6  2  2  0  0  0  0
  8 10  1  0  0  0  0
  9  7  2  0  0  0  0
 11 16  2  0  0  0  0
 11  7  1  0  0  0  0
 12 23  1  6  0  0  0
 12  1  1  0  0  0  0
 13  5  1  0  0  0  0
 14 11  1  0  0  0  0
 15 21  2  0  0  0  0
 15 20  1  0  0  0  0
 16  3  1  0  0  0  0
 17  8  2  0  0  0  0
 18  6  1  0  0  0  0
 18 14  2  0  0  0  0
 19  8  1  0  0  0  0
 20 19  2  0  0  0  0
 21 17  1  0  0  0  0
 22 25  1  0  0  0  0
 23 24  1  0  0  0  0
 25 24  2  0  0  0  0
 26 22  2  0  0  0  0
 26 27  1  0  0  0  0
 27 23  2  0  0  0  0
M  END
>  <MODEL>
9

>  <REMARK>
 VINA RESULT:      -9.6      2.543      7.662
  Name = 
  1 active torsions:
  status: ('A' for Active; 'I' for Inactive)
    1  A    between atoms: C_9  and  C_15
                            x       y       z     vdW  Elec       q    Type
                         _______ _______ _______ _____ _____    ______ ____

>  <TORSDO>
F 1

$$$$
