=
 OpenBabel10262422133D

 43 47  0  0  1  0  0  0  0  0999 V2000
  187.5660  177.7410  147.5230 C   0  0  0  0  0  0  0  0  0  0  0  0
  187.3250  178.0030  142.4790 C   0  0  0  0  0  0  0  0  0  0  0  0
  184.8820  179.1450  141.6560 C   0  0  1  0  0  3  0  0  0  0  0  0
  188.0220  177.5200  145.1550 C   0  0  0  0  0  0  0  0  0  0  0  0
  186.3790  178.4190  147.2350 C   0  0  0  0  0  3  0  0  0  0  0  0
  187.9310  177.5130  148.8430 O   0  0  0  0  0  1  0  0  0  0  0  0
  186.8180  178.2000  144.8530 C   0  0  0  0  0  0  0  0  0  0  0  0
  188.3850  177.2930  146.4860 C   0  0  0  0  0  3  0  0  0  0  0  0
  186.0060  178.6480  145.9080 C   0  0  0  0  0  3  0  0  0  0  0  0
  185.1460  179.0780  143.1640 C   0  0  0  0  0  2  0  0  0  0  0  0
  186.4530  178.4120  143.5070 C   0  0  0  0  0  0  0  0  0  0  0  0
  188.5010  177.3080  142.7960 C   0  0  0  0  0  3  0  0  0  0  0  0
  186.9140  178.2140  141.0370 C   0  0  1  0  0  3  0  0  0  0  0  0
  186.0550  179.3250  140.8840 O   0  0  0  0  0  0  0  0  0  0  0  0
  188.8500  177.0730  144.1270 C   0  0  0  0  0  3  0  0  0  0  0  0
  183.8920  178.1020  141.1160 C   0  0  1  0  0  3  0  0  0  0  0  0
  182.5250  178.3350  141.7430 C   0  0  0  0  0  1  0  0  0  0  0  0
  183.8070  178.1330  139.6570 N   0  0  0  0  0  2  0  0  0  0  0  0
  182.5520  178.7720  139.2720 C   0  0  1  0  0  3  0  0  0  0  0  0
  182.8420  180.1530  138.7140 C   0  0  0  0  0  1  0  0  0  0  0  0
  181.8450  177.9580  138.1890 C   0  0  0  0  0  2  0  0  0  0  0  0
  181.6530  176.4840  138.5540 C   0  0  1  0  0  3  0  0  0  0  0  0
  179.9520  174.2910  138.2610 C   0  0  0  0  0  2  0  0  0  0  0  0
  180.2650  176.2990  139.1840 C   0  0  0  0  0  2  0  0  0  0  0  0
  181.8530  175.5940  137.3810 N   0  0  0  0  0  0  0  0  0  0  0  0
  181.3370  174.2400  137.6320 C   0  0  0  0  0  2  0  0  0  0  0  0
  180.0400  174.9510  139.4930 O   0  0  0  0  0  0  0  0  0  0  0  0
  183.2750  175.4100  137.0460 C   0  0  0  0  0  3  0  0  0  0  0  0
  183.6570  175.7010  135.5860 C   0  0  0  0  0  2  0  0  0  0  0  0
  185.5390  176.9860  134.8840 O   0  0  0  0  0  1  0  0  0  0  0  0
  184.2710  177.0840  135.4540 C   0  0  0  0  0  2  0  0  0  0  0  0
  183.8750  174.1350  137.6470 C   0  0  0  0  0  2  0  0  0  0  0  0
  185.9370  172.9880  137.9800 O   0  0  0  0  0  1  0  0  0  0  0  0
  185.2420  173.7920  137.0750 C   0  0  0  0  0  2  0  0  0  0  0  0
  188.1040  178.3380  140.0790 C   0  0  0  0  0  2  0  0  0  0  0  0
  190.3170  177.4210  137.6970 C   0  0  0  0  0  2  0  0  0  0  0  0
  189.3450  176.6620  136.3630 P   0  0  1  0  0  0  0  0  0  0  0  0
  189.1060  177.7720  135.1120 O   0  0  0  0  0  0  0  0  0  0  0  0
  187.5100  177.1930  137.9420 C   0  0  0  0  0  2  0  0  0  0  0  0
  189.8210  176.8340  139.0130 C   0  0  0  0  0  2  0  0  0  0  0  0
  188.3160  177.0790  139.2470 C   0  0  1  0  0  3  0  0  0  0  0  0
  190.0760  175.4460  135.8360 O   0  0  0  0  0  1  0  0  0  0  0  0
  187.8530  176.1870  137.0260 O   0  0  0  0  0  0  0  0  0  0  0  0
  1  6  1  0  0  0  0
  2 12  2  0  0  0  0
  2 11  1  0  0  0  0
  3 16  1  6  0  0  0
  3 10  1  0  0  0  0
  4  8  1  0  0  0  0
  5  1  1  0  0  0  0
  7  4  1  0  0  0  0
  7  9  1  0  0  0  0
  8  1  2  0  0  0  0
  9  5  2  0  0  0  0
 10 11  1  0  0  0  0
 11  7  2  0  0  0  0
 12 15  1  0  0  0  0
 13 35  1  6  0  0  0
 13  2  1  0  0  0  0
 14 13  1  0  0  0  0
 14  3  1  0  0  0  0
 15  4  2  0  0  0  0
 16 17  1  1  0  0  0
 18 16  1  0  0  0  0
 19 20  1  6  0  0  0
 19 18  1  0  0  0  0
 21 19  1  0  0  0  0
 22 21  1  6  0  0  0
 22 24  1  0  0  0  0
 23 27  1  0  0  0  0
 24 27  1  0  0  0  0
 25 26  1  0  0  0  0
 25 22  1  0  0  0  0
 26 23  1  0  0  0  0
 28 25  1  0  0  0  0
 28 32  1  0  0  0  0
 29 28  1  0  0  0  0
 30 31  1  0  0  0  0
 31 29  1  0  0  0  0
 34 32  1  0  0  0  0
 34 33  1  0  0  0  0
 36 40  1  0  0  0  0
 37 38  2  6  0  0  0
 37 43  1  0  0  0  0
 37 36  1  0  0  0  0
 39 41  1  0  0  0  0
 40 41  1  0  0  0  0
 41 35  1  6  0  0  0
 42 37  1  0  0  0  0
 43 39  1  0  0  0  0
M  END
>  <MODEL>
1

>  <REMARK>
 VINA RESULT:      -7.6      0.000      0.000
  Name = 
  12 active torsions:
  status: ('A' for Active; 'I' for Inactive)
    1  A    between atoms: C_1  and  C_34
    2  A    between atoms: C_1  and  C_35
    3  A    between atoms: C_2  and  N_6
    4  A    between atoms: C_2  and  C_13
    5  A    between atoms: C_3  and  C_4
    6  A    between atoms: C_3  and  C_12
    7  A    between atoms: N_6  and  C_12
    8  A    between atoms: C_11  and  C_14
    9  A    between atoms: C_11  and  C_36
   10  A    between atoms: C_14  and  N_22
   11  A    between atoms: C_14  and  C_40
   12  A    between atoms: C_31  and  C_40
                            x       y       z     vdW  Elec       q    Type
                         _______ _______ _______ _____ _____    ______ ____

>  <TORSDO>
F 12

$$$$
=
 OpenBabel10262422133D

 43 47  0  0  1  0  0  0  0  0999 V2000
  192.1800  176.2940  147.9580 C   0  0  0  0  0  0  0  0  0  0  0  0
  188.7720  177.3050  144.3610 C   0  0  0  0  0  0  0  0  0  0  0  0
  189.5770  176.2110  141.8910 C   0  0  1  0  0  3  0  0  0  0  0  0
  190.2780  177.1470  146.7250 C   0  0  0  0  0  0  0  0  0  0  0  0
  192.6190  175.6150  146.8180 C   0  0  0  0  0  3  0  0  0  0  0  0
  192.9060  176.2080  149.1380 O   0  0  0  0  0  1  0  0  0  0  0  0
  190.7190  176.4690  145.5640 C   0  0  0  0  0  0  0  0  0  0  0  0
  191.0130  177.0580  147.9120 C   0  0  0  0  0  3  0  0  0  0  0  0
  191.8930  175.7010  145.6280 C   0  0  0  0  0  3  0  0  0  0  0  0
  190.4630  175.9130  143.1050 C   0  0  0  0  0  2  0  0  0  0  0  0
  189.9780  176.5770  144.3680 C   0  0  0  0  0  0  0  0  0  0  0  0
  188.3660  177.9920  145.5150 C   0  0  0  0  0  3  0  0  0  0  0  0
  187.9970  177.4350  143.0680 C   0  0  1  0  0  3  0  0  0  0  0  0
  188.2030  176.3310  142.2090 O   0  0  0  0  0  0  0  0  0  0  0  0
  189.1120  177.9090  146.6910 C   0  0  0  0  0  3  0  0  0  0  0  0
  190.1240  177.2710  140.9220 C   0  0  1  0  0  3  0  0  0  0  0  0
  191.4930  177.7310  141.4030 C   0  0  0  0  0  1  0  0  0  0  0  0
  190.1950  176.7740  139.5500 N   0  0  0  0  0  2  0  0  0  0  0  0
  189.0870  177.3390  138.7860 C   0  0  1  0  0  3  0  0  0  0  0  0
  189.1620  178.8540  138.8380 C   0  0  0  0  0  1  0  0  0  0  0  0
  189.1680  176.9060  137.3230 C   0  0  0  0  0  2  0  0  0  0  0  0
  187.8710  176.2930  136.7900 C   0  0  1  0  0  3  0  0  0  0  0  0
  185.9530  176.4750  134.7700 C   0  0  0  0  0  2  0  0  0  0  0  0
  186.8300  177.4060  136.6000 C   0  0  0  0  0  2  0  0  0  0  0  0
  188.0960  175.5240  135.5390 N   0  0  0  0  0  0  0  0  0  0  0  0
  186.8340  175.2340  134.8440 C   0  0  0  0  0  2  0  0  0  0  0  0
  185.6410  176.8840  136.0730 O   0  0  0  0  0  0  0  0  0  0  0  0
  188.7120  174.2090  135.7860 C   0  0  0  0  0  3  0  0  0  0  0  0
  190.1090  174.0050  135.1780 C   0  0  0  0  0  2  0  0  0  0  0  0
  190.5640  173.8010  137.5100 O   0  0  0  0  0  1  0  0  0  0  0  0
  191.1700  173.9700  136.2650 C   0  0  0  0  0  2  0  0  0  0  0  0
  187.7350  173.0440  135.6070 C   0  0  0  0  0  2  0  0  0  0  0  0
  186.5320  172.8630  137.6560 O   0  0  0  0  0  1  0  0  0  0  0  0
  187.5170  172.2460  136.8830 C   0  0  0  0  0  2  0  0  0  0  0  0
  186.4950  177.6580  143.2790 C   0  0  0  0  0  2  0  0  0  0  0  0
  183.5970  178.1950  141.6300 C   0  0  0  0  0  2  0  0  0  0  0  0
  184.0530  178.8110  139.9840 P   0  0  1  0  0  0  0  0  0  0  0  0
  183.9720  177.5590  138.8510 O   0  0  0  0  0  0  0  0  0  0  0  0
  186.3180  178.5420  140.9530 C   0  0  0  0  0  2  0  0  0  0  0  0
  184.4330  178.9590  142.6500 C   0  0  0  0  0  2  0  0  0  0  0  0
  185.9490  178.7950  142.4240 C   0  0  1  0  0  3  0  0  0  0  0  0
  183.1120  179.9260  139.5830 O   0  0  0  0  0  1  0  0  0  0  0  0
  185.6400  179.4130  140.0870 O   0  0  0  0  0  0  0  0  0  0  0  0
  1  6  1  0  0  0  0
  2 11  2  0  0  0  0
  2 12  1  0  0  0  0
  3 16  1  1  0  0  0
  3 14  1  0  0  0  0
  3 10  1  0  0  0  0
  4  8  2  0  0  0  0
  5  1  2  0  0  0  0
  7  9  2  0  0  0  0
  7  4  1  0  0  0  0
  8  1  1  0  0  0  0
  9  5  1  0  0  0  0
 10 11  1  0  0  0  0
 11  7  1  0  0  0  0
 12 15  2  0  0  0  0
 13 35  1  1  0  0  0
 13  2  1  0  0  0  0
 14 13  1  0  0  0  0
 15  4  1  0  0  0  0
 16 17  1  1  0  0  0
 18 16  1  0  0  0  0
 19 20  1  6  0  0  0
 19 18  1  0  0  0  0
 21 19  1  0  0  0  0
 22 21  1  6  0  0  0
 23 26  1  0  0  0  0
 23 27  1  0  0  0  0
 24 22  1  0  0  0  0
 25 28  1  0  0  0  0
 25 22  1  0  0  0  0
 26 25  1  0  0  0  0
 27 24  1  0  0  0  0
 29 28  1  0  0  0  0
 29 31  1  0  0  0  0
 31 30  1  0  0  0  0
 32 28  1  0  0  0  0
 32 34  1  0  0  0  0
 34 33  1  0  0  0  0
 36 40  1  0  0  0  0
 37 38  2  6  0  0  0
 37 43  1  0  0  0  0
 37 36  1  0  0  0  0
 39 41  1  0  0  0  0
 41 40  1  0  0  0  0
 41 35  1  1  0  0  0
 42 37  1  0  0  0  0
 43 39  1  0  0  0  0
M  END
>  <MODEL>
2

>  <REMARK>
 VINA RESULT:      -7.5      3.193      5.776
  Name = 
  12 active torsions:
  status: ('A' for Active; 'I' for Inactive)
    1  A    between atoms: C_1  and  C_34
    2  A    between atoms: C_1  and  C_35
    3  A    between atoms: C_2  and  N_6
    4  A    between atoms: C_2  and  C_13
    5  A    between atoms: C_3  and  C_4
    6  A    between atoms: C_3  and  C_12
    7  A    between atoms: N_6  and  C_12
    8  A    between atoms: C_11  and  C_14
    9  A    between atoms: C_11  and  C_36
   10  A    between atoms: C_14  and  N_22
   11  A    between atoms: C_14  and  C_40
   12  A    between atoms: C_31  and  C_40
                            x       y       z     vdW  Elec       q    Type
                         _______ _______ _______ _____ _____    ______ ____

>  <TORSDO>
F 12

$$$$
=
 OpenBabel10262422133D

 43 47  0  0  1  0  0  0  0  0999 V2000
  187.5200  177.7540  147.4560 C   0  0  0  0  0  0  0  0  0  0  0  0
  187.2560  178.0080  142.4120 C   0  0  0  0  0  0  0  0  0  0  0  0
  184.8170  179.1630  141.5990 C   0  0  1  0  0  3  0  0  0  0  0  0
  187.9630  177.5260  145.0860 C   0  0  0  0  0  0  0  0  0  0  0  0
  186.3360  178.4390  147.1720 C   0  0  0  0  0  3  0  0  0  0  0  0
  187.8900  177.5260  148.7750 O   0  0  0  0  0  1  0  0  0  0  0  0
  186.7620  178.2120  144.7890 C   0  0  0  0  0  0  0  0  0  0  0  0
  188.3320  177.2980  146.4160 C   0  0  0  0  0  3  0  0  0  0  0  0
  185.9580  178.6680  145.8470 C   0  0  0  0  0  3  0  0  0  0  0  0
  185.0870  179.0980  143.1060 C   0  0  0  0  0  2  0  0  0  0  0  0
  186.3920  178.4240  143.4440 C   0  0  0  0  0  0  0  0  0  0  0  0
  188.4300  177.3050  142.7260 C   0  0  0  0  0  3  0  0  0  0  0  0
  186.8400  178.2180  140.9720 C   0  0  1  0  0  3  0  0  0  0  0  0
  185.9870  179.3340  140.8210 O   0  0  0  0  0  0  0  0  0  0  0  0
  188.7830  177.0710  144.0550 C   0  0  0  0  0  3  0  0  0  0  0  0
  183.8170  178.1250  141.0660 C   0  0  1  0  0  3  0  0  0  0  0  0
  182.4650  178.3430  141.7300 C   0  0  0  0  0  1  0  0  0  0  0  0
  183.6960  178.1790  139.6100 N   0  0  0  0  0  2  0  0  0  0  0  0
  182.3920  178.7360  139.2670 C   0  0  1  0  0  3  0  0  0  0  0  0
  182.5750  180.1330  138.6990 C   0  0  0  0  0  1  0  0  0  0  0  0
  181.7040  177.8770  138.2070 C   0  0  0  0  0  2  0  0  0  0  0  0
  181.5160  176.4160  138.6250 C   0  0  1  0  0  3  0  0  0  0  0  0
  179.6850  174.3120  138.7100 C   0  0  0  0  0  2  0  0  0  0  0  0
  180.2730  176.3070  139.5220 C   0  0  0  0  0  2  0  0  0  0  0  0
  181.4350  175.5110  137.4500 N   0  0  0  0  0  0  0  0  0  0  0  0
  180.9140  174.1870  137.8190 C   0  0  0  0  0  2  0  0  0  0  0  0
  180.0490  174.9740  139.8900 O   0  0  0  0  0  0  0  0  0  0  0  0
  182.7520  175.2530  136.8430 C   0  0  0  0  0  3  0  0  0  0  0  0
  183.9210  175.1000  137.8290 C   0  0  0  0  0  2  0  0  0  0  0  0
  183.9380  172.8970  136.9170 O   0  0  0  0  0  1  0  0  0  0  0  0
  184.7500  173.8720  137.4960 C   0  0  0  0  0  2  0  0  0  0  0  0
  183.0300  176.1260  135.6150 C   0  0  0  0  0  2  0  0  0  0  0  0
  185.0440  176.9370  134.6340 O   0  0  0  0  0  1  0  0  0  0  0  0
  184.2520  177.0150  135.7810 C   0  0  0  0  0  2  0  0  0  0  0  0
  188.0260  178.3320  140.0080 C   0  0  0  0  0  2  0  0  0  0  0  0
  190.2460  177.3780  137.6480 C   0  0  0  0  0  2  0  0  0  0  0  0
  189.2720  176.6940  136.2770 P   0  0  1  0  0  0  0  0  0  0  0  0
  189.1060  177.8440  135.0490 O   0  0  0  0  0  0  0  0  0  0  0  0
  187.4290  177.2660  137.8320 C   0  0  0  0  0  2  0  0  0  0  0  0
  189.6980  176.7810  138.9390 C   0  0  0  0  0  2  0  0  0  0  0  0
  188.2010  177.0850  139.1490 C   0  0  1  0  0  3  0  0  0  0  0  0
  189.9600  175.4610  135.7340 O   0  0  0  0  0  1  0  0  0  0  0  0
  187.7470  176.2680  136.8980 O   0  0  0  0  0  0  0  0  0  0  0  0
  1  6  1  0  0  0  0
  2 12  2  0  0  0  0
  2 11  1  0  0  0  0
  3 16  1  6  0  0  0
  3 10  1  0  0  0  0
  4  8  1  0  0  0  0
  5  1  1  0  0  0  0
  7  4  1  0  0  0  0
  7  9  1  0  0  0  0
  8  1  2  0  0  0  0
  9  5  2  0  0  0  0
 10 11  1  0  0  0  0
 11  7  2  0  0  0  0
 12 15  1  0  0  0  0
 13 35  1  6  0  0  0
 13  2  1  0  0  0  0
 14 13  1  0  0  0  0
 14  3  1  0  0  0  0
 15  4  2  0  0  0  0
 16 17  1  1  0  0  0
 18 16  1  0  0  0  0
 19 20  1  6  0  0  0
 19 18  1  0  0  0  0
 21 19  1  0  0  0  0
 22 21  1  6  0  0  0
 22 24  1  0  0  0  0
 23 27  1  0  0  0  0
 24 27  1  0  0  0  0
 25 26  1  0  0  0  0
 25 22  1  0  0  0  0
 26 23  1  0  0  0  0
 28 25  1  0  0  0  0
 28 29  1  0  0  0  0
 30 31  1  0  0  0  0
 31 29  1  0  0  0  0
 32 34  1  0  0  0  0
 32 28  1  0  0  0  0
 33 34  1  0  0  0  0
 36 40  1  0  0  0  0
 37 38  2  6  0  0  0
 37 43  1  0  0  0  0
 37 36  1  0  0  0  0
 39 41  1  0  0  0  0
 40 41  1  0  0  0  0
 41 35  1  1  0  0  0
 42 37  1  0  0  0  0
 43 39  1  0  0  0  0
M  END
>  <MODEL>
3

>  <REMARK>
 VINA RESULT:      -7.4      0.465      1.485
  Name = 
  12 active torsions:
  status: ('A' for Active; 'I' for Inactive)
    1  A    between atoms: C_1  and  C_34
    2  A    between atoms: C_1  and  C_35
    3  A    between atoms: C_2  and  N_6
    4  A    between atoms: C_2  and  C_13
    5  A    between atoms: C_3  and  C_4
    6  A    between atoms: C_3  and  C_12
    7  A    between atoms: N_6  and  C_12
    8  A    between atoms: C_11  and  C_14
    9  A    between atoms: C_11  and  C_36
   10  A    between atoms: C_14  and  N_22
   11  A    between atoms: C_14  and  C_40
   12  A    between atoms: C_31  and  C_40
                            x       y       z     vdW  Elec       q    Type
                         _______ _______ _______ _____ _____    ______ ____

>  <TORSDO>
F 12

$$$$
=
 OpenBabel10262422133D

 43 47  0  0  1  0  0  0  0  0999 V2000
  192.2210  176.2970  148.0760 C   0  0  0  0  0  0  0  0  0  0  0  0
  188.8730  177.2800  144.4150 C   0  0  0  0  0  0  0  0  0  0  0  0
  189.7240  176.1750  141.9650 C   0  0  1  0  0  3  0  0  0  0  0  0
  190.3390  177.1390  146.8060 C   0  0  0  0  0  0  0  0  0  0  0  0
  192.6810  175.6130  146.9480 C   0  0  0  0  0  3  0  0  0  0  0  0
  192.9260  176.2200  149.2690 O   0  0  0  0  0  1  0  0  0  0  0  0
  190.8010  176.4560  145.6560 C   0  0  0  0  0  0  0  0  0  0  0  0
  191.0530  177.0590  148.0050 C   0  0  0  0  0  3  0  0  0  0  0  0
  191.9760  175.6910  145.7450 C   0  0  0  0  0  3  0  0  0  0  0  0
  190.5890  175.8860  143.1960 C   0  0  0  0  0  2  0  0  0  0  0  0
  190.0810  176.5550  144.4470 C   0  0  0  0  0  0  0  0  0  0  0  0
  188.4460  177.9730  145.5580 C   0  0  0  0  0  3  0  0  0  0  0  0
  188.1210  177.4010  143.1080 C   0  0  1  0  0  3  0  0  0  0  0  0
  188.3440  176.2940  142.2590 O   0  0  0  0  0  0  0  0  0  0  0  0
  189.1710  177.8980  146.7470 C   0  0  0  0  0  3  0  0  0  0  0  0
  190.2850  177.2310  141.0010 C   0  0  1  0  0  3  0  0  0  0  0  0
  191.4830  177.9130  141.6460 C   0  0  0  0  0  1  0  0  0  0  0  0
  190.6490  176.6530  139.7080 N   0  0  0  0  0  2  0  0  0  0  0  0
  189.6300  177.0150  138.7280 C   0  0  1  0  0  3  0  0  0  0  0  0
  189.2660  178.4790  138.8980 C   0  0  0  0  0  1  0  0  0  0  0  0
  190.1580  176.8170  137.3070 C   0  0  0  0  0  2  0  0  0  0  0  0
  190.2720  175.3480  136.8920 C   0  0  1  0  0  3  0  0  0  0  0  0
  189.6860  173.5270  134.8600 C   0  0  0  0  0  2  0  0  0  0  0  0
  188.8840  174.8340  136.4830 C   0  0  0  0  0  2  0  0  0  0  0  0
  191.2760  175.1550  135.8140 N   0  0  0  0  0  0  0  0  0  0  0  0
  191.1430  173.8370  135.1770 C   0  0  0  0  0  2  0  0  0  0  0  0
  188.9590  173.5010  136.0570 O   0  0  0  0  0  0  0  0  0  0  0  0
  192.6600  175.2050  136.3140 C   0  0  0  0  0  3  0  0  0  0  0  0
  193.7570  175.1720  135.2370 C   0  0  0  0  0  2  0  0  0  0  0  0
  194.9310  177.1820  135.7570 O   0  0  0  0  0  1  0  0  0  0  0  0
  194.1210  176.5790  134.7950 C   0  0  0  0  0  2  0  0  0  0  0  0
  192.8950  174.3010  137.5280 C   0  0  0  0  0  2  0  0  0  0  0  0
  194.7930  175.3210  138.5430 O   0  0  0  0  0  1  0  0  0  0  0  0
  194.3640  174.1630  137.8940 C   0  0  0  0  0  2  0  0  0  0  0  0
  186.6150  177.6220  143.2920 C   0  0  0  0  0  2  0  0  0  0  0  0
  183.7320  178.2060  141.6310 C   0  0  0  0  0  2  0  0  0  0  0  0
  184.2050  178.8280  139.9920 P   0  0  1  0  0  0  0  0  0  0  0  0
  184.1150  177.5870  138.8490 O   0  0  0  0  0  0  0  0  0  0  0  0
  186.4610  178.5260  140.9710 C   0  0  0  0  0  2  0  0  0  0  0  0
  184.5710  178.9520  142.6620 C   0  0  0  0  0  2  0  0  0  0  0  0
  186.0870  178.7720  142.4430 C   0  0  1  0  0  3  0  0  0  0  0  0
  183.2790  179.9580  139.5950 O   0  0  0  0  0  1  0  0  0  0  0  0
  185.7970  179.4120  140.1080 O   0  0  0  0  0  0  0  0  0  0  0  0
  1  6  1  0  0  0  0
  2 11  2  0  0  0  0
  2 12  1  0  0  0  0
  3 16  1  1  0  0  0
  3 14  1  0  0  0  0
  3 10  1  0  0  0  0
  4  8  2  0  0  0  0
  5  1  2  0  0  0  0
  7  9  2  0  0  0  0
  7  4  1  0  0  0  0
  8  1  1  0  0  0  0
  9  5  1  0  0  0  0
 10 11  1  0  0  0  0
 11  7  1  0  0  0  0
 12 15  2  0  0  0  0
 13 35  1  1  0  0  0
 13  2  1  0  0  0  0
 14 13  1  0  0  0  0
 15  4  1  0  0  0  0
 16 17  1  1  0  0  0
 18 16  1  0  0  0  0
 19 20  1  6  0  0  0
 19 18  1  0  0  0  0
 21 19  1  0  0  0  0
 22 21  1  6  0  0  0
 23 26  1  0  0  0  0
 23 27  1  0  0  0  0
 24 22  1  0  0  0  0
 25 28  1  0  0  0  0
 25 22  1  0  0  0  0
 26 25  1  0  0  0  0
 27 24  1  0  0  0  0
 28 32  1  0  0  0  0
 29 28  1  0  0  0  0
 31 29  1  0  0  0  0
 31 30  1  0  0  0  0
 32 34  1  0  0  0  0
 34 33  1  0  0  0  0
 36 40  1  0  0  0  0
 37 38  2  6  0  0  0
 37 43  1  0  0  0  0
 37 36  1  0  0  0  0
 39 41  1  0  0  0  0
 41 40  1  0  0  0  0
 41 35  1  1  0  0  0
 42 37  1  0  0  0  0
 43 39  1  0  0  0  0
M  END
>  <MODEL>
4

>  <REMARK>
 VINA RESULT:      -7.4      3.771      7.111
  Name = 
  12 active torsions:
  status: ('A' for Active; 'I' for Inactive)
    1  A    between atoms: C_1  and  C_34
    2  A    between atoms: C_1  and  C_35
    3  A    between atoms: C_2  and  N_6
    4  A    between atoms: C_2  and  C_13
    5  A    between atoms: C_3  and  C_4
    6  A    between atoms: C_3  and  C_12
    7  A    between atoms: N_6  and  C_12
    8  A    between atoms: C_11  and  C_14
    9  A    between atoms: C_11  and  C_36
   10  A    between atoms: C_14  and  N_22
   11  A    between atoms: C_14  and  C_40
   12  A    between atoms: C_31  and  C_40
                            x       y       z     vdW  Elec       q    Type
                         _______ _______ _______ _____ _____    ______ ____

>  <TORSDO>
F 12

$$$$
=
 OpenBabel10262422133D

 43 47  0  0  1  0  0  0  0  0999 V2000
  192.1990  176.3170  148.0970 C   0  0  0  0  0  0  0  0  0  0  0  0
  188.8450  177.2670  144.4330 C   0  0  0  0  0  0  0  0  0  0  0  0
  189.6900  176.1350  141.9930 C   0  0  1  0  0  3  0  0  0  0  0  0
  190.3150  177.1480  146.8220 C   0  0  0  0  0  0  0  0  0  0  0  0
  192.6560  175.6210  146.9750 C   0  0  0  0  0  3  0  0  0  0  0  0
  192.9060  176.2510  149.2900 O   0  0  0  0  0  1  0  0  0  0  0  0
  190.7740  176.4520  145.6790 C   0  0  0  0  0  0  0  0  0  0  0  0
  191.0310  177.0790  148.0210 C   0  0  0  0  0  3  0  0  0  0  0  0
  191.9480  175.6870  145.7730 C   0  0  0  0  0  3  0  0  0  0  0  0
  190.5570  175.8580  143.2250 C   0  0  0  0  0  2  0  0  0  0  0  0
  190.0520  176.5400  144.4690 C   0  0  0  0  0  0  0  0  0  0  0  0
  188.4200  177.9710  145.5690 C   0  0  0  0  0  3  0  0  0  0  0  0
  188.0900  177.3750  143.1250 C   0  0  1  0  0  3  0  0  0  0  0  0
  188.3100  176.2590  142.2880 O   0  0  0  0  0  0  0  0  0  0  0  0
  189.1480  177.9080  146.7570 C   0  0  0  0  0  3  0  0  0  0  0  0
  190.2500  177.1800  141.0160 C   0  0  1  0  0  3  0  0  0  0  0  0
  191.5270  177.7740  141.5950 C   0  0  0  0  0  1  0  0  0  0  0  0
  190.4940  176.6160  139.6900 N   0  0  0  0  0  2  0  0  0  0  0  0
  189.5270  177.1790  138.7540 C   0  0  1  0  0  3  0  0  0  0  0  0
  189.0440  178.5210  139.2750 C   0  0  0  0  0  1  0  0  0  0  0  0
  190.1720  177.4030  137.3860 C   0  0  0  0  0  2  0  0  0  0  0  0
  190.1830  176.1550  136.4990 C   0  0  1  0  0  3  0  0  0  0  0  0
  190.6050  173.3970  136.4910 C   0  0  0  0  0  2  0  0  0  0  0  0
  191.5210  175.4240  136.6780 C   0  0  0  0  0  2  0  0  0  0  0  0
  189.0230  175.2690  136.7770 N   0  0  0  0  0  0  0  0  0  0  0  0
  189.2100  173.9320  136.1960 C   0  0  0  0  0  2  0  0  0  0  0  0
  191.5490  174.2530  135.9090 O   0  0  0  0  0  0  0  0  0  0  0  0
  187.7710  175.7740  136.1910 C   0  0  0  0  0  3  0  0  0  0  0  0
  187.8940  177.0710  135.3750 C   0  0  0  0  0  2  0  0  0  0  0  0
  187.2940  179.1110  136.4540 O   0  0  0  0  0  1  0  0  0  0  0  0
  186.7780  178.0380  135.7270 C   0  0  0  0  0  2  0  0  0  0  0  0
  186.5850  175.7110  137.1590 C   0  0  0  0  0  2  0  0  0  0  0  0
  186.0730  173.4350  137.6440 O   0  0  0  0  0  1  0  0  0  0  0  0
  185.6590  174.5340  136.8910 C   0  0  0  0  0  2  0  0  0  0  0  0
  186.5850  177.5990  143.3110 C   0  0  0  0  0  2  0  0  0  0  0  0
  183.6780  178.2240  141.7080 C   0  0  0  0  0  2  0  0  0  0  0  0
  184.1260  178.8260  140.0540 P   0  0  1  0  0  0  0  0  0  0  0  0
  183.9890  177.5780  138.9230 O   0  0  0  0  0  0  0  0  0  0  0  0
  186.3970  178.4890  140.9870 C   0  0  0  0  0  2  0  0  0  0  0  0
  184.5530  178.9630  142.7140 C   0  0  0  0  0  2  0  0  0  0  0  0
  186.0600  178.7520  142.4640 C   0  0  1  0  0  3  0  0  0  0  0  0
  183.2130  179.9690  139.6690 O   0  0  0  0  0  1  0  0  0  0  0  0
  185.7310  179.3800  140.1310 O   0  0  0  0  0  0  0  0  0  0  0  0
  1  6  1  0  0  0  0
  2 11  2  0  0  0  0
  2 12  1  0  0  0  0
  3 16  1  1  0  0  0
  3 14  1  0  0  0  0
  3 10  1  0  0  0  0
  4  8  2  0  0  0  0
  5  1  2  0  0  0  0
  7  9  2  0  0  0  0
  7  4  1  0  0  0  0
  8  1  1  0  0  0  0
  9  5  1  0  0  0  0
 10 11  1  0  0  0  0
 11  7  1  0  0  0  0
 12 15  2  0  0  0  0
 13 35  1  1  0  0  0
 13  2  1  0  0  0  0
 14 13  1  0  0  0  0
 15  4  1  0  0  0  0
 16 17  1  1  0  0  0
 18 16  1  0  0  0  0
 19 20  1  1  0  0  0
 19 18  1  0  0  0  0
 21 19  1  0  0  0  0
 22 24  1  0  0  0  0
 22 25  1  0  0  0  0
 22 21  1  1  0  0  0
 26 23  1  0  0  0  0
 26 25  1  0  0  0  0
 27 23  1  0  0  0  0
 27 24  1  0  0  0  0
 28 25  1  0  0  0  0
 28 32  1  0  0  0  0
 29 31  1  0  0  0  0
 29 28  1  0  0  0  0
 31 30  1  0  0  0  0
 34 32  1  0  0  0  0
 34 33  1  0  0  0  0
 36 40  1  0  0  0  0
 37 38  2  6  0  0  0
 37 43  1  0  0  0  0
 37 36  1  0  0  0  0
 39 41  1  0  0  0  0
 41 40  1  0  0  0  0
 41 35  1  1  0  0  0
 42 37  1  0  0  0  0
 43 39  1  0  0  0  0
M  END
>  <MODEL>
5

>  <REMARK>
 VINA RESULT:      -7.0      3.091      6.193
  Name = 
  12 active torsions:
  status: ('A' for Active; 'I' for Inactive)
    1  A    between atoms: C_1  and  C_34
    2  A    between atoms: C_1  and  C_35
    3  A    between atoms: C_2  and  N_6
    4  A    between atoms: C_2  and  C_13
    5  A    between atoms: C_3  and  C_4
    6  A    between atoms: C_3  and  C_12
    7  A    between atoms: N_6  and  C_12
    8  A    between atoms: C_11  and  C_14
    9  A    between atoms: C_11  and  C_36
   10  A    between atoms: C_14  and  N_22
   11  A    between atoms: C_14  and  C_40
   12  A    between atoms: C_31  and  C_40
                            x       y       z     vdW  Elec       q    Type
                         _______ _______ _______ _____ _____    ______ ____

>  <TORSDO>
F 12

$$$$
=
 OpenBabel10262422133D

 43 47  0  0  1  0  0  0  0  0999 V2000
  190.9690  176.5440  138.7340 C   0  0  0  0  0  0  0  0  0  0  0  0
  186.1760  178.1480  138.8920 C   0  0  0  0  0  0  0  0  0  0  0  0
  185.6140  179.3650  141.3730 C   0  0  1  0  0  3  0  0  0  0  0  0
  188.6440  176.9910  138.2230 C   0  0  0  0  0  0  0  0  0  0  0  0
  190.8370  177.2240  139.9470 C   0  0  0  0  0  3  0  0  0  0  0  0
  192.1900  175.9840  138.3830 O   0  0  0  0  0  1  0  0  0  0  0  0
  188.4990  177.6750  139.4530 C   0  0  0  0  0  0  0  0  0  0  0  0
  189.8750  176.4280  137.8740 C   0  0  0  0  0  3  0  0  0  0  0  0
  189.6090  177.7870  140.3060 C   0  0  0  0  0  3  0  0  0  0  0  0
  187.0560  178.9050  141.1340 C   0  0  0  0  0  2  0  0  0  0  0  0
  187.2480  178.2270  139.8020 C   0  0  0  0  0  0  0  0  0  0  0  0
  186.3320  177.4440  137.6900 C   0  0  0  0  0  3  0  0  0  0  0  0
  184.8320  178.7230  139.2860 C   0  0  1  0  0  3  0  0  0  0  0  0
  184.9560  179.7970  140.1960 O   0  0  0  0  0  0  0  0  0  0  0  0
  187.5600  176.8730  137.3550 C   0  0  0  0  0  3  0  0  0  0  0  0
  184.7820  178.4650  142.3000 C   0  0  1  0  0  3  0  0  0  0  0  0
  183.7370  177.7270  141.4770 C   0  0  0  0  0  1  0  0  0  0  0  0
  185.6180  177.5250  143.0450 N   0  0  0  0  0  2  0  0  0  0  0  0
  186.0450  178.1580  144.2890 C   0  0  1  0  0  3  0  0  0  0  0  0
  184.8240  178.6390  145.0530 C   0  0  0  0  0  1  0  0  0  0  0  0
  186.7960  177.1590  145.1680 C   0  0  0  0  0  2  0  0  0  0  0  0
  187.9450  177.7830  145.9640 C   0  0  1  0  0  3  0  0  0  0  0  0
  189.4260  177.5820  148.3210 C   0  0  0  0  0  2  0  0  0  0  0  0
  187.4610  178.0880  147.3900 C   0  0  0  0  0  2  0  0  0  0  0  0
  189.1530  176.9180  145.9610 N   0  0  0  0  0  0  0  0  0  0  0  0
  190.1190  177.3290  146.9890 C   0  0  0  0  0  2  0  0  0  0  0  0
  188.5030  178.6230  148.1590 O   0  0  0  0  0  0  0  0  0  0  0  0
  189.8910  176.9810  144.6880 C   0  0  0  0  0  3  0  0  0  0  0  0
  191.2930  176.3500  144.7000 C   0  0  0  0  0  2  0  0  0  0  0  0
  190.2590  175.2680  142.8430 O   0  0  0  0  0  1  0  0  0  0  0  0
  191.4700  175.4090  143.5200 C   0  0  0  0  0  2  0  0  0  0  0  0
  189.7850  178.3450  143.9980 C   0  0  0  0  0  2  0  0  0  0  0  0
  191.3060  180.1440  144.3550 O   0  0  0  0  0  1  0  0  0  0  0  0
  191.1380  178.9480  143.6560 C   0  0  0  0  0  2  0  0  0  0  0  0
  183.9800  179.1510  138.0860 C   0  0  0  0  0  2  0  0  0  0  0  0
  182.0060  177.8670  135.6640 C   0  0  0  0  0  2  0  0  0  0  0  0
  180.3310  178.4900  135.9870 P   0  0  1  0  0  0  0  0  0  0  0  0
  179.9920  179.8020  134.9770 O   0  0  0  0  0  0  0  0  0  0  0  0
  181.5230  179.5420  137.8890 C   0  0  0  0  0  2  0  0  0  0  0  0
  182.5720  177.3730  136.9910 C   0  0  0  0  0  2  0  0  0  0  0  0
  182.6140  178.4740  138.0690 C   0  0  1  0  0  3  0  0  0  0  0  0
  179.3260  177.3850  135.7460 O   0  0  0  0  0  1  0  0  0  0  0  0
  180.2710  178.9700  137.6180 O   0  0  0  0  0  0  0  0  0  0  0  0
  1  5  1  0  0  0  0
  2 13  1  0  0  0  0
  2 11  1  0  0  0  0
  3 16  1  6  0  0  0
  4  7  1  0  0  0  0
  5  9  2  0  0  0  0
  6  1  1  0  0  0  0
  7 11  2  0  0  0  0
  7  9  1  0  0  0  0
  8  4  1  0  0  0  0
  8  1  2  0  0  0  0
 10  3  1  0  0  0  0
 11 10  1  0  0  0  0
 12  2  2  0  0  0  0
 13 35  1  6  0  0  0
 13 14  1  0  0  0  0
 14  3  1  0  0  0  0
 15 12  1  0  0  0  0
 15  4  2  0  0  0  0
 16 17  1  6  0  0  0
 16 18  1  0  0  0  0
 18 19  1  0  0  0  0
 19 20  1  1  0  0  0
 19 21  1  0  0  0  0
 22 21  1  6  0  0  0
 22 24  1  0  0  0  0
 24 27  1  0  0  0  0
 25 22  1  0  0  0  0
 25 26  1  0  0  0  0
 26 23  1  0  0  0  0
 27 23  1  0  0  0  0
 28 29  1  0  0  0  0
 28 25  1  0  0  0  0
 30 31  1  0  0  0  0
 31 29  1  0  0  0  0
 32 28  1  0  0  0  0
 34 32  1  0  0  0  0
 34 33  1  0  0  0  0
 36 37  1  0  0  0  0
 36 40  1  0  0  0  0
 37 38  2  6  0  0  0
 37 43  1  0  0  0  0
 39 41  1  0  0  0  0
 40 41  1  0  0  0  0
 41 35  1  6  0  0  0
 42 37  1  0  0  0  0
 43 39  1  0  0  0  0
M  END
>  <MODEL>
6

>  <REMARK>
 VINA RESULT:      -6.9      3.163      8.412
  Name = 
  12 active torsions:
  status: ('A' for Active; 'I' for Inactive)
    1  A    between atoms: C_1  and  C_34
    2  A    between atoms: C_1  and  C_35
    3  A    between atoms: C_2  and  N_6
    4  A    between atoms: C_2  and  C_13
    5  A    between atoms: C_3  and  C_4
    6  A    between atoms: C_3  and  C_12
    7  A    between atoms: N_6  and  C_12
    8  A    between atoms: C_11  and  C_14
    9  A    between atoms: C_11  and  C_36
   10  A    between atoms: C_14  and  N_22
   11  A    between atoms: C_14  and  C_40
   12  A    between atoms: C_31  and  C_40
                            x       y       z     vdW  Elec       q    Type
                         _______ _______ _______ _____ _____    ______ ____

>  <TORSDO>
F 12

$$$$
=
 OpenBabel10262422133D

 43 47  0  0  1  0  0  0  0  0999 V2000
  180.0440  179.1810  143.6200 C   0  0  0  0  0  0  0  0  0  0  0  0
  184.6870  178.5000  141.7350 C   0  0  0  0  0  0  0  0  0  0  0  0
  184.6360  178.5570  138.9170 C   0  0  1  0  0  3  0  0  0  0  0  0
  182.4120  178.7440  143.3620 C   0  0  0  0  0  0  0  0  0  0  0  0
  179.9190  179.3410  142.2380 C   0  0  0  0  0  3  0  0  0  0  0  0
  178.9310  179.3180  144.4380 O   0  0  0  0  0  1  0  0  0  0  0  0
  182.2940  178.8980  141.9610 C   0  0  0  0  0  0  0  0  0  0  0  0
  181.2880  178.8830  144.1810 C   0  0  0  0  0  3  0  0  0  0  0  0
  181.0370  179.2000  141.4120 C   0  0  0  0  0  3  0  0  0  0  0  0
  183.3160  178.8380  139.6420 C   0  0  0  0  0  2  0  0  0  0  0  0
  183.4330  178.7410  141.1410 C   0  0  0  0  0  0  0  0  0  0  0  0
  184.7800  178.3250  143.1240 C   0  0  0  0  0  3  0  0  0  0  0  0
  185.8980  178.3100  140.8470 C   0  0  1  0  0  3  0  0  0  0  0  0
  185.7770  179.0060  139.6240 O   0  0  0  0  0  0  0  0  0  0  0  0
  183.6500  178.4520  143.9330 C   0  0  0  0  0  3  0  0  0  0  0  0
  184.7570  177.1570  138.2930 C   0  0  1  0  0  3  0  0  0  0  0  0
  183.5330  176.3340  138.6670 C   0  0  0  0  0  1  0  0  0  0  0  0
  184.9190  177.2180  136.8420 N   0  0  0  0  0  2  0  0  0  0  0  0
  186.0390  176.3640  136.4580 C   0  0  1  0  0  3  0  0  0  0  0  0
  185.5070  175.0890  135.8280 C   0  0  0  0  0  1  0  0  0  0  0  0
  186.9250  177.0700  135.4320 C   0  0  0  0  0  2  0  0  0  0  0  0
  188.2050  177.6610  136.0260 C   0  0  1  0  0  3  0  0  0  0  0  0
  189.3280  178.7400  138.3420 C   0  0  0  0  0  2  0  0  0  0  0  0
  187.8820  179.0200  136.6640 C   0  0  0  0  0  2  0  0  0  0  0  0
  188.8460  176.7320  136.9920 N   0  0  0  0  0  0  0  0  0  0  0  0
  189.8570  177.4140  137.8130 C   0  0  0  0  0  2  0  0  0  0  0  0
  189.0270  179.5710  137.2550 O   0  0  0  0  0  0  0  0  0  0  0  0
  189.5650  175.6320  136.3280 C   0  0  0  0  0  3  0  0  0  0  0  0
  189.8230  174.3880  137.1930 C   0  0  0  0  0  2  0  0  0  0  0  0
  189.2350  172.5250  135.8260 O   0  0  0  0  0  1  0  0  0  0  0  0
  188.8000  173.3040  136.8980 C   0  0  0  0  0  2  0  0  0  0  0  0
  190.7510  176.1110  135.4850 C   0  0  0  0  0  2  0  0  0  0  0  0
  192.1720  174.3160  134.8230 O   0  0  0  0  0  1  0  0  0  0  0  0
  192.0310  175.3380  135.7630 C   0  0  0  0  0  2  0  0  0  0  0  0
  187.2180  178.6830  141.5320 C   0  0  0  0  0  2  0  0  0  0  0  0
  189.8310  178.3110  143.6400 C   0  0  0  0  0  2  0  0  0  0  0  0
  190.8170  176.9300  142.9920 P   0  0  1  0  0  0  0  0  0  0  0  0
  192.1450  177.5180  142.1270 O   0  0  0  0  0  0  0  0  0  0  0  0
  188.9990  176.9510  141.3060 C   0  0  0  0  0  2  0  0  0  0  0  0
  188.3700  177.8760  143.6210 C   0  0  0  0  0  2  0  0  0  0  0  0
  187.8790  177.4900  142.2110 C   0  0  1  0  0  3  0  0  0  0  0  0
  191.2930  176.0680  144.1400 O   0  0  0  0  0  1  0  0  0  0  0  0
  189.8060  176.0170  141.9740 O   0  0  0  0  0  0  0  0  0  0  0  0
  1  8  1  0  0  0  0
  1  6  1  0  0  0  0
  2 12  1  0  0  0  0
  3 16  1  1  0  0  0
  3 14  1  0  0  0  0
  3 10  1  0  0  0  0
  4 15  1  0  0  0  0
  4  8  2  0  0  0  0
  5  1  2  0  0  0  0
  7  4  1  0  0  0  0
  9  7  2  0  0  0  0
  9  5  1  0  0  0  0
 10 11  1  0  0  0  0
 11  2  2  0  0  0  0
 11  7  1  0  0  0  0
 12 15  2  0  0  0  0
 13 35  1  1  0  0  0
 13  2  1  0  0  0  0
 14 13  1  0  0  0  0
 16 17  1  6  0  0  0
 18 16  1  0  0  0  0
 19 20  1  6  0  0  0
 19 18  1  0  0  0  0
 21 19  1  0  0  0  0
 22 21  1  1  0  0  0
 22 24  1  0  0  0  0
 22 25  1  0  0  0  0
 24 27  1  0  0  0  0
 25 26  1  0  0  0  0
 26 23  1  0  0  0  0
 27 23  1  0  0  0  0
 28 25  1  0  0  0  0
 28 29  1  0  0  0  0
 30 31  1  0  0  0  0
 31 29  1  0  0  0  0
 32 34  1  0  0  0  0
 32 28  1  0  0  0  0
 33 34  1  0  0  0  0
 37 38  2  6  0  0  0
 37 36  1  0  0  0  0
 37 42  1  0  0  0  0
 39 43  1  0  0  0  0
 39 41  1  0  0  0  0
 40 36  1  0  0  0  0
 41 35  1  6  0  0  0
 41 40  1  0  0  0  0
 43 37  1  0  0  0  0
M  END
>  <MODEL>
7

>  <REMARK>
 VINA RESULT:      -6.9      3.048      6.313
  Name = 
  12 active torsions:
  status: ('A' for Active; 'I' for Inactive)
    1  A    between atoms: C_1  and  C_34
    2  A    between atoms: C_1  and  C_35
    3  A    between atoms: C_2  and  N_6
    4  A    between atoms: C_2  and  C_13
    5  A    between atoms: C_3  and  C_4
    6  A    between atoms: C_3  and  C_12
    7  A    between atoms: N_6  and  C_12
    8  A    between atoms: C_11  and  C_14
    9  A    between atoms: C_11  and  C_36
   10  A    between atoms: C_14  and  N_22
   11  A    between atoms: C_14  and  C_40
   12  A    between atoms: C_31  and  C_40
                            x       y       z     vdW  Elec       q    Type
                         _______ _______ _______ _____ _____    ______ ____

>  <TORSDO>
F 12

$$$$
=
 OpenBabel10262422133D

 43 47  0  0  1  0  0  0  0  0999 V2000
  190.2910  176.6100  137.2530 C   0  0  0  0  0  0  0  0  0  0  0  0
  185.7710  178.0640  138.9930 C   0  0  0  0  0  0  0  0  0  0  0  0
  186.0390  179.4250  141.4470 C   0  0  1  0  0  3  0  0  0  0  0  0
  187.9130  176.9450  137.5640 C   0  0  0  0  0  0  0  0  0  0  0  0
  190.5510  177.3650  138.3990 C   0  0  0  0  0  3  0  0  0  0  0  0
  191.3430  176.0670  136.5270 O   0  0  0  0  0  1  0  0  0  0  0  0
  188.1660  177.7050  138.7300 C   0  0  0  0  0  0  0  0  0  0  0  0
  188.9750  176.4000  136.8360 C   0  0  0  0  0  3  0  0  0  0  0  0
  189.4960  177.9100  139.1350 C   0  0  0  0  0  3  0  0  0  0  0  0
  187.3320  178.9970  140.7440 C   0  0  0  0  0  2  0  0  0  0  0  0
  187.0860  178.2380  139.4660 C   0  0  0  0  0  0  0  0  0  0  0  0
  185.5380  177.2860  137.8490 C   0  0  0  0  0  3  0  0  0  0  0  0
  184.6180  178.6190  139.8010 C   0  0  1  0  0  3  0  0  0  0  0  0
  184.9910  179.7550  140.5530 O   0  0  0  0  0  0  0  0  0  0  0  0
  186.6030  176.7340  137.1370 C   0  0  0  0  0  3  0  0  0  0  0  0
  185.6300  178.5630  142.6520 C   0  0  1  0  0  3  0  0  0  0  0  0
  184.1480  178.2320  142.5510 C   0  0  0  0  0  1  0  0  0  0  0  0
  186.4300  177.3440  142.7490 N   0  0  0  0  0  2  0  0  0  0  0  0
  187.3800  177.4910  143.8470 C   0  0  1  0  0  3  0  0  0  0  0  0
  186.6210  177.5820  145.1590 C   0  0  0  0  0  1  0  0  0  0  0  0
  188.3110  176.2820  143.9170 C   0  0  0  0  0  2  0  0  0  0  0  0
  189.7970  176.6450  143.8640 C   0  0  1  0  0  3  0  0  0  0  0  0
  191.5980  178.7040  143.3100 C   0  0  0  0  0  2  0  0  0  0  0  0
  190.1170  177.2490  142.4880 C   0  0  0  0  0  2  0  0  0  0  0  0
  190.1850  177.5520  144.9740 N   0  0  0  0  0  0  0  0  0  0  0  0
  191.4960  178.1740  144.7340 C   0  0  0  0  0  2  0  0  0  0  0  0
  191.4630  177.6310  142.4200 O   0  0  0  0  0  0  0  0  0  0  0  0
  190.3200  176.8480  146.2600 C   0  0  0  0  0  3  0  0  0  0  0  0
  189.7890  177.6030  147.4900 C   0  0  0  0  0  2  0  0  0  0  0  0
  187.7140  178.0230  148.5860 O   0  0  0  0  0  1  0  0  0  0  0  0
  188.4510  177.0360  147.9320 C   0  0  0  0  0  2  0  0  0  0  0  0
  191.6830  176.1710  146.4350 C   0  0  0  0  0  2  0  0  0  0  0  0
  193.4230  175.6140  147.9650 O   0  0  0  0  0  1  0  0  0  0  0  0
  192.0890  176.0160  147.8930 C   0  0  0  0  0  2  0  0  0  0  0  0
  183.3810  178.9390  138.9540 C   0  0  0  0  0  2  0  0  0  0  0  0
  182.1610  175.8080  138.6030 C   0  0  0  0  0  2  0  0  0  0  0  0
  180.4020  175.9890  138.1900 P   0  0  1  0  0  0  0  0  0  0  0  0
  180.1730  175.8080  136.5250 O   0  0  0  0  0  0  0  0  0  0  0  0
  181.0090  178.3820  138.4130 C   0  0  0  0  0  2  0  0  0  0  0  0
  182.4530  176.7440  139.7700 C   0  0  0  0  0  2  0  0  0  0  0  0
  182.1330  178.2180  139.4490 C   0  0  1  0  0  3  0  0  0  0  0  0
  179.5980  174.9460  138.9340 O   0  0  0  0  0  1  0  0  0  0  0  0
  179.9190  177.5420  138.6870 O   0  0  0  0  0  0  0  0  0  0  0  0
  1  5  1  0  0  0  0
  2 11  1  0  0  0  0
  2 13  1  0  0  0  0
  3 16  1  1  0  0  0
  4  7  1  0  0  0  0
  5  9  2  0  0  0  0
  6  1  1  0  0  0  0
  7  9  1  0  0  0  0
  7 11  2  0  0  0  0
  8  1  2  0  0  0  0
  8  4  1  0  0  0  0
 10  3  1  0  0  0  0
 11 10  1  0  0  0  0
 12  2  2  0  0  0  0
 13 35  1  6  0  0  0
 13 14  1  0  0  0  0
 14  3  1  0  0  0  0
 15  4  2  0  0  0  0
 15 12  1  0  0  0  0
 16 17  1  6  0  0  0
 16 18  1  0  0  0  0
 18 19  1  0  0  0  0
 19 21  1  0  0  0  0
 19 20  1  1  0  0  0
 22 21  1  6  0  0  0
 22 25  1  0  0  0  0
 23 26  1  0  0  0  0
 24 22  1  0  0  0  0
 25 28  1  0  0  0  0
 26 25  1  0  0  0  0
 27 24  1  0  0  0  0
 27 23  1  0  0  0  0
 28 32  1  0  0  0  0
 28 29  1  0  0  0  0
 29 31  1  0  0  0  0
 31 30  1  0  0  0  0
 32 34  1  0  0  0  0
 34 33  1  0  0  0  0
 36 40  1  0  0  0  0
 37 38  2  6  0  0  0
 37 36  1  0  0  0  0
 37 43  1  0  0  0  0
 37 42  1  0  0  0  0
 39 43  1  0  0  0  0
 39 41  1  0  0  0  0
 41 35  1  6  0  0  0
 41 40  1  0  0  0  0
M  END
>  <MODEL>
8

>  <REMARK>
 VINA RESULT:      -6.9      2.884      9.095
  Name = 
  12 active torsions:
  status: ('A' for Active; 'I' for Inactive)
    1  A    between atoms: C_1  and  C_34
    2  A    between atoms: C_1  and  C_35
    3  A    between atoms: C_2  and  N_6
    4  A    between atoms: C_2  and  C_13
    5  A    between atoms: C_3  and  C_4
    6  A    between atoms: C_3  and  C_12
    7  A    between atoms: N_6  and  C_12
    8  A    between atoms: C_11  and  C_14
    9  A    between atoms: C_11  and  C_36
   10  A    between atoms: C_14  and  N_22
   11  A    between atoms: C_14  and  C_40
   12  A    between atoms: C_31  and  C_40
                            x       y       z     vdW  Elec       q    Type
                         _______ _______ _______ _____ _____    ______ ____

>  <TORSDO>
F 12

$$$$
=
 OpenBabel10262422133D

 43 47  0  0  1  0  0  0  0  0999 V2000
  191.7270  176.3420  147.4390 C   0  0  0  0  0  0  0  0  0  0  0  0
  187.6970  177.6290  144.6690 C   0  0  0  0  0  0  0  0  0  0  0  0
  188.2210  177.2700  141.9220 C   0  0  1  0  0  3  0  0  0  0  0  0
  189.5680  177.1590  146.7090 C   0  0  0  0  0  0  0  0  0  0  0  0
  192.0550  176.0190  146.1200 C   0  0  0  0  0  3  0  0  0  0  0  0
  192.6360  176.0970  148.4590 O   0  0  0  0  0  1  0  0  0  0  0  0
  189.8940  176.8420  145.3690 C   0  0  0  0  0  0  0  0  0  0  0  0
  190.4870  176.9110  147.7330 C   0  0  0  0  0  3  0  0  0  0  0  0
  191.1440  176.2670  145.0900 C   0  0  0  0  0  3  0  0  0  0  0  0
  189.3170  176.8370  142.9010 C   0  0  0  0  0  2  0  0  0  0  0  0
  188.9650  177.1100  144.3410 C   0  0  0  0  0  0  0  0  0  0  0  0
  187.4020  177.9620  145.9990 C   0  0  0  0  0  3  0  0  0  0  0  0
  186.7160  177.9350  143.5570 C   0  0  1  0  0  3  0  0  0  0  0  0
  186.9090  177.1050  142.4310 O   0  0  0  0  0  0  0  0  0  0  0  0
  188.3300  177.7230  147.0130 C   0  0  0  0  0  3  0  0  0  0  0  0
  188.4800  178.5950  141.1890 C   0  0  1  0  0  3  0  0  0  0  0  0
  189.5120  179.4030  141.9640 C   0  0  0  0  0  1  0  0  0  0  0  0
  188.9140  178.3820  139.8100 N   0  0  0  0  0  2  0  0  0  0  0  0
  187.8730  177.6490  139.0970 C   0  0  1  0  0  3  0  0  0  0  0  0
  186.5780  178.4390  139.1460 C   0  0  0  0  0  1  0  0  0  0  0  0
  188.2600  177.4570  137.6310 C   0  0  0  0  0  2  0  0  0  0  0  0
  188.0670  176.0260  137.1250 C   0  0  1  0  0  3  0  0  0  0  0  0
  187.5400  174.4860  134.8570 C   0  0  0  0  0  2  0  0  0  0  0  0
  186.7420  175.9410  136.3510 C   0  0  0  0  0  2  0  0  0  0  0  0
  189.2190  175.5680  136.3060 N   0  0  0  0  0  0  0  0  0  0  0  0
  188.8940  174.3550  135.5410 C   0  0  0  0  0  2  0  0  0  0  0  0
  186.5540  174.6510  135.8380 O   0  0  0  0  0  0  0  0  0  0  0  0
  190.3880  175.2070  137.1260 C   0  0  0  0  0  3  0  0  0  0  0  0
  191.4990  176.2670  137.2020 C   0  0  0  0  0  2  0  0  0  0  0  0
  193.2510  176.8000  138.7290 O   0  0  0  0  0  1  0  0  0  0  0  0
  191.8830  176.5420  138.6460 C   0  0  0  0  0  2  0  0  0  0  0  0
  190.8590  173.7670  136.9000 C   0  0  0  0  0  2  0  0  0  0  0  0
  192.2900  172.3780  135.5960 O   0  0  0  0  0  1  0  0  0  0  0  0
  192.1340  173.6790  136.0750 C   0  0  0  0  0  2  0  0  0  0  0  0
  185.2520  177.8740  144.0060 C   0  0  0  0  0  2  0  0  0  0  0  0
  181.9710  178.6750  144.0990 C   0  0  0  0  0  2  0  0  0  0  0  0
  181.4770  179.0010  142.3820 P   0  0  1  0  0  0  0  0  0  0  0  0
  180.6920  177.6510  141.7350 O   0  0  0  0  0  0  0  0  0  0  0  0
  183.8730  178.4840  142.0170 C   0  0  0  0  0  2  0  0  0  0  0  0
  183.2840  179.4110  144.3420 C   0  0  0  0  0  2  0  0  0  0  0  0
  184.4030  178.9720  143.3760 C   0  0  1  0  0  3  0  0  0  0  0  0
  180.5530  180.1990  142.3410 O   0  0  0  0  0  1  0  0  0  0  0  0
  182.8900  179.3420  141.5000 O   0  0  0  0  0  0  0  0  0  0  0  0
  1  8  1  0  0  0  0
  1  6  1  0  0  0  0
  2 12  1  0  0  0  0
  3 16  1  1  0  0  0
  3 14  1  0  0  0  0
  3 10  1  0  0  0  0
  4 15  1  0  0  0  0
  4  8  2  0  0  0  0
  5  1  2  0  0  0  0
  7  4  1  0  0  0  0
  9  7  2  0  0  0  0
  9  5  1  0  0  0  0
 10 11  1  0  0  0  0
 11  2  2  0  0  0  0
 11  7  1  0  0  0  0
 12 15  2  0  0  0  0
 13 35  1  1  0  0  0
 13  2  1  0  0  0  0
 14 13  1  0  0  0  0
 16 17  1  1  0  0  0
 18 16  1  0  0  0  0
 19 20  1  6  0  0  0
 19 18  1  0  0  0  0
 21 19  1  0  0  0  0
 22 21  1  6  0  0  0
 23 26  1  0  0  0  0
 23 27  1  0  0  0  0
 24 22  1  0  0  0  0
 25 22  1  0  0  0  0
 25 28  1  0  0  0  0
 26 25  1  0  0  0  0
 27 24  1  0  0  0  0
 28 29  1  0  0  0  0
 29 31  1  0  0  0  0
 31 30  1  0  0  0  0
 32 28  1  0  0  0  0
 33 34  1  0  0  0  0
 34 32  1  0  0  0  0
 36 40  1  0  0  0  0
 37 38  2  6  0  0  0
 37 36  1  0  0  0  0
 39 41  1  0  0  0  0
 41 35  1  1  0  0  0
 41 40  1  0  0  0  0
 42 37  1  0  0  0  0
 43 39  1  0  0  0  0
 43 37  1  0  0  0  0
M  END
>  <MODEL>
9

>  <REMARK>
 VINA RESULT:      -6.7      3.516      6.573
  Name = 
  12 active torsions:
  status: ('A' for Active; 'I' for Inactive)
    1  A    between atoms: C_1  and  C_34
    2  A    between atoms: C_1  and  C_35
    3  A    between atoms: C_2  and  N_6
    4  A    between atoms: C_2  and  C_13
    5  A    between atoms: C_3  and  C_4
    6  A    between atoms: C_3  and  C_12
    7  A    between atoms: N_6  and  C_12
    8  A    between atoms: C_11  and  C_14
    9  A    between atoms: C_11  and  C_36
   10  A    between atoms: C_14  and  N_22
   11  A    between atoms: C_14  and  C_40
   12  A    between atoms: C_31  and  C_40
                            x       y       z     vdW  Elec       q    Type
                         _______ _______ _______ _____ _____    ______ ____

>  <TORSDO>
F 12

$$$$
