=
 OpenBabel10262419413D

 31 33  0  0  1  0  0  0  0  0999 V2000
  191.4410  176.5370  144.6630 C   0  0  0  0  0  0  0  0  0  0  0  0
  188.6440  176.1700  142.1200 C   0  0  0  0  0  2  0  0  0  0  0  0
  189.5440  176.7550  143.1730 C   0  0  0  0  0  0  0  0  0  0  0  0
  191.2450  177.8480  145.1080 C   0  0  0  0  0  3  0  0  0  0  0  0
  187.2740  178.2280  142.3050 N   0  0  0  0  0  0  0  0  0  0  0  0
  192.4580  175.7970  145.1650 F   0  0  0  0  0  0  0  0  0  0  0  0
  188.2730  178.8410  143.0880 N   0  0  0  0  0  2  0  0  0  0  0  0
  187.8580  177.2540  141.3600 C   0  0  1  0  0  3  0  0  0  0  0  0
  190.5920  175.9910  143.6940 C   0  0  0  0  0  3  0  0  0  0  0  0
  189.3360  178.0630  143.6390 C   0  0  0  0  0  0  0  0  0  0  0  0
  190.1940  178.6130  144.5940 C   0  0  0  0  0  3  0  0  0  0  0  0
  188.6490  177.8790  140.1920 C   0  0  1  0  0  3  0  0  0  0  0  0
  190.5250  176.6680  139.5710 C   0  0  0  0  0  2  0  0  0  0  0  0
  190.0590  177.7640  140.3260 O   0  0  0  0  0  0  0  0  0  0  0  0
  190.3510  176.9280  138.0640 C   0  0  0  0  0  2  0  0  0  0  0  0
  189.4460  179.0430  137.5610 C   0  0  0  0  0  1  0  0  0  0  0  0
  188.1070  177.4590  138.8050 C   0  0  2  0  0  3  0  0  0  0  0  0
  189.1030  177.6340  137.7340 N   0  0  0  0  0  0  0  0  0  0  0  0
  186.7140  177.9980  138.4550 C   0  0  0  0  0  2  0  0  0  0  0  0
  186.0840  177.2920  137.2650 C   0  0  0  0  0  1  0  0  0  0  0  0
  186.3940  179.2220  141.6640 C   0  0  0  0  0  2  0  0  0  0  0  0
  184.2070  179.0400  140.6280 C   0  0  0  0  0  0  0  0  0  0  0  0
  184.9240  178.9030  141.7100 C   0  0  0  0  0  0  0  0  0  0  0  0
  183.5250  179.1670  139.6020 O   0  0  0  0  0  0  0  0  0  0  0  0
  184.3250  178.2640  142.9210 C   0  0  0  0  0  2  0  0  0  0  0  0
  183.8490  179.3130  143.9110 C   0  0  0  0  0  2  0  0  0  0  0  0
  184.1440  178.8460  145.3200 C   0  0  0  0  0  2  0  0  0  0  0  0
  185.4990  178.1650  145.3530 C   0  0  0  0  0  2  0  0  0  0  0  0
  186.2420  178.5510  146.5890 C   0  0  0  0  0  0  0  0  0  0  0  0
  187.4890  177.8270  146.9590 C   0  0  0  0  0  1  0  0  0  0  0  0
  185.8200  179.4410  147.3100 O   0  0  0  0  0  0  0  0  0  0  0  0
  1  4  1  0  0  0  0
  1  6  1  0  0  0  0
  2  3  1  0  0  0  0
  3 10  2  0  0  0  0
  3  9  1  0  0  0  0
  5  7  1  0  0  0  0
  7 10  1  0  0  0  0
  8  2  1  1  0  0  0
  8  5  1  0  0  0  0
  9  1  2  0  0  0  0
 10 11  1  0  0  0  0
 11  4  2  0  0  0  0
 12 14  1  6  0  0  0
 12  8  1  0  0  0  0
 13 14  1  0  0  0  0
 15 13  1  0  0  0  0
 16 18  1  0  0  0  0
 17 19  1  6  0  0  0
 17 12  1  0  0  0  0
 18 15  1  0  0  0  0
 18 17  1  0  0  0  0
 20 19  1  0  0  0  0
 21 23  1  0  0  0  0
 21  5  1  0  0  0  0
 22 23  2  0  0  0  0
 23 25  1  0  0  0  0
 24 22  2  0  0  0  0
 25 26  1  0  0  0  0
 26 27  1  0  0  0  0
 27 28  1  0  0  0  0
 28 29  1  0  0  0  0
 29 30  1  0  0  0  0
 29 31  2  0  0  0  0
M  END
>  <MODEL>
1

>  <REMARK>
 VINA RESULT:      -6.4      0.000      0.000
  Name = 
  9 active torsions:
  status: ('A' for Active; 'I' for Inactive)
    1  A    between atoms: C_1  and  C_24
    2  A    between atoms: C_5  and  C_21
    3  A    between atoms: C_6  and  C_7
    4  A    between atoms: C_6  and  C_19
    5  A    between atoms: C_7  and  C_9
    6  A    between atoms: C_9  and  C_23
    7  A    between atoms: N_15  and  C_23
    8  A    between atoms: C_17  and  C_30
    9  A    between atoms: C_19  and  C_24
                            x       y       z     vdW  Elec       q    Type
                         _______ _______ _______ _____ _____    ______ ____

>  <TORSDO>
F 9

$$$$
=
 OpenBabel10262419413D

 31 33  0  0  1  0  0  0  0  0999 V2000
  191.8210  177.4840  140.5720 C   0  0  0  0  0  0  0  0  0  0  0  0
  190.3080  178.6420  143.8580 C   0  0  0  0  0  2  0  0  0  0  0  0
  190.4810  177.9450  142.5380 C   0  0  0  0  0  0  0  0  0  0  0  0
  190.8260  176.6250  140.0930 C   0  0  0  0  0  3  0  0  0  0  0  0
  188.0030  177.7290  143.9130 N   0  0  0  0  0  0  0  0  0  0  0  0
  192.9540  177.6730  139.8560 F   0  0  0  0  0  0  0  0  0  0  0  0
  188.2930  176.8930  142.8160 N   0  0  0  0  0  2  0  0  0  0  0  0
  189.2130  177.9880  144.7200 C   0  0  1  0  0  3  0  0  0  0  0  0
  191.6490  178.1420  141.7950 C   0  0  0  0  0  3  0  0  0  0  0  0
  189.4750  177.1000  142.0420 C   0  0  0  0  0  0  0  0  0  0  0  0
  189.6540  176.4300  140.8290 C   0  0  0  0  0  3  0  0  0  0  0  0
  189.7160  176.7810  145.5390 C   0  0  1  0  0  3  0  0  0  0  0  0
  192.0240  176.5740  145.5880 C   0  0  0  0  0  2  0  0  0  0  0  0
  190.8390  176.1270  144.9660 O   0  0  0  0  0  0  0  0  0  0  0  0
  192.0780  176.1120  147.0550 C   0  0  0  0  0  2  0  0  0  0  0  0
  190.2370  174.7990  147.7100 C   0  0  0  0  0  1  0  0  0  0  0  0
  189.8650  177.0950  147.0460 C   0  0  2  0  0  3  0  0  0  0  0  0
  190.7720  176.1570  147.7310 N   0  0  0  0  0  0  0  0  0  0  0  0
  188.5520  177.3500  147.7960 C   0  0  0  0  0  2  0  0  0  0  0  0
  188.5090  178.7070  148.4800 C   0  0  0  0  0  1  0  0  0  0  0  0
  186.8620  177.2270  144.6980 C   0  0  0  0  0  2  0  0  0  0  0  0
  185.4380  178.6010  146.1040 C   0  0  0  0  0  0  0  0  0  0  0  0
  185.7370  178.2070  144.8950 C   0  0  0  0  0  0  0  0  0  0  0  0
  185.1530  178.9780  147.2480 O   0  0  0  0  0  0  0  0  0  0  0  0
  185.0900  178.8650  143.7200 C   0  0  0  0  0  2  0  0  0  0  0  0
  183.5760  178.8270  143.8390 C   0  0  0  0  0  2  0  0  0  0  0  0
  182.9670  178.6640  142.4640 C   0  0  0  0  0  2  0  0  0  0  0  0
  184.0490  178.2720  141.4750 C   0  0  0  0  0  2  0  0  0  0  0  0
  183.9180  179.0700  140.2210 C   0  0  0  0  0  0  0  0  0  0  0  0
  182.6330  179.0620  139.4680 C   0  0  0  0  0  1  0  0  0  0  0  0
  184.8660  179.7130  139.7980 O   0  0  0  0  0  0  0  0  0  0  0  0
  1  9  1  0  0  0  0
  3  2  1  0  0  0  0
  4  1  2  0  0  0  0
  4 11  1  0  0  0  0
  5 21  1  0  0  0  0
  5  8  1  0  0  0  0
  6  1  1  0  0  0  0
  7  5  1  0  0  0  0
  8  2  1  6  0  0  0
  8 12  1  0  0  0  0
  9  3  2  0  0  0  0
 10  3  1  0  0  0  0
 10  7  1  0  0  0  0
 11 10  2  0  0  0  0
 12 14  1  6  0  0  0
 12 17  1  0  0  0  0
 13 15  1  0  0  0  0
 14 13  1  0  0  0  0
 15 18  1  0  0  0  0
 16 18  1  0  0  0  0
 17 18  1  0  0  0  0
 17 19  1  1  0  0  0
 19 20  1  0  0  0  0
 21 23  1  0  0  0  0
 22 24  2  0  0  0  0
 23 22  2  0  0  0  0
 25 26  1  0  0  0  0
 25 23  1  0  0  0  0
 27 26  1  0  0  0  0
 28 27  1  0  0  0  0
 29 28  1  0  0  0  0
 30 29  1  0  0  0  0
 31 29  2  0  0  0  0
M  END
>  <MODEL>
2

>  <REMARK>
 VINA RESULT:      -6.3      2.420      6.160
  Name = 
  9 active torsions:
  status: ('A' for Active; 'I' for Inactive)
    1  A    between atoms: C_1  and  C_24
    2  A    between atoms: C_5  and  C_21
    3  A    between atoms: C_6  and  C_7
    4  A    between atoms: C_6  and  C_19
    5  A    between atoms: C_7  and  C_9
    6  A    between atoms: C_9  and  C_23
    7  A    between atoms: N_15  and  C_23
    8  A    between atoms: C_17  and  C_30
    9  A    between atoms: C_19  and  C_24
                            x       y       z     vdW  Elec       q    Type
                         _______ _______ _______ _____ _____    ______ ____

>  <TORSDO>
F 9

$$$$
=
 OpenBabel10262419413D

 31 33  0  0  1  0  0  0  0  0999 V2000
  185.5200  178.2900  146.4380 C   0  0  0  0  0  0  0  0  0  0  0  0
  185.3000  179.9210  143.0150 C   0  0  0  0  0  2  0  0  0  0  0  0
  185.6890  178.9830  144.1220 C   0  0  0  0  0  0  0  0  0  0  0  0
  186.3810  177.2190  146.1830 C   0  0  0  0  0  3  0  0  0  0  0  0
  186.9380  178.7340  141.5810 N   0  0  0  0  0  0  0  0  0  0  0  0
  185.0160  178.4720  147.6810 F   0  0  0  0  0  0  0  0  0  0  0  0
  187.0810  177.7260  142.5550 N   0  0  0  0  0  2  0  0  0  0  0  0
  185.5860  179.3280  141.6230 C   0  0  1  0  0  3  0  0  0  0  0  0
  185.1720  179.1710  145.4080 C   0  0  0  0  0  3  0  0  0  0  0  0
  186.5720  177.9190  143.8750 C   0  0  0  0  0  0  0  0  0  0  0  0
  186.9060  177.0300  144.9000 C   0  0  0  0  0  3  0  0  0  0  0  0
  184.4590  178.4110  141.1040 C   0  0  1  0  0  3  0  0  0  0  0  0
  182.4850  178.5720  142.3090 C   0  0  0  0  0  2  0  0  0  0  0  0
  183.6720  177.8300  142.1340 O   0  0  0  0  0  0  0  0  0  0  0  0
  181.5730  178.4440  141.0750 C   0  0  0  0  0  2  0  0  0  0  0  0
  182.4330  177.0350  139.3970 C   0  0  0  0  0  1  0  0  0  0  0  0
  183.6360  179.0560  139.9630 C   0  0  2  0  0  3  0  0  0  0  0  0
  182.3110  178.4320  139.8020 N   0  0  0  0  0  0  0  0  0  0  0  0
  184.3920  179.2600  138.6440 C   0  0  0  0  0  2  0  0  0  0  0  0
  185.0300  177.9850  138.1200 C   0  0  0  0  0  1  0  0  0  0  0  0
  187.3380  178.2640  140.2430 C   0  0  0  0  0  2  0  0  0  0  0  0
  189.0780  177.0630  139.0530 C   0  0  0  0  0  0  0  0  0  0  0  0
  188.7010  177.6310  140.1660 C   0  0  0  0  0  0  0  0  0  0  0  0
  189.4390  176.5230  137.9980 O   0  0  0  0  0  0  0  0  0  0  0  0
  189.6830  177.8080  141.2790 C   0  0  0  0  0  2  0  0  0  0  0  0
  190.4260  176.5130  141.5610 C   0  0  0  0  0  2  0  0  0  0  0  0
  190.2220  176.1220  143.0080 C   0  0  0  0  0  2  0  0  0  0  0  0
  191.5040  176.3590  143.7810 C   0  0  0  0  0  2  0  0  0  0  0  0
  191.2430  177.2310  144.9640 C   0  0  0  0  0  0  0  0  0  0  0  0
  190.2590  178.3440  144.8600 C   0  0  0  0  0  1  0  0  0  0  0  0
  191.8460  177.0490  146.0090 O   0  0  0  0  0  0  0  0  0  0  0  0
  1  6  1  0  0  0  0
  2  3  1  0  0  0  0
  3  9  1  0  0  0  0
  4  1  1  0  0  0  0
  5  8  1  0  0  0  0
  5  7  1  0  0  0  0
  7 10  1  0  0  0  0
  8  2  1  1  0  0  0
  9  1  2  0  0  0  0
 10  3  2  0  0  0  0
 10 11  1  0  0  0  0
 11  4  2  0  0  0  0
 12  8  1  0  0  0  0
 12 14  1  1  0  0  0
 14 13  1  0  0  0  0
 15 13  1  0  0  0  0
 16 18  1  0  0  0  0
 17 19  1  6  0  0  0
 17 12  1  0  0  0  0
 18 17  1  0  0  0  0
 18 15  1  0  0  0  0
 20 19  1  0  0  0  0
 21  5  1  0  0  0  0
 22 23  2  0  0  0  0
 23 21  1  0  0  0  0
 23 25  1  0  0  0  0
 24 22  2  0  0  0  0
 25 26  1  0  0  0  0
 26 27  1  0  0  0  0
 27 28  1  0  0  0  0
 28 29  1  0  0  0  0
 29 31  2  0  0  0  0
 30 29  1  0  0  0  0
M  END
>  <MODEL>
3

>  <REMARK>
 VINA RESULT:      -6.3      2.587      5.648
  Name = 
  9 active torsions:
  status: ('A' for Active; 'I' for Inactive)
    1  A    between atoms: C_1  and  C_24
    2  A    between atoms: C_5  and  C_21
    3  A    between atoms: C_6  and  C_7
    4  A    between atoms: C_6  and  C_19
    5  A    between atoms: C_7  and  C_9
    6  A    between atoms: C_9  and  C_23
    7  A    between atoms: N_15  and  C_23
    8  A    between atoms: C_17  and  C_30
    9  A    between atoms: C_19  and  C_24
                            x       y       z     vdW  Elec       q    Type
                         _______ _______ _______ _____ _____    ______ ____

>  <TORSDO>
F 9

$$$$
=
 OpenBabel10262419413D

 31 33  0  0  1  0  0  0  0  0999 V2000
  191.7890  177.5290  140.5790 C   0  0  0  0  0  0  0  0  0  0  0  0
  190.2100  178.6920  143.8320 C   0  0  0  0  0  2  0  0  0  0  0  0
  190.4160  177.9830  142.5220 C   0  0  0  0  0  0  0  0  0  0  0  0
  190.8220  176.6400  140.1000 C   0  0  0  0  0  3  0  0  0  0  0  0
  187.9280  177.7230  143.8720 N   0  0  0  0  0  0  0  0  0  0  0  0
  192.9260  177.7370  139.8730 F   0  0  0  0  0  0  0  0  0  0  0  0
  188.2510  176.8800  142.7900 N   0  0  0  0  0  2  0  0  0  0  0  0
  189.1210  178.0220  144.6900 C   0  0  1  0  0  3  0  0  0  0  0  0
  191.5870  178.1990  141.7910 C   0  0  0  0  0  3  0  0  0  0  0  0
  189.4370  177.1070  142.0270 C   0  0  0  0  0  0  0  0  0  0  0  0
  189.6460  176.4260  140.8250 C   0  0  0  0  0  3  0  0  0  0  0  0
  189.6440  176.8390  145.5300 C   0  0  1  0  0  3  0  0  0  0  0  0
  191.9550  176.6590  145.5660 C   0  0  0  0  0  2  0  0  0  0  0  0
  190.7710  176.1860  144.9620 O   0  0  0  0  0  0  0  0  0  0  0  0
  192.0260  176.2300  147.0420 C   0  0  0  0  0  2  0  0  0  0  0  0
  190.2040  174.9100  147.7390 C   0  0  0  0  0  1  0  0  0  0  0  0
  189.8010  177.1870  147.0290 C   0  0  2  0  0  3  0  0  0  0  0  0
  190.7240  176.2740  147.7270 N   0  0  0  0  0  0  0  0  0  0  0  0
  188.4900  177.4430  147.7830 C   0  0  0  0  0  2  0  0  0  0  0  0
  188.6530  178.3970  148.9540 C   0  0  0  0  0  1  0  0  0  0  0  0
  186.7900  177.2030  144.6510 C   0  0  0  0  0  2  0  0  0  0  0  0
  185.6310  178.8230  146.0380 C   0  0  0  0  0  0  0  0  0  0  0  0
  185.6790  178.1870  144.8980 C   0  0  0  0  0  0  0  0  0  0  0  0
  185.5840  179.4280  147.1170 O   0  0  0  0  0  0  0  0  0  0  0  0
  184.7470  178.5720  143.7950 C   0  0  0  0  0  2  0  0  0  0  0  0
  183.3630  178.8870  144.3350 C   0  0  0  0  0  2  0  0  0  0  0  0
  182.3890  179.0040  143.1840 C   0  0  0  0  0  2  0  0  0  0  0  0
  180.9710  178.8710  143.7070 C   0  0  0  0  0  2  0  0  0  0  0  0
  180.0150  179.5610  142.7910 C   0  0  0  0  0  0  0  0  0  0  0  0
  179.1790  178.7600  141.8540 C   0  0  0  0  0  1  0  0  0  0  0  0
  179.9300  180.7780  142.7920 O   0  0  0  0  0  0  0  0  0  0  0  0
  1  9  1  0  0  0  0
  3  2  1  0  0  0  0
  4  1  2  0  0  0  0
  4 11  1  0  0  0  0
  5 21  1  0  0  0  0
  5  8  1  0  0  0  0
  6  1  1  0  0  0  0
  7  5  1  0  0  0  0
  8  2  1  6  0  0  0
  8 12  1  0  0  0  0
  9  3  2  0  0  0  0
 10  3  1  0  0  0  0
 10  7  1  0  0  0  0
 11 10  2  0  0  0  0
 12 14  1  6  0  0  0
 12 17  1  0  0  0  0
 13 15  1  0  0  0  0
 14 13  1  0  0  0  0
 15 18  1  0  0  0  0
 17 18  1  0  0  0  0
 17 19  1  1  0  0  0
 18 16  1  0  0  0  0
 19 20  1  0  0  0  0
 21 23  1  0  0  0  0
 22 24  2  0  0  0  0
 23 22  2  0  0  0  0
 25 26  1  0  0  0  0
 25 23  1  0  0  0  0
 27 28  1  0  0  0  0
 27 26  1  0  0  0  0
 29 31  2  0  0  0  0
 29 28  1  0  0  0  0
 30 29  1  0  0  0  0
M  END
>  <MODEL>
4

>  <REMARK>
 VINA RESULT:      -6.3      2.773      6.243
  Name = 
  9 active torsions:
  status: ('A' for Active; 'I' for Inactive)
    1  A    between atoms: C_1  and  C_24
    2  A    between atoms: C_5  and  C_21
    3  A    between atoms: C_6  and  C_7
    4  A    between atoms: C_6  and  C_19
    5  A    between atoms: C_7  and  C_9
    6  A    between atoms: C_9  and  C_23
    7  A    between atoms: N_15  and  C_23
    8  A    between atoms: C_17  and  C_30
    9  A    between atoms: C_19  and  C_24
                            x       y       z     vdW  Elec       q    Type
                         _______ _______ _______ _____ _____    ______ ____

>  <TORSDO>
F 9

$$$$
=
 OpenBabel10262419413D

 31 33  0  0  1  0  0  0  0  0999 V2000
  183.4300  178.8440  143.5930 C   0  0  0  0  0  0  0  0  0  0  0  0
  182.9610  179.0700  139.8300 C   0  0  0  0  0  2  0  0  0  0  0  0
  183.6100  178.9210  141.1780 C   0  0  0  0  0  0  0  0  0  0  0  0
  184.8040  178.6090  143.6900 C   0  0  0  0  0  3  0  0  0  0  0  0
  185.2370  179.0060  138.8490 N   0  0  0  0  0  0  0  0  0  0  0  0
  182.6740  178.9170  144.7140 F   0  0  0  0  0  0  0  0  0  0  0  0
  185.7760  178.6120  140.0900 N   0  0  0  0  0  2  0  0  0  0  0  0
  183.8480  178.5280  138.6950 C   0  0  1  0  0  3  0  0  0  0  0  0
  182.8320  178.9990  142.3370 C   0  0  0  0  0  3  0  0  0  0  0  0
  184.9940  178.7060  141.2810 C   0  0  0  0  0  0  0  0  0  0  0  0
  185.5870  178.5360  142.5340 C   0  0  0  0  0  3  0  0  0  0  0  0
  183.7070  177.0060  138.4800 C   0  0  1  0  0  3  0  0  0  0  0  0
  181.7380  176.1170  139.3200 C   0  0  0  0  0  2  0  0  0  0  0  0
  183.1090  176.3250  139.5750 O   0  0  0  0  0  0  0  0  0  0  0  0
  181.5420  175.1250  138.1590 C   0  0  0  0  0  2  0  0  0  0  0  0
  183.5550  174.2770  137.2810 C   0  0  0  0  0  1  0  0  0  0  0  0
  183.1020  176.6460  137.1020 C   0  0  2  0  0  3  0  0  0  0  0  0
  182.5250  175.2910  137.0770 N   0  0  0  0  0  0  0  0  0  0  0  0
  183.9900  176.9670  135.8930 C   0  0  0  0  0  2  0  0  0  0  0  0
  183.2000  177.1680  134.6110 C   0  0  0  0  0  1  0  0  0  0  0  0
  186.1190  178.6390  137.7270 C   0  0  0  0  0  2  0  0  0  0  0  0
  187.2680  176.5020  137.6800 C   0  0  0  0  0  0  0  0  0  0  0  0
  187.2740  177.7440  138.0840 C   0  0  0  0  0  0  0  0  0  0  0  0
  187.2660  175.3250  137.2970 O   0  0  0  0  0  0  0  0  0  0  0  0
  188.4980  178.3070  138.7320 C   0  0  0  0  0  2  0  0  0  0  0  0
  189.0560  177.3480  139.7690 C   0  0  0  0  0  2  0  0  0  0  0  0
  189.0200  178.0040  141.1320 C   0  0  0  0  0  2  0  0  0  0  0  0
  190.1350  177.4420  141.9920 C   0  0  0  0  0  2  0  0  0  0  0  0
  189.6410  176.2800  142.7880 C   0  0  0  0  0  0  0  0  0  0  0  0
  188.3570  176.3880  143.5360 C   0  0  0  0  0  1  0  0  0  0  0  0
  190.2930  175.2500  142.8460 O   0  0  0  0  0  0  0  0  0  0  0  0
  1  4  1  0  0  0  0
  1  6  1  0  0  0  0
  2  3  1  0  0  0  0
  3 10  2  0  0  0  0
  3  9  1  0  0  0  0
  5  7  1  0  0  0  0
  7 10  1  0  0  0  0
  8  5  1  0  0  0  0
  8  2  1  1  0  0  0
  9  1  2  0  0  0  0
 10 11  1  0  0  0  0
 11  4  2  0  0  0  0
 12  8  1  0  0  0  0
 12 14  1  1  0  0  0
 13 14  1  0  0  0  0
 15 13  1  0  0  0  0
 17 19  1  6  0  0  0
 17 12  1  0  0  0  0
 18 17  1  0  0  0  0
 18 16  1  0  0  0  0
 18 15  1  0  0  0  0
 20 19  1  0  0  0  0
 21 23  1  0  0  0  0
 21  5  1  0  0  0  0
 22 23  2  0  0  0  0
 23 25  1  0  0  0  0
 24 22  2  0  0  0  0
 25 26  1  0  0  0  0
 26 27  1  0  0  0  0
 27 28  1  0  0  0  0
 28 29  1  0  0  0  0
 29 31  2  0  0  0  0
 29 30  1  0  0  0  0
M  END
>  <MODEL>
5

>  <REMARK>
 VINA RESULT:      -6.1      3.326      6.344
  Name = 
  9 active torsions:
  status: ('A' for Active; 'I' for Inactive)
    1  A    between atoms: C_1  and  C_24
    2  A    between atoms: C_5  and  C_21
    3  A    between atoms: C_6  and  C_7
    4  A    between atoms: C_6  and  C_19
    5  A    between atoms: C_7  and  C_9
    6  A    between atoms: C_9  and  C_23
    7  A    between atoms: N_15  and  C_23
    8  A    between atoms: C_17  and  C_30
    9  A    between atoms: C_19  and  C_24
                            x       y       z     vdW  Elec       q    Type
                         _______ _______ _______ _____ _____    ______ ____

>  <TORSDO>
F 9

$$$$
=
 OpenBabel10262419413D

 31 33  0  0  1  0  0  0  0  0999 V2000
  179.9780  180.7110  138.2540 C   0  0  0  0  0  0  0  0  0  0  0  0
  183.6730  180.1770  138.9560 C   0  0  0  0  0  2  0  0  0  0  0  0
  182.1760  180.0960  139.0670 C   0  0  0  0  0  0  0  0  0  0  0  0
  179.3880  179.9230  139.2460 C   0  0  0  0  0  3  0  0  0  0  0  0
  183.7900  178.8680  141.0580 N   0  0  0  0  0  0  0  0  0  0  0  0
  179.2010  181.3880  137.3760 F   0  0  0  0  0  0  0  0  0  0  0  0
  182.4090  178.5980  140.9840 N   0  0  0  0  0  2  0  0  0  0  0  0
  184.3740  179.0330  139.7120 C   0  0  1  0  0  3  0  0  0  0  0  0
  181.3720  180.7970  138.1630 C   0  0  0  0  0  3  0  0  0  0  0  0
  181.5790  179.3230  140.0760 C   0  0  0  0  0  0  0  0  0  0  0  0
  180.1870  179.2260  140.1570 C   0  0  0  0  0  3  0  0  0  0  0  0
  184.4860  177.7330  138.8890 C   0  0  1  0  0  3  0  0  0  0  0  0
  182.8130  177.4740  137.3060 C   0  0  0  0  0  2  0  0  0  0  0  0
  183.2330  177.1240  138.6060 O   0  0  0  0  0  0  0  0  0  0  0  0
  183.7380  176.8510  136.2450 C   0  0  0  0  0  2  0  0  0  0  0  0
  185.4520  175.5120  137.1450 C   0  0  0  0  0  1  0  0  0  0  0  0
  185.4150  177.8750  137.6610 C   0  0  2  0  0  3  0  0  0  0  0  0
  185.1560  176.8480  136.6360 N   0  0  0  0  0  0  0  0  0  0  0  0
  186.9020  178.0710  137.9830 C   0  0  0  0  0  2  0  0  0  0  0  0
  187.7320  178.4380  136.7650 C   0  0  0  0  0  1  0  0  0  0  0  0
  184.4970  177.8820  141.8940 C   0  0  0  0  0  2  0  0  0  0  0  0
  184.1270  178.8290  144.0970 C   0  0  0  0  0  0  0  0  0  0  0  0
  184.9910  178.3980  143.2180 C   0  0  0  0  0  0  0  0  0  0  0  0
  183.3100  179.2370  144.9340 O   0  0  0  0  0  0  0  0  0  0  0  0
  186.4290  178.2530  143.6010 C   0  0  0  0  0  2  0  0  0  0  0  0
  186.5960  177.2320  144.7130 C   0  0  0  0  0  2  0  0  0  0  0  0
  187.3480  177.8620  145.8650 C   0  0  0  0  0  2  0  0  0  0  0  0
  188.8110  177.4750  145.7850 C   0  0  0  0  0  2  0  0  0  0  0  0
  189.3750  177.2920  147.1550 C   0  0  0  0  0  0  0  0  0  0  0  0
  188.8220  178.0780  148.2930 C   0  0  0  0  0  1  0  0  0  0  0  0
  190.3000  176.5190  147.3430 O   0  0  0  0  0  0  0  0  0  0  0  0
  1  4  1  0  0  0  0
  2  3  1  0  0  0  0
  3 10  2  0  0  0  0
  4 11  2  0  0  0  0
  5 21  1  0  0  0  0
  6  1  1  0  0  0  0
  7  5  1  0  0  0  0
  8  2  1  6  0  0  0
  8  5  1  0  0  0  0
  9  1  2  0  0  0  0
  9  3  1  0  0  0  0
 10 11  1  0  0  0  0
 10  7  1  0  0  0  0
 12 14  1  6  0  0  0
 12  8  1  0  0  0  0
 13 14  1  0  0  0  0
 15 18  1  0  0  0  0
 15 13  1  0  0  0  0
 17 19  1  1  0  0  0
 17 12  1  0  0  0  0
 18 16  1  0  0  0  0
 18 17  1  0  0  0  0
 20 19  1  0  0  0  0
 21 23  1  0  0  0  0
 22 24  2  0  0  0  0
 23 25  1  0  0  0  0
 23 22  2  0  0  0  0
 25 26  1  0  0  0  0
 26 27  1  0  0  0  0
 28 27  1  0  0  0  0
 28 29  1  0  0  0  0
 29 31  2  0  0  0  0
 29 30  1  0  0  0  0
M  END
>  <MODEL>
6

>  <REMARK>
 VINA RESULT:      -5.7      4.128      7.066
  Name = 
  9 active torsions:
  status: ('A' for Active; 'I' for Inactive)
    1  A    between atoms: C_1  and  C_24
    2  A    between atoms: C_5  and  C_21
    3  A    between atoms: C_6  and  C_7
    4  A    between atoms: C_6  and  C_19
    5  A    between atoms: C_7  and  C_9
    6  A    between atoms: C_9  and  C_23
    7  A    between atoms: N_15  and  C_23
    8  A    between atoms: C_17  and  C_30
    9  A    between atoms: C_19  and  C_24
                            x       y       z     vdW  Elec       q    Type
                         _______ _______ _______ _____ _____    ______ ____

>  <TORSDO>
F 9

$$$$
=
 OpenBabel10262419413D

 31 33  0  0  1  0  0  0  0  0999 V2000
  188.9550  177.6710  135.7750 C   0  0  0  0  0  0  0  0  0  0  0  0
  189.1560  179.1800  139.2550 C   0  0  0  0  0  2  0  0  0  0  0  0
  188.6730  178.3880  138.0730 C   0  0  0  0  0  0  0  0  0  0  0  0
  187.8010  176.8880  135.8760 C   0  0  0  0  0  3  0  0  0  0  0  0
  187.0710  178.5080  140.4170 N   0  0  0  0  0  0  0  0  0  0  0  0
  189.6540  177.7000  134.6160 F   0  0  0  0  0  0  0  0  0  0  0  0
  186.7850  177.5800  139.3970 N   0  0  0  0  0  2  0  0  0  0  0  0
  188.5280  178.6950  140.5740 C   0  0  1  0  0  3  0  0  0  0  0  0
  189.3920  178.4190  136.8740 C   0  0  0  0  0  3  0  0  0  0  0  0
  187.5020  177.6180  138.1620 C   0  0  0  0  0  0  0  0  0  0  0  0
  187.0750  176.8580  137.0710 C   0  0  0  0  0  3  0  0  0  0  0  0
  189.2710  177.4980  141.2030 C   0  0  1  0  0  3  0  0  0  0  0  0
  191.3830  177.1340  140.3230 C   0  0  0  0  0  2  0  0  0  0  0  0
  190.0300  176.7400  140.2710 O   0  0  0  0  0  0  0  0  0  0  0  0
  192.0160  176.7430  141.6700 C   0  0  0  0  0  2  0  0  0  0  0  0
  190.5520  175.5940  143.1130 C   0  0  0  0  0  1  0  0  0  0  0  0
  190.0400  177.8750  142.4910 C   0  0  2  0  0  3  0  0  0  0  0  0
  191.1070  176.9110  142.8140 N   0  0  0  0  0  0  0  0  0  0  0  0
  189.1620  178.2570  143.6900 C   0  0  0  0  0  2  0  0  0  0  0  0
  189.9560  178.4440  144.9730 C   0  0  0  0  0  1  0  0  0  0  0  0
  186.3770  178.1740  141.6730 C   0  0  0  0  0  2  0  0  0  0  0  0
  184.1080  178.5840  140.9160 C   0  0  0  0  0  0  0  0  0  0  0  0
  185.0120  178.7870  141.8350 C   0  0  0  0  0  0  0  0  0  0  0  0
  183.2480  178.3930  140.0460 O   0  0  0  0  0  0  0  0  0  0  0  0
  184.6320  179.4640  143.1120 C   0  0  0  0  0  2  0  0  0  0  0  0
  185.1810  178.7130  144.3120 C   0  0  0  0  0  2  0  0  0  0  0  0
  184.1970  178.8060  145.4570 C   0  0  0  0  0  2  0  0  0  0  0  0
  184.7470  178.0600  146.6580 C   0  0  0  0  0  2  0  0  0  0  0  0
  186.0400  178.6650  147.0960 C   0  0  0  0  0  0  0  0  0  0  0  0
  187.2910  177.8590  147.0390 C   0  0  0  0  0  1  0  0  0  0  0  0
  186.0730  179.8090  147.5210 O   0  0  0  0  0  0  0  0  0  0  0  0
  1  4  2  0  0  0  0
  1  9  1  0  0  0  0
  3 10  1  0  0  0  0
  3  2  1  0  0  0  0
  4 11  1  0  0  0  0
  5  8  1  0  0  0  0
  5 21  1  0  0  0  0
  6  1  1  0  0  0  0
  7  5  1  0  0  0  0
  8  2  1  6  0  0  0
  8 12  1  0  0  0  0
  9  3  2  0  0  0  0
 10  7  1  0  0  0  0
 11 10  2  0  0  0  0
 12 14  1  6  0  0  0
 12 17  1  0  0  0  0
 13 15  1  0  0  0  0
 14 13  1  0  0  0  0
 15 18  1  0  0  0  0
 17 18  1  0  0  0  0
 17 19  1  1  0  0  0
 18 16  1  0  0  0  0
 19 20  1  0  0  0  0
 21 23  1  0  0  0  0
 22 23  2  0  0  0  0
 23 25  1  0  0  0  0
 24 22  2  0  0  0  0
 25 26  1  0  0  0  0
 26 27  1  0  0  0  0
 27 28  1  0  0  0  0
 28 29  1  0  0  0  0
 29 31  2  0  0  0  0
 30 29  1  0  0  0  0
M  END
>  <MODEL>
7

>  <REMARK>
 VINA RESULT:      -5.6      2.449      4.969
  Name = 
  9 active torsions:
  status: ('A' for Active; 'I' for Inactive)
    1  A    between atoms: C_1  and  C_24
    2  A    between atoms: C_5  and  C_21
    3  A    between atoms: C_6  and  C_7
    4  A    between atoms: C_6  and  C_19
    5  A    between atoms: C_7  and  C_9
    6  A    between atoms: C_9  and  C_23
    7  A    between atoms: N_15  and  C_23
    8  A    between atoms: C_17  and  C_30
    9  A    between atoms: C_19  and  C_24
                            x       y       z     vdW  Elec       q    Type
                         _______ _______ _______ _____ _____    ______ ____

>  <TORSDO>
F 9

$$$$
=
 OpenBabel10262419413D

 31 33  0  0  1  0  0  0  0  0999 V2000
  193.4830  174.3430  135.8740 C   0  0  0  0  0  0  0  0  0  0  0  0
  190.1320  174.7950  137.6040 C   0  0  0  0  0  2  0  0  0  0  0  0
  191.5740  174.9810  137.2230 C   0  0  0  0  0  0  0  0  0  0  0  0
  194.2490  175.3420  136.4820 C   0  0  0  0  0  3  0  0  0  0  0  0
  190.4990  176.4800  139.3840 N   0  0  0  0  0  0  0  0  0  0  0  0
  194.0340  173.5530  134.9230 F   0  0  0  0  0  0  0  0  0  0  0  0
  191.7550  176.8080  138.8350 N   0  0  0  0  0  2  0  0  0  0  0  0
  189.5630  176.0220  138.3390 C   0  0  1  0  0  3  0  0  0  0  0  0
  192.1450  174.1630  136.2430 C   0  0  0  0  0  3  0  0  0  0  0  0
  192.3530  175.9680  137.8470 C   0  0  0  0  0  0  0  0  0  0  0  0
  193.6840  176.1580  137.4680 C   0  0  0  0  0  3  0  0  0  0  0  0
  189.0620  177.1290  137.3870 C   0  0  1  0  0  3  0  0  0  0  0  0
  188.7480  176.4200  135.2030 C   0  0  0  0  0  2  0  0  0  0  0  0
  189.6340  177.0690  136.0870 O   0  0  0  0  0  0  0  0  0  0  0  0
  187.4830  177.2660  134.9760 C   0  0  0  0  0  2  0  0  0  0  0  0
  187.5010  179.3300  136.1100 C   0  0  0  0  0  1  0  0  0  0  0  0
  187.5230  177.2810  137.3970 C   0  0  2  0  0  3  0  0  0  0  0  0
  187.0150  177.9550  136.1890 N   0  0  0  0  0  0  0  0  0  0  0  0
  186.9260  177.8160  138.7050 C   0  0  0  0  0  2  0  0  0  0  0  0
  185.4320  178.0770  138.6150 C   0  0  0  0  0  1  0  0  0  0  0  0
  189.9670  177.5690  140.2220 C   0  0  0  0  0  2  0  0  0  0  0  0
  190.5380  176.6630  142.4000 C   0  0  0  0  0  0  0  0  0  0  0  0
  189.6170  177.1820  141.6330 C   0  0  0  0  0  0  0  0  0  0  0  0
  191.4100  176.1710  143.1290 O   0  0  0  0  0  0  0  0  0  0  0  0
  188.2900  177.5520  142.2150 C   0  0  0  0  0  2  0  0  0  0  0  0
  188.0750  176.8720  143.5550 C   0  0  0  0  0  2  0  0  0  0  0  0
  187.6940  177.9080  144.5900 C   0  0  0  0  0  2  0  0  0  0  0  0
  186.4290  177.4700  145.3020 C   0  0  0  0  0  2  0  0  0  0  0  0
  185.5530  178.6480  145.5730 C   0  0  0  0  0  0  0  0  0  0  0  0
  184.7310  179.2270  144.4740 C   0  0  0  0  0  1  0  0  0  0  0  0
  185.5240  179.1530  146.6840 O   0  0  0  0  0  0  0  0  0  0  0  0
  1  9  2  0  0  0  0
  1  4  1  0  0  0  0
  3  2  1  0  0  0  0
  3 10  2  0  0  0  0
  4 11  2  0  0  0  0
  5 21  1  0  0  0  0
  6  1  1  0  0  0  0
  7  5  1  0  0  0  0
  8  2  1  6  0  0  0
  8  5  1  0  0  0  0
  9  3  1  0  0  0  0
 10  7  1  0  0  0  0
 11 10  1  0  0  0  0
 12 14  1  6  0  0  0
 12 17  1  0  0  0  0
 12  8  1  0  0  0  0
 13 14  1  0  0  0  0
 15 13  1  0  0  0  0
 15 18  1  0  0  0  0
 16 18  1  0  0  0  0
 17 19  1  1  0  0  0
 18 17  1  0  0  0  0
 20 19  1  0  0  0  0
 21 23  1  0  0  0  0
 22 24  2  0  0  0  0
 23 25  1  0  0  0  0
 23 22  2  0  0  0  0
 25 26  1  0  0  0  0
 26 27  1  0  0  0  0
 27 28  1  0  0  0  0
 28 29  1  0  0  0  0
 29 31  2  0  0  0  0
 30 29  1  0  0  0  0
M  END
>  <MODEL>
8

>  <REMARK>
 VINA RESULT:      -5.5      3.154      5.498
  Name = 
  9 active torsions:
  status: ('A' for Active; 'I' for Inactive)
    1  A    between atoms: C_1  and  C_24
    2  A    between atoms: C_5  and  C_21
    3  A    between atoms: C_6  and  C_7
    4  A    between atoms: C_6  and  C_19
    5  A    between atoms: C_7  and  C_9
    6  A    between atoms: C_9  and  C_23
    7  A    between atoms: N_15  and  C_23
    8  A    between atoms: C_17  and  C_30
    9  A    between atoms: C_19  and  C_24
                            x       y       z     vdW  Elec       q    Type
                         _______ _______ _______ _____ _____    ______ ____

>  <TORSDO>
F 9

$$$$
=
 OpenBabel10262419413D

 31 33  0  0  1  0  0  0  0  0999 V2000
  190.6890  177.2660  144.8930 C   0  0  0  0  0  0  0  0  0  0  0  0
  188.8030  179.1310  142.1740 C   0  0  0  0  0  2  0  0  0  0  0  0
  189.5210  178.0390  142.9150 C   0  0  0  0  0  0  0  0  0  0  0  0
  190.8310  176.0000  144.3170 C   0  0  0  0  0  3  0  0  0  0  0  0
  188.7060  177.5970  140.2290 N   0  0  0  0  0  0  0  0  0  0  0  0
  191.1820  177.5060  146.1310 F   0  0  0  0  0  0  0  0  0  0  0  0
  189.1440  176.5260  141.0330 N   0  0  0  0  0  2  0  0  0  0  0  0
  187.9430  178.5820  141.0210 C   0  0  1  0  0  3  0  0  0  0  0  0
  190.0340  178.2850  144.1930 C   0  0  0  0  0  3  0  0  0  0  0  0
  189.6850  176.7720  142.3320 C   0  0  0  0  0  0  0  0  0  0  0  0
  190.3260  175.7510  143.0370 C   0  0  0  0  0  3  0  0  0  0  0  0
  186.5450  178.1090  141.4710 C   0  0  1  0  0  3  0  0  0  0  0  0
  185.9480  178.8240  143.5930 C   0  0  0  0  0  2  0  0  0  0  0  0
  186.4750  177.7510  142.8450 O   0  0  0  0  0  0  0  0  0  0  0  0
  184.4710  179.0690  143.2340 C   0  0  0  0  0  2  0  0  0  0  0  0
  183.6160  177.5590  141.6420 C   0  0  0  0  0  1  0  0  0  0  0  0
  185.4100  179.0500  141.0010 C   0  0  2  0  0  3  0  0  0  0  0  0
  184.1820  178.8950  141.8010 N   0  0  0  0  0  0  0  0  0  0  0  0
  185.1670  179.0780  139.4870 C   0  0  0  0  0  2  0  0  0  0  0  0
  183.9030  179.8280  139.1010 C   0  0  0  0  0  1  0  0  0  0  0  0
  187.9970  177.1250  139.0270 C   0  0  0  0  0  2  0  0  0  0  0  0
  188.8300  178.8030  137.4830 C   0  0  0  0  0  0  0  0  0  0  0  0
  188.6110  177.5370  137.7160 C   0  0  0  0  0  0  0  0  0  0  0  0
  189.0400  180.0020  137.2600 O   0  0  0  0  0  0  0  0  0  0  0  0
  189.1330  176.5070  136.7670 C   0  0  0  0  0  2  0  0  0  0  0  0
  190.6420  176.6100  136.6270 C   0  0  0  0  0  2  0  0  0  0  0  0
  191.3030  175.9740  137.8290 C   0  0  0  0  0  2  0  0  0  0  0  0
  192.7780  176.3270  137.8410 C   0  0  0  0  0  2  0  0  0  0  0  0
  193.1940  176.7660  139.2060 C   0  0  0  0  0  0  0  0  0  0  0  0
  192.2590  177.5690  140.0420 C   0  0  0  0  0  1  0  0  0  0  0  0
  194.3040  176.4900  139.6300 O   0  0  0  0  0  0  0  0  0  0  0  0
  1  6  1  0  0  0  0
  2  3  1  0  0  0  0
  3  9  1  0  0  0  0
  4  1  1  0  0  0  0
  5  8  1  0  0  0  0
  5  7  1  0  0  0  0
  7 10  1  0  0  0  0
  8 12  1  0  0  0  0
  8  2  1  1  0  0  0
  9  1  2  0  0  0  0
 10  3  2  0  0  0  0
 10 11  1  0  0  0  0
 11  4  2  0  0  0  0
 12 14  1  1  0  0  0
 14 13  1  0  0  0  0
 15 13  1  0  0  0  0
 16 18  1  0  0  0  0
 17 19  1  6  0  0  0
 17 12  1  0  0  0  0
 17 18  1  0  0  0  0
 18 15  1  0  0  0  0
 20 19  1  0  0  0  0
 21  5  1  0  0  0  0
 22 23  2  0  0  0  0
 23 21  1  0  0  0  0
 24 22  2  0  0  0  0
 25 23  1  0  0  0  0
 26 25  1  0  0  0  0
 26 27  1  0  0  0  0
 27 28  1  0  0  0  0
 28 29  1  0  0  0  0
 29 31  2  0  0  0  0
 29 30  1  0  0  0  0
M  END
>  <MODEL>
9

>  <REMARK>
 VINA RESULT:      -5.1      2.199      6.093
  Name = 
  9 active torsions:
  status: ('A' for Active; 'I' for Inactive)
    1  A    between atoms: C_1  and  C_24
    2  A    between atoms: C_5  and  C_21
    3  A    between atoms: C_6  and  C_7
    4  A    between atoms: C_6  and  C_19
    5  A    between atoms: C_7  and  C_9
    6  A    between atoms: C_9  and  C_23
    7  A    between atoms: N_15  and  C_23
    8  A    between atoms: C_17  and  C_30
    9  A    between atoms: C_19  and  C_24
                            x       y       z     vdW  Elec       q    Type
                         _______ _______ _______ _____ _____    ______ ____

>  <TORSDO>
F 9

$$$$
