=
 OpenBabel10252414503D

 34 38  0  0  1  0  0  0  0  0999 V2000
  183.9900  177.3700  138.8440 C   0  0  2  0  0  3  0  0  0  0  0  0
  185.7690  178.8960  139.7860 C   0  0  1  0  0  3  0  0  0  0  0  0
  183.6840  178.2600  141.1200 C   0  0  0  0  0  0  0  0  0  0  0  0
  182.4360  179.0500  143.8480 C   0  0  0  0  0  3  0  0  0  0  0  0
  186.5490  178.5510  138.6800 O   0  0  0  0  0  1  0  0  0  0  0  0
  185.7700  178.9980  142.2820 C   0  0  0  0  0  2  0  0  0  0  0  0
  184.4560  178.1440  139.8480 C   0  0  2  0  0  3  0  0  0  0  0  0
  183.6400  178.5160  143.6040 C   0  0  0  0  0  0  0  0  0  0  0  0
  182.1830  178.0530  141.1220 C   0  0  1  0  0  3  0  0  0  0  0  0
  182.6810  176.1730  139.1850 S   0  0  0  0  0  0  0  0  0  0  0  0
  186.5500  178.5660  141.0460 C   0  0  0  0  0  2  0  0  0  0  0  0
  181.5610  179.6900  142.8480 C   0  0  0  0  0  3  0  0  0  0  0  0
  181.4670  179.3110  141.5690 C   0  0  0  0  0  0  0  0  0  0  0  0
  184.3230  178.5540  142.2790 C   0  0  0  0  0  0  0  0  0  0  0  0
  181.5970  177.4630  139.8350 C   0  0  0  0  0  2  0  0  0  0  0  0
  180.4310  181.1480  138.4160 C   0  0  0  0  0  0  0  0  0  0  0  0
  179.3350  181.8850  138.8720 C   0  0  0  0  0  3  0  0  0  0  0  0
  180.7160  180.1840  140.6320 C   0  0  0  0  0  0  0  0  0  0  0  0
  178.9310  181.7820  140.2050 C   0  0  0  0  0  3  0  0  0  0  0  0
  181.1190  180.3060  139.2920 C   0  0  0  0  0  3  0  0  0  0  0  0
  179.6200  180.9390  141.0820 C   0  0  0  0  0  3  0  0  0  0  0  0
  180.8270  181.2520  137.1250 F   0  0  0  0  0  0  0  0  0  0  0  0
  184.2300  176.5330  136.5300 C   0  0  0  0  0  1  0  0  0  0  0  0
  184.5260  177.4690  137.5560 O   0  0  0  0  0  0  0  0  0  0  0  0
  184.3760  177.9410  144.7660 C   0  0  0  0  0  2  0  0  0  0  0  0
  185.3430  179.2420  145.5840 S   0  0  0  0  0  0  0  0  0  0  0  0
  186.4050  178.0190  146.4040 C   0  0  0  0  0  2  0  0  0  0  0  0
  188.5060  176.8880  147.7910 O   0  0  0  0  0  1  0  0  0  0  0  0
  187.7730  177.9790  145.7380 C   0  0  1  0  0  3  0  0  0  0  0  0
  188.9390  177.6700  146.7160 C   0  0  2  0  0  3  0  0  0  0  0  0
  190.2660  177.5050  144.7090 C   0  0  0  0  0  2  0  0  0  0  0  0
  189.1030  177.0780  143.8060 C   0  0  0  0  0  2  0  0  0  0  0  0
  187.7740  177.0060  144.5650 C   0  0  0  0  0  2  0  0  0  0  0  0
  190.0710  176.9940  146.0650 N   0  0  0  0  0  2  0  0  0  0  0  0
  1 24  1  1  0  0  0
  1 10  1  0  0  0  0
  1  7  1  0  0  0  0
  2  5  1  6  0  0  0
  2  7  1  0  0  0  0
  2 11  1  0  0  0  0
  3  9  1  0  0  0  0
  3 14  2  0  0  0  0
  7  3  1  1  0  0  0
  8  4  2  0  0  0  0
  8 25  1  0  0  0  0
  9 15  1  6  0  0  0
  9 13  1  0  0  0  0
 10 15  1  0  0  0  0
 11  6  1  0  0  0  0
 12  4  1  0  0  0  0
 13 12  2  0  0  0  0
 14  6  1  0  0  0  0
 14  8  1  0  0  0  0
 16 17  2  0  0  0  0
 16 20  1  0  0  0  0
 17 19  1  0  0  0  0
 18 21  1  0  0  0  0
 18 13  1  0  0  0  0
 19 21  2  0  0  0  0
 20 18  2  0  0  0  0
 22 16  1  0  0  0  0
 23 24  1  0  0  0  0
 25 26  1  0  0  0  0
 26 27  1  0  0  0  0
 29 27  1  1  0  0  0
 29 30  1  0  0  0  0
 30 28  1  1  0  0  0
 31 34  1  0  0  0  0
 32 33  1  0  0  0  0
 32 31  1  0  0  0  0
 33 29  1  0  0  0  0
 34 30  1  0  0  0  0
M  END
>  <MODEL>
1

>  <REMARK>
 VINA RESULT:      -7.4      0.000      0.000
  Name = 
  6 active torsions:
  status: ('A' for Active; 'I' for Inactive)
    1  A    between atoms: C_1  and  O_19
    2  A    between atoms: C_3  and  C_13
    3  A    between atoms: C_3  and  S_17
    4  A    between atoms: C_12  and  C_28
    5  A    between atoms: S_17  and  C_29
    6  A    between atoms: C_18  and  C_29
                            x       y       z     vdW  Elec       q    Type
                         _______ _______ _______ _____ _____    ______ ____

>  <TORSDO>
F 6

$$$$
=
 OpenBabel10252414503D

 34 38  0  0  1  0  0  0  0  0999 V2000
  184.1690  177.6020  138.7810 C   0  0  2  0  0  3  0  0  0  0  0  0
  182.4890  175.8110  139.3720 C   0  0  1  0  0  3  0  0  0  0  0  0
  182.6170  178.0240  140.6450 C   0  0  0  0  0  0  0  0  0  0  0  0
  181.2580  179.2550  143.1480 C   0  0  0  0  0  3  0  0  0  0  0  0
  182.8730  175.1630  138.1960 O   0  0  0  0  0  1  0  0  0  0  0  0
  180.5090  176.6820  140.6210 C   0  0  0  0  0  2  0  0  0  0  0  0
  183.1590  177.1560  139.5580 C   0  0  2  0  0  3  0  0  0  0  0  0
  180.6860  178.8080  142.0220 C   0  0  0  0  0  0  0  0  0  0  0  0
  183.4940  179.0780  141.2890 C   0  0  1  0  0  3  0  0  0  0  0  0
  184.5750  179.3620  138.7810 S   0  0  0  0  0  0  0  0  0  0  0  0
  180.9890  176.0450  139.3220 C   0  0  0  0  0  2  0  0  0  0  0  0
  182.6340  178.9600  143.5890 C   0  0  0  0  0  3  0  0  0  0  0  0
  183.6760  178.7990  142.7670 C   0  0  0  0  0  0  0  0  0  0  0  0
  181.3370  177.8670  141.0650 C   0  0  0  0  0  0  0  0  0  0  0  0
  184.8190  179.3610  140.5710 C   0  0  0  0  0  2  0  0  0  0  0  0
  186.3410  177.7730  145.2640 C   0  0  0  0  0  0  0  0  0  0  0  0
  187.3790  177.3810  144.4160 C   0  0  0  0  0  3  0  0  0  0  0  0
  184.9480  178.2880  143.3360 C   0  0  0  0  0  0  0  0  0  0  0  0
  187.2110  177.4460  143.0310 C   0  0  0  0  0  3  0  0  0  0  0  0
  185.1340  178.2280  144.7270 C   0  0  0  0  0  3  0  0  0  0  0  0
  186.0040  177.9010  142.4930 C   0  0  0  0  0  3  0  0  0  0  0  0
  186.5050  177.7150  146.6080 F   0  0  0  0  0  0  0  0  0  0  0  0
  185.3230  177.0760  136.6590 C   0  0  0  0  0  1  0  0  0  0  0  0
  184.8840  176.7220  137.9610 O   0  0  0  0  0  0  0  0  0  0  0  0
  179.2700  179.2030  141.7770 C   0  0  0  0  0  2  0  0  0  0  0  0
  179.1560  181.0070  141.6070 S   0  0  0  0  0  0  0  0  0  0  0  0
  178.9310  180.8840  139.8100 C   0  0  0  0  0  2  0  0  0  0  0  0
  181.1620  180.1440  138.3640 O   0  0  0  0  0  1  0  0  0  0  0  0
  179.7280  181.9720  139.1040 C   0  0  1  0  0  3  0  0  0  0  0  0
  181.1380  181.5150  138.6390 C   0  0  2  0  0  3  0  0  0  0  0  0
  181.1940  183.6420  137.5040 C   0  0  0  0  0  2  0  0  0  0  0  0
  179.6750  183.7480  137.3290 C   0  0  0  0  0  2  0  0  0  0  0  0
  178.9340  182.5550  137.9420 C   0  0  0  0  0  2  0  0  0  0  0  0
  181.6160  182.2430  137.4540 N   0  0  0  0  0  2  0  0  0  0  0  0
  1 24  1  6  0  0  0
  1 10  1  0  0  0  0
  1  7  1  0  0  0  0
  2  5  1  6  0  0  0
  2  7  1  0  0  0  0
  3 14  2  0  0  0  0
  3  9  1  0  0  0  0
  4 12  1  0  0  0  0
  6 14  1  0  0  0  0
  7  3  1  6  0  0  0
  8  4  2  0  0  0  0
  9 15  1  6  0  0  0
  9 13  1  0  0  0  0
 10 15  1  0  0  0  0
 11  2  1  0  0  0  0
 11  6  1  0  0  0  0
 13 18  1  0  0  0  0
 13 12  2  0  0  0  0
 14  8  1  0  0  0  0
 16 22  1  0  0  0  0
 17 16  2  0  0  0  0
 18 20  2  0  0  0  0
 19 17  1  0  0  0  0
 20 16  1  0  0  0  0
 21 19  2  0  0  0  0
 21 18  1  0  0  0  0
 23 24  1  0  0  0  0
 25  8  1  0  0  0  0
 26 25  1  0  0  0  0
 27 26  1  0  0  0  0
 29 27  1  6  0  0  0
 30 28  1  6  0  0  0
 30 29  1  0  0  0  0
 32 31  1  0  0  0  0
 32 33  1  0  0  0  0
 33 29  1  0  0  0  0
 34 31  1  0  0  0  0
 34 30  1  0  0  0  0
M  END
>  <MODEL>
2

>  <REMARK>
 VINA RESULT:      -7.2      3.966      7.776
  Name = 
  6 active torsions:
  status: ('A' for Active; 'I' for Inactive)
    1  A    between atoms: C_1  and  O_19
    2  A    between atoms: C_3  and  C_13
    3  A    between atoms: C_3  and  S_17
    4  A    between atoms: C_12  and  C_28
    5  A    between atoms: S_17  and  C_29
    6  A    between atoms: C_18  and  C_29
                            x       y       z     vdW  Elec       q    Type
                         _______ _______ _______ _____ _____    ______ ____

>  <TORSDO>
F 6

$$$$
=
 OpenBabel10252414503D

 34 38  0  0  1  0  0  0  0  0999 V2000
  181.0330  179.5280  141.3680 C   0  0  2  0  0  3  0  0  0  0  0  0
  183.0180  178.5560  142.5920 C   0  0  1  0  0  3  0  0  0  0  0  0
  182.8050  178.4420  140.0470 C   0  0  0  0  0  0  0  0  0  0  0  0
  184.3850  177.1360  137.7190 C   0  0  0  0  0  3  0  0  0  0  0  0
  182.5330  179.1920  143.7360 O   0  0  0  0  0  1  0  0  0  0  0  0
  185.0420  178.2980  141.1520 C   0  0  0  0  0  2  0  0  0  0  0  0
  182.2110  178.8680  141.3490 C   0  0  2  0  0  3  0  0  0  0  0  0
  184.8140  178.0250  138.6240 C   0  0  0  0  0  0  0  0  0  0  0  0
  181.9130  178.1830  138.8500 C   0  0  1  0  0  3  0  0  0  0  0  0
  180.3960  180.2470  139.8380 S   0  0  0  0  0  0  0  0  0  0  0  0
  184.4410  179.0250  142.3490 C   0  0  0  0  0  2  0  0  0  0  0  0
  183.1570  176.3260  137.8240 C   0  0  0  0  0  3  0  0  0  0  0  0
  182.0230  176.7410  138.3990 C   0  0  0  0  0  0  0  0  0  0  0  0
  184.1470  178.2810  139.9320 C   0  0  0  0  0  0  0  0  0  0  0  0
  180.4610  178.6490  138.9970 C   0  0  0  0  0  2  0  0  0  0  0  0
  179.6800  174.3150  140.1360 C   0  0  0  0  0  0  0  0  0  0  0  0
  178.9530  173.8100  139.0560 C   0  0  0  0  0  3  0  0  0  0  0  0
  180.9470  175.7440  138.6280 C   0  0  0  0  0  0  0  0  0  0  0  0
  179.2220  174.2610  137.7610 C   0  0  0  0  0  3  0  0  0  0  0  0
  180.6740  175.2730  139.9230 C   0  0  0  0  0  3  0  0  0  0  0  0
  180.2160  175.2210  137.5480 C   0  0  0  0  0  3  0  0  0  0  0  0
  179.4240  173.8730  141.3910 F   0  0  0  0  0  0  0  0  0  0  0  0
  178.9660  179.2670  142.6990 C   0  0  0  0  0  1  0  0  0  0  0  0
  180.3170  179.6790  142.5610 O   0  0  0  0  0  0  0  0  0  0  0  0
  186.1020  178.7190  138.3360 C   0  0  0  0  0  2  0  0  0  0  0  0
  187.3920  177.4940  137.9720 S   0  0  0  0  0  0  0  0  0  0  0  0
  188.5710  178.3190  139.0780 C   0  0  0  0  0  2  0  0  0  0  0  0
  191.0860  177.4630  139.8270 O   0  0  0  0  0  1  0  0  0  0  0  0
  188.7120  177.5360  140.3760 C   0  0  1  0  0  3  0  0  0  0  0  0
  190.0700  176.7970  140.5190 C   0  0  2  0  0  3  0  0  0  0  0  0
  189.3280  176.3620  142.7720 C   0  0  0  0  0  2  0  0  0  0  0  0
  188.4450  177.6120  142.8730 C   0  0  0  0  0  2  0  0  0  0  0  0
  188.4510  178.4330  141.5790 C   0  0  0  0  0  2  0  0  0  0  0  0
  190.4860  176.6250  141.9190 N   0  0  0  0  0  2  0  0  0  0  0  0
  1 24  1  1  0  0  0
  2  5  1  1  0  0  0
  4 12  1  0  0  0  0
  4  8  2  0  0  0  0
  6 11  1  0  0  0  0
  7  3  1  6  0  0  0
  7  1  1  0  0  0  0
  7  2  1  0  0  0  0
  8 14  1  0  0  0  0
  9 15  1  1  0  0  0
  9  3  1  0  0  0  0
 10  1  1  0  0  0  0
 11  2  1  0  0  0  0
 12 13  2  0  0  0  0
 13 18  1  0  0  0  0
 13  9  1  0  0  0  0
 14  3  2  0  0  0  0
 14  6  1  0  0  0  0
 15 10  1  0  0  0  0
 16 22  1  0  0  0  0
 17 16  2  0  0  0  0
 18 20  2  0  0  0  0
 19 17  1  0  0  0  0
 20 16  1  0  0  0  0
 21 19  2  0  0  0  0
 21 18  1  0  0  0  0
 24 23  1  0  0  0  0
 25  8  1  0  0  0  0
 26 25  1  0  0  0  0
 26 27  1  0  0  0  0
 29 27  1  6  0  0  0
 29 30  1  0  0  0  0
 29 33  1  0  0  0  0
 30 28  1  6  0  0  0
 30 34  1  0  0  0  0
 31 32  1  0  0  0  0
 33 32  1  0  0  0  0
 34 31  1  0  0  0  0
M  END
>  <MODEL>
3

>  <REMARK>
 VINA RESULT:      -7.0      3.493      5.622
  Name = 
  6 active torsions:
  status: ('A' for Active; 'I' for Inactive)
    1  A    between atoms: C_1  and  O_19
    2  A    between atoms: C_3  and  C_13
    3  A    between atoms: C_3  and  S_17
    4  A    between atoms: C_12  and  C_28
    5  A    between atoms: S_17  and  C_29
    6  A    between atoms: C_18  and  C_29
                            x       y       z     vdW  Elec       q    Type
                         _______ _______ _______ _____ _____    ______ ____

>  <TORSDO>
F 6

$$$$
=
 OpenBabel10252414503D

 34 38  0  0  1  0  0  0  0  0999 V2000
  187.3180  178.0590  137.4180 C   0  0  2  0  0  3  0  0  0  0  0  0
  188.3250  177.5200  139.6720 C   0  0  1  0  0  3  0  0  0  0  0  0
  189.2260  176.5050  137.5070 C   0  0  0  0  0  0  0  0  0  0  0  0
  191.3610  174.3880  136.7390 C   0  0  0  0  0  3  0  0  0  0  0  0
  187.5300  178.5440  140.1910 O   0  0  0  0  0  1  0  0  0  0  0  0
  190.6750  176.6850  139.5350 C   0  0  0  0  0  2  0  0  0  0  0  0
  188.2250  177.3930  138.1660 C   0  0  2  0  0  3  0  0  0  0  0  0
  191.5230  175.5280  137.4250 C   0  0  0  0  0  0  0  0  0  0  0  0
  188.9150  175.8640  136.1690 C   0  0  1  0  0  3  0  0  0  0  0  0
  187.5750  178.2010  135.6360 S   0  0  0  0  0  0  0  0  0  0  0  0
  189.7740  177.8180  140.0150 C   0  0  0  0  0  2  0  0  0  0  0  0
  190.0740  173.7180  136.4780 C   0  0  0  0  0  3  0  0  0  0  0  0
  188.9130  174.3530  136.2820 C   0  0  0  0  0  0  0  0  0  0  0  0
  190.4190  176.2640  138.1050 C   0  0  0  0  0  0  0  0  0  0  0  0
  187.6730  176.4060  135.4530 C   0  0  0  0  0  2  0  0  0  0  0  0
  185.6030  172.8140  137.3120 C   0  0  0  0  0  0  0  0  0  0  0  0
  185.3390  171.9730  136.2280 C   0  0  0  0  0  3  0  0  0  0  0  0
  187.6670  173.5470  136.2530 C   0  0  0  0  0  0  0  0  0  0  0  0
  186.2360  171.9100  135.1590 C   0  0  0  0  0  3  0  0  0  0  0  0
  186.7630  173.5920  137.3260 C   0  0  0  0  0  3  0  0  0  0  0  0
  187.3970  172.6900  135.1730 C   0  0  0  0  0  3  0  0  0  0  0  0
  184.7360  172.8700  138.3520 F   0  0  0  0  0  0  0  0  0  0  0  0
  184.9150  178.0550  138.0000 C   0  0  0  0  0  1  0  0  0  0  0  0
  186.2010  178.6570  138.0120 O   0  0  0  0  0  0  0  0  0  0  0  0
  192.9190  176.0230  137.5980 C   0  0  0  0  0  2  0  0  0  0  0  0
  194.0620  174.6160  137.6920 S   0  0  0  0  0  0  0  0  0  0  0  0
  194.9500  175.1610  136.2050 C   0  0  0  0  0  2  0  0  0  0  0  0
  197.1750  176.7690  135.9230 O   0  0  0  0  0  1  0  0  0  0  0  0
  196.3190  174.4970  136.1370 C   0  0  1  0  0  3  0  0  0  0  0  0
  197.4450  175.4320  135.6170 C   0  0  2  0  0  3  0  0  0  0  0  0
  198.9140  173.6330  136.2670 C   0  0  0  0  0  2  0  0  0  0  0  0
  197.9980  173.0960  137.3730 C   0  0  0  0  0  2  0  0  0  0  0  0
  196.6920  173.8910  137.4840 C   0  0  0  0  0  2  0  0  0  0  0  0
  198.7710  175.0830  136.1480 N   0  0  0  0  0  2  0  0  0  0  0  0
  1 24  1  1  0  0  0
  1  7  1  0  0  0  0
  2 11  1  0  0  0  0
  2  5  1  6  0  0  0
  3 14  2  0  0  0  0
  4  8  2  0  0  0  0
  6 11  1  0  0  0  0
  7  3  1  6  0  0  0
  7  2  1  0  0  0  0
  8 25  1  0  0  0  0
  8 14  1  0  0  0  0
  9 15  1  1  0  0  0
  9 13  1  0  0  0  0
  9  3  1  0  0  0  0
 10  1  1  0  0  0  0
 12  4  1  0  0  0  0
 13 12  2  0  0  0  0
 14  6  1  0  0  0  0
 15 10  1  0  0  0  0
 16 20  1  0  0  0  0
 16 22  1  0  0  0  0
 17 16  2  0  0  0  0
 18 13  1  0  0  0  0
 18 20  2  0  0  0  0
 19 21  2  0  0  0  0
 19 17  1  0  0  0  0
 21 18  1  0  0  0  0
 23 24  1  0  0  0  0
 25 26  1  0  0  0  0
 27 26  1  0  0  0  0
 29 27  1  1  0  0  0
 29 33  1  0  0  0  0
 30 28  1  1  0  0  0
 30 29  1  0  0  0  0
 30 34  1  0  0  0  0
 31 32  1  0  0  0  0
 32 33  1  0  0  0  0
 34 31  1  0  0  0  0
M  END
>  <MODEL>
4

>  <REMARK>
 VINA RESULT:      -6.9      7.320     10.055
  Name = 
  6 active torsions:
  status: ('A' for Active; 'I' for Inactive)
    1  A    between atoms: C_1  and  O_19
    2  A    between atoms: C_3  and  C_13
    3  A    between atoms: C_3  and  S_17
    4  A    between atoms: C_12  and  C_28
    5  A    between atoms: S_17  and  C_29
    6  A    between atoms: C_18  and  C_29
                            x       y       z     vdW  Elec       q    Type
                         _______ _______ _______ _____ _____    ______ ____

>  <TORSDO>
F 6

$$$$
=
 OpenBabel10252414503D

 34 38  0  0  1  0  0  0  0  0999 V2000
  187.2480  177.9200  137.3270 C   0  0  2  0  0  3  0  0  0  0  0  0
  188.3150  177.4820  139.5750 C   0  0  1  0  0  3  0  0  0  0  0  0
  188.9940  176.1900  137.4770 C   0  0  0  0  0  0  0  0  0  0  0  0
  190.8630  173.8030  136.8170 C   0  0  0  0  0  3  0  0  0  0  0  0
  187.6540  178.6250  140.0300 O   0  0  0  0  0  1  0  0  0  0  0  0
  190.5590  176.3980  139.4140 C   0  0  0  0  0  2  0  0  0  0  0  0
  188.1220  177.2330  138.0940 C   0  0  2  0  0  3  0  0  0  0  0  0
  191.1740  174.9760  137.3860 C   0  0  0  0  0  0  0  0  0  0  0  0
  188.5490  175.4690  136.2200 C   0  0  1  0  0  3  0  0  0  0  0  0
  187.4220  177.8760  135.5300 S   0  0  0  0  0  0  0  0  0  0  0  0
  189.8030  177.6560  139.8240 C   0  0  0  0  0  2  0  0  0  0  0  0
  189.5030  173.2500  136.6770 C   0  0  0  0  0  3  0  0  0  0  0  0
  188.4030  173.9830  136.4740 C   0  0  0  0  0  0  0  0  0  0  0  0
  190.1870  175.8800  138.0420 C   0  0  0  0  0  0  0  0  0  0  0  0
  187.3310  176.0720  135.5110 C   0  0  0  0  0  2  0  0  0  0  0  0
  185.4450  171.7350  135.7080 C   0  0  0  0  0  0  0  0  0  0  0  0
  184.5590  172.0850  136.7300 C   0  0  0  0  0  3  0  0  0  0  0  0
  187.0830  173.3110  136.5760 C   0  0  0  0  0  0  0  0  0  0  0  0
  184.9260  173.0500  137.6710 C   0  0  0  0  0  3  0  0  0  0  0  0
  186.6980  172.3480  135.6300 C   0  0  0  0  0  3  0  0  0  0  0  0
  186.1800  173.6630  137.5930 C   0  0  0  0  0  3  0  0  0  0  0  0
  185.0880  170.8040  134.7920 F   0  0  0  0  0  0  0  0  0  0  0  0
  184.9120  178.1850  138.0930 C   0  0  0  0  0  1  0  0  0  0  0  0
  186.2300  178.6820  137.9110 O   0  0  0  0  0  0  0  0  0  0  0  0
  192.6200  175.3360  137.4500 C   0  0  0  0  0  2  0  0  0  0  0  0
  193.4150  174.9720  135.8590 S   0  0  0  0  0  0  0  0  0  0  0  0
  195.0020  174.6170  136.6660 C   0  0  0  0  0  2  0  0  0  0  0  0
  195.4270  173.3780  139.0950 O   0  0  0  0  0  1  0  0  0  0  0  0
  195.2620  173.1170  136.6770 C   0  0  1  0  0  3  0  0  0  0  0  0
  195.8440  172.5910  138.0170 C   0  0  2  0  0  3  0  0  0  0  0  0
  195.4730  170.4120  137.0510 C   0  0  0  0  0  2  0  0  0  0  0  0
  194.3080  170.8520  136.1560 C   0  0  0  0  0  2  0  0  0  0  0  0
  194.0050  172.3480  136.2900 C   0  0  0  0  0  2  0  0  0  0  0  0
  195.4860  171.1900  138.2880 N   0  0  0  0  0  2  0  0  0  0  0  0
  1 24  1  1  0  0  0
  1  7  1  0  0  0  0
  2 11  1  0  0  0  0
  2  5  1  6  0  0  0
  3 14  2  0  0  0  0
  4  8  2  0  0  0  0
  6 11  1  0  0  0  0
  7  3  1  6  0  0  0
  7  2  1  0  0  0  0
  8 25  1  0  0  0  0
  8 14  1  0  0  0  0
  9 15  1  1  0  0  0
  9 13  1  0  0  0  0
  9  3  1  0  0  0  0
 10  1  1  0  0  0  0
 12  4  1  0  0  0  0
 13 18  1  0  0  0  0
 13 12  2  0  0  0  0
 14  6  1  0  0  0  0
 15 10  1  0  0  0  0
 16 17  1  0  0  0  0
 17 19  2  0  0  0  0
 18 21  2  0  0  0  0
 20 16  2  0  0  0  0
 20 18  1  0  0  0  0
 21 19  1  0  0  0  0
 22 16  1  0  0  0  0
 24 23  1  0  0  0  0
 26 27  1  0  0  0  0
 26 25  1  0  0  0  0
 29 27  1  1  0  0  0
 29 30  1  0  0  0  0
 30 34  1  0  0  0  0
 30 28  1  1  0  0  0
 31 34  1  0  0  0  0
 32 33  1  0  0  0  0
 32 31  1  0  0  0  0
 33 29  1  0  0  0  0
M  END
>  <MODEL>
5

>  <REMARK>
 VINA RESULT:      -6.9      6.998      9.610
  Name = 
  6 active torsions:
  status: ('A' for Active; 'I' for Inactive)
    1  A    between atoms: C_1  and  O_19
    2  A    between atoms: C_3  and  C_13
    3  A    between atoms: C_3  and  S_17
    4  A    between atoms: C_12  and  C_28
    5  A    between atoms: S_17  and  C_29
    6  A    between atoms: C_18  and  C_29
                            x       y       z     vdW  Elec       q    Type
                         _______ _______ _______ _____ _____    ______ ____

>  <TORSDO>
F 6

$$$$
=
 OpenBabel10252414503D

 34 38  0  0  1  0  0  0  0  0999 V2000
  181.6580  178.2550  136.8770 C   0  0  2  0  0  3  0  0  0  0  0  0
  182.7390  178.6370  139.1280 C   0  0  1  0  0  3  0  0  0  0  0  0
  183.9640  177.4620  137.2170 C   0  0  0  0  0  0  0  0  0  0  0  0
  186.6840  176.0150  136.8480 C   0  0  0  0  0  3  0  0  0  0  0  0
  181.6450  179.4490  139.4350 O   0  0  0  0  0  1  0  0  0  0  0  0
  185.2350  178.5870  139.0510 C   0  0  0  0  0  2  0  0  0  0  0  0
  182.7160  178.1190  137.7050 C   0  0  2  0  0  3  0  0  0  0  0  0
  186.4550  177.2780  137.2310 C   0  0  0  0  0  0  0  0  0  0  0  0
  183.9030  176.4470  136.0930 C   0  0  1  0  0  3  0  0  0  0  0  0
  181.8910  178.0290  135.1000 S   0  0  0  0  0  0  0  0  0  0  0  0
  184.0070  179.4550  139.3010 C   0  0  0  0  0  2  0  0  0  0  0  0
  185.6880  174.9270  136.8350 C   0  0  0  0  0  3  0  0  0  0  0  0
  184.3890  175.0920  136.5640 C   0  0  0  0  0  0  0  0  0  0  0  0
  185.1580  177.7680  137.7820 C   0  0  0  0  0  0  0  0  0  0  0  0
  182.5680  176.3720  135.3450 C   0  0  0  0  0  2  0  0  0  0  0  0
  183.0520  171.5530  136.8530 C   0  0  0  0  0  0  0  0  0  0  0  0
  181.7190  171.7880  137.1980 C   0  0  0  0  0  3  0  0  0  0  0  0
  183.4710  173.9500  136.8050 C   0  0  0  0  0  0  0  0  0  0  0  0
  181.2550  173.0980  137.3410 C   0  0  0  0  0  3  0  0  0  0  0  0
  183.9220  172.6280  136.6540 C   0  0  0  0  0  3  0  0  0  0  0  0
  182.1260  174.1740  137.1420 C   0  0  0  0  0  3  0  0  0  0  0  0
  183.5010  170.2830  136.7090 F   0  0  0  0  0  0  0  0  0  0  0  0
  179.3300  177.6590  137.4570 C   0  0  0  0  0  1  0  0  0  0  0  0
  180.3960  178.5930  137.3770 O   0  0  0  0  0  0  0  0  0  0  0  0
  187.6110  178.2180  137.1950 C   0  0  0  0  0  2  0  0  0  0  0  0
  189.1000  177.3850  137.8170 S   0  0  0  0  0  0  0  0  0  0  0  0
  189.1040  178.3920  139.3270 C   0  0  0  0  0  2  0  0  0  0  0  0
  191.3030  177.5000  140.7370 O   0  0  0  0  0  1  0  0  0  0  0  0
  188.8730  177.5100  140.5480 C   0  0  1  0  0  3  0  0  0  0  0  0
  190.1480  176.7730  141.0400 C   0  0  2  0  0  3  0  0  0  0  0  0
  188.7770  176.1590  142.9270 C   0  0  0  0  0  2  0  0  0  0  0  0
  187.8670  177.3900  142.8460 C   0  0  0  0  0  2  0  0  0  0  0  0
  188.2350  178.3100  141.6770 C   0  0  0  0  0  2  0  0  0  0  0  0
  190.1290  176.4960  142.4840 N   0  0  0  0  0  2  0  0  0  0  0  0
  1 24  1  6  0  0  0
  1  7  1  0  0  0  0
  2 11  1  0  0  0  0
  2  5  1  6  0  0  0
  3 14  2  0  0  0  0
  4  8  2  0  0  0  0
  6 11  1  0  0  0  0
  7  3  1  6  0  0  0
  7  2  1  0  0  0  0
  8 14  1  0  0  0  0
  9 15  1  1  0  0  0
  9 13  1  0  0  0  0
  9  3  1  0  0  0  0
 10 15  1  0  0  0  0
 10  1  1  0  0  0  0
 12  4  1  0  0  0  0
 13 18  1  0  0  0  0
 13 12  2  0  0  0  0
 14  6  1  0  0  0  0
 16 17  1  0  0  0  0
 17 19  2  0  0  0  0
 18 21  2  0  0  0  0
 20 18  1  0  0  0  0
 20 16  2  0  0  0  0
 21 19  1  0  0  0  0
 22 16  1  0  0  0  0
 24 23  1  0  0  0  0
 25  8  1  0  0  0  0
 25 26  1  0  0  0  0
 26 27  1  0  0  0  0
 29 27  1  6  0  0  0
 29 30  1  0  0  0  0
 29 33  1  0  0  0  0
 30 28  1  1  0  0  0
 30 34  1  0  0  0  0
 32 31  1  0  0  0  0
 33 32  1  0  0  0  0
 34 31  1  0  0  0  0
M  END
>  <MODEL>
6

>  <REMARK>
 VINA RESULT:      -6.6      4.204      6.579
  Name = 
  6 active torsions:
  status: ('A' for Active; 'I' for Inactive)
    1  A    between atoms: C_1  and  O_19
    2  A    between atoms: C_3  and  C_13
    3  A    between atoms: C_3  and  S_17
    4  A    between atoms: C_12  and  C_28
    5  A    between atoms: S_17  and  C_29
    6  A    between atoms: C_18  and  C_29
                            x       y       z     vdW  Elec       q    Type
                         _______ _______ _______ _____ _____    ______ ____

>  <TORSDO>
F 6

$$$$
=
 OpenBabel10252414503D

 34 38  0  0  1  0  0  0  0  0999 V2000
  184.6000  175.4000  136.3520 C   0  0  2  0  0  3  0  0  0  0  0  0
  186.1900  177.2920  135.8310 C   0  0  1  0  0  3  0  0  0  0  0  0
  184.8550  177.2040  138.0090 C   0  0  0  0  0  0  0  0  0  0  0  0
  184.4160  179.0690  140.4490 C   0  0  0  0  0  3  0  0  0  0  0  0
  186.6260  176.5310  134.7440 O   0  0  0  0  0  1  0  0  0  0  0  0
  186.9780  178.5150  137.8620 C   0  0  0  0  0  2  0  0  0  0  0  0
  185.1770  176.5720  136.6950 C   0  0  2  0  0  3  0  0  0  0  0  0
  185.5630  178.5560  139.9860 C   0  0  0  0  0  0  0  0  0  0  0  0
  183.5260  176.9300  138.6820 C   0  0  1  0  0  3  0  0  0  0  0  0
  183.7830  174.4100  137.6240 S   0  0  0  0  0  0  0  0  0  0  0  0
  187.3920  177.6170  136.7010 C   0  0  0  0  0  2  0  0  0  0  0  0
  183.1420  179.1310  139.7090 C   0  0  0  0  0  3  0  0  0  0  0  0
  182.7260  178.2080  138.8350 C   0  0  0  0  0  0  0  0  0  0  0  0
  185.7510  178.0300  138.6030 C   0  0  0  0  0  0  0  0  0  0  0  0
  182.7050  175.7860  138.0780 C   0  0  0  0  0  2  0  0  0  0  0  0
  180.5580  179.2220  135.8920 C   0  0  0  0  0  0  0  0  0  0  0  0
  179.2800  179.1530  136.4520 C   0  0  0  0  0  3  0  0  0  0  0  0
  181.5330  178.5130  138.0060 C   0  0  0  0  0  0  0  0  0  0  0  0
  179.1230  178.7720  137.7870 C   0  0  0  0  0  3  0  0  0  0  0  0
  181.6780  178.9080  136.6660 C   0  0  0  0  0  3  0  0  0  0  0  0
  180.2440  178.4580  138.5620 C   0  0  0  0  0  3  0  0  0  0  0  0
  180.7110  179.5960  134.5990 F   0  0  0  0  0  0  0  0  0  0  0  0
  184.6980  173.5550  134.7100 C   0  0  0  0  0  1  0  0  0  0  0  0
  184.6510  174.9360  135.0340 O   0  0  0  0  0  0  0  0  0  0  0  0
  186.7480  178.6170  140.8890 C   0  0  0  0  0  2  0  0  0  0  0  0
  186.2330  178.2940  142.6000 S   0  0  0  0  0  0  0  0  0  0  0  0
  187.7160  177.2960  142.9200 C   0  0  0  0  0  2  0  0  0  0  0  0
  190.0310  178.2240  144.1020 O   0  0  0  0  0  1  0  0  0  0  0  0
  187.8960  177.0890  144.4180 C   0  0  1  0  0  3  0  0  0  0  0  0
  189.3530  177.3050  144.9100 C   0  0  2  0  0  3  0  0  0  0  0  0
  188.3860  177.1210  147.1120 C   0  0  0  0  0  2  0  0  0  0  0  0
  187.0010  177.6360  146.7000 C   0  0  0  0  0  2  0  0  0  0  0  0
  186.9210  177.9560  145.2040 C   0  0  0  0  0  2  0  0  0  0  0  0
  189.4260  177.7600  146.3070 N   0  0  0  0  0  2  0  0  0  0  0  0
  1 24  1  1  0  0  0
  1  7  1  0  0  0  0
  1 10  1  0  0  0  0
  2  5  1  6  0  0  0
  2  7  1  0  0  0  0
  2 11  1  0  0  0  0
  3 14  2  0  0  0  0
  3  9  1  0  0  0  0
  6 14  1  0  0  0  0
  7  3  1  1  0  0  0
  8  4  2  0  0  0  0
  8 25  1  0  0  0  0
  9 15  1  6  0  0  0
  9 13  1  0  0  0  0
 10 15  1  0  0  0  0
 11  6  1  0  0  0  0
 12  4  1  0  0  0  0
 13 12  2  0  0  0  0
 14  8  1  0  0  0  0
 16 17  2  0  0  0  0
 16 20  1  0  0  0  0
 17 19  1  0  0  0  0
 18 21  1  0  0  0  0
 18 13  1  0  0  0  0
 19 21  2  0  0  0  0
 20 18  2  0  0  0  0
 22 16  1  0  0  0  0
 23 24  1  0  0  0  0
 25 26  1  0  0  0  0
 26 27  1  0  0  0  0
 29 27  1  6  0  0  0
 29 30  1  0  0  0  0
 29 33  1  0  0  0  0
 30 28  1  6  0  0  0
 30 34  1  0  0  0  0
 32 31  1  0  0  0  0
 33 32  1  0  0  0  0
 34 31  1  0  0  0  0
M  END
>  <MODEL>
7

>  <REMARK>
 VINA RESULT:      -6.6      2.489      3.472
  Name = 
  6 active torsions:
  status: ('A' for Active; 'I' for Inactive)
    1  A    between atoms: C_1  and  O_19
    2  A    between atoms: C_3  and  C_13
    3  A    between atoms: C_3  and  S_17
    4  A    between atoms: C_12  and  C_28
    5  A    between atoms: S_17  and  C_29
    6  A    between atoms: C_18  and  C_29
                            x       y       z     vdW  Elec       q    Type
                         _______ _______ _______ _____ _____    ______ ____

>  <TORSDO>
F 6

$$$$
=
 OpenBabel10252414503D

 34 38  0  0  1  0  0  0  0  0999 V2000
  190.4810  177.7630  143.2370 C   0  0  2  0  0  3  0  0  0  0  0  0
  188.6530  176.0190  143.2330 C   0  0  1  0  0  3  0  0  0  0  0  0
  188.8760  177.7460  145.1050 C   0  0  0  0  0  0  0  0  0  0  0  0
  187.4900  178.3000  147.8250 C   0  0  0  0  0  3  0  0  0  0  0  0
  189.0470  175.7140  141.9290 O   0  0  0  0  0  1  0  0  0  0  0  0
  186.6820  176.6440  144.6350 C   0  0  0  0  0  2  0  0  0  0  0  0
  189.4060  177.1930  143.8240 C   0  0  2  0  0  3  0  0  0  0  0  0
  186.9420  178.2480  146.6030 C   0  0  0  0  0  0  0  0  0  0  0  0
  189.7930  178.4930  146.0520 C   0  0  1  0  0  3  0  0  0  0  0  0
  191.0090  179.4080  143.7660 S   0  0  0  0  0  0  0  0  0  0  0  0
  187.1780  176.3780  143.2180 C   0  0  0  0  0  2  0  0  0  0  0  0
  188.8190  177.7780  148.1930 C   0  0  0  0  0  3  0  0  0  0  0  0
  189.8850  177.7810  147.3860 C   0  0  0  0  0  0  0  0  0  0  0  0
  187.5690  177.5780  145.4280 C   0  0  0  0  0  0  0  0  0  0  0  0
  191.1670  178.8650  145.4820 C   0  0  0  0  0  2  0  0  0  0  0  0
  193.0500  176.8060  149.2370 C   0  0  0  0  0  0  0  0  0  0  0  0
  193.4060  175.6290  148.5750 C   0  0  0  0  0  3  0  0  0  0  0  0
  191.0900  177.0250  147.8110 C   0  0  0  0  0  0  0  0  0  0  0  0
  192.6140  175.1490  147.5290 C   0  0  0  0  0  3  0  0  0  0  0  0
  191.9010  177.5020  148.8540 C   0  0  0  0  0  3  0  0  0  0  0  0
  191.4640  175.8450  147.1460 C   0  0  0  0  0  3  0  0  0  0  0  0
  193.8210  177.2750  150.2470 F   0  0  0  0  0  0  0  0  0  0  0  0
  191.6770  177.7840  141.0740 C   0  0  0  0  0  1  0  0  0  0  0  0
  191.1700  177.1050  142.2130 O   0  0  0  0  0  0  0  0  0  0  0  0
  185.5690  178.8110  146.4510 C   0  0  0  0  0  2  0  0  0  0  0  0
  185.4410  179.6990  144.8720 S   0  0  0  0  0  0  0  0  0  0  0  0
  183.7670  179.0610  144.5810 C   0  0  0  0  0  2  0  0  0  0  0  0
  181.5630  179.7380  143.0640 O   0  0  0  0  0  1  0  0  0  0  0  0
  183.6580  178.4950  143.1710 C   0  0  1  0  0  3  0  0  0  0  0  0
  182.2400  178.6280  142.5500 C   0  0  2  0  0  3  0  0  0  0  0  0
  183.3150  177.8760  140.5260 C   0  0  0  0  0  2  0  0  0  0  0  0
  184.6970  178.4340  140.8850 C   0  0  0  0  0  2  0  0  0  0  0  0
  184.7120  179.1110  142.2600 C   0  0  0  0  0  2  0  0  0  0  0  0
  182.2630  178.7250  141.0830 N   0  0  0  0  0  2  0  0  0  0  0  0
  1 24  1  6  0  0  0
  1 10  1  0  0  0  0
  1  7  1  0  0  0  0
  2  5  1  6  0  0  0
  2  7  1  0  0  0  0
  3 14  2  0  0  0  0
  3  9  1  0  0  0  0
  4 12  1  0  0  0  0
  6 14  1  0  0  0  0
  7  3  1  6  0  0  0
  8  4  2  0  0  0  0
  9 15  1  6  0  0  0
  9 13  1  0  0  0  0
 10 15  1  0  0  0  0
 11  2  1  0  0  0  0
 11  6  1  0  0  0  0
 13 18  1  0  0  0  0
 13 12  2  0  0  0  0
 14  8  1  0  0  0  0
 16 22  1  0  0  0  0
 17 16  2  0  0  0  0
 18 20  2  0  0  0  0
 19 17  1  0  0  0  0
 20 16  1  0  0  0  0
 21 19  2  0  0  0  0
 21 18  1  0  0  0  0
 23 24  1  0  0  0  0
 25  8  1  0  0  0  0
 26 25  1  0  0  0  0
 27 26  1  0  0  0  0
 29 27  1  1  0  0  0
 30 28  1  1  0  0  0
 30 29  1  0  0  0  0
 31 32  1  0  0  0  0
 31 34  1  0  0  0  0
 32 33  1  0  0  0  0
 33 29  1  0  0  0  0
 34 30  1  0  0  0  0
M  END
>  <MODEL>
8

>  <REMARK>
 VINA RESULT:      -6.4      4.756      9.687
  Name = 
  6 active torsions:
  status: ('A' for Active; 'I' for Inactive)
    1  A    between atoms: C_1  and  O_19
    2  A    between atoms: C_3  and  C_13
    3  A    between atoms: C_3  and  S_17
    4  A    between atoms: C_12  and  C_28
    5  A    between atoms: S_17  and  C_29
    6  A    between atoms: C_18  and  C_29
                            x       y       z     vdW  Elec       q    Type
                         _______ _______ _______ _____ _____    ______ ____

>  <TORSDO>
F 6

$$$$
=
 OpenBabel10252414503D

 34 38  0  0  1  0  0  0  0  0999 V2000
  188.0770  176.1350  136.0870 C   0  0  2  0  0  3  0  0  0  0  0  0
  186.2270  174.5940  136.8520 C   0  0  1  0  0  3  0  0  0  0  0  0
  186.3500  177.0370  137.5930 C   0  0  0  0  0  0  0  0  0  0  0  0
  184.7940  178.8680  139.5560 C   0  0  0  0  0  3  0  0  0  0  0  0
  186.7030  173.6760  135.9130 O   0  0  0  0  0  1  0  0  0  0  0  0
  184.1770  175.8030  137.6080 C   0  0  0  0  0  2  0  0  0  0  0  0
  186.9570  175.9200  136.8100 C   0  0  2  0  0  3  0  0  0  0  0  0
  184.3280  178.1900  138.4980 C   0  0  0  0  0  0  0  0  0  0  0  0
  187.2140  178.1810  138.0860 C   0  0  1  0  0  3  0  0  0  0  0  0
  188.5930  177.8310  135.7380 S   0  0  0  0  0  0  0  0  0  0  0  0
  184.7620  174.8640  136.5590 C   0  0  0  0  0  2  0  0  0  0  0  0
  186.0880  178.6340  140.2240 C   0  0  0  0  0  3  0  0  0  0  0  0
  187.2050  178.2490  139.5990 C   0  0  0  0  0  0  0  0  0  0  0  0
  185.0230  177.0290  137.8710 C   0  0  0  0  0  0  0  0  0  0  0  0
  188.6270  178.2400  137.4970 C   0  0  0  0  0  2  0  0  0  0  0  0
  189.5540  177.8530  142.5520 C   0  0  0  0  0  0  0  0  0  0  0  0
  190.5970  177.1210  141.9800 C   0  0  0  0  0  3  0  0  0  0  0  0
  188.3680  177.8400  140.4280 C   0  0  0  0  0  0  0  0  0  0  0  0
  190.5350  176.7520  140.6340 C   0  0  0  0  0  3  0  0  0  0  0  0
  188.4480  178.2140  141.7790 C   0  0  0  0  0  3  0  0  0  0  0  0
  189.4280  177.1130  139.8600 C   0  0  0  0  0  3  0  0  0  0  0  0
  189.6170  178.2160  143.8560 F   0  0  0  0  0  0  0  0  0  0  0  0
  190.1050  174.7210  136.0940 C   0  0  0  0  0  1  0  0  0  0  0  0
  188.8230  175.0630  135.5870 O   0  0  0  0  0  0  0  0  0  0  0  0
  182.9780  178.5680  137.9920 C   0  0  0  0  0  2  0  0  0  0  0  0
  182.2180  179.7780  139.1120 S   0  0  0  0  0  0  0  0  0  0  0  0
  181.1120  178.5220  139.8150 C   0  0  0  0  0  2  0  0  0  0  0  0
  179.3850  176.8680  141.1920 O   0  0  0  0  0  1  0  0  0  0  0  0
  180.8310  178.8290  141.2790 C   0  0  1  0  0  3  0  0  0  0  0  0
  179.5930  178.0840  141.8500 C   0  0  2  0  0  3  0  0  0  0  0  0
  180.3470  178.9470  143.9720 C   0  0  0  0  0  2  0  0  0  0  0  0
  181.8270  179.0160  143.5780 C   0  0  0  0  0  2  0  0  0  0  0  0
  182.0660  178.5660  142.1320 C   0  0  0  0  0  2  0  0  0  0  0  0
  179.6920  177.8290  143.2950 N   0  0  0  0  0  2  0  0  0  0  0  0
  1 24  1  6  0  0  0
  1  7  1  0  0  0  0
  2  5  1  6  0  0  0
  3 14  2  0  0  0  0
  3  9  1  0  0  0  0
  4 12  1  0  0  0  0
  6 14  1  0  0  0  0
  7  2  1  0  0  0  0
  7  3  1  6  0  0  0
  8  4  2  0  0  0  0
  9 15  1  1  0  0  0
  9 13  1  0  0  0  0
 10  1  1  0  0  0  0
 10 15  1  0  0  0  0
 11  2  1  0  0  0  0
 11  6  1  0  0  0  0
 13 12  2  0  0  0  0
 13 18  1  0  0  0  0
 14  8  1  0  0  0  0
 16 22  1  0  0  0  0
 17 16  1  0  0  0  0
 18 20  1  0  0  0  0
 19 17  2  0  0  0  0
 20 16  2  0  0  0  0
 21 18  2  0  0  0  0
 21 19  1  0  0  0  0
 24 23  1  0  0  0  0
 25  8  1  0  0  0  0
 25 26  1  0  0  0  0
 26 27  1  0  0  0  0
 29 27  1  6  0  0  0
 29 30  1  0  0  0  0
 29 33  1  0  0  0  0
 30 28  1  6  0  0  0
 30 34  1  0  0  0  0
 32 31  1  0  0  0  0
 33 32  1  0  0  0  0
 34 31  1  0  0  0  0
M  END
>  <MODEL>
9

>  <REMARK>
 VINA RESULT:      -6.4      4.356      7.932
  Name = 
  6 active torsions:
  status: ('A' for Active; 'I' for Inactive)
    1  A    between atoms: C_1  and  O_19
    2  A    between atoms: C_3  and  C_13
    3  A    between atoms: C_3  and  S_17
    4  A    between atoms: C_12  and  C_28
    5  A    between atoms: S_17  and  C_29
    6  A    between atoms: C_18  and  C_29
                            x       y       z     vdW  Elec       q    Type
                         _______ _______ _______ _____ _____    ______ ____

>  <TORSDO>
F 6

$$$$
