=
 OpenBabel10262423083D

 37 40  0  0  1  0  0  0  0  0999 V2000
  190.4210  176.8980  137.6550 C   0  0  2  0  0  3  0  0  0  0  0  0
  189.2820  178.1880  139.3230 O   0  0  0  0  0  0  0  0  0  0  0  0
  190.1930  177.4220  140.0740 C   0  0  2  0  0  3  0  0  0  0  0  0
  189.5040  176.8670  138.8810 C   0  0  2  0  0  3  0  0  0  0  0  0
  189.5640  176.9570  141.4010 C   0  0  1  0  0  3  0  0  0  0  0  0
  190.4410  176.0640  142.2890 C   0  0  0  0  0  1  0  0  0  0  0  0
  188.9070  178.1120  142.1620 C   0  0  2  0  0  3  0  0  0  0  0  0
  189.7620  178.5880  143.3320 C   0  0  0  0  0  1  0  0  0  0  0  0
  187.5180  177.7100  142.6420 C   0  0  0  0  0  2  0  0  0  0  0  0
  186.4590  178.5410  141.9880 C   0  0  0  0  0  3  0  0  0  0  0  0
  186.6040  178.9450  140.8440 O   0  0  0  0  0  0  0  0  0  0  0  0
  190.1700  176.7190  135.1030 C   0  0  0  0  0  1  0  0  0  0  0  0
  189.5680  177.2060  136.4120 C   0  0  1  0  0  3  0  0  0  0  0  0
  188.0500  176.9590  136.5820 C   0  0  1  0  0  3  0  0  0  0  0  0
  186.6170  178.6650  137.5230 O   0  0  0  0  0  0  0  0  0  0  0  0
  187.1300  178.1690  136.3440 C   0  0  0  0  0  3  0  0  0  0  0  0
  185.8460  177.8800  136.7540 O   0  0  0  0  0  0  0  0  0  0  0  0
  187.5120  175.6740  135.9500 C   0  0  0  0  0  2  0  0  0  0  0  0
  185.9260  174.5520  137.2810 O   0  0  0  0  0  0  0  0  0  0  0  0
  187.1000  174.6620  136.9710 C   0  0  0  0  0  3  0  0  0  0  0  0
  191.2650  175.6020  137.5270 C   0  0  1  0  0  3  0  0  0  0  0  0
  193.9100  175.3030  136.2450 C   0  0  1  0  0  3  0  0  0  0  0  0
  195.5170  173.3800  136.7530 C   0  0  0  0  0  2  0  0  0  0  0  0
  194.8220  174.8440  138.5620 O   0  0  0  0  0  0  0  0  0  0  0  0
  195.2130  174.5830  135.8430 C   0  0  2  0  0  3  0  0  0  0  0  0
  192.4720  175.5690  138.4890 C   0  0  1  0  0  3  0  0  0  0  0  0
  193.8310  175.4820  137.7860 C   0  0  2  0  0  0  0  0  0  0  0  0
  193.9530  177.1140  139.5480 O   0  0  0  0  0  1  0  0  0  0  0  0
  194.8660  173.5030  138.1390 C   0  0  0  0  0  2  0  0  0  0  0  0
  193.6690  176.5740  135.4340 C   0  0  0  0  0  1  0  0  0  0  0  0
  193.3400  176.8160  138.3300 C   0  0  2  0  0  3  0  0  0  0  0  0
  196.6970  176.1610  134.5990 O   0  0  0  0  0  0  0  0  0  0  0  0
  197.1330  175.6740  136.7930 O   0  0  0  0  0  1  0  0  0  0  0  0
  196.4020  175.4990  135.7830 C   0  0  0  0  0  0  0  0  0  0  0  0
  190.4820  174.4220  137.6020 O   0  0  0  0  0  0  0  0  0  0  0  0
  191.0470  173.4310  136.7800 C   0  0  0  0  0  2  0  0  0  0  0  0
  190.1910  173.2550  135.5420 C   0  0  0  0  0  1  0  0  0  0  0  0
  1 13  1  6  0  0  0
  2  3  1  0  0  0  0
  3  5  1  1  0  0  0
  4  1  1  6  0  0  0
  4  2  1  0  0  0  0
  4  3  1  0  0  0  0
  5  7  1  0  0  0  0
  5  6  1  1  0  0  0
  7  9  1  0  0  0  0
  7  8  1  1  0  0  0
 10  9  1  0  0  0  0
 11 10  2  0  0  0  0
 13 12  1  6  0  0  0
 13 14  1  0  0  0  0
 14 18  1  6  0  0  0
 16 14  1  0  0  0  0
 16 17  1  0  0  0  0
 16 15  1  0  0  0  0
 17 15  1  0  0  0  0
 18 20  1  0  0  0  0
 20 19  2  0  0  0  0
 21 35  1  1  0  0  0
 21  1  1  0  0  0  0
 22 30  1  6  0  0  0
 22 27  1  0  0  0  0
 23 29  1  0  0  0  0
 25 34  1  1  0  0  0
 25 22  1  0  0  0  0
 25 23  1  0  0  0  0
 26 21  1  6  0  0  0
 27 31  1  0  0  0  0
 27 26  1  0  0  0  0
 27 24  1  1  0  0  0
 29 24  1  0  0  0  0
 31 26  1  0  0  0  0
 31 28  1  1  0  0  0
 32 34  2  0  0  0  0
 34 33  1  0  0  0  0
 36 35  1  0  0  0  0
 37 36  1  0  0  0  0
M  END
>  <MODEL>
1

>  <REMARK>
 VINA RESULT:      -5.4      0.000      0.000
  Name = 
  15 active torsions:
  status: ('A' for Active; 'I' for Inactive)
    1  A    between atoms: C_1  and  C_5
    2  A    between atoms: C_1  and  C_23
    3  A    between atoms: C_5  and  C_26
    4  A    between atoms: C_8  and  C_19
    5  A    between atoms: C_9  and  C_13
    6  A    between atoms: C_9  and  C_16
    7  A    between atoms: C_9  and  C_30
    8  A    between atoms: C_10  and  C_29
    9  A    between atoms: C_11  and  C_26
   10  A    between atoms: C_13  and  C_20
   11  A    between atoms: C_16  and  C_24
   12  A    between atoms: C_20  and  C_25
   13  A    between atoms: C_20  and  C_29
   14  A    between atoms: C_27  and  O_33
   15  A    between atoms: C_29  and  O_33
                            x       y       z     vdW  Elec       q    Type
                         _______ _______ _______ _____ _____    ______ ____

>  <TORSDO>
F 15

$$$$
=
 OpenBabel10262423083D

 37 40  0  0  1  0  0  0  0  0999 V2000
  188.3930  178.2260  141.2030 C   0  0  2  0  0  3  0  0  0  0  0  0
  186.6420  178.8760  139.7010 O   0  0  0  0  0  0  0  0  0  0  0  0
  186.0170  178.9160  140.9620 C   0  0  2  0  0  3  0  0  0  0  0  0
  187.0210  177.8760  140.6210 C   0  0  2  0  0  3  0  0  0  0  0  0
  184.5670  178.4020  140.8780 C   0  0  1  0  0  3  0  0  0  0  0  0
  183.6300  178.8330  142.0140 C   0  0  0  0  0  1  0  0  0  0  0  0
  183.9650  178.6040  139.4840 C   0  0  2  0  0  3  0  0  0  0  0  0
  182.8440  179.6380  139.4880 C   0  0  0  0  0  1  0  0  0  0  0  0
  183.4710  177.2780  138.9220 C   0  0  0  0  0  2  0  0  0  0  0  0
  184.0710  177.0010  137.5800 C   0  0  0  0  0  3  0  0  0  0  0  0
  185.2600  177.1970  137.3790 O   0  0  0  0  0  0  0  0  0  0  0  0
  190.4930  176.8210  140.7310 C   0  0  0  0  0  1  0  0  0  0  0  0
  189.4750  177.8140  140.1910 C   0  0  1  0  0  3  0  0  0  0  0  0
  188.9600  177.5310  138.7590 C   0  0  1  0  0  3  0  0  0  0  0  0
  188.9420  179.6580  137.6090 O   0  0  0  0  0  0  0  0  0  0  0  0
  189.5350  178.4140  137.6390 C   0  0  0  0  0  3  0  0  0  0  0  0
  188.5510  178.7270  136.7250 O   0  0  0  0  0  0  0  0  0  0  0  0
  188.8760  176.0550  138.3640 C   0  0  0  0  0  2  0  0  0  0  0  0
  190.8170  174.7970  137.9250 O   0  0  0  0  0  0  0  0  0  0  0  0
  190.0240  175.6250  137.5090 C   0  0  0  0  0  3  0  0  0  0  0  0
  188.5970  177.6180  142.6160 C   0  0  1  0  0  3  0  0  0  0  0  0
  190.0310  176.4710  144.9310 C   0  0  1  0  0  3  0  0  0  0  0  0
  189.3220  176.8420  147.3580 C   0  0  0  0  0  2  0  0  0  0  0  0
  189.8750  178.7670  145.9850 O   0  0  0  0  0  0  0  0  0  0  0  0
  190.2440  176.0650  146.4030 C   0  0  2  0  0  3  0  0  0  0  0  0
  189.1320  178.6400  143.6430 C   0  0  1  0  0  3  0  0  0  0  0  0
  189.9290  178.0140  144.7930 C   0  0  2  0  0  0  0  0  0  0  0  0
  191.0910  179.9610  143.9910 O   0  0  0  0  0  1  0  0  0  0  0  0
  188.8680  178.1920  146.7810 C   0  0  0  0  0  2  0  0  0  0  0  0
  191.0310  175.8030  143.9890 C   0  0  0  0  0  1  0  0  0  0  0  0
  190.6590  178.6820  143.6360 C   0  0  2  0  0  3  0  0  0  0  0  0
  192.5870  175.2030  146.4940 O   0  0  0  0  0  0  0  0  0  0  0  0
  192.0500  177.1650  147.5450 O   0  0  0  0  0  1  0  0  0  0  0  0
  191.6720  176.1850  146.8510 C   0  0  0  0  0  0  0  0  0  0  0  0
  187.4550  176.9230  143.0910 O   0  0  0  0  0  0  0  0  0  0  0  0
  186.6820  177.7820  143.8920 C   0  0  0  0  0  2  0  0  0  0  0  0
  186.2770  177.0590  145.1600 C   0  0  0  0  0  1  0  0  0  0  0  0
  1 13  1  6  0  0  0
  1 21  1  0  0  0  0
  2  4  1  0  0  0  0
  2  3  1  0  0  0  0
  3  5  1  6  0  0  0
  4  3  1  0  0  0  0
  4  1  1  1  0  0  0
  5  6  1  1  0  0  0
  7  8  1  1  0  0  0
  7  5  1  0  0  0  0
  9  7  1  0  0  0  0
 10  9  1  0  0  0  0
 11 10  2  0  0  0  0
 13 12  1  1  0  0  0
 14 18  1  6  0  0  0
 14 13  1  0  0  0  0
 15 16  1  0  0  0  0
 16 14  1  0  0  0  0
 17 15  1  0  0  0  0
 17 16  1  0  0  0  0
 20 19  2  0  0  0  0
 20 18  1  0  0  0  0
 21 35  1  1  0  0  0
 22 30  1  6  0  0  0
 22 25  1  0  0  0  0
 24 29  1  0  0  0  0
 25 34  1  1  0  0  0
 25 23  1  0  0  0  0
 26 21  1  6  0  0  0
 26 27  1  0  0  0  0
 27 22  1  0  0  0  0
 27 24  1  1  0  0  0
 29 23  1  0  0  0  0
 31 26  1  0  0  0  0
 31 28  1  1  0  0  0
 31 27  1  0  0  0  0
 32 34  2  0  0  0  0
 34 33  1  0  0  0  0
 35 36  1  0  0  0  0
 36 37  1  0  0  0  0
M  END
>  <MODEL>
2

>  <REMARK>
 VINA RESULT:      -4.6      3.359      7.463
  Name = 
  15 active torsions:
  status: ('A' for Active; 'I' for Inactive)
    1  A    between atoms: C_1  and  C_5
    2  A    between atoms: C_1  and  C_23
    3  A    between atoms: C_5  and  C_26
    4  A    between atoms: C_8  and  C_19
    5  A    between atoms: C_9  and  C_13
    6  A    between atoms: C_9  and  C_16
    7  A    between atoms: C_9  and  C_30
    8  A    between atoms: C_10  and  C_29
    9  A    between atoms: C_11  and  C_26
   10  A    between atoms: C_13  and  C_20
   11  A    between atoms: C_16  and  C_24
   12  A    between atoms: C_20  and  C_25
   13  A    between atoms: C_20  and  C_29
   14  A    between atoms: C_27  and  O_33
   15  A    between atoms: C_29  and  O_33
                            x       y       z     vdW  Elec       q    Type
                         _______ _______ _______ _____ _____    ______ ____

>  <TORSDO>
F 15

$$$$
=
 OpenBabel10262423083D

 37 40  0  0  1  0  0  0  0  0999 V2000
  187.4020  177.4940  138.4160 C   0  0  2  0  0  3  0  0  0  0  0  0
  189.3590  177.9390  139.7250 O   0  0  0  0  0  0  0  0  0  0  0  0
  188.4950  177.3090  140.6400 C   0  0  2  0  0  3  0  0  0  0  0  0
  187.9880  178.2510  139.6100 C   0  0  2  0  0  3  0  0  0  0  0  0
  188.6050  177.9490  142.0370 C   0  0  1  0  0  3  0  0  0  0  0  0
  187.4780  177.6170  143.0240 C   0  0  0  0  0  1  0  0  0  0  0  0
  190.0050  177.7840  142.6360 C   0  0  2  0  0  3  0  0  0  0  0  0
  190.4720  176.3320  142.6110 C   0  0  0  0  0  1  0  0  0  0  0  0
  190.0430  178.3340  144.0560 C   0  0  0  0  0  2  0  0  0  0  0  0
  190.5960  177.3260  145.0130 C   0  0  0  0  0  3  0  0  0  0  0  0
  190.0250  177.0920  146.0670 O   0  0  0  0  0  0  0  0  0  0  0  0
  189.0060  179.1040  137.2140 C   0  0  0  0  0  1  0  0  0  0  0  0
  188.2790  177.7680  137.1820 C   0  0  1  0  0  3  0  0  0  0  0  0
  189.1180  176.5630  136.6930 C   0  0  1  0  0  3  0  0  0  0  0  0
  187.9430  174.6990  135.6980 O   0  0  0  0  0  0  0  0  0  0  0  0
  188.6270  175.8610  135.4160 C   0  0  0  0  0  3  0  0  0  0  0  0
  189.2200  174.6240  135.2930 O   0  0  0  0  0  0  0  0  0  0  0  0
  190.6350  176.7590  136.7140 C   0  0  0  0  0  2  0  0  0  0  0  0
  190.6630  175.1780  138.4580 O   0  0  0  0  0  0  0  0  0  0  0  0
  191.3200  175.8300  137.6640 C   0  0  0  0  0  3  0  0  0  0  0  0
  185.9010  177.8220  138.1990 C   0  0  1  0  0  3  0  0  0  0  0  0
  183.0240  177.7970  138.8730 C   0  0  1  0  0  3  0  0  0  0  0  0
  181.4130  179.6860  138.2630 C   0  0  0  0  0  2  0  0  0  0  0  0
  183.3340  180.1830  139.6620 O   0  0  0  0  0  0  0  0  0  0  0  0
  181.5530  178.2550  138.8110 C   0  0  2  0  0  3  0  0  0  0  0  0
  185.4090  179.0020  139.0650 C   0  0  1  0  0  3  0  0  0  0  0  0
  183.9280  178.9200  139.4520 C   0  0  2  0  0  0  0  0  0  0  0  0
  185.2170  179.5590  141.3790 O   0  0  0  0  0  1  0  0  0  0  0  0
  182.6820  180.5280  138.4640 C   0  0  0  0  0  2  0  0  0  0  0  0
  183.1850  176.4320  139.5380 C   0  0  0  0  0  1  0  0  0  0  0  0
  185.0000  178.5310  140.4590 C   0  0  2  0  0  3  0  0  0  0  0  0
  180.9560  179.1470  141.0670 O   0  0  0  0  0  1  0  0  0  0  0  0
  180.1320  177.1230  140.3850 O   0  0  0  0  0  0  0  0  0  0  0  0
  180.8380  178.1330  140.1260 C   0  0  0  0  0  0  0  0  0  0  0  0
  185.5600  177.9770  136.8310 O   0  0  0  0  0  0  0  0  0  0  0  0
  185.0890  176.7530  136.3230 C   0  0  0  0  0  2  0  0  0  0  0  0
  183.9190  177.0090  135.3960 C   0  0  0  0  0  1  0  0  0  0  0  0
  1 13  1  6  0  0  0
  2  3  1  0  0  0  0
  3  5  1  1  0  0  0
  4  1  1  6  0  0  0
  4  2  1  0  0  0  0
  4  3  1  0  0  0  0
  5  7  1  0  0  0  0
  5  6  1  1  0  0  0
  7  8  1  1  0  0  0
  7  9  1  0  0  0  0
  9 10  1  0  0  0  0
 10 11  2  0  0  0  0
 13 12  1  1  0  0  0
 14 18  1  6  0  0  0
 14 13  1  0  0  0  0
 16 15  1  0  0  0  0
 16 14  1  0  0  0  0
 17 16  1  0  0  0  0
 17 15  1  0  0  0  0
 18 20  1  0  0  0  0
 20 19  2  0  0  0  0
 21 35  1  6  0  0  0
 21  1  1  0  0  0  0
 22 27  1  0  0  0  0
 22 30  1  1  0  0  0
 23 29  1  0  0  0  0
 23 25  1  0  0  0  0
 25 22  1  0  0  0  0
 25 34  1  1  0  0  0
 26 21  1  6  0  0  0
 26 27  1  0  0  0  0
 26 31  1  0  0  0  0
 27 24  1  1  0  0  0
 27 31  1  0  0  0  0
 29 24  1  0  0  0  0
 31 28  1  1  0  0  0
 34 33  2  0  0  0  0
 34 32  1  0  0  0  0
 36 35  1  0  0  0  0
 37 36  1  0  0  0  0
M  END
>  <MODEL>
3

>  <REMARK>
 VINA RESULT:      -4.5      3.331      8.527
  Name = 
  15 active torsions:
  status: ('A' for Active; 'I' for Inactive)
    1  A    between atoms: C_1  and  C_5
    2  A    between atoms: C_1  and  C_23
    3  A    between atoms: C_5  and  C_26
    4  A    between atoms: C_8  and  C_19
    5  A    between atoms: C_9  and  C_13
    6  A    between atoms: C_9  and  C_16
    7  A    between atoms: C_9  and  C_30
    8  A    between atoms: C_10  and  C_29
    9  A    between atoms: C_11  and  C_26
   10  A    between atoms: C_13  and  C_20
   11  A    between atoms: C_16  and  C_24
   12  A    between atoms: C_20  and  C_25
   13  A    between atoms: C_20  and  C_29
   14  A    between atoms: C_27  and  O_33
   15  A    between atoms: C_29  and  O_33
                            x       y       z     vdW  Elec       q    Type
                         _______ _______ _______ _____ _____    ______ ____

>  <TORSDO>
F 15

$$$$
=
 OpenBabel10262423083D

 37 40  0  0  1  0  0  0  0  0999 V2000
  183.2120  178.4350  138.3340 C   0  0  2  0  0  3  0  0  0  0  0  0
  185.4030  179.2840  138.8020 O   0  0  0  0  0  0  0  0  0  0  0  0
  185.6360  178.3290  137.7940 C   0  0  2  0  0  3  0  0  0  0  0  0
  184.6160  178.1150  138.8530 C   0  0  2  0  0  3  0  0  0  0  0  0
  186.9430  177.5560  138.0540 C   0  0  1  0  0  3  0  0  0  0  0  0
  187.1650  176.2980  137.2050 C   0  0  0  0  0  1  0  0  0  0  0  0
  188.1610  178.4840  138.0960 C   0  0  2  0  0  3  0  0  0  0  0  0
  188.9770  178.4170  136.8090 C   0  0  0  0  0  1  0  0  0  0  0  0
  189.0340  178.1610  139.3010 C   0  0  0  0  0  2  0  0  0  0  0  0
  188.2840  178.3600  140.5810 C   0  0  0  0  0  3  0  0  0  0  0  0
  188.8150  178.1180  141.6550 O   0  0  0  0  0  0  0  0  0  0  0  0
  182.9370  178.4640  140.8900 C   0  0  0  0  0  1  0  0  0  0  0  0
  182.3030  178.7450  139.5360 C   0  0  1  0  0  3  0  0  0  0  0  0
  181.5080  180.0690  139.4320 C   0  0  1  0  0  3  0  0  0  0  0  0
  182.6210  182.0610  138.6320 O   0  0  0  0  0  0  0  0  0  0  0  0
  181.8550  180.9840  138.2450 C   0  0  0  0  0  3  0  0  0  0  0  0
  181.3060  182.2340  138.4300 O   0  0  0  0  0  0  0  0  0  0  0  0
  180.0010  179.9590  139.6730 C   0  0  0  0  0  2  0  0  0  0  0  0
  180.1200  180.5410  141.9510 O   0  0  0  0  0  0  0  0  0  0  0  0
  179.5580  180.7170  140.8830 C   0  0  0  0  0  3  0  0  0  0  0  0
  182.6640  177.3150  137.4110 C   0  0  1  0  0  3  0  0  0  0  0  0
  182.4670  174.4270  136.8140 C   0  0  1  0  0  3  0  0  0  0  0  0
  180.4820  173.3670  135.6010 C   0  0  0  0  0  2  0  0  0  0  0  0
  180.0920  174.5550  137.6830 O   0  0  0  0  0  0  0  0  0  0  0  0
  181.9060  173.1570  136.1440 C   0  0  2  0  0  3  0  0  0  0  0  0
  181.4320  176.5940  138.0010 C   0  0  1  0  0  3  0  0  0  0  0  0
  181.3990  175.0860  137.7300 C   0  0  2  0  0  0  0  0  0  0  0  0
  180.8100  175.4910  140.0260 O   0  0  0  0  0  1  0  0  0  0  0  0
  179.7290  174.4940  136.3250 C   0  0  0  0  0  2  0  0  0  0  0  0
  183.8250  174.1910  137.4720 C   0  0  0  0  0  1  0  0  0  0  0  0
  181.8410  175.6040  139.0900 C   0  0  2  0  0  3  0  0  0  0  0  0
  180.8520  171.6520  137.8370 O   0  0  0  0  0  1  0  0  0  0  0  0
  182.9600  171.2020  137.0630 O   0  0  0  0  0  0  0  0  0  0  0  0
  181.9460  171.9490  137.0350 C   0  0  0  0  0  0  0  0  0  0  0  0
  182.4480  177.7500  136.0790 O   0  0  0  0  0  0  0  0  0  0  0  0
  181.1120  178.1620  135.9300 C   0  0  0  0  0  2  0  0  0  0  0  0
  181.0520  179.3460  134.9880 C   0  0  0  0  0  1  0  0  0  0  0  0
  1 21  1  1  0  0  0
  1 13  1  0  0  0  0
  2  4  1  0  0  0  0
  3  5  1  1  0  0  0
  3  2  1  0  0  0  0
  3  4  1  0  0  0  0
  4  1  1  6  0  0  0
  5  6  1  6  0  0  0
  5  7  1  0  0  0  0
  7  8  1  6  0  0  0
  7  9  1  0  0  0  0
  9 10  1  0  0  0  0
 10 11  2  0  0  0  0
 13 12  1  1  0  0  0
 14 13  1  0  0  0  0
 14 18  1  6  0  0  0
 16 17  1  0  0  0  0
 16 15  1  0  0  0  0
 16 14  1  0  0  0  0
 17 15  1  0  0  0  0
 18 20  1  0  0  0  0
 20 19  2  0  0  0  0
 21 35  1  6  0  0  0
 22 30  1  1  0  0  0
 22 27  1  0  0  0  0
 23 25  1  0  0  0  0
 23 29  1  0  0  0  0
 25 22  1  0  0  0  0
 25 34  1  1  0  0  0
 26 21  1  6  0  0  0
 26 31  1  0  0  0  0
 27 24  1  6  0  0  0
 27 26  1  0  0  0  0
 27 31  1  0  0  0  0
 29 24  1  0  0  0  0
 31 28  1  1  0  0  0
 34 33  2  0  0  0  0
 34 32  1  0  0  0  0
 36 35  1  0  0  0  0
 37 36  1  0  0  0  0
M  END
>  <MODEL>
4

>  <REMARK>
 VINA RESULT:      -4.4      5.003      9.981
  Name = 
  15 active torsions:
  status: ('A' for Active; 'I' for Inactive)
    1  A    between atoms: C_1  and  C_5
    2  A    between atoms: C_1  and  C_23
    3  A    between atoms: C_5  and  C_26
    4  A    between atoms: C_8  and  C_19
    5  A    between atoms: C_9  and  C_13
    6  A    between atoms: C_9  and  C_16
    7  A    between atoms: C_9  and  C_30
    8  A    between atoms: C_10  and  C_29
    9  A    between atoms: C_11  and  C_26
   10  A    between atoms: C_13  and  C_20
   11  A    between atoms: C_16  and  C_24
   12  A    between atoms: C_20  and  C_25
   13  A    between atoms: C_20  and  C_29
   14  A    between atoms: C_27  and  O_33
   15  A    between atoms: C_29  and  O_33
                            x       y       z     vdW  Elec       q    Type
                         _______ _______ _______ _____ _____    ______ ____

>  <TORSDO>
F 15

$$$$
=
 OpenBabel10262423083D

 37 40  0  0  1  0  0  0  0  0999 V2000
  190.3470  175.0480  136.7190 C   0  0  2  0  0  3  0  0  0  0  0  0
  188.0270  174.8030  136.1710 O   0  0  0  0  0  0  0  0  0  0  0  0
  188.4070  173.5020  136.5530 C   0  0  2  0  0  3  0  0  0  0  0  0
  189.3220  174.3920  135.7910 C   0  0  2  0  0  3  0  0  0  0  0  0
  187.7250  172.4420  135.6680 C   0  0  1  0  0  3  0  0  0  0  0  0
  188.5610  171.2010  135.3310 C   0  0  0  0  0  1  0  0  0  0  0  0
  186.3120  172.1080  136.1570 C   0  0  2  0  0  3  0  0  0  0  0  0
  185.2710  172.2620  135.0520 C   0  0  0  0  0  1  0  0  0  0  0  0
  185.9490  172.9700  137.3590 C   0  0  0  0  0  2  0  0  0  0  0  0
  184.6280  173.6450  137.1620 C   0  0  0  0  0  3  0  0  0  0  0  0
  184.1560  174.3540  138.0380 O   0  0  0  0  0  0  0  0  0  0  0  0
  189.8630  176.9720  135.0840 C   0  0  0  0  0  1  0  0  0  0  0  0
  190.3280  176.5670  136.4750 C   0  0  1  0  0  3  0  0  0  0  0  0
  189.7610  177.4110  137.6410 C   0  0  1  0  0  3  0  0  0  0  0  0
  189.0220  179.7060  137.4500 O   0  0  0  0  0  0  0  0  0  0  0  0
  188.6320  178.3940  137.2870 C   0  0  0  0  0  3  0  0  0  0  0  0
  188.2700  179.1250  138.3980 O   0  0  0  0  0  0  0  0  0  0  0  0
  189.4980  176.6530  138.9430 C   0  0  0  0  0  2  0  0  0  0  0  0
  189.9180  177.5270  141.0880 O   0  0  0  0  0  0  0  0  0  0  0  0
  190.3960  177.0930  140.0540 C   0  0  0  0  0  3  0  0  0  0  0  0
  191.7540  174.4110  136.5740 C   0  0  1  0  0  3  0  0  0  0  0  0
  194.5710  174.7580  135.7520 C   0  0  1  0  0  3  0  0  0  0  0  0
  196.5140  173.4550  136.7810 C   0  0  0  0  0  2  0  0  0  0  0  0
  195.1320  174.8400  138.2190 O   0  0  0  0  0  0  0  0  0  0  0  0
  196.0700  174.4100  135.6610 C   0  0  2  0  0  3  0  0  0  0  0  0
  192.7280  174.8360  137.6940 C   0  0  1  0  0  3  0  0  0  0  0  0
  194.1660  175.0730  137.2180 C   0  0  2  0  0  0  0  0  0  0  0  0
  193.5190  176.8520  138.7010 O   0  0  0  0  0  1  0  0  0  0  0  0
  195.6120  173.5320  138.0220 C   0  0  0  0  0  2  0  0  0  0  0  0
  194.1490  175.8070  134.7260 C   0  0  0  0  0  1  0  0  0  0  0  0
  193.2430  176.2560  137.4690 C   0  0  2  0  0  3  0  0  0  0  0  0
  197.6930  175.9600  136.7590 O   0  0  0  0  0  1  0  0  0  0  0  0
  197.0470  176.3300  134.5940 O   0  0  0  0  0  0  0  0  0  0  0  0
  196.9590  175.6200  135.6300 C   0  0  0  0  0  0  0  0  0  0  0  0
  191.7100  173.0040  136.4020 O   0  0  0  0  0  0  0  0  0  0  0  0
  192.0990  172.6790  135.0900 C   0  0  0  0  0  2  0  0  0  0  0  0
  192.4620  171.2100  135.0210 C   0  0  0  0  0  1  0  0  0  0  0  0
  1 13  1  6  0  0  0
  2  3  1  0  0  0  0
  3  5  1  6  0  0  0
  4  2  1  0  0  0  0
  4  3  1  0  0  0  0
  4  1  1  1  0  0  0
  5  6  1  1  0  0  0
  5  7  1  0  0  0  0
  7  8  1  6  0  0  0
  7  9  1  0  0  0  0
 10  9  1  0  0  0  0
 10 11  2  0  0  0  0
 13 12  1  6  0  0  0
 13 14  1  0  0  0  0
 14 18  1  1  0  0  0
 15 17  1  0  0  0  0
 16 15  1  0  0  0  0
 16 14  1  0  0  0  0
 16 17  1  0  0  0  0
 18 20  1  0  0  0  0
 20 19  2  0  0  0  0
 21 35  1  1  0  0  0
 21  1  1  0  0  0  0
 22 30  1  6  0  0  0
 22 27  1  0  0  0  0
 23 29  1  0  0  0  0
 25 34  1  1  0  0  0
 25 22  1  0  0  0  0
 25 23  1  0  0  0  0
 26 21  1  6  0  0  0
 27 31  1  0  0  0  0
 27 26  1  0  0  0  0
 27 24  1  1  0  0  0
 29 24  1  0  0  0  0
 31 26  1  0  0  0  0
 31 28  1  1  0  0  0
 33 34  2  0  0  0  0
 34 32  1  0  0  0  0
 36 35  1  0  0  0  0
 37 36  1  0  0  0  0
M  END
>  <MODEL>
5

>  <REMARK>
 VINA RESULT:      -4.3      1.885      4.346
  Name = 
  15 active torsions:
  status: ('A' for Active; 'I' for Inactive)
    1  A    between atoms: C_1  and  C_5
    2  A    between atoms: C_1  and  C_23
    3  A    between atoms: C_5  and  C_26
    4  A    between atoms: C_8  and  C_19
    5  A    between atoms: C_9  and  C_13
    6  A    between atoms: C_9  and  C_16
    7  A    between atoms: C_9  and  C_30
    8  A    between atoms: C_10  and  C_29
    9  A    between atoms: C_11  and  C_26
   10  A    between atoms: C_13  and  C_20
   11  A    between atoms: C_16  and  C_24
   12  A    between atoms: C_20  and  C_25
   13  A    between atoms: C_20  and  C_29
   14  A    between atoms: C_27  and  O_33
   15  A    between atoms: C_29  and  O_33
                            x       y       z     vdW  Elec       q    Type
                         _______ _______ _______ _____ _____    ______ ____

>  <TORSDO>
F 15

$$$$
=
 OpenBabel10262423083D

 37 40  0  0  1  0  0  0  0  0999 V2000
  188.7600  177.1340  139.0570 C   0  0  2  0  0  3  0  0  0  0  0  0
  189.9280  176.8590  136.9830 O   0  0  0  0  0  0  0  0  0  0  0  0
  190.2370  175.6790  137.6860 C   0  0  2  0  0  3  0  0  0  0  0  0
  190.1220  176.9910  138.3740 C   0  0  2  0  0  3  0  0  0  0  0  0
  191.6970  175.2550  137.4410 C   0  0  1  0  0  3  0  0  0  0  0  0
  191.9380  173.7560  137.2170 C   0  0  0  0  0  1  0  0  0  0  0  0
  192.3880  176.1430  136.4020 C   0  0  2  0  0  3  0  0  0  0  0  0
  192.3230  175.5430  135.0010 C   0  0  0  0  0  1  0  0  0  0  0  0
  193.8320  176.4080  136.8060 C   0  0  0  0  0  2  0  0  0  0  0  0
  194.6890  176.6710  135.6080 C   0  0  0  0  0  3  0  0  0  0  0  0
  195.3670  177.6850  135.5400 O   0  0  0  0  0  0  0  0  0  0  0  0
  188.6960  179.1870  137.5110 C   0  0  0  0  0  1  0  0  0  0  0  0
  187.9010  178.1140  138.2390 C   0  0  1  0  0  3  0  0  0  0  0  0
  186.7590  177.4610  137.4240 C   0  0  1  0  0  3  0  0  0  0  0  0
  186.9830  175.4490  136.1010 O   0  0  0  0  0  0  0  0  0  0  0  0
  186.7470  175.9230  137.3730 C   0  0  0  0  0  3  0  0  0  0  0  0
  185.7240  175.4800  136.5640 O   0  0  0  0  0  0  0  0  0  0  0  0
  185.3660  178.0550  137.6400 C   0  0  0  0  0  2  0  0  0  0  0  0
  184.7410  179.7540  139.1450 O   0  0  0  0  0  0  0  0  0  0  0  0
  185.1950  178.6310  139.0090 C   0  0  0  0  0  3  0  0  0  0  0  0
  188.8980  177.5260  140.5520 C   0  0  1  0  0  3  0  0  0  0  0  0
  189.9310  176.8330  143.2320 C   0  0  1  0  0  3  0  0  0  0  0  0
  190.5610  178.5720  144.9970 C   0  0  0  0  0  2  0  0  0  0  0  0
  191.6990  178.6040  142.8520 O   0  0  0  0  0  0  0  0  0  0  0  0
  190.3320  177.0800  144.7010 C   0  0  2  0  0  3  0  0  0  0  0  0
  190.2870  178.1020  140.9010 C   0  0  1  0  0  3  0  0  0  0  0  0
  190.8210  177.6660  142.2700 C   0  0  2  0  0  0  0  0  0  0  0  0
  192.5840  177.5010  140.6430 O   0  0  0  0  0  1  0  0  0  0  0  0
  190.9320  179.3780  143.7430 C   0  0  0  0  0  2  0  0  0  0  0  0
  189.8300  175.3470  142.8950 C   0  0  0  0  0  1  0  0  0  0  0  0
  191.3340  176.9950  141.0040 C   0  0  2  0  0  3  0  0  0  0  0  0
  192.0480  176.4590  146.4060 O   0  0  0  0  0  1  0  0  0  0  0  0
  192.0560  175.4410  144.3550 O   0  0  0  0  0  0  0  0  0  0  0  0
  191.5250  176.2770  145.1330 C   0  0  0  0  0  0  0  0  0  0  0  0
  187.8400  178.3530  141.0080 O   0  0  0  0  0  0  0  0  0  0  0  0
  187.1860  177.7290  142.0860 C   0  0  0  0  0  2  0  0  0  0  0  0
  186.0410  178.6020  142.5540 C   0  0  0  0  0  1  0  0  0  0  0  0
  1 13  1  6  0  0  0
  1 21  1  0  0  0  0
  2  3  1  0  0  0  0
  2  4  1  0  0  0  0
  3  5  1  6  0  0  0
  3  4  1  0  0  0  0
  4  1  1  1  0  0  0
  5  6  1  6  0  0  0
  7  8  1  6  0  0  0
  7  9  1  0  0  0  0
  7  5  1  0  0  0  0
 10  9  1  0  0  0  0
 11 10  2  0  0  0  0
 13 12  1  6  0  0  0
 14 18  1  1  0  0  0
 14 13  1  0  0  0  0
 15 17  1  0  0  0  0
 15 16  1  0  0  0  0
 16 14  1  0  0  0  0
 17 16  1  0  0  0  0
 18 20  1  0  0  0  0
 20 19  2  0  0  0  0
 21 35  1  6  0  0  0
 22 30  1  6  0  0  0
 22 25  1  0  0  0  0
 24 29  1  0  0  0  0
 25 23  1  0  0  0  0
 25 34  1  6  0  0  0
 26 21  1  1  0  0  0
 26 31  1  0  0  0  0
 26 27  1  0  0  0  0
 27 24  1  1  0  0  0
 27 22  1  0  0  0  0
 29 23  1  0  0  0  0
 31 28  1  6  0  0  0
 31 27  1  0  0  0  0
 33 34  2  0  0  0  0
 34 32  1  0  0  0  0
 35 36  1  0  0  0  0
 36 37  1  0  0  0  0
M  END
>  <MODEL>
6

>  <REMARK>
 VINA RESULT:      -4.3      2.316      6.866
  Name = 
  15 active torsions:
  status: ('A' for Active; 'I' for Inactive)
    1  A    between atoms: C_1  and  C_5
    2  A    between atoms: C_1  and  C_23
    3  A    between atoms: C_5  and  C_26
    4  A    between atoms: C_8  and  C_19
    5  A    between atoms: C_9  and  C_13
    6  A    between atoms: C_9  and  C_16
    7  A    between atoms: C_9  and  C_30
    8  A    between atoms: C_10  and  C_29
    9  A    between atoms: C_11  and  C_26
   10  A    between atoms: C_13  and  C_20
   11  A    between atoms: C_16  and  C_24
   12  A    between atoms: C_20  and  C_25
   13  A    between atoms: C_20  and  C_29
   14  A    between atoms: C_27  and  O_33
   15  A    between atoms: C_29  and  O_33
                            x       y       z     vdW  Elec       q    Type
                         _______ _______ _______ _____ _____    ______ ____

>  <TORSDO>
F 15

$$$$
=
 OpenBabel10262423083D

 37 40  0  0  1  0  0  0  0  0999 V2000
  185.9290  178.4380  142.5130 C   0  0  2  0  0  3  0  0  0  0  0  0
  183.7140  178.4930  141.6020 O   0  0  0  0  0  0  0  0  0  0  0  0
  184.4710  177.9010  140.5740 C   0  0  2  0  0  3  0  0  0  0  0  0
  185.0180  178.9950  141.4160 C   0  0  2  0  0  3  0  0  0  0  0  0
  184.0010  178.3870  139.1900 C   0  0  1  0  0  3  0  0  0  0  0  0
  184.8750  177.9790  137.9960 C   0  0  0  0  0  1  0  0  0  0  0  0
  182.5080  178.1270  138.9660 C   0  0  2  0  0  3  0  0  0  0  0  0
  182.2570  176.7960  138.2630 C   0  0  0  0  0  1  0  0  0  0  0  0
  181.8810  179.2730  138.1830 C   0  0  0  0  0  2  0  0  0  0  0  0
  182.3340  180.5990  138.7080 C   0  0  0  0  0  3  0  0  0  0  0  0
  181.7200  181.6180  138.4320 O   0  0  0  0  0  0  0  0  0  0  0  0
  185.3030  180.6790  143.6080 C   0  0  0  0  0  1  0  0  0  0  0  0
  185.6620  179.2150  143.8140 C   0  0  1  0  0  3  0  0  0  0  0  0
  184.8130  178.4610  144.8650 C   0  0  1  0  0  3  0  0  0  0  0  0
  184.7450  178.3140  147.2780 O   0  0  0  0  0  0  0  0  0  0  0  0
  185.5280  178.0720  146.1700 C   0  0  0  0  0  3  0  0  0  0  0  0
  185.7160  179.1840  146.9610 O   0  0  0  0  0  0  0  0  0  0  0  0
  183.4070  179.0160  145.1040 C   0  0  0  0  0  2  0  0  0  0  0  0
  181.4140  179.0390  143.8510 O   0  0  0  0  0  0  0  0  0  0  0  0
  182.3850  178.3930  144.2080 C   0  0  0  0  0  3  0  0  0  0  0  0
  187.4210  178.4350  142.0850 C   0  0  1  0  0  3  0  0  0  0  0  0
  189.8910  178.0710  143.6650 C   0  0  1  0  0  3  0  0  0  0  0  0
  192.1120  177.3030  142.6590 C   0  0  0  0  0  2  0  0  0  0  0  0
  190.1670  175.8620  142.4600 O   0  0  0  0  0  0  0  0  0  0  0  0
  191.4000  177.8650  143.9020 C   0  0  2  0  0  3  0  0  0  0  0  0
  188.0350  177.0190  142.0460 C   0  0  1  0  0  3  0  0  0  0  0  0
  189.2750  176.8490  142.9310 C   0  0  2  0  0  0  0  0  0  0  0  0
  187.8280  174.9510  143.2210 O   0  0  0  0  0  1  0  0  0  0  0  0
  191.1630  176.5340  141.7270 C   0  0  0  0  0  2  0  0  0  0  0  0
  189.1530  178.5030  144.9310 C   0  0  0  0  0  1  0  0  0  0  0  0
  187.9250  176.3310  143.4050 C   0  0  2  0  0  3  0  0  0  0  0  0
  192.0520  175.6800  144.9220 O   0  0  0  0  0  0  0  0  0  0  0  0
  191.6410  177.4900  146.2640 O   0  0  0  0  0  1  0  0  0  0  0  0
  191.7010  177.0120  145.1000 C   0  0  0  0  0  0  0  0  0  0  0  0
  187.6550  179.1590  140.8880 O   0  0  0  0  0  0  0  0  0  0  0  0
  187.9820  178.2630  139.8540 C   0  0  0  0  0  2  0  0  0  0  0  0
  189.3410  178.6210  139.2900 C   0  0  0  0  0  1  0  0  0  0  0  0
  1 21  1  6  0  0  0
  1 13  1  0  0  0  0
  3  5  1  6  0  0  0
  3  4  1  0  0  0  0
  3  2  1  0  0  0  0
  4  2  1  0  0  0  0
  4  1  1  1  0  0  0
  5  6  1  6  0  0  0
  7  8  1  6  0  0  0
  7  5  1  0  0  0  0
  9 10  1  0  0  0  0
  9  7  1  0  0  0  0
 11 10  2  0  0  0  0
 13 12  1  6  0  0  0
 13 14  1  0  0  0  0
 14 18  1  1  0  0  0
 14 16  1  0  0  0  0
 16 17  1  0  0  0  0
 16 15  1  0  0  0  0
 17 15  1  0  0  0  0
 19 20  2  0  0  0  0
 20 18  1  0  0  0  0
 21 35  1  6  0  0  0
 22 25  1  0  0  0  0
 22 30  1  1  0  0  0
 23 25  1  0  0  0  0
 25 34  1  1  0  0  0
 26 21  1  1  0  0  0
 26 27  1  0  0  0  0
 26 31  1  0  0  0  0
 27 24  1  6  0  0  0
 27 31  1  0  0  0  0
 27 22  1  0  0  0  0
 29 24  1  0  0  0  0
 29 23  1  0  0  0  0
 31 28  1  6  0  0  0
 32 34  2  0  0  0  0
 34 33  1  0  0  0  0
 36 35  1  0  0  0  0
 37 36  1  0  0  0  0
M  END
>  <MODEL>
7

>  <REMARK>
 VINA RESULT:      -4.1      4.903      8.218
  Name = 
  15 active torsions:
  status: ('A' for Active; 'I' for Inactive)
    1  A    between atoms: C_1  and  C_5
    2  A    between atoms: C_1  and  C_23
    3  A    between atoms: C_5  and  C_26
    4  A    between atoms: C_8  and  C_19
    5  A    between atoms: C_9  and  C_13
    6  A    between atoms: C_9  and  C_16
    7  A    between atoms: C_9  and  C_30
    8  A    between atoms: C_10  and  C_29
    9  A    between atoms: C_11  and  C_26
   10  A    between atoms: C_13  and  C_20
   11  A    between atoms: C_16  and  C_24
   12  A    between atoms: C_20  and  C_25
   13  A    between atoms: C_20  and  C_29
   14  A    between atoms: C_27  and  O_33
   15  A    between atoms: C_29  and  O_33
                            x       y       z     vdW  Elec       q    Type
                         _______ _______ _______ _____ _____    ______ ____

>  <TORSDO>
F 15

$$$$
=
 OpenBabel10262423083D

 37 40  0  0  1  0  0  0  0  0999 V2000
  189.4280  176.7090  137.3890 C   0  0  2  0  0  3  0  0  0  0  0  0
  191.7640  176.1740  137.3680 O   0  0  0  0  0  0  0  0  0  0  0  0
  191.2410  175.3750  136.3340 C   0  0  2  0  0  3  0  0  0  0  0  0
  190.4860  175.6210  137.5900 C   0  0  2  0  0  3  0  0  0  0  0  0
  191.9220  173.9940  136.3030 C   0  0  1  0  0  3  0  0  0  0  0  0
  191.2870  172.9480  135.3770 C   0  0  0  0  0  1  0  0  0  0  0  0
  193.4410  174.1050  136.1420 C   0  0  2  0  0  3  0  0  0  0  0  0
  193.9310  173.4510  134.8530 C   0  0  0  0  0  1  0  0  0  0  0  0
  194.1480  173.5050  137.3500 C   0  0  0  0  0  2  0  0  0  0  0  0
  194.9510  174.5380  138.0760 C   0  0  0  0  0  3  0  0  0  0  0  0
  195.9940  174.9610  137.6000 O   0  0  0  0  0  0  0  0  0  0  0  0
  189.0520  179.1480  138.1090 C   0  0  0  0  0  1  0  0  0  0  0  0
  189.6200  177.7850  138.4720 C   0  0  1  0  0  3  0  0  0  0  0  0
  189.3490  177.3120  139.9210 C   0  0  1  0  0  3  0  0  0  0  0  0
  191.0720  177.6930  141.5750 O   0  0  0  0  0  0  0  0  0  0  0  0
  190.5570  176.7620  140.6980 C   0  0  0  0  0  3  0  0  0  0  0  0
  191.6880  177.4910  140.4000 O   0  0  0  0  0  0  0  0  0  0  0  0
  188.4730  178.2370  140.7670 C   0  0  0  0  0  2  0  0  0  0  0  0
  187.8670  177.8860  143.0150 O   0  0  0  0  0  0  0  0  0  0  0  0
  187.7600  177.5080  141.8610 C   0  0  0  0  0  3  0  0  0  0  0  0
  187.9930  176.1230  137.3410 C   0  0  1  0  0  3  0  0  0  0  0  0
  185.1340  176.8250  137.6000 C   0  0  1  0  0  3  0  0  0  0  0  0
  183.2510  175.5260  136.4600 C   0  0  0  0  0  2  0  0  0  0  0  0
  184.9820  176.5370  135.0900 O   0  0  0  0  0  0  0  0  0  0  0  0
  183.6110  176.6170  137.4830 C   0  0  2  0  0  3  0  0  0  0  0  0
  187.2580  176.4300  136.0170 C   0  0  1  0  0  3  0  0  0  0  0  0
  185.7970  176.8570  136.1960 C   0  0  2  0  0  0  0  0  0  0  0  0
  186.8550  178.3050  134.5940 O   0  0  0  0  0  1  0  0  0  0  0  0
  184.3410  175.3220  135.3970 C   0  0  0  0  0  2  0  0  0  0  0  0
  185.4970  177.9940  138.5130 C   0  0  0  0  0  1  0  0  0  0  0  0
  186.8680  177.9040  135.9320 C   0  0  2  0  0  3  0  0  0  0  0  0
  182.6390  178.8100  138.1830 O   0  0  0  0  0  1  0  0  0  0  0  0
  182.4360  178.1120  136.0120 O   0  0  0  0  0  0  0  0  0  0  0  0
  182.8620  177.8820  137.1740 C   0  0  0  0  0  0  0  0  0  0  0  0
  187.9440  174.7460  137.6780 O   0  0  0  0  0  0  0  0  0  0  0  0
  187.6070  173.9950  136.5380 C   0  0  0  0  0  2  0  0  0  0  0  0
  187.3280  172.5620  136.9430 C   0  0  0  0  0  1  0  0  0  0  0  0
  1 21  1  1  0  0  0
  1 13  1  0  0  0  0
  2  4  1  0  0  0  0
  3  5  1  1  0  0  0
  3  2  1  0  0  0  0
  3  4  1  0  0  0  0
  4  1  1  6  0  0  0
  5  6  1  6  0  0  0
  7  8  1  6  0  0  0
  7  5  1  0  0  0  0
  7  9  1  0  0  0  0
  9 10  1  0  0  0  0
 11 10  2  0  0  0  0
 13 12  1  6  0  0  0
 13 14  1  0  0  0  0
 14 16  1  0  0  0  0
 14 18  1  1  0  0  0
 16 15  1  0  0  0  0
 17 16  1  0  0  0  0
 17 15  1  0  0  0  0
 18 20  1  0  0  0  0
 20 19  2  0  0  0  0
 21 35  1  6  0  0  0
 22 30  1  6  0  0  0
 23 25  1  0  0  0  0
 24 29  1  0  0  0  0
 25 34  1  6  0  0  0
 25 22  1  0  0  0  0
 26 27  1  0  0  0  0
 26 21  1  1  0  0  0
 27 24  1  6  0  0  0
 27 22  1  0  0  0  0
 29 23  1  0  0  0  0
 31 28  1  6  0  0  0
 31 26  1  0  0  0  0
 31 27  1  0  0  0  0
 33 34  2  0  0  0  0
 34 32  1  0  0  0  0
 36 37  1  0  0  0  0
 36 35  1  0  0  0  0
M  END
>  <MODEL>
8

>  <REMARK>
 VINA RESULT:      -3.8      2.220      8.194
  Name = 
  15 active torsions:
  status: ('A' for Active; 'I' for Inactive)
    1  A    between atoms: C_1  and  C_5
    2  A    between atoms: C_1  and  C_23
    3  A    between atoms: C_5  and  C_26
    4  A    between atoms: C_8  and  C_19
    5  A    between atoms: C_9  and  C_13
    6  A    between atoms: C_9  and  C_16
    7  A    between atoms: C_9  and  C_30
    8  A    between atoms: C_10  and  C_29
    9  A    between atoms: C_11  and  C_26
   10  A    between atoms: C_13  and  C_20
   11  A    between atoms: C_16  and  C_24
   12  A    between atoms: C_20  and  C_25
   13  A    between atoms: C_20  and  C_29
   14  A    between atoms: C_27  and  O_33
   15  A    between atoms: C_29  and  O_33
                            x       y       z     vdW  Elec       q    Type
                         _______ _______ _______ _____ _____    ______ ____

>  <TORSDO>
F 15

$$$$
=
 OpenBabel10262423083D

 37 40  0  0  1  0  0  0  0  0999 V2000
  188.7110  177.1700  139.3120 C   0  0  2  0  0  3  0  0  0  0  0  0
  189.8710  176.8300  137.2430 O   0  0  0  0  0  0  0  0  0  0  0  0
  189.9150  175.5610  137.8500 C   0  0  2  0  0  3  0  0  0  0  0  0
  190.0400  176.8110  138.6440 C   0  0  2  0  0  3  0  0  0  0  0  0
  191.2690  174.8720  137.5980 C   0  0  1  0  0  3  0  0  0  0  0  0
  191.2210  173.5470  136.8250 C   0  0  0  0  0  1  0  0  0  0  0  0
  192.3200  175.8490  137.0620 C   0  0  2  0  0  3  0  0  0  0  0  0
  192.7470  175.5080  135.6380 C   0  0  0  0  0  1  0  0  0  0  0  0
  193.5280  175.8900  137.9880 C   0  0  0  0  0  2  0  0  0  0  0  0
  194.5520  174.8760  137.5870 C   0  0  0  0  0  3  0  0  0  0  0  0
  194.6470  173.8170  138.1900 O   0  0  0  0  0  0  0  0  0  0  0  0
  189.0340  179.2120  137.7830 C   0  0  0  0  0  1  0  0  0  0  0  0
  188.0520  178.3080  138.5130 C   0  0  1  0  0  3  0  0  0  0  0  0
  186.7940  177.9000  137.7080 C   0  0  1  0  0  3  0  0  0  0  0  0
  185.0450  179.4560  138.3170 O   0  0  0  0  0  0  0  0  0  0  0  0
  185.4380  178.1370  138.3930 C   0  0  0  0  0  3  0  0  0  0  0  0
  185.5840  178.9990  139.4580 O   0  0  0  0  0  0  0  0  0  0  0  0
  186.7900  178.3070  136.2330 C   0  0  0  0  0  2  0  0  0  0  0  0
  187.0050  176.0080  135.7740 O   0  0  0  0  0  0  0  0  0  0  0  0
  186.8790  177.1300  135.3140 C   0  0  0  0  0  3  0  0  0  0  0  0
  188.8860  177.4890  140.8200 C   0  0  1  0  0  3  0  0  0  0  0  0
  189.9280  176.8510  143.5110 C   0  0  1  0  0  3  0  0  0  0  0  0
  190.5490  178.6250  145.2430 C   0  0  0  0  0  2  0  0  0  0  0  0
  191.6840  178.6270  143.0960 O   0  0  0  0  0  0  0  0  0  0  0  0
  190.3300  177.1270  144.9740 C   0  0  2  0  0  3  0  0  0  0  0  0
  190.2720  178.0810  141.1560 C   0  0  1  0  0  3  0  0  0  0  0  0
  190.8110  177.6730  142.5320 C   0  0  2  0  0  0  0  0  0  0  0  0
  192.5720  177.4910  140.9050 O   0  0  0  0  0  1  0  0  0  0  0  0
  190.9130  179.4110  143.9740 C   0  0  0  0  0  2  0  0  0  0  0  0
  189.8370  175.3590  143.2000 C   0  0  0  0  0  1  0  0  0  0  0  0
  191.3270  176.9820  141.2780 C   0  0  2  0  0  3  0  0  0  0  0  0
  192.0660  175.3760  144.5760 O   0  0  0  0  0  0  0  0  0  0  0  0
  192.0530  176.5450  146.5450 O   0  0  0  0  0  1  0  0  0  0  0  0
  191.5290  176.3400  145.4180 C   0  0  0  0  0  0  0  0  0  0  0  0
  187.8240  178.2670  141.3490 O   0  0  0  0  0  0  0  0  0  0  0  0
  187.0890  177.4950  142.2670 C   0  0  0  0  0  2  0  0  0  0  0  0
  186.3650  178.4130  143.2300 C   0  0  0  0  0  1  0  0  0  0  0  0
  1 13  1  6  0  0  0
  1 21  1  0  0  0  0
  2  3  1  0  0  0  0
  2  4  1  0  0  0  0
  3  5  1  6  0  0  0
  3  4  1  0  0  0  0
  4  1  1  1  0  0  0
  5  6  1  6  0  0  0
  7  8  1  6  0  0  0
  7  5  1  0  0  0  0
  7  9  1  0  0  0  0
 10  9  1  0  0  0  0
 10 11  2  0  0  0  0
 13 12  1  6  0  0  0
 14 18  1  6  0  0  0
 14 16  1  0  0  0  0
 14 13  1  0  0  0  0
 15 16  1  0  0  0  0
 15 17  1  0  0  0  0
 16 17  1  0  0  0  0
 20 19  2  0  0  0  0
 20 18  1  0  0  0  0
 21 35  1  6  0  0  0
 22 30  1  6  0  0  0
 22 25  1  0  0  0  0
 24 29  1  0  0  0  0
 25 23  1  0  0  0  0
 25 34  1  6  0  0  0
 26 21  1  1  0  0  0
 26 31  1  0  0  0  0
 26 27  1  0  0  0  0
 27 24  1  1  0  0  0
 27 22  1  0  0  0  0
 29 23  1  0  0  0  0
 31 28  1  6  0  0  0
 31 27  1  0  0  0  0
 32 34  2  0  0  0  0
 34 33  1  0  0  0  0
 35 36  1  0  0  0  0
 36 37  1  0  0  0  0
M  END
>  <MODEL>
9

>  <REMARK>
 VINA RESULT:      -3.8      2.311      6.759
  Name = 
  15 active torsions:
  status: ('A' for Active; 'I' for Inactive)
    1  A    between atoms: C_1  and  C_5
    2  A    between atoms: C_1  and  C_23
    3  A    between atoms: C_5  and  C_26
    4  A    between atoms: C_8  and  C_19
    5  A    between atoms: C_9  and  C_13
    6  A    between atoms: C_9  and  C_16
    7  A    between atoms: C_9  and  C_30
    8  A    between atoms: C_10  and  C_29
    9  A    between atoms: C_11  and  C_26
   10  A    between atoms: C_13  and  C_20
   11  A    between atoms: C_16  and  C_24
   12  A    between atoms: C_20  and  C_25
   13  A    between atoms: C_20  and  C_29
   14  A    between atoms: C_27  and  O_33
   15  A    between atoms: C_29  and  O_33
                            x       y       z     vdW  Elec       q    Type
                         _______ _______ _______ _____ _____    ______ ____

>  <TORSDO>
F 15

$$$$
