=
 OpenBabel10262422153D

 43 46  0  0  0  0  0  0  0  0999 V2000
  188.7870  178.4300  138.9720 C   0  0  0  0  0  3  0  0  0  0  0  0
  189.3440  177.4780  139.8300 C   0  0  0  0  0  0  0  0  0  0  0  0
  189.1500  178.4590  137.6220 C   0  0  0  0  0  3  0  0  0  0  0  0
  190.2490  176.5380  139.3240 C   0  0  0  0  0  3  0  0  0  0  0  0
  190.6300  176.5640  137.9740 C   0  0  0  0  0  0  0  0  0  0  0  0
  190.0700  177.5300  137.1260 C   0  0  0  0  0  3  0  0  0  0  0  0
  191.2070  174.5210  136.6230 C   0  0  0  0  0  0  0  0  0  0  0  0
  193.9300  174.7920  137.2890 C   0  0  0  0  0  0  0  0  0  0  0  0
  192.9910  175.7300  137.7690 C   0  0  0  0  0  0  0  0  0  0  0  0
  193.4190  176.8230  138.5150 O   0  0  0  0  0  1  0  0  0  0  0  0
  191.6200  175.5890  137.4560 C   0  0  0  0  0  0  0  0  0  0  0  0
  192.1600  173.6280  136.1170 C   0  0  0  0  0  3  0  0  0  0  0  0
  193.5060  173.7670  136.4430 C   0  0  0  0  0  3  0  0  0  0  0  0
  196.0320  174.1710  138.5880 C   0  0  0  0  0  0  0  0  0  0  0  0
  195.5160  173.1610  139.1360 O   0  0  0  0  0  0  0  0  0  0  0  0
  197.4090  174.5840  138.9630 C   0  0  0  0  0  1  0  0  0  0  0  0
  195.3320  174.8970  137.5720 N   0  0  0  0  0  2  0  0  0  0  0  0
  189.8170  174.3320  136.3280 N   0  0  0  0  0  2  0  0  0  0  0  0
  188.9950  173.2820  136.9150 C   0  0  0  0  0  2  0  0  0  0  0  0
  187.2840  175.1050  136.9510 C   0  0  0  0  0  3  0  0  0  0  0  0
  184.9260  174.6240  137.2700 C   0  0  0  0  0  0  0  0  0  0  0  0
  186.5530  172.8200  137.2700 C   0  0  0  0  0  3  0  0  0  0  0  0
  185.9600  175.5430  137.0570 C   0  0  0  0  0  3  0  0  0  0  0  0
  187.5830  173.7450  137.0610 C   0  0  0  0  0  0  0  0  0  0  0  0
  185.2310  173.2590  137.3760 C   0  0  0  0  0  3  0  0  0  0  0  0
  183.0660  175.6030  138.5740 C   0  0  0  0  0  1  0  0  0  0  0  0
  183.6120  175.0910  137.3660 O   0  0  0  0  0  0  0  0  0  0  0  0
  188.9140  177.4390  141.2600 C   0  0  0  0  0  2  0  0  0  0  0  0
  189.7460  176.5980  142.0080 O   0  0  0  0  0  0  0  0  0  0  0  0
  188.9030  175.9730  142.9320 C   0  0  0  0  0  2  0  0  0  0  0  0
  187.8730  176.9660  143.4460 C   0  0  0  0  0  2  0  0  0  0  0  0
  187.8650  176.9690  144.9070 N   0  0  0  0  0  0  0  0  0  0  0  0
  186.5820  177.4750  145.4200 C   0  0  0  0  0  3  0  0  0  0  0  0
  185.4170  179.0850  147.0100 C   0  0  0  0  0  2  0  0  0  0  0  0
  184.6090  178.9940  144.9160 C   0  0  0  0  0  2  0  0  0  0  0  0
  184.3400  178.6040  146.2420 O   0  0  0  0  0  0  0  0  0  0  0  0
  185.7960  178.2140  144.3270 C   0  0  0  0  0  2  0  0  0  0  0  0
  186.7020  178.2910  146.7250 C   0  0  0  0  0  2  0  0  0  0  0  0
  188.9380  177.8420  145.3640 C   0  0  0  0  0  2  0  0  0  0  0  0
  189.6120  176.6160  147.2610 O   0  0  0  0  0  0  0  0  0  0  0  0
  189.9260  177.0620  146.1680 C   0  0  0  0  0  0  0  0  0  0  0  0
  192.1000  175.8940  147.0240 C   0  0  0  0  0  1  0  0  0  0  0  0
  191.5650  176.7520  145.5150 S   0  0  0  0  0  0  0  0  0  0  0  0
  1  2  1  0  0  0  0
  2 28  1  0  0  0  0
  3  1  2  0  0  0  0
  4  2  2  0  0  0  0
  5  4  1  0  0  0  0
  6  3  1  0  0  0  0
  6  5  2  0  0  0  0
  7 11  1  0  0  0  0
  8 17  1  0  0  0  0
  8  9  1  0  0  0  0
  9 10  1  0  0  0  0
 11  9  2  0  0  0  0
 11  5  1  0  0  0  0
 12 13  1  0  0  0  0
 12  7  2  0  0  0  0
 13  8  2  0  0  0  0
 14 16  1  0  0  0  0
 14 15  2  0  0  0  0
 17 14  1  0  0  0  0
 18  7  1  0  0  0  0
 18 19  1  0  0  0  0
 19 24  1  0  0  0  0
 20 23  2  0  0  0  0
 20 24  1  0  0  0  0
 21 27  1  0  0  0  0
 21 25  2  0  0  0  0
 22 25  1  0  0  0  0
 23 21  1  0  0  0  0
 24 22  2  0  0  0  0
 27 26  1  0  0  0  0
 28 29  1  0  0  0  0
 29 30  1  0  0  0  0
 30 31  1  0  0  0  0
 31 32  1  0  0  0  0
 32 39  1  0  0  0  0
 32 33  1  0  0  0  0
 33 38  1  0  0  0  0
 35 36  1  0  0  0  0
 36 34  1  0  0  0  0
 37 35  1  0  0  0  0
 37 33  1  0  0  0  0
 38 34  1  0  0  0  0
 39 41  1  0  0  0  0
 41 40  2  0  0  0  0
 43 41  1  0  0  0  0
 43 42  1  0  0  0  0
M  END
>  <MODEL>
1

>  <REMARK>
 VINA RESULT:      -8.1      0.000      0.000
  Name = 
  15 active torsions:
  status: ('A' for Active; 'I' for Inactive)
    1  A    between atoms: C_1  and  N_34
    2  A    between atoms: C_1  and  C_35
    3  A    between atoms: C_3  and  C_4
    4  A    between atoms: C_3  and  O_12
    5  A    between atoms: C_4  and  N_14
    6  A    between atoms: C_6  and  C_17
    7  A    between atoms: C_8  and  N_34
    8  A    between atoms: C_11  and  N_14
    9  A    between atoms: O_12  and  C_17
   10  A    between atoms: N_14  and  C_41
   11  A    between atoms: C_16  and  N_23
   12  A    between atoms: C_19  and  O_37
   13  A    between atoms: C_22  and  C_41
   14  A    between atoms: C_22  and  S_42
   15  A    between atoms: C_27  and  C_30
                            x       y       z     vdW  Elec       q    Type
                         _______ _______ _______ _____ _____    ______ ____

>  <TORSDO>
F 15

$$$$
=
 OpenBabel10262422153D

 43 46  0  0  0  0  0  0  0  0999 V2000
  189.4870  178.4940  138.2830 C   0  0  0  0  0  3  0  0  0  0  0  0
  188.7350  177.9050  139.3030 C   0  0  0  0  0  0  0  0  0  0  0  0
  188.8580  178.9660  137.1270 C   0  0  0  0  0  3  0  0  0  0  0  0
  187.3440  177.8120  139.1690 C   0  0  0  0  0  3  0  0  0  0  0  0
  186.7030  178.2710  138.0090 C   0  0  0  0  0  0  0  0  0  0  0  0
  187.4710  178.8530  136.9910 C   0  0  0  0  0  3  0  0  0  0  0  0
  184.6910  177.2370  136.9070 C   0  0  0  0  0  0  0  0  0  0  0  0
  182.9630  178.7520  138.5330 C   0  0  0  0  0  0  0  0  0  0  0  0
  184.3600  178.8740  138.6870 C   0  0  0  0  0  0  0  0  0  0  0  0
  184.8820  179.6910  139.6840 O   0  0  0  0  0  1  0  0  0  0  0  0
  185.2340  178.1320  137.8600 C   0  0  0  0  0  0  0  0  0  0  0  0
  183.3020  177.0940  136.8020 C   0  0  0  0  0  3  0  0  0  0  0  0
  182.4490  177.8400  137.6100 C   0  0  0  0  0  3  0  0  0  0  0  0
  181.5010  179.0280  140.6020 C   0  0  0  0  0  0  0  0  0  0  0  0
  182.0270  178.0690  141.2260 O   0  0  0  0  0  0  0  0  0  0  0  0
  180.3410  179.7400  141.1980 C   0  0  0  0  0  1  0  0  0  0  0  0
  182.0360  179.4770  139.3520 N   0  0  0  0  0  2  0  0  0  0  0  0
  185.5570  176.5070  136.0280 N   0  0  0  0  0  2  0  0  0  0  0  0
  186.1480  175.2150  136.3540 C   0  0  0  0  0  2  0  0  0  0  0  0
  188.2300  175.8240  135.1080 C   0  0  0  0  0  3  0  0  0  0  0  0
  190.4310  175.4740  136.0710 C   0  0  0  0  0  0  0  0  0  0  0  0
  188.4400  174.8420  137.3110 C   0  0  0  0  0  3  0  0  0  0  0  0
  189.6220  175.9170  135.0180 C   0  0  0  0  0  3  0  0  0  0  0  0
  187.6370  175.2830  136.2520 C   0  0  0  0  0  0  0  0  0  0  0  0
  189.8300  174.9350  137.2190 C   0  0  0  0  0  3  0  0  0  0  0  0
  192.6870  175.5790  137.0820 C   0  0  0  0  0  1  0  0  0  0  0  0
  191.8190  175.5850  135.9550 O   0  0  0  0  0  0  0  0  0  0  0  0
  189.4210  177.4420  140.5460 C   0  0  0  0  0  2  0  0  0  0  0  0
  189.0820  178.2530  141.6340 O   0  0  0  0  0  0  0  0  0  0  0  0
  189.5050  177.5470  142.7650 C   0  0  0  0  0  2  0  0  0  0  0  0
  188.3480  176.7420  143.3350 C   0  0  0  0  0  2  0  0  0  0  0  0
  188.1120  177.1200  144.7260 N   0  0  0  0  0  0  0  0  0  0  0  0
  186.9250  177.9840  144.8360 C   0  0  0  0  0  3  0  0  0  0  0  0
  184.5750  178.4800  143.9970 C   0  0  0  0  0  2  0  0  0  0  0  0
  184.8610  178.4960  146.2240 C   0  0  0  0  0  2  0  0  0  0  0  0
  184.6730  179.3350  145.1100 O   0  0  0  0  0  0  0  0  0  0  0  0
  186.2490  177.8340  146.2050 C   0  0  0  0  0  2  0  0  0  0  0  0
  185.9340  177.8460  143.6610 C   0  0  0  0  0  2  0  0  0  0  0  0
  189.2780  177.8510  145.2010 C   0  0  0  0  0  2  0  0  0  0  0  0
  189.4910  176.7970  147.2990 O   0  0  0  0  0  0  0  0  0  0  0  0
  190.0110  177.0400  146.2210 C   0  0  0  0  0  0  0  0  0  0  0  0
  191.9880  176.0260  147.5930 C   0  0  0  0  0  1  0  0  0  0  0  0
  191.6410  176.3980  145.8490 S   0  0  0  0  0  0  0  0  0  0  0  0
  1  2  1  0  0  0  0
  2 28  1  0  0  0  0
  3  1  2  0  0  0  0
  4  2  2  0  0  0  0
  5  4  1  0  0  0  0
  6  3  1  0  0  0  0
  6  5  2  0  0  0  0
  7 11  1  0  0  0  0
  8  9  1  0  0  0  0
  8 17  1  0  0  0  0
  9 10  1  0  0  0  0
 11  5  1  0  0  0  0
 11  9  2  0  0  0  0
 12  7  2  0  0  0  0
 12 13  1  0  0  0  0
 13  8  2  0  0  0  0
 14 16  1  0  0  0  0
 14 15  2  0  0  0  0
 17 14  1  0  0  0  0
 18 19  1  0  0  0  0
 18  7  1  0  0  0  0
 20 24  1  0  0  0  0
 21 25  2  0  0  0  0
 23 20  2  0  0  0  0
 23 21  1  0  0  0  0
 24 19  1  0  0  0  0
 24 22  2  0  0  0  0
 25 22  1  0  0  0  0
 27 21  1  0  0  0  0
 27 26  1  0  0  0  0
 28 29  1  0  0  0  0
 29 30  1  0  0  0  0
 30 31  1  0  0  0  0
 31 32  1  0  0  0  0
 32 33  1  0  0  0  0
 32 39  1  0  0  0  0
 33 37  1  0  0  0  0
 34 36  1  0  0  0  0
 36 35  1  0  0  0  0
 37 35  1  0  0  0  0
 38 34  1  0  0  0  0
 38 33  1  0  0  0  0
 39 41  1  0  0  0  0
 41 40  2  0  0  0  0
 43 41  1  0  0  0  0
 43 42  1  0  0  0  0
M  END
>  <MODEL>
2

>  <REMARK>
 VINA RESULT:      -7.8      2.648      6.772
  Name = 
  15 active torsions:
  status: ('A' for Active; 'I' for Inactive)
    1  A    between atoms: C_1  and  N_34
    2  A    between atoms: C_1  and  C_35
    3  A    between atoms: C_3  and  C_4
    4  A    between atoms: C_3  and  O_12
    5  A    between atoms: C_4  and  N_14
    6  A    between atoms: C_6  and  C_17
    7  A    between atoms: C_8  and  N_34
    8  A    between atoms: C_11  and  N_14
    9  A    between atoms: O_12  and  C_17
   10  A    between atoms: N_14  and  C_41
   11  A    between atoms: C_16  and  N_23
   12  A    between atoms: C_19  and  O_37
   13  A    between atoms: C_22  and  C_41
   14  A    between atoms: C_22  and  S_42
   15  A    between atoms: C_27  and  C_30
                            x       y       z     vdW  Elec       q    Type
                         _______ _______ _______ _____ _____    ______ ____

>  <TORSDO>
F 15

$$$$
=
 OpenBabel10262422153D

 43 46  0  0  0  0  0  0  0  0999 V2000
  189.3820  177.2730  140.3620 C   0  0  0  0  0  3  0  0  0  0  0  0
  188.3330  177.9250  141.0150 C   0  0  0  0  0  0  0  0  0  0  0  0
  190.3860  176.6410  141.1000 C   0  0  0  0  0  3  0  0  0  0  0  0
  188.2810  177.9200  142.4140 C   0  0  0  0  0  3  0  0  0  0  0  0
  189.2890  177.2980  143.1660 C   0  0  0  0  0  0  0  0  0  0  0  0
  190.3400  176.6550  142.4970 C   0  0  0  0  0  3  0  0  0  0  0  0
  188.0120  177.4710  145.3270 C   0  0  0  0  0  0  0  0  0  0  0  0
  190.3970  177.2500  146.8090 C   0  0  0  0  0  0  0  0  0  0  0  0
  190.4370  177.2020  145.3990 C   0  0  0  0  0  0  0  0  0  0  0  0
  191.6440  176.9780  144.7450 O   0  0  0  0  0  1  0  0  0  0  0  0
  189.2460  177.3320  144.6480 C   0  0  0  0  0  0  0  0  0  0  0  0
  187.9870  177.4690  146.7280 C   0  0  0  0  0  3  0  0  0  0  0  0
  189.1660  177.3550  147.4580 C   0  0  0  0  0  3  0  0  0  0  0  0
  192.2840  175.8930  147.8530 C   0  0  0  0  0  0  0  0  0  0  0  0
  192.0860  174.8770  147.1370 O   0  0  0  0  0  0  0  0  0  0  0  0
  193.3070  175.8420  148.9290 C   0  0  0  0  0  1  0  0  0  0  0  0
  191.5750  177.1140  147.6140 N   0  0  0  0  0  2  0  0  0  0  0  0
  186.7970  177.6500  144.5870 N   0  0  0  0  0  2  0  0  0  0  0  0
  185.6620  178.4310  145.0610 C   0  0  0  0  0  2  0  0  0  0  0  0
  183.3060  178.9030  144.3650 C   0  0  0  0  0  3  0  0  0  0  0  0
  182.5860  178.6310  142.0630 C   0  0  0  0  0  0  0  0  0  0  0  0
  184.8790  178.1350  142.6930 C   0  0  0  0  0  3  0  0  0  0  0  0
  182.3070  178.9760  143.3910 C   0  0  0  0  0  3  0  0  0  0  0  0
  184.5920  178.4790  144.0200 C   0  0  0  0  0  0  0  0  0  0  0  0
  183.8800  178.2090  141.7210 C   0  0  0  0  0  3  0  0  0  0  0  0
  180.5460  179.7060  141.1680 C   0  0  0  0  0  1  0  0  0  0  0  0
  181.5690  178.7210  141.1090 O   0  0  0  0  0  0  0  0  0  0  0  0
  187.2490  178.5620  140.2080 C   0  0  0  0  0  2  0  0  0  0  0  0
  187.6490  178.7250  138.8770 O   0  0  0  0  0  0  0  0  0  0  0  0
  186.7020  178.0270  138.1210 C   0  0  0  0  0  2  0  0  0  0  0  0
  187.3690  177.3970  136.9090 C   0  0  0  0  0  2  0  0  0  0  0  0
  187.3560  175.9410  137.0290 N   0  0  0  0  0  0  0  0  0  0  0  0
  188.6950  175.4350  137.3720 C   0  0  0  0  0  3  0  0  0  0  0  0
  190.4660  173.6580  136.9480 C   0  0  0  0  0  2  0  0  0  0  0  0
  191.1870  175.7830  137.0280 C   0  0  0  0  0  2  0  0  0  0  0  0
  191.1630  174.5770  137.7540 O   0  0  0  0  0  0  0  0  0  0  0  0
  189.7910  176.4220  136.9470 C   0  0  0  0  0  2  0  0  0  0  0  0
  188.9680  173.9940  136.8890 C   0  0  0  0  0  2  0  0  0  0  0  0
  186.9520  175.3840  135.7460 C   0  0  0  0  0  2  0  0  0  0  0  0
  184.6080  175.5840  135.9050 O   0  0  0  0  0  0  0  0  0  0  0  0
  185.5670  174.8300  135.8410 C   0  0  0  0  0  0  0  0  0  0  0  0
  185.3890  172.9480  137.6440 C   0  0  0  0  0  1  0  0  0  0  0  0
  185.3100  173.0570  135.8330 S   0  0  0  0  0  0  0  0  0  0  0  0
  1  2  2  0  0  0  0
  1  3  1  0  0  0  0
  2  4  1  0  0  0  0
  3  6  2  0  0  0  0
  4  5  2  0  0  0  0
  5 11  1  0  0  0  0
  6  5  1  0  0  0  0
  7 12  1  0  0  0  0
  8 13  1  0  0  0  0
  8 17  1  0  0  0  0
  9  8  2  0  0  0  0
 10  9  1  0  0  0  0
 11  7  2  0  0  0  0
 11  9  1  0  0  0  0
 12 13  2  0  0  0  0
 14 16  1  0  0  0  0
 15 14  2  0  0  0  0
 17 14  1  0  0  0  0
 18 19  1  0  0  0  0
 18  7  1  0  0  0  0
 21 23  1  0  0  0  0
 22 24  2  0  0  0  0
 23 20  2  0  0  0  0
 24 20  1  0  0  0  0
 24 19  1  0  0  0  0
 25 21  2  0  0  0  0
 25 22  1  0  0  0  0
 27 26  1  0  0  0  0
 27 21  1  0  0  0  0
 28  2  1  0  0  0  0
 29 28  1  0  0  0  0
 30 29  1  0  0  0  0
 31 32  1  0  0  0  0
 31 30  1  0  0  0  0
 32 33  1  0  0  0  0
 34 36  1  0  0  0  0
 35 36  1  0  0  0  0
 37 35  1  0  0  0  0
 37 33  1  0  0  0  0
 38 34  1  0  0  0  0
 38 33  1  0  0  0  0
 39 41  1  0  0  0  0
 39 32  1  0  0  0  0
 41 40  2  0  0  0  0
 43 41  1  0  0  0  0
 43 42  1  0  0  0  0
M  END
>  <MODEL>
3

>  <REMARK>
 VINA RESULT:      -7.4      3.301      8.807
  Name = 
  15 active torsions:
  status: ('A' for Active; 'I' for Inactive)
    1  A    between atoms: C_1  and  N_34
    2  A    between atoms: C_1  and  C_35
    3  A    between atoms: C_3  and  C_4
    4  A    between atoms: C_3  and  O_12
    5  A    between atoms: C_4  and  N_14
    6  A    between atoms: C_6  and  C_17
    7  A    between atoms: C_8  and  N_34
    8  A    between atoms: C_11  and  N_14
    9  A    between atoms: O_12  and  C_17
   10  A    between atoms: N_14  and  C_41
   11  A    between atoms: C_16  and  N_23
   12  A    between atoms: C_19  and  O_37
   13  A    between atoms: C_22  and  C_41
   14  A    between atoms: C_22  and  S_42
   15  A    between atoms: C_27  and  C_30
                            x       y       z     vdW  Elec       q    Type
                         _______ _______ _______ _____ _____    ______ ____

>  <TORSDO>
F 15

$$$$
=
 OpenBabel10262422153D

 43 46  0  0  0  0  0  0  0  0999 V2000
  189.0400  178.3680  138.3980 C   0  0  0  0  0  3  0  0  0  0  0  0
  189.6490  177.5250  139.3310 C   0  0  0  0  0  0  0  0  0  0  0  0
  189.3000  178.2110  137.0330 C   0  0  0  0  0  3  0  0  0  0  0  0
  190.5040  176.5090  138.8890 C   0  0  0  0  0  3  0  0  0  0  0  0
  190.7810  176.3490  137.5230 C   0  0  0  0  0  0  0  0  0  0  0  0
  190.1690  177.2070  136.5990 C   0  0  0  0  0  3  0  0  0  0  0  0
  191.2380  174.1560  136.3770 C   0  0  0  0  0  0  0  0  0  0  0  0
  193.9960  174.4140  136.8780 C   0  0  0  0  0  0  0  0  0  0  0  0
  193.1070  175.4260  137.2980 C   0  0  0  0  0  0  0  0  0  0  0  0
  193.6000  176.5800  137.8980 O   0  0  0  0  0  1  0  0  0  0  0  0
  191.7190  175.2940  137.0680 C   0  0  0  0  0  0  0  0  0  0  0  0
  192.1400  173.1840  135.9260 C   0  0  0  0  0  3  0  0  0  0  0  0
  193.5040  173.3160  136.1700 C   0  0  0  0  0  3  0  0  0  0  0  0
  196.1180  174.0600  138.2450 C   0  0  0  0  0  0  0  0  0  0  0  0
  195.5740  173.2870  139.0760 O   0  0  0  0  0  0  0  0  0  0  0  0
  197.5300  174.4750  138.4460 C   0  0  0  0  0  1  0  0  0  0  0  0
  195.4130  174.5050  137.0810 N   0  0  0  0  0  2  0  0  0  0  0  0
  189.8290  173.9790  136.1720 N   0  0  0  0  0  2  0  0  0  0  0  0
  188.9930  173.0970  136.9760 C   0  0  0  0  0  2  0  0  0  0  0  0
  186.5290  172.7160  137.1700 C   0  0  0  0  0  3  0  0  0  0  0  0
  184.9580  174.5660  137.1830 C   0  0  0  0  0  0  0  0  0  0  0  0
  187.3400  174.9870  136.9670 C   0  0  0  0  0  3  0  0  0  0  0  0
  185.2170  173.1920  137.2460 C   0  0  0  0  0  3  0  0  0  0  0  0
  187.5920  173.6110  137.0260 C   0  0  0  0  0  0  0  0  0  0  0  0
  186.0290  175.4620  137.0420 C   0  0  0  0  0  3  0  0  0  0  0  0
  183.1410  175.7370  138.3870 C   0  0  0  0  0  1  0  0  0  0  0  0
  183.6360  175.0130  137.2680 O   0  0  0  0  0  0  0  0  0  0  0  0
  189.3290  177.6840  140.7820 C   0  0  0  0  0  2  0  0  0  0  0  0
  187.9820  177.3970  141.0290 O   0  0  0  0  0  0  0  0  0  0  0  0
  187.6610  178.1100  142.1890 C   0  0  0  0  0  2  0  0  0  0  0  0
  187.7780  177.2030  143.4030 C   0  0  0  0  0  2  0  0  0  0  0  0
  187.8480  178.0050  144.6220 N   0  0  0  0  0  0  0  0  0  0  0  0
  189.1560  177.8420  145.2780 C   0  0  0  0  0  3  0  0  0  0  0  0
  190.4420  176.8400  147.2310 C   0  0  0  0  0  2  0  0  0  0  0  0
  191.3670  176.5930  145.1990 C   0  0  0  0  0  2  0  0  0  0  0  0
  191.4830  177.3070  146.4070 O   0  0  0  0  0  0  0  0  0  0  0  0
  190.1170  177.0180  144.4100 C   0  0  0  0  0  2  0  0  0  0  0  0
  189.0740  177.3290  146.7310 C   0  0  0  0  0  2  0  0  0  0  0  0
  186.8030  177.5460  145.5270 C   0  0  0  0  0  2  0  0  0  0  0  0
  185.5610  179.0340  146.8680 O   0  0  0  0  0  0  0  0  0  0  0  0
  185.7970  178.6310  145.7400 C   0  0  0  0  0  0  0  0  0  0  0  0
  183.3180  178.9070  144.9660 C   0  0  0  0  0  1  0  0  0  0  0  0
  184.9600  179.3620  144.3350 S   0  0  0  0  0  0  0  0  0  0  0  0
  1  2  1  0  0  0  0
  2 28  1  0  0  0  0
  3  1  2  0  0  0  0
  4  2  2  0  0  0  0
  5  4  1  0  0  0  0
  6  3  1  0  0  0  0
  6  5  2  0  0  0  0
  7 11  1  0  0  0  0
  8 17  1  0  0  0  0
  8  9  1  0  0  0  0
  9 10  1  0  0  0  0
 11  9  2  0  0  0  0
 11  5  1  0  0  0  0
 12 13  1  0  0  0  0
 12  7  2  0  0  0  0
 13  8  2  0  0  0  0
 14 16  1  0  0  0  0
 14 15  2  0  0  0  0
 17 14  1  0  0  0  0
 18  7  1  0  0  0  0
 18 19  1  0  0  0  0
 19 24  1  0  0  0  0
 20 23  1  0  0  0  0
 21 23  2  0  0  0  0
 21 27  1  0  0  0  0
 22 24  1  0  0  0  0
 22 25  2  0  0  0  0
 24 20  2  0  0  0  0
 25 21  1  0  0  0  0
 27 26  1  0  0  0  0
 28 29  1  0  0  0  0
 29 30  1  0  0  0  0
 30 31  1  0  0  0  0
 31 32  1  0  0  0  0
 32 33  1  0  0  0  0
 32 39  1  0  0  0  0
 33 38  1  0  0  0  0
 35 36  1  0  0  0  0
 36 34  1  0  0  0  0
 37 35  1  0  0  0  0
 37 33  1  0  0  0  0
 38 34  1  0  0  0  0
 39 41  1  0  0  0  0
 41 40  2  0  0  0  0
 43 42  1  0  0  0  0
 43 41  1  0  0  0  0
M  END
>  <MODEL>
4

>  <REMARK>
 VINA RESULT:      -7.4      1.414      3.046
  Name = 
  15 active torsions:
  status: ('A' for Active; 'I' for Inactive)
    1  A    between atoms: C_1  and  N_34
    2  A    between atoms: C_1  and  C_35
    3  A    between atoms: C_3  and  C_4
    4  A    between atoms: C_3  and  O_12
    5  A    between atoms: C_4  and  N_14
    6  A    between atoms: C_6  and  C_17
    7  A    between atoms: C_8  and  N_34
    8  A    between atoms: C_11  and  N_14
    9  A    between atoms: O_12  and  C_17
   10  A    between atoms: N_14  and  C_41
   11  A    between atoms: C_16  and  N_23
   12  A    between atoms: C_19  and  O_37
   13  A    between atoms: C_22  and  C_41
   14  A    between atoms: C_22  and  S_42
   15  A    between atoms: C_27  and  C_30
                            x       y       z     vdW  Elec       q    Type
                         _______ _______ _______ _____ _____    ______ ____

>  <TORSDO>
F 15

$$$$
=
 OpenBabel10262422153D

 43 46  0  0  0  0  0  0  0  0999 V2000
  189.6750  178.4030  137.9130 C   0  0  0  0  0  3  0  0  0  0  0  0
  189.0700  177.3990  138.6730 C   0  0  0  0  0  0  0  0  0  0  0  0
  188.9720  179.0210  136.8750 C   0  0  0  0  0  3  0  0  0  0  0  0
  187.7470  177.0300  138.4010 C   0  0  0  0  0  3  0  0  0  0  0  0
  187.0350  177.6340  137.3540 C   0  0  0  0  0  0  0  0  0  0  0  0
  187.6570  178.6350  136.5960 C   0  0  0  0  0  3  0  0  0  0  0  0
  185.4000  176.2040  136.0840 C   0  0  0  0  0  0  0  0  0  0  0  0
  183.2360  177.3930  137.4370 C   0  0  0  0  0  0  0  0  0  0  0  0
  184.5570  177.7870  137.7390 C   0  0  0  0  0  0  0  0  0  0  0  0
  184.7920  178.7120  138.7510 O   0  0  0  0  0  1  0  0  0  0  0  0
  185.6470  177.2090  137.0500 C   0  0  0  0  0  0  0  0  0  0  0  0
  184.0860  175.7920  135.8310 C   0  0  0  0  0  3  0  0  0  0  0  0
  183.0180  176.3770  136.5050 C   0  0  0  0  0  3  0  0  0  0  0  0
  181.4040  177.3320  139.2070 C   0  0  0  0  0  0  0  0  0  0  0  0
  181.9180  176.3800  139.8510 O   0  0  0  0  0  0  0  0  0  0  0  0
  180.0800  177.8650  139.6200 C   0  0  0  0  0  1  0  0  0  0  0  0
  182.0980  177.9430  138.1140 N   0  0  0  0  0  2  0  0  0  0  0  0
  186.4870  175.6360  135.3400 N   0  0  0  0  0  2  0  0  0  0  0  0
  187.1800  174.4110  135.7180 C   0  0  0  0  0  2  0  0  0  0  0  0
  189.2830  175.6370  135.1450 C   0  0  0  0  0  3  0  0  0  0  0  0
  191.3520  175.2360  136.3500 C   0  0  0  0  0  0  0  0  0  0  0  0
  189.3410  174.0000  136.9270 C   0  0  0  0  0  3  0  0  0  0  0  0
  190.6370  175.9130  135.3550 C   0  0  0  0  0  3  0  0  0  0  0  0
  188.6340  174.6790  135.9270 C   0  0  0  0  0  0  0  0  0  0  0  0
  190.6940  174.2770  137.1360 C   0  0  0  0  0  3  0  0  0  0  0  0
  193.4620  175.0100  137.6210 C   0  0  0  0  0  1  0  0  0  0  0  0
  192.7030  175.5380  136.5420 O   0  0  0  0  0  0  0  0  0  0  0  0
  189.8250  176.7780  139.8030 C   0  0  0  0  0  2  0  0  0  0  0  0
  189.9870  177.6870  140.8530 O   0  0  0  0  0  0  0  0  0  0  0  0
  189.7650  176.9460  142.0190 C   0  0  0  0  0  2  0  0  0  0  0  0
  189.8490  177.8560  143.2340 C   0  0  0  0  0  2  0  0  0  0  0  0
  188.5590  177.8990  143.9180 N   0  0  0  0  0  0  0  0  0  0  0  0
  188.6610  177.3010  145.2590 C   0  0  0  0  0  3  0  0  0  0  0  0
  190.1010  176.9660  147.3300 C   0  0  0  0  0  2  0  0  0  0  0  0
  187.9590  177.5400  147.6880 C   0  0  0  0  0  2  0  0  0  0  0  0
  188.8580  176.4580  147.7540 O   0  0  0  0  0  0  0  0  0  0  0  0
  187.6620  177.9400  146.2340 C   0  0  0  0  0  2  0  0  0  0  0  0
  190.0980  177.2540  145.8210 C   0  0  0  0  0  2  0  0  0  0  0  0
  187.6020  177.1360  143.1290 C   0  0  0  0  0  2  0  0  0  0  0  0
  186.6470  178.5610  141.5120 O   0  0  0  0  0  0  0  0  0  0  0  0
  186.5300  178.0390  142.6100 C   0  0  0  0  0  0  0  0  0  0  0  0
  184.0000  178.4590  142.1160 C   0  0  0  0  0  1  0  0  0  0  0  0
  185.0590  178.3340  143.5870 S   0  0  0  0  0  0  0  0  0  0  0  0
  1  2  1  0  0  0  0
  2 28  1  0  0  0  0
  3  1  2  0  0  0  0
  4  2  2  0  0  0  0
  5  4  1  0  0  0  0
  6  3  1  0  0  0  0
  6  5  2  0  0  0  0
  7 11  1  0  0  0  0
  8  9  1  0  0  0  0
  8 17  1  0  0  0  0
  9 10  1  0  0  0  0
 11  5  1  0  0  0  0
 11  9  2  0  0  0  0
 12  7  2  0  0  0  0
 12 13  1  0  0  0  0
 13  8  2  0  0  0  0
 14 16  1  0  0  0  0
 14 15  2  0  0  0  0
 17 14  1  0  0  0  0
 18 19  1  0  0  0  0
 18  7  1  0  0  0  0
 19 24  1  0  0  0  0
 20 23  2  0  0  0  0
 20 24  1  0  0  0  0
 21 27  1  0  0  0  0
 21 25  2  0  0  0  0
 22 25  1  0  0  0  0
 23 21  1  0  0  0  0
 24 22  2  0  0  0  0
 27 26  1  0  0  0  0
 28 29  1  0  0  0  0
 29 30  1  0  0  0  0
 30 31  1  0  0  0  0
 31 32  1  0  0  0  0
 32 33  1  0  0  0  0
 33 38  1  0  0  0  0
 33 37  1  0  0  0  0
 34 36  1  0  0  0  0
 35 36  1  0  0  0  0
 37 35  1  0  0  0  0
 38 34  1  0  0  0  0
 39 32  1  0  0  0  0
 40 41  2  0  0  0  0
 41 39  1  0  0  0  0
 41 43  1  0  0  0  0
 42 43  1  0  0  0  0
M  END
>  <MODEL>
5

>  <REMARK>
 VINA RESULT:      -7.3      2.729      7.080
  Name = 
  15 active torsions:
  status: ('A' for Active; 'I' for Inactive)
    1  A    between atoms: C_1  and  N_34
    2  A    between atoms: C_1  and  C_35
    3  A    between atoms: C_3  and  C_4
    4  A    between atoms: C_3  and  O_12
    5  A    between atoms: C_4  and  N_14
    6  A    between atoms: C_6  and  C_17
    7  A    between atoms: C_8  and  N_34
    8  A    between atoms: C_11  and  N_14
    9  A    between atoms: O_12  and  C_17
   10  A    between atoms: N_14  and  C_41
   11  A    between atoms: C_16  and  N_23
   12  A    between atoms: C_19  and  O_37
   13  A    between atoms: C_22  and  C_41
   14  A    between atoms: C_22  and  S_42
   15  A    between atoms: C_27  and  C_30
                            x       y       z     vdW  Elec       q    Type
                         _______ _______ _______ _____ _____    ______ ____

>  <TORSDO>
F 15

$$$$
=
 OpenBabel10262422153D

 43 46  0  0  0  0  0  0  0  0999 V2000
  182.6420  179.1160  143.9580 C   0  0  0  0  0  3  0  0  0  0  0  0
  182.7270  178.6580  142.6400 C   0  0  0  0  0  0  0  0  0  0  0  0
  183.8010  179.2900  144.7190 C   0  0  0  0  0  3  0  0  0  0  0  0
  183.9830  178.3970  142.0800 C   0  0  0  0  0  3  0  0  0  0  0  0
  185.1530  178.5580  142.8370 C   0  0  0  0  0  0  0  0  0  0  0  0
  185.0520  179.0100  144.1600 C   0  0  0  0  0  3  0  0  0  0  0  0
  187.4510  177.5460  143.0030 C   0  0  0  0  0  0  0  0  0  0  0  0
  188.0350  178.3220  140.3600 C   0  0  0  0  0  0  0  0  0  0  0  0
  186.7700  178.6100  140.9150 C   0  0  0  0  0  0  0  0  0  0  0  0
  185.7900  179.2160  140.1350 O   0  0  0  0  0  1  0  0  0  0  0  0
  186.4760  178.2410  142.2480 C   0  0  0  0  0  0  0  0  0  0  0  0
  188.6840  177.2270  142.4200 C   0  0  0  0  0  3  0  0  0  0  0  0
  188.9680  177.6070  141.1120 C   0  0  0  0  0  3  0  0  0  0  0  0
  188.4070  177.7630  137.9020 C   0  0  0  0  0  0  0  0  0  0  0  0
  187.8560  176.6330  137.9710 O   0  0  0  0  0  0  0  0  0  0  0  0
  189.0530  178.1860  136.6330 C   0  0  0  0  0  1  0  0  0  0  0  0
  188.3770  178.6670  139.0110 N   0  0  0  0  0  2  0  0  0  0  0  0
  187.1930  177.2010  144.3710 N   0  0  0  0  0  2  0  0  0  0  0  0
  187.6660  177.9770  145.5100 C   0  0  0  0  0  2  0  0  0  0  0  0
  189.0390  176.7750  147.2200 C   0  0  0  0  0  3  0  0  0  0  0  0
  191.4130  176.3860  146.8940 C   0  0  0  0  0  0  0  0  0  0  0  0
  190.1280  177.5810  145.2140 C   0  0  0  0  0  3  0  0  0  0  0  0
  190.2540  176.2500  147.6680 C   0  0  0  0  0  3  0  0  0  0  0  0
  188.9740  177.4450  145.9960 C   0  0  0  0  0  0  0  0  0  0  0  0
  191.3410  177.0560  145.6630 C   0  0  0  0  0  3  0  0  0  0  0  0
  193.0410  175.9840  148.7120 C   0  0  0  0  0  1  0  0  0  0  0  0
  192.6120  175.8440  147.3640 O   0  0  0  0  0  0  0  0  0  0  0  0
  181.4800  178.5150  141.8310 C   0  0  0  0  0  2  0  0  0  0  0  0
  181.3750  179.5440  140.8900 O   0  0  0  0  0  0  0  0  0  0  0  0
  180.0080  179.8280  140.8060 C   0  0  0  0  0  2  0  0  0  0  0  0
  179.5070  179.5490  139.3980 C   0  0  0  0  0  2  0  0  0  0  0  0
  180.5570  179.8430  138.4250 N   0  0  0  0  0  0  0  0  0  0  0  0
  180.2790  181.1090  137.7270 C   0  0  0  0  0  3  0  0  0  0  0  0
  181.0860  183.4630  137.1990 C   0  0  0  0  0  2  0  0  0  0  0  0
  180.2940  182.2700  135.4680 C   0  0  0  0  0  2  0  0  0  0  0  0
  179.9810  183.3340  136.3360 O   0  0  0  0  0  0  0  0  0  0  0  0
  180.2870  180.9200  136.2030 C   0  0  0  0  0  2  0  0  0  0  0  0
  181.1600  182.2890  138.1880 C   0  0  0  0  0  2  0  0  0  0  0  0
  180.5880  178.7600  137.4510 C   0  0  0  0  0  2  0  0  0  0  0  0
  182.8340  178.1130  137.7560 O   0  0  0  0  0  0  0  0  0  0  0  0
  181.6600  177.7820  137.8090 C   0  0  0  0  0  0  0  0  0  0  0  0
  182.6800  175.9950  139.4180 C   0  0  0  0  0  1  0  0  0  0  0  0
  181.2210  176.1300  138.3450 S   0  0  0  0  0  0  0  0  0  0  0  0
  1  3  1  0  0  0  0
  2  1  2  0  0  0  0
  4  2  1  0  0  0  0
  4  5  2  0  0  0  0
  5  6  1  0  0  0  0
  6  3  2  0  0  0  0
  7 18  1  0  0  0  0
  8  9  2  0  0  0  0
  8 13  1  0  0  0  0
  9 11  1  0  0  0  0
 10  9  1  0  0  0  0
 11  5  1  0  0  0  0
 11  7  2  0  0  0  0
 12  7  1  0  0  0  0
 13 12  2  0  0  0  0
 14 15  2  0  0  0  0
 14 17  1  0  0  0  0
 16 14  1  0  0  0  0
 17  8  1  0  0  0  0
 18 19  1  0  0  0  0
 19 24  1  0  0  0  0
 20 23  1  0  0  0  0
 21 27  1  0  0  0  0
 21 23  2  0  0  0  0
 22 25  2  0  0  0  0
 22 24  1  0  0  0  0
 24 20  2  0  0  0  0
 25 21  1  0  0  0  0
 27 26  1  0  0  0  0
 28  2  1  0  0  0  0
 29 28  1  0  0  0  0
 30 29  1  0  0  0  0
 31 30  1  0  0  0  0
 32 31  1  0  0  0  0
 33 38  1  0  0  0  0
 33 32  1  0  0  0  0
 34 38  1  0  0  0  0
 35 37  1  0  0  0  0
 35 36  1  0  0  0  0
 36 34  1  0  0  0  0
 37 33  1  0  0  0  0
 39 41  1  0  0  0  0
 39 32  1  0  0  0  0
 40 41  2  0  0  0  0
 41 43  1  0  0  0  0
 43 42  1  0  0  0  0
M  END
>  <MODEL>
6

>  <REMARK>
 VINA RESULT:      -7.3      4.584      9.920
  Name = 
  15 active torsions:
  status: ('A' for Active; 'I' for Inactive)
    1  A    between atoms: C_1  and  N_34
    2  A    between atoms: C_1  and  C_35
    3  A    between atoms: C_3  and  C_4
    4  A    between atoms: C_3  and  O_12
    5  A    between atoms: C_4  and  N_14
    6  A    between atoms: C_6  and  C_17
    7  A    between atoms: C_8  and  N_34
    8  A    between atoms: C_11  and  N_14
    9  A    between atoms: O_12  and  C_17
   10  A    between atoms: N_14  and  C_41
   11  A    between atoms: C_16  and  N_23
   12  A    between atoms: C_19  and  O_37
   13  A    between atoms: C_22  and  C_41
   14  A    between atoms: C_22  and  S_42
   15  A    between atoms: C_27  and  C_30
                            x       y       z     vdW  Elec       q    Type
                         _______ _______ _______ _____ _____    ______ ____

>  <TORSDO>
F 15

$$$$
=
 OpenBabel10262422153D

 43 46  0  0  0  0  0  0  0  0999 V2000
  189.0860  177.3210  140.1860 C   0  0  0  0  0  3  0  0  0  0  0  0
  188.0520  177.9370  140.8960 C   0  0  0  0  0  0  0  0  0  0  0  0
  190.1560  176.7350  140.8680 C   0  0  0  0  0  3  0  0  0  0  0  0
  188.0850  177.9440  142.2960 C   0  0  0  0  0  3  0  0  0  0  0  0
  189.1590  177.3700  142.9910 C   0  0  0  0  0  0  0  0  0  0  0  0
  190.1930  176.7620  142.2650 C   0  0  0  0  0  3  0  0  0  0  0  0
  188.0200  177.6240  145.2200 C   0  0  0  0  0  0  0  0  0  0  0  0
  190.4720  177.2920  146.5640 C   0  0  0  0  0  0  0  0  0  0  0  0
  190.4280  177.2310  145.1550 C   0  0  0  0  0  0  0  0  0  0  0  0
  191.5820  176.9410  144.4350 O   0  0  0  0  0  1  0  0  0  0  0  0
  189.2040  177.4170  144.4720 C   0  0  0  0  0  0  0  0  0  0  0  0
  188.0750  177.6340  146.6190 C   0  0  0  0  0  3  0  0  0  0  0  0
  189.2870  177.4640  147.2820 C   0  0  0  0  0  3  0  0  0  0  0  0
  192.1580  175.8530  147.8220 C   0  0  0  0  0  0  0  0  0  0  0  0
  191.6750  174.7610  147.4230 O   0  0  0  0  0  0  0  0  0  0  0  0
  193.2710  175.8460  148.8050 C   0  0  0  0  0  1  0  0  0  0  0  0
  191.6860  177.1010  147.3020 N   0  0  0  0  0  2  0  0  0  0  0  0
  186.7750  177.8600  144.5490 N   0  0  0  0  0  2  0  0  0  0  0  0
  185.6800  178.6370  145.1130 C   0  0  0  0  0  2  0  0  0  0  0  0
  183.2310  178.9080  144.6810 C   0  0  0  0  0  3  0  0  0  0  0  0
  182.3080  178.7000  142.4460 C   0  0  0  0  0  0  0  0  0  0  0  0
  184.6900  178.4030  142.8170 C   0  0  0  0  0  3  0  0  0  0  0  0
  182.1350  178.9370  143.8140 C   0  0  0  0  0  3  0  0  0  0  0  0
  184.5090  178.6370  144.1860 C   0  0  0  0  0  0  0  0  0  0  0  0
  183.5940  178.4320  141.9520 C   0  0  0  0  0  3  0  0  0  0  0  0
  180.1920  179.7450  141.7040 C   0  0  0  0  0  1  0  0  0  0  0  0
  181.1940  178.7420  141.6020 O   0  0  0  0  0  0  0  0  0  0  0  0
  186.8980  178.5240  140.1510 C   0  0  0  0  0  2  0  0  0  0  0  0
  187.2090  178.6860  138.7970 O   0  0  0  0  0  0  0  0  0  0  0  0
  186.1310  178.1270  138.1030 C   0  0  0  0  0  2  0  0  0  0  0  0
  184.8380  178.3850  138.8600 C   0  0  0  0  0  2  0  0  0  0  0  0
  183.7170  177.7560  138.1660 N   0  0  0  0  0  0  0  0  0  0  0  0
  182.5260  178.6210  138.2120 C   0  0  0  0  0  3  0  0  0  0  0  0
  181.6310  180.9890  138.4710 C   0  0  0  0  0  2  0  0  0  0  0  0
  180.7460  179.7650  136.8080 C   0  0  0  0  0  2  0  0  0  0  0  0
  180.4760  180.2810  138.0900 O   0  0  0  0  0  0  0  0  0  0  0  0
  181.8030  178.6500  136.8580 C   0  0  0  0  0  2  0  0  0  0  0  0
  182.7940  180.0320  138.7780 C   0  0  0  0  0  2  0  0  0  0  0  0
  183.4170  176.4980  138.8350 C   0  0  0  0  0  2  0  0  0  0  0  0
  182.3160  174.8510  137.5580 O   0  0  0  0  0  0  0  0  0  0  0  0
  183.3780  175.3850  137.8390 C   0  0  0  0  0  0  0  0  0  0  0  0
  184.7570  173.1710  137.7070 C   0  0  0  0  0  1  0  0  0  0  0  0
  184.8860  174.8530  137.0330 S   0  0  0  0  0  0  0  0  0  0  0  0
  1  3  2  0  0  0  0
  1  2  1  0  0  0  0
  2  4  2  0  0  0  0
  3  6  1  0  0  0  0
  4  5  1  0  0  0  0
  5 11  1  0  0  0  0
  6  5  2  0  0  0  0
  7 12  1  0  0  0  0
  8 13  1  0  0  0  0
  8 17  1  0  0  0  0
  9  8  2  0  0  0  0
 10  9  1  0  0  0  0
 11  9  1  0  0  0  0
 11  7  2  0  0  0  0
 12 13  2  0  0  0  0
 14 16  1  0  0  0  0
 15 14  2  0  0  0  0
 17 14  1  0  0  0  0
 18 19  1  0  0  0  0
 18  7  1  0  0  0  0
 21 23  1  0  0  0  0
 22 24  2  0  0  0  0
 23 20  2  0  0  0  0
 24 20  1  0  0  0  0
 24 19  1  0  0  0  0
 25 21  2  0  0  0  0
 25 22  1  0  0  0  0
 27 26  1  0  0  0  0
 27 21  1  0  0  0  0
 28  2  1  0  0  0  0
 29 28  1  0  0  0  0
 30 29  1  0  0  0  0
 30 31  1  0  0  0  0
 32 33  1  0  0  0  0
 32 39  1  0  0  0  0
 32 31  1  0  0  0  0
 33 38  1  0  0  0  0
 34 38  1  0  0  0  0
 35 37  1  0  0  0  0
 35 36  1  0  0  0  0
 36 34  1  0  0  0  0
 37 33  1  0  0  0  0
 40 41  2  0  0  0  0
 41 39  1  0  0  0  0
 43 42  1  0  0  0  0
 43 41  1  0  0  0  0
M  END
>  <MODEL>
7

>  <REMARK>
 VINA RESULT:      -7.2      4.331      8.472
  Name = 
  15 active torsions:
  status: ('A' for Active; 'I' for Inactive)
    1  A    between atoms: C_1  and  N_34
    2  A    between atoms: C_1  and  C_35
    3  A    between atoms: C_3  and  C_4
    4  A    between atoms: C_3  and  O_12
    5  A    between atoms: C_4  and  N_14
    6  A    between atoms: C_6  and  C_17
    7  A    between atoms: C_8  and  N_34
    8  A    between atoms: C_11  and  N_14
    9  A    between atoms: O_12  and  C_17
   10  A    between atoms: N_14  and  C_41
   11  A    between atoms: C_16  and  N_23
   12  A    between atoms: C_19  and  O_37
   13  A    between atoms: C_22  and  C_41
   14  A    between atoms: C_22  and  S_42
   15  A    between atoms: C_27  and  C_30
                            x       y       z     vdW  Elec       q    Type
                         _______ _______ _______ _____ _____    ______ ____

>  <TORSDO>
F 15

$$$$
=
 OpenBabel10262422153D

 43 46  0  0  0  0  0  0  0  0999 V2000
  189.0900  177.9660  140.1380 C   0  0  0  0  0  3  0  0  0  0  0  0
  189.9570  177.0670  140.7660 C   0  0  0  0  0  0  0  0  0  0  0  0
  188.2050  178.7360  140.8980 C   0  0  0  0  0  3  0  0  0  0  0  0
  189.9480  176.9590  142.1620 C   0  0  0  0  0  3  0  0  0  0  0  0
  189.0560  177.7190  142.9330 C   0  0  0  0  0  0  0  0  0  0  0  0
  188.1870  178.6110  142.2900 C   0  0  0  0  0  3  0  0  0  0  0  0
  187.7950  177.5520  145.1040 C   0  0  0  0  0  0  0  0  0  0  0  0
  190.2040  177.2920  146.5380 C   0  0  0  0  0  0  0  0  0  0  0  0
  190.2320  177.4180  145.1330 C   0  0  0  0  0  0  0  0  0  0  0  0
  191.4430  177.3470  144.4530 O   0  0  0  0  0  1  0  0  0  0  0  0
  189.0280  177.5690  144.4090 C   0  0  0  0  0  0  0  0  0  0  0  0
  187.7850  177.3780  146.4940 C   0  0  0  0  0  3  0  0  0  0  0  0
  188.9770  177.2440  147.2010 C   0  0  0  0  0  3  0  0  0  0  0  0
  192.1420  175.9120  147.4550 C   0  0  0  0  0  0  0  0  0  0  0  0
  191.9600  174.9480  146.6660 O   0  0  0  0  0  0  0  0  0  0  0  0
  193.1810  175.8080  148.5110 C   0  0  0  0  0  1  0  0  0  0  0  0
  191.3970  177.1280  147.3170 N   0  0  0  0  0  2  0  0  0  0  0  0
  186.5640  177.7480  144.3960 N   0  0  0  0  0  2  0  0  0  0  0  0
  185.4510  178.5410  144.9010 C   0  0  0  0  0  2  0  0  0  0  0  0
  183.0550  178.9480  144.3110 C   0  0  0  0  0  3  0  0  0  0  0  0
  182.2480  178.6850  142.0370 C   0  0  0  0  0  0  0  0  0  0  0  0
  184.5800  178.2530  142.5640 C   0  0  0  0  0  3  0  0  0  0  0  0
  182.0140  179.0030  143.3800 C   0  0  0  0  0  3  0  0  0  0  0  0
  184.3370  178.5690  143.9070 C   0  0  0  0  0  0  0  0  0  0  0  0
  183.5390  178.3090  141.6350 C   0  0  0  0  0  3  0  0  0  0  0  0
  181.3550  178.5160  139.7360 C   0  0  0  0  0  1  0  0  0  0  0  0
  181.1890  178.7560  141.1270 O   0  0  0  0  0  0  0  0  0  0  0  0
  190.9220  176.2800  139.9400 C   0  0  0  0  0  2  0  0  0  0  0  0
  191.3320  177.0130  138.8210 O   0  0  0  0  0  0  0  0  0  0  0  0
  192.7010  176.7540  138.6940 C   0  0  0  0  0  2  0  0  0  0  0  0
  193.0080  176.2680  137.2870 C   0  0  0  0  0  2  0  0  0  0  0  0
  193.0430  174.8080  137.2570 N   0  0  0  0  0  0  0  0  0  0  0  0
  194.4250  174.3240  137.1120 C   0  0  0  0  0  3  0  0  0  0  0  0
  196.8060  174.8790  136.4080 C   0  0  0  0  0  2  0  0  0  0  0  0
  196.5730  173.7950  138.3610 C   0  0  0  0  0  2  0  0  0  0  0  0
  196.9700  173.6230  137.0220 O   0  0  0  0  0  0  0  0  0  0  0  0
  195.0550  174.0140  138.4770 C   0  0  0  0  0  2  0  0  0  0  0  0
  195.3190  175.2230  136.2310 C   0  0  0  0  0  2  0  0  0  0  0  0
  192.2600  174.3600  136.1140 C   0  0  0  0  0  2  0  0  0  0  0  0
  190.5210  173.7730  137.5940 O   0  0  0  0  0  0  0  0  0  0  0  0
  190.8220  174.2250  136.5000 C   0  0  0  0  0  0  0  0  0  0  0  0
  189.1730  176.2430  136.3420 C   0  0  0  0  0  1  0  0  0  0  0  0
  189.5390  174.7540  135.3680 S   0  0  0  0  0  0  0  0  0  0  0  0
  1  2  2  0  0  0  0
  1  3  1  0  0  0  0
  2  4  1  0  0  0  0
  3  6  2  0  0  0  0
  4  5  2  0  0  0  0
  5 11  1  0  0  0  0
  6  5  1  0  0  0  0
  7 12  1  0  0  0  0
  8 13  1  0  0  0  0
  8 17  1  0  0  0  0
  9  8  2  0  0  0  0
 10  9  1  0  0  0  0
 11  7  2  0  0  0  0
 11  9  1  0  0  0  0
 12 13  2  0  0  0  0
 14 16  1  0  0  0  0
 15 14  2  0  0  0  0
 17 14  1  0  0  0  0
 18 19  1  0  0  0  0
 18  7  1  0  0  0  0
 21 23  1  0  0  0  0
 22 24  2  0  0  0  0
 23 20  2  0  0  0  0
 24 20  1  0  0  0  0
 24 19  1  0  0  0  0
 25 21  2  0  0  0  0
 25 22  1  0  0  0  0
 26 27  1  0  0  0  0
 27 21  1  0  0  0  0
 28  2  1  0  0  0  0
 29 28  1  0  0  0  0
 30 29  1  0  0  0  0
 31 30  1  0  0  0  0
 32 31  1  0  0  0  0
 33 32  1  0  0  0  0
 33 37  1  0  0  0  0
 34 36  1  0  0  0  0
 35 37  1  0  0  0  0
 36 35  1  0  0  0  0
 38 34  1  0  0  0  0
 38 33  1  0  0  0  0
 39 41  1  0  0  0  0
 39 32  1  0  0  0  0
 41 40  2  0  0  0  0
 43 42  1  0  0  0  0
 43 41  1  0  0  0  0
M  END
>  <MODEL>
8

>  <REMARK>
 VINA RESULT:      -7.2      2.977      9.307
  Name = 
  15 active torsions:
  status: ('A' for Active; 'I' for Inactive)
    1  A    between atoms: C_1  and  N_34
    2  A    between atoms: C_1  and  C_35
    3  A    between atoms: C_3  and  C_4
    4  A    between atoms: C_3  and  O_12
    5  A    between atoms: C_4  and  N_14
    6  A    between atoms: C_6  and  C_17
    7  A    between atoms: C_8  and  N_34
    8  A    between atoms: C_11  and  N_14
    9  A    between atoms: O_12  and  C_17
   10  A    between atoms: N_14  and  C_41
   11  A    between atoms: C_16  and  N_23
   12  A    between atoms: C_19  and  O_37
   13  A    between atoms: C_22  and  C_41
   14  A    between atoms: C_22  and  S_42
   15  A    between atoms: C_27  and  C_30
                            x       y       z     vdW  Elec       q    Type
                         _______ _______ _______ _____ _____    ______ ____

>  <TORSDO>
F 15

$$$$
=
 OpenBabel10262422153D

 43 46  0  0  0  0  0  0  0  0999 V2000
  189.0720  177.8900  140.2740 C   0  0  0  0  0  3  0  0  0  0  0  0
  190.0170  177.0910  140.9230 C   0  0  0  0  0  0  0  0  0  0  0  0
  188.1180  178.5940  141.0150 C   0  0  0  0  0  3  0  0  0  0  0  0
  190.0170  177.0170  142.3210 C   0  0  0  0  0  3  0  0  0  0  0  0
  189.0570  177.7100  143.0740 C   0  0  0  0  0  0  0  0  0  0  0  0
  188.1100  178.5020  142.4100 C   0  0  0  0  0  3  0  0  0  0  0  0
  187.8140  177.5890  145.2590 C   0  0  0  0  0  0  0  0  0  0  0  0
  190.2350  177.3710  146.6790 C   0  0  0  0  0  0  0  0  0  0  0  0
  190.2510  177.4650  145.2710 C   0  0  0  0  0  0  0  0  0  0  0  0
  191.4570  177.3830  144.5830 O   0  0  0  0  0  1  0  0  0  0  0  0
  189.0410  177.5950  144.5530 C   0  0  0  0  0  0  0  0  0  0  0  0
  187.8150  177.4480  146.6520 C   0  0  0  0  0  3  0  0  0  0  0  0
  189.0120  177.3350  147.3520 C   0  0  0  0  0  3  0  0  0  0  0  0
  192.1260  176.0010  147.7000 C   0  0  0  0  0  0  0  0  0  0  0  0
  191.8850  174.9720  147.0140 O   0  0  0  0  0  0  0  0  0  0  0  0
  193.1800  175.9540  148.7450 C   0  0  0  0  0  1  0  0  0  0  0  0
  191.4340  177.2300  147.4520 N   0  0  0  0  0  2  0  0  0  0  0  0
  186.5760  177.7640  144.5560 N   0  0  0  0  0  2  0  0  0  0  0  0
  185.4240  178.4710  145.0990 C   0  0  0  0  0  2  0  0  0  0  0  0
  183.0600  178.9790  144.4570 C   0  0  0  0  0  3  0  0  0  0  0  0
  182.3010  178.7820  142.1600 C   0  0  0  0  0  0  0  0  0  0  0  0
  184.6000  178.2530  142.7370 C   0  0  0  0  0  3  0  0  0  0  0  0
  182.0460  179.0890  143.5020 C   0  0  0  0  0  3  0  0  0  0  0  0
  184.3370  178.5570  144.0780 C   0  0  0  0  0  0  0  0  0  0  0  0
  183.5860  178.3630  141.7840 C   0  0  0  0  0  3  0  0  0  0  0  0
  180.1170  179.7080  141.4580 C   0  0  0  0  0  1  0  0  0  0  0  0
  181.2690  178.9080  141.2260 O   0  0  0  0  0  0  0  0  0  0  0  0
  191.0510  176.3760  140.1150 C   0  0  0  0  0  2  0  0  0  0  0  0
  191.1150  176.8930  138.8170 O   0  0  0  0  0  0  0  0  0  0  0  0
  191.1910  175.7750  137.9800 C   0  0  0  0  0  2  0  0  0  0  0  0
  190.8420  176.1710  136.5540 C   0  0  0  0  0  2  0  0  0  0  0  0
  189.4500  175.8370  136.2670 N   0  0  0  0  0  0  0  0  0  0  0  0
  188.5440  176.8430  136.8450 C   0  0  0  0  0  3  0  0  0  0  0  0
  187.2520  179.0030  136.4700 C   0  0  0  0  0  2  0  0  0  0  0  0
  186.1330  177.3350  137.4750 C   0  0  0  0  0  2  0  0  0  0  0  0
  186.7510  178.5770  137.7140 O   0  0  0  0  0  0  0  0  0  0  0  0
  187.1650  176.2420  137.1540 C   0  0  0  0  0  2  0  0  0  0  0  0
  188.4570  178.1540  136.0340 C   0  0  0  0  0  2  0  0  0  0  0  0
  189.1630  174.5400  136.8650 C   0  0  0  0  0  2  0  0  0  0  0  0
  190.3290  172.9030  135.6320 O   0  0  0  0  0  0  0  0  0  0  0  0
  189.2630  173.4660  135.8290 C   0  0  0  0  0  0  0  0  0  0  0  0
  186.9100  172.4820  136.3920 C   0  0  0  0  0  1  0  0  0  0  0  0
  187.8120  172.9840  134.8970 S   0  0  0  0  0  0  0  0  0  0  0  0
  1  2  2  0  0  0  0
  1  3  1  0  0  0  0
  2  4  1  0  0  0  0
  3  6  2  0  0  0  0
  4  5  2  0  0  0  0
  5 11  1  0  0  0  0
  6  5  1  0  0  0  0
  7 12  1  0  0  0  0
  8 13  1  0  0  0  0
  8 17  1  0  0  0  0
  9  8  2  0  0  0  0
 10  9  1  0  0  0  0
 11  7  2  0  0  0  0
 11  9  1  0  0  0  0
 12 13  2  0  0  0  0
 14 16  1  0  0  0  0
 15 14  2  0  0  0  0
 17 14  1  0  0  0  0
 18 19  1  0  0  0  0
 18  7  1  0  0  0  0
 21 23  1  0  0  0  0
 22 24  2  0  0  0  0
 23 20  2  0  0  0  0
 24 20  1  0  0  0  0
 24 19  1  0  0  0  0
 25 21  2  0  0  0  0
 25 22  1  0  0  0  0
 27 26  1  0  0  0  0
 27 21  1  0  0  0  0
 28  2  1  0  0  0  0
 29 28  1  0  0  0  0
 30 29  1  0  0  0  0
 31 30  1  0  0  0  0
 32 31  1  0  0  0  0
 32 33  1  0  0  0  0
 32 39  1  0  0  0  0
 33 37  1  0  0  0  0
 34 36  1  0  0  0  0
 35 36  1  0  0  0  0
 37 35  1  0  0  0  0
 38 34  1  0  0  0  0
 38 33  1  0  0  0  0
 40 41  2  0  0  0  0
 41 39  1  0  0  0  0
 43 41  1  0  0  0  0
 43 42  1  0  0  0  0
M  END
>  <MODEL>
9

>  <REMARK>
 VINA RESULT:      -7.1      3.275      8.591
  Name = 
  15 active torsions:
  status: ('A' for Active; 'I' for Inactive)
    1  A    between atoms: C_1  and  N_34
    2  A    between atoms: C_1  and  C_35
    3  A    between atoms: C_3  and  C_4
    4  A    between atoms: C_3  and  O_12
    5  A    between atoms: C_4  and  N_14
    6  A    between atoms: C_6  and  C_17
    7  A    between atoms: C_8  and  N_34
    8  A    between atoms: C_11  and  N_14
    9  A    between atoms: O_12  and  C_17
   10  A    between atoms: N_14  and  C_41
   11  A    between atoms: C_16  and  N_23
   12  A    between atoms: C_19  and  O_37
   13  A    between atoms: C_22  and  C_41
   14  A    between atoms: C_22  and  S_42
   15  A    between atoms: C_27  and  C_30
                            x       y       z     vdW  Elec       q    Type
                         _______ _______ _______ _____ _____    ______ ____

>  <TORSDO>
F 15

$$$$
