=
 OpenBabel10262422433D

 43 48  0  0  1  0  0  0  0  0999 V2000
  181.9850  176.8360  137.9140 C   0  0  1  0  0  0  0  0  0  0  0  0
  184.0610  178.6720  144.3510 C   0  0  0  0  0  0  0  0  0  0  0  0
  182.1410  178.5910  139.6840 N   0  0  0  0  0  0  0  0  0  0  0  0
  180.8990  174.8290  136.8500 C   0  0  0  0  0  2  0  0  0  0  0  0
  184.5040  177.9660  139.3360 N   0  0  0  0  0  2  0  0  0  0  0  0
  182.5860  178.9130  142.4220 C   0  0  0  0  0  0  0  0  0  0  0  0
  185.1160  178.3280  143.6060 C   0  0  0  0  0  3  0  0  0  0  0  0
  180.0870  174.2630  137.9780 C   0  0  0  0  0  0  0  0  0  0  0  0
  184.2000  178.7170  145.8270 C   0  0  0  0  0  1  0  0  0  0  0  0
  183.7000  178.5020  141.5320 C   0  0  0  0  0  0  0  0  0  0  0  0
  182.7610  178.9880  143.7390 C   0  0  0  0  0  3  0  0  0  0  0  0
  185.0760  178.2610  142.1030 C   0  0  0  0  0  2  0  0  0  0  0  0
  184.3480  178.1290  137.9000 C   0  0  2  0  0  3  0  0  0  0  0  0
  181.3740  175.4150  139.8920 C   0  0  0  0  0  2  0  0  0  0  0  0
  183.4680  178.3830  140.2160 C   0  0  0  0  0  0  0  0  0  0  0  0
  180.9480  176.3490  136.9070 C   0  0  0  0  0  2  0  0  0  0  0  0
  181.0810  179.0520  140.5350 C   0  0  0  0  0  3  0  0  0  0  0  0
  181.7840  178.3150  138.2830 C   0  0  1  0  0  3  0  0  0  0  0  0
  182.5070  175.8470  138.9680 C   0  0  0  0  0  2  0  0  0  0  0  0
  182.9280  177.8920  137.3370 C   0  0  2  0  0  3  0  0  0  0  0  0
  180.3370  174.4960  139.2830 C   0  0  0  0  0  3  0  0  0  0  0  0
  181.2740  179.2120  141.8430 C   0  0  0  0  0  3  0  0  0  0  0  0
  179.3300  172.0660  137.5780 F   0  0  0  0  0  0  0  0  0  0  0  0
  178.9340  173.3870  137.6240 C   0  0  0  0  0  2  0  0  0  0  0  0
  185.4820  177.4630  137.1110 C   0  0  1  0  0  3  0  0  0  0  0  0
  187.1270  179.0860  137.5230 O   0  0  0  0  0  0  0  0  0  0  0  0
  186.8530  177.8970  137.5360 C   0  0  0  0  0  0  0  0  0  0  0  0
  187.8880  176.9030  137.9710 C   0  0  0  0  0  2  0  0  0  0  0  0
  188.9330  177.5520  138.7560 N   0  0  0  0  0  0  0  0  0  0  0  0
  190.1340  177.6040  137.9380 C   0  0  0  0  0  2  0  0  0  0  0  0
  191.2180  176.7510  138.5600 C   0  0  0  0  0  1  0  0  0  0  0  0
  189.2020  176.8220  140.0010 C   0  0  0  0  0  2  0  0  0  0  0  0
  189.1400  177.6770  141.2680 C   0  0  1  0  0  3  0  0  0  0  0  0
  188.1910  178.8340  141.0260 C   0  0  0  0  0  1  0  0  0  0  0  0
  188.6420  176.8400  142.4440 C   0  0  0  0  0  2  0  0  0  0  0  0
  189.2240  177.3160  143.7630 C   0  0  2  0  0  3  0  0  0  0  0  0
  188.6890  177.6890  146.1910 C   0  0  0  0  0  2  0  0  0  0  0  0
  191.3270  177.2920  145.5180 S   0  0  0  0  0  0  0  0  0  0  0  0
  189.9370  176.9470  146.6490 C   0  0  0  0  0  2  0  0  0  0  0  0
  190.4910  176.5390  144.0900 C   0  0  0  0  0  2  0  0  0  0  0  0
  188.1900  177.1220  144.8680 C   0  0  0  0  0  2  0  0  0  0  0  0
  185.3710  176.0740  137.1260 O   0  0  0  0  0  0  0  0  0  0  0  0
  185.3470  175.6970  135.7850 C   0  0  0  0  0  1  0  0  0  0  0  0
  1 16  1  6  0  0  0
  1 18  1  0  0  0  0
  1 19  1  0  0  0  0
  2  9  1  0  0  0  0
  3 15  1  0  0  0  0
  3 17  1  0  0  0  0
  4 16  1  0  0  0  0
  4  8  1  0  0  0  0
  5 15  1  0  0  0  0
  6 11  2  0  0  0  0
  7  2  2  0  0  0  0
  8 21  2  0  0  0  0
 10 12  1  0  0  0  0
 10  6  1  0  0  0  0
 11  2  1  0  0  0  0
 12  7  1  0  0  0  0
 13 25  1  6  0  0  0
 13  5  1  0  0  0  0
 15 10  2  0  0  0  0
 17 22  2  0  0  0  0
 18  3  1  1  0  0  0
 19 14  1  0  0  0  0
 20 13  1  0  0  0  0
 20  1  1  0  0  0  0
 20 18  1  0  0  0  0
 21 14  1  0  0  0  0
 22  6  1  0  0  0  0
 23 24  1  0  0  0  0
 24  8  1  0  0  0  0
 25 42  1  0  0  0  0
 25 27  1  0  0  0  0
 26 27  2  0  0  0  0
 27 28  1  0  0  0  0
 28 29  1  0  0  0  0
 29 32  1  0  0  0  0
 30 31  1  0  0  0  0
 30 29  1  0  0  0  0
 32 33  1  0  0  0  0
 33 35  1  0  0  0  0
 34 33  1  0  0  0  0
 35 36  1  0  0  0  0
 36 40  1  0  0  0  0
 36 41  1  0  0  0  0
 37 39  1  0  0  0  0
 38 39  1  0  0  0  0
 40 38  1  0  0  0  0
 41 37  1  0  0  0  0
 43 42  1  0  0  0  0
M  END
>  <MODEL>
1

>  <REMARK>
 VINA RESULT:      -8.2      0.000      0.000
  Name = 
  11 active torsions:
  status: ('A' for Active; 'I' for Inactive)
    1  A    between atoms: C_2  and  C_6
    2  A    between atoms: C_2  and  O_12
    3  A    between atoms: C_2  and  C_27
    4  A    between atoms: N_4  and  C_7
    5  A    between atoms: N_4  and  C_10
    6  A    between atoms: N_4  and  C_15
    7  A    between atoms: C_6  and  C_7
    8  A    between atoms: C_11  and  C_14
    9  A    between atoms: C_14  and  C_22
   10  A    between atoms: C_15  and  C_22
   11  A    between atoms: C_19  and  C_37
                            x       y       z     vdW  Elec       q    Type
                         _______ _______ _______ _____ _____    ______ ____

>  <TORSDO>
F 11

$$$$
=
 OpenBabel10262422433D

 43 48  0  0  1  0  0  0  0  0999 V2000
  184.9730  175.8700  136.1470 C   0  0  1  0  0  0  0  0  0  0  0  0
  182.4960  178.7280  142.0470 C   0  0  0  0  0  0  0  0  0  0  0  0
  183.5830  177.6320  137.2420 N   0  0  0  0  0  0  0  0  0  0  0  0
  185.3330  173.5420  135.2580 C   0  0  0  0  0  2  0  0  0  0  0  0
  185.8040  177.9920  138.2580 N   0  0  0  0  0  2  0  0  0  0  0  0
  182.3310  178.2520  139.6600 C   0  0  2  0  0  3  0  0  0  0  0  0
  183.8310  178.7970  142.0250 C   0  0  0  0  0  3  0  0  0  0  0  0
  184.2590  172.7590  135.9560 C   0  0  0  0  0  0  0  0  0  0  0  0
  181.7830  178.9040  143.3360 C   0  0  0  0  0  1  0  0  0  0  0  0
  183.8110  178.2760  139.5620 C   0  0  0  0  0  0  0  0  0  0  0  0
  181.7230  178.4620  140.8250 C   0  0  0  0  0  3  0  0  0  0  0  0
  184.6420  178.6400  140.7680 C   0  0  0  0  0  3  0  0  0  0  0  0
  186.4170  178.0010  136.9400 C   0  0  2  0  0  3  0  0  0  0  0  0
  183.8560  174.4320  137.8760 C   0  0  0  0  0  2  0  0  0  0  0  0
  184.3880  178.0040  138.3820 C   0  0  0  0  0  0  0  0  0  0  0  0
  184.8690  174.9540  134.9330 C   0  0  0  0  0  2  0  0  0  0  0  0
  182.1500  177.6730  137.3190 C   0  0  0  0  0  3  0  0  0  0  0  0
  184.1570  177.1610  135.9710 C   0  0  1  0  0  3  0  0  0  0  0  0
  185.1090  175.2330  137.5390 C   0  0  0  0  0  2  0  0  0  0  0  0
  185.6950  177.1830  135.8450 C   0  0  2  0  0  3  0  0  0  0  0  0
  183.6670  173.1420  137.1060 C   0  0  0  0  0  3  0  0  0  0  0  0
  181.5340  177.9670  138.4630 C   0  0  0  0  0  3  0  0  0  0  0  0
  184.0760  170.4190  136.1830 F   0  0  0  0  0  0  0  0  0  0  0  0
  183.8280  171.4760  135.3310 C   0  0  0  0  0  2  0  0  0  0  0  0
  187.9380  177.8060  137.0040 C   0  0  1  0  0  3  0  0  0  0  0  0
  189.0730  179.3110  138.4020 O   0  0  0  0  0  0  0  0  0  0  0  0
  188.5470  178.2140  138.3120 C   0  0  0  0  0  0  0  0  0  0  0  0
  188.5250  177.3020  139.5030 C   0  0  0  0  0  2  0  0  0  0  0  0
  189.3990  177.8060  140.5570 N   0  0  0  0  0  0  0  0  0  0  0  0
  190.4450  176.8200  140.7740 C   0  0  0  0  0  2  0  0  0  0  0  0
  191.7850  177.3930  140.3670 C   0  0  0  0  0  1  0  0  0  0  0  0
  188.6580  178.0390  141.8040 C   0  0  0  0  0  2  0  0  0  0  0  0
  189.2670  177.3760  143.0410 C   0  0  1  0  0  3  0  0  0  0  0  0
  189.9560  178.4410  143.8720 C   0  0  0  0  0  1  0  0  0  0  0  0
  188.1760  176.7030  143.8680 C   0  0  0  0  0  2  0  0  0  0  0  0
  187.5720  177.6540  144.8870 C   0  0  2  0  0  3  0  0  0  0  0  0
  185.4770  178.9070  145.4890 C   0  0  0  0  0  2  0  0  0  0  0  0
  187.2450  178.3380  147.5190 S   0  0  0  0  0  0  0  0  0  0  0  0
  185.5190  178.4180  146.9300 C   0  0  0  0  0  2  0  0  0  0  0  0
  187.7170  177.0830  146.2900 C   0  0  0  0  0  2  0  0  0  0  0  0
  186.0980  177.8710  144.5600 C   0  0  0  0  0  2  0  0  0  0  0  0
  188.3020  176.5040  136.6670 O   0  0  0  0  0  0  0  0  0  0  0  0
  189.4740  176.6360  135.9250 C   0  0  0  0  0  1  0  0  0  0  0  0
  1 16  1  6  0  0  0
  1 19  1  0  0  0  0
  2  9  1  0  0  0  0
  3 17  1  0  0  0  0
  3 15  1  0  0  0  0
  4  8  1  0  0  0  0
  5 15  1  0  0  0  0
  6 22  1  1  0  0  0
  6 11  1  0  0  0  0
  7  2  1  0  0  0  0
  8 21  2  0  0  0  0
 10  6  1  0  0  0  0
 10 12  1  0  0  0  0
 11  2  2  0  0  0  0
 12  7  2  0  0  0  0
 13 25  1  1  0  0  0
 13  5  1  0  0  0  0
 15 10  2  0  0  0  0
 16  4  1  0  0  0  0
 17 22  2  0  0  0  0
 18  1  1  0  0  0  0
 18  3  1  1  0  0  0
 19 14  1  0  0  0  0
 20 18  1  0  0  0  0
 20  1  1  0  0  0  0
 20 13  1  0  0  0  0
 21 14  1  0  0  0  0
 24  8  1  0  0  0  0
 24 23  1  0  0  0  0
 25 27  1  0  0  0  0
 27 26  2  0  0  0  0
 27 28  1  0  0  0  0
 28 29  1  0  0  0  0
 29 30  1  0  0  0  0
 29 32  1  0  0  0  0
 31 30  1  0  0  0  0
 32 33  1  0  0  0  0
 33 35  1  0  0  0  0
 33 34  1  0  0  0  0
 35 36  1  0  0  0  0
 36 40  1  0  0  0  0
 37 39  1  0  0  0  0
 39 38  1  0  0  0  0
 40 38  1  0  0  0  0
 41 36  1  0  0  0  0
 41 37  1  0  0  0  0
 42 25  1  0  0  0  0
 43 42  1  0  0  0  0
M  END
>  <MODEL>
2

>  <REMARK>
 VINA RESULT:      -7.8      2.144      3.267
  Name = 
  11 active torsions:
  status: ('A' for Active; 'I' for Inactive)
    1  A    between atoms: C_2  and  C_6
    2  A    between atoms: C_2  and  O_12
    3  A    between atoms: C_2  and  C_27
    4  A    between atoms: N_4  and  C_7
    5  A    between atoms: N_4  and  C_10
    6  A    between atoms: N_4  and  C_15
    7  A    between atoms: C_6  and  C_7
    8  A    between atoms: C_11  and  C_14
    9  A    between atoms: C_14  and  C_22
   10  A    between atoms: C_15  and  C_22
   11  A    between atoms: C_19  and  C_37
                            x       y       z     vdW  Elec       q    Type
                         _______ _______ _______ _____ _____    ______ ____

>  <TORSDO>
F 11

$$$$
=
 OpenBabel10262422433D

 43 48  0  0  1  0  0  0  0  0999 V2000
  185.1470  176.1650  136.2300 C   0  0  1  0  0  0  0  0  0  0  0  0
  183.1460  178.7670  142.4230 C   0  0  0  0  0  0  0  0  0  0  0  0
  183.8610  177.8860  137.5050 N   0  0  0  0  0  0  0  0  0  0  0  0
  185.4130  173.8790  135.2120 C   0  0  0  0  0  2  0  0  0  0  0  0
  186.1550  178.1810  138.3680 N   0  0  0  0  0  2  0  0  0  0  0  0
  182.7990  178.4030  140.0350 C   0  0  2  0  0  3  0  0  0  0  0  0
  184.4760  178.8260  142.3050 C   0  0  0  0  0  3  0  0  0  0  0  0
  184.3850  173.0730  135.9510 C   0  0  0  0  0  0  0  0  0  0  0  0
  182.5320  178.8880  143.7680 C   0  0  0  0  0  1  0  0  0  0  0  0
  184.2680  178.4200  139.8290 C   0  0  0  0  0  0  0  0  0  0  0  0
  182.2810  178.5630  141.2510 C   0  0  0  0  0  3  0  0  0  0  0  0
  185.1900  178.7210  140.9850 C   0  0  0  0  0  3  0  0  0  0  0  0
  186.6700  178.2460  137.0100 C   0  0  2  0  0  3  0  0  0  0  0  0
  184.1440  174.6570  137.9700 C   0  0  0  0  0  2  0  0  0  0  0  0
  184.7530  178.1980  138.5980 C   0  0  0  0  0  0  0  0  0  0  0  0
  184.9430  175.3080  134.9870 C   0  0  0  0  0  2  0  0  0  0  0  0
  182.4390  177.9350  137.6910 C   0  0  0  0  0  3  0  0  0  0  0  0
  184.3340  177.4700  136.1750 C   0  0  1  0  0  3  0  0  0  0  0  0
  185.3780  175.4630  137.5780 C   0  0  0  0  0  2  0  0  0  0  0  0
  185.8590  177.4860  135.9360 C   0  0  2  0  0  3  0  0  0  0  0  0
  183.8850  173.4070  137.1590 C   0  0  0  0  0  3  0  0  0  0  0  0
  181.9130  178.1800  138.8890 C   0  0  0  0  0  3  0  0  0  0  0  0
  184.0720  170.7430  136.1430 F   0  0  0  0  0  0  0  0  0  0  0  0
  183.8950  171.8230  135.3030 C   0  0  0  0  0  2  0  0  0  0  0  0
  188.1880  178.0360  136.9520 C   0  0  1  0  0  3  0  0  0  0  0  0
  189.0550  179.3780  138.6710 O   0  0  0  0  0  0  0  0  0  0  0  0
  188.8800  178.2400  138.2670 C   0  0  0  0  0  0  0  0  0  0  0  0
  189.3590  177.0800  139.0860 C   0  0  0  0  0  2  0  0  0  0  0  0
  190.1120  177.5410  140.2480 N   0  0  0  0  0  0  0  0  0  0  0  0
  191.5240  177.3210  139.9760 C   0  0  0  0  0  2  0  0  0  0  0  0
  192.3090  177.3610  141.2700 C   0  0  0  0  0  1  0  0  0  0  0  0
  189.7140  176.8230  141.4660 C   0  0  0  0  0  2  0  0  0  0  0  0
  188.8430  177.6340  142.4280 C   0  0  1  0  0  3  0  0  0  0  0  0
  187.8550  176.6960  143.0930 C   0  0  0  0  0  1  0  0  0  0  0  0
  189.7130  178.3020  143.4890 C   0  0  0  0  0  2  0  0  0  0  0  0
  189.9280  177.4010  144.6930 C   0  0  2  0  0  3  0  0  0  0  0  0
  191.6860  176.2010  146.0300 C   0  0  0  0  0  2  0  0  0  0  0  0
  189.3290  176.8310  147.3040 S   0  0  0  0  0  0  0  0  0  0  0  0
  191.1530  176.7490  147.3470 C   0  0  0  0  0  2  0  0  0  0  0  0
  189.3110  178.0280  145.9350 C   0  0  0  0  0  2  0  0  0  0  0  0
  191.4240  177.1900  144.9010 C   0  0  0  0  0  2  0  0  0  0  0  0
  188.5140  176.7980  136.4020 O   0  0  0  0  0  0  0  0  0  0  0  0
  189.3460  177.0870  135.3230 C   0  0  0  0  0  1  0  0  0  0  0  0
  1 16  1  6  0  0  0
  1 19  1  0  0  0  0
  2  9  1  0  0  0  0
  3 17  1  0  0  0  0
  3 15  1  0  0  0  0
  4  8  1  0  0  0  0
  5 15  1  0  0  0  0
  6 22  1  1  0  0  0
  6 11  1  0  0  0  0
  7  2  1  0  0  0  0
  8 21  2  0  0  0  0
 10  6  1  0  0  0  0
 10 12  1  0  0  0  0
 11  2  2  0  0  0  0
 12  7  2  0  0  0  0
 13 25  1  1  0  0  0
 13  5  1  0  0  0  0
 15 10  2  0  0  0  0
 16  4  1  0  0  0  0
 17 22  2  0  0  0  0
 18  1  1  0  0  0  0
 18  3  1  1  0  0  0
 19 14  1  0  0  0  0
 20 18  1  0  0  0  0
 20  1  1  0  0  0  0
 20 13  1  0  0  0  0
 21 14  1  0  0  0  0
 24  8  1  0  0  0  0
 24 23  1  0  0  0  0
 25 27  1  0  0  0  0
 27 26  2  0  0  0  0
 27 28  1  0  0  0  0
 28 29  1  0  0  0  0
 29 32  1  0  0  0  0
 30 29  1  0  0  0  0
 30 31  1  0  0  0  0
 32 33  1  0  0  0  0
 33 34  1  0  0  0  0
 33 35  1  0  0  0  0
 35 36  1  0  0  0  0
 36 41  1  0  0  0  0
 36 40  1  0  0  0  0
 37 39  1  0  0  0  0
 38 39  1  0  0  0  0
 40 38  1  0  0  0  0
 41 37  1  0  0  0  0
 42 25  1  0  0  0  0
 43 42  1  0  0  0  0
M  END
>  <MODEL>
3

>  <REMARK>
 VINA RESULT:      -7.7      2.149      3.066
  Name = 
  11 active torsions:
  status: ('A' for Active; 'I' for Inactive)
    1  A    between atoms: C_2  and  C_6
    2  A    between atoms: C_2  and  O_12
    3  A    between atoms: C_2  and  C_27
    4  A    between atoms: N_4  and  C_7
    5  A    between atoms: N_4  and  C_10
    6  A    between atoms: N_4  and  C_15
    7  A    between atoms: C_6  and  C_7
    8  A    between atoms: C_11  and  C_14
    9  A    between atoms: C_14  and  C_22
   10  A    between atoms: C_15  and  C_22
   11  A    between atoms: C_19  and  C_37
                            x       y       z     vdW  Elec       q    Type
                         _______ _______ _______ _____ _____    ______ ____

>  <TORSDO>
F 11

$$$$
=
 OpenBabel10262422433D

 43 48  0  0  1  0  0  0  0  0999 V2000
  190.0180  176.4800  137.3270 C   0  0  1  0  0  0  0  0  0  0  0  0
  183.0910  176.9010  136.3410 C   0  0  0  0  0  0  0  0  0  0  0  0
  188.0780  177.6820  136.3120 N   0  0  0  0  0  0  0  0  0  0  0  0
  191.7500  174.6540  137.3470 C   0  0  0  0  0  2  0  0  0  0  0  0
  187.5160  177.6910  138.7160 N   0  0  0  0  0  2  0  0  0  0  0  0
  185.3880  177.3370  135.6430 C   0  0  2  0  0  3  0  0  0  0  0  0
  183.3800  177.0030  137.6420 C   0  0  0  0  0  3  0  0  0  0  0  0
  191.1690  173.6450  136.4010 C   0  0  0  0  0  0  0  0  0  0  0  0
  181.7050  176.5720  135.9300 C   0  0  0  0  0  1  0  0  0  0  0  0
  185.7940  177.4280  137.0670 C   0  0  0  0  0  0  0  0  0  0  0  0
  184.1240  177.0870  135.3100 C   0  0  0  0  0  3  0  0  0  0  0  0
  184.7530  177.3390  138.1560 C   0  0  0  0  0  3  0  0  0  0  0  0
  188.8400  178.2010  139.0340 C   0  0  2  0  0  3  0  0  0  0  0  0
  188.7330  174.4810  136.5180 C   0  0  0  0  0  2  0  0  0  0  0  0
  187.0880  177.6240  137.3620 C   0  0  0  0  0  0  0  0  0  0  0  0
  191.4270  176.0760  136.9120 C   0  0  0  0  0  2  0  0  0  0  0  0
  187.6770  177.6590  134.9330 C   0  0  0  0  0  3  0  0  0  0  0  0
  189.5260  177.7260  136.5730 C   0  0  1  0  0  3  0  0  0  0  0  0
  189.0200  175.3770  137.7170 C   0  0  0  0  0  2  0  0  0  0  0  0
  189.9700  177.8290  138.0480 C   0  0  2  0  0  3  0  0  0  0  0  0
  189.8580  173.5630  136.0920 C   0  0  0  0  0  3  0  0  0  0  0  0
  186.4000  177.4950  134.5940 C   0  0  0  0  0  3  0  0  0  0  0  0
  193.2530  172.5490  136.5300 F   0  0  0  0  0  0  0  0  0  0  0  0
  192.1070  172.6740  135.7700 C   0  0  0  0  0  2  0  0  0  0  0  0
  189.1880  178.0290  140.5190 C   0  0  1  0  0  3  0  0  0  0  0  0
  187.2660  179.1450  141.2760 O   0  0  0  0  0  0  0  0  0  0  0  0
  188.0160  178.1960  141.4400 C   0  0  0  0  0  0  0  0  0  0  0  0
  187.7530  177.2270  142.5530 C   0  0  0  0  0  2  0  0  0  0  0  0
  187.7630  177.9050  143.8440 N   0  0  0  0  0  0  0  0  0  0  0  0
  189.1400  177.9520  144.3090 C   0  0  0  0  0  2  0  0  0  0  0  0
  189.2370  177.3490  145.6940 C   0  0  0  0  0  1  0  0  0  0  0  0
  186.9230  177.2070  144.8260 C   0  0  0  0  0  2  0  0  0  0  0  0
  185.6550  177.9610  145.2320 C   0  0  1  0  0  3  0  0  0  0  0  0
  185.9340  178.7230  146.5130 C   0  0  0  0  0  1  0  0  0  0  0  0
  185.2490  178.9370  144.1310 C   0  0  0  0  0  2  0  0  0  0  0  0
  183.9430  178.5300  143.4700 C   0  0  2  0  0  3  0  0  0  0  0  0
  181.4420  178.6520  143.6920 C   0  0  0  0  0  2  0  0  0  0  0  0
  182.4780  178.3010  141.1670 S   0  0  0  0  0  0  0  0  0  0  0  0
  181.2710  179.1310  142.2570 C   0  0  0  0  0  2  0  0  0  0  0  0
  183.9090  179.0190  142.0290 C   0  0  0  0  0  2  0  0  0  0  0  0
  182.7770  179.1260  144.2530 C   0  0  0  0  0  2  0  0  0  0  0  0
  189.8430  176.8230  140.7570 O   0  0  0  0  0  0  0  0  0  0  0  0
  191.0840  177.1810  141.2790 C   0  0  0  0  0  1  0  0  0  0  0  0
  1 16  1  6  0  0  0
  1 19  1  0  0  0  0
  1 20  1  0  0  0  0
  2  7  1  0  0  0  0
  3 15  1  0  0  0  0
  5 13  1  0  0  0  0
  6 22  1  1  0  0  0
  6 10  1  0  0  0  0
  7 12  2  0  0  0  0
  8  4  1  0  0  0  0
  9  2  1  0  0  0  0
 10 15  2  0  0  0  0
 10 12  1  0  0  0  0
 11  6  1  0  0  0  0
 11  2  2  0  0  0  0
 13 25  1  1  0  0  0
 14 19  1  0  0  0  0
 15  5  1  0  0  0  0
 16  4  1  0  0  0  0
 17  3  1  0  0  0  0
 18  3  1  1  0  0  0
 18  1  1  0  0  0  0
 18 20  1  0  0  0  0
 20 13  1  0  0  0  0
 21  8  2  0  0  0  0
 21 14  1  0  0  0  0
 22 17  2  0  0  0  0
 24  8  1  0  0  0  0
 24 23  1  0  0  0  0
 25 42  1  0  0  0  0
 25 27  1  0  0  0  0
 26 27  2  0  0  0  0
 27 28  1  0  0  0  0
 28 29  1  0  0  0  0
 29 30  1  0  0  0  0
 29 32  1  0  0  0  0
 30 31  1  0  0  0  0
 32 33  1  0  0  0  0
 33 34  1  0  0  0  0
 35 33  1  0  0  0  0
 36 35  1  0  0  0  0
 36 41  1  0  0  0  0
 37 41  1  0  0  0  0
 38 40  1  0  0  0  0
 38 39  1  0  0  0  0
 39 37  1  0  0  0  0
 40 36  1  0  0  0  0
 42 43  1  0  0  0  0
M  END
>  <MODEL>
4

>  <REMARK>
 VINA RESULT:      -7.4      3.403      7.706
  Name = 
  11 active torsions:
  status: ('A' for Active; 'I' for Inactive)
    1  A    between atoms: C_2  and  C_6
    2  A    between atoms: C_2  and  O_12
    3  A    between atoms: C_2  and  C_27
    4  A    between atoms: N_4  and  C_7
    5  A    between atoms: N_4  and  C_10
    6  A    between atoms: N_4  and  C_15
    7  A    between atoms: C_6  and  C_7
    8  A    between atoms: C_11  and  C_14
    9  A    between atoms: C_14  and  C_22
   10  A    between atoms: C_15  and  C_22
   11  A    between atoms: C_19  and  C_37
                            x       y       z     vdW  Elec       q    Type
                         _______ _______ _______ _____ _____    ______ ____

>  <TORSDO>
F 11

$$$$
=
 OpenBabel10262422433D

 43 48  0  0  1  0  0  0  0  0999 V2000
  183.4240  176.4600  136.7410 C   0  0  1  0  0  0  0  0  0  0  0  0
  183.3390  178.8670  143.3230 C   0  0  0  0  0  0  0  0  0  0  0  0
  182.8370  178.2920  138.3340 N   0  0  0  0  0  0  0  0  0  0  0  0
  182.9640  174.2670  135.5950 C   0  0  0  0  0  2  0  0  0  0  0  0
  185.2640  178.0240  138.6940 N   0  0  0  0  0  2  0  0  0  0  0  0
  182.4470  178.7950  141.0530 C   0  0  2  0  0  3  0  0  0  0  0  0
  184.5970  178.6570  142.9240 C   0  0  0  0  0  3  0  0  0  0  0  0
  181.9520  173.6310  136.5030 C   0  0  0  0  0  0  0  0  0  0  0  0
  183.0500  178.9950  144.7720 C   0  0  0  0  0  1  0  0  0  0  0  0
  183.8110  178.5230  140.5360 C   0  0  0  0  0  0  0  0  0  0  0  0
  182.2330  178.9520  142.3570 C   0  0  0  0  0  3  0  0  0  0  0  0
  184.9900  178.5210  141.4780 C   0  0  0  0  0  3  0  0  0  0  0  0
  185.4970  178.1000  137.2610 C   0  0  2  0  0  3  0  0  0  0  0  0
  182.4810  175.0480  138.5910 C   0  0  0  0  0  2  0  0  0  0  0  0
  183.9770  178.3140  139.2210 C   0  0  0  0  0  0  0  0  0  0  0  0
  182.7880  175.7770  135.5360 C   0  0  0  0  0  2  0  0  0  0  0  0
  181.5280  178.6210  138.8230 C   0  0  0  0  0  3  0  0  0  0  0  0
  182.9280  177.9050  136.9170 C   0  0  1  0  0  3  0  0  0  0  0  0
  183.7580  175.6090  137.9770 C   0  0  0  0  0  2  0  0  0  0  0  0
  184.3390  177.6230  136.3560 C   0  0  2  0  0  3  0  0  0  0  0  0
  181.7920  173.9550  137.8030 C   0  0  0  0  0  3  0  0  0  0  0  0
  181.3220  178.8640  140.1160 C   0  0  0  0  0  3  0  0  0  0  0  0
  180.1910  172.1070  136.8740 F   0  0  0  0  0  0  0  0  0  0  0  0
  181.0760  172.5740  135.9230 C   0  0  0  0  0  2  0  0  0  0  0  0
  186.8870  177.5820  136.8690 C   0  0  1  0  0  3  0  0  0  0  0  0
  188.4200  179.0850  137.8190 O   0  0  0  0  0  0  0  0  0  0  0  0
  187.9680  177.9510  137.8400 C   0  0  0  0  0  0  0  0  0  0  0  0
  188.5030  176.9580  138.8290 C   0  0  0  0  0  2  0  0  0  0  0  0
  189.2780  177.6270  139.8680 N   0  0  0  0  0  0  0  0  0  0  0  0
  190.4180  176.7820  140.1840 C   0  0  0  0  0  2  0  0  0  0  0  0
  191.1330  176.3840  138.9110 C   0  0  0  0  0  1  0  0  0  0  0  0
  188.4730  177.8600  141.0740 C   0  0  0  0  0  2  0  0  0  0  0  0
  189.1340  177.4120  142.3790 C   0  0  1  0  0  3  0  0  0  0  0  0
  189.8160  178.6090  143.0120 C   0  0  0  0  0  1  0  0  0  0  0  0
  188.0840  176.8530  143.3350 C   0  0  0  0  0  2  0  0  0  0  0  0
  188.1640  177.5040  144.7050 C   0  0  2  0  0  3  0  0  0  0  0  0
  186.7880  178.2440  146.6740 C   0  0  0  0  0  2  0  0  0  0  0  0
  189.4450  177.6860  147.1190 S   0  0  0  0  0  0  0  0  0  0  0  0
  187.7080  177.5460  147.6650 C   0  0  0  0  0  2  0  0  0  0  0  0
  189.1490  176.7510  145.5880 C   0  0  0  0  0  2  0  0  0  0  0  0
  186.7790  177.5010  145.3440 C   0  0  0  0  0  2  0  0  0  0  0  0
  186.8760  176.2100  136.6310 O   0  0  0  0  0  0  0  0  0  0  0  0
  187.5560  176.0440  135.4260 C   0  0  0  0  0  1  0  0  0  0  0  0
  1 16  1  6  0  0  0
  1 18  1  0  0  0  0
  1 19  1  0  0  0  0
  2  9  1  0  0  0  0
  3 17  1  0  0  0  0
  3 15  1  0  0  0  0
  4  8  1  0  0  0  0
  5 15  1  0  0  0  0
  6 22  1  1  0  0  0
  6 11  1  0  0  0  0
  7  2  1  0  0  0  0
  8 21  2  0  0  0  0
 10  6  1  0  0  0  0
 10 12  1  0  0  0  0
 11  2  2  0  0  0  0
 12  7  2  0  0  0  0
 13 25  1  1  0  0  0
 13  5  1  0  0  0  0
 15 10  2  0  0  0  0
 16  4  1  0  0  0  0
 17 22  2  0  0  0  0
 18  3  1  1  0  0  0
 19 14  1  0  0  0  0
 20  1  1  0  0  0  0
 20 18  1  0  0  0  0
 20 13  1  0  0  0  0
 21 14  1  0  0  0  0
 24  8  1  0  0  0  0
 24 23  1  0  0  0  0
 25 27  1  0  0  0  0
 26 27  2  0  0  0  0
 27 28  1  0  0  0  0
 28 29  1  0  0  0  0
 29 30  1  0  0  0  0
 29 32  1  0  0  0  0
 31 30  1  0  0  0  0
 32 33  1  0  0  0  0
 33 34  1  0  0  0  0
 33 35  1  0  0  0  0
 35 36  1  0  0  0  0
 36 41  1  0  0  0  0
 36 40  1  0  0  0  0
 37 39  1  0  0  0  0
 38 39  1  0  0  0  0
 40 38  1  0  0  0  0
 41 37  1  0  0  0  0
 42 25  1  0  0  0  0
 43 42  1  0  0  0  0
M  END
>  <MODEL>
5

>  <REMARK>
 VINA RESULT:      -7.4      1.379      1.733
  Name = 
  11 active torsions:
  status: ('A' for Active; 'I' for Inactive)
    1  A    between atoms: C_2  and  C_6
    2  A    between atoms: C_2  and  O_12
    3  A    between atoms: C_2  and  C_27
    4  A    between atoms: N_4  and  C_7
    5  A    between atoms: N_4  and  C_10
    6  A    between atoms: N_4  and  C_15
    7  A    between atoms: C_6  and  C_7
    8  A    between atoms: C_11  and  C_14
    9  A    between atoms: C_14  and  C_22
   10  A    between atoms: C_15  and  C_22
   11  A    between atoms: C_19  and  C_37
                            x       y       z     vdW  Elec       q    Type
                         _______ _______ _______ _____ _____    ______ ____

>  <TORSDO>
F 11

$$$$
=
 OpenBabel10262422433D

 43 48  0  0  1  0  0  0  0  0999 V2000
  189.9890  176.7280  137.5640 C   0  0  1  0  0  0  0  0  0  0  0  0
  183.0910  176.9730  136.3450 C   0  0  0  0  0  0  0  0  0  0  0  0
  188.0530  177.8840  136.4890 N   0  0  0  0  0  0  0  0  0  0  0  0
  191.7670  174.9470  137.6330 C   0  0  0  0  0  2  0  0  0  0  0  0
  187.4110  177.8640  138.8720 N   0  0  0  0  0  2  0  0  0  0  0  0
  185.3980  177.4720  135.7270 C   0  0  2  0  0  3  0  0  0  0  0  0
  183.3330  177.0750  137.6560 C   0  0  0  0  0  3  0  0  0  0  0  0
  191.2440  173.9290  136.6630 C   0  0  0  0  0  0  0  0  0  0  0  0
  181.7280  176.6100  135.8860 C   0  0  0  0  0  1  0  0  0  0  0  0
  185.7530  177.5660  137.1650 C   0  0  0  0  0  0  0  0  0  0  0  0
  184.1520  177.1910  135.3510 C   0  0  0  0  0  3  0  0  0  0  0  0
  184.6790  177.4440  138.2180 C   0  0  0  0  0  3  0  0  0  0  0  0
  188.7090  178.4070  139.2380 C   0  0  2  0  0  3  0  0  0  0  0  0
  188.7850  174.7000  136.7020 C   0  0  0  0  0  2  0  0  0  0  0  0
  187.0300  177.7950  137.5050 C   0  0  0  0  0  0  0  0  0  0  0  0
  191.4220  176.3620  137.1940 C   0  0  0  0  0  2  0  0  0  0  0  0
  187.7000  177.8580  135.0970 C   0  0  0  0  0  3  0  0  0  0  0  0
  189.4900  177.9650  136.7990 C   0  0  1  0  0  3  0  0  0  0  0  0
  189.0080  175.5970  137.9140 C   0  0  0  0  0  2  0  0  0  0  0  0
  189.8820  178.0700  138.2880 C   0  0  2  0  0  3  0  0  0  0  0  0
  189.9480  173.8140  136.3100 C   0  0  0  0  0  3  0  0  0  0  0  0
  186.4400  177.6630  134.7140 C   0  0  0  0  0  3  0  0  0  0  0  0
  191.6190  172.2000  135.1030 F   0  0  0  0  0  0  0  0  0  0  0  0
  192.2290  172.9860  136.0600 C   0  0  0  0  0  2  0  0  0  0  0  0
  189.0110  178.2360  140.7330 C   0  0  1  0  0  3  0  0  0  0  0  0
  187.7080  176.9320  142.1850 O   0  0  0  0  0  0  0  0  0  0  0  0
  187.7950  177.9840  141.5720 C   0  0  0  0  0  0  0  0  0  0  0  0
  186.6900  178.9930  141.6710 C   0  0  0  0  0  2  0  0  0  0  0  0
  185.5570  178.4500  142.4120 N   0  0  0  0  0  0  0  0  0  0  0  0
  184.5560  178.0290  141.4450 C   0  0  0  0  0  2  0  0  0  0  0  0
  183.2540  178.7570  141.7010 C   0  0  0  0  0  1  0  0  0  0  0  0
  184.9860  179.4460  143.3270 C   0  0  0  0  0  2  0  0  0  0  0  0
  185.1890  179.1380  144.8120 C   0  0  1  0  0  3  0  0  0  0  0  0
  183.8300  178.9980  145.4690 C   0  0  0  0  0  1  0  0  0  0  0  0
  185.9770  177.8410  144.9770 C   0  0  0  0  0  2  0  0  0  0  0  0
  187.2670  178.0580  145.7490 C   0  0  2  0  0  3  0  0  0  0  0  0
  188.2490  178.1380  148.0610 C   0  0  0  0  0  2  0  0  0  0  0  0
  189.9490  177.5530  145.9780 S   0  0  0  0  0  0  0  0  0  0  0  0
  189.3910  177.2050  147.6810 C   0  0  0  0  0  2  0  0  0  0  0  0
  188.3450  177.1070  145.2480 C   0  0  0  0  0  2  0  0  0  0  0  0
  187.0090  177.8230  147.2340 C   0  0  0  0  0  2  0  0  0  0  0  0
  189.9820  177.2610  140.9520 O   0  0  0  0  0  0  0  0  0  0  0  0
  190.7760  177.7640  141.9810 C   0  0  0  0  0  1  0  0  0  0  0  0
  1 16  1  6  0  0  0
  1 19  1  0  0  0  0
  1 20  1  0  0  0  0
  2  7  1  0  0  0  0
  3 15  1  0  0  0  0
  5 13  1  0  0  0  0
  6 22  1  1  0  0  0
  6 10  1  0  0  0  0
  7 12  2  0  0  0  0
  8  4  1  0  0  0  0
  9  2  1  0  0  0  0
 10 15  2  0  0  0  0
 10 12  1  0  0  0  0
 11  6  1  0  0  0  0
 11  2  2  0  0  0  0
 13 25  1  1  0  0  0
 14 19  1  0  0  0  0
 15  5  1  0  0  0  0
 16  4  1  0  0  0  0
 17  3  1  0  0  0  0
 18  3  1  1  0  0  0
 18  1  1  0  0  0  0
 18 20  1  0  0  0  0
 20 13  1  0  0  0  0
 21  8  2  0  0  0  0
 21 14  1  0  0  0  0
 22 17  2  0  0  0  0
 23 24  1  0  0  0  0
 24  8  1  0  0  0  0
 25 42  1  0  0  0  0
 25 27  1  0  0  0  0
 27 28  1  0  0  0  0
 27 26  2  0  0  0  0
 28 29  1  0  0  0  0
 29 32  1  0  0  0  0
 30 31  1  0  0  0  0
 30 29  1  0  0  0  0
 32 33  1  0  0  0  0
 33 35  1  0  0  0  0
 33 34  1  0  0  0  0
 35 36  1  0  0  0  0
 36 41  1  0  0  0  0
 38 39  1  0  0  0  0
 39 37  1  0  0  0  0
 40 36  1  0  0  0  0
 40 38  1  0  0  0  0
 41 37  1  0  0  0  0
 42 43  1  0  0  0  0
M  END
>  <MODEL>
6

>  <REMARK>
 VINA RESULT:      -7.3      2.952      7.169
  Name = 
  11 active torsions:
  status: ('A' for Active; 'I' for Inactive)
    1  A    between atoms: C_2  and  C_6
    2  A    between atoms: C_2  and  O_12
    3  A    between atoms: C_2  and  C_27
    4  A    between atoms: N_4  and  C_7
    5  A    between atoms: N_4  and  C_10
    6  A    between atoms: N_4  and  C_15
    7  A    between atoms: C_6  and  C_7
    8  A    between atoms: C_11  and  C_14
    9  A    between atoms: C_14  and  C_22
   10  A    between atoms: C_15  and  C_22
   11  A    between atoms: C_19  and  C_37
                            x       y       z     vdW  Elec       q    Type
                         _______ _______ _______ _____ _____    ______ ____

>  <TORSDO>
F 11

$$$$
=
 OpenBabel10262422433D

 43 48  0  0  1  0  0  0  0  0999 V2000
  190.3680  177.6250  143.7540 C   0  0  1  0  0  0  0  0  0  0  0  0
  190.7880  175.0200  137.2610 C   0  0  0  0  0  0  0  0  0  0  0  0
  191.0920  177.9190  141.3810 N   0  0  0  0  0  0  0  0  0  0  0  0
  190.6870  176.7540  146.0930 C   0  0  0  0  0  2  0  0  0  0  0  0
  188.6680  177.5050  141.1560 N   0  0  0  0  0  2  0  0  0  0  0  0
  191.5980  176.4730  139.0460 C   0  0  0  0  0  0  0  0  0  0  0  0
  189.5080  175.1440  137.6270 C   0  0  0  0  0  3  0  0  0  0  0  0
  191.7000  175.6630  145.8980 C   0  0  0  0  0  0  0  0  0  0  0  0
  191.1320  174.1440  136.1140 C   0  0  0  0  0  1  0  0  0  0  0  0
  190.2060  176.6300  139.5360 C   0  0  0  0  0  0  0  0  0  0  0  0
  191.8630  175.7160  137.9840 C   0  0  0  0  0  3  0  0  0  0  0  0
  189.0610  176.0130  138.7710 C   0  0  0  0  0  2  0  0  0  0  0  0
  188.3910  178.5210  142.1580 C   0  0  2  0  0  3  0  0  0  0  0  0
  191.3080  175.3280  143.3720 C   0  0  0  0  0  2  0  0  0  0  0  0
  189.9850  177.3550  140.6430 C   0  0  0  0  0  0  0  0  0  0  0  0
  190.9300  177.9150  145.1410 C   0  0  0  0  0  2  0  0  0  0  0  0
  192.4300  177.8220  140.8720 C   0  0  0  0  0  3  0  0  0  0  0  0
  190.9340  178.5780  142.6880 C   0  0  1  0  0  3  0  0  0  0  0  0
  190.0370  176.1700  143.3830 C   0  0  0  0  0  2  0  0  0  0  0  0
  189.4940  178.7580  143.2140 C   0  0  2  0  0  3  0  0  0  0  0  0
  191.9190  175.0340  144.7250 C   0  0  0  0  0  3  0  0  0  0  0  0
  192.6920  177.1370  139.7600 C   0  0  0  0  0  3  0  0  0  0  0  0
  192.3820  176.1840  148.0940 F   0  0  0  0  0  0  0  0  0  0  0  0
  192.5060  175.2540  147.0830 C   0  0  0  0  0  2  0  0  0  0  0  0
  186.9660  178.4140  142.7160 C   0  0  1  0  0  3  0  0  0  0  0  0
  186.0270  179.7210  141.0080 O   0  0  0  0  0  0  0  0  0  0  0  0
  185.8960  178.7370  141.7160 C   0  0  0  0  0  0  0  0  0  0  0  0
  184.6740  177.8780  141.5740 C   0  0  0  0  0  2  0  0  0  0  0  0
  183.4630  178.6910  141.6030 N   0  0  0  0  0  0  0  0  0  0  0  0
  183.1560  178.9790  142.9950 C   0  0  0  0  0  2  0  0  0  0  0  0
  181.6560  179.0190  143.1930 C   0  0  0  0  0  1  0  0  0  0  0  0
  182.3350  177.9970  140.9700 C   0  0  0  0  0  2  0  0  0  0  0  0
  182.1140  178.3480  139.4970 C   0  0  1  0  0  3  0  0  0  0  0  0
  180.9710  179.3390  139.4010 C   0  0  0  0  0  1  0  0  0  0  0  0
  183.3810  178.9640  138.9090 C   0  0  0  0  0  2  0  0  0  0  0  0
  183.9710  178.0990  137.8080 C   0  0  2  0  0  3  0  0  0  0  0  0
  186.1330  177.2620  136.8360 C   0  0  0  0  0  2  0  0  0  0  0  0
  183.8720  175.7600  136.3870 S   0  0  0  0  0  0  0  0  0  0  0  0
  185.6450  175.8200  136.8190 C   0  0  0  0  0  2  0  0  0  0  0  0
  183.3720  176.7010  137.8610 C   0  0  0  0  0  2  0  0  0  0  0  0
  185.4850  178.0280  137.9830 C   0  0  0  0  0  2  0  0  0  0  0  0
  186.7390  177.1730  143.3090 O   0  0  0  0  0  0  0  0  0  0  0  0
  186.5210  177.4490  144.6570 C   0  0  0  0  0  1  0  0  0  0  0  0
  1 19  1  6  0  0  0
  1 16  1  0  0  0  0
  2  7  2  0  0  0  0
  2 11  1  0  0  0  0
  5 13  1  0  0  0  0
  6 10  1  0  0  0  0
  6 22  1  0  0  0  0
  7 12  1  0  0  0  0
  8  4  1  0  0  0  0
  8 24  1  0  0  0  0
  9  2  1  0  0  0  0
 10 15  2  0  0  0  0
 11  6  2  0  0  0  0
 12 10  1  0  0  0  0
 13 25  1  1  0  0  0
 13 20  1  0  0  0  0
 14 19  1  0  0  0  0
 14 21  1  0  0  0  0
 15  5  1  0  0  0  0
 15  3  1  0  0  0  0
 16  4  1  0  0  0  0
 17  3  1  0  0  0  0
 18  3  1  6  0  0  0
 18 20  1  0  0  0  0
 18  1  1  0  0  0  0
 20  1  1  0  0  0  0
 21  8  2  0  0  0  0
 22 17  2  0  0  0  0
 24 23  1  0  0  0  0
 25 42  1  0  0  0  0
 26 27  2  0  0  0  0
 27 25  1  0  0  0  0
 28 29  1  0  0  0  0
 28 27  1  0  0  0  0
 29 30  1  0  0  0  0
 30 31  1  0  0  0  0
 32 29  1  0  0  0  0
 33 32  1  0  0  0  0
 34 33  1  0  0  0  0
 35 33  1  0  0  0  0
 36 40  1  0  0  0  0
 36 41  1  0  0  0  0
 36 35  1  0  0  0  0
 37 41  1  0  0  0  0
 38 39  1  0  0  0  0
 38 40  1  0  0  0  0
 39 37  1  0  0  0  0
 42 43  1  0  0  0  0
M  END
>  <MODEL>
7

>  <REMARK>
 VINA RESULT:      -6.3      3.884      9.736
  Name = 
  11 active torsions:
  status: ('A' for Active; 'I' for Inactive)
    1  A    between atoms: C_2  and  C_6
    2  A    between atoms: C_2  and  O_12
    3  A    between atoms: C_2  and  C_27
    4  A    between atoms: N_4  and  C_7
    5  A    between atoms: N_4  and  C_10
    6  A    between atoms: N_4  and  C_15
    7  A    between atoms: C_6  and  C_7
    8  A    between atoms: C_11  and  C_14
    9  A    between atoms: C_14  and  C_22
   10  A    between atoms: C_15  and  C_22
   11  A    between atoms: C_19  and  C_37
                            x       y       z     vdW  Elec       q    Type
                         _______ _______ _______ _____ _____    ______ ____

>  <TORSDO>
F 11

$$$$
=
 OpenBabel10262422433D

 43 48  0  0  1  0  0  0  0  0999 V2000
  182.7770  178.6530  138.5540 C   0  0  1  0  0  0  0  0  0  0  0  0
  180.1840  172.5780  136.2100 C   0  0  0  0  0  0  0  0  0  0  0  0
  182.1970  176.2660  139.0070 N   0  0  0  0  0  0  0  0  0  0  0  0
  182.1890  181.0910  138.3410 C   0  0  0  0  0  2  0  0  0  0  0  0
  183.7530  176.0880  137.0980 N   0  0  0  0  0  2  0  0  0  0  0  0
  180.6680  174.1520  138.0100 C   0  0  0  0  0  0  0  0  0  0  0  0
  181.2710  172.9180  135.5090 C   0  0  0  0  0  3  0  0  0  0  0  0
  180.7000  181.0510  138.1570 C   0  0  0  0  0  0  0  0  0  0  0  0
  179.2550  171.5630  135.6570 C   0  0  0  0  0  1  0  0  0  0  0  0
  181.8720  174.6090  137.2740 C   0  0  0  0  0  0  0  0  0  0  0  0
  179.8820  173.2040  137.5050 C   0  0  0  0  0  3  0  0  0  0  0  0
  182.2760  173.9300  135.9880 C   0  0  0  0  0  2  0  0  0  0  0  0
  184.7100  176.9410  137.7850 C   0  0  2  0  0  3  0  0  0  0  0  0
  180.5500  178.5930  137.3950 C   0  0  0  0  0  2  0  0  0  0  0  0
  182.6080  175.6070  137.7890 C   0  0  0  0  0  0  0  0  0  0  0  0
  182.6640  179.9900  139.2770 C   0  0  0  0  0  2  0  0  0  0  0  0
  181.0700  175.7810  139.7520 C   0  0  0  0  0  3  0  0  0  0  0  0
  182.8610  177.4700  139.5330 C   0  0  1  0  0  3  0  0  0  0  0  0
  182.0590  178.4830  137.2060 C   0  0  0  0  0  2  0  0  0  0  0  0
  184.1200  177.9600  138.7860 C   0  0  2  0  0  3  0  0  0  0  0  0
  180.0210  179.9760  137.7070 C   0  0  0  0  0  3  0  0  0  0  0  0
  180.3290  174.7740  139.2930 C   0  0  0  0  0  3  0  0  0  0  0  0
  179.2950  182.1390  139.7070 F   0  0  0  0  0  0  0  0  0  0  0  0
  179.9330  182.2840  138.4920 C   0  0  0  0  0  2  0  0  0  0  0  0
  185.7750  177.5020  136.8340 C   0  0  1  0  0  3  0  0  0  0  0  0
  187.3830  179.0790  137.4960 O   0  0  0  0  0  0  0  0  0  0  0  0
  187.0470  177.9060  137.5190 C   0  0  0  0  0  0  0  0  0  0  0  0
  187.9080  176.9010  138.2240 C   0  0  0  0  0  2  0  0  0  0  0  0
  189.3150  177.2770  138.1450 N   0  0  0  0  0  0  0  0  0  0  0  0
  190.0770  176.0800  137.8250 C   0  0  0  0  0  2  0  0  0  0  0  0
  191.5420  176.3060  138.1300 C   0  0  0  0  0  1  0  0  0  0  0  0
  189.7900  177.8550  139.4080 C   0  0  0  0  0  2  0  0  0  0  0  0
  189.1040  177.3030  140.6590 C   0  0  1  0  0  3  0  0  0  0  0  0
  190.1270  176.5380  141.4760 C   0  0  0  0  0  1  0  0  0  0  0  0
  188.5310  178.4460  141.4930 C   0  0  0  0  0  2  0  0  0  0  0  0
  187.3110  178.0110  142.2860 C   0  0  2  0  0  3  0  0  0  0  0  0
  186.4930  177.4720  144.6020 C   0  0  0  0  0  2  0  0  0  0  0  0
  184.6240  178.2750  142.7490 S   0  0  0  0  0  0  0  0  0  0  0  0
  185.2740  178.3710  144.4520 C   0  0  0  0  0  2  0  0  0  0  0  0
  186.1460  178.9520  142.0180 C   0  0  0  0  0  2  0  0  0  0  0  0
  187.6530  178.0100  143.7730 C   0  0  0  0  0  2  0  0  0  0  0  0
  186.0310  176.6310  135.7770 O   0  0  0  0  0  0  0  0  0  0  0  0
  186.3940  177.4500  134.7110 C   0  0  0  0  0  1  0  0  0  0  0  0
  1 19  1  6  0  0  0
  1 20  1  0  0  0  0
  1 16  1  0  0  0  0
  1 18  1  0  0  0  0
  2 11  1  0  0  0  0
  3 17  1  0  0  0  0
  4 16  1  0  0  0  0
  5 13  1  0  0  0  0
  5 15  1  0  0  0  0
  6 22  1  0  0  0  0
  7 12  1  0  0  0  0
  7  2  2  0  0  0  0
  8  4  1  0  0  0  0
  8 24  1  0  0  0  0
  9  2  1  0  0  0  0
 10 15  2  0  0  0  0
 10  6  1  0  0  0  0
 11  6  2  0  0  0  0
 12 10  1  0  0  0  0
 13 25  1  6  0  0  0
 13 20  1  0  0  0  0
 14 21  1  0  0  0  0
 15  3  1  0  0  0  0
 18  3  1  6  0  0  0
 19 14  1  0  0  0  0
 20 18  1  0  0  0  0
 21  8  2  0  0  0  0
 22 17  2  0  0  0  0
 24 23  1  0  0  0  0
 25 27  1  0  0  0  0
 26 27  2  0  0  0  0
 27 28  1  0  0  0  0
 29 28  1  0  0  0  0
 29 32  1  0  0  0  0
 30 31  1  0  0  0  0
 30 29  1  0  0  0  0
 32 33  1  0  0  0  0
 33 34  1  0  0  0  0
 33 35  1  0  0  0  0
 35 36  1  0  0  0  0
 36 41  1  0  0  0  0
 38 39  1  0  0  0  0
 39 37  1  0  0  0  0
 40 36  1  0  0  0  0
 40 38  1  0  0  0  0
 41 37  1  0  0  0  0
 42 25  1  0  0  0  0
 43 42  1  0  0  0  0
M  END
>  <MODEL>
8

>  <REMARK>
 VINA RESULT:      -6.3      2.565      5.341
  Name = 
  11 active torsions:
  status: ('A' for Active; 'I' for Inactive)
    1  A    between atoms: C_2  and  C_6
    2  A    between atoms: C_2  and  O_12
    3  A    between atoms: C_2  and  C_27
    4  A    between atoms: N_4  and  C_7
    5  A    between atoms: N_4  and  C_10
    6  A    between atoms: N_4  and  C_15
    7  A    between atoms: C_6  and  C_7
    8  A    between atoms: C_11  and  C_14
    9  A    between atoms: C_14  and  C_22
   10  A    between atoms: C_15  and  C_22
   11  A    between atoms: C_19  and  C_37
                            x       y       z     vdW  Elec       q    Type
                         _______ _______ _______ _____ _____    ______ ____

>  <TORSDO>
F 11

$$$$
=
 OpenBabel10262422433D

 43 48  0  0  1  0  0  0  0  0999 V2000
  190.3380  177.6770  143.6230 C   0  0  1  0  0  0  0  0  0  0  0  0
  190.8440  174.9660  137.1800 C   0  0  0  0  0  0  0  0  0  0  0  0
  191.0810  177.9370  141.2530 N   0  0  0  0  0  0  0  0  0  0  0  0
  190.6440  176.8490  145.9800 C   0  0  0  0  0  2  0  0  0  0  0  0
  188.6640  177.4960  141.0130 N   0  0  0  0  0  2  0  0  0  0  0  0
  191.6230  176.4570  138.9470 C   0  0  0  0  0  0  0  0  0  0  0  0
  189.5600  175.0840  137.5320 C   0  0  0  0  0  3  0  0  0  0  0  0
  191.6690  175.7650  145.8130 C   0  0  0  0  0  0  0  0  0  0  0  0
  191.2070  174.0740  136.0520 C   0  0  0  0  0  1  0  0  0  0  0  0
  190.2250  176.6090  139.4210 C   0  0  0  0  0  0  0  0  0  0  0  0
  191.9050  175.6850  137.9010 C   0  0  0  0  0  3  0  0  0  0  0  0
  189.0930  175.9680  138.6560 C   0  0  0  0  0  2  0  0  0  0  0  0
  188.3670  178.5260  141.9940 C   0  0  2  0  0  3  0  0  0  0  0  0
  191.3040  175.3830  143.2900 C   0  0  0  0  0  2  0  0  0  0  0  0
  189.9870  177.3500  140.5140 C   0  0  0  0  0  0  0  0  0  0  0  0
  190.8840  177.9960  145.0100 C   0  0  0  0  0  2  0  0  0  0  0  0
  192.4250  177.8450  140.7570 C   0  0  0  0  0  3  0  0  0  0  0  0
  190.9050  178.6170  142.5470 C   0  0  1  0  0  3  0  0  0  0  0  0
  190.0250  176.2130  143.2740 C   0  0  0  0  0  2  0  0  0  0  0  0
  189.4580  178.7920  143.0560 C   0  0  2  0  0  3  0  0  0  0  0  0
  191.9050  175.1180  144.6530 C   0  0  0  0  0  3  0  0  0  0  0  0
  192.7040  177.1440  139.6600 C   0  0  0  0  0  3  0  0  0  0  0  0
  192.1470  176.1940  148.0820 F   0  0  0  0  0  0  0  0  0  0  0  0
  192.4680  175.3840  147.0120 C   0  0  0  0  0  2  0  0  0  0  0  0
  186.9380  178.4140  142.5410 C   0  0  1  0  0  3  0  0  0  0  0  0
  186.0850  179.3530  140.5660 O   0  0  0  0  0  0  0  0  0  0  0  0
  185.8740  178.5970  141.5010 C   0  0  0  0  0  0  0  0  0  0  0  0
  184.5620  177.8750  141.5890 C   0  0  0  0  0  2  0  0  0  0  0  0
  183.4540  178.8210  141.6540 N   0  0  0  0  0  0  0  0  0  0  0  0
  182.8460  178.7020  142.9700 C   0  0  0  0  0  2  0  0  0  0  0  0
  183.6690  179.4630  143.9870 C   0  0  0  0  0  1  0  0  0  0  0  0
  182.4550  178.5510  140.6120 C   0  0  0  0  0  2  0  0  0  0  0  0
  182.5750  179.4370  139.3700 C   0  0  1  0  0  3  0  0  0  0  0  0
  183.2900  178.6560  138.2850 C   0  0  0  0  0  1  0  0  0  0  0  0
  181.1880  179.8460  138.8800 C   0  0  0  0  0  2  0  0  0  0  0  0
  181.2590  180.9510  137.8400 C   0  0  2  0  0  3  0  0  0  0  0  0
  180.7760  181.4970  135.4350 C   0  0  0  0  0  2  0  0  0  0  0  0
  180.8510  183.5880  137.2220 S   0  0  0  0  0  0  0  0  0  0  0  0
  180.0370  182.7760  135.8040 C   0  0  0  0  0  2  0  0  0  0  0  0
  180.5310  182.1900  138.3410 C   0  0  0  0  0  2  0  0  0  0  0  0
  180.6270  180.4600  136.5420 C   0  0  0  0  0  2  0  0  0  0  0  0
  186.7500  177.2270  143.2460 O   0  0  0  0  0  0  0  0  0  0  0  0
  186.6510  177.6100  144.5820 C   0  0  0  0  0  1  0  0  0  0  0  0
  1 19  1  6  0  0  0
  1 16  1  0  0  0  0
  2  7  2  0  0  0  0
  2 11  1  0  0  0  0
  5 13  1  0  0  0  0
  6 10  1  0  0  0  0
  6 22  1  0  0  0  0
  7 12  1  0  0  0  0
  8  4  1  0  0  0  0
  8 24  1  0  0  0  0
  9  2  1  0  0  0  0
 10 15  2  0  0  0  0
 11  6  2  0  0  0  0
 12 10  1  0  0  0  0
 13 25  1  1  0  0  0
 13 20  1  0  0  0  0
 14 21  1  0  0  0  0
 15  5  1  0  0  0  0
 15  3  1  0  0  0  0
 16  4  1  0  0  0  0
 17  3  1  0  0  0  0
 18  3  1  6  0  0  0
 18 20  1  0  0  0  0
 18  1  1  0  0  0  0
 19 14  1  0  0  0  0
 20  1  1  0  0  0  0
 21  8  2  0  0  0  0
 22 17  2  0  0  0  0
 24 23  1  0  0  0  0
 25 42  1  0  0  0  0
 26 27  2  0  0  0  0
 27 28  1  0  0  0  0
 27 25  1  0  0  0  0
 28 29  1  0  0  0  0
 29 30  1  0  0  0  0
 30 31  1  0  0  0  0
 32 29  1  0  0  0  0
 33 32  1  0  0  0  0
 34 33  1  0  0  0  0
 35 33  1  0  0  0  0
 36 40  1  0  0  0  0
 36 35  1  0  0  0  0
 37 39  1  0  0  0  0
 37 41  1  0  0  0  0
 38 40  1  0  0  0  0
 39 38  1  0  0  0  0
 41 36  1  0  0  0  0
 42 43  1  0  0  0  0
M  END
>  <MODEL>
9

>  <REMARK>
 VINA RESULT:      -6.2      4.329     10.291
  Name = 
  11 active torsions:
  status: ('A' for Active; 'I' for Inactive)
    1  A    between atoms: C_2  and  C_6
    2  A    between atoms: C_2  and  O_12
    3  A    between atoms: C_2  and  C_27
    4  A    between atoms: N_4  and  C_7
    5  A    between atoms: N_4  and  C_10
    6  A    between atoms: N_4  and  C_15
    7  A    between atoms: C_6  and  C_7
    8  A    between atoms: C_11  and  C_14
    9  A    between atoms: C_14  and  C_22
   10  A    between atoms: C_15  and  C_22
   11  A    between atoms: C_19  and  C_37
                            x       y       z     vdW  Elec       q    Type
                         _______ _______ _______ _____ _____    ______ ____

>  <TORSDO>
F 11

$$$$
