=
 OpenBabel10262420553D

 28 32  0  0  1  0  0  0  0  0999 V2000
  190.0970  176.4240  143.6580 C   0  0  0  0  0  0  0  0  0  0  0  0
  185.2790  177.7400  143.0830 C   0  0  0  0  0  2  0  0  0  0  0  0
  188.9620  178.0320  148.2190 C   0  0  0  0  0  1  0  0  0  0  0  0
  184.7180  178.6350  145.3630 C   0  0  0  0  0  0  0  0  0  0  0  0
  186.9670  177.7930  144.9740 C   0  0  0  0  0  0  0  0  0  0  0  0
  183.1080  178.9260  143.5520 C   0  0  0  0  0  0  0  0  0  0  0  0
  185.6810  178.0910  144.4930 C   0  0  0  0  0  0  0  0  0  0  0  0
  186.3190  178.5980  147.1770 C   0  0  0  0  0  3  0  0  0  0  0  0
  183.3720  178.9550  144.8610 C   0  0  0  0  0  3  0  0  0  0  0  0
  189.5350  177.2130  145.9020 C   0  0  0  0  0  0  0  0  0  0  0  0
  187.8990  177.2550  144.1450 N   0  0  0  0  0  0  0  0  0  0  0  0
  185.0380  178.8840  146.6990 C   0  0  0  0  0  3  0  0  0  0  0  0
  191.7620  176.3690  145.4220 C   0  0  0  0  0  3  0  0  0  0  0  0
  188.5900  177.7620  146.7910 C   0  0  0  0  0  0  0  0  0  0  0  0
  190.8390  176.9080  146.3190 C   0  0  0  0  0  3  0  0  0  0  0  0
  181.8040  179.2590  143.0920 N   0  0  0  0  0  1  0  0  0  0  0  0
  184.2100  178.7000  142.5500 C   0  0  0  0  0  2  0  0  0  0  0  0
  187.2950  178.0560  146.3250 C   0  0  0  0  0  0  0  0  0  0  0  0
  191.3920  176.1290  144.0970 C   0  0  0  0  0  3  0  0  0  0  0  0
  189.1600  176.9640  144.5600 C   0  0  0  0  0  0  0  0  0  0  0  0
  189.7440  176.1760  142.2190 C   0  0  0  0  0  2  0  0  0  0  0  0
  190.0000  177.3880  141.3200 C   0  0  2  0  0  3  0  0  0  0  0  0
  190.2150  177.6820  138.9930 N   0  0  0  0  0  0  0  0  0  0  0  0
  188.7990  177.9330  140.8540 O   0  0  0  0  0  0  0  0  0  0  0  0
  192.2510  177.5520  140.3040 C   0  0  0  0  0  1  0  0  0  0  0  0
  190.8390  177.0310  140.1200 C   0  0  1  0  0  3  0  0  0  0  0  0
  189.6750  176.6340  138.1430 C   0  0  0  0  0  1  0  0  0  0  0  0
  189.0790  178.3990  139.5590 C   0  0  0  0  0  2  0  0  0  0  0  0
  1 19  2  0  0  0  0
  1 20  1  0  0  0  0
  2  7  1  0  0  0  0
  4 12  1  0  0  0  0
  5 18  1  0  0  0  0
  6  9  2  0  0  0  0
  7  5  1  0  0  0  0
  7  4  2  0  0  0  0
  9  4  1  0  0  0  0
 10 15  1  0  0  0  0
 10 14  1  0  0  0  0
 11 20  1  0  0  0  0
 11  5  2  0  0  0  0
 12  8  2  0  0  0  0
 13 15  2  0  0  0  0
 14  3  1  0  0  0  0
 16  6  1  0  0  0  0
 17  2  1  0  0  0  0
 17  6  1  0  0  0  0
 18 14  2  0  0  0  0
 18  8  1  0  0  0  0
 19 13  1  0  0  0  0
 20 10  2  0  0  0  0
 21  1  1  0  0  0  0
 22 21  1  6  0  0  0
 23 28  1  0  0  0  0
 23 26  1  0  0  0  0
 24 22  1  0  0  0  0
 26 25  1  1  0  0  0
 26 22  1  0  0  0  0
 27 23  1  0  0  0  0
 28 24  1  0  0  0  0
M  END
>  <MODEL>
1

>  <REMARK>
 VINA RESULT:     -12.3      0.000      0.000
  Name = 
  2 active torsions:
  status: ('A' for Active; 'I' for Inactive)
    1  A    between atoms: C_1  and  C_2
    2  A    between atoms: C_2  and  C_3
                            x       y       z     vdW  Elec       q    Type
                         _______ _______ _______ _____ _____    ______ ____

>  <TORSDO>
F 2

$$$$
=
 OpenBabel10262420553D

 28 32  0  0  1  0  0  0  0  0999 V2000
  189.4190  177.1770  141.5840 C   0  0  0  0  0  0  0  0  0  0  0  0
  184.5370  178.1100  142.3380 C   0  0  0  0  0  2  0  0  0  0  0  0
  189.2810  177.7900  146.5120 C   0  0  0  0  0  1  0  0  0  0  0  0
  184.4690  178.5050  144.8190 C   0  0  0  0  0  0  0  0  0  0  0  0
  186.6090  177.9700  143.7920 C   0  0  0  0  0  0  0  0  0  0  0  0
  182.4740  178.9730  143.4930 C   0  0  0  0  0  0  0  0  0  0  0  0
  185.2330  178.2280  143.6690 C   0  0  0  0  0  0  0  0  0  0  0  0
  186.4440  178.2840  146.1990 C   0  0  0  0  0  3  0  0  0  0  0  0
  183.0290  178.7830  144.6930 C   0  0  0  0  0  3  0  0  0  0  0  0
  189.3470  177.4760  144.0080 C   0  0  0  0  0  0  0  0  0  0  0  0
  187.3520  177.6880  142.6900 N   0  0  0  0  0  0  0  0  0  0  0  0
  185.0740  178.5310  146.0760 C   0  0  0  0  0  3  0  0  0  0  0  0
  191.4450  176.9540  142.8990 C   0  0  0  0  0  3  0  0  0  0  0  0
  188.6060  177.7570  145.1720 C   0  0  0  0  0  0  0  0  0  0  0  0
  190.7270  177.2260  144.0650 C   0  0  0  0  0  3  0  0  0  0  0  0
  181.0840  179.2600  143.4030 N   0  0  0  0  0  1  0  0  0  0  0  0
  183.3260  179.0440  142.2530 C   0  0  0  0  0  2  0  0  0  0  0  0
  187.2240  178.0070  145.0660 C   0  0  0  0  0  0  0  0  0  0  0  0
  190.7940  176.9320  141.6650 C   0  0  0  0  0  3  0  0  0  0  0  0
  188.6880  177.4470  142.7560 C   0  0  0  0  0  0  0  0  0  0  0  0
  188.7590  177.1700  140.2350 C   0  0  0  0  0  2  0  0  0  0  0  0
  189.5520  177.9340  139.1720 C   0  0  2  0  0  3  0  0  0  0  0  0
  189.5780  177.9080  136.8170 N   0  0  0  0  0  0  0  0  0  0  0  0
  188.8510  179.0620  138.7330 O   0  0  0  0  0  0  0  0  0  0  0  0
  191.3040  176.6600  137.9750 C   0  0  0  0  0  1  0  0  0  0  0  0
  189.8460  177.0790  137.9670 C   0  0  1  0  0  3  0  0  0  0  0  0
  188.4150  177.3460  136.1500 C   0  0  0  0  0  1  0  0  0  0  0  0
  189.1700  179.1940  137.3720 C   0  0  0  0  0  2  0  0  0  0  0  0
  1 19  2  0  0  0  0
  1 20  1  0  0  0  0
  2  7  1  0  0  0  0
  4 12  1  0  0  0  0
  5 18  1  0  0  0  0
  6  9  2  0  0  0  0
  7  5  1  0  0  0  0
  7  4  2  0  0  0  0
  9  4  1  0  0  0  0
 10 15  1  0  0  0  0
 10 14  1  0  0  0  0
 11 20  1  0  0  0  0
 11  5  2  0  0  0  0
 12  8  2  0  0  0  0
 13 15  2  0  0  0  0
 14  3  1  0  0  0  0
 16  6  1  0  0  0  0
 17  2  1  0  0  0  0
 17  6  1  0  0  0  0
 18 14  2  0  0  0  0
 18  8  1  0  0  0  0
 19 13  1  0  0  0  0
 20 10  2  0  0  0  0
 21  1  1  0  0  0  0
 22 21  1  1  0  0  0
 23 28  1  0  0  0  0
 23 26  1  0  0  0  0
 24 22  1  0  0  0  0
 26 25  1  1  0  0  0
 26 22  1  0  0  0  0
 27 23  1  0  0  0  0
 28 24  1  0  0  0  0
M  END
>  <MODEL>
2

>  <REMARK>
 VINA RESULT:     -11.1      1.300      1.848
  Name = 
  2 active torsions:
  status: ('A' for Active; 'I' for Inactive)
    1  A    between atoms: C_1  and  C_2
    2  A    between atoms: C_2  and  C_3
                            x       y       z     vdW  Elec       q    Type
                         _______ _______ _______ _____ _____    ______ ____

>  <TORSDO>
F 2

$$$$
=
 OpenBabel10262420553D

 28 32  0  0  1  0  0  0  0  0999 V2000
  187.1610  178.3370  141.0130 C   0  0  0  0  0  0  0  0  0  0  0  0
  190.5290  177.2840  144.5940 C   0  0  0  0  0  2  0  0  0  0  0  0
  184.3500  178.5430  145.1030 C   0  0  0  0  0  1  0  0  0  0  0  0
  189.1000  177.3020  146.6610 C   0  0  0  0  0  0  0  0  0  0  0  0
  188.0430  177.7730  144.5210 C   0  0  0  0  0  0  0  0  0  0  0  0
  191.4050  176.5160  146.8260 C   0  0  0  0  0  0  0  0  0  0  0  0
  189.1860  177.4250  145.2620 C   0  0  0  0  0  0  0  0  0  0  0  0
  186.7460  177.8530  146.5780 C   0  0  0  0  0  3  0  0  0  0  0  0
  190.2930  176.9320  147.4390 C   0  0  0  0  0  3  0  0  0  0  0  0
  185.7810  178.4400  143.0270 C   0  0  0  0  0  0  0  0  0  0  0  0
  188.1170  177.9070  143.1710 N   0  0  0  0  0  0  0  0  0  0  0  0
  187.8850  177.5170  147.3130 C   0  0  0  0  0  3  0  0  0  0  0  0
  184.8030  178.8820  140.8480 C   0  0  0  0  0  3  0  0  0  0  0  0
  185.6690  178.3170  144.4260 C   0  0  0  0  0  0  0  0  0  0  0  0
  184.6730  178.7690  142.2330 C   0  0  0  0  0  3  0  0  0  0  0  0
  192.5370  176.1450  147.6030 N   0  0  0  0  0  1  0  0  0  0  0  0
  191.4230  176.2860  145.3370 C   0  0  0  0  0  2  0  0  0  0  0  0
  186.8090  177.9800  145.1820 C   0  0  0  0  0  0  0  0  0  0  0  0
  186.0410  178.6650  140.2410 C   0  0  0  0  0  3  0  0  0  0  0  0
  187.0370  178.2260  142.4110 C   0  0  0  0  0  0  0  0  0  0  0  0
  188.4710  178.0850  140.3220 C   0  0  0  0  0  2  0  0  0  0  0  0
  188.3100  177.7040  138.8480 C   0  0  2  0  0  3  0  0  0  0  0  0
  189.8190  177.1240  137.1350 N   0  0  0  0  0  0  0  0  0  0  0  0
  188.2510  176.3150  138.6910 O   0  0  0  0  0  0  0  0  0  0  0  0
  188.9970  179.4050  137.1870 C   0  0  0  0  0  1  0  0  0  0  0  0
  189.4520  178.2140  138.0080 C   0  0  1  0  0  3  0  0  0  0  0  0
  191.1420  176.6800  137.5430 C   0  0  0  0  0  1  0  0  0  0  0  0
  188.8890  176.0510  137.4670 C   0  0  0  0  0  2  0  0  0  0  0  0
  1 20  1  0  0  0  0
  2  7  1  0  0  0  0
  2 17  1  0  0  0  0
  4 12  1  0  0  0  0
  4  9  1  0  0  0  0
  5 18  1  0  0  0  0
  5  7  1  0  0  0  0
  6  9  2  0  0  0  0
  6 16  1  0  0  0  0
  7  4  2  0  0  0  0
  8 12  2  0  0  0  0
 10 14  1  0  0  0  0
 11  5  2  0  0  0  0
 13 15  2  0  0  0  0
 14  3  1  0  0  0  0
 14 18  2  0  0  0  0
 15 10  1  0  0  0  0
 17  6  1  0  0  0  0
 18  8  1  0  0  0  0
 19 13  1  0  0  0  0
 19  1  2  0  0  0  0
 20 10  2  0  0  0  0
 20 11  1  0  0  0  0
 21  1  1  0  0  0  0
 22 21  1  1  0  0  0
 23 28  1  0  0  0  0
 23 27  1  0  0  0  0
 23 26  1  0  0  0  0
 24 22  1  0  0  0  0
 26 25  1  6  0  0  0
 26 22  1  0  0  0  0
 28 24  1  0  0  0  0
M  END
>  <MODEL>
3

>  <REMARK>
 VINA RESULT:     -11.0      1.931      5.323
  Name = 
  2 active torsions:
  status: ('A' for Active; 'I' for Inactive)
    1  A    between atoms: C_1  and  C_2
    2  A    between atoms: C_2  and  C_3
                            x       y       z     vdW  Elec       q    Type
                         _______ _______ _______ _____ _____    ______ ____

>  <TORSDO>
F 2

$$$$
=
 OpenBabel10262420553D

 28 32  0  0  1  0  0  0  0  0999 V2000
  188.7670  176.9120  143.5110 C   0  0  0  0  0  0  0  0  0  0  0  0
  184.2950  177.8000  141.3920 C   0  0  0  0  0  2  0  0  0  0  0  0
  186.2110  178.7710  147.3440 C   0  0  0  0  0  1  0  0  0  0  0  0
  183.0190  178.8200  143.3020 C   0  0  0  0  0  0  0  0  0  0  0  0
  185.3190  178.1290  143.6880 C   0  0  0  0  0  0  0  0  0  0  0  0
  182.0270  178.8450  141.0710 C   0  0  0  0  0  0  0  0  0  0  0  0
  184.2280  178.2890  142.8170 C   0  0  0  0  0  0  0  0  0  0  0  0
  183.9880  179.0480  145.5070 C   0  0  0  0  0  3  0  0  0  0  0  0
  181.8760  178.9950  142.3900 C   0  0  0  0  0  3  0  0  0  0  0  0
  187.5060  177.8250  145.3950 C   0  0  0  0  0  0  0  0  0  0  0  0
  186.4860  177.6040  143.2330 N   0  0  0  0  0  0  0  0  0  0  0  0
  182.9020  179.1960  144.6410 C   0  0  0  0  0  3  0  0  0  0  0  0
  189.8130  177.1230  145.6890 C   0  0  0  0  0  3  0  0  0  0  0  0
  186.3080  178.3650  145.9020 C   0  0  0  0  0  0  0  0  0  0  0  0
  188.6340  177.6560  146.2120 C   0  0  0  0  0  3  0  0  0  0  0  0
  180.9100  179.0390  140.2120 N   0  0  0  0  0  1  0  0  0  0  0  0
  183.3920  178.6290  140.4730 C   0  0  0  0  0  2  0  0  0  0  0  0
  185.2040  178.5200  145.0430 C   0  0  0  0  0  0  0  0  0  0  0  0
  189.8790  176.7550  144.3450 C   0  0  0  0  0  3  0  0  0  0  0  0
  187.5730  177.4450  144.0330 C   0  0  0  0  0  0  0  0  0  0  0  0
  188.8840  176.5290  142.0630 C   0  0  0  0  0  2  0  0  0  0  0  0
  189.4630  177.6450  141.1900 C   0  0  2  0  0  3  0  0  0  0  0  0
  190.1940  177.7590  138.9540 N   0  0  0  0  0  0  0  0  0  0  0  0
  188.4590  178.2810  140.4530 O   0  0  0  0  0  0  0  0  0  0  0  0
  191.8800  177.5030  140.6780 C   0  0  0  0  0  1  0  0  0  0  0  0
  190.4870  177.1220  140.2160 C   0  0  1  0  0  3  0  0  0  0  0  0
  189.7260  176.7190  138.0520 C   0  0  0  0  0  1  0  0  0  0  0  0
  189.0560  178.6280  139.2300 C   0  0  0  0  0  2  0  0  0  0  0  0
  1 20  2  0  0  0  0
  1 19  1  0  0  0  0
  2  7  1  0  0  0  0
  4 12  1  0  0  0  0
  5 18  1  0  0  0  0
  6  9  2  0  0  0  0
  7  4  2  0  0  0  0
  7  5  1  0  0  0  0
  9  4  1  0  0  0  0
 10 14  1  0  0  0  0
 10 15  2  0  0  0  0
 11  5  2  0  0  0  0
 11 20  1  0  0  0  0
 12  8  2  0  0  0  0
 13 15  1  0  0  0  0
 14  3  1  0  0  0  0
 16  6  1  0  0  0  0
 17  6  1  0  0  0  0
 17  2  1  0  0  0  0
 18  8  1  0  0  0  0
 18 14  2  0  0  0  0
 19 13  2  0  0  0  0
 20 10  1  0  0  0  0
 21  1  1  0  0  0  0
 22 21  1  6  0  0  0
 23 28  1  0  0  0  0
 23 26  1  0  0  0  0
 24 22  1  0  0  0  0
 26 25  1  1  0  0  0
 26 22  1  0  0  0  0
 27 23  1  0  0  0  0
 28 24  1  0  0  0  0
M  END
>  <MODEL>
4

>  <REMARK>
 VINA RESULT:     -10.9      1.182      2.041
  Name = 
  2 active torsions:
  status: ('A' for Active; 'I' for Inactive)
    1  A    between atoms: C_1  and  C_2
    2  A    between atoms: C_2  and  C_3
                            x       y       z     vdW  Elec       q    Type
                         _______ _______ _______ _____ _____    ______ ____

>  <TORSDO>
F 2

$$$$
=
 OpenBabel10262420553D

 28 32  0  0  1  0  0  0  0  0999 V2000
  191.0580  176.2010  145.4410 C   0  0  0  0  0  0  0  0  0  0  0  0
  186.8830  177.3700  142.8960 C   0  0  0  0  0  2  0  0  0  0  0  0
  188.2680  178.2420  149.0080 C   0  0  0  0  0  1  0  0  0  0  0  0
  185.4960  178.4810  144.6730 C   0  0  0  0  0  0  0  0  0  0  0  0
  187.6960  177.6420  145.2820 C   0  0  0  0  0  0  0  0  0  0  0  0
  184.7310  178.5590  142.3560 C   0  0  0  0  0  0  0  0  0  0  0  0
  186.7090  177.8680  144.3080 C   0  0  0  0  0  0  0  0  0  0  0  0
  186.2580  178.6550  146.9630 C   0  0  0  0  0  3  0  0  0  0  0  0
  184.4620  178.7250  143.6550 C   0  0  0  0  0  3  0  0  0  0  0  0
  189.6820  177.2030  147.1940 C   0  0  0  0  0  0  0  0  0  0  0  0
  188.8660  177.0400  144.9420 N   0  0  0  0  0  0  0  0  0  0  0  0
  185.2740  178.8690  145.9950 C   0  0  0  0  0  3  0  0  0  0  0  0
  191.8980  176.3530  147.7110 C   0  0  0  0  0  3  0  0  0  0  0  0
  188.4780  177.8230  147.5830 C   0  0  0  0  0  0  0  0  0  0  0  0
  190.7110  176.9650  148.1170 C   0  0  0  0  0  3  0  0  0  0  0  0
  183.7190  178.8220  141.3920 N   0  0  0  0  0  1  0  0  0  0  0  0
  186.1310  178.2520  141.8940 C   0  0  0  0  0  2  0  0  0  0  0  0
  187.4760  178.0460  146.6200 C   0  0  0  0  0  0  0  0  0  0  0  0
  192.0710  175.9750  146.3790 C   0  0  0  0  0  3  0  0  0  0  0  0
  189.8570  176.8130  145.8450 C   0  0  0  0  0  0  0  0  0  0  0  0
  191.2910  175.8040  144.0110 C   0  0  0  0  0  2  0  0  0  0  0  0
  190.5590  176.7010  143.0100 C   0  0  2  0  0  3  0  0  0  0  0  0
  191.2260  177.9020  141.0970 N   0  0  0  0  0  0  0  0  0  0  0  0
  190.1420  175.9720  141.8910 O   0  0  0  0  0  0  0  0  0  0  0  0
  191.0010  179.1300  143.1770 C   0  0  0  0  0  1  0  0  0  0  0  0
  191.4300  177.8300  142.5250 C   0  0  1  0  0  3  0  0  0  0  0  0
  192.4750  177.5030  140.4690 C   0  0  0  0  0  1  0  0  0  0  0  0
  190.2500  176.8590  140.8070 C   0  0  0  0  0  2  0  0  0  0  0  0
  1 20  2  0  0  0  0
  1 19  1  0  0  0  0
  2  7  1  0  0  0  0
  4 12  1  0  0  0  0
  5 18  1  0  0  0  0
  6  9  2  0  0  0  0
  7  4  2  0  0  0  0
  7  5  1  0  0  0  0
  9  4  1  0  0  0  0
 10 14  1  0  0  0  0
 10 15  2  0  0  0  0
 11  5  2  0  0  0  0
 11 20  1  0  0  0  0
 12  8  2  0  0  0  0
 13 15  1  0  0  0  0
 14  3  1  0  0  0  0
 16  6  1  0  0  0  0
 17  6  1  0  0  0  0
 17  2  1  0  0  0  0
 18  8  1  0  0  0  0
 18 14  2  0  0  0  0
 19 13  2  0  0  0  0
 20 10  1  0  0  0  0
 21  1  1  0  0  0  0
 22 21  1  1  0  0  0
 23 26  1  0  0  0  0
 24 22  1  0  0  0  0
 26 22  1  0  0  0  0
 26 25  1  1  0  0  0
 27 23  1  0  0  0  0
 28 23  1  0  0  0  0
 28 24  1  0  0  0  0
M  END
>  <MODEL>
5

>  <REMARK>
 VINA RESULT:     -10.3      1.391      1.981
  Name = 
  2 active torsions:
  status: ('A' for Active; 'I' for Inactive)
    1  A    between atoms: C_1  and  C_2
    2  A    between atoms: C_2  and  C_3
                            x       y       z     vdW  Elec       q    Type
                         _______ _______ _______ _____ _____    ______ ____

>  <TORSDO>
F 2

$$$$
=
 OpenBabel10262420553D

 28 32  0  0  1  0  0  0  0  0999 V2000
  184.8950  178.8260  143.8240 C   0  0  0  0  0  0  0  0  0  0  0  0
  188.3400  177.9830  140.2610 C   0  0  0  0  0  2  0  0  0  0  0  0
  188.6830  177.0630  146.5110 C   0  0  0  0  0  1  0  0  0  0  0  0
  190.2320  177.0110  141.5990 C   0  0  0  0  0  0  0  0  0  0  0  0
  188.2060  177.6690  142.7730 C   0  0  0  0  0  0  0  0  0  0  0  0
  190.3670  176.9720  139.1620 C   0  0  0  0  0  0  0  0  0  0  0  0
  188.9190  177.5160  141.5710 C   0  0  0  0  0  0  0  0  0  0  0  0
  190.1140  176.7980  144.0060 C   0  0  0  0  0  3  0  0  0  0  0  0
  190.9790  176.8430  140.3420 C   0  0  0  0  0  3  0  0  0  0  0  0
  186.7610  177.9610  145.1440 C   0  0  0  0  0  0  0  0  0  0  0  0
  186.9420  178.1680  142.7590 N   0  0  0  0  0  0  0  0  0  0  0  0
  190.8240  176.6560  142.8120 C   0  0  0  0  0  3  0  0  0  0  0  0
  184.6950  178.6280  146.2330 C   0  0  0  0  0  3  0  0  0  0  0  0
  188.0720  177.4480  145.1960 C   0  0  0  0  0  0  0  0  0  0  0  0
  185.9940  178.1220  146.3070 C   0  0  0  0  0  3  0  0  0  0  0  0
  191.1090  176.7850  137.9630 N   0  0  0  0  0  1  0  0  0  0  0  0
  188.8740  177.1570  139.0860 C   0  0  0  0  0  2  0  0  0  0  0  0
  188.8020  177.2990  144.0010 C   0  0  0  0  0  0  0  0  0  0  0  0
  184.1480  178.9760  144.9980 C   0  0  0  0  0  3  0  0  0  0  0  0
  186.2070  178.3200  143.8920 C   0  0  0  0  0  0  0  0  0  0  0  0
  184.2630  179.1870  142.5100 C   0  0  0  0  0  2  0  0  0  0  0  0
  183.1170  178.2530  142.1160 C   0  0  2  0  0  3  0  0  0  0  0  0
  181.1840  178.5020  140.7930 N   0  0  0  0  0  0  0  0  0  0  0  0
  183.3690  177.6360  140.8870 O   0  0  0  0  0  0  0  0  0  0  0  0
  180.9310  178.6720  143.1990 C   0  0  0  0  0  1  0  0  0  0  0  0
  181.8070  178.9880  142.0020 C   0  0  1  0  0  3  0  0  0  0  0  0
  181.1680  179.6080  139.8500 C   0  0  0  0  0  1  0  0  0  0  0  0
  182.1140  177.5090  140.2680 C   0  0  0  0  0  2  0  0  0  0  0  0
  1 20  2  0  0  0  0
  1 19  1  0  0  0  0
  2  7  1  0  0  0  0
  4 12  1  0  0  0  0
  5 18  1  0  0  0  0
  6  9  2  0  0  0  0
  7  4  2  0  0  0  0
  7  5  1  0  0  0  0
  9  4  1  0  0  0  0
 10 14  1  0  0  0  0
 10 15  2  0  0  0  0
 11  5  2  0  0  0  0
 11 20  1  0  0  0  0
 12  8  2  0  0  0  0
 13 15  1  0  0  0  0
 14  3  1  0  0  0  0
 16  6  1  0  0  0  0
 17  6  1  0  0  0  0
 17  2  1  0  0  0  0
 18  8  1  0  0  0  0
 18 14  2  0  0  0  0
 19 13  2  0  0  0  0
 20 10  1  0  0  0  0
 21  1  1  0  0  0  0
 22 21  1  6  0  0  0
 23 26  1  0  0  0  0
 24 22  1  0  0  0  0
 26 22  1  0  0  0  0
 26 25  1  1  0  0  0
 27 23  1  0  0  0  0
 28 23  1  0  0  0  0
 28 24  1  0  0  0  0
M  END
>  <MODEL>
6

>  <REMARK>
 VINA RESULT:     -10.2      1.893      6.715
  Name = 
  2 active torsions:
  status: ('A' for Active; 'I' for Inactive)
    1  A    between atoms: C_1  and  C_2
    2  A    between atoms: C_2  and  C_3
                            x       y       z     vdW  Elec       q    Type
                         _______ _______ _______ _____ _____    ______ ____

>  <TORSDO>
F 2

$$$$
=
 OpenBabel10262420553D

 28 32  0  0  1  0  0  0  0  0999 V2000
  189.7950  177.6430  140.3950 C   0  0  0  0  0  0  0  0  0  0  0  0
  185.1550  178.2000  142.2490 C   0  0  0  0  0  2  0  0  0  0  0  0
  190.6460  177.3650  145.2810 C   0  0  0  0  0  1  0  0  0  0  0  0
  185.5850  178.1460  144.7250 C   0  0  0  0  0  0  0  0  0  0  0  0
  187.4790  177.9010  143.2180 C   0  0  0  0  0  0  0  0  0  0  0  0
  183.3590  178.7480  143.9250 C   0  0  0  0  0  0  0  0  0  0  0  0
  186.1040  178.1130  143.4170 C   0  0  0  0  0  0  0  0  0  0  0  0
  187.7990  177.7760  145.6270 C   0  0  0  0  0  3  0  0  0  0  0  0
  184.1470  178.3740  144.9370 C   0  0  0  0  0  3  0  0  0  0  0  0
  190.2100  177.5040  142.7990 C   0  0  0  0  0  0  0  0  0  0  0  0
  187.9880  177.8540  141.9600 N   0  0  0  0  0  0  0  0  0  0  0  0
  186.4300  177.9760  145.8220 C   0  0  0  0  0  3  0  0  0  0  0  0
  192.0460  177.2850  141.2240 C   0  0  0  0  0  3  0  0  0  0  0  0
  189.7150  177.5390  144.1170 C   0  0  0  0  0  0  0  0  0  0  0  0
  191.5750  177.3120  142.5370 C   0  0  0  0  0  3  0  0  0  0  0  0
  181.9760  178.9820  144.1630 N   0  0  0  0  0  1  0  0  0  0  0  0
  183.9430  179.0780  142.5760 C   0  0  0  0  0  2  0  0  0  0  0  0
  188.3380  177.7400  144.3310 C   0  0  0  0  0  0  0  0  0  0  0  0
  191.1610  177.4510  140.1580 C   0  0  0  0  0  3  0  0  0  0  0  0
  189.3120  177.6670  141.7170 C   0  0  0  0  0  0  0  0  0  0  0  0
  188.8760  177.8440  139.2230 C   0  0  0  0  0  2  0  0  0  0  0  0
  189.5170  177.4700  137.8840 C   0  0  2  0  0  3  0  0  0  0  0  0
  188.7620  176.3150  135.9760 N   0  0  0  0  0  0  0  0  0  0  0  0
  189.2300  178.4250  136.9040 O   0  0  0  0  0  0  0  0  0  0  0  0
  190.1100  175.0870  137.5740 C   0  0  0  0  0  1  0  0  0  0  0  0
  189.0310  176.1350  137.3820 C   0  0  1  0  0  3  0  0  0  0  0  0
  187.3230  176.2000  135.8010 C   0  0  0  0  0  1  0  0  0  0  0  0
  189.1130  177.7040  135.7040 C   0  0  0  0  0  2  0  0  0  0  0  0
  1 20  1  0  0  0  0
  2 17  1  0  0  0  0
  2  7  1  0  0  0  0
  4  9  1  0  0  0  0
  4 12  1  0  0  0  0
  5  7  1  0  0  0  0
  5 18  1  0  0  0  0
  6 16  1  0  0  0  0
  6  9  2  0  0  0  0
  7  4  2  0  0  0  0
  8 12  2  0  0  0  0
 10 14  1  0  0  0  0
 11  5  2  0  0  0  0
 13 15  2  0  0  0  0
 14 18  2  0  0  0  0
 14  3  1  0  0  0  0
 15 10  1  0  0  0  0
 17  6  1  0  0  0  0
 18  8  1  0  0  0  0
 19  1  2  0  0  0  0
 19 13  1  0  0  0  0
 20 11  1  0  0  0  0
 20 10  2  0  0  0  0
 21  1  1  0  0  0  0
 22 21  1  1  0  0  0
 23 26  1  0  0  0  0
 24 22  1  0  0  0  0
 26 25  1  6  0  0  0
 26 22  1  0  0  0  0
 27 23  1  0  0  0  0
 28 23  1  0  0  0  0
 28 24  1  0  0  0  0
M  END
>  <MODEL>
7

>  <REMARK>
 VINA RESULT:      -9.9      1.689      2.933
  Name = 
  2 active torsions:
  status: ('A' for Active; 'I' for Inactive)
    1  A    between atoms: C_1  and  C_2
    2  A    between atoms: C_2  and  C_3
                            x       y       z     vdW  Elec       q    Type
                         _______ _______ _______ _____ _____    ______ ____

>  <TORSDO>
F 2

$$$$
=
 OpenBabel10262420553D

 28 32  0  0  1  0  0  0  0  0999 V2000
  187.2600  178.2540  139.8130 C   0  0  0  0  0  0  0  0  0  0  0  0
  187.2820  177.6190  144.8000 C   0  0  0  0  0  2  0  0  0  0  0  0
  192.0530  177.2620  140.6600 C   0  0  0  0  0  1  0  0  0  0  0  0
  189.7180  177.2000  145.2510 C   0  0  0  0  0  0  0  0  0  0  0  0
  189.0170  177.5770  142.9520 C   0  0  0  0  0  0  0  0  0  0  0  0
  188.2060  177.5230  147.1400 C   0  0  0  0  0  0  0  0  0  0  0  0
  188.7050  177.4970  144.3210 C   0  0  0  0  0  0  0  0  0  0  0  0
  191.3440  177.0810  143.4630 C   0  0  0  0  0  3  0  0  0  0  0  0
  189.3970  177.1220  146.6850 C   0  0  0  0  0  3  0  0  0  0  0  0
  189.6170  177.7630  140.2330 C   0  0  0  0  0  0  0  0  0  0  0  0
  188.0440  177.8490  142.0440 N   0  0  0  0  0  0  0  0  0  0  0  0
  191.0290  176.9920  144.8210 C   0  0  0  0  0  3  0  0  0  0  0  0
  188.8330  178.1670  137.9690 C   0  0  0  0  0  3  0  0  0  0  0  0
  190.6480  177.4710  141.1450 C   0  0  0  0  0  0  0  0  0  0  0  0
  189.8680  177.8720  138.8570 C   0  0  0  0  0  3  0  0  0  0  0  0
  187.9290  177.4550  148.5330 N   0  0  0  0  0  1  0  0  0  0  0  0
  187.2160  178.1890  146.2210 C   0  0  0  0  0  2  0  0  0  0  0  0
  190.3490  177.3770  142.5180 C   0  0  0  0  0  0  0  0  0  0  0  0
  187.5350  178.3580  138.4450 C   0  0  0  0  0  3  0  0  0  0  0  0
  188.2990  177.9520  140.7130 C   0  0  0  0  0  0  0  0  0  0  0  0
  185.8560  178.4930  140.2910 C   0  0  0  0  0  2  0  0  0  0  0  0
  184.8830  178.8290  139.1580 C   0  0  2  0  0  3  0  0  0  0  0  0
  182.5430  178.7050  138.9200 N   0  0  0  0  0  0  0  0  0  0  0  0
  184.3790  180.1260  139.2950 O   0  0  0  0  0  0  0  0  0  0  0  0
  183.8680  176.9100  137.9700 C   0  0  0  0  0  1  0  0  0  0  0  0
  183.7120  177.8820  139.1230 C   0  0  1  0  0  3  0  0  0  0  0  0
  181.7580  178.6360  140.1420 C   0  0  0  0  0  1  0  0  0  0  0  0
  183.0570  180.0650  138.8210 C   0  0  0  0  0  2  0  0  0  0  0  0
  1 21  1  0  0  0  0
  1 20  1  0  0  0  0
  2 17  1  0  0  0  0
  3 14  1  0  0  0  0
  4  9  1  0  0  0  0
  5  7  1  0  0  0  0
  6 16  1  0  0  0  0
  7  2  1  0  0  0  0
  7  4  2  0  0  0  0
  8 12  2  0  0  0  0
  9  6  2  0  0  0  0
 10 20  2  0  0  0  0
 10 14  1  0  0  0  0
 11  5  2  0  0  0  0
 12  4  1  0  0  0  0
 13 19  1  0  0  0  0
 13 15  2  0  0  0  0
 14 18  2  0  0  0  0
 15 10  1  0  0  0  0
 17  6  1  0  0  0  0
 18  5  1  0  0  0  0
 18  8  1  0  0  0  0
 19  1  2  0  0  0  0
 20 11  1  0  0  0  0
 22 24  1  0  0  0  0
 22 21  1  1  0  0  0
 23 26  1  0  0  0  0
 23 27  1  0  0  0  0
 26 25  1  6  0  0  0
 26 22  1  0  0  0  0
 28 23  1  0  0  0  0
 28 24  1  0  0  0  0
M  END
>  <MODEL>
8

>  <REMARK>
 VINA RESULT:      -9.6      2.529      6.212
  Name = 
  2 active torsions:
  status: ('A' for Active; 'I' for Inactive)
    1  A    between atoms: C_1  and  C_2
    2  A    between atoms: C_2  and  C_3
                            x       y       z     vdW  Elec       q    Type
                         _______ _______ _______ _____ _____    ______ ____

>  <TORSDO>
F 2

$$$$
=
 OpenBabel10262420553D

 28 32  0  0  1  0  0  0  0  0999 V2000
  183.4780  178.6530  141.9810 C   0  0  0  0  0  0  0  0  0  0  0  0
  188.4350  178.0000  141.4490 C   0  0  0  0  0  2  0  0  0  0  0  0
  184.9340  178.2490  146.7130 C   0  0  0  0  0  1  0  0  0  0  0  0
  189.1710  177.7100  143.8340 C   0  0  0  0  0  0  0  0  0  0  0  0
  186.8090  178.0940  143.3930 C   0  0  0  0  0  0  0  0  0  0  0  0
  190.7750  177.2900  142.0430 C   0  0  0  0  0  0  0  0  0  0  0  0
  188.1190  177.9010  142.9190 C   0  0  0  0  0  0  0  0  0  0  0  0
  187.6160  177.8870  145.6790 C   0  0  0  0  0  3  0  0  0  0  0  0
  190.5420  177.5010  143.3420 C   0  0  0  0  0  3  0  0  0  0  0  0
  184.1980  178.4570  144.3090 C   0  0  0  0  0  0  0  0  0  0  0  0
  185.7890  178.2920  142.5180 N   0  0  0  0  0  0  0  0  0  0  0  0
  188.9170  177.7050  145.2060 C   0  0  0  0  0  3  0  0  0  0  0  0
  181.8560  178.8260  143.7770 C   0  0  0  0  0  3  0  0  0  0  0  0
  185.2330  178.2620  145.2430 C   0  0  0  0  0  0  0  0  0  0  0  0
  182.8690  178.6390  144.7190 C   0  0  0  0  0  3  0  0  0  0  0  0
  192.1080  177.0710  141.5980 N   0  0  0  0  0  1  0  0  0  0  0  0
  189.6350  177.1250  141.0730 C   0  0  0  0  0  2  0  0  0  0  0  0
  186.5510  178.0780  144.7840 C   0  0  0  0  0  0  0  0  0  0  0  0
  182.1600  178.8310  142.4150 C   0  0  0  0  0  3  0  0  0  0  0  0
  184.5040  178.4680  142.9270 C   0  0  0  0  0  0  0  0  0  0  0  0
  183.7620  178.6380  140.5060 C   0  0  0  0  0  2  0  0  0  0  0  0
  182.6960  177.8970  139.6950 C   0  0  2  0  0  3  0  0  0  0  0  0
  182.4250  177.4120  137.4060 N   0  0  0  0  0  0  0  0  0  0  0  0
  183.0490  176.5560  139.5060 O   0  0  0  0  0  0  0  0  0  0  0  0
  181.1920  179.2930  138.3130 C   0  0  0  0  0  1  0  0  0  0  0  0
  182.4930  178.5140  138.3370 C   0  0  1  0  0  3  0  0  0  0  0  0
  183.6120  177.4890  136.5700 C   0  0  0  0  0  1  0  0  0  0  0  0
  182.5620  176.2190  138.2320 C   0  0  0  0  0  2  0  0  0  0  0  0
  1 19  2  0  0  0  0
  1 20  1  0  0  0  0
  2  7  1  0  0  0  0
  4 12  1  0  0  0  0
  5 18  1  0  0  0  0
  6  9  2  0  0  0  0
  7  5  1  0  0  0  0
  7  4  2  0  0  0  0
  9  4  1  0  0  0  0
 10 15  1  0  0  0  0
 10 14  1  0  0  0  0
 11 20  1  0  0  0  0
 11  5  2  0  0  0  0
 12  8  2  0  0  0  0
 13 15  2  0  0  0  0
 14  3  1  0  0  0  0
 16  6  1  0  0  0  0
 17  2  1  0  0  0  0
 17  6  1  0  0  0  0
 18 14  2  0  0  0  0
 18  8  1  0  0  0  0
 19 13  1  0  0  0  0
 20 10  2  0  0  0  0
 21  1  1  0  0  0  0
 22 21  1  6  0  0  0
 23 28  1  0  0  0  0
 23 26  1  0  0  0  0
 24 22  1  0  0  0  0
 26 25  1  1  0  0  0
 26 22  1  0  0  0  0
 27 23  1  0  0  0  0
 28 24  1  0  0  0  0
M  END
>  <MODEL>
9

>  <REMARK>
 VINA RESULT:      -9.5      2.950      6.699
  Name = 
  2 active torsions:
  status: ('A' for Active; 'I' for Inactive)
    1  A    between atoms: C_1  and  C_2
    2  A    between atoms: C_2  and  C_3
                            x       y       z     vdW  Elec       q    Type
                         _______ _______ _______ _____ _____    ______ ____

>  <TORSDO>
F 2

$$$$
