=
 OpenBabel10262419233D

 31 33  0  0  1  0  0  0  0  0999 V2000
  192.2050  175.3160  143.9390 F   0  0  0  0  0  0  0  0  0  0  0  0
  188.6640  178.0860  144.7680 C   0  0  1  0  0  3  0  0  0  0  0  0
  190.1830  178.2660  144.9570 C   0  0  0  0  0  2  0  0  0  0  0  0
  191.4070  176.4240  143.7140 C   0  0  0  0  0  0  0  0  0  0  0  0
  190.5690  175.6070  141.6720 O   0  0  0  0  0  0  0  0  0  0  0  0
  188.8320  176.1270  143.1580 C   0  0  0  0  0  2  0  0  0  0  0  0
  188.3100  177.5660  143.3400 C   0  0  1  0  0  0  0  0  0  0  0  0
  190.2880  176.0260  142.7840 C   0  0  0  0  0  0  0  0  0  0  0  0
  190.9200  176.9340  145.0670 C   0  0  0  0  0  2  0  0  0  0  0  0
  192.1790  177.4000  143.1080 F   0  0  0  0  0  0  0  0  0  0  0  0
  188.0090  177.3070  145.9440 C   0  0  1  0  0  3  0  0  0  0  0  0
  188.8560  178.0220  148.1160 C   0  0  0  0  0  2  0  0  0  0  0  0
  189.0160  176.9680  147.0420 C   0  0  0  0  0  2  0  0  0  0  0  0
  187.3950  178.3990  148.0890 C   0  0  0  0  0  2  0  0  0  0  0  0
  186.9500  178.1590  146.6520 C   0  0  2  0  0  3  0  0  0  0  0  0
  184.7450  178.6920  146.2550 C   0  0  0  0  0  1  0  0  0  0  0  0
  185.6370  177.6450  146.5500 O   0  0  0  0  0  0  0  0  0  0  0  0
  186.1440  178.5410  143.1490 O   0  0  0  0  0  0  0  0  0  0  0  0
  186.8160  177.5210  143.1510 C   0  0  0  0  0  3  0  0  0  0  0  0
  188.8910  178.5000  142.2520 C   0  0  0  0  0  2  0  0  0  0  0  0
  188.4170  178.1630  140.8410 C   0  0  0  0  0  2  0  0  0  0  0  0
  189.5510  178.3500  139.8390 C   0  0  0  0  0  2  0  0  0  0  0  0
  189.3100  177.6530  138.4820 C   0  0  1  0  0  0  0  0  0  0  0  0
  187.9630  176.9540  138.5910 C   0  0  0  0  0  1  0  0  0  0  0  0
  189.2110  178.5880  137.2450 C   0  0  0  0  0  3  0  0  0  0  0  0
  187.8130  178.7480  136.6710 C   0  0  0  0  0  2  0  0  0  0  0  0
  188.8170  177.8510  135.9750 C   0  0  0  0  0  2  0  0  0  0  0  0
  191.5640  176.9390  138.0280 O   0  0  0  0  0  0  0  0  0  0  0  0
  190.3690  176.5990  138.2500 C   0  0  0  0  0  0  0  0  0  0  0  0
  190.0180  175.2490  138.2050 O   0  0  0  0  0  0  0  0  0  0  0  0
  190.9180  174.3170  137.8650 O   0  0  0  0  0  1  0  0  0  0  0  0
  2  3  1  1  0  0  0
  2 11  1  0  0  0  0
  3  9  1  0  0  0  0
  4  1  1  0  0  0  0
  4  9  1  0  0  0  0
  5  8  2  0  0  0  0
  6  7  1  0  0  0  0
  7 20  1  6  0  0  0
  7  2  1  0  0  0  0
  8  6  1  0  0  0  0
  8  4  1  0  0  0  0
 10  4  1  0  0  0  0
 11 15  1  0  0  0  0
 11 13  1  1  0  0  0
 13 12  1  0  0  0  0
 14 12  1  0  0  0  0
 15 17  1  1  0  0  0
 15 14  1  0  0  0  0
 16 17  1  0  0  0  0
 18 19  2  0  0  0  0
 19  7  1  0  0  0  0
 21 20  1  0  0  0  0
 22 21  1  0  0  0  0
 23 24  1  1  0  0  0
 23 22  1  0  0  0  0
 25 23  1  0  0  0  0
 26 25  1  0  0  0  0
 27 26  1  0  0  0  0
 27 25  1  0  0  0  0
 28 29  2  0  0  0  0
 29 23  1  0  0  0  0
 30 29  1  0  0  0  0
 31 30  1  0  0  0  0
M  END
>  <MODEL>
1

>  <REMARK>
 VINA RESULT:      -8.2      0.000      0.000
  Name = 
  10 active torsions:
  status: ('A' for Active; 'I' for Inactive)
    1  A    between atoms: O_1  and  C_19
    2  A    between atoms: C_3  and  C_22
    3  A    between atoms: C_4  and  C_5
    4  A    between atoms: C_9  and  C_22
    5  A    between atoms: C_9  and  C_23
    6  A    between atoms: C_15  and  C_21
    7  A    between atoms: C_15  and  C_23
    8  A    between atoms: C_19  and  C_22
    9  A    between atoms: C_21  and  C_29
   10  A    between atoms: C_30  and  O_31
                            x       y       z     vdW  Elec       q    Type
                         _______ _______ _______ _____ _____    ______ ____

>  <TORSDO>
F 10

$$$$
=
 OpenBabel10262419233D

 31 33  0  0  1  0  0  0  0  0999 V2000
  192.2130  175.4730  143.8060 F   0  0  0  0  0  0  0  0  0  0  0  0
  188.5870  178.0920  144.7490 C   0  0  1  0  0  3  0  0  0  0  0  0
  190.1030  178.3510  144.8500 C   0  0  0  0  0  2  0  0  0  0  0  0
  191.3510  176.5330  143.5940 C   0  0  0  0  0  0  0  0  0  0  0  0
  190.4480  175.6170  141.6230 O   0  0  0  0  0  0  0  0  0  0  0  0
  188.7680  176.0960  143.1860 C   0  0  0  0  0  2  0  0  0  0  0  0
  188.1850  177.5130  143.3560 C   0  0  1  0  0  0  0  0  0  0  0  0
  190.2050  176.0540  142.7370 C   0  0  0  0  0  0  0  0  0  0  0  0
  190.9110  177.0600  144.9570 C   0  0  0  0  0  2  0  0  0  0  0  0
  192.0400  177.5280  142.9200 F   0  0  0  0  0  0  0  0  0  0  0  0
  188.0340  177.3180  145.9800 C   0  0  1  0  0  3  0  0  0  0  0  0
  189.0260  178.0760  148.0750 C   0  0  0  0  0  2  0  0  0  0  0  0
  189.1260  177.0110  147.0040 C   0  0  0  0  0  2  0  0  0  0  0  0
  187.5600  178.4280  148.1500 C   0  0  0  0  0  2  0  0  0  0  0  0
  187.0160  178.1600  146.7530 C   0  0  2  0  0  3  0  0  0  0  0  0
  184.7900  178.6210  146.3830 C   0  0  0  0  0  1  0  0  0  0  0  0
  185.7070  177.6230  146.7540 O   0  0  0  0  0  0  0  0  0  0  0  0
  185.9670  178.3770  143.2430 O   0  0  0  0  0  0  0  0  0  0  0  0
  186.6870  177.3900  143.2500 C   0  0  0  0  0  3  0  0  0  0  0  0
  188.6610  178.4410  142.2140 C   0  0  0  0  0  2  0  0  0  0  0  0
  188.0690  178.0860  140.8530 C   0  0  0  0  0  2  0  0  0  0  0  0
  188.9130  178.6850  139.7320 C   0  0  0  0  0  2  0  0  0  0  0  0
  188.7030  178.0100  138.3600 C   0  0  1  0  0  0  0  0  0  0  0  0
  189.2540  178.9720  137.3190 C   0  0  0  0  0  1  0  0  0  0  0  0
  189.4490  176.6650  138.1410 C   0  0  0  0  0  3  0  0  0  0  0  0
  190.9600  176.7380  138.2840 C   0  0  0  0  0  2  0  0  0  0  0  0
  190.3340  176.6720  136.9050 C   0  0  0  0  0  2  0  0  0  0  0  0
  186.7660  176.6880  137.8140 O   0  0  0  0  0  0  0  0  0  0  0  0
  187.2240  177.8300  138.0960 C   0  0  0  0  0  0  0  0  0  0  0  0
  186.3720  178.9350  138.0890 O   0  0  0  0  0  0  0  0  0  0  0  0
  185.2810  178.9650  138.8650 O   0  0  0  0  0  1  0  0  0  0  0  0
  2  3  1  1  0  0  0
  2 11  1  0  0  0  0
  3  9  1  0  0  0  0
  4  1  1  0  0  0  0
  4  9  1  0  0  0  0
  5  8  2  0  0  0  0
  6  7  1  0  0  0  0
  7 20  1  6  0  0  0
  7  2  1  0  0  0  0
  8  6  1  0  0  0  0
  8  4  1  0  0  0  0
 10  4  1  0  0  0  0
 11 15  1  0  0  0  0
 11 13  1  1  0  0  0
 12 14  1  0  0  0  0
 13 12  1  0  0  0  0
 15 17  1  1  0  0  0
 15 14  1  0  0  0  0
 16 17  1  0  0  0  0
 18 19  2  0  0  0  0
 19  7  1  0  0  0  0
 21 20  1  0  0  0  0
 22 21  1  0  0  0  0
 23 24  1  6  0  0  0
 23 22  1  0  0  0  0
 25 26  1  0  0  0  0
 25 23  1  0  0  0  0
 27 25  1  0  0  0  0
 27 26  1  0  0  0  0
 28 29  2  0  0  0  0
 29 23  1  0  0  0  0
 30 29  1  0  0  0  0
 30 31  1  0  0  0  0
M  END
>  <MODEL>
2

>  <REMARK>
 VINA RESULT:      -8.1      1.441      2.204
  Name = 
  10 active torsions:
  status: ('A' for Active; 'I' for Inactive)
    1  A    between atoms: O_1  and  C_19
    2  A    between atoms: C_3  and  C_22
    3  A    between atoms: C_4  and  C_5
    4  A    between atoms: C_9  and  C_22
    5  A    between atoms: C_9  and  C_23
    6  A    between atoms: C_15  and  C_21
    7  A    between atoms: C_15  and  C_23
    8  A    between atoms: C_19  and  C_22
    9  A    between atoms: C_21  and  C_29
   10  A    between atoms: C_30  and  O_31
                            x       y       z     vdW  Elec       q    Type
                         _______ _______ _______ _____ _____    ______ ____

>  <TORSDO>
F 10

$$$$
=
 OpenBabel10262419233D

 31 33  0  0  1  0  0  0  0  0999 V2000
  192.2640  178.1350  144.9160 F   0  0  0  0  0  0  0  0  0  0  0  0
  189.7690  176.8070  141.3230 C   0  0  1  0  0  3  0  0  0  0  0  0
  190.8050  176.0680  142.1920 C   0  0  0  0  0  2  0  0  0  0  0  0
  191.2590  177.4200  144.2900 C   0  0  0  0  0  0  0  0  0  0  0  0
  189.5280  178.6400  145.3150 O   0  0  0  0  0  0  0  0  0  0  0  0
  189.3320  178.6840  142.9800 C   0  0  0  0  0  2  0  0  0  0  0  0
  188.6880  177.5280  142.1880 C   0  0  1  0  0  0  0  0  0  0  0  0
  190.0140  178.2710  144.2580 C   0  0  0  0  0  0  0  0  0  0  0  0
  191.7590  177.0230  142.9040 C   0  0  0  0  0  2  0  0  0  0  0  0
  191.0120  176.2770  145.0320 F   0  0  0  0  0  0  0  0  0  0  0  0
  190.4340  177.6800  140.2210 C   0  0  1  0  0  3  0  0  0  0  0  0
  191.5590  176.3360  138.5250 C   0  0  0  0  0  2  0  0  0  0  0  0
  191.7930  177.1290  139.7930 C   0  0  0  0  0  2  0  0  0  0  0  0
  190.4220  177.0380  137.8220 C   0  0  0  0  0  2  0  0  0  0  0  0
  189.6030  177.6790  138.9340 C   0  0  2  0  0  3  0  0  0  0  0  0
  188.9950  179.0510  137.1880 C   0  0  0  0  0  1  0  0  0  0  0  0
  189.0790  178.9460  138.5870 O   0  0  0  0  0  0  0  0  0  0  0  0
  187.4460  179.3410  141.2670 O   0  0  0  0  0  0  0  0  0  0  0  0
  187.6270  178.1330  141.3080 C   0  0  0  0  0  3  0  0  0  0  0  0
  187.9910  176.5310  143.1450 C   0  0  0  0  0  2  0  0  0  0  0  0
  186.5680  176.9370  143.5170 C   0  0  0  0  0  2  0  0  0  0  0  0
  186.4360  177.0900  145.0290 C   0  0  0  0  0  2  0  0  0  0  0  0
  185.6840  178.3660  145.4660 C   0  0  1  0  0  0  0  0  0  0  0  0
  186.1160  179.4680  144.5120 C   0  0  0  0  0  1  0  0  0  0  0  0
  184.1340  178.3050  145.3810 C   0  0  0  0  0  3  0  0  0  0  0  0
  183.5660  178.3330  143.9720 C   0  0  0  0  0  2  0  0  0  0  0  0
  183.5200  179.5820  144.8300 C   0  0  0  0  0  2  0  0  0  0  0  0
  185.6590  179.8150  147.3890 O   0  0  0  0  0  0  0  0  0  0  0  0
  186.1100  178.7600  146.8630 C   0  0  0  0  0  0  0  0  0  0  0  0
  187.0600  178.0020  147.5480 O   0  0  0  0  0  0  0  0  0  0  0  0
  187.8500  178.5630  148.4730 O   0  0  0  0  0  1  0  0  0  0  0  0
  2  7  1  0  0  0  0
  2  3  1  1  0  0  0
  3  9  1  0  0  0  0
  4  1  1  0  0  0  0
  4 10  1  0  0  0  0
  6  8  1  0  0  0  0
  7 19  1  6  0  0  0
  7  6  1  0  0  0  0
  7 20  1  0  0  0  0
  8  4  1  0  0  0  0
  8  5  2  0  0  0  0
  9  4  1  0  0  0  0
 11 13  1  6  0  0  0
 11  2  1  0  0  0  0
 12 13  1  0  0  0  0
 14 12  1  0  0  0  0
 14 15  1  0  0  0  0
 15 17  1  6  0  0  0
 15 11  1  0  0  0  0
 16 17  1  0  0  0  0
 18 19  2  0  0  0  0
 20 21  1  0  0  0  0
 21 22  1  0  0  0  0
 22 23  1  0  0  0  0
 23 24  1  6  0  0  0
 23 29  1  0  0  0  0
 25 23  1  0  0  0  0
 26 27  1  0  0  0  0
 26 25  1  0  0  0  0
 27 25  1  0  0  0  0
 29 28  2  0  0  0  0
 29 30  1  0  0  0  0
 30 31  1  0  0  0  0
M  END
>  <MODEL>
3

>  <REMARK>
 VINA RESULT:      -6.8      2.115      7.112
  Name = 
  10 active torsions:
  status: ('A' for Active; 'I' for Inactive)
    1  A    between atoms: O_1  and  C_19
    2  A    between atoms: C_3  and  C_22
    3  A    between atoms: C_4  and  C_5
    4  A    between atoms: C_9  and  C_22
    5  A    between atoms: C_9  and  C_23
    6  A    between atoms: C_15  and  C_21
    7  A    between atoms: C_15  and  C_23
    8  A    between atoms: C_19  and  C_22
    9  A    between atoms: C_21  and  C_29
   10  A    between atoms: C_30  and  O_31
                            x       y       z     vdW  Elec       q    Type
                         _______ _______ _______ _____ _____    ______ ____

>  <TORSDO>
F 10

$$$$
=
 OpenBabel10262419233D

 31 33  0  0  1  0  0  0  0  0999 V2000
  192.7050  178.5190  143.8800 F   0  0  0  0  0  0  0  0  0  0  0  0
  189.4680  176.7870  141.1560 C   0  0  1  0  0  3  0  0  0  0  0  0
  190.6750  176.1430  141.8660 C   0  0  0  0  0  2  0  0  0  0  0  0
  191.5870  177.7540  143.6000 C   0  0  0  0  0  0  0  0  0  0  0  0
  190.1280  179.1540  144.8060 O   0  0  0  0  0  0  0  0  0  0  0  0
  189.4120  178.8840  142.5900 C   0  0  0  0  0  2  0  0  0  0  0  0
  188.6090  177.6510  142.1320 C   0  0  1  0  0  0  0  0  0  0  0  0
  190.3650  178.6300  143.7290 C   0  0  0  0  0  0  0  0  0  0  0  0
  191.7630  177.1580  142.2070 C   0  0  0  0  0  2  0  0  0  0  0  0
  191.5150  176.7310  144.5310 F   0  0  0  0  0  0  0  0  0  0  0  0
  189.8670  177.4820  139.8230 C   0  0  1  0  0  3  0  0  0  0  0  0
  190.6830  175.8970  138.1590 C   0  0  0  0  0  2  0  0  0  0  0  0
  191.1340  176.8800  139.2170 C   0  0  0  0  0  2  0  0  0  0  0  0
  189.4030  176.4720  137.6020 C   0  0  0  0  0  2  0  0  0  0  0  0
  188.7970  177.2730  138.7470 C   0  0  2  0  0  3  0  0  0  0  0  0
  188.8470  178.9880  137.2100 C   0  0  0  0  0  1  0  0  0  0  0  0
  188.1660  178.4660  138.3250 O   0  0  0  0  0  0  0  0  0  0  0  0
  187.1800  179.3580  141.2800 O   0  0  0  0  0  0  0  0  0  0  0  0
  187.3750  178.1620  141.4350 C   0  0  0  0  0  3  0  0  0  0  0  0
  188.1470  176.8150  143.3490 C   0  0  0  0  0  2  0  0  0  0  0  0
  186.7590  177.1940  143.8570 C   0  0  0  0  0  2  0  0  0  0  0  0
  186.8380  178.4250  144.7540 C   0  0  0  0  0  2  0  0  0  0  0  0
  186.7240  178.1100  146.2620 C   0  0  1  0  0  0  0  0  0  0  0  0
  186.3090  176.6510  146.3660 C   0  0  0  0  0  1  0  0  0  0  0  0
  188.0340  178.2450  147.0860 C   0  0  0  0  0  3  0  0  0  0  0  0
  188.8770  176.9830  147.1630 C   0  0  0  0  0  2  0  0  0  0  0  0
  188.0290  177.3990  148.3490 C   0  0  0  0  0  2  0  0  0  0  0  0
  185.9320  179.9260  147.6290 O   0  0  0  0  0  0  0  0  0  0  0  0
  185.6330  178.9540  146.8820 C   0  0  0  0  0  0  0  0  0  0  0  0
  184.2920  178.6190  146.6930 O   0  0  0  0  0  0  0  0  0  0  0  0
  183.6070  179.0920  145.6440 O   0  0  0  0  0  1  0  0  0  0  0  0
  2  3  1  1  0  0  0
  2  7  1  0  0  0  0
  3  9  1  0  0  0  0
  4  8  1  0  0  0  0
  4  1  1  0  0  0  0
  4 10  1  0  0  0  0
  6  8  1  0  0  0  0
  7 19  1  6  0  0  0
  7  6  1  0  0  0  0
  7 20  1  0  0  0  0
  8  5  2  0  0  0  0
  9  4  1  0  0  0  0
 11 13  1  6  0  0  0
 11  2  1  0  0  0  0
 12 13  1  0  0  0  0
 14 12  1  0  0  0  0
 14 15  1  0  0  0  0
 15 17  1  6  0  0  0
 15 11  1  0  0  0  0
 16 17  1  0  0  0  0
 18 19  2  0  0  0  0
 20 21  1  0  0  0  0
 21 22  1  0  0  0  0
 22 23  1  0  0  0  0
 23 24  1  1  0  0  0
 23 29  1  0  0  0  0
 23 25  1  0  0  0  0
 25 26  1  0  0  0  0
 25 27  1  0  0  0  0
 26 27  1  0  0  0  0
 29 28  2  0  0  0  0
 30 29  1  0  0  0  0
 31 30  1  0  0  0  0
M  END
>  <MODEL>
4

>  <REMARK>
 VINA RESULT:      -6.8      1.944      7.425
  Name = 
  10 active torsions:
  status: ('A' for Active; 'I' for Inactive)
    1  A    between atoms: O_1  and  C_19
    2  A    between atoms: C_3  and  C_22
    3  A    between atoms: C_4  and  C_5
    4  A    between atoms: C_9  and  C_22
    5  A    between atoms: C_9  and  C_23
    6  A    between atoms: C_15  and  C_21
    7  A    between atoms: C_15  and  C_23
    8  A    between atoms: C_19  and  C_22
    9  A    between atoms: C_21  and  C_29
   10  A    between atoms: C_30  and  O_31
                            x       y       z     vdW  Elec       q    Type
                         _______ _______ _______ _____ _____    ______ ____

>  <TORSDO>
F 10

$$$$
=
 OpenBabel10262419233D

 31 33  0  0  1  0  0  0  0  0999 V2000
  192.3470  176.0050  136.4700 F   0  0  0  0  0  0  0  0  0  0  0  0
  188.3310  176.7250  138.5330 C   0  0  1  0  0  3  0  0  0  0  0  0
  188.9460  175.4740  137.8740 C   0  0  0  0  0  2  0  0  0  0  0  0
  191.4240  175.8590  137.4890 C   0  0  0  0  0  0  0  0  0  0  0  0
  192.6860  177.1080  139.0340 O   0  0  0  0  0  0  0  0  0  0  0  0
  190.5240  177.9820  138.7960 C   0  0  0  0  0  2  0  0  0  0  0  0
  189.3130  177.3930  139.5460 C   0  0  1  0  0  0  0  0  0  0  0  0
  191.6090  176.9900  138.4700 C   0  0  0  0  0  0  0  0  0  0  0  0
  190.0340  175.8210  136.8610 C   0  0  0  0  0  2  0  0  0  0  0  0
  191.6690  174.6550  138.1300 F   0  0  0  0  0  0  0  0  0  0  0  0
  187.6870  177.6860  137.4940 C   0  0  1  0  0  3  0  0  0  0  0  0
  186.5470  176.4860  135.7030 C   0  0  0  0  0  2  0  0  0  0  0  0
  187.8450  177.1760  136.0630 C   0  0  0  0  0  2  0  0  0  0  0  0
  185.4760  177.2380  136.4560 C   0  0  0  0  0  2  0  0  0  0  0  0
  186.1710  177.7840  137.6950 C   0  0  2  0  0  3  0  0  0  0  0  0
  184.6950  178.9550  139.0190 C   0  0  0  0  0  1  0  0  0  0  0  0
  185.7230  179.0730  138.0680 O   0  0  0  0  0  0  0  0  0  0  0  0
  187.5970  178.3700  140.8800 O   0  0  0  0  0  0  0  0  0  0  0  0
  188.6370  178.5340  140.2600 C   0  0  0  0  0  3  0  0  0  0  0  0
  189.7750  176.3770  140.6190 C   0  0  0  0  0  2  0  0  0  0  0  0
  190.5890  177.0090  141.7450 C   0  0  0  0  0  2  0  0  0  0  0  0
  190.0460  176.5760  143.1020 C   0  0  0  0  0  2  0  0  0  0  0  0
  190.5230  177.4550  144.2780 C   0  0  1  0  0  0  0  0  0  0  0  0
  191.2590  178.6340  143.6620 C   0  0  0  0  0  1  0  0  0  0  0  0
  189.4060  178.0630  145.1710 C   0  0  0  0  0  3  0  0  0  0  0  0
  188.6700  177.0630  146.0480 C   0  0  0  0  0  2  0  0  0  0  0  0
  188.0150  177.5850  144.7840 C   0  0  0  0  0  2  0  0  0  0  0  0
  191.9400  175.5640  144.7420 O   0  0  0  0  0  0  0  0  0  0  0  0
  191.5050  176.6830  145.1320 C   0  0  0  0  0  0  0  0  0  0  0  0
  191.8770  177.1670  146.3860 O   0  0  0  0  0  0  0  0  0  0  0  0
  192.2320  176.3280  147.3680 O   0  0  0  0  0  1  0  0  0  0  0  0
  1  4  1  0  0  0  0
  2  3  1  6  0  0  0
  2  7  1  0  0  0  0
  4 10  1  0  0  0  0
  4  8  1  0  0  0  0
  6  7  1  0  0  0  0
  7 19  1  1  0  0  0
  7 20  1  0  0  0  0
  8  6  1  0  0  0  0
  8  5  2  0  0  0  0
  9  4  1  0  0  0  0
  9  3  1  0  0  0  0
 11 13  1  6  0  0  0
 11 15  1  0  0  0  0
 11  2  1  0  0  0  0
 12 13  1  0  0  0  0
 12 14  1  0  0  0  0
 14 15  1  0  0  0  0
 15 17  1  6  0  0  0
 17 16  1  0  0  0  0
 19 18  2  0  0  0  0
 20 21  1  0  0  0  0
 21 22  1  0  0  0  0
 22 23  1  0  0  0  0
 23 24  1  6  0  0  0
 23 29  1  0  0  0  0
 23 25  1  0  0  0  0
 25 26  1  0  0  0  0
 27 25  1  0  0  0  0
 27 26  1  0  0  0  0
 28 29  2  0  0  0  0
 29 30  1  0  0  0  0
 30 31  1  0  0  0  0
M  END
>  <MODEL>
5

>  <REMARK>
 VINA RESULT:      -6.5      2.854      7.403
  Name = 
  10 active torsions:
  status: ('A' for Active; 'I' for Inactive)
    1  A    between atoms: O_1  and  C_19
    2  A    between atoms: C_3  and  C_22
    3  A    between atoms: C_4  and  C_5
    4  A    between atoms: C_9  and  C_22
    5  A    between atoms: C_9  and  C_23
    6  A    between atoms: C_15  and  C_21
    7  A    between atoms: C_15  and  C_23
    8  A    between atoms: C_19  and  C_22
    9  A    between atoms: C_21  and  C_29
   10  A    between atoms: C_30  and  O_31
                            x       y       z     vdW  Elec       q    Type
                         _______ _______ _______ _____ _____    ______ ____

>  <TORSDO>
F 10

$$$$
=
 OpenBabel10262419233D

 31 33  0  0  1  0  0  0  0  0999 V2000
  185.4510  179.5610  142.8570 F   0  0  0  0  0  0  0  0  0  0  0  0
  188.9260  176.8970  144.1710 C   0  0  1  0  0  3  0  0  0  0  0  0
  187.4010  176.6720  144.1500 C   0  0  0  0  0  2  0  0  0  0  0  0
  186.3050  178.4780  142.7470 C   0  0  0  0  0  0  0  0  0  0  0  0
  187.3900  179.3210  140.8360 O   0  0  0  0  0  0  0  0  0  0  0  0
  188.9220  178.8520  142.5470 C   0  0  0  0  0  2  0  0  0  0  0  0
  189.4560  177.4290  142.8030 C   0  0  1  0  0  0  0  0  0  0  0  0
  187.5290  178.9100  141.9770 C   0  0  0  0  0  0  0  0  0  0  0  0
  186.6170  177.9810  144.1550 C   0  0  0  0  0  2  0  0  0  0  0  0
  185.6530  177.4800  142.0430 F   0  0  0  0  0  0  0  0  0  0  0  0
  189.3900  177.6930  145.4230 C   0  0  1  0  0  3  0  0  0  0  0  0
  187.9510  177.3090  147.3540 C   0  0  0  0  0  2  0  0  0  0  0  0
  188.2130  178.2660  146.2100 C   0  0  0  0  0  2  0  0  0  0  0  0
  189.3020  176.7430  147.7160 C   0  0  0  0  0  2  0  0  0  0  0  0
  190.1080  176.7830  146.4250 C   0  0  2  0  0  3  0  0  0  0  0  0
  192.1390  176.0050  147.1810 C   0  0  0  0  0  1  0  0  0  0  0  0
  191.4700  177.1080  146.6230 O   0  0  0  0  0  0  0  0  0  0  0  0
  191.6500  176.5690  143.1590 O   0  0  0  0  0  0  0  0  0  0  0  0
  190.9600  177.5180  142.8200 C   0  0  0  0  0  3  0  0  0  0  0  0
  189.0570  176.4780  141.6480 C   0  0  0  0  0  2  0  0  0  0  0  0
  189.6400  176.8820  140.2970 C   0  0  0  0  0  2  0  0  0  0  0  0
  188.5700  176.8140  139.2130 C   0  0  0  0  0  2  0  0  0  0  0  0
  189.0460  177.3070  137.8290 C   0  0  1  0  0  0  0  0  0  0  0  0
  190.5510  177.4940  137.9350 C   0  0  0  0  0  1  0  0  0  0  0  0
  188.8150  176.3310  136.6430 C   0  0  0  0  0  3  0  0  0  0  0  0
  187.7320  175.2880  136.8700 C   0  0  0  0  0  2  0  0  0  0  0  0
  189.1930  174.8960  136.9750 C   0  0  0  0  0  2  0  0  0  0  0  0
  189.0760  179.7120  137.7340 O   0  0  0  0  0  0  0  0  0  0  0  0
  188.4260  178.6520  137.5220 C   0  0  0  0  0  0  0  0  0  0  0  0
  187.1080  178.7310  137.0720 O   0  0  0  0  0  0  0  0  0  0  0  0
  186.0830  178.6180  137.9280 O   0  0  0  0  0  1  0  0  0  0  0  0
  2  3  1  6  0  0  0
  2 11  1  0  0  0  0
  3  9  1  0  0  0  0
  4  1  1  0  0  0  0
  4  9  1  0  0  0  0
  5  8  2  0  0  0  0
  6  7  1  0  0  0  0
  7 20  1  6  0  0  0
  7 19  1  0  0  0  0
  7  2  1  0  0  0  0
  8  6  1  0  0  0  0
  8  4  1  0  0  0  0
 10  4  1  0  0  0  0
 11 13  1  1  0  0  0
 11 15  1  0  0  0  0
 12 14  1  0  0  0  0
 13 12  1  0  0  0  0
 15 17  1  1  0  0  0
 15 14  1  0  0  0  0
 17 16  1  0  0  0  0
 19 18  2  0  0  0  0
 21 20  1  0  0  0  0
 22 21  1  0  0  0  0
 23 24  1  1  0  0  0
 23 22  1  0  0  0  0
 25 26  1  0  0  0  0
 25 27  1  0  0  0  0
 25 23  1  0  0  0  0
 26 27  1  0  0  0  0
 29 28  2  0  0  0  0
 29 23  1  0  0  0  0
 30 29  1  0  0  0  0
 30 31  1  0  0  0  0
M  END
>  <MODEL>
6

>  <REMARK>
 VINA RESULT:      -6.4      2.843      4.140
  Name = 
  10 active torsions:
  status: ('A' for Active; 'I' for Inactive)
    1  A    between atoms: O_1  and  C_19
    2  A    between atoms: C_3  and  C_22
    3  A    between atoms: C_4  and  C_5
    4  A    between atoms: C_9  and  C_22
    5  A    between atoms: C_9  and  C_23
    6  A    between atoms: C_15  and  C_21
    7  A    between atoms: C_15  and  C_23
    8  A    between atoms: C_19  and  C_22
    9  A    between atoms: C_21  and  C_29
   10  A    between atoms: C_30  and  O_31
                            x       y       z     vdW  Elec       q    Type
                         _______ _______ _______ _____ _____    ______ ____

>  <TORSDO>
F 10

$$$$
=
 OpenBabel10262419233D

 31 33  0  0  1  0  0  0  0  0999 V2000
  185.6250  179.6040  142.4700 F   0  0  0  0  0  0  0  0  0  0  0  0
  188.8930  176.8890  144.1560 C   0  0  1  0  0  3  0  0  0  0  0  0
  187.3730  176.6970  143.9920 C   0  0  0  0  0  2  0  0  0  0  0  0
  186.4590  178.5010  142.4600 C   0  0  0  0  0  0  0  0  0  0  0  0
  187.7420  179.2840  140.6490 O   0  0  0  0  0  0  0  0  0  0  0  0
  189.0910  178.8130  142.5070 C   0  0  0  0  0  2  0  0  0  0  0  0
  189.5650  177.3830  142.8360 C   0  0  1  0  0  0  0  0  0  0  0  0
  187.7610  178.8910  141.8050 C   0  0  0  0  0  0  0  0  0  0  0  0
  186.6230  178.0230  143.9000 C   0  0  0  0  0  2  0  0  0  0  0  0
  185.8540  177.5040  141.7130 F   0  0  0  0  0  0  0  0  0  0  0  0
  189.2550  177.6980  145.4340 C   0  0  1  0  0  3  0  0  0  0  0  0
  187.6960  177.2880  147.2630 C   0  0  0  0  0  2  0  0  0  0  0  0
  188.0140  178.2470  146.1370 C   0  0  0  0  0  2  0  0  0  0  0  0
  189.0310  176.7520  147.7190 C   0  0  0  0  0  2  0  0  0  0  0  0
  189.9220  176.8060  146.4850 C   0  0  2  0  0  3  0  0  0  0  0  0
  192.0560  176.0020  146.8100 C   0  0  0  0  0  1  0  0  0  0  0  0
  191.2600  177.1610  146.7740 O   0  0  0  0  0  0  0  0  0  0  0  0
  191.7070  176.4480  143.3010 O   0  0  0  0  0  0  0  0  0  0  0  0
  191.0610  177.4400  142.9960 C   0  0  0  0  0  3  0  0  0  0  0  0
  189.2560  176.4210  141.6640 C   0  0  0  0  0  2  0  0  0  0  0  0
  190.0290  176.7440  140.3900 C   0  0  0  0  0  2  0  0  0  0  0  0
  189.1010  176.7070  139.1800 C   0  0  0  0  0  2  0  0  0  0  0  0
  189.8300  176.4890  137.8360 C   0  0  1  0  0  0  0  0  0  0  0  0
  189.1160  175.3400  137.1410 C   0  0  0  0  0  1  0  0  0  0  0  0
  189.7950  177.6830  136.8420 C   0  0  0  0  0  3  0  0  0  0  0  0
  189.0550  178.9130  137.3410 C   0  0  0  0  0  2  0  0  0  0  0  0
  188.3950  177.9900  136.3350 C   0  0  0  0  0  2  0  0  0  0  0  0
  191.5460  174.8470  138.2280 O   0  0  0  0  0  0  0  0  0  0  0  0
  191.2600  176.0680  138.0900 C   0  0  0  0  0  0  0  0  0  0  0  0
  192.2580  177.0300  138.2480 O   0  0  0  0  0  0  0  0  0  0  0  0
  193.5430  176.6730  138.3720 O   0  0  0  0  0  1  0  0  0  0  0  0
  2  3  1  6  0  0  0
  2 11  1  0  0  0  0
  4  1  1  0  0  0  0
  4  9  1  0  0  0  0
  5  8  2  0  0  0  0
  6  7  1  0  0  0  0
  7 20  1  6  0  0  0
  7 19  1  0  0  0  0
  7  2  1  0  0  0  0
  8  4  1  0  0  0  0
  8  6  1  0  0  0  0
  9  3  1  0  0  0  0
 10  4  1  0  0  0  0
 11 13  1  1  0  0  0
 11 15  1  0  0  0  0
 12 14  1  0  0  0  0
 13 12  1  0  0  0  0
 15 17  1  1  0  0  0
 15 14  1  0  0  0  0
 17 16  1  0  0  0  0
 19 18  2  0  0  0  0
 21 20  1  0  0  0  0
 22 21  1  0  0  0  0
 23 24  1  6  0  0  0
 23 29  1  0  0  0  0
 23 22  1  0  0  0  0
 25 26  1  0  0  0  0
 25 23  1  0  0  0  0
 27 25  1  0  0  0  0
 27 26  1  0  0  0  0
 29 28  2  0  0  0  0
 29 30  1  0  0  0  0
 30 31  1  0  0  0  0
M  END
>  <MODEL>
7

>  <REMARK>
 VINA RESULT:      -6.4      2.420      3.766
  Name = 
  10 active torsions:
  status: ('A' for Active; 'I' for Inactive)
    1  A    between atoms: O_1  and  C_19
    2  A    between atoms: C_3  and  C_22
    3  A    between atoms: C_4  and  C_5
    4  A    between atoms: C_9  and  C_22
    5  A    between atoms: C_9  and  C_23
    6  A    between atoms: C_15  and  C_21
    7  A    between atoms: C_15  and  C_23
    8  A    between atoms: C_19  and  C_22
    9  A    between atoms: C_21  and  C_29
   10  A    between atoms: C_30  and  O_31
                            x       y       z     vdW  Elec       q    Type
                         _______ _______ _______ _____ _____    ______ ____

>  <TORSDO>
F 10

$$$$
=
 OpenBabel10262419233D

 31 33  0  0  1  0  0  0  0  0999 V2000
  185.6310  179.8100  146.4950 F   0  0  0  0  0  0  0  0  0  0  0  0
  186.7480  177.5280  142.6950 C   0  0  1  0  0  3  0  0  0  0  0  0
  186.5060  177.0650  144.1450 C   0  0  0  0  0  2  0  0  0  0  0  0
  185.3950  178.9370  145.4490 C   0  0  0  0  0  0  0  0  0  0  0  0
  183.8400  180.3570  144.3980 O   0  0  0  0  0  0  0  0  0  0  0  0
  185.5790  179.7710  142.9400 C   0  0  0  0  0  2  0  0  0  0  0  0
  185.5910  178.4360  142.1700 C   0  0  1  0  0  0  0  0  0  0  0  0
  184.8780  179.7270  144.2720 C   0  0  0  0  0  0  0  0  0  0  0  0
  186.6940  178.1920  145.1570 C   0  0  0  0  0  2  0  0  0  0  0  0
  184.4280  178.0290  145.8490 F   0  0  0  0  0  0  0  0  0  0  0  0
  188.1830  178.0860  142.4820 C   0  0  1  0  0  3  0  0  0  0  0  0
  189.9010  176.5680  143.3150 C   0  0  0  0  0  2  0  0  0  0  0  0
  189.0950  177.7970  143.6740 C   0  0  0  0  0  2  0  0  0  0  0  0
  190.0910  176.6400  141.8190 C   0  0  0  0  0  2  0  0  0  0  0  0
  188.8760  177.3990  141.3010 C   0  0  2  0  0  3  0  0  0  0  0  0
  189.2970  177.5210  139.0400 C   0  0  0  0  0  1  0  0  0  0  0  0
  189.1740  178.2680  140.2250 O   0  0  0  0  0  0  0  0  0  0  0  0
  185.2860  179.7510  140.2060 O   0  0  0  0  0  0  0  0  0  0  0  0
  185.7990  178.7650  140.7160 C   0  0  0  0  0  3  0  0  0  0  0  0
  184.2250  177.7190  142.2970 C   0  0  0  0  0  2  0  0  0  0  0  0
  183.1660  178.2520  141.3370 C   0  0  0  0  0  2  0  0  0  0  0  0
  181.9890  178.8360  142.1130 C   0  0  0  0  0  2  0  0  0  0  0  0
  180.6080  178.4470  141.5440 C   0  0  1  0  0  0  0  0  0  0  0  0
  180.8150  177.1660  140.7520 C   0  0  0  0  0  1  0  0  0  0  0  0
  179.5050  178.1330  142.5920 C   0  0  0  0  0  3  0  0  0  0  0  0
  179.3350  179.1810  143.6790 C   0  0  0  0  0  2  0  0  0  0  0  0
  180.0640  177.8870  143.9850 C   0  0  0  0  0  2  0  0  0  0  0  0
  179.5980  179.1920  139.4890 O   0  0  0  0  0  0  0  0  0  0  0  0
  180.1250  179.5160  140.5890 C   0  0  0  0  0  0  0  0  0  0  0  0
  180.3280  180.8650  140.8840 O   0  0  0  0  0  0  0  0  0  0  0  0
  179.3150  181.6370  141.2990 O   0  0  0  0  0  1  0  0  0  0  0  0
  2  3  1  1  0  0  0
  3  9  1  0  0  0  0
  4 10  1  0  0  0  0
  4  1  1  0  0  0  0
  6  8  1  0  0  0  0
  7 19  1  6  0  0  0
  7 20  1  0  0  0  0
  7  2  1  0  0  0  0
  7  6  1  0  0  0  0
  8  5  2  0  0  0  0
  8  4  1  0  0  0  0
  9  4  1  0  0  0  0
 11  2  1  0  0  0  0
 11 13  1  1  0  0  0
 12 13  1  0  0  0  0
 14 12  1  0  0  0  0
 15 17  1  6  0  0  0
 15 14  1  0  0  0  0
 15 11  1  0  0  0  0
 16 17  1  0  0  0  0
 18 19  2  0  0  0  0
 21 22  1  0  0  0  0
 21 20  1  0  0  0  0
 23 24  1  6  0  0  0
 23 22  1  0  0  0  0
 23 25  1  0  0  0  0
 25 26  1  0  0  0  0
 25 27  1  0  0  0  0
 26 27  1  0  0  0  0
 28 29  2  0  0  0  0
 29 30  1  0  0  0  0
 29 23  1  0  0  0  0
 30 31  1  0  0  0  0
M  END
>  <MODEL>
8

>  <REMARK>
 VINA RESULT:      -6.3      4.554      7.833
  Name = 
  10 active torsions:
  status: ('A' for Active; 'I' for Inactive)
    1  A    between atoms: O_1  and  C_19
    2  A    between atoms: C_3  and  C_22
    3  A    between atoms: C_4  and  C_5
    4  A    between atoms: C_9  and  C_22
    5  A    between atoms: C_9  and  C_23
    6  A    between atoms: C_15  and  C_21
    7  A    between atoms: C_15  and  C_23
    8  A    between atoms: C_19  and  C_22
    9  A    between atoms: C_21  and  C_29
   10  A    between atoms: C_30  and  O_31
                            x       y       z     vdW  Elec       q    Type
                         _______ _______ _______ _____ _____    ______ ____

>  <TORSDO>
F 10

$$$$
=
 OpenBabel10262419233D

 31 33  0  0  1  0  0  0  0  0999 V2000
  185.6730  179.8640  146.5130 F   0  0  0  0  0  0  0  0  0  0  0  0
  186.9000  177.4990  142.7990 C   0  0  1  0  0  3  0  0  0  0  0  0
  186.6540  177.0740  144.2600 C   0  0  0  0  0  2  0  0  0  0  0  0
  185.4750  178.9520  145.4930 C   0  0  0  0  0  0  0  0  0  0  0  0
  183.8940  180.2950  144.3810 O   0  0  0  0  0  0  0  0  0  0  0  0
  185.6660  179.7150  142.9610 C   0  0  0  0  0  2  0  0  0  0  0  0
  185.7250  178.3570  142.2340 C   0  0  1  0  0  0  0  0  0  0  0  0
  184.9510  179.6910  144.2860 C   0  0  0  0  0  0  0  0  0  0  0  0
  186.7980  178.2370  145.2390 C   0  0  0  0  0  2  0  0  0  0  0  0
  184.5290  178.0310  145.9100 F   0  0  0  0  0  0  0  0  0  0  0  0
  188.3220  178.0910  142.5860 C   0  0  1  0  0  3  0  0  0  0  0  0
  190.0760  176.6200  143.4290 C   0  0  0  0  0  2  0  0  0  0  0  0
  189.2390  177.8310  143.7800 C   0  0  0  0  0  2  0  0  0  0  0  0
  190.2660  176.6890  141.9330 C   0  0  0  0  0  2  0  0  0  0  0  0
  189.0340  177.4150  141.4090 C   0  0  2  0  0  3  0  0  0  0  0  0
  189.8000  177.5400  139.2410 C   0  0  0  0  0  1  0  0  0  0  0  0
  189.3110  178.2850  140.3290 O   0  0  0  0  0  0  0  0  0  0  0  0
  185.5040  179.6640  140.2540 O   0  0  0  0  0  0  0  0  0  0  0  0
  185.9410  178.6470  140.7720 C   0  0  0  0  0  3  0  0  0  0  0  0
  184.3780  177.6060  142.3680 C   0  0  0  0  0  2  0  0  0  0  0  0
  183.4700  177.7620  141.1520 C   0  0  0  0  0  2  0  0  0  0  0  0
  182.2450  178.5980  141.5060 C   0  0  0  0  0  2  0  0  0  0  0  0
  181.3250  178.9050  140.3040 C   0  0  1  0  0  0  0  0  0  0  0  0
  182.2050  179.5490  139.2440 C   0  0  0  0  0  1  0  0  0  0  0  0
  180.6610  177.6760  139.6250 C   0  0  0  0  0  3  0  0  0  0  0  0
  179.1440  177.6340  139.7150 C   0  0  0  0  0  2  0  0  0  0  0  0
  179.9790  176.7470  140.6180 C   0  0  0  0  0  2  0  0  0  0  0  0
  179.9320  180.8290  139.9140 O   0  0  0  0  0  0  0  0  0  0  0  0
  180.2680  179.9070  140.7090 C   0  0  0  0  0  0  0  0  0  0  0  0
  179.7120  179.8650  141.9880 O   0  0  0  0  0  0  0  0  0  0  0  0
  179.8080  180.9160  142.8130 O   0  0  0  0  0  1  0  0  0  0  0  0
  2  3  1  1  0  0  0
  3  9  1  0  0  0  0
  4 10  1  0  0  0  0
  4  1  1  0  0  0  0
  6  8  1  0  0  0  0
  7 19  1  6  0  0  0
  7 20  1  0  0  0  0
  7  2  1  0  0  0  0
  7  6  1  0  0  0  0
  8  5  2  0  0  0  0
  8  4  1  0  0  0  0
  9  4  1  0  0  0  0
 11  2  1  0  0  0  0
 11 13  1  1  0  0  0
 12 13  1  0  0  0  0
 14 12  1  0  0  0  0
 15 17  1  6  0  0  0
 15 14  1  0  0  0  0
 15 11  1  0  0  0  0
 16 17  1  0  0  0  0
 18 19  2  0  0  0  0
 21 22  1  0  0  0  0
 21 20  1  0  0  0  0
 23 24  1  6  0  0  0
 23 29  1  0  0  0  0
 23 22  1  0  0  0  0
 25 26  1  0  0  0  0
 25 23  1  0  0  0  0
 25 27  1  0  0  0  0
 26 27  1  0  0  0  0
 28 29  2  0  0  0  0
 29 30  1  0  0  0  0
 30 31  1  0  0  0  0
M  END
>  <MODEL>
9

>  <REMARK>
 VINA RESULT:      -6.2      4.701      7.474
  Name = 
  10 active torsions:
  status: ('A' for Active; 'I' for Inactive)
    1  A    between atoms: O_1  and  C_19
    2  A    between atoms: C_3  and  C_22
    3  A    between atoms: C_4  and  C_5
    4  A    between atoms: C_9  and  C_22
    5  A    between atoms: C_9  and  C_23
    6  A    between atoms: C_15  and  C_21
    7  A    between atoms: C_15  and  C_23
    8  A    between atoms: C_19  and  C_22
    9  A    between atoms: C_21  and  C_29
   10  A    between atoms: C_30  and  O_31
                            x       y       z     vdW  Elec       q    Type
                         _______ _______ _______ _____ _____    ______ ____

>  <TORSDO>
F 10

$$$$
