=
 OpenBabel10262420573D

 28 32  0  0  1  0  0  0  0  0999 V2000
  190.2370  178.2490  142.5510 C   0  0  2  0  0  3  0  0  0  0  0  0
  185.1260  178.9510  142.6270 C   0  0  0  0  0  3  0  0  0  0  0  0
  188.9040  177.0140  147.2940 C   0  0  0  0  0  1  0  0  0  0  0  0
  184.5060  178.3530  144.9720 C   0  0  0  0  0  0  0  0  0  0  0  0
  186.8470  178.1980  144.2950 C   0  0  0  0  0  0  0  0  0  0  0  0
  182.7850  179.1060  143.2920 C   0  0  0  0  0  0  0  0  0  0  0  0
  185.5020  178.4950  143.9820 C   0  0  0  0  0  0  0  0  0  0  0  0
  186.1810  177.6280  146.5630 C   0  0  0  0  0  3  0  0  0  0  0  0
  183.0570  178.6530  144.6980 C   0  0  0  0  0  2  0  0  0  0  0  0
  189.5360  177.6180  144.9310 C   0  0  0  0  0  0  0  0  0  0  0  0
  187.8510  178.3270  143.3320 C   0  0  0  0  0  3  0  0  0  0  0  0
  184.8550  177.9210  146.2510 C   0  0  0  0  0  3  0  0  0  0  0  0
  191.9470  178.0240  144.3690 C   0  0  0  0  0  2  0  0  0  0  0  0
  188.5340  177.4710  145.9130 C   0  0  0  0  0  0  0  0  0  0  0  0
  190.9670  177.2790  145.2630 C   0  0  0  0  0  2  0  0  0  0  0  0
  181.6060  179.3830  142.9520 O   0  0  0  0  0  0  0  0  0  0  0  0
  183.8660  179.2350  142.3060 C   0  0  0  0  0  3  0  0  0  0  0  0
  187.1900  177.7610  145.5970 C   0  0  0  0  0  0  0  0  0  0  0  0
  191.6210  177.7090  142.9200 C   0  0  0  0  0  2  0  0  0  0  0  0
  189.1840  178.0180  143.6210 C   0  0  0  0  0  0  0  0  0  0  0  0
  189.8220  177.7210  141.2100 C   0  0  0  0  0  0  0  0  0  0  0  0
  188.6770  178.2090  140.5620 C   0  0  0  0  0  3  0  0  0  0  0  0
  189.0930  176.7240  138.6910 C   0  0  0  0  0  0  0  0  0  0  0  0
  190.5980  176.7360  140.5930 C   0  0  0  0  0  3  0  0  0  0  0  0
  187.1430  178.2260  138.6690 N   0  0  0  0  0  1  0  0  0  0  0  0
  188.3100  177.7140  139.3080 C   0  0  0  0  0  0  0  0  0  0  0  0
  188.7320  176.1760  137.3530 C   0  0  0  0  0  1  0  0  0  0  0  0
  190.2350  176.2390  139.3380 C   0  0  0  0  0  3  0  0  0  0  0  0
  1 21  1  6  0  0  0
  1 19  1  0  0  0  0
  1 20  1  0  0  0  0
  2  7  1  0  0  0  0
  4 12  1  0  0  0  0
  5 18  1  0  0  0  0
  6  9  1  0  0  0  0
  7  5  1  0  0  0  0
  7  4  2  0  0  0  0
  9  4  1  0  0  0  0
 10 15  1  0  0  0  0
 10 14  1  0  0  0  0
 11 20  1  0  0  0  0
 11  5  2  0  0  0  0
 12  8  2  0  0  0  0
 13 15  1  0  0  0  0
 14  3  1  0  0  0  0
 16  6  2  0  0  0  0
 17  2  2  0  0  0  0
 17  6  1  0  0  0  0
 18 14  2  0  0  0  0
 18  8  1  0  0  0  0
 19 13  1  0  0  0  0
 20 10  2  0  0  0  0
 22 21  2  0  0  0  0
 23 26  2  0  0  0  0
 23 28  1  0  0  0  0
 24 21  1  0  0  0  0
 25 26  1  0  0  0  0
 26 22  1  0  0  0  0
 27 23  1  0  0  0  0
 28 24  2  0  0  0  0
M  END
>  <MODEL>
1

>  <REMARK>
 VINA RESULT:     -10.8      0.000      0.000
  Name = 
  1 active torsions:
  status: ('A' for Active; 'I' for Inactive)
    1  A    between atoms: C_1  and  C_2
                            x       y       z     vdW  Elec       q    Type
                         _______ _______ _______ _____ _____    ______ ____

>  <TORSDO>
F 1

$$$$
=
 OpenBabel10262420573D

 28 32  0  0  1  0  0  0  0  0999 V2000
  190.2230  178.2230  142.3170 C   0  0  2  0  0  3  0  0  0  0  0  0
  185.1100  178.9080  142.4450 C   0  0  0  0  0  3  0  0  0  0  0  0
  188.9540  177.0620  147.0960 C   0  0  0  0  0  1  0  0  0  0  0  0
  184.5220  178.3470  144.8080 C   0  0  0  0  0  0  0  0  0  0  0  0
  186.8540  178.1890  144.1050 C   0  0  0  0  0  0  0  0  0  0  0  0
  182.7770  179.0660  143.1370 C   0  0  0  0  0  0  0  0  0  0  0  0
  185.5050  178.4760  143.8030 C   0  0  0  0  0  0  0  0  0  0  0  0
  186.2190  177.6540  146.3890 C   0  0  0  0  0  3  0  0  0  0  0  0
  183.0680  178.6380  144.5470 C   0  0  0  0  0  2  0  0  0  0  0  0
  189.5530  177.6300  144.7160 C   0  0  0  0  0  0  0  0  0  0  0  0
  187.8460  178.3060  143.1270 C   0  0  0  0  0  3  0  0  0  0  0  0
  184.8890  177.9380  146.0900 C   0  0  0  0  0  3  0  0  0  0  0  0
  191.9560  178.0340  144.1170 C   0  0  0  0  0  2  0  0  0  0  0  0
  188.5640  177.4950  145.7130 C   0  0  0  0  0  0  0  0  0  0  0  0
  190.9900  177.3010  145.0350 C   0  0  0  0  0  2  0  0  0  0  0  0
  181.5940  179.3330  142.8080 O   0  0  0  0  0  0  0  0  0  0  0  0
  183.8450  179.1830  142.1360 C   0  0  0  0  0  3  0  0  0  0  0  0
  187.2160  177.7750  145.4090 C   0  0  0  0  0  0  0  0  0  0  0  0
  191.6140  177.6940  142.6780 C   0  0  0  0  0  2  0  0  0  0  0  0
  189.1840  178.0060  143.4040 C   0  0  0  0  0  0  0  0  0  0  0  0
  189.7930  177.6710  140.9900 C   0  0  0  0  0  0  0  0  0  0  0  0
  190.5620  176.7080  140.3220 C   0  0  0  0  0  3  0  0  0  0  0  0
  188.9400  176.6500  138.5200 C   0  0  0  0  0  0  0  0  0  0  0  0
  188.5980  178.1200  140.4180 C   0  0  0  0  0  3  0  0  0  0  0  0
  190.9390  175.2170  138.4320 N   0  0  0  0  0  1  0  0  0  0  0  0
  190.1410  176.1970  139.0910 C   0  0  0  0  0  0  0  0  0  0  0  0
  188.4610  176.1250  137.2110 C   0  0  0  0  0  1  0  0  0  0  0  0
  188.1740  177.6110  139.1880 C   0  0  0  0  0  3  0  0  0  0  0  0
  1 21  1  6  0  0  0
  1 19  1  0  0  0  0
  1 20  1  0  0  0  0
  2  7  1  0  0  0  0
  4 12  1  0  0  0  0
  5 18  1  0  0  0  0
  6  9  1  0  0  0  0
  7  5  1  0  0  0  0
  7  4  2  0  0  0  0
  9  4  1  0  0  0  0
 10 15  1  0  0  0  0
 10 14  1  0  0  0  0
 11 20  1  0  0  0  0
 11  5  2  0  0  0  0
 12  8  2  0  0  0  0
 13 15  1  0  0  0  0
 14  3  1  0  0  0  0
 16  6  2  0  0  0  0
 17  2  2  0  0  0  0
 17  6  1  0  0  0  0
 18 14  2  0  0  0  0
 18  8  1  0  0  0  0
 19 13  1  0  0  0  0
 20 10  2  0  0  0  0
 22 21  2  0  0  0  0
 23 26  2  0  0  0  0
 23 28  1  0  0  0  0
 24 21  1  0  0  0  0
 25 26  1  0  0  0  0
 26 22  1  0  0  0  0
 27 23  1  0  0  0  0
 28 24  2  0  0  0  0
M  END
>  <MODEL>
2

>  <REMARK>
 VINA RESULT:     -10.8      0.940      1.312
  Name = 
  1 active torsions:
  status: ('A' for Active; 'I' for Inactive)
    1  A    between atoms: C_1  and  C_2
                            x       y       z     vdW  Elec       q    Type
                         _______ _______ _______ _____ _____    ______ ____

>  <TORSDO>
F 1

$$$$
=
 OpenBabel10262420573D

 28 32  0  0  1  0  0  0  0  0999 V2000
  189.8890  177.7890  139.9960 C   0  0  2  0  0  3  0  0  0  0  0  0
  185.1610  178.6380  141.8800 C   0  0  0  0  0  3  0  0  0  0  0  0
  190.3780  176.8940  144.9710 C   0  0  0  0  0  1  0  0  0  0  0  0
  185.4400  178.2070  144.3250 C   0  0  0  0  0  0  0  0  0  0  0  0
  187.3700  177.9440  142.8550 C   0  0  0  0  0  0  0  0  0  0  0  0
  183.2260  178.9010  143.3400 C   0  0  0  0  0  0  0  0  0  0  0  0
  186.0050  178.2590  143.0330 C   0  0  0  0  0  0  0  0  0  0  0  0
  187.5780  177.5370  145.2420 C   0  0  0  0  0  3  0  0  0  0  0  0
  183.9910  178.5300  144.5790 C   0  0  0  0  0  2  0  0  0  0  0  0
  190.1030  177.3300  142.5050 C   0  0  0  0  0  0  0  0  0  0  0  0
  187.9530  177.9840  141.5850 C   0  0  0  0  0  3  0  0  0  0  0  0
  186.2310  177.8470  145.4160 C   0  0  0  0  0  3  0  0  0  0  0  0
  192.1440  177.6310  141.0770 C   0  0  0  0  0  2  0  0  0  0  0  0
  189.5300  177.2730  143.7920 C   0  0  0  0  0  0  0  0  0  0  0  0
  191.5570  176.9720  142.3150 C   0  0  0  0  0  2  0  0  0  0  0  0
  182.0050  179.1880  143.4350 O   0  0  0  0  0  0  0  0  0  0  0  0
  183.8720  178.9370  142.0220 C   0  0  0  0  0  3  0  0  0  0  0  0
  188.1650  177.5810  143.9690 C   0  0  0  0  0  0  0  0  0  0  0  0
  191.3100  177.2350  139.8710 C   0  0  0  0  0  2  0  0  0  0  0  0
  189.2990  177.6560  141.3890 C   0  0  0  0  0  0  0  0  0  0  0  0
  189.0100  177.1900  138.9380 C   0  0  0  0  0  0  0  0  0  0  0  0
  187.7840  177.7790  138.5950 C   0  0  0  0  0  3  0  0  0  0  0  0
  187.4080  176.0490  136.9370 C   0  0  0  0  0  0  0  0  0  0  0  0
  189.4290  176.0310  138.2770 C   0  0  0  0  0  3  0  0  0  0  0  0
  185.7420  177.8310  137.2670 N   0  0  0  0  0  1  0  0  0  0  0  0
  186.9830  177.2130  137.5990 C   0  0  0  0  0  0  0  0  0  0  0  0
  186.5790  175.4220  135.8700 C   0  0  0  0  0  1  0  0  0  0  0  0
  188.6310  175.4630  137.2800 C   0  0  0  0  0  3  0  0  0  0  0  0
  1 21  1  6  0  0  0
  1 20  1  0  0  0  0
  2 17  2  0  0  0  0
  2  7  1  0  0  0  0
  4  9  1  0  0  0  0
  4 12  1  0  0  0  0
  5  7  1  0  0  0  0
  5 18  1  0  0  0  0
  6 16  2  0  0  0  0
  6  9  1  0  0  0  0
  7  4  2  0  0  0  0
  8 12  2  0  0  0  0
 10 14  1  0  0  0  0
 11  5  2  0  0  0  0
 13 15  1  0  0  0  0
 14 18  2  0  0  0  0
 14  3  1  0  0  0  0
 15 10  1  0  0  0  0
 17  6  1  0  0  0  0
 18  8  1  0  0  0  0
 19  1  1  0  0  0  0
 19 13  1  0  0  0  0
 20 11  1  0  0  0  0
 20 10  2  0  0  0  0
 22 21  1  0  0  0  0
 23 28  2  0  0  0  0
 23 26  1  0  0  0  0
 24 21  2  0  0  0  0
 25 26  1  0  0  0  0
 26 22  2  0  0  0  0
 27 23  1  0  0  0  0
 28 24  1  0  0  0  0
M  END
>  <MODEL>
3

>  <REMARK>
 VINA RESULT:     -10.5      1.157      2.155
  Name = 
  1 active torsions:
  status: ('A' for Active; 'I' for Inactive)
    1  A    between atoms: C_1  and  C_2
                            x       y       z     vdW  Elec       q    Type
                         _______ _______ _______ _____ _____    ______ ____

>  <TORSDO>
F 1

$$$$
=
 OpenBabel10262420573D

 28 32  0  0  1  0  0  0  0  0999 V2000
  189.7200  177.8050  139.7910 C   0  0  2  0  0  3  0  0  0  0  0  0
  185.0760  178.6600  141.8710 C   0  0  0  0  0  3  0  0  0  0  0  0
  190.4040  176.8670  144.7350 C   0  0  0  0  0  1  0  0  0  0  0  0
  185.4510  178.2070  144.3000 C   0  0  0  0  0  0  0  0  0  0  0  0
  187.3190  177.9480  142.7500 C   0  0  0  0  0  0  0  0  0  0  0  0
  183.2020  178.9200  143.4110 C   0  0  0  0  0  0  0  0  0  0  0  0
  185.9640  178.2670  142.9860 C   0  0  0  0  0  0  0  0  0  0  0  0
  187.6210  177.5200  145.1240 C   0  0  0  0  0  3  0  0  0  0  0  0
  184.0150  178.5360  144.6140 C   0  0  0  0  0  2  0  0  0  0  0  0
  190.0330  177.3250  142.2860 C   0  0  0  0  0  0  0  0  0  0  0  0
  187.8510  177.9960  141.4590 C   0  0  0  0  0  3  0  0  0  0  0  0
  186.2840  177.8350  145.3550 C   0  0  0  0  0  3  0  0  0  0  0  0
  192.0160  177.6280  140.7790 C   0  0  0  0  0  2  0  0  0  0  0  0
  189.5110  177.2600  143.5940 C   0  0  0  0  0  0  0  0  0  0  0  0
  191.4760  176.9620  142.0340 C   0  0  0  0  0  2  0  0  0  0  0  0
  181.9880  179.2120  143.5570 O   0  0  0  0  0  0  0  0  0  0  0  0
  183.7950  178.9640  142.0680 C   0  0  0  0  0  3  0  0  0  0  0  0
  188.1560  177.5720  143.8290 C   0  0  0  0  0  0  0  0  0  0  0  0
  191.1320  177.2460  139.6050 C   0  0  0  0  0  2  0  0  0  0  0  0
  189.1860  177.6630  141.2060 C   0  0  0  0  0  0  0  0  0  0  0  0
  188.7960  177.2190  138.7640 C   0  0  0  0  0  0  0  0  0  0  0  0
  189.0840  175.9930  138.1470 C   0  0  0  0  0  3  0  0  0  0  0  0
  187.0310  176.1460  136.8670 C   0  0  0  0  0  0  0  0  0  0  0  0
  187.6240  177.9040  138.4290 C   0  0  0  0  0  3  0  0  0  0  0  0
  188.5210  174.2070  136.5880 N   0  0  0  0  0  1  0  0  0  0  0  0
  188.2070  175.4550  137.2010 C   0  0  0  0  0  0  0  0  0  0  0  0
  186.0730  175.6010  135.8640 C   0  0  0  0  0  1  0  0  0  0  0  0
  186.7450  177.3690  137.4830 C   0  0  0  0  0  3  0  0  0  0  0  0
  1 21  1  6  0  0  0
  1 20  1  0  0  0  0
  2 17  2  0  0  0  0
  2  7  1  0  0  0  0
  4  9  1  0  0  0  0
  4 12  1  0  0  0  0
  5  7  1  0  0  0  0
  5 18  1  0  0  0  0
  6 16  2  0  0  0  0
  6  9  1  0  0  0  0
  7  4  2  0  0  0  0
  8 12  2  0  0  0  0
 10 14  1  0  0  0  0
 11  5  2  0  0  0  0
 13 15  1  0  0  0  0
 14 18  2  0  0  0  0
 14  3  1  0  0  0  0
 15 10  1  0  0  0  0
 17  6  1  0  0  0  0
 18  8  1  0  0  0  0
 19  1  1  0  0  0  0
 19 13  1  0  0  0  0
 20 11  1  0  0  0  0
 20 10  2  0  0  0  0
 22 21  2  0  0  0  0
 23 26  2  0  0  0  0
 23 28  1  0  0  0  0
 24 21  1  0  0  0  0
 25 26  1  0  0  0  0
 26 22  1  0  0  0  0
 27 23  1  0  0  0  0
 28 24  2  0  0  0  0
M  END
>  <MODEL>
4

>  <REMARK>
 VINA RESULT:     -10.4      1.489      2.631
  Name = 
  1 active torsions:
  status: ('A' for Active; 'I' for Inactive)
    1  A    between atoms: C_1  and  C_2
                            x       y       z     vdW  Elec       q    Type
                         _______ _______ _______ _____ _____    ______ ____

>  <TORSDO>
F 1

$$$$
=
 OpenBabel10262420573D

 28 32  0  0  1  0  0  0  0  0999 V2000
  186.8140  178.7220  138.4400 C   0  0  2  0  0  3  0  0  0  0  0  0
  185.2470  178.6660  143.3560 C   0  0  0  0  0  3  0  0  0  0  0  0
  190.7790  176.7970  140.9630 C   0  0  0  0  0  1  0  0  0  0  0  0
  187.2220  177.7320  144.5690 C   0  0  0  0  0  0  0  0  0  0  0  0
  187.3430  177.9910  142.1450 C   0  0  0  0  0  0  0  0  0  0  0  0
  185.1150  178.4080  145.7770 C   0  0  0  0  0  0  0  0  0  0  0  0
  186.6230  178.1240  143.3520 C   0  0  0  0  0  0  0  0  0  0  0  0
  189.2300  177.0870  143.3810 C   0  0  0  0  0  3  0  0  0  0  0  0
  186.5050  177.8480  145.8880 C   0  0  0  0  0  2  0  0  0  0  0  0
  188.7920  177.7410  139.7350 C   0  0  0  0  0  0  0  0  0  0  0  0
  186.7720  178.3690  140.9260 C   0  0  0  0  0  3  0  0  0  0  0  0
  188.5180  177.2180  144.5710 C   0  0  0  0  0  3  0  0  0  0  0  0
  189.0770  178.5500  137.3770 C   0  0  0  0  0  2  0  0  0  0  0  0
  189.3810  177.3440  140.9530 C   0  0  0  0  0  0  0  0  0  0  0  0
  189.5560  177.5780  138.4440 C   0  0  0  0  0  2  0  0  0  0  0  0
  184.4230  178.5470  146.8180 O   0  0  0  0  0  0  0  0  0  0  0  0
  184.5480  178.7980  144.4800 C   0  0  0  0  0  3  0  0  0  0  0  0
  188.6590  177.4700  142.1580 C   0  0  0  0  0  0  0  0  0  0  0  0
  187.5860  178.3510  137.1710 C   0  0  0  0  0  2  0  0  0  0  0  0
  187.4640  178.2260  139.7200 C   0  0  0  0  0  0  0  0  0  0  0  0
  185.3830  178.2900  138.3150 C   0  0  0  0  0  0  0  0  0  0  0  0
  184.3440  179.0530  138.8690 C   0  0  0  0  0  3  0  0  0  0  0  0
  182.7180  177.4570  138.0380 C   0  0  0  0  0  0  0  0  0  0  0  0
  185.0830  177.1120  137.6240 C   0  0  0  0  0  3  0  0  0  0  0  0
  181.9780  179.4340  139.3040 N   0  0  0  0  0  1  0  0  0  0  0  0
  183.0160  178.6410  138.7330 C   0  0  0  0  0  0  0  0  0  0  0  0
  181.3130  176.9910  137.8740 C   0  0  0  0  0  1  0  0  0  0  0  0
  183.7550  176.6980  137.4860 C   0  0  0  0  0  3  0  0  0  0  0  0
  1 21  1  6  0  0  0
  1 20  1  0  0  0  0
  2 17  2  0  0  0  0
  4 12  1  0  0  0  0
  4  9  1  0  0  0  0
  5 18  1  0  0  0  0
  5  7  1  0  0  0  0
  6  9  1  0  0  0  0
  6 16  2  0  0  0  0
  7  2  1  0  0  0  0
  7  4  2  0  0  0  0
  8 12  2  0  0  0  0
 10 14  1  0  0  0  0
 11  5  2  0  0  0  0
 13 15  1  0  0  0  0
 14  3  1  0  0  0  0
 14 18  2  0  0  0  0
 15 10  1  0  0  0  0
 17  6  1  0  0  0  0
 18  8  1  0  0  0  0
 19 13  1  0  0  0  0
 19  1  1  0  0  0  0
 20 10  2  0  0  0  0
 20 11  1  0  0  0  0
 21 22  1  0  0  0  0
 23 26  1  0  0  0  0
 24 21  2  0  0  0  0
 26 22  2  0  0  0  0
 26 25  1  0  0  0  0
 27 23  1  0  0  0  0
 28 24  1  0  0  0  0
 28 23  2  0  0  0  0
M  END
>  <MODEL>
5

>  <REMARK>
 VINA RESULT:     -10.0      2.750      5.065
  Name = 
  1 active torsions:
  status: ('A' for Active; 'I' for Inactive)
    1  A    between atoms: C_1  and  C_2
                            x       y       z     vdW  Elec       q    Type
                         _______ _______ _______ _____ _____    ______ ____

>  <TORSDO>
F 1

$$$$
=
 OpenBabel10262420573D

 28 32  0  0  1  0  0  0  0  0999 V2000
  186.1010  177.5720  143.0330 C   0  0  2  0  0  3  0  0  0  0  0  0
  190.4720  176.2340  145.4270 C   0  0  0  0  0  3  0  0  0  0  0  0
  185.6600  179.6640  147.6410 C   0  0  0  0  0  1  0  0  0  0  0  0
  190.2160  177.2620  147.6900 C   0  0  0  0  0  0  0  0  0  0  0  0
  188.4350  177.5680  146.0490 C   0  0  0  0  0  0  0  0  0  0  0  0
  192.2580  175.9250  147.0590 C   0  0  0  0  0  0  0  0  0  0  0  0
  189.6930  177.0310  146.3990 C   0  0  0  0  0  0  0  0  0  0  0  0
  188.2450  178.5440  148.2670 C   0  0  0  0  0  3  0  0  0  0  0  0
  191.5520  176.7170  148.1220 C   0  0  0  0  0  2  0  0  0  0  0  0
  185.9110  178.6270  145.3580 C   0  0  0  0  0  0  0  0  0  0  0  0
  187.8970  177.3580  144.7760 C   0  0  0  0  0  3  0  0  0  0  0  0
  189.4870  178.0150  148.6100 C   0  0  0  0  0  3  0  0  0  0  0  0
  183.9000  178.4280  143.8720 C   0  0  0  0  0  2  0  0  0  0  0  0
  186.4430  178.8600  146.6440 C   0  0  0  0  0  0  0  0  0  0  0  0
  184.5760  179.2200  144.9800 C   0  0  0  0  0  2  0  0  0  0  0  0
  193.3830  175.4250  147.3100 O   0  0  0  0  0  0  0  0  0  0  0  0
  191.6600  175.7200  145.7330 C   0  0  0  0  0  3  0  0  0  0  0  0
  187.7030  178.3300  146.9910 C   0  0  0  0  0  0  0  0  0  0  0  0
  184.8370  178.3600  142.6790 C   0  0  0  0  0  2  0  0  0  0  0  0
  186.6610  177.8980  144.4070 C   0  0  0  0  0  0  0  0  0  0  0  0
  187.1210  177.7220  141.9440 C   0  0  0  0  0  0  0  0  0  0  0  0
  188.4150  177.1990  142.0870 C   0  0  0  0  0  3  0  0  0  0  0  0
  188.9910  178.0030  139.8720 C   0  0  0  0  0  0  0  0  0  0  0  0
  186.7680  178.3840  140.7640 C   0  0  0  0  0  3  0  0  0  0  0  0
  190.6580  176.7970  141.2240 N   0  0  0  0  0  1  0  0  0  0  0  0
  189.3500  177.3380  141.0570 C   0  0  0  0  0  0  0  0  0  0  0  0
  189.9630  178.1670  138.7550 C   0  0  0  0  0  1  0  0  0  0  0  0
  187.7000  178.5230  139.7320 C   0  0  0  0  0  3  0  0  0  0  0  0
  1 21  1  6  0  0  0
  1 20  1  0  0  0  0
  2 17  2  0  0  0  0
  2  7  1  0  0  0  0
  4  9  1  0  0  0  0
  4 12  1  0  0  0  0
  5  7  1  0  0  0  0
  5 18  1  0  0  0  0
  6 16  2  0  0  0  0
  6  9  1  0  0  0  0
  7  4  2  0  0  0  0
  8 12  2  0  0  0  0
 10 14  1  0  0  0  0
 11  5  2  0  0  0  0
 13 15  1  0  0  0  0
 14 18  2  0  0  0  0
 14  3  1  0  0  0  0
 15 10  1  0  0  0  0
 17  6  1  0  0  0  0
 18  8  1  0  0  0  0
 19  1  1  0  0  0  0
 19 13  1  0  0  0  0
 20 11  1  0  0  0  0
 20 10  2  0  0  0  0
 21 22  1  0  0  0  0
 23 26  1  0  0  0  0
 24 21  2  0  0  0  0
 26 25  1  0  0  0  0
 26 22  2  0  0  0  0
 27 23  1  0  0  0  0
 28 23  2  0  0  0  0
 28 24  1  0  0  0  0
M  END
>  <MODEL>
6

>  <REMARK>
 VINA RESULT:      -9.9      3.031      5.711
  Name = 
  1 active torsions:
  status: ('A' for Active; 'I' for Inactive)
    1  A    between atoms: C_1  and  C_2
                            x       y       z     vdW  Elec       q    Type
                         _______ _______ _______ _____ _____    ______ ____

>  <TORSDO>
F 1

$$$$
=
 OpenBabel10262420573D

 28 32  0  0  1  0  0  0  0  0999 V2000
  189.4330  178.2570  142.0250 C   0  0  2  0  0  3  0  0  0  0  0  0
  184.6740  179.0670  140.2030 C   0  0  0  0  0  3  0  0  0  0  0  0
  186.4470  177.6270  146.0850 C   0  0  0  0  0  1  0  0  0  0  0  0
  183.2350  178.7670  142.2230 C   0  0  0  0  0  0  0  0  0  0  0  0
  185.6490  178.4840  142.4440 C   0  0  0  0  0  0  0  0  0  0  0  0
  182.2630  179.3480  139.9710 C   0  0  0  0  0  0  0  0  0  0  0  0
  184.5220  178.7690  141.6430 C   0  0  0  0  0  0  0  0  0  0  0  0
  184.1970  178.2040  144.3730 C   0  0  0  0  0  3  0  0  0  0  0  0
  181.9950  179.0620  141.4220 C   0  0  0  0  0  2  0  0  0  0  0  0
  187.9030  177.9310  144.0520 C   0  0  0  0  0  0  0  0  0  0  0  0
  186.9340  178.4770  141.8930 C   0  0  0  0  0  3  0  0  0  0  0  0
  183.0850  178.4850  143.5810 C   0  0  0  0  0  3  0  0  0  0  0  0
  190.3780  178.2180  144.3450 C   0  0  0  0  0  2  0  0  0  0  0  0
  186.6130  177.9230  144.6230 C   0  0  0  0  0  0  0  0  0  0  0  0
  189.1040  177.6050  144.9050 C   0  0  0  0  0  2  0  0  0  0  0  0
  181.2980  179.6050  139.2070 O   0  0  0  0  0  0  0  0  0  0  0  0
  183.6270  179.3360  139.4270 C   0  0  0  0  0  3  0  0  0  0  0  0
  185.4870  178.2010  143.8210 C   0  0  0  0  0  0  0  0  0  0  0  0
  190.5640  177.7380  142.9170 C   0  0  0  0  0  2  0  0  0  0  0  0
  188.0590  178.1780  142.6680 C   0  0  0  0  0  0  0  0  0  0  0  0
  189.4830  177.5810  140.6870 C   0  0  0  0  0  0  0  0  0  0  0  0
  188.4540  177.7520  139.7500 C   0  0  0  0  0  3  0  0  0  0  0  0
  189.6280  176.3170  138.1870 C   0  0  0  0  0  0  0  0  0  0  0  0
  190.5820  176.7770  140.3680 C   0  0  0  0  0  3  0  0  0  0  0  0
  187.4640  177.3130  137.5670 N   0  0  0  0  0  1  0  0  0  0  0  0
  188.5220  177.1240  138.5030 C   0  0  0  0  0  0  0  0  0  0  0  0
  189.7330  175.6340  136.8670 C   0  0  0  0  0  1  0  0  0  0  0  0
  190.6540  176.1480  139.1230 C   0  0  0  0  0  3  0  0  0  0  0  0
  1 21  1  6  0  0  0
  1 20  1  0  0  0  0
  1 19  1  0  0  0  0
  2  7  1  0  0  0  0
  4 12  1  0  0  0  0
  5 18  1  0  0  0  0
  6  9  1  0  0  0  0
  7  4  2  0  0  0  0
  7  5  1  0  0  0  0
  9  4  1  0  0  0  0
 10 14  1  0  0  0  0
 10 15  1  0  0  0  0
 11  5  2  0  0  0  0
 11 20  1  0  0  0  0
 12  8  2  0  0  0  0
 13 15  1  0  0  0  0
 14  3  1  0  0  0  0
 16  6  2  0  0  0  0
 17  6  1  0  0  0  0
 17  2  2  0  0  0  0
 18  8  1  0  0  0  0
 18 14  2  0  0  0  0
 19 13  1  0  0  0  0
 20 10  2  0  0  0  0
 22 21  2  0  0  0  0
 23 26  2  0  0  0  0
 23 28  1  0  0  0  0
 24 21  1  0  0  0  0
 25 26  1  0  0  0  0
 26 22  1  0  0  0  0
 27 23  1  0  0  0  0
 28 24  2  0  0  0  0
M  END
>  <MODEL>
7

>  <REMARK>
 VINA RESULT:      -9.8      1.423      2.205
  Name = 
  1 active torsions:
  status: ('A' for Active; 'I' for Inactive)
    1  A    between atoms: C_1  and  C_2
                            x       y       z     vdW  Elec       q    Type
                         _______ _______ _______ _____ _____    ______ ____

>  <TORSDO>
F 1

$$$$
=
 OpenBabel10262420573D

 28 32  0  0  1  0  0  0  0  0999 V2000
  184.3540  177.8790  142.2180 C   0  0  2  0  0  3  0  0  0  0  0  0
  189.1510  176.1930  143.0980 C   0  0  0  0  0  3  0  0  0  0  0  0
  185.3280  179.3900  146.9690 C   0  0  0  0  0  1  0  0  0  0  0  0
  189.5910  176.9350  145.4430 C   0  0  0  0  0  0  0  0  0  0  0  0
  187.4380  177.4680  144.4230 C   0  0  0  0  0  0  0  0  0  0  0  0
  191.3050  175.6580  144.1070 C   0  0  0  0  0  0  0  0  0  0  0  0
  188.7160  176.8740  144.3360 C   0  0  0  0  0  0  0  0  0  0  0  0
  187.9270  178.1650  146.7000 C   0  0  0  0  0  3  0  0  0  0  0  0
  190.9660  176.3220  145.4110 C   0  0  0  0  0  2  0  0  0  0  0  0
  184.8770  178.6410  144.6050 C   0  0  0  0  0  0  0  0  0  0  0  0
  186.5550  177.4250  143.3400 C   0  0  0  0  0  3  0  0  0  0  0  0
  189.1880  177.5790  146.6130 C   0  0  0  0  0  3  0  0  0  0  0  0
  182.5220  178.6570  143.7410 C   0  0  0  0  0  2  0  0  0  0  0  0
  185.7590  178.7050  145.7040 C   0  0  0  0  0  0  0  0  0  0  0  0
  183.5200  179.2950  144.6940 C   0  0  0  0  0  2  0  0  0  0  0  0
  192.4310  175.1150  143.9680 O   0  0  0  0  0  0  0  0  0  0  0  0
  190.3510  175.6280  142.9910 C   0  0  0  0  0  3  0  0  0  0  0  0
  187.0390  178.1180  145.6150 C   0  0  0  0  0  0  0  0  0  0  0  0
  183.0820  178.7230  142.3310 C   0  0  0  0  0  2  0  0  0  0  0  0
  185.2930  178.0240  143.4030 C   0  0  0  0  0  0  0  0  0  0  0  0
  185.0330  178.1480  140.9080 C   0  0  0  0  0  0  0  0  0  0  0  0
  186.4280  178.2700  140.8260 C   0  0  0  0  0  3  0  0  0  0  0  0
  186.2650  178.6280  138.4340 C   0  0  0  0  0  0  0  0  0  0  0  0
  184.2600  178.2670  139.7490 C   0  0  0  0  0  3  0  0  0  0  0  0
  188.4650  178.6280  139.5380 N   0  0  0  0  0  1  0  0  0  0  0  0
  187.0460  178.5090  139.5960 C   0  0  0  0  0  0  0  0  0  0  0  0
  186.8910  178.8810  137.1060 C   0  0  0  0  0  1  0  0  0  0  0  0
  184.8740  178.5060  138.5170 C   0  0  0  0  0  3  0  0  0  0  0  0
  1 21  1  6  0  0  0
  1 19  1  0  0  0  0
  1 20  1  0  0  0  0
  2  7  1  0  0  0  0
  4 12  1  0  0  0  0
  5 18  1  0  0  0  0
  6  9  1  0  0  0  0
  7  5  1  0  0  0  0
  7  4  2  0  0  0  0
  9  4  1  0  0  0  0
 10 15  1  0  0  0  0
 10 14  1  0  0  0  0
 11 20  1  0  0  0  0
 11  5  2  0  0  0  0
 12  8  2  0  0  0  0
 13 15  1  0  0  0  0
 14  3  1  0  0  0  0
 16  6  2  0  0  0  0
 17  2  2  0  0  0  0
 17  6  1  0  0  0  0
 18 14  2  0  0  0  0
 18  8  1  0  0  0  0
 19 13  1  0  0  0  0
 20 10  2  0  0  0  0
 22 21  1  0  0  0  0
 23 28  2  0  0  0  0
 23 26  1  0  0  0  0
 24 21  2  0  0  0  0
 25 26  1  0  0  0  0
 26 22  2  0  0  0  0
 27 23  1  0  0  0  0
 28 24  1  0  0  0  0
M  END
>  <MODEL>
8

>  <REMARK>
 VINA RESULT:      -9.8      2.830      5.653
  Name = 
  1 active torsions:
  status: ('A' for Active; 'I' for Inactive)
    1  A    between atoms: C_1  and  C_2
                            x       y       z     vdW  Elec       q    Type
                         _______ _______ _______ _____ _____    ______ ____

>  <TORSDO>
F 1

$$$$
=
 OpenBabel10262420573D

 28 32  0  0  1  0  0  0  0  0999 V2000
  184.3150  179.1940  143.7740 C   0  0  2  0  0  3  0  0  0  0  0  0
  187.6920  178.6280  139.9140 C   0  0  0  0  0  3  0  0  0  0  0  0
  181.4610  177.6320  139.8730 C   0  0  0  0  0  1  0  0  0  0  0  0
  186.2570  177.8770  138.0110 C   0  0  0  0  0  0  0  0  0  0  0  0
  185.2140  178.3030  140.1770 C   0  0  0  0  0  0  0  0  0  0  0  0
  188.7430  178.2020  137.7550 C   0  0  0  0  0  0  0  0  0  0  0  0
  186.3680  178.2670  139.3630 C   0  0  0  0  0  0  0  0  0  0  0  0
  183.8710  177.5700  138.2880 C   0  0  0  0  0  3  0  0  0  0  0  0
  187.4500  177.8180  137.0950 C   0  0  0  0  0  2  0  0  0  0  0  0
  182.9030  178.3920  141.7950 C   0  0  0  0  0  0  0  0  0  0  0  0
  185.2980  178.6820  141.5200 C   0  0  0  0  0  3  0  0  0  0  0  0
  185.0110  177.5330  137.4870 C   0  0  0  0  0  3  0  0  0  0  0  0
  181.8170  179.3780  143.8300 C   0  0  0  0  0  2  0  0  0  0  0  0
  182.8010  177.9970  140.4450 C   0  0  0  0  0  0  0  0  0  0  0  0
  181.6720  178.4090  142.6670 C   0  0  0  0  0  2  0  0  0  0  0  0
  189.8060  178.1860  137.0830 O   0  0  0  0  0  0  0  0  0  0  0  0
  188.7940  178.5990  139.1680 C   0  0  0  0  0  3  0  0  0  0  0  0
  183.9540  177.9530  139.6350 C   0  0  0  0  0  0  0  0  0  0  0  0
  183.0560  179.0050  144.6240 C   0  0  0  0  0  2  0  0  0  0  0  0
  184.1680  178.7040  142.3440 C   0  0  0  0  0  0  0  0  0  0  0  0
  185.4990  178.5920  144.4700 C   0  0  0  0  0  0  0  0  0  0  0  0
  186.4500  177.8390  143.7640 C   0  0  0  0  0  3  0  0  0  0  0  0
  187.7120  177.5030  145.8070 C   0  0  0  0  0  0  0  0  0  0  0  0
  185.6610  178.7950  145.8440 C   0  0  0  0  0  3  0  0  0  0  0  0
  188.5070  176.5360  143.6880 N   0  0  0  0  0  1  0  0  0  0  0  0
  187.5540  177.2950  144.4270 C   0  0  0  0  0  0  0  0  0  0  0  0
  188.8780  176.9380  146.5440 C   0  0  0  0  0  1  0  0  0  0  0  0
  186.7630  178.2530  146.5100 C   0  0  0  0  0  3  0  0  0  0  0  0
  1 21  1  1  0  0  0
  1 19  1  0  0  0  0
  3 14  1  0  0  0  0
  4  7  1  0  0  0  0
  5 11  1  0  0  0  0
  6 17  1  0  0  0  0
  7  2  1  0  0  0  0
  7  5  2  0  0  0  0
  8 18  2  0  0  0  0
  9  6  1  0  0  0  0
  9  4  1  0  0  0  0
 10 20  1  0  0  0  0
 10 15  1  0  0  0  0
 11 20  2  0  0  0  0
 12  4  2  0  0  0  0
 12  8  1  0  0  0  0
 13 19  1  0  0  0  0
 14 10  2  0  0  0  0
 15 13  1  0  0  0  0
 16  6  2  0  0  0  0
 17  2  2  0  0  0  0
 18  5  1  0  0  0  0
 18 14  1  0  0  0  0
 20  1  1  0  0  0  0
 21 24  1  0  0  0  0
 22 26  1  0  0  0  0
 22 21  2  0  0  0  0
 23 28  1  0  0  0  0
 23 27  1  0  0  0  0
 24 28  2  0  0  0  0
 25 26  1  0  0  0  0
 26 23  2  0  0  0  0
M  END
>  <MODEL>
9

>  <REMARK>
 VINA RESULT:      -9.3      2.904      7.395
  Name = 
  1 active torsions:
  status: ('A' for Active; 'I' for Inactive)
    1  A    between atoms: C_1  and  C_2
                            x       y       z     vdW  Elec       q    Type
                         _______ _______ _______ _____ _____    ______ ____

>  <TORSDO>
F 1

$$$$
