=
 OpenBabel10262422303D

 43 49  0  0  1  0  0  0  0  0999 V2000
  183.4030  177.5250  141.0860 C   0  0  2  0  0  3  0  0  0  0  0  0
  187.2010  178.3090  147.0060 C   0  0  0  0  0  0  0  0  0  0  0  0
  184.1730  178.9780  143.0620 C   0  0  2  0  0  3  0  0  0  0  0  0
  185.2260  178.6490  145.6380 C   0  0  0  0  0  0  0  0  0  0  0  0
  187.8540  177.7070  145.9260 C   0  0  0  0  0  3  0  0  0  0  0  0
  187.8990  178.4520  148.3100 C   0  0  0  0  0  1  0  0  0  0  0  0
  185.9020  178.0670  144.5370 C   0  0  0  0  0  0  0  0  0  0  0  0
  185.8920  178.7790  146.8610 C   0  0  0  0  0  3  0  0  0  0  0  0
  187.2030  177.5750  144.6970 C   0  0  0  0  0  3  0  0  0  0  0  0
  185.8660  177.7460  141.9580 C   0  0  0  0  0  2  0  0  0  0  0  0
  185.1310  177.8410  143.2740 C   0  0  2  0  0  3  0  0  0  0  0  0
  183.1280  178.9320  144.1590 C   0  0  0  0  0  2  0  0  0  0  0  0
  183.7050  178.9280  141.6120 C   0  0  1  0  0  3  0  0  0  0  0  0
  184.8040  178.1300  140.9210 C   0  0  2  0  0  0  0  0  0  0  0  0
  183.8220  179.2200  145.5090 C   0  0  0  0  0  2  0  0  0  0  0  0
  184.9260  179.8830  139.2980 O   0  0  0  0  0  0  0  0  0  0  0  0
  185.2480  178.7040  139.6020 C   0  0  0  0  0  0  0  0  0  0  0  0
  186.0400  177.9670  138.7150 O   0  0  0  0  0  0  0  0  0  0  0  0
  188.5310  176.0480  138.4820 O   0  0  0  0  0  1  0  0  0  0  0  0
  188.6510  176.9910  137.4570 C   0  0  2  0  0  0  0  0  0  0  0  0
  186.8150  178.5770  137.6820 C   0  0  1  0  0  3  0  0  0  0  0  0
  185.2230  177.3330  136.1190 C   0  0  0  0  0  1  0  0  0  0  0  0
  188.2950  178.3870  137.9620 C   0  0  1  0  0  3  0  0  0  0  0  0
  187.6330  176.6910  136.3610 C   0  0  0  0  0  2  0  0  0  0  0  0
  188.6880  178.6590  139.4100 C   0  0  0  0  0  1  0  0  0  0  0  0
  186.6370  177.8380  136.3600 C   0  0  2  0  0  3  0  0  0  0  0  0
  190.1010  174.6310  136.0960 N   0  0  0  0  0  0  0  0  0  0  0  0
  190.6920  175.9300  136.2500 C   0  0  0  0  0  0  0  0  0  0  0  0
  190.0150  176.9990  136.9310 N   0  0  0  0  0  2  0  0  0  0  0  0
  189.2290  172.9160  134.5940 C   0  0  0  0  0  2  0  0  0  0  0  0
  188.4970  172.9500  136.8460 C   0  0  0  0  0  2  0  0  0  0  0  0
  188.9580  172.0840  135.7660 N   0  0  0  0  0  2  0  0  0  0  0  0
  189.6140  173.9030  137.2630 C   0  0  0  0  0  2  0  0  0  0  0  0
  190.3900  173.8620  134.8880 C   0  0  0  0  0  2  0  0  0  0  0  0
  191.8180  176.1640  135.7350 O   0  0  0  0  0  0  0  0  0  0  0  0
  182.5400  177.6470  139.8370 C   0  0  0  0  0  2  0  0  0  0  0  0
  179.2440  179.3710  140.8160 C   0  0  0  0  0  2  0  0  0  0  0  0
  181.0500  180.9940  138.8080 C   0  0  0  0  0  2  0  0  0  0  0  0
  179.9160  181.2280  139.8070 C   0  0  0  0  0  2  0  0  0  0  0  0
  180.1880  178.2470  140.3940 C   0  0  0  0  0  2  0  0  0  0  0  0
  181.5590  178.7930  139.9860 C   0  0  2  0  0  3  0  0  0  0  0  0
  178.9600  180.2090  139.7310 O   0  0  0  0  0  0  0  0  0  0  0  0
  181.4470  179.5220  138.6500 C   0  0  0  0  0  2  0  0  0  0  0  0
  1 36  1  6  0  0  0
  1 13  1  0  0  0  0
  2  6  1  0  0  0  0
  3 11  1  0  0  0  0
  3 12  1  1  0  0  0
  4  8  2  0  0  0  0
  5  2  2  0  0  0  0
  7  9  2  0  0  0  0
  7  4  1  0  0  0  0
  8  2  1  0  0  0  0
  9  5  1  0  0  0  0
 11 10  1  6  0  0  0
 11  7  1  0  0  0  0
 12 15  1  0  0  0  0
 13  3  1  0  0  0  0
 14  1  1  0  0  0  0
 14 13  1  0  0  0  0
 14 10  1  0  0  0  0
 15  4  1  0  0  0  0
 16 17  2  0  0  0  0
 17 14  1  0  0  0  0
 18 17  1  0  0  0  0
 20 23  1  0  0  0  0
 20 19  1  0  0  0  0
 21 23  1  0  0  0  0
 21 18  1  0  0  0  0
 22 26  1  0  0  0  0
 23 25  1  0  0  0  0
 24 20  1  0  0  0  0
 26 24  1  0  0  0  0
 26 21  1  0  0  0  0
 27 28  1  0  0  0  0
 27 33  1  0  0  0  0
 28 29  1  0  0  0  0
 29 20  1  0  0  0  0
 30 34  1  0  0  0  0
 30 32  1  0  0  0  0
 31 33  1  0  0  0  0
 32 31  1  0  0  0  0
 34 27  1  0  0  0  0
 35 28  2  0  0  0  0
 36 41  1  0  0  0  0
 38 39  1  0  0  0  0
 40 37  1  0  0  0  0
 41 40  1  0  0  0  0
 42 39  1  0  0  0  0
 42 37  1  0  0  0  0
 43 38  1  0  0  0  0
 43 41  1  0  0  0  0
M  END
>  <MODEL>
1

>  <REMARK>
 VINA RESULT:      -9.3      0.000      0.000
  Name = 
  6 active torsions:
  status: ('A' for Active; 'I' for Inactive)
    1  A    between atoms: C_1  and  C_28
    2  A    between atoms: O_2  and  C_6
    3  A    between atoms: O_2  and  C_13
    4  A    between atoms: C_4  and  N_22
    5  A    between atoms: C_13  and  C_38
    6  A    between atoms: C_28  and  C_35
                            x       y       z     vdW  Elec       q    Type
                         _______ _______ _______ _____ _____    ______ ____

>  <TORSDO>
F 6

$$$$
=
 OpenBabel10262422303D

 43 49  0  0  1  0  0  0  0  0999 V2000
  188.5690  178.6530  143.7670 C   0  0  2  0  0  3  0  0  0  0  0  0
  181.5020  178.9220  143.4900 C   0  0  0  0  0  0  0  0  0  0  0  0
  186.2750  177.8340  144.5900 C   0  0  2  0  0  3  0  0  0  0  0  0
  183.6180  178.7240  144.6600 C   0  0  0  0  0  0  0  0  0  0  0  0
  182.1680  178.8800  142.2620 C   0  0  0  0  0  3  0  0  0  0  0  0
  180.0220  179.0480  143.5270 C   0  0  0  0  0  1  0  0  0  0  0  0
  184.2870  178.6500  143.4140 C   0  0  0  0  0  0  0  0  0  0  0  0
  182.2240  178.8430  144.6840 C   0  0  0  0  0  3  0  0  0  0  0  0
  183.5590  178.7550  142.2220 C   0  0  0  0  0  3  0  0  0  0  0  0
  186.5260  178.0330  142.2440 C   0  0  0  0  0  2  0  0  0  0  0  0
  185.7840  178.6330  143.4150 C   0  0  2  0  0  3  0  0  0  0  0  0
  185.9000  178.5730  145.8590 C   0  0  0  0  0  2  0  0  0  0  0  0
  187.7430  177.5050  144.3480 C   0  0  1  0  0  3  0  0  0  0  0  0
  187.8840  177.6420  142.8380 C   0  0  2  0  0  0  0  0  0  0  0  0
  184.3600  178.5900  145.9810 C   0  0  0  0  0  2  0  0  0  0  0  0
  188.9430  175.4970  142.8470 O   0  0  0  0  0  0  0  0  0  0  0  0
  188.6710  176.5340  142.1870 C   0  0  0  0  0  0  0  0  0  0  0  0
  189.0800  176.6160  140.8520 O   0  0  0  0  0  0  0  0  0  0  0  0
  191.3820  175.3480  139.1090 O   0  0  0  0  0  1  0  0  0  0  0  0
  191.4180  176.7280  138.8830 C   0  0  2  0  0  0  0  0  0  0  0  0
  189.7400  177.7620  140.3150 C   0  0  1  0  0  3  0  0  0  0  0  0
  187.8660  177.7010  138.5820 C   0  0  0  0  0  1  0  0  0  0  0  0
  191.2290  177.4940  140.1900 C   0  0  1  0  0  3  0  0  0  0  0  0
  190.2380  177.1360  138.0060 C   0  0  0  0  0  2  0  0  0  0  0  0
  191.8400  176.8230  141.4160 C   0  0  0  0  0  1  0  0  0  0  0  0
  189.3290  177.9980  138.8660 C   0  0  2  0  0  3  0  0  0  0  0  0
  192.8480  175.2780  136.5640 N   0  0  0  0  0  0  0  0  0  0  0  0
  193.3500  176.4810  137.1650 C   0  0  0  0  0  0  0  0  0  0  0  0
  192.6920  177.1100  138.2770 N   0  0  0  0  0  2  0  0  0  0  0  0
  191.9140  174.1800  134.5940 C   0  0  0  0  0  2  0  0  0  0  0  0
  191.4990  173.2500  136.7320 C   0  0  0  0  0  2  0  0  0  0  0  0
  191.8730  172.9340  135.3580 N   0  0  0  0  0  2  0  0  0  0  0  0
  192.5840  174.1020  137.3850 C   0  0  0  0  0  2  0  0  0  0  0  0
  193.0270  175.0780  135.1270 C   0  0  0  0  0  2  0  0  0  0  0  0
  194.3720  177.0360  136.6810 O   0  0  0  0  0  0  0  0  0  0  0  0
  190.0440  178.3600  143.9990 C   0  0  0  0  0  2  0  0  0  0  0  0
  189.5580  177.4460  147.7040 C   0  0  0  0  0  2  0  0  0  0  0  0
  192.0020  176.0410  146.2960 C   0  0  0  0  0  2  0  0  0  0  0  0
  191.0950  175.8590  147.5140 C   0  0  0  0  0  2  0  0  0  0  0  0
  189.6430  178.3240  146.4570 C   0  0  0  0  0  2  0  0  0  0  0  0
  190.2270  177.5530  145.2700 C   0  0  2  0  0  3  0  0  0  0  0  0
  190.8380  177.0840  148.1390 O   0  0  0  0  0  0  0  0  0  0  0  0
  191.7170  177.3160  145.4930 C   0  0  0  0  0  2  0  0  0  0  0  0
  1 36  1  1  0  0  0
  1 13  1  0  0  0  0
  2  6  1  0  0  0  0
  2  8  1  0  0  0  0
  3 12  1  1  0  0  0
  4  8  2  0  0  0  0
  4 15  1  0  0  0  0
  5  2  2  0  0  0  0
  7 11  1  0  0  0  0
  7  4  1  0  0  0  0
  9  5  1  0  0  0  0
  9  7  2  0  0  0  0
 10 14  1  0  0  0  0
 11 10  1  6  0  0  0
 11  3  1  0  0  0  0
 12 15  1  0  0  0  0
 13  3  1  0  0  0  0
 14  1  1  0  0  0  0
 14 13  1  0  0  0  0
 17 14  1  0  0  0  0
 17 16  2  0  0  0  0
 18 17  1  0  0  0  0
 20 19  1  0  0  0  0
 20 23  1  0  0  0  0
 21 18  1  0  0  0  0
 22 26  1  0  0  0  0
 23 21  1  0  0  0  0
 23 25  1  0  0  0  0
 24 26  1  0  0  0  0
 24 20  1  0  0  0  0
 26 21  1  0  0  0  0
 27 28  1  0  0  0  0
 27 33  1  0  0  0  0
 28 29  1  0  0  0  0
 29 20  1  0  0  0  0
 30 34  1  0  0  0  0
 30 32  1  0  0  0  0
 31 33  1  0  0  0  0
 32 31  1  0  0  0  0
 34 27  1  0  0  0  0
 35 28  2  0  0  0  0
 36 41  1  0  0  0  0
 37 42  1  0  0  0  0
 38 39  1  0  0  0  0
 39 42  1  0  0  0  0
 40 37  1  0  0  0  0
 41 43  1  0  0  0  0
 41 40  1  0  0  0  0
 43 38  1  0  0  0  0
M  END
>  <MODEL>
2

>  <REMARK>
 VINA RESULT:      -9.3      2.944      6.547
  Name = 
  6 active torsions:
  status: ('A' for Active; 'I' for Inactive)
    1  A    between atoms: C_1  and  C_28
    2  A    between atoms: O_2  and  C_6
    3  A    between atoms: O_2  and  C_13
    4  A    between atoms: C_4  and  N_22
    5  A    between atoms: C_13  and  C_38
    6  A    between atoms: C_28  and  C_35
                            x       y       z     vdW  Elec       q    Type
                         _______ _______ _______ _____ _____    ______ ____

>  <TORSDO>
F 6

$$$$
=
 OpenBabel10262422303D

 43 49  0  0  1  0  0  0  0  0999 V2000
  184.0390  177.6270  141.4920 C   0  0  2  0  0  3  0  0  0  0  0  0
  187.7530  178.0200  147.5040 C   0  0  0  0  0  0  0  0  0  0  0  0
  184.8630  178.9810  143.5160 C   0  0  2  0  0  3  0  0  0  0  0  0
  185.8360  178.5240  146.1050 C   0  0  0  0  0  0  0  0  0  0  0  0
  188.3860  177.3970  146.4240 C   0  0  0  0  0  3  0  0  0  0  0  0
  188.4300  178.0860  148.8250 C   0  0  0  0  0  1  0  0  0  0  0  0
  186.4940  177.9210  145.0050 C   0  0  0  0  0  0  0  0  0  0  0  0
  186.4830  178.5820  147.3440 C   0  0  0  0  0  3  0  0  0  0  0  0
  187.7550  177.3370  145.1800 C   0  0  0  0  0  3  0  0  0  0  0  0
  186.4920  177.6590  142.4190 C   0  0  0  0  0  2  0  0  0  0  0  0
  185.7370  177.7750  143.7220 C   0  0  2  0  0  3  0  0  0  0  0  0
  183.7950  178.9830  144.5910 C   0  0  0  0  0  2  0  0  0  0  0  0
  184.4250  178.9940  142.0570 C   0  0  1  0  0  3  0  0  0  0  0  0
  185.4810  178.1380  141.3700 C   0  0  2  0  0  0  0  0  0  0  0  0
  184.4770  179.1930  145.9610 C   0  0  0  0  0  2  0  0  0  0  0  0
  185.4460  179.7330  139.5880 O   0  0  0  0  0  0  0  0  0  0  0  0
  185.9920  178.7080  140.0730 C   0  0  0  0  0  0  0  0  0  0  0  0
  187.0840  178.1420  139.4070 O   0  0  0  0  0  0  0  0  0  0  0  0
  189.3360  175.9370  139.2850 O   0  0  0  0  0  1  0  0  0  0  0  0
  189.9150  177.1310  138.8440 C   0  0  2  0  0  0  0  0  0  0  0  0
  188.2440  178.8920  139.0480 C   0  0  1  0  0  3  0  0  0  0  0  0
  187.3420  178.6520  136.6720 C   0  0  0  0  0  1  0  0  0  0  0  0
  189.4730  178.3020  139.7180 C   0  0  1  0  0  3  0  0  0  0  0  0
  189.4070  177.4620  137.4440 C   0  0  0  0  0  2  0  0  0  0  0  0
  189.2670  177.9560  141.1890 C   0  0  0  0  0  1  0  0  0  0  0  0
  188.5670  178.7220  137.5680 C   0  0  2  0  0  3  0  0  0  0  0  0
  191.6660  175.4140  136.9690 N   0  0  0  0  0  0  0  0  0  0  0  0
  192.2100  176.2770  137.9800 C   0  0  0  0  0  0  0  0  0  0  0  0
  191.3730  177.0280  138.8730 N   0  0  0  0  0  2  0  0  0  0  0  0
  191.3930  174.9180  134.5950 C   0  0  0  0  0  2  0  0  0  0  0  0
  189.8070  174.0690  136.1340 C   0  0  0  0  0  2  0  0  0  0  0  0
  190.6220  173.7340  134.9720 N   0  0  0  0  0  2  0  0  0  0  0  0
  190.7050  174.3770  137.3290 C   0  0  0  0  0  2  0  0  0  0  0  0
  192.3820  175.2670  135.7040 C   0  0  0  0  0  2  0  0  0  0  0  0
  193.4590  176.4210  138.0630 O   0  0  0  0  0  0  0  0  0  0  0  0
  183.2140  177.8350  140.2300 C   0  0  0  0  0  2  0  0  0  0  0  0
  179.9360  179.0350  141.8460 C   0  0  0  0  0  2  0  0  0  0  0  0
  180.8080  180.6220  139.2670 C   0  0  0  0  0  2  0  0  0  0  0  0
  179.9160  180.7950  140.4970 C   0  0  0  0  0  2  0  0  0  0  0  0
  180.9850  178.0590  141.3160 C   0  0  0  0  0  2  0  0  0  0  0  0
  182.0620  178.7810  140.5040 C   0  0  2  0  0  3  0  0  0  0  0  0
  179.2240  179.6140  140.7890 O   0  0  0  0  0  0  0  0  0  0  0  0
  181.4790  179.2460  139.1730 C   0  0  0  0  0  2  0  0  0  0  0  0
  1 36  1  6  0  0  0
  1 13  1  0  0  0  0
  2  6  1  0  0  0  0
  3 11  1  0  0  0  0
  3 12  1  1  0  0  0
  4  8  2  0  0  0  0
  5  2  2  0  0  0  0
  7  9  2  0  0  0  0
  7  4  1  0  0  0  0
  8  2  1  0  0  0  0
  9  5  1  0  0  0  0
 11 10  1  6  0  0  0
 11  7  1  0  0  0  0
 12 15  1  0  0  0  0
 13  3  1  0  0  0  0
 14  1  1  0  0  0  0
 14 13  1  0  0  0  0
 14 10  1  0  0  0  0
 15  4  1  0  0  0  0
 16 17  2  0  0  0  0
 17 14  1  0  0  0  0
 18 17  1  0  0  0  0
 20 29  1  0  0  0  0
 20 19  1  0  0  0  0
 20 23  1  0  0  0  0
 21 18  1  0  0  0  0
 21 23  1  0  0  0  0
 22 26  1  0  0  0  0
 23 25  1  0  0  0  0
 24 26  1  0  0  0  0
 24 20  1  0  0  0  0
 26 21  1  0  0  0  0
 27 33  1  0  0  0  0
 27 28  1  0  0  0  0
 28 35  2  0  0  0  0
 28 29  1  0  0  0  0
 30 32  1  0  0  0  0
 30 34  1  0  0  0  0
 31 33  1  0  0  0  0
 32 31  1  0  0  0  0
 34 27  1  0  0  0  0
 36 41  1  0  0  0  0
 38 39  1  0  0  0  0
 39 42  1  0  0  0  0
 40 37  1  0  0  0  0
 41 40  1  0  0  0  0
 42 37  1  0  0  0  0
 43 38  1  0  0  0  0
 43 41  1  0  0  0  0
M  END
>  <MODEL>
3

>  <REMARK>
 VINA RESULT:      -9.2      1.291      1.552
  Name = 
  6 active torsions:
  status: ('A' for Active; 'I' for Inactive)
    1  A    between atoms: C_1  and  C_28
    2  A    between atoms: O_2  and  C_6
    3  A    between atoms: O_2  and  C_13
    4  A    between atoms: C_4  and  N_22
    5  A    between atoms: C_13  and  C_38
    6  A    between atoms: C_28  and  C_35
                            x       y       z     vdW  Elec       q    Type
                         _______ _______ _______ _____ _____    ______ ____

>  <TORSDO>
F 6

$$$$
=
 OpenBabel10262422303D

 43 49  0  0  1  0  0  0  0  0999 V2000
  188.8790  177.3800  139.8780 C   0  0  2  0  0  3  0  0  0  0  0  0
  191.4930  172.5210  135.4450 C   0  0  0  0  0  0  0  0  0  0  0  0
  190.6350  176.6640  138.1420 C   0  0  2  0  0  3  0  0  0  0  0  0
  191.7080  174.3050  137.0760 C   0  0  0  0  0  0  0  0  0  0  0  0
  190.1090  172.7110  135.4090 C   0  0  0  0  0  3  0  0  0  0  0  0
  192.1210  171.4740  134.5990 C   0  0  0  0  0  1  0  0  0  0  0  0
  190.3090  174.5150  137.0140 C   0  0  0  0  0  0  0  0  0  0  0  0
  192.2890  173.3170  136.2750 C   0  0  0  0  0  3  0  0  0  0  0  0
  189.5150  173.6980  136.2000 C   0  0  0  0  0  3  0  0  0  0  0  0
  188.3840  176.1580  137.6100 C   0  0  0  0  0  2  0  0  0  0  0  0
  189.7000  175.5020  137.9600 C   0  0  2  0  0  3  0  0  0  0  0  0
  191.8770  176.1680  138.8560 C   0  0  0  0  0  2  0  0  0  0  0  0
  189.8440  177.8050  138.7710 C   0  0  1  0  0  3  0  0  0  0  0  0
  188.4020  177.4600  138.4210 C   0  0  2  0  0  0  0  0  0  0  0  0
  192.6160  175.1810  137.9260 C   0  0  0  0  0  2  0  0  0  0  0  0
  188.1300  179.5140  137.2270 O   0  0  0  0  0  0  0  0  0  0  0  0
  187.5860  178.6300  137.9380 C   0  0  0  0  0  0  0  0  0  0  0  0
  186.2230  178.7410  138.2340 O   0  0  0  0  0  0  0  0  0  0  0  0
  183.5250  180.1310  139.0900 O   0  0  0  0  0  1  0  0  0  0  0  0
  183.3420  178.7550  139.2590 C   0  0  2  0  0  0  0  0  0  0  0  0
  185.4490  177.6510  138.7350 C   0  0  1  0  0  3  0  0  0  0  0  0
  184.9100  177.2470  136.2720 C   0  0  0  0  0  1  0  0  0  0  0  0
  184.5780  178.1180  139.8880 C   0  0  1  0  0  3  0  0  0  0  0  0
  183.1960  178.0860  137.8960 C   0  0  0  0  0  2  0  0  0  0  0  0
  185.3080  179.0020  140.8930 C   0  0  0  0  0  1  0  0  0  0  0  0
  184.4160  177.2000  137.7090 C   0  0  2  0  0  3  0  0  0  0  0  0
  180.3970  179.3600  138.5600 N   0  0  0  0  0  0  0  0  0  0  0  0
  180.7980  178.7250  139.7840 C   0  0  0  0  0  0  0  0  0  0  0  0
  182.1790  178.4990  140.1080 N   0  0  0  0  0  2  0  0  0  0  0  0
  179.2300  179.1900  136.4230 C   0  0  0  0  0  2  0  0  0  0  0  0
  180.9320  180.8170  136.6760 C   0  0  0  0  0  2  0  0  0  0  0  0
  179.5860  180.5840  136.1640 N   0  0  0  0  0  2  0  0  0  0  0  0
  180.9470  180.6600  138.1940 C   0  0  0  0  0  2  0  0  0  0  0  0
  179.1460  178.9480  137.9280 C   0  0  0  0  0  2  0  0  0  0  0  0
  179.9180  178.3070  140.5830 O   0  0  0  0  0  0  0  0  0  0  0  0
  188.5120  178.6060  140.7030 C   0  0  0  0  0  2  0  0  0  0  0  0
  190.5260  178.0310  143.9290 C   0  0  0  0  0  2  0  0  0  0  0  0
  187.5070  177.1390  144.0680 C   0  0  0  0  0  2  0  0  0  0  0  0
  188.6560  177.5150  145.0040 C   0  0  0  0  0  2  0  0  0  0  0  0
  190.2110  178.0450  142.4340 C   0  0  0  0  0  2  0  0  0  0  0  0
  188.7300  178.3320  142.1780 C   0  0  2  0  0  3  0  0  0  0  0  0
  189.8670  176.9700  144.5610 O   0  0  0  0  0  0  0  0  0  0  0  0
  187.8930  177.1230  142.5840 C   0  0  0  0  0  2  0  0  0  0  0  0
  1 36  1  1  0  0  0
  2  8  1  0  0  0  0
  3 13  1  0  0  0  0
  3 12  1  1  0  0  0
  4 15  1  0  0  0  0
  5  2  2  0  0  0  0
  5  9  1  0  0  0  0
  6  2  1  0  0  0  0
  7  4  1  0  0  0  0
  7 11  1  0  0  0  0
  8  4  2  0  0  0  0
  9  7  2  0  0  0  0
 10 14  1  0  0  0  0
 11 10  1  6  0  0  0
 11  3  1  0  0  0  0
 13  1  1  0  0  0  0
 14 13  1  0  0  0  0
 14  1  1  0  0  0  0
 15 12  1  0  0  0  0
 16 17  2  0  0  0  0
 17 18  1  0  0  0  0
 17 14  1  0  0  0  0
 18 21  1  0  0  0  0
 19 20  1  0  0  0  0
 20 23  1  0  0  0  0
 20 29  1  0  0  0  0
 21 23  1  0  0  0  0
 22 26  1  0  0  0  0
 23 25  1  0  0  0  0
 24 20  1  0  0  0  0
 26 24  1  0  0  0  0
 26 21  1  0  0  0  0
 27 28  1  0  0  0  0
 28 29  1  0  0  0  0
 28 35  2  0  0  0  0
 30 34  1  0  0  0  0
 31 33  1  0  0  0  0
 32 30  1  0  0  0  0
 32 31  1  0  0  0  0
 33 27  1  0  0  0  0
 34 27  1  0  0  0  0
 36 41  1  0  0  0  0
 37 42  1  0  0  0  0
 38 39  1  0  0  0  0
 40 37  1  0  0  0  0
 41 40  1  0  0  0  0
 41 43  1  0  0  0  0
 42 39  1  0  0  0  0
 43 38  1  0  0  0  0
M  END
>  <MODEL>
4

>  <REMARK>
 VINA RESULT:      -8.0      3.354      9.282
  Name = 
  6 active torsions:
  status: ('A' for Active; 'I' for Inactive)
    1  A    between atoms: C_1  and  C_28
    2  A    between atoms: O_2  and  C_6
    3  A    between atoms: O_2  and  C_13
    4  A    between atoms: C_4  and  N_22
    5  A    between atoms: C_13  and  C_38
    6  A    between atoms: C_28  and  C_35
                            x       y       z     vdW  Elec       q    Type
                         _______ _______ _______ _____ _____    ______ ____

>  <TORSDO>
F 6

$$$$
=
 OpenBabel10262422303D

 43 49  0  0  1  0  0  0  0  0999 V2000
  186.7820  177.3110  139.1230 C   0  0  2  0  0  3  0  0  0  0  0  0
  187.8540  177.7250  146.1060 C   0  0  0  0  0  0  0  0  0  0  0  0
  186.7120  178.6590  141.3110 C   0  0  2  0  0  3  0  0  0  0  0  0
  186.6160  178.1940  144.0730 C   0  0  0  0  0  0  0  0  0  0  0  0
  188.8770  177.1370  145.3570 C   0  0  0  0  0  3  0  0  0  0  0  0
  187.9630  177.7920  147.5870 C   0  0  0  0  0  1  0  0  0  0  0  0
  187.6690  177.6260  143.3150 C   0  0  0  0  0  0  0  0  0  0  0  0
  186.7290  178.2530  145.4660 C   0  0  0  0  0  3  0  0  0  0  0  0
  188.7810  177.0760  143.9640 C   0  0  0  0  0  3  0  0  0  0  0  0
  188.6810  177.4000  140.9310 C   0  0  0  0  0  2  0  0  0  0  0  0
  187.4750  177.4770  141.8380 C   0  0  2  0  0  3  0  0  0  0  0  0
  185.3100  178.6150  141.8860 C   0  0  0  0  0  2  0  0  0  0  0  0
  186.8740  178.6800  139.7960 C   0  0  1  0  0  3  0  0  0  0  0  0
  188.1420  177.8650  139.5720 C   0  0  2  0  0  0  0  0  0  0  0  0
  185.4000  178.8250  143.4140 C   0  0  0  0  0  2  0  0  0  0  0  0
  189.0550  179.7050  138.3470 O   0  0  0  0  0  0  0  0  0  0  0  0
  189.0980  178.4680  138.5770 C   0  0  0  0  0  0  0  0  0  0  0  0
  190.0580  177.6890  137.9230 O   0  0  0  0  0  0  0  0  0  0  0  0
  191.6970  176.6890  135.4210 O   0  0  0  0  0  1  0  0  0  0  0  0
  191.6220  175.6130  136.3110 C   0  0  2  0  0  0  0  0  0  0  0  0
  190.2480  176.3020  138.2010 C   0  0  1  0  0  3  0  0  0  0  0  0
  192.1950  177.1280  139.6330 C   0  0  0  0  0  1  0  0  0  0  0  0
  190.2230  175.5030  136.9100 C   0  0  1  0  0  3  0  0  0  0  0  0
  192.5470  175.8630  137.4980 C   0  0  0  0  0  2  0  0  0  0  0  0
  189.0930  175.8970  135.9640 C   0  0  0  0  0  1  0  0  0  0  0  0
  191.6590  176.0390  138.7180 C   0  0  2  0  0  3  0  0  0  0  0  0
  194.3920  174.8180  135.2040 N   0  0  0  0  0  0  0  0  0  0  0  0
  193.2470  173.9530  135.1500 C   0  0  0  0  0  0  0  0  0  0  0  0
  191.9570  174.3650  135.6270 N   0  0  0  0  0  2  0  0  0  0  0  0
  196.6190  175.2530  136.1030 C   0  0  0  0  0  2  0  0  0  0  0  0
  195.3150  177.0740  135.3330 C   0  0  0  0  0  2  0  0  0  0  0  0
  196.6510  176.4860  135.3180 N   0  0  0  0  0  2  0  0  0  0  0  0
  194.3320  176.1520  134.6170 C   0  0  0  0  0  2  0  0  0  0  0  0
  195.7110  174.2300  135.4250 C   0  0  0  0  0  2  0  0  0  0  0  0
  193.3790  172.7780  134.7140 O   0  0  0  0  0  0  0  0  0  0  0  0
  186.5070  177.5130  137.6400 C   0  0  0  0  0  2  0  0  0  0  0  0
  184.0120  175.9210  135.1830 C   0  0  0  0  0  2  0  0  0  0  0  0
  183.0520  176.0130  138.1830 C   0  0  0  0  0  2  0  0  0  0  0  0
  182.7590  175.2550  136.8870 C   0  0  0  0  0  2  0  0  0  0  0  0
  185.0320  176.9220  135.7220 C   0  0  0  0  0  2  0  0  0  0  0  0
  185.3060  176.6930  137.2100 C   0  0  2  0  0  3  0  0  0  0  0  0
  182.7640  176.1180  135.7860 O   0  0  0  0  0  0  0  0  0  0  0  0
  184.0950  177.1260  138.0300 C   0  0  0  0  0  2  0  0  0  0  0  0
  1 36  1  6  0  0  0
  1 14  1  0  0  0  0
  1 13  1  0  0  0  0
  2  6  1  0  0  0  0
  3 11  1  0  0  0  0
  3 12  1  6  0  0  0
  4  8  2  0  0  0  0
  5  2  2  0  0  0  0
  7  9  2  0  0  0  0
  7  4  1  0  0  0  0
  8  2  1  0  0  0  0
  9  5  1  0  0  0  0
 11 10  1  6  0  0  0
 11  7  1  0  0  0  0
 12 15  1  0  0  0  0
 13  3  1  0  0  0  0
 14 13  1  0  0  0  0
 14 10  1  0  0  0  0
 15  4  1  0  0  0  0
 16 17  2  0  0  0  0
 17 14  1  0  0  0  0
 18 21  1  0  0  0  0
 18 17  1  0  0  0  0
 19 20  1  0  0  0  0
 20 23  1  0  0  0  0
 20 24  1  0  0  0  0
 21 26  1  0  0  0  0
 23 21  1  0  0  0  0
 24 26  1  0  0  0  0
 25 23  1  0  0  0  0
 26 22  1  0  0  0  0
 27 34  1  0  0  0  0
 28 27  1  0  0  0  0
 28 29  1  0  0  0  0
 29 20  1  0  0  0  0
 32 31  1  0  0  0  0
 32 30  1  0  0  0  0
 33 27  1  0  0  0  0
 33 31  1  0  0  0  0
 34 30  1  0  0  0  0
 35 28  2  0  0  0  0
 37 40  1  0  0  0  0
 37 42  1  0  0  0  0
 39 38  1  0  0  0  0
 40 41  1  0  0  0  0
 41 36  1  0  0  0  0
 41 43  1  0  0  0  0
 42 39  1  0  0  0  0
 43 38  1  0  0  0  0
M  END
>  <MODEL>
5

>  <REMARK>
 VINA RESULT:      -8.0      2.807      4.795
  Name = 
  6 active torsions:
  status: ('A' for Active; 'I' for Inactive)
    1  A    between atoms: C_1  and  C_28
    2  A    between atoms: O_2  and  C_6
    3  A    between atoms: O_2  and  C_13
    4  A    between atoms: C_4  and  N_22
    5  A    between atoms: C_13  and  C_38
    6  A    between atoms: C_28  and  C_35
                            x       y       z     vdW  Elec       q    Type
                         _______ _______ _______ _____ _____    ______ ____

>  <TORSDO>
F 6

$$$$
=
 OpenBabel10262422303D

 43 49  0  0  1  0  0  0  0  0999 V2000
  187.9640  177.0570  142.9050 C   0  0  2  0  0  3  0  0  0  0  0  0
  192.7700  176.4080  137.7510 C   0  0  0  0  0  0  0  0  0  0  0  0
  189.9980  177.9750  141.6280 C   0  0  2  0  0  3  0  0  0  0  0  0
  192.0630  177.0250  139.9880 C   0  0  0  0  0  0  0  0  0  0  0  0
  191.4460  176.1270  137.4010 C   0  0  0  0  0  3  0  0  0  0  0  0
  193.8550  176.2320  136.7500 C   0  0  0  0  0  1  0  0  0  0  0  0
  190.7180  176.7700  139.6210 C   0  0  0  0  0  0  0  0  0  0  0  0
  193.0760  176.8570  139.0390 C   0  0  0  0  0  3  0  0  0  0  0  0
  190.4220  176.2960  138.3370 C   0  0  0  0  0  3  0  0  0  0  0  0
  188.2330  177.1250  140.2970 C   0  0  0  0  0  2  0  0  0  0  0  0
  189.6680  176.8520  140.6840 C   0  0  2  0  0  3  0  0  0  0  0  0
  191.2670  177.6130  142.3730 C   0  0  0  0  0  2  0  0  0  0  0  0
  188.7450  178.2850  142.4380 C   0  0  1  0  0  3  0  0  0  0  0  0
  187.6240  177.7300  141.5680 C   0  0  2  0  0  0  0  0  0  0  0  0
  192.4330  177.5640  141.3610 C   0  0  0  0  0  2  0  0  0  0  0  0
  186.4620  179.7810  141.9700 O   0  0  0  0  0  0  0  0  0  0  0  0
  186.4300  178.6390  141.4410 C   0  0  0  0  0  0  0  0  0  0  0  0
  185.2940  178.2570  140.7200 O   0  0  0  0  0  0  0  0  0  0  0  0
  184.0380  176.5320  138.3990 O   0  0  0  0  0  1  0  0  0  0  0  0
  183.4180  177.7840  138.3510 C   0  0  2  0  0  0  0  0  0  0  0  0
  184.4560  179.1950  140.0450 C   0  0  1  0  0  3  0  0  0  0  0  0
  182.7850  178.6300  141.8930 C   0  0  0  0  0  1  0  0  0  0  0  0
  184.4390  178.9000  138.5560 C   0  0  1  0  0  3  0  0  0  0  0  0
  182.4410  177.9180  139.5150 C   0  0  0  0  0  2  0  0  0  0  0  0
  185.8180  178.6180  137.9680 C   0  0  0  0  0  1  0  0  0  0  0  0
  182.9940  178.9960  140.4320 C   0  0  2  0  0  3  0  0  0  0  0  0
  180.8990  176.2950  137.3700 N   0  0  0  0  0  0  0  0  0  0  0  0
  181.5480  177.3260  136.6090 C   0  0  0  0  0  0  0  0  0  0  0  0
  182.7480  177.9700  137.0660 N   0  0  0  0  0  2  0  0  0  0  0  0
  178.9310  175.5640  138.6130 C   0  0  0  0  0  2  0  0  0  0  0  0
  181.0210  174.5510  139.0730 C   0  0  0  0  0  2  0  0  0  0  0  0
  179.6030  174.2880  138.8490 N   0  0  0  0  0  2  0  0  0  0  0  0
  181.6510  175.1240  137.8070 C   0  0  0  0  0  2  0  0  0  0  0  0
  179.4430  176.1880  137.3180 C   0  0  0  0  0  2  0  0  0  0  0  0
  181.0300  177.7180  135.5290 O   0  0  0  0  0  0  0  0  0  0  0  0
  187.0400  177.4700  144.0420 C   0  0  0  0  0  2  0  0  0  0  0  0
  190.0100  177.1370  146.4640 C   0  0  0  0  0  2  0  0  0  0  0  0
  187.3660  178.2720  147.7480 C   0  0  0  0  0  2  0  0  0  0  0  0
  188.8720  178.2460  148.0110 C   0  0  0  0  0  2  0  0  0  0  0  0
  189.0310  176.7550  145.3550 C   0  0  0  0  0  2  0  0  0  0  0  0
  187.8380  177.7120  145.3080 C   0  0  2  0  0  3  0  0  0  0  0  0
  189.4130  176.9880  147.7210 O   0  0  0  0  0  0  0  0  0  0  0  0
  186.9350  177.4710  146.5140 C   0  0  0  0  0  2  0  0  0  0  0  0
  1 36  1  1  0  0  0
  2  8  1  0  0  0  0
  3 12  1  1  0  0  0
  3 13  1  0  0  0  0
  4 15  1  0  0  0  0
  5  2  2  0  0  0  0
  5  9  1  0  0  0  0
  6  2  1  0  0  0  0
  7  4  1  0  0  0  0
  7 11  1  0  0  0  0
  8  4  2  0  0  0  0
  9  7  2  0  0  0  0
 10 14  1  0  0  0  0
 11 10  1  6  0  0  0
 11  3  1  0  0  0  0
 13  1  1  0  0  0  0
 14 13  1  0  0  0  0
 14  1  1  0  0  0  0
 15 12  1  0  0  0  0
 17 14  1  0  0  0  0
 17 16  2  0  0  0  0
 18 17  1  0  0  0  0
 20 19  1  0  0  0  0
 20 23  1  0  0  0  0
 20 24  1  0  0  0  0
 21 26  1  0  0  0  0
 21 18  1  0  0  0  0
 23 21  1  0  0  0  0
 24 26  1  0  0  0  0
 25 23  1  0  0  0  0
 26 22  1  0  0  0  0
 27 33  1  0  0  0  0
 28 29  1  0  0  0  0
 28 27  1  0  0  0  0
 29 20  1  0  0  0  0
 30 32  1  0  0  0  0
 32 31  1  0  0  0  0
 33 31  1  0  0  0  0
 34 27  1  0  0  0  0
 34 30  1  0  0  0  0
 35 28  2  0  0  0  0
 36 41  1  0  0  0  0
 37 42  1  0  0  0  0
 38 39  1  0  0  0  0
 40 37  1  0  0  0  0
 41 40  1  0  0  0  0
 41 43  1  0  0  0  0
 42 39  1  0  0  0  0
 43 38  1  0  0  0  0
M  END
>  <MODEL>
6

>  <REMARK>
 VINA RESULT:      -7.9      3.685      8.301
  Name = 
  6 active torsions:
  status: ('A' for Active; 'I' for Inactive)
    1  A    between atoms: C_1  and  C_28
    2  A    between atoms: O_2  and  C_6
    3  A    between atoms: O_2  and  C_13
    4  A    between atoms: C_4  and  N_22
    5  A    between atoms: C_13  and  C_38
    6  A    between atoms: C_28  and  C_35
                            x       y       z     vdW  Elec       q    Type
                         _______ _______ _______ _____ _____    ______ ____

>  <TORSDO>
F 6

$$$$
=
 OpenBabel10262422303D

 43 49  0  0  1  0  0  0  0  0999 V2000
  187.8060  177.2820  142.6480 C   0  0  2  0  0  3  0  0  0  0  0  0
  192.5740  176.4380  137.4870 C   0  0  0  0  0  0  0  0  0  0  0  0
  189.9430  178.0510  141.4430 C   0  0  2  0  0  3  0  0  0  0  0  0
  191.9120  176.9870  139.7560 C   0  0  0  0  0  0  0  0  0  0  0  0
  191.2320  176.3260  137.1140 C   0  0  0  0  0  3  0  0  0  0  0  0
  193.6460  176.2080  136.4830 C   0  0  0  0  0  1  0  0  0  0  0  0
  190.5520  176.9040  139.3660 C   0  0  0  0  0  0  0  0  0  0  0  0
  192.9120  176.7690  138.8030 C   0  0  0  0  0  3  0  0  0  0  0  0
  190.2220  176.5470  138.0530 C   0  0  0  0  0  3  0  0  0  0  0  0
  188.1130  177.4850  140.0520 C   0  0  0  0  0  2  0  0  0  0  0  0
  189.5050  177.0330  140.4270 C   0  0  2  0  0  3  0  0  0  0  0  0
  191.1570  177.5060  142.1700 C   0  0  0  0  0  2  0  0  0  0  0  0
  188.7220  178.4450  142.2640 C   0  0  1  0  0  3  0  0  0  0  0  0
  187.5580  178.0710  141.3550 C   0  0  2  0  0  0  0  0  0  0  0  0
  192.3220  177.3940  141.1630 C   0  0  0  0  0  2  0  0  0  0  0  0
  186.4770  180.0740  142.0940 O   0  0  0  0  0  0  0  0  0  0  0  0
  186.4720  179.1120  141.2810 C   0  0  0  0  0  0  0  0  0  0  0  0
  185.4700  179.0540  140.3070 O   0  0  0  0  0  0  0  0  0  0  0  0
  182.5130  180.0980  139.9720 O   0  0  0  0  0  1  0  0  0  0  0  0
  182.5010  178.7380  139.6430 C   0  0  2  0  0  0  0  0  0  0  0  0
  184.7420  177.8600  140.0180 C   0  0  1  0  0  3  0  0  0  0  0  0
  185.5630  178.2540  137.6310 C   0  0  0  0  0  1  0  0  0  0  0  0
  183.3520  177.9370  140.6240 C   0  0  1  0  0  3  0  0  0  0  0  0
  183.1590  178.5330  138.2820 C   0  0  0  0  0  2  0  0  0  0  0  0
  183.3340  178.4600  142.0570 C   0  0  0  0  0  1  0  0  0  0  0  0
  184.4410  177.7540  138.5270 C   0  0  2  0  0  3  0  0  0  0  0  0
  180.0870  179.9220  138.1270 N   0  0  0  0  0  0  0  0  0  0  0  0
  180.0060  178.7280  138.9210 C   0  0  0  0  0  0  0  0  0  0  0  0
  181.1320  178.2250  139.6570 N   0  0  0  0  0  2  0  0  0  0  0  0
  179.9810  180.9500  135.9160 C   0  0  0  0  0  2  0  0  0  0  0  0
  181.1800  182.0490  137.6370 C   0  0  0  0  0  2  0  0  0  0  0  0
  180.2260  182.2450  136.5500 N   0  0  0  0  0  2  0  0  0  0  0  0
  180.5640  181.1660  138.7190 C   0  0  0  0  0  2  0  0  0  0  0  0
  179.2930  180.0110  136.9030 C   0  0  0  0  0  2  0  0  0  0  0  0
  178.9320  178.0700  138.9420 O   0  0  0  0  0  0  0  0  0  0  0  0
  186.9190  177.7210  143.8050 C   0  0  0  0  0  2  0  0  0  0  0  0
  187.3950  177.8060  147.6210 C   0  0  0  0  0  2  0  0  0  0  0  0
  189.9910  177.1260  145.9700 C   0  0  0  0  0  2  0  0  0  0  0  0
  189.4340  176.9660  147.3850 C   0  0  0  0  0  2  0  0  0  0  0  0
  186.9120  178.2440  146.2390 C   0  0  0  0  0  2  0  0  0  0  0  0
  187.6100  177.4560  145.1280 C   0  0  2  0  0  3  0  0  0  0  0  0
  188.7490  178.1170  147.7910 O   0  0  0  0  0  0  0  0  0  0  0  0
  189.0660  177.8960  145.0200 C   0  0  0  0  0  2  0  0  0  0  0  0
  1 36  1  1  0  0  0
  2  8  1  0  0  0  0
  3 12  1  1  0  0  0
  3 13  1  0  0  0  0
  4 15  1  0  0  0  0
  5  2  2  0  0  0  0
  5  9  1  0  0  0  0
  6  2  1  0  0  0  0
  7  4  1  0  0  0  0
  7 11  1  0  0  0  0
  8  4  2  0  0  0  0
  9  7  2  0  0  0  0
 10 14  1  0  0  0  0
 11 10  1  6  0  0  0
 11  3  1  0  0  0  0
 13  1  1  0  0  0  0
 14 13  1  0  0  0  0
 14  1  1  0  0  0  0
 15 12  1  0  0  0  0
 17 14  1  0  0  0  0
 17 16  2  0  0  0  0
 18 17  1  0  0  0  0
 20 29  1  0  0  0  0
 20 19  1  0  0  0  0
 20 23  1  0  0  0  0
 21 18  1  0  0  0  0
 21 23  1  0  0  0  0
 22 26  1  0  0  0  0
 23 25  1  0  0  0  0
 24 26  1  0  0  0  0
 24 20  1  0  0  0  0
 26 21  1  0  0  0  0
 27 33  1  0  0  0  0
 27 28  1  0  0  0  0
 28 35  2  0  0  0  0
 28 29  1  0  0  0  0
 30 32  1  0  0  0  0
 30 34  1  0  0  0  0
 31 33  1  0  0  0  0
 32 31  1  0  0  0  0
 34 27  1  0  0  0  0
 36 41  1  0  0  0  0
 37 42  1  0  0  0  0
 38 39  1  0  0  0  0
 39 42  1  0  0  0  0
 40 37  1  0  0  0  0
 41 40  1  0  0  0  0
 43 41  1  0  0  0  0
 43 38  1  0  0  0  0
M  END
>  <MODEL>
7

>  <REMARK>
 VINA RESULT:      -7.4      3.724      8.892
  Name = 
  6 active torsions:
  status: ('A' for Active; 'I' for Inactive)
    1  A    between atoms: C_1  and  C_28
    2  A    between atoms: O_2  and  C_6
    3  A    between atoms: O_2  and  C_13
    4  A    between atoms: C_4  and  N_22
    5  A    between atoms: C_13  and  C_38
    6  A    between atoms: C_28  and  C_35
                            x       y       z     vdW  Elec       q    Type
                         _______ _______ _______ _____ _____    ______ ____

>  <TORSDO>
F 6

$$$$
=
 OpenBabel10262422303D

 43 49  0  0  1  0  0  0  0  0999 V2000
  189.0840  177.2340  140.1590 C   0  0  2  0  0  3  0  0  0  0  0  0
  193.1970  173.2830  135.9700 C   0  0  0  0  0  0  0  0  0  0  0  0
  191.0060  177.0460  138.4620 C   0  0  2  0  0  3  0  0  0  0  0  0
  192.8000  175.1120  137.5130 C   0  0  0  0  0  0  0  0  0  0  0  0
  191.8260  173.0140  135.9230 C   0  0  0  0  0  3  0  0  0  0  0  0
  194.1440  172.4570  135.1760 C   0  0  0  0  0  1  0  0  0  0  0  0
  191.4080  174.8570  137.4380 C   0  0  0  0  0  0  0  0  0  0  0  0
  193.6810  174.3290  136.7610 C   0  0  0  0  0  3  0  0  0  0  0  0
  190.9330  173.7920  136.6630 C   0  0  0  0  0  3  0  0  0  0  0  0
  189.0470  175.8170  137.9520 C   0  0  0  0  0  2  0  0  0  0  0  0
  190.4970  175.6370  138.3350 C   0  0  2  0  0  3  0  0  0  0  0  0
  192.3290  177.0090  139.2000 C   0  0  0  0  0  2  0  0  0  0  0  0
  189.8790  177.8970  139.0340 C   0  0  1  0  0  3  0  0  0  0  0  0
  188.6310  177.0900  138.6990 C   0  0  2  0  0  0  0  0  0  0  0  0
  193.3620  176.2720  138.3200 C   0  0  0  0  0  2  0  0  0  0  0  0
  187.7320  178.9910  137.5570 O   0  0  0  0  0  0  0  0  0  0  0  0
  187.4900  177.9110  138.1580 C   0  0  0  0  0  0  0  0  0  0  0  0
  186.1630  177.4860  138.2800 O   0  0  0  0  0  0  0  0  0  0  0  0
  183.9510  175.2590  137.9760 O   0  0  0  0  0  1  0  0  0  0  0  0
  183.3540  176.4720  137.6180 C   0  0  2  0  0  0  0  0  0  0  0  0
  185.0670  178.2030  137.7110 C   0  0  1  0  0  3  0  0  0  0  0  0
  184.5990  178.8820  140.1280 C   0  0  0  0  0  1  0  0  0  0  0  0
  184.2990  177.3060  136.7560 C   0  0  1  0  0  3  0  0  0  0  0  0
  183.1080  177.3110  138.8680 C   0  0  0  0  0  2  0  0  0  0  0  0
  185.1900  176.4960  135.8210 C   0  0  0  0  0  1  0  0  0  0  0  0
  184.0180  178.5250  138.7700 C   0  0  2  0  0  3  0  0  0  0  0  0
  182.4510  173.7910  136.3840 N   0  0  0  0  0  0  0  0  0  0  0  0
  181.6500  174.9820  136.3460 C   0  0  0  0  0  0  0  0  0  0  0  0
  182.1140  176.2310  136.8840 N   0  0  0  0  0  2  0  0  0  0  0  0
  182.7380  171.5130  137.2120 C   0  0  0  0  0  2  0  0  0  0  0  0
  184.6500  172.7430  136.5490 C   0  0  0  0  0  2  0  0  0  0  0  0
  183.9930  171.4430  136.4650 N   0  0  0  0  0  2  0  0  0  0  0  0
  183.8050  173.8000  135.8420 C   0  0  0  0  0  2  0  0  0  0  0  0
  181.7870  172.4980  136.5370 C   0  0  0  0  0  2  0  0  0  0  0  0
  180.4840  174.9300  135.8690 O   0  0  0  0  0  0  0  0  0  0  0  0
  188.3280  178.3130  140.9230 C   0  0  0  0  0  2  0  0  0  0  0  0
  190.4080  178.2600  144.1570 C   0  0  0  0  0  2  0  0  0  0  0  0
  187.5410  176.9740  144.3970 C   0  0  0  0  0  2  0  0  0  0  0  0
  188.6300  177.5720  145.2900 C   0  0  0  0  0  2  0  0  0  0  0  0
  190.0920  178.1200  142.6700 C   0  0  0  0  0  2  0  0  0  0  0  0
  188.5840  178.1810  142.4110 C   0  0  2  0  0  3  0  0  0  0  0  0
  189.9030  177.1680  144.8730 O   0  0  0  0  0  0  0  0  0  0  0  0
  187.9230  176.9020  142.9140 C   0  0  0  0  0  2  0  0  0  0  0  0
  1 36  1  1  0  0  0
  2  8  1  0  0  0  0
  3 13  1  0  0  0  0
  3 12  1  1  0  0  0
  4 15  1  0  0  0  0
  5  2  2  0  0  0  0
  5  9  1  0  0  0  0
  6  2  1  0  0  0  0
  7  4  1  0  0  0  0
  7 11  1  0  0  0  0
  8  4  2  0  0  0  0
  9  7  2  0  0  0  0
 10 14  1  0  0  0  0
 11 10  1  6  0  0  0
 11  3  1  0  0  0  0
 13  1  1  0  0  0  0
 14 13  1  0  0  0  0
 14  1  1  0  0  0  0
 15 12  1  0  0  0  0
 16 17  2  0  0  0  0
 17 18  1  0  0  0  0
 17 14  1  0  0  0  0
 20 19  1  0  0  0  0
 20 24  1  0  0  0  0
 21 18  1  0  0  0  0
 21 26  1  0  0  0  0
 23 20  1  0  0  0  0
 23 21  1  0  0  0  0
 25 23  1  0  0  0  0
 26 24  1  0  0  0  0
 26 22  1  0  0  0  0
 27 34  1  0  0  0  0
 28 27  1  0  0  0  0
 28 29  1  0  0  0  0
 29 20  1  0  0  0  0
 32 31  1  0  0  0  0
 32 30  1  0  0  0  0
 33 27  1  0  0  0  0
 33 31  1  0  0  0  0
 34 30  1  0  0  0  0
 35 28  2  0  0  0  0
 36 41  1  0  0  0  0
 37 42  1  0  0  0  0
 38 39  1  0  0  0  0
 40 37  1  0  0  0  0
 41 40  1  0  0  0  0
 41 43  1  0  0  0  0
 42 39  1  0  0  0  0
 43 38  1  0  0  0  0
M  END
>  <MODEL>
8

>  <REMARK>
 VINA RESULT:      -7.4      3.448      8.461
  Name = 
  6 active torsions:
  status: ('A' for Active; 'I' for Inactive)
    1  A    between atoms: C_1  and  C_28
    2  A    between atoms: O_2  and  C_6
    3  A    between atoms: O_2  and  C_13
    4  A    between atoms: C_4  and  N_22
    5  A    between atoms: C_13  and  C_38
    6  A    between atoms: C_28  and  C_35
                            x       y       z     vdW  Elec       q    Type
                         _______ _______ _______ _____ _____    ______ ____

>  <TORSDO>
F 6

$$$$
=
 OpenBabel10262422303D

 43 49  0  0  1  0  0  0  0  0999 V2000
  183.1290  177.9530  140.9370 C   0  0  2  0  0  3  0  0  0  0  0  0
  187.4450  177.9210  146.5460 C   0  0  0  0  0  0  0  0  0  0  0  0
  184.1280  179.1430  142.9860 C   0  0  2  0  0  3  0  0  0  0  0  0
  185.3790  178.4850  145.4060 C   0  0  0  0  0  0  0  0  0  0  0  0
  187.9760  177.4230  145.3530 C   0  0  0  0  0  3  0  0  0  0  0  0
  188.2560  177.8900  147.7910 C   0  0  0  0  0  1  0  0  0  0  0  0
  185.9320  178.0090  144.1920 C   0  0  0  0  0  0  0  0  0  0  0  0
  186.1510  178.4510  146.5710 C   0  0  0  0  0  3  0  0  0  0  0  0
  187.2190  177.4560  144.1790 C   0  0  0  0  0  3  0  0  0  0  0  0
  185.6640  177.9860  141.6060 C   0  0  0  0  0  2  0  0  0  0  0  0
  185.0480  177.9550  142.9850 C   0  0  2  0  0  3  0  0  0  0  0  0
  183.1790  179.0090  144.1600 C   0  0  0  0  0  2  0  0  0  0  0  0
  183.5370  179.2750  141.5870 C   0  0  1  0  0  3  0  0  0  0  0  0
  184.5370  178.5240  140.7170 C   0  0  2  0  0  0  0  0  0  0  0  0
  183.9960  179.1160  145.4660 C   0  0  0  0  0  2  0  0  0  0  0  0
  184.4940  180.4060  139.2420 O   0  0  0  0  0  0  0  0  0  0  0  0
  184.8940  179.2280  139.4350 C   0  0  0  0  0  0  0  0  0  0  0  0
  185.6890  178.6140  138.4610 O   0  0  0  0  0  0  0  0  0  0  0  0
  186.6140  177.9910  135.5110 O   0  0  0  0  0  1  0  0  0  0  0  0
  186.8990  176.8540  136.2730 C   0  0  2  0  0  0  0  0  0  0  0  0
  186.0770  177.2420  138.5330 C   0  0  1  0  0  3  0  0  0  0  0  0
  188.2720  178.1860  139.4350 C   0  0  0  0  0  1  0  0  0  0  0  0
  185.7500  176.5400  137.2270 C   0  0  1  0  0  3  0  0  0  0  0  0
  188.1020  177.1250  137.1710 C   0  0  0  0  0  2  0  0  0  0  0  0
  184.3630  176.8660  136.6830 C   0  0  0  0  0  1  0  0  0  0  0  0
  187.5940  177.1090  138.6030 C   0  0  2  0  0  3  0  0  0  0  0  0
  189.5330  175.2670  136.0000 N   0  0  0  0  0  0  0  0  0  0  0  0
  188.3310  174.9210  135.2940 C   0  0  0  0  0  0  0  0  0  0  0  0
  187.1320  175.7040  135.4000 N   0  0  0  0  0  2  0  0  0  0  0  0
  191.1830  174.6720  137.6970 C   0  0  0  0  0  2  0  0  0  0  0  0
  190.8990  176.9520  137.1210 C   0  0  0  0  0  2  0  0  0  0  0  0
  191.8900  175.9140  137.3880 N   0  0  0  0  0  2  0  0  0  0  0  0
  190.1040  176.6020  135.8650 C   0  0  0  0  0  2  0  0  0  0  0  0
  190.4090  174.1970  136.4710 C   0  0  0  0  0  2  0  0  0  0  0  0
  188.3040  173.8730  134.5940 O   0  0  0  0  0  0  0  0  0  0  0  0
  182.1700  178.2480  139.7920 C   0  0  0  0  0  2  0  0  0  0  0  0
  180.2440  175.7210  137.6250 C   0  0  0  0  0  2  0  0  0  0  0  0
  179.4980  175.6910  140.6860 C   0  0  0  0  0  2  0  0  0  0  0  0
  179.4100  174.7870  139.4550 C   0  0  0  0  0  2  0  0  0  0  0  0
  180.8810  177.0480  138.0310 C   0  0  0  0  0  2  0  0  0  0  0  0
  181.3080  177.0350  139.5010 C   0  0  2  0  0  3  0  0  0  0  0  0
  179.0450  175.5170  138.3180 O   0  0  0  0  0  0  0  0  0  0  0  0
  180.0750  177.0810  140.3970 C   0  0  0  0  0  2  0  0  0  0  0  0
  1 36  1  6  0  0  0
  1 13  1  0  0  0  0
  2  8  1  0  0  0  0
  2  6  1  0  0  0  0
  3 12  1  1  0  0  0
  4 15  1  0  0  0  0
  4  8  2  0  0  0  0
  5  2  2  0  0  0  0
  7  4  1  0  0  0  0
  9  7  2  0  0  0  0
  9  5  1  0  0  0  0
 11 10  1  6  0  0  0
 11  3  1  0  0  0  0
 11  7  1  0  0  0  0
 12 15  1  0  0  0  0
 13  3  1  0  0  0  0
 14  1  1  0  0  0  0
 14 13  1  0  0  0  0
 14 10  1  0  0  0  0
 16 17  2  0  0  0  0
 17 14  1  0  0  0  0
 18 21  1  0  0  0  0
 18 17  1  0  0  0  0
 19 20  1  0  0  0  0
 20 24  1  0  0  0  0
 20 23  1  0  0  0  0
 21 26  1  0  0  0  0
 23 21  1  0  0  0  0
 24 26  1  0  0  0  0
 25 23  1  0  0  0  0
 26 22  1  0  0  0  0
 27 34  1  0  0  0  0
 28 29  1  0  0  0  0
 28 27  1  0  0  0  0
 29 20  1  0  0  0  0
 31 32  1  0  0  0  0
 32 30  1  0  0  0  0
 33 27  1  0  0  0  0
 33 31  1  0  0  0  0
 34 30  1  0  0  0  0
 35 28  2  0  0  0  0
 37 40  1  0  0  0  0
 37 42  1  0  0  0  0
 39 38  1  0  0  0  0
 40 41  1  0  0  0  0
 41 36  1  0  0  0  0
 41 43  1  0  0  0  0
 42 39  1  0  0  0  0
 43 38  1  0  0  0  0
M  END
>  <MODEL>
9

>  <REMARK>
 VINA RESULT:      -7.3      1.815      2.892
  Name = 
  6 active torsions:
  status: ('A' for Active; 'I' for Inactive)
    1  A    between atoms: C_1  and  C_28
    2  A    between atoms: O_2  and  C_6
    3  A    between atoms: O_2  and  C_13
    4  A    between atoms: C_4  and  N_22
    5  A    between atoms: C_13  and  C_38
    6  A    between atoms: C_28  and  C_35
                            x       y       z     vdW  Elec       q    Type
                         _______ _______ _______ _____ _____    ______ ____

>  <TORSDO>
F 6

$$$$
