=
 OpenBabel10262421123D

 32 37  0  0  1  0  0  0  0  0999 V2000
  189.8630  177.2250  141.7850 C   0  0  1  0  0  3  0  0  0  0  0  0
  187.7720  178.4230  142.7300 C   0  0  2  0  0  3  0  0  0  0  0  0
  191.3550  177.0510  142.0740 C   0  0  0  0  0  2  0  0  0  0  0  0
  189.2340  177.9900  142.9640 C   0  0  1  0  0  3  0  0  0  0  0  0
  186.7490  177.8470  143.7070 C   0  0  2  0  0  3  0  0  0  0  0  0
  183.8610  178.9490  139.7070 C   0  0  0  0  0  2  0  0  0  0  0  0
  187.2820  178.1620  141.3150 C   0  0  2  0  0  3  0  0  0  0  0  0
  183.5930  178.8180  142.1970 C   0  0  0  0  0  2  0  0  0  0  0  0
  185.0000  178.2430  142.3170 C   0  0  2  0  0  3  0  0  0  0  0  0
  189.4690  177.2470  144.2610 C   0  0  0  0  0  0  0  0  0  0  0  0
  185.5470  178.5750  143.5760 O   0  0  0  0  0  0  0  0  0  0  0  0
  188.5850  177.2390  145.2160 N   0  0  0  0  0  0  0  0  0  0  0  0
  190.7100  176.4690  144.4100 C   0  0  0  0  0  3  0  0  0  0  0  0
  188.3120  178.7200  140.3420 C   0  0  0  0  0  2  0  0  0  0  0  0
  189.6140  177.9000  140.4070 C   0  0  2  0  0  3  0  0  0  0  0  0
  185.8880  178.7700  141.1630 C   0  0  2  0  0  3  0  0  0  0  0  0
  187.3120  177.9550  145.1250 C   0  0  2  0  0  3  0  0  0  0  0  0
  191.5750  176.3570  143.3950 C   0  0  0  0  0  3  0  0  0  0  0  0
  182.9860  178.4370  140.8490 C   0  0  0  0  0  2  0  0  0  0  0  0
  185.2720  178.3750  139.8220 C   0  0  0  0  0  2  0  0  0  0  0  0
  188.4700  176.0380  137.1460 C   0  0  2  0  0  3  0  0  0  0  0  0
  187.2160  175.4870  137.4050 O   0  0  0  0  0  1  0  0  0  0  0  0
  189.6010  176.8950  139.2460 C   0  0  2  0  0  3  0  0  0  0  0  0
  189.5430  174.9460  137.2690 C   0  0  0  0  0  2  0  0  0  0  0  0
  190.9660  176.2980  138.8620 C   0  0  0  0  0  2  0  0  0  0  0  0
  188.6990  177.2570  138.0560 C   0  0  1  0  0  3  0  0  0  0  0  0
  189.2720  178.3910  137.2250 C   0  0  0  0  0  1  0  0  0  0  0  0
  190.9220  175.5490  137.5230 C   0  0  1  0  0  3  0  0  0  0  0  0
  193.1310  174.7420  137.6930 O   0  0  0  0  0  0  0  0  0  0  0  0
  191.9560  174.4730  137.5040 C   0  0  0  0  0  3  0  0  0  0  0  0
  186.3330  177.4360  146.1770 C   0  0  0  0  0  2  0  0  0  0  0  0
  185.6840  178.5650  146.9630 C   0  0  0  0  0  1  0  0  0  0  0  0
  1  3  1  1  0  0  0
  1  4  1  0  0  0  0
  2  4  1  0  0  0  0
  2  5  1  0  0  0  0
  3 18  1  0  0  0  0
  4 10  1  0  0  0  0
  5 17  1  0  0  0  0
  6 20  1  0  0  0  0
  6 19  1  0  0  0  0
  7  2  1  0  0  0  0
  8  9  1  0  0  0  0
  9 11  1  0  0  0  0
 10 13  1  0  0  0  0
 10 12  2  0  0  0  0
 11  5  1  0  0  0  0
 14 15  1  0  0  0  0
 14  7  1  0  0  0  0
 15  1  1  0  0  0  0
 16  7  1  0  0  0  0
 16  9  1  0  0  0  0
 17 12  1  0  0  0  0
 17 31  1  0  0  0  0
 18 13  2  0  0  0  0
 19  8  1  0  0  0  0
 20 16  1  0  0  0  0
 21 24  1  0  0  0  0
 21 22  1  0  0  0  0
 21 26  1  0  0  0  0
 23 15  1  0  0  0  0
 24 28  1  0  0  0  0
 25 23  1  0  0  0  0
 26 23  1  0  0  0  0
 27 26  1  0  0  0  0
 28 25  1  0  0  0  0
 30 28  1  0  0  0  0
 30 29  2  0  0  0  0
 31 32  1  0  0  0  0
M  END
>  <MODEL>
1

>  <REMARK>
 VINA RESULT:      -9.3      0.000      0.000
  Name = 
  3 active torsions:
  status: ('A' for Active; 'I' for Inactive)
    1  A    between atoms: C_13  and  C_29
    2  A    between atoms: C_15  and  C_26
    3  A    between atoms: C_16  and  C_27
                            x       y       z     vdW  Elec       q    Type
                         _______ _______ _______ _____ _____    ______ ____

>  <TORSDO>
F 3

$$$$
=
 OpenBabel10262421123D

 32 37  0  0  1  0  0  0  0  0999 V2000
  186.3090  178.0250  139.4360 C   0  0  1  0  0  3  0  0  0  0  0  0
  187.5230  178.4370  141.6840 C   0  0  2  0  0  3  0  0  0  0  0  0
  186.5360  178.1600  137.9290 C   0  0  0  0  0  2  0  0  0  0  0  0
  187.6380  178.3330  140.1500 C   0  0  1  0  0  3  0  0  0  0  0  0
  188.3500  177.4290  142.4780 C   0  0  2  0  0  3  0  0  0  0  0  0
  184.7360  178.6490  145.7960 C   0  0  0  0  0  2  0  0  0  0  0  0
  186.0900  178.3840  142.1900 C   0  0  2  0  0  3  0  0  0  0  0  0
  187.1320  177.9090  145.8650 C   0  0  0  0  0  2  0  0  0  0  0  0
  187.1040  177.6830  144.3570 C   0  0  2  0  0  3  0  0  0  0  0  0
  188.7260  177.4020  139.6630 C   0  0  0  0  0  0  0  0  0  0  0  0
  188.4010  177.8520  143.8230 O   0  0  0  0  0  0  0  0  0  0  0  0
  189.6620  176.9680  140.4570 N   0  0  0  0  0  0  0  0  0  0  0  0
  188.6820  176.9370  138.2670 C   0  0  0  0  0  3  0  0  0  0  0  0
  185.2620  179.3770  141.3850 C   0  0  0  0  0  2  0  0  0  0  0  0
  185.1240  178.9050  139.9240 C   0  0  2  0  0  3  0  0  0  0  0  0
  186.0940  178.6520  143.6930 C   0  0  2  0  0  3  0  0  0  0  0  0
  189.7490  177.3540  141.8660 C   0  0  2  0  0  3  0  0  0  0  0  0
  187.6600  177.2660  137.4670 C   0  0  0  0  0  3  0  0  0  0  0  0
  185.7380  177.7000  146.4510 C   0  0  0  0  0  2  0  0  0  0  0  0
  184.7040  178.4250  144.2850 C   0  0  0  0  0  2  0  0  0  0  0  0
  181.2570  178.2730  140.1380 C   0  0  2  0  0  3  0  0  0  0  0  0
  180.9140  178.2650  141.4900 O   0  0  0  0  0  1  0  0  0  0  0  0
  183.7640  178.2100  139.7760 C   0  0  2  0  0  3  0  0  0  0  0  0
  181.3600  176.8270  139.6290 C   0  0  0  0  0  2  0  0  0  0  0  0
  183.6650  177.1680  138.6480 C   0  0  0  0  0  2  0  0  0  0  0  0
  182.5300  179.1110  139.9300 C   0  0  1  0  0  3  0  0  0  0  0  0
  182.3290  180.0210  138.7310 C   0  0  0  0  0  1  0  0  0  0  0  0
  182.2170  176.7430  138.3690 C   0  0  1  0  0  3  0  0  0  0  0  0
  183.1670  174.6330  137.9170 O   0  0  0  0  0  0  0  0  0  0  0  0
  182.1860  175.3530  137.8280 C   0  0  0  0  0  3  0  0  0  0  0  0
  190.6630  176.3930  142.6250 C   0  0  0  0  0  2  0  0  0  0  0  0
  191.6860  177.1270  143.4790 C   0  0  0  0  0  1  0  0  0  0  0  0
  1  3  1  6  0  0  0
  1 15  1  0  0  0  0
  1  4  1  0  0  0  0
  2  7  1  0  0  0  0
  2  5  1  0  0  0  0
  4  2  1  0  0  0  0
  5 11  1  0  0  0  0
  6 19  1  0  0  0  0
  7 16  1  0  0  0  0
  8 19  1  0  0  0  0
  9  8  1  0  0  0  0
 10  4  1  0  0  0  0
 10 12  2  0  0  0  0
 11  9  1  0  0  0  0
 12 17  1  0  0  0  0
 13 10  1  0  0  0  0
 14  7  1  0  0  0  0
 15 14  1  0  0  0  0
 16 20  1  0  0  0  0
 16  9  1  0  0  0  0
 17  5  1  0  0  0  0
 17 31  1  0  0  0  0
 18  3  1  0  0  0  0
 18 13  2  0  0  0  0
 20  6  1  0  0  0  0
 21 22  1  0  0  0  0
 23 15  1  0  0  0  0
 23 26  1  0  0  0  0
 24 21  1  0  0  0  0
 25 23  1  0  0  0  0
 26 21  1  0  0  0  0
 27 26  1  0  0  0  0
 28 25  1  0  0  0  0
 28 24  1  0  0  0  0
 30 29  2  0  0  0  0
 30 28  1  0  0  0  0
 31 32  1  0  0  0  0
M  END
>  <MODEL>
2

>  <REMARK>
 VINA RESULT:      -8.9      2.421      6.037
  Name = 
  3 active torsions:
  status: ('A' for Active; 'I' for Inactive)
    1  A    between atoms: C_13  and  C_29
    2  A    between atoms: C_15  and  C_26
    3  A    between atoms: C_16  and  C_27
                            x       y       z     vdW  Elec       q    Type
                         _______ _______ _______ _____ _____    ______ ____

>  <TORSDO>
F 3

$$$$
=
 OpenBabel10262421123D

 32 37  0  0  1  0  0  0  0  0999 V2000
  188.6470  177.1910  138.3950 C   0  0  1  0  0  3  0  0  0  0  0  0
  188.3110  178.3050  140.7070 C   0  0  2  0  0  3  0  0  0  0  0  0
  189.7010  177.0460  137.2960 C   0  0  0  0  0  2  0  0  0  0  0  0
  189.3000  177.9030  139.5940 C   0  0  1  0  0  3  0  0  0  0  0  0
  188.5650  177.6740  142.0740 C   0  0  2  0  0  3  0  0  0  0  0  0
  183.6500  178.8210  142.3550 C   0  0  0  0  0  2  0  0  0  0  0  0
  186.8550  178.0750  140.3370 C   0  0  2  0  0  3  0  0  0  0  0  0
  185.5880  178.6080  143.9320 C   0  0  0  0  0  2  0  0  0  0  0  0
  186.4510  178.0660  142.7970 C   0  0  2  0  0  3  0  0  0  0  0  0
  190.5070  177.1270  140.0750 C   0  0  0  0  0  0  0  0  0  0  0  0
  187.8080  178.3740  143.0370 O   0  0  0  0  0  0  0  0  0  0  0  0
  190.8240  177.0680  141.3350 N   0  0  0  0  0  0  0  0  0  0  0  0
  191.3000  176.3780  139.0870 C   0  0  0  0  0  3  0  0  0  0  0  0
  186.6080  178.6880  138.9650 C   0  0  0  0  0  2  0  0  0  0  0  0
  187.3640  177.8990  137.8780 C   0  0  2  0  0  3  0  0  0  0  0  0
  185.9740  178.6500  141.4440 C   0  0  2  0  0  3  0  0  0  0  0  0
  190.0610  177.7540  142.3800 C   0  0  2  0  0  3  0  0  0  0  0  0
  190.9200  176.3180  137.8050 C   0  0  0  0  0  3  0  0  0  0  0  0
  184.1230  178.2530  143.6910 C   0  0  0  0  0  2  0  0  0  0  0  0
  184.5090  178.2810  141.2140 C   0  0  0  0  0  2  0  0  0  0  0  0
  184.5030  176.5590  135.5480 C   0  0  2  0  0  3  0  0  0  0  0  0
  183.3350  177.2360  135.8980 O   0  0  0  0  0  1  0  0  0  0  0  0
  186.3730  176.9300  137.2190 C   0  0  2  0  0  3  0  0  0  0  0  0
  184.4950  175.1620  136.1870 C   0  0  0  0  0  2  0  0  0  0  0  0
  186.7850  175.4470  137.2210 C   0  0  0  0  0  2  0  0  0  0  0  0
  185.7280  177.4160  135.9120 C   0  0  1  0  0  3  0  0  0  0  0  0
  186.7040  177.3980  134.7480 C   0  0  0  0  0  1  0  0  0  0  0  0
  185.9080  174.5940  136.2950 C   0  0  1  0  0  3  0  0  0  0  0  0
  185.6150  172.9590  137.9680 O   0  0  0  0  0  0  0  0  0  0  0  0
  185.8510  173.1890  136.7940 C   0  0  0  0  0  3  0  0  0  0  0  0
  190.4030  177.1790  143.7530 C   0  0  0  0  0  2  0  0  0  0  0  0
  191.3660  176.0040  143.6610 C   0  0  0  0  0  1  0  0  0  0  0  0
  1  3  1  6  0  0  0
  1  4  1  0  0  0  0
  2  5  1  0  0  0  0
  3 18  1  0  0  0  0
  4 10  1  0  0  0  0
  4  2  1  0  0  0  0
  5 17  1  0  0  0  0
  5 11  1  0  0  0  0
  6 19  1  0  0  0  0
  7  2  1  0  0  0  0
  7 16  1  0  0  0  0
  9 11  1  0  0  0  0
  9  8  1  0  0  0  0
 10 12  2  0  0  0  0
 12 17  1  0  0  0  0
 13 10  1  0  0  0  0
 14  7  1  0  0  0  0
 15  1  1  0  0  0  0
 15 14  1  0  0  0  0
 16  9  1  0  0  0  0
 17 31  1  0  0  0  0
 18 13  2  0  0  0  0
 19  8  1  0  0  0  0
 20 16  1  0  0  0  0
 20  6  1  0  0  0  0
 21 22  1  0  0  0  0
 21 26  1  0  0  0  0
 21 24  1  0  0  0  0
 23 25  1  0  0  0  0
 23 15  1  0  0  0  0
 24 28  1  0  0  0  0
 26 23  1  0  0  0  0
 27 26  1  0  0  0  0
 28 30  1  0  0  0  0
 28 25  1  0  0  0  0
 30 29  2  0  0  0  0
 32 31  1  0  0  0  0
M  END
>  <MODEL>
3

>  <REMARK>
 VINA RESULT:      -8.0      2.287      4.157
  Name = 
  3 active torsions:
  status: ('A' for Active; 'I' for Inactive)
    1  A    between atoms: C_13  and  C_29
    2  A    between atoms: C_15  and  C_26
    3  A    between atoms: C_16  and  C_27
                            x       y       z     vdW  Elec       q    Type
                         _______ _______ _______ _____ _____    ______ ____

>  <TORSDO>
F 3

$$$$
=
 OpenBabel10262421123D

 32 37  0  0  1  0  0  0  0  0999 V2000
  186.6900  178.4180  141.1770 C   0  0  1  0  0  3  0  0  0  0  0  0
  187.4520  178.0350  138.7330 C   0  0  2  0  0  3  0  0  0  0  0  0
  185.6760  179.2310  141.9840 C   0  0  0  0  0  2  0  0  0  0  0  0
  186.3900  178.6280  139.6810 C   0  0  1  0  0  3  0  0  0  0  0  0
  186.9530  176.9550  137.7760 C   0  0  2  0  0  3  0  0  0  0  0  0
  191.8970  175.9280  138.0160 C   0  0  0  0  0  2  0  0  0  0  0  0
  188.6800  177.5040  139.4550 C   0  0  2  0  0  3  0  0  0  0  0  0
  190.0410  175.6900  136.3460 C   0  0  0  0  0  2  0  0  0  0  0  0
  189.0350  176.1360  137.4020 C   0  0  2  0  0  3  0  0  0  0  0  0
  184.9680  178.2190  139.3660 C   0  0  0  0  0  0  0  0  0  0  0  0
  187.9300  176.7570  136.7780 O   0  0  0  0  0  0  0  0  0  0  0  0
  184.6500  177.6660  138.2320 N   0  0  0  0  0  0  0  0  0  0  0  0
  183.9370  178.4040  140.4010 C   0  0  0  0  0  3  0  0  0  0  0  0
  189.1660  178.5750  140.4230 C   0  0  0  0  0  2  0  0  0  0  0  0
  188.1540  178.7650  141.5690 C   0  0  2  0  0  3  0  0  0  0  0  0
  189.7170  177.0910  138.4130 C   0  0  2  0  0  3  0  0  0  0  0  0
  185.6260  177.4140  137.1700 C   0  0  2  0  0  3  0  0  0  0  0  0
  184.2620  178.8500  141.6200 C   0  0  0  0  0  3  0  0  0  0  0  0
  191.2250  174.9930  137.0130 C   0  0  0  0  0  2  0  0  0  0  0  0
  190.8940  176.3780  139.0760 C   0  0  0  0  0  2  0  0  0  0  0  0
  190.5500  176.7300  143.9200 C   0  0  2  0  0  3  0  0  0  0  0  0
  190.9300  175.5820  143.2260 O   0  0  0  0  0  1  0  0  0  0  0  0
  188.6510  177.9630  142.7800 C   0  0  2  0  0  3  0  0  0  0  0  0
  189.4390  176.3780  144.9200 C   0  0  0  0  0  2  0  0  0  0  0  0
  187.8990  178.2080  144.1000 C   0  0  0  0  0  2  0  0  0  0  0  0
  190.1760  177.8390  142.9220 C   0  0  1  0  0  3  0  0  0  0  0  0
  190.8190  179.1410  143.3690 C   0  0  0  0  0  1  0  0  0  0  0  0
  188.6310  177.6130  145.3110 C   0  0  1  0  0  3  0  0  0  0  0  0
  186.4650  177.5030  146.2350 O   0  0  0  0  0  0  0  0  0  0  0  0
  187.6520  177.2610  146.3800 C   0  0  0  0  0  3  0  0  0  0  0  0
  185.0700  176.4070  136.1650 C   0  0  0  0  0  2  0  0  0  0  0  0
  184.8310  175.0420  136.7910 C   0  0  0  0  0  1  0  0  0  0  0  0
  1 15  1  0  0  0  0
  1  3  1  1  0  0  0
  2  7  1  0  0  0  0
  2  4  1  0  0  0  0
  4  1  1  0  0  0  0
  5  2  1  0  0  0  0
  6 20  1  0  0  0  0
  7 14  1  0  0  0  0
  8 19  1  0  0  0  0
  8  9  1  0  0  0  0
  9 16  1  0  0  0  0
 10  4  1  0  0  0  0
 10 13  1  0  0  0  0
 11  9  1  0  0  0  0
 11  5  1  0  0  0  0
 12 10  2  0  0  0  0
 13 18  2  0  0  0  0
 14 15  1  0  0  0  0
 15 23  1  0  0  0  0
 16 20  1  0  0  0  0
 16  7  1  0  0  0  0
 17  5  1  0  0  0  0
 17 12  1  0  0  0  0
 18  3  1  0  0  0  0
 19  6  1  0  0  0  0
 21 24  1  0  0  0  0
 22 21  1  0  0  0  0
 23 26  1  0  0  0  0
 23 25  1  0  0  0  0
 24 28  1  0  0  0  0
 25 28  1  0  0  0  0
 26 27  1  0  0  0  0
 26 21  1  0  0  0  0
 28 30  1  0  0  0  0
 29 30  2  0  0  0  0
 31 32  1  0  0  0  0
 31 17  1  0  0  0  0
M  END
>  <MODEL>
4

>  <REMARK>
 VINA RESULT:      -7.6      2.356      7.190
  Name = 
  3 active torsions:
  status: ('A' for Active; 'I' for Inactive)
    1  A    between atoms: C_13  and  C_29
    2  A    between atoms: C_15  and  C_26
    3  A    between atoms: C_16  and  C_27
                            x       y       z     vdW  Elec       q    Type
                         _______ _______ _______ _____ _____    ______ ____

>  <TORSDO>
F 3

$$$$
=
 OpenBabel10262421123D

 32 37  0  0  1  0  0  0  0  0999 V2000
  187.4400  178.0970  144.6210 C   0  0  1  0  0  3  0  0  0  0  0  0
  186.7330  178.8380  142.2430 C   0  0  2  0  0  3  0  0  0  0  0  0
  187.1010  178.3620  146.0890 C   0  0  0  0  0  2  0  0  0  0  0  0
  186.4080  178.8390  143.7510 C   0  0  1  0  0  3  0  0  0  0  0  0
  185.6960  178.1680  141.3450 C   0  0  2  0  0  3  0  0  0  0  0  0
  189.8700  177.8730  138.5090 C   0  0  0  0  0  2  0  0  0  0  0  0
  188.0970  178.2510  141.9180 C   0  0  2  0  0  3  0  0  0  0  0  0
  187.3960  178.0490  138.1390 C   0  0  0  0  0  2  0  0  0  0  0  0
  187.1610  177.8840  139.6370 C   0  0  2  0  0  3  0  0  0  0  0  0
  185.0060  178.3840  144.0920 C   0  0  0  0  0  0  0  0  0  0  0  0
  185.9620  178.5310  140.0080 O   0  0  0  0  0  0  0  0  0  0  0  0
  184.0780  178.2890  143.1850 N   0  0  0  0  0  0  0  0  0  0  0  0
  184.7130  177.9870  145.4790 C   0  0  0  0  0  3  0  0  0  0  0  0
  189.1290  178.9060  142.8270 C   0  0  0  0  0  2  0  0  0  0  0  0
  188.9120  178.4710  144.2900 C   0  0  2  0  0  3  0  0  0  0  0  0
  188.3690  178.4450  140.4280 C   0  0  2  0  0  3  0  0  0  0  0  0
  184.3040  178.6280  141.7790 C   0  0  2  0  0  3  0  0  0  0  0  0
  185.6820  177.9530  146.4010 C   0  0  0  0  0  3  0  0  0  0  0  0
  188.6770  177.3270  137.7280 C   0  0  0  0  0  2  0  0  0  0  0  0
  189.6410  177.7090  140.0100 C   0  0  0  0  0  2  0  0  0  0  0  0
  191.4720  175.5480  143.7330 C   0  0  2  0  0  3  0  0  0  0  0  0
  190.8020  174.5390  143.0420 O   0  0  0  0  0  1  0  0  0  0  0  0
  189.8980  177.3360  144.5990 C   0  0  2  0  0  3  0  0  0  0  0  0
  191.5420  175.1860  145.2240 C   0  0  0  0  0  2  0  0  0  0  0  0
  190.5900  177.4060  145.9720 C   0  0  0  0  0  2  0  0  0  0  0  0
  190.8100  176.9050  143.4410 C   0  0  1  0  0  3  0  0  0  0  0  0
  191.8940  177.9290  143.1520 C   0  0  0  0  0  1  0  0  0  0  0  0
  191.7650  176.4260  146.0860 C   0  0  1  0  0  3  0  0  0  0  0  0
  192.2970  176.8480  148.3440 O   0  0  0  0  0  0  0  0  0  0  0  0
  191.9610  176.0240  147.5100 C   0  0  0  0  0  3  0  0  0  0  0  0
  183.1990  178.0360  140.9040 C   0  0  0  0  0  2  0  0  0  0  0  0
  182.5220  179.0900  140.0420 C   0  0  0  0  0  1  0  0  0  0  0  0
  1  3  1  1  0  0  0
  2  4  1  0  0  0  0
  3 18  1  0  0  0  0
  4 10  1  0  0  0  0
  4  1  1  0  0  0  0
  5 17  1  0  0  0  0
  5  2  1  0  0  0  0
  6 20  1  0  0  0  0
  7  2  1  0  0  0  0
  7 14  1  0  0  0  0
  8  9  1  0  0  0  0
  9 11  1  0  0  0  0
  9 16  1  0  0  0  0
 10 13  1  0  0  0  0
 11  5  1  0  0  0  0
 12 10  2  0  0  0  0
 13 18  2  0  0  0  0
 14 15  1  0  0  0  0
 15 23  1  0  0  0  0
 15  1  1  0  0  0  0
 16  7  1  0  0  0  0
 17 12  1  0  0  0  0
 19  8  1  0  0  0  0
 19  6  1  0  0  0  0
 20 16  1  0  0  0  0
 21 24  1  0  0  0  0
 22 21  1  0  0  0  0
 23 25  1  0  0  0  0
 24 28  1  0  0  0  0
 25 28  1  0  0  0  0
 26 21  1  0  0  0  0
 26 23  1  0  0  0  0
 27 26  1  0  0  0  0
 28 30  1  0  0  0  0
 30 29  2  0  0  0  0
 31 17  1  0  0  0  0
 32 31  1  0  0  0  0
M  END
>  <MODEL>
5

>  <REMARK>
 VINA RESULT:      -7.4      2.461      5.927
  Name = 
  3 active torsions:
  status: ('A' for Active; 'I' for Inactive)
    1  A    between atoms: C_13  and  C_29
    2  A    between atoms: C_15  and  C_26
    3  A    between atoms: C_16  and  C_27
                            x       y       z     vdW  Elec       q    Type
                         _______ _______ _______ _____ _____    ______ ____

>  <TORSDO>
F 3

$$$$
=
 OpenBabel10262421123D

 32 37  0  0  1  0  0  0  0  0999 V2000
  186.2890  178.4820  142.3470 C   0  0  1  0  0  3  0  0  0  0  0  0
  186.5250  178.6280  139.7740 C   0  0  2  0  0  3  0  0  0  0  0  0
  185.4410  179.0460  143.4890 C   0  0  0  0  0  2  0  0  0  0  0  0
  185.6680  178.9450  141.0170 C   0  0  1  0  0  3  0  0  0  0  0  0
  185.8740  177.7110  138.7410 C   0  0  2  0  0  3  0  0  0  0  0  0
  190.7900  177.0550  137.7640 C   0  0  0  0  0  2  0  0  0  0  0  0
  187.8980  178.0700  140.1110 C   0  0  2  0  0  3  0  0  0  0  0  0
  188.6310  176.9870  136.4910 C   0  0  0  0  0  2  0  0  0  0  0  0
  187.8580  177.1460  137.7960 C   0  0  2  0  0  3  0  0  0  0  0  0
  184.2280  178.4900  140.9200 C   0  0  0  0  0  0  0  0  0  0  0  0
  186.6220  177.7820  137.5470 O   0  0  0  0  0  0  0  0  0  0  0  0
  183.6970  178.1370  139.7860 N   0  0  0  0  0  0  0  0  0  0  0  0
  183.4370  178.3950  142.1580 C   0  0  0  0  0  3  0  0  0  0  0  0
  188.5390  178.9750  141.1550 C   0  0  0  0  0  2  0  0  0  0  0  0
  187.7890  178.8640  142.4970 C   0  0  2  0  0  3  0  0  0  0  0  0
  188.7030  177.9440  138.8190 C   0  0  2  0  0  3  0  0  0  0  0  0
  184.4320  178.1670  138.5210 C   0  0  2  0  0  3  0  0  0  0  0  0
  183.9980  178.6280  143.3500 C   0  0  0  0  0  3  0  0  0  0  0  0
  189.9550  176.2740  136.7510 C   0  0  0  0  0  2  0  0  0  0  0  0
  190.0210  177.2150  139.0740 C   0  0  0  0  0  2  0  0  0  0  0  0
  190.5720  176.3780  143.7100 C   0  0  2  0  0  3  0  0  0  0  0  0
  190.5560  175.2860  142.8430 O   0  0  0  0  0  1  0  0  0  0  0  0
  188.5640  177.8920  143.3960 C   0  0  2  0  0  3  0  0  0  0  0  0
  189.8290  176.0140  145.0050 C   0  0  0  0  0  2  0  0  0  0  0  0
  188.3360  178.0520  144.9090 C   0  0  0  0  0  2  0  0  0  0  0  0
  190.0210  177.6200  142.9910 C   0  0  1  0  0  3  0  0  0  0  0  0
  190.9290  178.8020  143.2830 C   0  0  0  0  0  1  0  0  0  0  0  0
  189.3560  177.2630  145.7420 C   0  0  1  0  0  3  0  0  0  0  0  0
  187.9520  177.6120  147.6040 O   0  0  0  0  0  0  0  0  0  0  0  0
  188.7590  176.8800  147.0550 C   0  0  0  0  0  3  0  0  0  0  0  0
  183.7120  177.3270  137.4670 C   0  0  0  0  0  2  0  0  0  0  0  0
  183.3660  175.9370  137.9800 C   0  0  0  0  0  1  0  0  0  0  0  0
  1 15  1  0  0  0  0
  1  3  1  1  0  0  0
  2  7  1  0  0  0  0
  2  4  1  0  0  0  0
  4  1  1  0  0  0  0
  5  2  1  0  0  0  0
  6 20  1  0  0  0  0
  7 14  1  0  0  0  0
  8 19  1  0  0  0  0
  8  9  1  0  0  0  0
  9 16  1  0  0  0  0
 10  4  1  0  0  0  0
 10 13  1  0  0  0  0
 11  9  1  0  0  0  0
 11  5  1  0  0  0  0
 12 10  2  0  0  0  0
 13 18  2  0  0  0  0
 14 15  1  0  0  0  0
 15 23  1  0  0  0  0
 16 20  1  0  0  0  0
 16  7  1  0  0  0  0
 17  5  1  0  0  0  0
 17 12  1  0  0  0  0
 18  3  1  0  0  0  0
 19  6  1  0  0  0  0
 21 24  1  0  0  0  0
 22 21  1  0  0  0  0
 23 25  1  0  0  0  0
 24 28  1  0  0  0  0
 25 28  1  0  0  0  0
 26 27  1  0  0  0  0
 26 23  1  0  0  0  0
 26 21  1  0  0  0  0
 28 30  1  0  0  0  0
 30 29  2  0  0  0  0
 31 32  1  0  0  0  0
 31 17  1  0  0  0  0
M  END
>  <MODEL>
6

>  <REMARK>
 VINA RESULT:      -7.3      2.355      6.741
  Name = 
  3 active torsions:
  status: ('A' for Active; 'I' for Inactive)
    1  A    between atoms: C_13  and  C_29
    2  A    between atoms: C_15  and  C_26
    3  A    between atoms: C_16  and  C_27
                            x       y       z     vdW  Elec       q    Type
                         _______ _______ _______ _____ _____    ______ ____

>  <TORSDO>
F 3

$$$$
=
 OpenBabel10262421123D

 32 37  0  0  1  0  0  0  0  0999 V2000
  186.0420  177.8650  138.4790 C   0  0  1  0  0  3  0  0  0  0  0  0
  186.3040  178.7200  140.9080 C   0  0  2  0  0  3  0  0  0  0  0  0
  186.8230  177.7840  137.1660 C   0  0  0  0  0  2  0  0  0  0  0  0
  186.9950  178.3880  139.5700 C   0  0  1  0  0  3  0  0  0  0  0  0
  186.7850  177.9180  142.1150 C   0  0  2  0  0  3  0  0  0  0  0  0
  182.1610  179.3370  143.5850 C   0  0  0  0  0  2  0  0  0  0  0  0
  184.7880  178.6280  140.8460 C   0  0  2  0  0  3  0  0  0  0  0  0
  184.3620  178.8160  144.6670 C   0  0  0  0  0  2  0  0  0  0  0  0
  184.9140  178.3570  143.3210 C   0  0  2  0  0  3  0  0  0  0  0  0
  188.2030  177.4860  139.6930 C   0  0  0  0  0  0  0  0  0  0  0  0
  186.3130  178.5470  143.2870 O   0  0  0  0  0  0  0  0  0  0  0  0
  188.7730  177.2590  140.8400 N   0  0  0  0  0  0  0  0  0  0  0  0
  188.7000  176.8080  138.4840 C   0  0  0  0  0  3  0  0  0  0  0  0
  184.3100  179.4130  139.6310 C   0  0  0  0  0  2  0  0  0  0  0  0
  184.7460  178.7110  138.3310 C   0  0  2  0  0  3  0  0  0  0  0  0
  184.2150  179.1250  142.1720 C   0  0  2  0  0  3  0  0  0  0  0  0
  188.3120  177.8650  142.0900 C   0  0  2  0  0  3  0  0  0  0  0  0
  188.0530  176.9240  137.3180 C   0  0  0  0  0  3  0  0  0  0  0  0
  182.8540  178.5870  144.7200 C   0  0  0  0  0  2  0  0  0  0  0  0
  182.7080  178.8800  142.2350 C   0  0  0  0  0  2  0  0  0  0  0  0
  182.4940  175.6180  137.4540 C   0  0  2  0  0  3  0  0  0  0  0  0
  183.2030  174.8380  136.5400 O   0  0  0  0  0  1  0  0  0  0  0  0
  183.5570  177.8910  137.8120 C   0  0  2  0  0  3  0  0  0  0  0  0
  181.4500  176.4600  136.7040 C   0  0  0  0  0  2  0  0  0  0  0  0
  182.2080  178.6290  137.7590 C   0  0  0  0  0  2  0  0  0  0  0  0
  183.4760  176.4390  138.3070 C   0  0  1  0  0  3  0  0  0  0  0  0
  183.0550  176.3510  139.7630 C   0  0  0  0  0  1  0  0  0  0  0  0
  181.0270  177.6770  137.5230 C   0  0  1  0  0  3  0  0  0  0  0  0
  179.6110  179.5270  137.1620 O   0  0  0  0  0  0  0  0  0  0  0  0
  179.9200  178.3950  136.8270 C   0  0  0  0  0  3  0  0  0  0  0  0
  188.8860  177.1120  143.2900 C   0  0  0  0  0  2  0  0  0  0  0  0
  189.7300  178.0090  144.1810 C   0  0  0  0  0  1  0  0  0  0  0  0
  1  3  1  6  0  0  0
  1  4  1  0  0  0  0
  2  5  1  0  0  0  0
  3 18  1  0  0  0  0
  4 10  1  0  0  0  0
  4  2  1  0  0  0  0
  5 11  1  0  0  0  0
  6 19  1  0  0  0  0
  7  2  1  0  0  0  0
  7 16  1  0  0  0  0
  8 19  1  0  0  0  0
  9  8  1  0  0  0  0
 10 12  2  0  0  0  0
 11  9  1  0  0  0  0
 12 17  1  0  0  0  0
 13 10  1  0  0  0  0
 14  7  1  0  0  0  0
 15  1  1  0  0  0  0
 15 14  1  0  0  0  0
 16 20  1  0  0  0  0
 16  9  1  0  0  0  0
 17  5  1  0  0  0  0
 17 31  1  0  0  0  0
 18 13  2  0  0  0  0
 20  6  1  0  0  0  0
 21 26  1  0  0  0  0
 22 21  1  0  0  0  0
 23 26  1  0  0  0  0
 23 15  1  0  0  0  0
 24 21  1  0  0  0  0
 24 28  1  0  0  0  0
 25 23  1  0  0  0  0
 26 27  1  0  0  0  0
 28 25  1  0  0  0  0
 30 29  2  0  0  0  0
 30 28  1  0  0  0  0
 31 32  1  0  0  0  0
M  END
>  <MODEL>
7

>  <REMARK>
 VINA RESULT:      -7.2      2.825      6.065
  Name = 
  3 active torsions:
  status: ('A' for Active; 'I' for Inactive)
    1  A    between atoms: C_13  and  C_29
    2  A    between atoms: C_15  and  C_26
    3  A    between atoms: C_16  and  C_27
                            x       y       z     vdW  Elec       q    Type
                         _______ _______ _______ _____ _____    ______ ____

>  <TORSDO>
F 3

$$$$
=
 OpenBabel10262421123D

 32 37  0  0  1  0  0  0  0  0999 V2000
  190.1540  176.8560  142.9060 C   0  0  1  0  0  3  0  0  0  0  0  0
  188.2410  177.1950  141.1970 C   0  0  2  0  0  3  0  0  0  0  0  0
  191.5360  176.2090  143.0190 C   0  0  0  0  0  2  0  0  0  0  0  0
  189.7030  176.7670  141.4370 C   0  0  1  0  0  3  0  0  0  0  0  0
  188.0470  178.3870  140.2620 C   0  0  2  0  0  3  0  0  0  0  0  0
  183.7780  178.4830  142.9680 C   0  0  0  0  0  2  0  0  0  0  0  0
  187.4690  177.4620  142.4790 C   0  0  2  0  0  3  0  0  0  0  0  0
  184.5140  179.1260  140.6580 C   0  0  0  0  0  2  0  0  0  0  0  0
  185.9610  178.8270  141.0370 C   0  0  2  0  0  3  0  0  0  0  0  0
  190.7120  177.4420  140.5330 C   0  0  0  0  0  0  0  0  0  0  0  0
  186.6880  178.4450  139.8880 O   0  0  0  0  0  0  0  0  0  0  0  0
  190.3480  178.0910  139.4650 N   0  0  0  0  0  0  0  0  0  0  0  0
  192.1330  177.4050  140.9150 C   0  0  0  0  0  3  0  0  0  0  0  0
  187.6780  176.2810  143.4180 C   0  0  0  0  0  2  0  0  0  0  0  0
  189.1390  176.2320  143.9050 C   0  0  2  0  0  3  0  0  0  0  0  0
  186.0070  177.7220  142.1220 C   0  0  2  0  0  3  0  0  0  0  0  0
  188.9510  178.2040  139.0430 C   0  0  2  0  0  3  0  0  0  0  0  0
  192.5180  176.8570  142.0740 C   0  0  0  0  0  3  0  0  0  0  0  0
  183.7310  179.5660  141.8930 C   0  0  0  0  0  2  0  0  0  0  0  0
  185.2250  178.1800  143.3520 C   0  0  0  0  0  2  0  0  0  0  0  0
  190.5990  177.9120  147.1380 C   0  0  2  0  0  3  0  0  0  0  0  0
  191.4700  176.9930  147.7220 O   0  0  0  0  0  1  0  0  0  0  0  0
  189.1980  176.8780  145.2950 C   0  0  2  0  0  3  0  0  0  0  0  0
  189.2560  177.8870  147.8830 C   0  0  0  0  0  2  0  0  0  0  0  0
  187.9070  177.5680  145.7680 C   0  0  0  0  0  2  0  0  0  0  0  0
  190.4920  177.6370  145.6280 C   0  0  1  0  0  3  0  0  0  0  0  0
  190.5930  178.9550  144.8800 C   0  0  0  0  0  1  0  0  0  0  0  0
  188.1290  178.4380  147.0130 C   0  0  1  0  0  3  0  0  0  0  0  0
  185.8530  178.9760  147.3120 O   0  0  0  0  0  0  0  0  0  0  0  0
  186.8700  178.5240  147.8100 C   0  0  0  0  0  3  0  0  0  0  0  0
  188.7930  179.3370  138.0290 C   0  0  0  0  0  2  0  0  0  0  0  0
  188.1860  178.8560  136.7210 C   0  0  0  0  0  1  0  0  0  0  0  0
  1  3  1  6  0  0  0
  1 15  1  0  0  0  0
  2  4  1  0  0  0  0
  2  7  1  0  0  0  0
  4  1  1  0  0  0  0
  5  2  1  0  0  0  0
  6 20  1  0  0  0  0
  7 14  1  0  0  0  0
  8  9  1  0  0  0  0
  8 19  1  0  0  0  0
  9 16  1  0  0  0  0
 10 13  1  0  0  0  0
 10  4  1  0  0  0  0
 11  5  1  0  0  0  0
 11  9  1  0  0  0  0
 12 10  2  0  0  0  0
 13 18  2  0  0  0  0
 14 15  1  0  0  0  0
 15 23  1  0  0  0  0
 16  7  1  0  0  0  0
 16 20  1  0  0  0  0
 17 12  1  0  0  0  0
 17  5  1  0  0  0  0
 18  3  1  0  0  0  0
 19  6  1  0  0  0  0
 21 22  1  0  0  0  0
 21 24  1  0  0  0  0
 23 26  1  0  0  0  0
 23 25  1  0  0  0  0
 25 28  1  0  0  0  0
 26 21  1  0  0  0  0
 27 26  1  0  0  0  0
 28 30  1  0  0  0  0
 28 24  1  0  0  0  0
 29 30  2  0  0  0  0
 31 17  1  0  0  0  0
 32 31  1  0  0  0  0
M  END
>  <MODEL>
8

>  <REMARK>
 VINA RESULT:      -7.1      2.616      6.605
  Name = 
  3 active torsions:
  status: ('A' for Active; 'I' for Inactive)
    1  A    between atoms: C_13  and  C_29
    2  A    between atoms: C_15  and  C_26
    3  A    between atoms: C_16  and  C_27
                            x       y       z     vdW  Elec       q    Type
                         _______ _______ _______ _____ _____    ______ ____

>  <TORSDO>
F 3

$$$$
=
 OpenBabel10262421123D

 32 37  0  0  1  0  0  0  0  0999 V2000
  185.3770  178.3180  140.2250 C   0  0  1  0  0  3  0  0  0  0  0  0
  186.8550  177.9890  138.1250 C   0  0  2  0  0  3  0  0  0  0  0  0
  184.0930  179.0240  140.6660 C   0  0  0  0  0  2  0  0  0  0  0  0
  185.5060  178.4720  138.6980 C   0  0  1  0  0  3  0  0  0  0  0  0
  186.7710  176.8460  137.1160 C   0  0  2  0  0  3  0  0  0  0  0  0
  191.5080  176.3850  138.8200 C   0  0  0  0  0  2  0  0  0  0  0  0
  187.8660  177.6100  139.1950 C   0  0  2  0  0  3  0  0  0  0  0  0
  190.2560  175.9150  136.6980 C   0  0  0  0  0  2  0  0  0  0  0  0
  188.9450  176.2610  137.3970 C   0  0  2  0  0  3  0  0  0  0  0  0
  184.2890  177.9010  138.0050 C   0  0  0  0  0  0  0  0  0  0  0  0
  188.0130  176.7440  136.4530 O   0  0  0  0  0  0  0  0  0  0  0  0
  184.3750  177.3000  136.8540 N   0  0  0  0  0  0  0  0  0  0  0  0
  182.9870  177.9840  138.6880 C   0  0  0  0  0  3  0  0  0  0  0  0
  187.9350  178.7420  140.2110 C   0  0  0  0  0  2  0  0  0  0  0  0
  186.6180  178.8330  141.0060 C   0  0  2  0  0  3  0  0  0  0  0  0
  189.1990  177.3010  138.5160 C   0  0  2  0  0  3  0  0  0  0  0  0
  185.6390  177.1440  136.1330 C   0  0  2  0  0  3  0  0  0  0  0  0
  182.8940  178.4810  139.9270 C   0  0  0  0  0  3  0  0  0  0  0  0
  191.2590  175.3660  137.7100 C   0  0  0  0  0  2  0  0  0  0  0  0
  190.1990  176.7340  139.5240 C   0  0  0  0  0  2  0  0  0  0  0  0
  188.2460  176.5810  143.7780 C   0  0  2  0  0  3  0  0  0  0  0  0
  188.3120  175.2840  143.2690 O   0  0  0  0  0  1  0  0  0  0  0  0
  186.8210  178.1100  142.3450 C   0  0  2  0  0  3  0  0  0  0  0  0
  187.0430  176.6970  144.7260 C   0  0  0  0  0  2  0  0  0  0  0  0
  186.1180  178.7410  143.5600 C   0  0  0  0  0  2  0  0  0  0  0  0
  188.2410  177.5930  142.6200 C   0  0  1  0  0  3  0  0  0  0  0  0
  189.2080  178.7180  142.9450 C   0  0  0  0  0  1  0  0  0  0  0  0
  186.6040  178.1490  144.8900 C   0  0  1  0  0  3  0  0  0  0  0  0
  184.6190  179.0470  145.7910 O   0  0  0  0  0  0  0  0  0  0  0  0
  185.5240  178.2390  145.9160 C   0  0  0  0  0  3  0  0  0  0  0  0
  185.5080  176.0660  135.0570 C   0  0  0  0  0  2  0  0  0  0  0  0
  185.2880  174.6840  135.6520 C   0  0  0  0  0  1  0  0  0  0  0  0
  1  3  1  1  0  0  0
  1 15  1  0  0  0  0
  2  4  1  0  0  0  0
  2  7  1  0  0  0  0
  4  1  1  0  0  0  0
  5  2  1  0  0  0  0
  6 20  1  0  0  0  0
  7 14  1  0  0  0  0
  8  9  1  0  0  0  0
  8 19  1  0  0  0  0
  9 16  1  0  0  0  0
 10 13  1  0  0  0  0
 10  4  1  0  0  0  0
 11  5  1  0  0  0  0
 11  9  1  0  0  0  0
 12 10  2  0  0  0  0
 13 18  2  0  0  0  0
 14 15  1  0  0  0  0
 15 23  1  0  0  0  0
 16  7  1  0  0  0  0
 16 20  1  0  0  0  0
 17 12  1  0  0  0  0
 17  5  1  0  0  0  0
 18  3  1  0  0  0  0
 19  6  1  0  0  0  0
 21 24  1  0  0  0  0
 22 21  1  0  0  0  0
 23 26  1  0  0  0  0
 23 25  1  0  0  0  0
 24 28  1  0  0  0  0
 25 28  1  0  0  0  0
 26 27  1  0  0  0  0
 26 21  1  0  0  0  0
 28 30  1  0  0  0  0
 29 30  2  0  0  0  0
 31 32  1  0  0  0  0
 31 17  1  0  0  0  0
M  END
>  <MODEL>
9

>  <REMARK>
 VINA RESULT:      -7.1      2.412      7.727
  Name = 
  3 active torsions:
  status: ('A' for Active; 'I' for Inactive)
    1  A    between atoms: C_13  and  C_29
    2  A    between atoms: C_15  and  C_26
    3  A    between atoms: C_16  and  C_27
                            x       y       z     vdW  Elec       q    Type
                         _______ _______ _______ _____ _____    ______ ____

>  <TORSDO>
F 3

$$$$
