=
 OpenBabel10262421043D

 32 36  0  0  1  0  0  0  0  0999 V2000
  189.8890  177.6870  142.0910 C   0  0  1  0  0  3  0  0  0  0  0  0
  188.3860  177.0710  140.0670 C   0  0  0  0  0  2  0  0  0  0  0  0
  191.1810  177.7290  142.6470 O   0  0  0  0  0  0  0  0  0  0  0  0
  189.7440  177.5710  140.4700 C   0  0  2  0  0  0  0  0  0  0  0  0
  190.0960  176.6380  136.3990 C   0  0  0  0  0  2  0  0  0  0  0  0
  185.6850  178.0400  137.5010 C   0  0  0  0  0  1  0  0  0  0  0  0
  188.2040  177.9390  137.4010 C   0  0  1  0  0  3  0  0  0  0  0  0
  187.0310  177.4270  136.9310 C   0  0  2  0  0  3  0  0  0  0  0  0
  190.9740  177.2730  139.6350 C   0  0  2  0  0  3  0  0  0  0  0  0
  189.3810  177.7840  136.6680 O   0  0  0  0  0  0  0  0  0  0  0  0
  190.9010  176.0720  138.6750 C   0  0  0  0  0  2  0  0  0  0  0  0
  192.3010  177.2210  140.4320 C   0  0  0  0  0  2  0  0  0  0  0  0
  188.6330  178.5560  139.9890 C   0  0  1  0  0  3  0  0  0  0  0  0
  191.3830  176.5990  137.2980 C   0  0  1  0  0  3  0  0  0  0  0  0
  192.2460  177.9880  141.7630 C   0  0  0  0  0  2  0  0  0  0  0  0
  188.3210  178.8630  138.5600 O   0  0  0  0  0  0  0  0  0  0  0  0
  186.7450  175.0240  135.8830 C   0  0  0  0  0  1  0  0  0  0  0  0
  186.9030  176.5760  135.6420 C   0  0  0  0  0  2  0  0  0  0  0  0
  193.0890  176.0830  136.7090 S   0  0  0  0  0  0  0  0  0  0  0  0
  192.9170  174.5370  137.5560 C   0  0  0  0  0  1  0  0  0  0  0  0
  189.8520  175.2600  143.0310 C   0  0  0  0  0  1  0  0  0  0  0  0
  189.1070  176.6110  142.8280 C   0  0  1  0  0  3  0  0  0  0  0  0
  188.3730  177.1580  144.1100 C   0  0  2  0  0  3  0  0  0  0  0  0
  186.1050  178.2070  145.1050 C   0  0  0  0  0  1  0  0  0  0  0  0
  187.0570  178.0210  143.8500 C   0  0  2  0  0  3  0  0  0  0  0  0
  186.3780  177.6310  142.7280 O   0  0  0  0  0  1  0  0  0  0  0  0
  189.0630  177.8100  145.3730 C   0  0  0  0  0  2  0  0  0  0  0  0
  191.2160  177.2630  146.0250 C   0  0  0  0  0  2  0  0  0  0  0  0
  189.7900  176.7870  146.2140 C   0  0  2  0  0  0  0  0  0  0  0  0
  190.8230  176.6980  147.4350 C   0  0  2  0  0  3  0  0  0  0  0  0
  188.8610  178.3250  148.0770 C   0  0  0  0  0  1  0  0  0  0  0  0
  189.3340  176.8480  147.6870 C   0  0  1  0  0  3  0  0  0  0  0  0
  1  3  1  0  0  0  0
  1 22  1  1  0  0  0
  4  2  1  6  0  0  0
  4  1  1  0  0  0  0
  5 10  1  0  0  0  0
  5 14  1  0  0  0  0
  7  8  1  6  0  0  0
  7 16  1  0  0  0  0
  8  6  1  6  0  0  0
  9 11  1  1  0  0  0
  9 12  1  0  0  0  0
  9  4  1  0  0  0  0
 10  7  1  0  0  0  0
 12 15  1  0  0  0  0
 13  2  1  6  0  0  0
 13  4  1  0  0  0  0
 14 19  1  6  0  0  0
 14 11  1  0  0  0  0
 15  3  1  0  0  0  0
 16 13  1  0  0  0  0
 18 17  1  0  0  0  0
 18  8  1  0  0  0  0
 19 20  1  0  0  0  0
 22 21  1  1  0  0  0
 22 23  1  0  0  0  0
 23 27  1  6  0  0  0
 25 23  1  0  0  0  0
 25 24  1  1  0  0  0
 26 25  1  0  0  0  0
 28 29  1  0  0  0  0
 29 27  1  6  0  0  0
 29 30  1  0  0  0  0
 29 32  1  0  0  0  0
 30 28  1  6  0  0  0
 30 32  1  0  0  0  0
 32 31  1  6  0  0  0
M  END
>  <MODEL>
1

>  <REMARK>
 VINA RESULT:      -7.6      0.000      0.000
  Name = 
  7 active torsions:
  status: ('A' for Active; 'I' for Inactive)
    1  A    between atoms: C_1  and  C_27
    2  A    between atoms: C_7  and  C_20
    3  A    between atoms: C_12  and  C_31
    4  A    between atoms: S_13  and  C_29
    5  A    between atoms: C_16  and  C_20
    6  A    between atoms: C_16  and  C_22
    7  A    between atoms: C_16  and  C_27
                            x       y       z     vdW  Elec       q    Type
                         _______ _______ _______ _____ _____    ______ ____

>  <TORSDO>
F 7

$$$$
=
 OpenBabel10262421043D

 32 36  0  0  1  0  0  0  0  0999 V2000
  190.0740  177.7080  142.0980 C   0  0  1  0  0  3  0  0  0  0  0  0
  188.2940  177.1610  140.2910 C   0  0  0  0  0  2  0  0  0  0  0  0
  191.4270  177.6800  142.4860 O   0  0  0  0  0  0  0  0  0  0  0  0
  189.7180  177.5840  140.5100 C   0  0  2  0  0  0  0  0  0  0  0  0
  189.4980  176.5890  136.4460 C   0  0  0  0  0  2  0  0  0  0  0  0
  185.3500  178.2620  138.0680 C   0  0  0  0  0  1  0  0  0  0  0  0
  187.8260  178.0100  137.6540 C   0  0  1  0  0  3  0  0  0  0  0  0
  186.5750  177.5630  137.3450 C   0  0  2  0  0  3  0  0  0  0  0  0
  190.8140  177.2050  139.5330 C   0  0  2  0  0  3  0  0  0  0  0  0
  188.8890  177.7780  136.7820 O   0  0  0  0  0  0  0  0  0  0  0  0
  190.5500  176.0000  138.6110 C   0  0  0  0  0  2  0  0  0  0  0  0
  192.2260  177.0820  140.1570 C   0  0  0  0  0  2  0  0  0  0  0  0
  188.6140  178.6280  140.1560 C   0  0  1  0  0  3  0  0  0  0  0  0
  190.8840  176.4820  137.1750 C   0  0  1  0  0  3  0  0  0  0  0  0
  192.3840  177.8660  141.4710 C   0  0  0  0  0  2  0  0  0  0  0  0
  188.1420  178.9380  138.7720 O   0  0  0  0  0  0  0  0  0  0  0  0
  186.0260  177.5290  134.7660 C   0  0  0  0  0  1  0  0  0  0  0  0
  186.2360  176.7080  136.0980 C   0  0  0  0  0  2  0  0  0  0  0  0
  192.4690  175.8600  136.3860 S   0  0  0  0  0  0  0  0  0  0  0  0
  192.4790  174.4760  137.4910 C   0  0  0  0  0  1  0  0  0  0  0  0
  190.0820  175.3480  143.1960 C   0  0  0  0  0  1  0  0  0  0  0  0
  189.3320  176.6890  142.9470 C   0  0  1  0  0  3  0  0  0  0  0  0
  188.6730  177.3230  144.2290 C   0  0  2  0  0  3  0  0  0  0  0  0
  188.6160  177.3970  146.9170 C   0  0  0  0  0  1  0  0  0  0  0  0
  189.4510  177.0970  145.6030 C   0  0  2  0  0  3  0  0  0  0  0  0
  190.6850  177.6860  145.6180 O   0  0  0  0  0  1  0  0  0  0  0  0
  187.1370  177.2890  144.6030 C   0  0  0  0  0  2  0  0  0  0  0  0
  185.5430  177.8570  143.0250 C   0  0  0  0  0  2  0  0  0  0  0  0
  186.4010  178.5050  144.0910 C   0  0  2  0  0  0  0  0  0  0  0  0
  184.9110  179.0370  143.8450 C   0  0  2  0  0  3  0  0  0  0  0  0
  185.0980  178.0800  146.2860 C   0  0  0  0  0  1  0  0  0  0  0  0
  185.5650  179.1650  145.2090 C   0  0  1  0  0  3  0  0  0  0  0  0
  1  3  1  0  0  0  0
  1 22  1  1  0  0  0
  4  2  1  1  0  0  0
  4  1  1  0  0  0  0
  5 10  1  0  0  0  0
  5 14  1  0  0  0  0
  7  8  1  6  0  0  0
  7 16  1  0  0  0  0
  8  6  1  6  0  0  0
  9 11  1  1  0  0  0
  9 12  1  0  0  0  0
  9  4  1  0  0  0  0
 10  7  1  0  0  0  0
 12 15  1  0  0  0  0
 13  2  1  1  0  0  0
 13  4  1  0  0  0  0
 14 19  1  6  0  0  0
 14 11  1  0  0  0  0
 15  3  1  0  0  0  0
 16 13  1  0  0  0  0
 17 18  1  0  0  0  0
 18  8  1  0  0  0  0
 19 20  1  0  0  0  0
 22 21  1  1  0  0  0
 22 23  1  0  0  0  0
 23 27  1  1  0  0  0
 23 25  1  0  0  0  0
 25 26  1  0  0  0  0
 25 24  1  1  0  0  0
 28 29  1  0  0  0  0
 29 27  1  6  0  0  0
 29 32  1  0  0  0  0
 30 28  1  1  0  0  0
 30 29  1  0  0  0  0
 30 32  1  0  0  0  0
 32 31  1  1  0  0  0
M  END
>  <MODEL>
2

>  <REMARK>
 VINA RESULT:      -7.5      1.167      2.626
  Name = 
  7 active torsions:
  status: ('A' for Active; 'I' for Inactive)
    1  A    between atoms: C_1  and  C_27
    2  A    between atoms: C_7  and  C_20
    3  A    between atoms: C_12  and  C_31
    4  A    between atoms: S_13  and  C_29
    5  A    between atoms: C_16  and  C_20
    6  A    between atoms: C_16  and  C_22
    7  A    between atoms: C_16  and  C_27
                            x       y       z     vdW  Elec       q    Type
                         _______ _______ _______ _____ _____    ______ ____

>  <TORSDO>
F 7

$$$$
=
 OpenBabel10262421043D

 32 36  0  0  1  0  0  0  0  0999 V2000
  190.5450  177.6030  141.5580 C   0  0  1  0  0  3  0  0  0  0  0  0
  188.3650  177.2050  140.2070 C   0  0  0  0  0  2  0  0  0  0  0  0
  191.9400  177.4350  141.6480 O   0  0  0  0  0  0  0  0  0  0  0  0
  189.8390  177.4720  140.0930 C   0  0  2  0  0  0  0  0  0  0  0  0
  188.6320  176.3860  136.2290 C   0  0  0  0  0  2  0  0  0  0  0  0
  185.1350  178.5620  138.6120 C   0  0  0  0  0  1  0  0  0  0  0  0
  187.4200  178.0210  137.6900 C   0  0  1  0  0  3  0  0  0  0  0  0
  186.0930  177.7090  137.6810 C   0  0  2  0  0  3  0  0  0  0  0  0
  190.6490  176.9430  138.9250 C   0  0  2  0  0  3  0  0  0  0  0  0
  188.2370  177.6460  136.6240 O   0  0  0  0  0  0  0  0  0  0  0  0
  190.0670  175.7490  138.1470 C   0  0  0  0  0  2  0  0  0  0  0  0
  192.1430  176.6820  139.2370 C   0  0  0  0  0  2  0  0  0  0  0  0
  188.7970  178.6220  139.9280 C   0  0  1  0  0  3  0  0  0  0  0  0
  190.1250  176.1470  136.6490 C   0  0  1  0  0  3  0  0  0  0  0  0
  192.6650  177.4820  140.4420 C   0  0  0  0  0  2  0  0  0  0  0  0
  188.0670  178.9420  138.6640 O   0  0  0  0  0  0  0  0  0  0  0  0
  184.7260  175.5300  137.0990 C   0  0  0  0  0  1  0  0  0  0  0  0
  185.4030  176.8600  136.5840 C   0  0  0  0  0  2  0  0  0  0  0  0
  191.4260  175.3280  135.5730 S   0  0  0  0  0  0  0  0  0  0  0  0
  191.4960  173.9590  136.6940 C   0  0  0  0  0  1  0  0  0  0  0  0
  190.6750  175.3830  142.9100 C   0  0  0  0  0  1  0  0  0  0  0  0
  189.9050  176.6990  142.6000 C   0  0  1  0  0  3  0  0  0  0  0  0
  189.4070  177.4860  143.8700 C   0  0  2  0  0  3  0  0  0  0  0  0
  191.0040  179.6430  144.0440 C   0  0  0  0  0  1  0  0  0  0  0  0
  190.5260  178.2750  144.6900 C   0  0  2  0  0  3  0  0  0  0  0  0
  191.5700  177.4780  145.0670 O   0  0  0  0  0  1  0  0  0  0  0  0
  188.3840  176.9580  144.9530 C   0  0  0  0  0  2  0  0  0  0  0  0
  186.1800  177.5550  145.3290 C   0  0  0  0  0  2  0  0  0  0  0  0
  187.5810  178.0790  145.5700 C   0  0  2  0  0  0  0  0  0  0  0  0
  186.4430  178.3260  146.6700 C   0  0  2  0  0  3  0  0  0  0  0  0
  188.3490  176.8440  147.7100 C   0  0  0  0  0  1  0  0  0  0  0  0
  187.9050  178.2400  147.0700 C   0  0  1  0  0  3  0  0  0  0  0  0
  1  3  1  0  0  0  0
  1 22  1  1  0  0  0
  4  2  1  1  0  0  0
  4  1  1  0  0  0  0
  5 10  1  0  0  0  0
  5 14  1  0  0  0  0
  7  8  1  6  0  0  0
  7 16  1  0  0  0  0
  8  6  1  6  0  0  0
  9 11  1  1  0  0  0
  9 12  1  0  0  0  0
  9  4  1  0  0  0  0
 10  7  1  0  0  0  0
 12 15  1  0  0  0  0
 13  4  1  0  0  0  0
 13  2  1  1  0  0  0
 14 19  1  6  0  0  0
 14 11  1  0  0  0  0
 15  3  1  0  0  0  0
 16 13  1  0  0  0  0
 18 17  1  0  0  0  0
 18  8  1  0  0  0  0
 19 20  1  0  0  0  0
 22 21  1  1  0  0  0
 22 23  1  0  0  0  0
 23 25  1  0  0  0  0
 23 27  1  1  0  0  0
 25 24  1  6  0  0  0
 25 26  1  0  0  0  0
 28 29  1  0  0  0  0
 29 27  1  6  0  0  0
 29 30  1  0  0  0  0
 29 32  1  0  0  0  0
 30 28  1  1  0  0  0
 30 32  1  0  0  0  0
 32 31  1  1  0  0  0
M  END
>  <MODEL>
3

>  <REMARK>
 VINA RESULT:      -7.3      1.514      2.330
  Name = 
  7 active torsions:
  status: ('A' for Active; 'I' for Inactive)
    1  A    between atoms: C_1  and  C_27
    2  A    between atoms: C_7  and  C_20
    3  A    between atoms: C_12  and  C_31
    4  A    between atoms: S_13  and  C_29
    5  A    between atoms: C_16  and  C_20
    6  A    between atoms: C_16  and  C_22
    7  A    between atoms: C_16  and  C_27
                            x       y       z     vdW  Elec       q    Type
                         _______ _______ _______ _____ _____    ______ ____

>  <TORSDO>
F 7

$$$$
=
 OpenBabel10262421043D

 32 36  0  0  1  0  0  0  0  0999 V2000
  189.9150  177.7610  142.4190 C   0  0  1  0  0  3  0  0  0  0  0  0
  187.4130  177.5340  141.7700 C   0  0  0  0  0  2  0  0  0  0  0  0
  191.2630  177.6460  142.0300 O   0  0  0  0  0  0  0  0  0  0  0  0
  188.7790  177.8890  141.2550 C   0  0  2  0  0  0  0  0  0  0  0  0
  186.3900  177.5300  137.8310 C   0  0  0  0  0  2  0  0  0  0  0  0
  183.8680  179.0210  141.5800 C   0  0  0  0  0  1  0  0  0  0  0  0
  185.7330  178.7840  139.8970 C   0  0  1  0  0  3  0  0  0  0  0  0
  184.4660  178.4160  140.2430 C   0  0  2  0  0  3  0  0  0  0  0  0
  189.1670  177.6400  139.8110 C   0  0  2  0  0  3  0  0  0  0  0  0
  186.1630  178.6660  138.5760 O   0  0  0  0  0  0  0  0  0  0  0  0
  188.3480  176.5960  139.0300 C   0  0  0  0  0  2  0  0  0  0  0  0
  190.6780  177.3940  139.5780 C   0  0  0  0  0  2  0  0  0  0  0  0
  187.7590  178.9970  141.6620 C   0  0  1  0  0  3  0  0  0  0  0  0
  187.9350  177.2850  137.7030 C   0  0  1  0  0  3  0  0  0  0  0  0
  191.5690  177.9650  140.6940 C   0  0  0  0  0  2  0  0  0  0  0  0
  186.6710  179.5240  140.7830 O   0  0  0  0  0  0  0  0  0  0  0  0
  182.9460  176.3330  139.6910 C   0  0  0  0  0  1  0  0  0  0  0  0
  183.4490  177.7690  139.2690 C   0  0  0  0  0  2  0  0  0  0  0  0
  188.8130  176.7570  136.1300 S   0  0  0  0  0  0  0  0  0  0  0  0
  187.2510  176.5830  135.3140 C   0  0  0  0  0  1  0  0  0  0  0  0
  190.3300  175.2850  143.1070 C   0  0  0  0  0  1  0  0  0  0  0  0
  189.6240  176.6400  143.4030 C   0  0  1  0  0  3  0  0  0  0  0  0
  189.7010  177.1080  144.9050 C   0  0  2  0  0  3  0  0  0  0  0  0
  190.9690  176.5800  147.2170 C   0  0  0  0  0  1  0  0  0  0  0  0
  191.0820  176.8340  145.6560 C   0  0  2  0  0  3  0  0  0  0  0  0
  192.0490  177.7480  145.3390 O   0  0  0  0  0  1  0  0  0  0  0  0
  188.5790  176.9140  146.0020 C   0  0  0  0  0  2  0  0  0  0  0  0
  186.3520  177.3870  145.5840 C   0  0  0  0  0  2  0  0  0  0  0  0
  187.6180  178.0800  146.0430 C   0  0  2  0  0  0  0  0  0  0  0  0
  186.2100  178.5010  146.6790 C   0  0  2  0  0  3  0  0  0  0  0  0
  187.7570  177.5200  148.5650 C   0  0  0  0  0  1  0  0  0  0  0  0
  187.4970  178.6550  147.4690 C   0  0  1  0  0  3  0  0  0  0  0  0
  1 22  1  6  0  0  0
  3  1  1  0  0  0  0
  4 13  1  0  0  0  0
  4  2  1  1  0  0  0
  4  1  1  0  0  0  0
  5 10  1  0  0  0  0
  7  8  1  6  0  0  0
  7 16  1  0  0  0  0
  8  6  1  6  0  0  0
  9 11  1  1  0  0  0
  9  4  1  0  0  0  0
 10  7  1  0  0  0  0
 12  9  1  0  0  0  0
 12 15  1  0  0  0  0
 13  2  1  1  0  0  0
 14 19  1  6  0  0  0
 14  5  1  0  0  0  0
 14 11  1  0  0  0  0
 15  3  1  0  0  0  0
 16 13  1  0  0  0  0
 18 17  1  0  0  0  0
 18  8  1  0  0  0  0
 20 19  1  0  0  0  0
 22 21  1  1  0  0  0
 22 23  1  0  0  0  0
 23 25  1  0  0  0  0
 23 27  1  1  0  0  0
 25 24  1  1  0  0  0
 26 25  1  0  0  0  0
 28 29  1  0  0  0  0
 29 27  1  6  0  0  0
 29 30  1  0  0  0  0
 29 32  1  0  0  0  0
 30 28  1  1  0  0  0
 30 32  1  0  0  0  0
 32 31  1  1  0  0  0
M  END
>  <MODEL>
4

>  <REMARK>
 VINA RESULT:      -7.1      1.967      3.566
  Name = 
  7 active torsions:
  status: ('A' for Active; 'I' for Inactive)
    1  A    between atoms: C_1  and  C_27
    2  A    between atoms: C_7  and  C_20
    3  A    between atoms: C_12  and  C_31
    4  A    between atoms: S_13  and  C_29
    5  A    between atoms: C_16  and  C_20
    6  A    between atoms: C_16  and  C_22
    7  A    between atoms: C_16  and  C_27
                            x       y       z     vdW  Elec       q    Type
                         _______ _______ _______ _____ _____    ______ ____

>  <TORSDO>
F 7

$$$$
=
 OpenBabel10262421043D

 32 36  0  0  1  0  0  0  0  0999 V2000
  190.6840  176.1450  142.4140 C   0  0  1  0  0  3  0  0  0  0  0  0
  188.5250  177.5650  142.6510 C   0  0  0  0  0  2  0  0  0  0  0  0
  191.8720  175.6740  143.0040 O   0  0  0  0  0  0  0  0  0  0  0  0
  189.4930  176.6860  143.3900 C   0  0  2  0  0  0  0  0  0  0  0  0
  187.1690  178.4860  146.3770 C   0  0  0  0  0  2  0  0  0  0  0  0
  184.7010  177.8970  142.3520 C   0  0  0  0  0  1  0  0  0  0  0  0
  186.2470  177.4450  144.2930 C   0  0  1  0  0  3  0  0  0  0  0  0
  185.3520  178.3100  143.7370 C   0  0  2  0  0  3  0  0  0  0  0  0
  189.7800  176.8920  144.8650 C   0  0  2  0  0  3  0  0  0  0  0  0
  186.5240  177.5030  145.6590 O   0  0  0  0  0  0  0  0  0  0  0  0
  189.4620  178.2770  145.4580 C   0  0  0  0  0  2  0  0  0  0  0  0
  191.1900  176.4440  145.3200 C   0  0  0  0  0  2  0  0  0  0  0  0
  188.1280  176.1290  142.8800 C   0  0  1  0  0  3  0  0  0  0  0  0
  188.6220  178.0100  146.7340 C   0  0  1  0  0  3  0  0  0  0  0  0
  191.8340  175.4060  144.3850 C   0  0  0  0  0  2  0  0  0  0  0  0
  186.8250  176.2620  143.6010 O   0  0  0  0  0  0  0  0  0  0  0  0
  183.0990  179.2650  144.7190 C   0  0  0  0  0  1  0  0  0  0  0  0
  184.6520  179.4570  144.5070 C   0  0  0  0  0  2  0  0  0  0  0  0
  189.4530  178.2520  148.3990 S   0  0  0  0  0  0  0  0  0  0  0  0
  187.9290  177.8780  149.2180 C   0  0  0  0  0  1  0  0  0  0  0  0
  192.5690  177.5750  141.3290 C   0  0  0  0  0  1  0  0  0  0  0  0
  191.0700  177.1550  141.3460 C   0  0  1  0  0  3  0  0  0  0  0  0
  190.4660  176.8120  139.9320 C   0  0  2  0  0  3  0  0  0  0  0  0
  192.2280  176.8580  137.9000 C   0  0  0  0  0  1  0  0  0  0  0  0
  191.4120  175.9880  138.9460 C   0  0  2  0  0  3  0  0  0  0  0  0
  190.7770  174.9250  138.3650 O   0  0  0  0  0  1  0  0  0  0  0  0
  189.6440  177.7940  139.0060 C   0  0  0  0  0  2  0  0  0  0  0  0
  187.3840  178.2530  139.2060 C   0  0  0  0  0  2  0  0  0  0  0  0
  188.3070  177.2120  138.6070 C   0  0  2  0  0  0  0  0  0  0  0  0
  186.9630  177.6150  137.8360 C   0  0  2  0  0  3  0  0  0  0  0  0
  189.0390  178.2500  136.3520 C   0  0  0  0  0  1  0  0  0  0  0  0
  188.1760  177.1130  137.0730 C   0  0  1  0  0  3  0  0  0  0  0  0
  1 22  1  6  0  0  0
  1  3  1  0  0  0  0
  1  4  1  0  0  0  0
  3 15  1  0  0  0  0
  4  2  1  6  0  0  0
  4  9  1  0  0  0  0
  5 14  1  0  0  0  0
  7  8  1  1  0  0  0
  7 10  1  0  0  0  0
  8  6  1  1  0  0  0
  8 18  1  0  0  0  0
  9 12  1  6  0  0  0
  9 11  1  0  0  0  0
 10  5  1  0  0  0  0
 11 14  1  0  0  0  0
 13  2  1  6  0  0  0
 13  4  1  0  0  0  0
 13 16  1  0  0  0  0
 14 19  1  1  0  0  0
 15 12  1  0  0  0  0
 16  7  1  0  0  0  0
 18 17  1  0  0  0  0
 19 20  1  0  0  0  0
 22 21  1  6  0  0  0
 23 27  1  6  0  0  0
 23 22  1  0  0  0  0
 25 24  1  6  0  0  0
 25 23  1  0  0  0  0
 26 25  1  0  0  0  0
 29 27  1  1  0  0  0
 29 28  1  0  0  0  0
 30 29  1  0  0  0  0
 30 28  1  6  0  0  0
 32 31  1  6  0  0  0
 32 30  1  0  0  0  0
 32 29  1  0  0  0  0
M  END
>  <MODEL>
5

>  <REMARK>
 VINA RESULT:      -6.8      2.811      7.702
  Name = 
  7 active torsions:
  status: ('A' for Active; 'I' for Inactive)
    1  A    between atoms: C_1  and  C_27
    2  A    between atoms: C_7  and  C_20
    3  A    between atoms: C_12  and  C_31
    4  A    between atoms: S_13  and  C_29
    5  A    between atoms: C_16  and  C_20
    6  A    between atoms: C_16  and  C_22
    7  A    between atoms: C_16  and  C_27
                            x       y       z     vdW  Elec       q    Type
                         _______ _______ _______ _____ _____    ______ ____

>  <TORSDO>
F 7

$$$$
=
 OpenBabel10262421043D

 32 36  0  0  1  0  0  0  0  0999 V2000
  190.7160  176.5120  142.0920 C   0  0  1  0  0  3  0  0  0  0  0  0
  188.5360  177.8640  142.4830 C   0  0  0  0  0  2  0  0  0  0  0  0
  191.9090  175.9910  142.6290 O   0  0  0  0  0  0  0  0  0  0  0  0
  189.5140  176.9170  143.1180 C   0  0  2  0  0  0  0  0  0  0  0  0
  187.1520  178.3200  146.2830 C   0  0  0  0  0  2  0  0  0  0  0  0
  184.7090  178.1760  142.2030 C   0  0  0  0  0  1  0  0  0  0  0  0
  186.2540  177.5190  144.0860 C   0  0  1  0  0  3  0  0  0  0  0  0
  185.3480  178.4310  143.6300 C   0  0  2  0  0  3  0  0  0  0  0  0
  189.7920  176.9520  144.6080 C   0  0  2  0  0  3  0  0  0  0  0  0
  186.5250  177.4200  145.4510 O   0  0  0  0  0  0  0  0  0  0  0  0
  189.4510  178.2530  145.3590 C   0  0  0  0  0  2  0  0  0  0  0  0
  191.2070  176.4730  145.0160 C   0  0  0  0  0  2  0  0  0  0  0  0
  188.1590  176.4050  142.5380 C   0  0  1  0  0  3  0  0  0  0  0  0
  188.6100  177.8250  146.5900 C   0  0  1  0  0  3  0  0  0  0  0  0
  191.8690  175.5610  143.9680 C   0  0  0  0  0  2  0  0  0  0  0  0
  186.8520  176.4340  143.2620 O   0  0  0  0  0  0  0  0  0  0  0  0
  183.2310  179.0030  145.0940 C   0  0  0  0  0  1  0  0  0  0  0  0
  184.6280  179.4700  144.5270 C   0  0  0  0  0  2  0  0  0  0  0  0
  189.4310  177.8810  148.2770 S   0  0  0  0  0  0  0  0  0  0  0  0
  187.8410  177.8780  149.0540 C   0  0  0  0  0  1  0  0  0  0  0  0
  192.5340  178.2070  141.3190 C   0  0  0  0  0  1  0  0  0  0  0  0
  191.0920  177.6470  141.1520 C   0  0  1  0  0  3  0  0  0  0  0  0
  190.6590  177.3760  139.6620 C   0  0  2  0  0  3  0  0  0  0  0  0
  188.3970  176.7530  138.3470 C   0  0  0  0  0  1  0  0  0  0  0  0
  189.1630  177.7800  139.2820 C   0  0  2  0  0  3  0  0  0  0  0  0
  189.0560  179.0710  138.8450 O   0  0  0  0  0  1  0  0  0  0  0  0
  190.9720  176.0750  138.8210 C   0  0  0  0  0  2  0  0  0  0  0  0
  193.1800  176.0120  138.1320 C   0  0  0  0  0  2  0  0  0  0  0  0
  191.8090  176.3750  137.6000 C   0  0  2  0  0  0  0  0  0  0  0  0
  192.8760  175.6790  136.6290 C   0  0  2  0  0  3  0  0  0  0  0  0
  190.7890  174.1030  136.9000 C   0  0  0  0  0  1  0  0  0  0  0  0
  191.3850  175.5000  136.4020 C   0  0  1  0  0  3  0  0  0  0  0  0
  1 22  1  1  0  0  0
  1  3  1  0  0  0  0
  1  4  1  0  0  0  0
  3 15  1  0  0  0  0
  4  2  1  6  0  0  0
  4  9  1  0  0  0  0
  5 14  1  0  0  0  0
  7  8  1  1  0  0  0
  7 10  1  0  0  0  0
  8  6  1  1  0  0  0
  8 18  1  0  0  0  0
  9 12  1  6  0  0  0
  9 11  1  0  0  0  0
 10  5  1  0  0  0  0
 11 14  1  0  0  0  0
 13  2  1  6  0  0  0
 13  4  1  0  0  0  0
 13 16  1  0  0  0  0
 14 19  1  1  0  0  0
 15 12  1  0  0  0  0
 16  7  1  0  0  0  0
 18 17  1  0  0  0  0
 19 20  1  0  0  0  0
 22 21  1  6  0  0  0
 23 27  1  1  0  0  0
 23 22  1  0  0  0  0
 25 24  1  6  0  0  0
 25 23  1  0  0  0  0
 26 25  1  0  0  0  0
 29 28  1  0  0  0  0
 29 27  1  6  0  0  0
 30 29  1  0  0  0  0
 30 28  1  1  0  0  0
 32 30  1  0  0  0  0
 32 31  1  1  0  0  0
 32 29  1  0  0  0  0
M  END
>  <MODEL>
6

>  <REMARK>
 VINA RESULT:      -6.5      2.730      7.624
  Name = 
  7 active torsions:
  status: ('A' for Active; 'I' for Inactive)
    1  A    between atoms: C_1  and  C_27
    2  A    between atoms: C_7  and  C_20
    3  A    between atoms: C_12  and  C_31
    4  A    between atoms: S_13  and  C_29
    5  A    between atoms: C_16  and  C_20
    6  A    between atoms: C_16  and  C_22
    7  A    between atoms: C_16  and  C_27
                            x       y       z     vdW  Elec       q    Type
                         _______ _______ _______ _____ _____    ______ ____

>  <TORSDO>
F 7

$$$$
=
 OpenBabel10262421043D

 32 36  0  0  1  0  0  0  0  0999 V2000
  187.8430  178.2980  142.5240 C   0  0  1  0  0  3  0  0  0  0  0  0
  185.5960  177.8780  141.2940 C   0  0  0  0  0  2  0  0  0  0  0  0
  189.2490  178.3140  142.4660 O   0  0  0  0  0  0  0  0  0  0  0  0
  187.0060  178.3680  141.1250 C   0  0  2  0  0  0  0  0  0  0  0  0
  185.5370  177.9260  137.2250 C   0  0  0  0  0  2  0  0  0  0  0  0
  182.0740  179.0580  140.2860 C   0  0  0  0  0  1  0  0  0  0  0  0
  184.2970  179.0440  139.0930 C   0  0  1  0  0  3  0  0  0  0  0  0
  183.0240  178.5550  139.1210 C   0  0  2  0  0  3  0  0  0  0  0  0
  187.7460  178.2060  139.8110 C   0  0  2  0  0  3  0  0  0  0  0  0
  185.0360  179.0100  137.9100 O   0  0  0  0  0  0  0  0  0  0  0  0
  187.2340  177.1230  138.8430 C   0  0  0  0  0  2  0  0  0  0  0  0
  189.2850  178.1000  139.9420 C   0  0  0  0  0  2  0  0  0  0  0  0
  185.8210  179.3680  141.2920 C   0  0  1  0  0  3  0  0  0  0  0  0
  187.0840  177.8200  137.4660 C   0  0  1  0  0  3  0  0  0  0  0  0
  189.8310  178.7050  141.2460 C   0  0  0  0  0  2  0  0  0  0  0  0
  184.9270  179.8300  140.1870 O   0  0  0  0  0  0  0  0  0  0  0  0
  182.2390  176.2850  138.0340 C   0  0  0  0  0  1  0  0  0  0  0  0
  182.3300  177.8570  137.9250 C   0  0  0  0  0  2  0  0  0  0  0  0
  188.3540  177.4270  136.1400 S   0  0  0  0  0  0  0  0  0  0  0  0
  187.1890  177.8820  134.8870 C   0  0  0  0  0  1  0  0  0  0  0  0
  188.2840  175.8300  143.2240 C   0  0  0  0  0  1  0  0  0  0  0  0
  187.4320  177.1210  143.3950 C   0  0  1  0  0  3  0  0  0  0  0  0
  187.1530  177.5340  144.8890 C   0  0  2  0  0  3  0  0  0  0  0  0
  185.4970  178.6920  146.6650 C   0  0  0  0  0  1  0  0  0  0  0  0
  185.8430  178.4080  145.1430 C   0  0  2  0  0  3  0  0  0  0  0  0
  184.7620  177.9640  144.4320 O   0  0  0  0  0  1  0  0  0  0  0  0
  188.2220  178.0640  145.9260 C   0  0  0  0  0  2  0  0  0  0  0  0
  190.4560  177.4610  145.9170 C   0  0  0  0  0  2  0  0  0  0  0  0
  189.1220  176.9600  146.4290 C   0  0  2  0  0  0  0  0  0  0  0  0
  190.4400  176.7440  147.3120 C   0  0  2  0  0  3  0  0  0  0  0  0
  188.7580  178.2810  148.6240 C   0  0  0  0  0  1  0  0  0  0  0  0
  189.0760  176.8580  147.9680 C   0  0  1  0  0  3  0  0  0  0  0  0
  1 22  1  6  0  0  0
  3  1  1  0  0  0  0
  4 13  1  0  0  0  0
  4  2  1  1  0  0  0
  4  1  1  0  0  0  0
  5 14  1  0  0  0  0
  5 10  1  0  0  0  0
  7  8  1  6  0  0  0
  7 16  1  0  0  0  0
  8  6  1  6  0  0  0
  9 11  1  1  0  0  0
  9 12  1  0  0  0  0
  9  4  1  0  0  0  0
 10  7  1  0  0  0  0
 12 15  1  0  0  0  0
 13  2  1  1  0  0  0
 14 19  1  6  0  0  0
 14 11  1  0  0  0  0
 15  3  1  0  0  0  0
 16 13  1  0  0  0  0
 18 17  1  0  0  0  0
 18  8  1  0  0  0  0
 20 19  1  0  0  0  0
 22 21  1  1  0  0  0
 22 23  1  0  0  0  0
 23 25  1  0  0  0  0
 23 27  1  6  0  0  0
 25 24  1  1  0  0  0
 26 25  1  0  0  0  0
 28 29  1  0  0  0  0
 29 27  1  6  0  0  0
 29 30  1  0  0  0  0
 29 32  1  0  0  0  0
 30 28  1  1  0  0  0
 30 32  1  0  0  0  0
 32 31  1  1  0  0  0
M  END
>  <MODEL>
7

>  <REMARK>
 VINA RESULT:      -6.4      2.372      3.432
  Name = 
  7 active torsions:
  status: ('A' for Active; 'I' for Inactive)
    1  A    between atoms: C_1  and  C_27
    2  A    between atoms: C_7  and  C_20
    3  A    between atoms: C_12  and  C_31
    4  A    between atoms: S_13  and  C_29
    5  A    between atoms: C_16  and  C_20
    6  A    between atoms: C_16  and  C_22
    7  A    between atoms: C_16  and  C_27
                            x       y       z     vdW  Elec       q    Type
                         _______ _______ _______ _____ _____    ______ ____

>  <TORSDO>
F 7

$$$$
=
 OpenBabel10262421043D

 32 36  0  0  1  0  0  0  0  0999 V2000
  183.8400  178.6380  138.4530 C   0  0  1  0  0  3  0  0  0  0  0  0
  184.6600  177.8780  140.7950 C   0  0  0  0  0  2  0  0  0  0  0  0
  182.7830  179.1190  137.6580 O   0  0  0  0  0  0  0  0  0  0  0  0
  183.7410  178.8200  140.0720 C   0  0  2  0  0  0  0  0  0  0  0  0
  182.5620  179.0260  144.0880 C   0  0  0  0  0  2  0  0  0  0  0  0
  187.2100  178.0980  143.6710 C   0  0  0  0  0  1  0  0  0  0  0  0
  184.9360  179.1260  143.2970 C   0  0  1  0  0  3  0  0  0  0  0  0
  185.6810  178.2680  144.0520 C   0  0  2  0  0  3  0  0  0  0  0  0
  182.4310  179.2720  140.6870 C   0  0  2  0  0  3  0  0  0  0  0  0
  183.7510  179.6590  143.8030 O   0  0  0  0  0  0  0  0  0  0  0  0
  181.8360  178.3950  141.8040 C   0  0  0  0  0  2  0  0  0  0  0  0
  181.3250  179.6340  139.6660 C   0  0  0  0  0  2  0  0  0  0  0  0
  185.1220  179.3010  140.6140 C   0  0  1  0  0  3  0  0  0  0  0  0
  181.5080  179.3590  142.9740 C   0  0  1  0  0  3  0  0  0  0  0  0
  181.8720  179.9970  138.2750 C   0  0  0  0  0  2  0  0  0  0  0  0
  185.3860  179.7380  142.0180 O   0  0  0  0  0  0  0  0  0  0  0  0
  185.7740  178.6080  146.6650 C   0  0  0  0  0  1  0  0  0  0  0  0
  185.2600  177.7440  145.4480 C   0  0  0  0  0  2  0  0  0  0  0  0
  179.7050  179.7750  143.2890 S   0  0  0  0  0  0  0  0  0  0  0  0
  179.5580  178.3570  144.3390 C   0  0  0  0  0  1  0  0  0  0  0  0
  182.8760  176.4140  137.5060 C   0  0  0  0  0  1  0  0  0  0  0  0
  184.1080  177.2000  138.0400 C   0  0  1  0  0  3  0  0  0  0  0  0
  185.4150  177.0450  137.1740 C   0  0  2  0  0  3  0  0  0  0  0  0
  186.0560  174.7250  135.9730 C   0  0  0  0  0  1  0  0  0  0  0  0
  185.2950  176.1140  135.8840 C   0  0  2  0  0  3  0  0  0  0  0  0
  185.5550  176.7830  134.7200 O   0  0  0  0  0  1  0  0  0  0  0  0
  186.8780  176.8160  137.7260 C   0  0  0  0  0  2  0  0  0  0  0  0
  188.2800  177.7480  139.3140 C   0  0  0  0  0  2  0  0  0  0  0  0
  187.5840  178.1190  138.0220 C   0  0  2  0  0  0  0  0  0  0  0  0
  189.0480  178.6930  138.3250 C   0  0  2  0  0  3  0  0  0  0  0  0
  189.1370  177.1730  136.1810 C   0  0  0  0  0  1  0  0  0  0  0  0
  188.5740  178.4870  136.8970 C   0  0  1  0  0  3  0  0  0  0  0  0
  1 22  1  1  0  0  0
  1  4  1  0  0  0  0
  3 15  1  0  0  0  0
  3  1  1  0  0  0  0
  4 13  1  0  0  0  0
  4  9  1  0  0  0  0
  4  2  1  1  0  0  0
  7 10  1  0  0  0  0
  7  8  1  1  0  0  0
  8  6  1  1  0  0  0
  8 18  1  0  0  0  0
  9 12  1  6  0  0  0
  9 11  1  0  0  0  0
 10  5  1  0  0  0  0
 11 14  1  0  0  0  0
 13  2  1  1  0  0  0
 13 16  1  0  0  0  0
 14 19  1  1  0  0  0
 14  5  1  0  0  0  0
 15 12  1  0  0  0  0
 16  7  1  0  0  0  0
 18 17  1  0  0  0  0
 19 20  1  0  0  0  0
 22 21  1  6  0  0  0
 23 27  1  1  0  0  0
 23 22  1  0  0  0  0
 25 24  1  1  0  0  0
 25 23  1  0  0  0  0
 26 25  1  0  0  0  0
 29 27  1  1  0  0  0
 29 30  1  0  0  0  0
 29 28  1  0  0  0  0
 30 28  1  1  0  0  0
 32 31  1  1  0  0  0
 32 29  1  0  0  0  0
 32 30  1  0  0  0  0
M  END
>  <MODEL>
8

>  <REMARK>
 VINA RESULT:      -6.1      4.190      9.378
  Name = 
  7 active torsions:
  status: ('A' for Active; 'I' for Inactive)
    1  A    between atoms: C_1  and  C_27
    2  A    between atoms: C_7  and  C_20
    3  A    between atoms: C_12  and  C_31
    4  A    between atoms: S_13  and  C_29
    5  A    between atoms: C_16  and  C_20
    6  A    between atoms: C_16  and  C_22
    7  A    between atoms: C_16  and  C_27
                            x       y       z     vdW  Elec       q    Type
                         _______ _______ _______ _____ _____    ______ ____

>  <TORSDO>
F 7

$$$$
=
 OpenBabel10262421043D

 32 36  0  0  1  0  0  0  0  0999 V2000
  188.6130  178.3350  141.1830 C   0  0  1  0  0  3  0  0  0  0  0  0
  186.0870  177.8680  141.5530 C   0  0  0  0  0  2  0  0  0  0  0  0
  189.7090  178.3330  140.2990 O   0  0  0  0  0  0  0  0  0  0  0  0
  187.1070  178.3330  140.5530 C   0  0  2  0  0  0  0  0  0  0  0  0
  183.6200  177.6840  138.3210 C   0  0  0  0  0  2  0  0  0  0  0  0
  182.6250  179.0250  142.7760 C   0  0  0  0  0  1  0  0  0  0  0  0
  183.7050  178.9200  140.4980 C   0  0  1  0  0  3  0  0  0  0  0  0
  182.7110  178.4470  141.3030 C   0  0  2  0  0  3  0  0  0  0  0  0
  186.9250  178.0890  139.0680 C   0  0  2  0  0  3  0  0  0  0  0  0
  183.5970  178.8110  139.1120 O   0  0  0  0  0  0  0  0  0  0  0  0
  185.9670  176.9580  138.6520 C   0  0  0  0  0  2  0  0  0  0  0  0
  188.2430  177.9750  138.2630 C   0  0  0  0  0  2  0  0  0  0  0  0
  186.2280  179.3530  141.3410 C   0  0  1  0  0  3  0  0  0  0  0  0
  185.0100  177.5770  137.5990 C   0  0  1  0  0  3  0  0  0  0  0  0
  189.4410  178.6480  138.9530 C   0  0  0  0  0  2  0  0  0  0  0  0
  184.8410  179.7610  140.9610 O   0  0  0  0  0  0  0  0  0  0  0  0
  180.1420  177.9450  141.6230 C   0  0  0  0  0  1  0  0  0  0  0  0
  181.4600  177.6880  140.7920 C   0  0  0  0  0  2  0  0  0  0  0  0
  185.2530  177.0960  135.8020 S   0  0  0  0  0  0  0  0  0  0  0  0
  186.1340  175.6450  136.3060 C   0  0  0  0  0  1  0  0  0  0  0  0
  189.7540  176.0560  141.7100 C   0  0  0  0  0  1  0  0  0  0  0  0
  188.8300  177.2140  142.1860 C   0  0  1  0  0  3  0  0  0  0  0  0
  189.1320  177.7430  143.6390 C   0  0  2  0  0  3  0  0  0  0  0  0
  191.2660  177.3460  145.2280 C   0  0  0  0  0  1  0  0  0  0  0  0
  190.6580  178.0800  143.9590 C   0  0  2  0  0  3  0  0  0  0  0  0
  190.9190  179.4220  143.9530 O   0  0  0  0  0  1  0  0  0  0  0  0
  188.5350  177.1670  144.9840 C   0  0  0  0  0  2  0  0  0  0  0  0
  186.2650  177.4830  145.3090 C   0  0  0  0  0  2  0  0  0  0  0  0
  187.5880  178.1400  145.6470 C   0  0  2  0  0  0  0  0  0  0  0  0
  186.3930  178.1720  146.7130 C   0  0  2  0  0  3  0  0  0  0  0  0
  188.4210  176.8370  147.7220 C   0  0  0  0  0  1  0  0  0  0  0  0
  187.8410  178.2200  147.1670 C   0  0  1  0  0  3  0  0  0  0  0  0
  1 22  1  1  0  0  0
  3  1  1  0  0  0  0
  4  1  1  0  0  0  0
  4 13  1  0  0  0  0
  4  2  1  1  0  0  0
  5 10  1  0  0  0  0
  7 16  1  0  0  0  0
  7  8  1  6  0  0  0
  8  6  1  6  0  0  0
  9 12  1  1  0  0  0
  9  4  1  0  0  0  0
 10  7  1  0  0  0  0
 11  9  1  0  0  0  0
 12 15  1  0  0  0  0
 13  2  1  1  0  0  0
 14 19  1  6  0  0  0
 14  5  1  0  0  0  0
 14 11  1  0  0  0  0
 15  3  1  0  0  0  0
 16 13  1  0  0  0  0
 18  8  1  0  0  0  0
 18 17  1  0  0  0  0
 19 20  1  0  0  0  0
 22 21  1  6  0  0  0
 22 23  1  0  0  0  0
 23 25  1  0  0  0  0
 23 27  1  1  0  0  0
 25 24  1  1  0  0  0
 26 25  1  0  0  0  0
 28 29  1  0  0  0  0
 29 27  1  6  0  0  0
 29 30  1  0  0  0  0
 29 32  1  0  0  0  0
 30 28  1  1  0  0  0
 30 32  1  0  0  0  0
 32 31  1  1  0  0  0
M  END
>  <MODEL>
9

>  <REMARK>
 VINA RESULT:      -6.1      3.008      4.865
  Name = 
  7 active torsions:
  status: ('A' for Active; 'I' for Inactive)
    1  A    between atoms: C_1  and  C_27
    2  A    between atoms: C_7  and  C_20
    3  A    between atoms: C_12  and  C_31
    4  A    between atoms: S_13  and  C_29
    5  A    between atoms: C_16  and  C_20
    6  A    between atoms: C_16  and  C_22
    7  A    between atoms: C_16  and  C_27
                            x       y       z     vdW  Elec       q    Type
                         _______ _______ _______ _____ _____    ______ ____

>  <TORSDO>
F 7

$$$$
