=
 OpenBabel10262423243D

 34 39  0  0  1  0  0  0  0  0999 V2000
  183.9050  178.6970  141.9210 N   0  0  0  0  0  0  0  0  0  0  0  0
  181.9340  177.4340  139.1400 C   0  0  0  0  0  3  0  0  0  0  0  0
  181.6730  178.6950  141.3090 C   0  0  0  0  0  0  0  0  0  0  0  0
  184.6240  179.1750  144.2170 C   0  0  1  0  0  3  0  0  0  0  0  0
  184.9360  178.4090  142.9110 C   0  0  0  0  0  2  0  0  0  0  0  0
  182.1600  178.9500  143.6430 C   0  0  0  0  0  0  0  0  0  0  0  0
  180.8230  178.9950  143.9070 N   0  0  0  0  0  0  0  0  0  0  0  0
  183.1940  178.8700  144.7330 C   0  0  0  0  0  2  0  0  0  0  0  0
  180.3020  178.7720  141.5560 C   0  0  0  0  0  3  0  0  0  0  0  0
  182.5650  178.8250  142.3280 C   0  0  0  0  0  0  0  0  0  0  0  0
  179.8950  178.9280  142.8980 C   0  0  0  0  0  3  0  0  0  0  0  0
  182.6800  176.8810  138.1620 C   0  0  0  0  0  3  0  0  0  0  0  0
  184.1480  177.1600  137.8850 C   0  0  2  0  0  3  0  0  0  0  0  0
  184.5910  178.6110  138.1560 C   0  0  0  0  0  2  0  0  0  0  0  0
  182.4350  178.5260  140.0400 C   0  0  1  0  0  3  0  0  0  0  0  0
  184.9060  178.8600  139.6410 C   0  0  0  0  0  2  0  0  0  0  0  0
  183.8620  178.2150  140.5450 C   0  0  1  0  0  3  0  0  0  0  0  0
  186.8300  178.1580  147.9890 C   0  0  0  0  0  2  0  0  0  0  0  0
  186.2030  177.4430  145.1130 C   0  0  0  0  0  2  0  0  0  0  0  0
  190.1960  177.0240  146.6810 C   0  0  0  0  0  0  0  0  0  0  0  0
  189.1770  177.5000  147.5140 C   0  0  0  0  0  3  0  0  0  0  0  0
  187.8720  177.6520  147.0360 C   0  0  0  0  0  0  0  0  0  0  0  0
  185.6650  178.8630  145.2900 C   0  0  2  0  0  3  0  0  0  0  0  0
  188.5970  176.8380  144.8650 C   0  0  0  0  0  3  0  0  0  0  0  0
  187.5780  177.3160  145.6940 C   0  0  0  0  0  0  0  0  0  0  0  0
  189.8980  176.6930  145.3530 C   0  0  0  0  0  3  0  0  0  0  0  0
  185.0870  178.9720  146.5640 O   0  0  0  0  0  0  0  0  0  0  0  0
  186.1140  179.3800  147.4250 C   0  0  0  0  0  2  0  0  0  0  0  0
  191.5640  176.8730  147.1990 C   0  0  0  0  0  0  0  0  0  0  0  0
  192.4060  176.1640  146.5850 O   0  0  0  0  0  0  0  0  0  0  0  0
  191.9430  177.5110  148.3760 O   0  0  0  0  0  1  0  0  0  0  0  0
  184.5240  176.6800  136.4820 C   0  0  0  0  0  3  0  0  0  0  0  0
  183.4740  177.0420  135.4420 C   0  0  0  0  0  1  0  0  0  0  0  0
  185.8770  177.2260  136.0650 C   0  0  0  0  0  1  0  0  0  0  0  0
  1 10  1  0  0  0  0
  1  5  1  0  0  0  0
  3  9  2  0  0  0  0
  3 10  1  0  0  0  0
  4  5  1  6  0  0  0
  4  8  1  0  0  0  0
  4 23  1  0  0  0  0
  6  7  1  0  0  0  0
  6  8  1  0  0  0  0
  9 11  1  0  0  0  0
 10  6  2  0  0  0  0
 11  7  2  0  0  0  0
 12  2  2  0  0  0  0
 13 32  1  6  0  0  0
 13 14  1  0  0  0  0
 13 12  1  0  0  0  0
 14 16  1  0  0  0  0
 15  2  1  1  0  0  0
 15 17  1  0  0  0  0
 15  3  1  0  0  0  0
 17 16  1  6  0  0  0
 17  1  1  0  0  0  0
 19 25  1  0  0  0  0
 20 29  1  0  0  0  0
 20 21  1  0  0  0  0
 22 21  2  0  0  0  0
 22 18  1  0  0  0  0
 23 19  1  6  0  0  0
 23 27  1  0  0  0  0
 24 26  1  0  0  0  0
 24 25  2  0  0  0  0
 25 22  1  0  0  0  0
 26 20  2  0  0  0  0
 27 28  1  0  0  0  0
 28 18  1  0  0  0  0
 29 31  1  0  0  0  0
 30 29  2  0  0  0  0
 33 32  1  0  0  0  0
 34 32  1  0  0  0  0
M  END
>  <MODEL>
1

>  <REMARK>
 VINA RESULT:     -10.6      0.000      0.000
  Name = 
  3 active torsions:
  status: ('A' for Active; 'I' for Inactive)
    1  A    between atoms: C_3  and  C_25
    2  A    between atoms: C_7  and  C_11
    3  A    between atoms: C_8  and  C_18
                            x       y       z     vdW  Elec       q    Type
                         _______ _______ _______ _____ _____    ______ ____

>  <TORSDO>
F 3

$$$$
=
 OpenBabel10262423243D

 34 39  0  0  1  0  0  0  0  0999 V2000
  190.0230  177.1030  138.7720 N   0  0  0  0  0  0  0  0  0  0  0  0
  191.1960  175.1270  135.9540 C   0  0  0  0  0  3  0  0  0  0  0  0
  189.6200  177.0220  136.4950 C   0  0  0  0  0  0  0  0  0  0  0  0
  188.5050  178.2450  140.3220 C   0  0  1  0  0  3  0  0  0  0  0  0
  189.5150  177.0900  140.1390 C   0  0  0  0  0  2  0  0  0  0  0  0
  187.9040  177.9780  137.8690 C   0  0  0  0  0  0  0  0  0  0  0  0
  187.1370  178.1730  136.7580 N   0  0  0  0  0  0  0  0  0  0  0  0
  187.3750  178.1940  139.2610 C   0  0  0  0  0  2  0  0  0  0  0  0
  188.8650  177.2440  135.3430 C   0  0  0  0  0  3  0  0  0  0  0  0
  189.1590  177.4210  137.7100 C   0  0  0  0  0  0  0  0  0  0  0  0
  187.5950  177.8380  135.5090 C   0  0  0  0  0  3  0  0  0  0  0  0
  192.1710  174.2550  136.2800 C   0  0  0  0  0  3  0  0  0  0  0  0
  193.1040  174.3560  137.4760 C   0  0  2  0  0  3  0  0  0  0  0  0
  193.5040  175.7930  137.8630 C   0  0  0  0  0  2  0  0  0  0  0  0
  190.9710  176.4200  136.6820 C   0  0  1  0  0  3  0  0  0  0  0  0
  192.4400  176.4820  138.7350 C   0  0  0  0  0  2  0  0  0  0  0  0
  191.0340  176.2120  138.2120 C   0  0  1  0  0  3  0  0  0  0  0  0
  185.9120  177.9130  143.9680 C   0  0  0  0  0  2  0  0  0  0  0  0
  188.3980  177.0010  142.4990 C   0  0  0  0  0  2  0  0  0  0  0  0
  188.4590  177.6640  146.7570 C   0  0  0  0  0  0  0  0  0  0  0  0
  187.2720  177.8760  146.0450 C   0  0  0  0  0  3  0  0  0  0  0  0
  187.2190  177.6740  144.6630 C   0  0  0  0  0  0  0  0  0  0  0  0
  187.9220  178.2360  141.7340 C   0  0  2  0  0  3  0  0  0  0  0  0
  189.5620  177.0320  144.6900 C   0  0  0  0  0  3  0  0  0  0  0  0
  188.3790  177.2470  143.9760 C   0  0  0  0  0  0  0  0  0  0  0  0
  189.6040  177.2400  146.0710 C   0  0  0  0  0  3  0  0  0  0  0  0
  186.5200  178.2180  141.6730 O   0  0  0  0  0  0  0  0  0  0  0  0
  186.0710  178.8950  142.8140 C   0  0  0  0  0  2  0  0  0  0  0  0
  188.4980  177.8830  148.2110 C   0  0  0  0  0  0  0  0  0  0  0  0
  187.5530  177.4830  148.9430 O   0  0  0  0  0  1  0  0  0  0  0  0
  189.5800  178.5350  148.7930 O   0  0  0  0  0  0  0  0  0  0  0  0
  194.3130  173.4370  137.2860 C   0  0  0  0  0  3  0  0  0  0  0  0
  195.1080  173.7740  136.0330 C   0  0  0  0  0  1  0  0  0  0  0  0
  195.2190  173.4730  138.5020 C   0  0  0  0  0  1  0  0  0  0  0  0
  1  5  1  0  0  0  0
  2 12  2  0  0  0  0
  3 15  1  0  0  0  0
  3 10  1  0  0  0  0
  4  8  1  6  0  0  0
  4 23  1  0  0  0  0
  5  4  1  0  0  0  0
  6  8  1  0  0  0  0
  7  6  1  0  0  0  0
  9 11  1  0  0  0  0
  9  3  2  0  0  0  0
 10  6  2  0  0  0  0
 10  1  1  0  0  0  0
 11  7  2  0  0  0  0
 12 13  1  0  0  0  0
 13 32  1  6  0  0  0
 13 14  1  0  0  0  0
 14 16  1  0  0  0  0
 15  2  1  6  0  0  0
 15 17  1  0  0  0  0
 17 16  1  1  0  0  0
 17  1  1  0  0  0  0
 18 22  1  0  0  0  0
 19 25  1  0  0  0  0
 20 29  1  0  0  0  0
 21 20  2  0  0  0  0
 22 21  1  0  0  0  0
 23 19  1  6  0  0  0
 24 26  2  0  0  0  0
 25 22  2  0  0  0  0
 25 24  1  0  0  0  0
 26 20  1  0  0  0  0
 27 23  1  0  0  0  0
 27 28  1  0  0  0  0
 28 18  1  0  0  0  0
 29 31  2  0  0  0  0
 29 30  1  0  0  0  0
 32 34  1  0  0  0  0
 33 32  1  0  0  0  0
M  END
>  <MODEL>
2

>  <REMARK>
 VINA RESULT:     -10.3      4.966      7.315
  Name = 
  3 active torsions:
  status: ('A' for Active; 'I' for Inactive)
    1  A    between atoms: C_3  and  C_25
    2  A    between atoms: C_7  and  C_11
    3  A    between atoms: C_8  and  C_18
                            x       y       z     vdW  Elec       q    Type
                         _______ _______ _______ _____ _____    ______ ____

>  <TORSDO>
F 3

$$$$
=
 OpenBabel10262423243D

 34 39  0  0  1  0  0  0  0  0999 V2000
  182.8730  178.7680  141.7810 N   0  0  0  0  0  0  0  0  0  0  0  0
  180.5030  177.5360  139.3140 C   0  0  0  0  0  3  0  0  0  0  0  0
  180.5720  178.7390  141.5310 C   0  0  0  0  0  0  0  0  0  0  0  0
  183.9410  179.2030  143.9460 C   0  0  1  0  0  3  0  0  0  0  0  0
  184.0520  178.4740  142.5870 C   0  0  0  0  0  2  0  0  0  0  0  0
  181.4200  178.9470  143.7640 C   0  0  0  0  0  0  0  0  0  0  0  0
  180.1410  178.9610  144.2380 N   0  0  0  0  0  0  0  0  0  0  0  0
  182.6150  178.8600  144.6740 C   0  0  0  0  0  2  0  0  0  0  0  0
  179.2570  178.7850  141.9940 C   0  0  0  0  0  3  0  0  0  0  0  0
  181.6120  178.8600  142.3980 C   0  0  0  0  0  0  0  0  0  0  0  0
  179.0660  178.9010  143.3870 C   0  0  0  0  0  3  0  0  0  0  0  0
  181.0920  177.0210  138.2170 C   0  0  0  0  0  3  0  0  0  0  0  0
  182.4930  177.3340  137.7170 C   0  0  2  0  0  3  0  0  0  0  0  0
  182.9530  178.7860  137.9540 C   0  0  0  0  0  2  0  0  0  0  0  0
  181.1250  178.6150  140.1530 C   0  0  1  0  0  3  0  0  0  0  0  0
  183.4960  179.0030  139.3770 C   0  0  0  0  0  2  0  0  0  0  0  0
  182.6180  178.3180  140.4170 C   0  0  1  0  0  3  0  0  0  0  0  0
  186.7340  178.1570  147.2970 C   0  0  0  0  0  2  0  0  0  0  0  0
  185.6490  177.4690  144.5540 C   0  0  0  0  0  2  0  0  0  0  0  0
  189.8450  177.0510  145.4460 C   0  0  0  0  0  0  0  0  0  0  0  0
  188.9740  177.5140  146.4390 C   0  0  0  0  0  3  0  0  0  0  0  0
  187.6080  177.6650  146.1820 C   0  0  0  0  0  0  0  0  0  0  0  0
  185.1430  178.8850  144.8320 C   0  0  2  0  0  3  0  0  0  0  0  0
  187.9720  176.8770  143.9120 C   0  0  0  0  0  3  0  0  0  0  0  0
  187.1010  177.3420  144.9020 C   0  0  0  0  0  0  0  0  0  0  0  0
  189.3360  176.7330  144.1810 C   0  0  0  0  0  3  0  0  0  0  0  0
  184.7800  178.9780  146.1840 O   0  0  0  0  0  0  0  0  0  0  0  0
  185.9330  179.3810  146.8700 C   0  0  0  0  0  2  0  0  0  0  0  0
  191.2800  176.9010  145.7330 C   0  0  0  0  0  0  0  0  0  0  0  0
  192.0790  176.5390  144.8270 O   0  0  0  0  0  0  0  0  0  0  0  0
  191.7700  177.1560  147.0100 O   0  0  0  0  0  1  0  0  0  0  0  0
  182.6480  176.8940  136.2600 C   0  0  0  0  0  3  0  0  0  0  0  0
  182.0130  175.5390  135.9900 C   0  0  0  0  0  1  0  0  0  0  0  0
  182.0740  177.9340  135.3160 C   0  0  0  0  0  1  0  0  0  0  0  0
  1 10  1  0  0  0  0
  1  5  1  0  0  0  0
  3  9  2  0  0  0  0
  3 10  1  0  0  0  0
  4  5  1  6  0  0  0
  4  8  1  0  0  0  0
  4 23  1  0  0  0  0
  6  7  1  0  0  0  0
  6  8  1  0  0  0  0
  9 11  1  0  0  0  0
 10  6  2  0  0  0  0
 11  7  2  0  0  0  0
 12  2  2  0  0  0  0
 13 32  1  6  0  0  0
 13 14  1  0  0  0  0
 13 12  1  0  0  0  0
 14 16  1  0  0  0  0
 15  2  1  1  0  0  0
 15 17  1  0  0  0  0
 15  3  1  0  0  0  0
 17 16  1  6  0  0  0
 17  1  1  0  0  0  0
 19 25  1  0  0  0  0
 20 29  1  0  0  0  0
 20 21  1  0  0  0  0
 22 21  2  0  0  0  0
 22 18  1  0  0  0  0
 23 19  1  6  0  0  0
 23 27  1  0  0  0  0
 24 26  1  0  0  0  0
 24 25  2  0  0  0  0
 25 22  1  0  0  0  0
 26 20  2  0  0  0  0
 27 28  1  0  0  0  0
 28 18  1  0  0  0  0
 29 31  1  0  0  0  0
 30 29  2  0  0  0  0
 33 32  1  0  0  0  0
 34 32  1  0  0  0  0
M  END
>  <MODEL>
3

>  <REMARK>
 VINA RESULT:     -10.2      1.181      1.383
  Name = 
  3 active torsions:
  status: ('A' for Active; 'I' for Inactive)
    1  A    between atoms: C_3  and  C_25
    2  A    between atoms: C_7  and  C_11
    3  A    between atoms: C_8  and  C_18
                            x       y       z     vdW  Elec       q    Type
                         _______ _______ _______ _____ _____    ______ ____

>  <TORSDO>
F 3

$$$$
=
 OpenBabel10262423243D

 34 39  0  0  1  0  0  0  0  0999 V2000
  186.2500  178.2770  139.0370 N   0  0  0  0  0  0  0  0  0  0  0  0
  186.7500  176.5440  135.8800 C   0  0  0  0  0  3  0  0  0  0  0  0
  184.9590  177.7420  137.1930 C   0  0  0  0  0  0  0  0  0  0  0  0
  185.2520  178.9460  141.1750 C   0  0  1  0  0  3  0  0  0  0  0  0
  186.4480  178.2540  140.4810 C   0  0  0  0  0  2  0  0  0  0  0  0
  183.8000  178.1400  139.2530 C   0  0  0  0  0  0  0  0  0  0  0  0
  182.6170  177.8740  138.6270 N   0  0  0  0  0  0  0  0  0  0  0  0
  183.8990  178.3220  140.7430 C   0  0  0  0  0  2  0  0  0  0  0  0
  183.7570  177.4990  136.5270 C   0  0  0  0  0  3  0  0  0  0  0  0
  184.9610  178.0930  138.5060 C   0  0  0  0  0  0  0  0  0  0  0  0
  182.5710  177.5760  137.2880 C   0  0  0  0  0  3  0  0  0  0  0  0
  188.0280  176.1670  135.6720 C   0  0  0  0  0  3  0  0  0  0  0  0
  189.2620  176.7790  136.3160 C   0  0  2  0  0  3  0  0  0  0  0  0
  189.1740  178.2970  136.5650 C   0  0  0  0  0  2  0  0  0  0  0  0
  186.3680  177.7370  136.7070 C   0  0  1  0  0  3  0  0  0  0  0  0
  188.4250  178.6350  137.8650 C   0  0  0  0  0  2  0  0  0  0  0  0
  187.1750  177.7770  138.0250 C   0  0  1  0  0  3  0  0  0  0  0  0
  184.6570  178.7140  145.6150 C   0  0  0  0  0  2  0  0  0  0  0  0
  185.9420  177.5410  143.1360 C   0  0  0  0  0  2  0  0  0  0  0  0
  188.1130  177.7890  146.8510 C   0  0  0  0  0  0  0  0  0  0  0  0
  186.7960  178.2600  146.7910 C   0  0  0  0  0  3  0  0  0  0  0  0
  186.0650  178.1990  145.6010 C   0  0  0  0  0  0  0  0  0  0  0  0
  185.4070  178.9030  142.6930 C   0  0  2  0  0  3  0  0  0  0  0  0
  187.9780  177.1760  144.5060 C   0  0  0  0  0  3  0  0  0  0  0  0
  186.6640  177.6490  144.4440 C   0  0  0  0  0  0  0  0  0  0  0  0
  188.6990  177.2460  145.7010 C   0  0  0  0  0  3  0  0  0  0  0  0
  184.1660  179.1240  143.3080 O   0  0  0  0  0  0  0  0  0  0  0  0
  184.4410  179.7580  144.5260 C   0  0  0  0  0  2  0  0  0  0  0  0
  188.8690  177.8640  148.1110 C   0  0  0  0  0  0  0  0  0  0  0  0
  188.3050  178.2420  149.1730 O   0  0  0  0  0  1  0  0  0  0  0  0
  190.2160  177.5170  148.1420 O   0  0  0  0  0  0  0  0  0  0  0  0
  190.5180  176.3790  135.5410 C   0  0  0  0  0  3  0  0  0  0  0  0
  191.6840  176.0390  136.4570 C   0  0  0  0  0  1  0  0  0  0  0  0
  190.2340  175.2160  134.6090 C   0  0  0  0  0  1  0  0  0  0  0  0
  1  5  1  0  0  0  0
  3 10  1  0  0  0  0
  4  5  1  6  0  0  0
  4 23  1  0  0  0  0
  6  8  1  0  0  0  0
  7  6  1  0  0  0  0
  8  4  1  0  0  0  0
  9  3  2  0  0  0  0
  9 11  1  0  0  0  0
 10  1  1  0  0  0  0
 10  6  2  0  0  0  0
 11  7  2  0  0  0  0
 12  2  2  0  0  0  0
 12 13  1  0  0  0  0
 13 32  1  6  0  0  0
 13 14  1  0  0  0  0
 14 16  1  0  0  0  0
 15  2  1  1  0  0  0
 15  3  1  0  0  0  0
 15 17  1  0  0  0  0
 17 16  1  6  0  0  0
 17  1  1  0  0  0  0
 19 25  1  0  0  0  0
 20 29  1  0  0  0  0
 21 20  1  0  0  0  0
 22 18  1  0  0  0  0
 22 21  2  0  0  0  0
 23 19  1  6  0  0  0
 23 27  1  0  0  0  0
 24 26  1  0  0  0  0
 25 24  2  0  0  0  0
 25 22  1  0  0  0  0
 26 20  2  0  0  0  0
 27 28  1  0  0  0  0
 28 18  1  0  0  0  0
 29 31  2  0  0  0  0
 29 30  1  0  0  0  0
 32 33  1  0  0  0  0
 34 32  1  0  0  0  0
M  END
>  <MODEL>
4

>  <REMARK>
 VINA RESULT:      -9.7      2.484      4.383
  Name = 
  3 active torsions:
  status: ('A' for Active; 'I' for Inactive)
    1  A    between atoms: C_3  and  C_25
    2  A    between atoms: C_7  and  C_11
    3  A    between atoms: C_8  and  C_18
                            x       y       z     vdW  Elec       q    Type
                         _______ _______ _______ _____ _____    ______ ____

>  <TORSDO>
F 3

$$$$
=
 OpenBabel10262423243D

 34 39  0  0  1  0  0  0  0  0999 V2000
  187.0530  178.3030  140.0670 N   0  0  0  0  0  0  0  0  0  0  0  0
  186.3040  177.2480  136.6690 C   0  0  0  0  0  3  0  0  0  0  0  0
  185.2590  178.4670  138.6150 C   0  0  0  0  0  0  0  0  0  0  0  0
  186.8120  178.6720  142.4790 C   0  0  1  0  0  3  0  0  0  0  0  0
  187.5830  177.9210  141.3700 C   0  0  0  0  0  2  0  0  0  0  0  0
  184.7790  178.6290  140.9580 C   0  0  0  0  0  0  0  0  0  0  0  0
  183.4520  178.7570  140.6680 N   0  0  0  0  0  0  0  0  0  0  0  0
  185.2820  178.4510  142.3650 C   0  0  0  0  0  2  0  0  0  0  0  0
  183.9100  178.6300  138.2960 C   0  0  0  0  0  3  0  0  0  0  0  0
  185.6710  178.5100  139.9100 C   0  0  0  0  0  0  0  0  0  0  0  0
  183.0060  178.7780  139.3700 C   0  0  0  0  0  3  0  0  0  0  0  0
  187.3510  176.6720  136.0450 C   0  0  0  0  0  3  0  0  0  0  0  0
  188.8190  176.8590  136.3910 C   0  0  2  0  0  3  0  0  0  0  0  0
  189.1900  178.2690  136.8910 C   0  0  0  0  0  2  0  0  0  0  0  0
  186.4570  178.2800  137.7490 C   0  0  1  0  0  3  0  0  0  0  0  0
  188.8930  178.4570  138.3880 C   0  0  0  0  0  2  0  0  0  0  0  0
  187.5420  177.8610  138.7660 C   0  0  1  0  0  3  0  0  0  0  0  0
  187.3010  177.1250  146.6620 C   0  0  0  0  0  2  0  0  0  0  0  0
  188.1730  177.0000  143.7650 C   0  0  0  0  0  2  0  0  0  0  0  0
  191.0560  176.7550  146.9580 C   0  0  0  0  0  0  0  0  0  0  0  0
  189.6990  176.8980  147.2680 C   0  0  0  0  0  3  0  0  0  0  0  0
  188.7380  176.9840  146.2560 C   0  0  0  0  0  0  0  0  0  0  0  0
  187.3160  178.2630  143.8620 C   0  0  2  0  0  3  0  0  0  0  0  0
  190.5000  176.7780  144.5960 C   0  0  0  0  0  3  0  0  0  0  0  0
  189.1440  176.9230  144.9020 C   0  0  0  0  0  0  0  0  0  0  0  0
  191.4510  176.6960  145.6160 C   0  0  0  0  0  3  0  0  0  0  0  0
  186.2300  178.0090  144.7120 O   0  0  0  0  0  0  0  0  0  0  0  0
  186.6590  178.3410  146.0030 C   0  0  0  0  0  2  0  0  0  0  0  0
  192.0550  176.6680  148.0350 C   0  0  0  0  0  0  0  0  0  0  0  0
  192.2000  177.6180  148.8510 O   0  0  0  0  0  1  0  0  0  0  0  0
  192.8500  175.5340  148.1630 O   0  0  0  0  0  0  0  0  0  0  0  0
  189.7020  176.3910  135.2330 C   0  0  0  0  0  3  0  0  0  0  0  0
  191.1450  176.1610  135.6570 C   0  0  0  0  0  1  0  0  0  0  0  0
  189.1410  175.1330  134.5960 C   0  0  0  0  0  1  0  0  0  0  0  0
  1  5  1  0  0  0  0
  3 10  1  0  0  0  0
  4  5  1  6  0  0  0
  4 23  1  0  0  0  0
  6  8  1  0  0  0  0
  7  6  1  0  0  0  0
  8  4  1  0  0  0  0
  9  3  2  0  0  0  0
  9 11  1  0  0  0  0
 10  1  1  0  0  0  0
 10  6  2  0  0  0  0
 11  7  2  0  0  0  0
 12 13  1  0  0  0  0
 12  2  2  0  0  0  0
 13 32  1  6  0  0  0
 13 14  1  0  0  0  0
 14 16  1  0  0  0  0
 15  2  1  6  0  0  0
 15  3  1  0  0  0  0
 15 17  1  0  0  0  0
 17 16  1  6  0  0  0
 17  1  1  0  0  0  0
 19 25  1  0  0  0  0
 20 21  1  0  0  0  0
 20 29  1  0  0  0  0
 22 18  1  0  0  0  0
 22 21  2  0  0  0  0
 23 19  1  6  0  0  0
 23 27  1  0  0  0  0
 24 25  2  0  0  0  0
 24 26  1  0  0  0  0
 25 22  1  0  0  0  0
 26 20  2  0  0  0  0
 27 28  1  0  0  0  0
 28 18  1  0  0  0  0
 29 31  2  0  0  0  0
 29 30  1  0  0  0  0
 32 33  1  0  0  0  0
 34 32  1  0  0  0  0
M  END
>  <MODEL>
5

>  <REMARK>
 VINA RESULT:      -9.5      2.252      3.692
  Name = 
  3 active torsions:
  status: ('A' for Active; 'I' for Inactive)
    1  A    between atoms: C_3  and  C_25
    2  A    between atoms: C_7  and  C_11
    3  A    between atoms: C_8  and  C_18
                            x       y       z     vdW  Elec       q    Type
                         _______ _______ _______ _____ _____    ______ ____

>  <TORSDO>
F 3

$$$$
=
 OpenBabel10262423243D

 34 39  0  0  1  0  0  0  0  0999 V2000
  188.8020  178.1660  141.6940 N   0  0  0  0  0  0  0  0  0  0  0  0
  191.7080  176.2650  142.7700 C   0  0  0  0  0  3  0  0  0  0  0  0
  190.6780  177.2550  140.6910 C   0  0  0  0  0  0  0  0  0  0  0  0
  186.8340  178.8460  140.3980 C   0  0  1  0  0  3  0  0  0  0  0  0
  187.3520  178.3080  141.7510 C   0  0  0  0  0  2  0  0  0  0  0  0
  188.7720  177.6360  139.2880 C   0  0  0  0  0  0  0  0  0  0  0  0
  189.4590  177.1170  138.2300 N   0  0  0  0  0  0  0  0  0  0  0  0
  187.3060  177.9660  139.2120 C   0  0  0  0  0  2  0  0  0  0  0  0
  191.4090  176.7530  139.6130 C   0  0  0  0  0  3  0  0  0  0  0  0
  189.4130  177.7190  140.5090 C   0  0  0  0  0  0  0  0  0  0  0  0
  190.7580  176.6960  138.3630 C   0  0  0  0  0  3  0  0  0  0  0  0
  191.7710  176.0920  144.1050 C   0  0  0  0  0  3  0  0  0  0  0  0
  191.0980  176.9600  145.1570 C   0  0  2  0  0  3  0  0  0  0  0  0
  191.0190  178.4580  144.8020 C   0  0  0  0  0  2  0  0  0  0  0  0
  191.0450  177.4450  142.1230 C   0  0  1  0  0  3  0  0  0  0  0  0
  189.8260  178.7800  143.8860 C   0  0  0  0  0  2  0  0  0  0  0  0
  189.6780  177.7410  142.7810 C   0  0  1  0  0  3  0  0  0  0  0  0
  182.4380  178.6730  139.5240 C   0  0  0  0  0  2  0  0  0  0  0  0
  184.7070  177.9800  141.4070 C   0  0  0  0  0  2  0  0  0  0  0  0
  180.9070  179.3380  142.9210 C   0  0  0  0  0  0  0  0  0  0  0  0
  181.0930  179.2190  141.5390 C   0  0  0  0  0  3  0  0  0  0  0  0
  182.3140  178.7850  141.0140 C   0  0  0  0  0  0  0  0  0  0  0  0
  185.3130  178.9690  140.4100 C   0  0  2  0  0  3  0  0  0  0  0  0
  183.1840  178.5760  143.2730 C   0  0  0  0  0  3  0  0  0  0  0  0
  183.3730  178.4590  141.8930 C   0  0  0  0  0  0  0  0  0  0  0  0
  181.9600  179.0130  143.7850 C   0  0  0  0  0  3  0  0  0  0  0  0
  184.8000  178.6960  139.1340 O   0  0  0  0  0  0  0  0  0  0  0  0
  183.6350  179.4630  139.0080 C   0  0  0  0  0  2  0  0  0  0  0  0
  179.6160  179.7980  143.4560 C   0  0  0  0  0  0  0  0  0  0  0  0
  178.9610  180.6960  142.8620 O   0  0  0  0  0  0  0  0  0  0  0  0
  179.1040  179.2440  144.6250 O   0  0  0  0  0  1  0  0  0  0  0  0
  191.7230  176.7100  146.5310 C   0  0  0  0  0  3  0  0  0  0  0  0
  190.7220  176.8730  147.6640 C   0  0  0  0  0  1  0  0  0  0  0  0
  192.3610  175.3350  146.5950 C   0  0  0  0  0  1  0  0  0  0  0  0
  1  5  1  0  0  0  0
  1 17  1  0  0  0  0
  2 12  2  0  0  0  0
  3 15  1  0  0  0  0
  4  8  1  6  0  0  0
  4 23  1  0  0  0  0
  4  5  1  0  0  0  0
  6 10  2  0  0  0  0
  7 11  2  0  0  0  0
  7  6  1  0  0  0  0
  8  6  1  0  0  0  0
  9  3  2  0  0  0  0
 10  3  1  0  0  0  0
 10  1  1  0  0  0  0
 11  9  1  0  0  0  0
 12 13  1  0  0  0  0
 13 32  1  1  0  0  0
 14 13  1  0  0  0  0
 15  2  1  1  0  0  0
 15 17  1  0  0  0  0
 16 14  1  0  0  0  0
 17 16  1  1  0  0  0
 18 22  1  0  0  0  0
 19 25  1  0  0  0  0
 20 29  1  0  0  0  0
 20 26  1  0  0  0  0
 21 20  2  0  0  0  0
 22 21  1  0  0  0  0
 22 25  2  0  0  0  0
 23 19  1  1  0  0  0
 24 26  2  0  0  0  0
 25 24  1  0  0  0  0
 27 23  1  0  0  0  0
 28 27  1  0  0  0  0
 28 18  1  0  0  0  0
 29 31  1  0  0  0  0
 30 29  2  0  0  0  0
 32 34  1  0  0  0  0
 32 33  1  0  0  0  0
M  END
>  <MODEL>
6

>  <REMARK>
 VINA RESULT:      -9.3      4.081      9.417
  Name = 
  3 active torsions:
  status: ('A' for Active; 'I' for Inactive)
    1  A    between atoms: C_3  and  C_25
    2  A    between atoms: C_7  and  C_11
    3  A    between atoms: C_8  and  C_18
                            x       y       z     vdW  Elec       q    Type
                         _______ _______ _______ _____ _____    ______ ____

>  <TORSDO>
F 3

$$$$
=
 OpenBabel10262423243D

 34 39  0  0  1  0  0  0  0  0999 V2000
  185.9170  177.7970  143.0800 N   0  0  0  0  0  0  0  0  0  0  0  0
  188.6250  178.0600  145.4920 C   0  0  0  0  0  3  0  0  0  0  0  0
  186.1060  177.9630  145.3800 C   0  0  0  0  0  0  0  0  0  0  0  0
  183.8100  178.2510  141.9110 C   0  0  1  0  0  3  0  0  0  0  0  0
  185.3530  178.2860  141.8280 C   0  0  0  0  0  2  0  0  0  0  0  0
  184.0340  178.6740  144.4060 C   0  0  0  0  0  0  0  0  0  0  0  0
  183.5780  179.0100  145.6460 N   0  0  0  0  0  0  0  0  0  0  0  0
  183.2840  179.0240  143.1490 C   0  0  0  0  0  2  0  0  0  0  0  0
  185.6440  178.2700  146.6610 C   0  0  0  0  0  3  0  0  0  0  0  0
  185.2980  178.1250  144.2990 C   0  0  0  0  0  0  0  0  0  0  0  0
  184.3420  178.8040  146.7670 C   0  0  0  0  0  3  0  0  0  0  0  0
  189.8490  177.9690  144.9350 C   0  0  0  0  0  3  0  0  0  0  0  0
  190.1850  177.3170  143.6040 C   0  0  2  0  0  3  0  0  0  0  0  0
  189.3330  176.0790  143.2590 C   0  0  0  0  0  2  0  0  0  0  0  0
  187.4060  177.4030  144.9130 C   0  0  1  0  0  3  0  0  0  0  0  0
  187.9750  176.4550  142.6430 C   0  0  0  0  0  2  0  0  0  0  0  0
  187.3330  177.6220  143.3850 C   0  0  1  0  0  3  0  0  0  0  0  0
  182.2360  178.9010  137.7610 C   0  0  0  0  0  2  0  0  0  0  0  0
  181.6600  178.7820  140.7310 C   0  0  0  0  0  2  0  0  0  0  0  0
  179.8460  181.7970  138.2420 C   0  0  0  0  0  0  0  0  0  0  0  0
  180.7160  180.8620  137.6670 C   0  0  0  0  0  3  0  0  0  0  0  0
  181.3240  179.8740  138.4460 C   0  0  0  0  0  0  0  0  0  0  0  0
  183.1850  178.7960  140.6290 C   0  0  2  0  0  3  0  0  0  0  0  0
  180.1820  180.7490  140.4050 C   0  0  0  0  0  3  0  0  0  0  0  0
  181.0540  179.8170  139.8330 C   0  0  0  0  0  0  0  0  0  0  0  0
  179.5830  181.7340  139.6160 C   0  0  0  0  0  3  0  0  0  0  0  0
  183.5720  178.0070  139.5350 O   0  0  0  0  0  0  0  0  0  0  0  0
  183.6060  178.8650  138.4280 C   0  0  0  0  0  2  0  0  0  0  0  0
  179.2170  182.8320  137.4070 C   0  0  0  0  0  0  0  0  0  0  0  0
  178.9310  182.5950  136.2030 O   0  0  0  0  0  0  0  0  0  0  0  0
  178.9310  184.0840  137.9400 O   0  0  0  0  0  1  0  0  0  0  0  0
  191.6870  177.0450  143.5090 C   0  0  0  0  0  3  0  0  0  0  0  0
  192.0570  175.6460  143.9770 C   0  0  0  0  0  1  0  0  0  0  0  0
  192.1920  177.2710  142.0960 C   0  0  0  0  0  1  0  0  0  0  0  0
  1 17  1  0  0  0  0
  1 10  1  0  0  0  0
  3  9  1  0  0  0  0
  4  5  1  6  0  0  0
  4  8  1  0  0  0  0
  5  1  1  0  0  0  0
  6  7  2  0  0  0  0
  7 11  1  0  0  0  0
  8  6  1  0  0  0  0
  9 11  2  0  0  0  0
 10  6  1  0  0  0  0
 10  3  2  0  0  0  0
 12  2  2  0  0  0  0
 13 32  1  1  0  0  0
 13 12  1  0  0  0  0
 14 13  1  0  0  0  0
 15  3  1  0  0  0  0
 15  2  1  1  0  0  0
 16 14  1  0  0  0  0
 17 16  1  6  0  0  0
 17 15  1  0  0  0  0
 18 28  1  0  0  0  0
 18 22  1  0  0  0  0
 20 26  1  0  0  0  0
 21 20  2  0  0  0  0
 21 22  1  0  0  0  0
 22 25  2  0  0  0  0
 23 19  1  1  0  0  0
 23  4  1  0  0  0  0
 25 24  1  0  0  0  0
 25 19  1  0  0  0  0
 26 24  2  0  0  0  0
 27 23  1  0  0  0  0
 28 27  1  0  0  0  0
 29 31  1  0  0  0  0
 29 20  1  0  0  0  0
 30 29  2  0  0  0  0
 32 33  1  0  0  0  0
 34 32  1  0  0  0  0
M  END
>  <MODEL>
7

>  <REMARK>
 VINA RESULT:      -9.2      3.963      9.435
  Name = 
  3 active torsions:
  status: ('A' for Active; 'I' for Inactive)
    1  A    between atoms: C_3  and  C_25
    2  A    between atoms: C_7  and  C_11
    3  A    between atoms: C_8  and  C_18
                            x       y       z     vdW  Elec       q    Type
                         _______ _______ _______ _____ _____    ______ ____

>  <TORSDO>
F 3

$$$$
=
 OpenBabel10262423243D

 34 39  0  0  1  0  0  0  0  0999 V2000
  189.3890  177.8760  140.5770 N   0  0  0  0  0  0  0  0  0  0  0  0
  191.9530  176.5900  142.8100 C   0  0  0  0  0  3  0  0  0  0  0  0
  191.6140  177.2680  140.4030 C   0  0  0  0  0  0  0  0  0  0  0  0
  187.9490  178.1210  138.6060 C   0  0  1  0  0  3  0  0  0  0  0  0
  188.0130  177.7560  140.1070 C   0  0  0  0  0  2  0  0  0  0  0  0
  190.3160  177.2250  138.3890 C   0  0  0  0  0  0  0  0  0  0  0  0
  191.4110  176.7850  137.7040 N   0  0  0  0  0  0  0  0  0  0  0  0
  188.9460  177.2800  137.7680 C   0  0  0  0  0  2  0  0  0  0  0  0
  192.7540  176.8510  139.7140 C   0  0  0  0  0  3  0  0  0  0  0  0
  190.4480  177.4850  139.7390 C   0  0  0  0  0  0  0  0  0  0  0  0
  192.6200  176.6120  138.3300 C   0  0  0  0  0  3  0  0  0  0  0  0
  191.5500  176.5010  144.0930 C   0  0  0  0  0  3  0  0  0  0  0  0
  190.4190  177.2860  144.7370 C   0  0  2  0  0  3  0  0  0  0  0  0
  190.2500  178.7250  144.2090 C   0  0  0  0  0  2  0  0  0  0  0  0
  191.4020  177.5960  141.8410 C   0  0  1  0  0  3  0  0  0  0  0  0
  189.4390  178.7780  142.9030 C   0  0  0  0  0  2  0  0  0  0  0  0
  189.8620  177.6730  141.9420 C   0  0  1  0  0  3  0  0  0  0  0  0
  184.0120  176.6380  137.0510 C   0  0  0  0  0  2  0  0  0  0  0  0
  185.5110  178.1620  139.1960 C   0  0  0  0  0  2  0  0  0  0  0  0
  181.7170  179.5740  137.7170 C   0  0  0  0  0  0  0  0  0  0  0  0
  182.2630  178.3950  137.1950 C   0  0  0  0  0  3  0  0  0  0  0  0
  183.4930  177.9110  137.6490 C   0  0  0  0  0  0  0  0  0  0  0  0
  186.5280  177.9670  138.0710 C   0  0  2  0  0  3  0  0  0  0  0  0
  183.6440  179.7960  139.1750 C   0  0  0  0  0  3  0  0  0  0  0  0
  184.1930  178.6210  138.6530 C   0  0  0  0  0  0  0  0  0  0  0  0
  182.4150  180.2710  138.7110 C   0  0  0  0  0  3  0  0  0  0  0  0
  186.3580  176.6860  137.5240 O   0  0  0  0  0  0  0  0  0  0  0  0
  185.4190  176.8230  136.4940 C   0  0  0  0  0  2  0  0  0  0  0  0
  180.4220  180.0690  137.2260 C   0  0  0  0  0  0  0  0  0  0  0  0
  179.3480  179.7060  137.7760 O   0  0  0  0  0  1  0  0  0  0  0  0
  180.3710  180.9460  136.1470 O   0  0  0  0  0  0  0  0  0  0  0  0
  190.5310  177.2260  146.2610 C   0  0  0  0  0  3  0  0  0  0  0  0
  189.2070  176.8850  146.9290 C   0  0  0  0  0  1  0  0  0  0  0  0
  191.5970  176.2350  146.6880 C   0  0  0  0  0  1  0  0  0  0  0  0
  1 17  1  0  0  0  0
  2 12  2  0  0  0  0
  3 15  1  0  0  0  0
  4  8  1  6  0  0  0
  4  5  1  0  0  0  0
  5  1  1  0  0  0  0
  6 10  2  0  0  0  0
  7 11  2  0  0  0  0
  7  6  1  0  0  0  0
  8  6  1  0  0  0  0
  9  3  2  0  0  0  0
 10  3  1  0  0  0  0
 10  1  1  0  0  0  0
 11  9  1  0  0  0  0
 12 13  1  0  0  0  0
 13 32  1  1  0  0  0
 14 13  1  0  0  0  0
 15 17  1  0  0  0  0
 15  2  1  1  0  0  0
 16 14  1  0  0  0  0
 17 16  1  1  0  0  0
 18 22  1  0  0  0  0
 20 26  1  0  0  0  0
 21 22  1  0  0  0  0
 21 20  2  0  0  0  0
 22 25  2  0  0  0  0
 23  4  1  0  0  0  0
 23 19  1  1  0  0  0
 25 24  1  0  0  0  0
 25 19  1  0  0  0  0
 26 24  2  0  0  0  0
 27 23  1  0  0  0  0
 28 18  1  0  0  0  0
 28 27  1  0  0  0  0
 29 20  1  0  0  0  0
 29 30  1  0  0  0  0
 31 29  2  0  0  0  0
 32 34  1  0  0  0  0
 32 33  1  0  0  0  0
M  END
>  <MODEL>
8

>  <REMARK>
 VINA RESULT:      -8.5      4.692     10.601
  Name = 
  3 active torsions:
  status: ('A' for Active; 'I' for Inactive)
    1  A    between atoms: C_3  and  C_25
    2  A    between atoms: C_7  and  C_11
    3  A    between atoms: C_8  and  C_18
                            x       y       z     vdW  Elec       q    Type
                         _______ _______ _______ _____ _____    ______ ____

>  <TORSDO>
F 3

$$$$
=
 OpenBabel10262423243D

 34 39  0  0  1  0  0  0  0  0999 V2000
  189.0410  177.8550  141.4810 N   0  0  0  0  0  0  0  0  0  0  0  0
  187.0050  177.8780  144.4920 C   0  0  0  0  0  3  0  0  0  0  0  0
  189.4050  178.1070  143.7520 C   0  0  0  0  0  0  0  0  0  0  0  0
  190.8590  177.3230  139.9230 C   0  0  1  0  0  3  0  0  0  0  0  0
  189.3500  177.1790  140.2270 C   0  0  0  0  0  2  0  0  0  0  0  0
  191.2600  177.3580  142.4310 C   0  0  0  0  0  0  0  0  0  0  0  0
  192.0220  177.2860  143.5590 N   0  0  0  0  0  0  0  0  0  0  0  0
  191.7330  176.8280  141.1040 C   0  0  0  0  0  2  0  0  0  0  0  0
  190.1790  178.0720  144.9130 C   0  0  0  0  0  3  0  0  0  0  0  0
  189.9560  177.7980  142.5480 C   0  0  0  0  0  0  0  0  0  0  0  0
  191.5190  177.6480  144.7830 C   0  0  0  0  0  3  0  0  0  0  0  0
  185.6820  177.7890  144.2450 C   0  0  0  0  0  3  0  0  0  0  0  0
  184.9830  178.1610  142.9480 C   0  0  2  0  0  3  0  0  0  0  0  0
  185.5980  179.3640  142.2050 C   0  0  0  0  0  2  0  0  0  0  0  0
  187.9820  178.4900  143.5320 C   0  0  1  0  0  3  0  0  0  0  0  0
  186.8100  178.9640  141.3460 C   0  0  0  0  0  2  0  0  0  0  0  0
  187.7230  177.9970  142.0900 C   0  0  1  0  0  3  0  0  0  0  0  0
  191.4730  176.0030  135.6790 C   0  0  0  0  0  2  0  0  0  0  0  0
  192.7170  176.7440  138.3390 C   0  0  0  0  0  2  0  0  0  0  0  0
  194.2510  173.4550  136.0160 C   0  0  0  0  0  0  0  0  0  0  0  0
  193.1610  174.1870  135.5330 C   0  0  0  0  0  3  0  0  0  0  0  0
  192.6360  175.2580  136.2630 C   0  0  0  0  0  0  0  0  0  0  0  0
  191.2250  176.5900  138.6340 C   0  0  2  0  0  3  0  0  0  0  0  0
  194.3090  174.8740  137.9830 C   0  0  0  0  0  3  0  0  0  0  0  0
  193.2180  175.6060  137.5040 C   0  0  0  0  0  0  0  0  0  0  0  0
  194.8230  173.8050  137.2450 C   0  0  0  0  0  3  0  0  0  0  0  0
  190.4950  177.1170  137.5590 O   0  0  0  0  0  0  0  0  0  0  0  0
  190.3060  176.0600  136.6590 C   0  0  0  0  0  2  0  0  0  0  0  0
  194.7900  172.3300  135.2350 C   0  0  0  0  0  0  0  0  0  0  0  0
  194.0270  171.4160  134.8200 O   0  0  0  0  0  0  0  0  0  0  0  0
  196.1490  172.2630  134.9470 O   0  0  0  0  0  1  0  0  0  0  0  0
  183.4790  178.3170  143.1810 C   0  0  0  0  0  3  0  0  0  0  0  0
  183.1580  179.3780  144.2220 C   0  0  0  0  0  1  0  0  0  0  0  0
  182.7580  178.6280  141.8830 C   0  0  0  0  0  1  0  0  0  0  0  0
  1 17  1  0  0  0  0
  1 10  1  0  0  0  0
  3  9  1  0  0  0  0
  4  5  1  1  0  0  0
  4  8  1  0  0  0  0
  5  1  1  0  0  0  0
  6 10  1  0  0  0  0
  6  7  2  0  0  0  0
  7 11  1  0  0  0  0
  8  6  1  0  0  0  0
 10  3  2  0  0  0  0
 11  9  2  0  0  0  0
 12  2  2  0  0  0  0
 13 32  1  1  0  0  0
 13 12  1  0  0  0  0
 14 13  1  0  0  0  0
 15  3  1  0  0  0  0
 15  2  1  1  0  0  0
 16 14  1  0  0  0  0
 17 16  1  6  0  0  0
 17 15  1  0  0  0  0
 18 22  1  0  0  0  0
 18 28  1  0  0  0  0
 20 26  1  0  0  0  0
 21 20  2  0  0  0  0
 21 22  1  0  0  0  0
 22 25  2  0  0  0  0
 23 19  1  6  0  0  0
 23  4  1  0  0  0  0
 25 24  1  0  0  0  0
 25 19  1  0  0  0  0
 26 24  2  0  0  0  0
 27 23  1  0  0  0  0
 28 27  1  0  0  0  0
 29 20  1  0  0  0  0
 30 29  2  0  0  0  0
 31 29  1  0  0  0  0
 32 33  1  0  0  0  0
 34 32  1  0  0  0  0
M  END
>  <MODEL>
9

>  <REMARK>
 VINA RESULT:      -8.5      6.213      9.539
  Name = 
  3 active torsions:
  status: ('A' for Active; 'I' for Inactive)
    1  A    between atoms: C_3  and  C_25
    2  A    between atoms: C_7  and  C_11
    3  A    between atoms: C_8  and  C_18
                            x       y       z     vdW  Elec       q    Type
                         _______ _______ _______ _____ _____    ______ ____

>  <TORSDO>
F 3

$$$$
