=
 OpenBabel10262422273D

 43 48  0  0  1  0  0  0  0  0999 V2000
  186.7380  178.1280  146.6020 C   0  0  0  0  0  0  0  0  0  0  0  0
  183.4370  178.6880  142.8660 C   0  0  0  0  0  0  0  0  0  0  0  0
  184.7380  178.5900  145.3170 C   0  0  0  0  0  0  0  0  0  0  0  0
  187.4170  177.7700  145.4300 C   0  0  0  0  0  3  0  0  0  0  0  0
  187.5670  178.0670  148.1410 Cl  0  0  0  0  0  0  0  0  0  0  0  0
  185.4280  178.2240  144.1310 C   0  0  0  0  0  0  0  0  0  0  0  0
  185.4020  178.5380  146.5450 C   0  0  0  0  0  3  0  0  0  0  0  0
  186.7650  177.8180  144.1930 C   0  0  0  0  0  3  0  0  0  0  0  0
  185.2090  178.0140  141.6310 N   0  0  0  0  0  2  0  0  0  0  0  0
  184.7290  178.2910  142.9260 C   0  0  0  0  0  0  0  0  0  0  0  0
  182.7300  179.0650  144.0100 C   0  0  0  0  0  3  0  0  0  0  0  0
  183.0130  178.6840  141.4380 C   0  0  1  0  0  3  0  0  0  0  0  0
  184.2010  178.2420  140.6710 N   0  0  0  0  0  0  0  0  0  0  0  0
  183.3940  179.0080  145.2490 C   0  0  0  0  0  3  0  0  0  0  0  0
  181.8770  177.6960  141.2340 C   0  0  0  0  0  2  0  0  0  0  0  0
  180.6570  178.3990  141.0380 O   0  0  0  0  0  0  0  0  0  0  0  0
  181.3730  179.9960  137.7860 C   0  0  0  0  0  3  0  0  0  0  0  0
  179.6030  181.6960  139.5910 C   0  0  0  0  0  3  0  0  0  0  0  0
  180.3200  182.0930  138.5410 C   0  0  0  0  0  3  0  0  0  0  0  0
  180.9250  179.1000  138.6630 C   0  0  0  0  0  3  0  0  0  0  0  0
  180.5030  179.3830  140.0590 C   0  0  0  0  0  0  0  0  0  0  0  0
  181.5920  181.4310  138.1280 C   0  0  0  0  0  2  0  0  0  0  0  0
  179.8990  180.5210  140.4340 C   0  0  0  0  0  3  0  0  0  0  0  0
  184.6310  179.3800  139.8620 C   0  0  0  0  0  2  0  0  0  0  0  0
  184.8830  179.0280  138.3890 C   0  0  1  0  0  3  0  0  0  0  0  0
  186.0050  178.0040  138.3160 C   0  0  1  0  0  3  0  0  0  0  0  0
  184.5840  177.5820  138.0080 C   0  0  0  0  0  2  0  0  0  0  0  0
  186.8630  178.1340  137.0420 C   0  0  1  0  0  3  0  0  0  0  0  0
  187.2880  179.4500  136.8070 O   0  0  0  0  0  1  0  0  0  0  0  0
  187.6570  175.9220  137.5330 O   0  0  0  0  0  1  0  0  0  0  0  0
  188.0650  177.1690  137.0370 C   0  0  1  0  0  0  0  0  0  0  0  0
  188.6400  177.0350  135.6100 C   0  0  0  0  0  2  0  0  0  0  0  0
  189.9170  174.9890  134.9560 C   0  0  0  0  0  1  0  0  0  0  0  0
  188.5470  175.6340  135.0130 C   0  0  0  0  0  2  0  0  0  0  0  0
  189.1010  177.7340  137.9120 N   0  0  0  0  0  2  0  0  0  0  0  0
  189.9860  176.6870  138.4250 C   0  0  1  0  0  3  0  0  0  0  0  0
  191.2530  176.8400  137.8580 O   0  0  0  0  0  1  0  0  0  0  0  0
  190.0790  176.7790  139.9470 C   0  0  0  0  0  3  0  0  0  0  0  0
  189.1980  178.2510  141.8670 C   0  0  0  0  0  2  0  0  0  0  0  0
  191.5690  177.3910  141.9040 C   0  0  0  0  0  2  0  0  0  0  0  0
  190.2320  177.4520  142.6560 C   0  0  0  0  0  2  0  0  0  0  0  0
  191.4140  177.3910  140.3770 C   0  0  0  0  0  2  0  0  0  0  0  0
  188.9000  177.5910  140.5120 C   0  0  0  0  0  2  0  0  0  0  0  0
  1  5  1  0  0  0  0
  2 10  2  0  0  0  0
  2 11  1  0  0  0  0
  3  7  2  0  0  0  0
  4  1  2  0  0  0  0
  6  8  2  0  0  0  0
  6  3  1  0  0  0  0
  7  1  1  0  0  0  0
  8  4  1  0  0  0  0
  9 10  1  0  0  0  0
 10  6  1  0  0  0  0
 11 14  2  0  0  0  0
 12 15  1  1  0  0  0
 12  2  1  0  0  0  0
 13 12  1  0  0  0  0
 13  9  1  0  0  0  0
 14  3  1  0  0  0  0
 16 15  1  0  0  0  0
 17 22  1  0  0  0  0
 17 20  2  0  0  0  0
 18 23  1  0  0  0  0
 19 18  2  0  0  0  0
 20 21  1  0  0  0  0
 21 23  2  0  0  0  0
 21 16  1  0  0  0  0
 22 19  1  0  0  0  0
 24 13  1  0  0  0  0
 25 24  1  1  0  0  0
 26 28  1  6  0  0  0
 26 25  1  0  0  0  0
 27 26  1  0  0  0  0
 27 25  1  0  0  0  0
 28 29  1  1  0  0  0
 31 28  1  0  0  0  0
 31 30  1  1  0  0  0
 31 35  1  0  0  0  0
 32 31  1  0  0  0  0
 33 34  1  0  0  0  0
 34 32  1  0  0  0  0
 35 36  1  0  0  0  0
 36 37  1  6  0  0  0
 36 38  1  0  0  0  0
 38 42  1  0  0  0  0
 38 43  1  0  0  0  0
 39 41  1  0  0  0  0
 40 41  1  0  0  0  0
 42 40  1  0  0  0  0
 43 39  1  0  0  0  0
M  END
>  <MODEL>
1

>  <REMARK>
 VINA RESULT:      -8.5      0.000      0.000
  Name = 
  12 active torsions:
  status: ('A' for Active; 'I' for Inactive)
    1  A    between atoms: C_1  and  O_28
    2  A    between atoms: C_1  and  C_34
    3  A    between atoms: C_2  and  C_13
    4  A    between atoms: C_4  and  C_12
    5  A    between atoms: C_4  and  C_15
    6  A    between atoms: C_4  and  N_22
    7  A    between atoms: C_6  and  C_12
    8  A    between atoms: C_11  and  C_14
    9  A    between atoms: C_13  and  N_38
   10  A    between atoms: C_14  and  N_22
   11  A    between atoms: C_15  and  C_42
   12  A    between atoms: O_28  and  C_35
                            x       y       z     vdW  Elec       q    Type
                         _______ _______ _______ _____ _____    ______ ____

>  <TORSDO>
F 12

$$$$
=
 OpenBabel10262422273D

 43 48  0  0  1  0  0  0  0  0999 V2000
  187.4080  178.1320  147.6490 C   0  0  0  0  0  0  0  0  0  0  0  0
  185.9440  178.0000  142.8530 C   0  0  0  0  0  0  0  0  0  0  0  0
  187.2740  177.6960  145.2700 C   0  0  0  0  0  0  0  0  0  0  0  0
  186.2160  178.8650  147.5900 C   0  0  0  0  0  3  0  0  0  0  0  0
  188.2370  177.9420  149.1770 Cl  0  0  0  0  0  0  0  0  0  0  0  0
  186.0670  178.4420  145.2120 C   0  0  0  0  0  0  0  0  0  0  0  0
  187.9360  177.5480  146.4920 C   0  0  0  0  0  3  0  0  0  0  0  0
  185.5430  179.0210  146.3730 C   0  0  0  0  0  3  0  0  0  0  0  0
  184.2260  179.2190  143.6800 N   0  0  0  0  0  2  0  0  0  0  0  0
  185.4380  178.5650  143.9740 C   0  0  0  0  0  0  0  0  0  0  0  0
  187.1230  177.2520  142.8740 C   0  0  0  0  0  3  0  0  0  0  0  0
  185.0130  178.2880  141.7250 C   0  0  1  0  0  3  0  0  0  0  0  0
  183.9080  179.0810  142.3120 N   0  0  0  0  0  0  0  0  0  0  0  0
  187.7940  177.1060  144.1010 C   0  0  0  0  0  3  0  0  0  0  0  0
  185.7210  179.1100  140.6610 C   0  0  0  0  0  2  0  0  0  0  0  0
  185.5010  178.5310  139.3820 O   0  0  0  0  0  0  0  0  0  0  0  0
  189.0420  178.3850  138.3420 C   0  0  0  0  0  3  0  0  0  0  0  0
  187.1110  177.5690  136.1320 C   0  0  0  0  0  3  0  0  0  0  0  0
  188.3790  177.9580  136.0080 C   0  0  0  0  0  3  0  0  0  0  0  0
  187.9310  178.1170  139.0260 C   0  0  0  0  0  3  0  0  0  0  0  0
  186.5430  178.2160  138.5060 C   0  0  0  0  0  0  0  0  0  0  0  0
  189.0320  178.9140  136.9480 C   0  0  0  0  0  2  0  0  0  0  0  0
  186.2060  177.9440  137.2370 C   0  0  0  0  0  3  0  0  0  0  0  0
  182.7060  178.2550  142.2360 C   0  0  0  0  0  2  0  0  0  0  0  0
  181.4480  179.0330  141.8230 C   0  0  1  0  0  3  0  0  0  0  0  0
  180.8360  178.3590  140.6050 C   0  0  1  0  0  3  0  0  0  0  0  0
  180.1390  178.2610  141.9460 C   0  0  0  0  0  2  0  0  0  0  0  0
  180.1320  179.3480  139.6540 C   0  0  1  0  0  3  0  0  0  0  0  0
  179.9760  180.6240  140.2180 O   0  0  0  0  0  1  0  0  0  0  0  0
  182.0500  180.1160  138.4320 O   0  0  0  0  0  1  0  0  0  0  0  0
  180.8270  179.4460  138.2820 C   0  0  1  0  0  0  0  0  0  0  0  0
  181.0390  178.0370  137.6870 C   0  0  0  0  0  2  0  0  0  0  0  0
  182.7380  177.5600  135.9170 C   0  0  0  0  0  1  0  0  0  0  0  0
  182.4940  177.6730  137.4090 C   0  0  0  0  0  2  0  0  0  0  0  0
  179.9520  180.2110  137.3850 N   0  0  0  0  0  2  0  0  0  0  0  0
  180.7330  181.0220  136.4500 C   0  0  1  0  0  3  0  0  0  0  0  0
  180.6940  180.4290  135.1860 O   0  0  0  0  0  1  0  0  0  0  0  0
  180.1640  182.4370  136.3830 C   0  0  0  0  0  3  0  0  0  0  0  0
  180.9010  184.8020  135.6810 C   0  0  0  0  0  2  0  0  0  0  0  0
  179.4770  184.4680  137.7360 C   0  0  0  0  0  2  0  0  0  0  0  0
  179.5950  185.1740  136.3780 C   0  0  0  0  0  2  0  0  0  0  0  0
  180.1450  183.0870  137.7680 C   0  0  0  0  0  2  0  0  0  0  0  0
  180.9670  183.2960  135.3890 C   0  0  0  0  0  2  0  0  0  0  0  0
  1  5  1  0  0  0  0
  2 11  2  0  0  0  0
  2 10  1  0  0  0  0
  3  7  1  0  0  0  0
  4  1  1  0  0  0  0
  6  3  1  0  0  0  0
  6  8  1  0  0  0  0
  7  1  2  0  0  0  0
  8  4  2  0  0  0  0
  9 10  1  0  0  0  0
 10  6  2  0  0  0  0
 11 14  1  0  0  0  0
 12 15  1  6  0  0  0
 12 13  1  0  0  0  0
 12  2  1  0  0  0  0
 13  9  1  0  0  0  0
 14  3  2  0  0  0  0
 16 15  1  0  0  0  0
 17 20  2  0  0  0  0
 18 23  1  0  0  0  0
 19 18  2  0  0  0  0
 19 22  1  0  0  0  0
 21 20  1  0  0  0  0
 21 16  1  0  0  0  0
 22 17  1  0  0  0  0
 23 21  2  0  0  0  0
 24 13  1  0  0  0  0
 25 27  1  0  0  0  0
 25 24  1  1  0  0  0
 26 28  1  6  0  0  0
 26 25  1  0  0  0  0
 26 27  1  0  0  0  0
 28 29  1  1  0  0  0
 31 30  1  1  0  0  0
 31 28  1  0  0  0  0
 32 31  1  0  0  0  0
 33 34  1  0  0  0  0
 34 32  1  0  0  0  0
 35 31  1  0  0  0  0
 36 37  1  6  0  0  0
 36 35  1  0  0  0  0
 38 36  1  0  0  0  0
 38 42  1  0  0  0  0
 39 41  1  0  0  0  0
 40 42  1  0  0  0  0
 41 40  1  0  0  0  0
 43 39  1  0  0  0  0
 43 38  1  0  0  0  0
M  END
>  <MODEL>
2

>  <REMARK>
 VINA RESULT:      -8.5      2.412      7.519
  Name = 
  12 active torsions:
  status: ('A' for Active; 'I' for Inactive)
    1  A    between atoms: C_1  and  O_28
    2  A    between atoms: C_1  and  C_34
    3  A    between atoms: C_2  and  C_13
    4  A    between atoms: C_4  and  C_12
    5  A    between atoms: C_4  and  C_15
    6  A    between atoms: C_4  and  N_22
    7  A    between atoms: C_6  and  C_12
    8  A    between atoms: C_11  and  C_14
    9  A    between atoms: C_13  and  N_38
   10  A    between atoms: C_14  and  N_22
   11  A    between atoms: C_15  and  C_42
   12  A    between atoms: O_28  and  C_35
                            x       y       z     vdW  Elec       q    Type
                         _______ _______ _______ _____ _____    ______ ____

>  <TORSDO>
F 12

$$$$
=
 OpenBabel10262422273D

 43 48  0  0  1  0  0  0  0  0999 V2000
  193.8480  175.4580  136.1370 C   0  0  0  0  0  0  0  0  0  0  0  0
  191.1160  177.0960  140.0110 C   0  0  0  0  0  0  0  0  0  0  0  0
  193.1470  176.4360  138.2380 C   0  0  0  0  0  0  0  0  0  0  0  0
  192.5160  175.1490  135.8270 C   0  0  0  0  0  3  0  0  0  0  0  0
  195.1210  175.0410  135.0110 Cl  0  0  0  0  0  0  0  0  0  0  0  0
  191.7990  176.1200  137.9230 C   0  0  0  0  0  0  0  0  0  0  0  0
  194.1620  176.1000  137.3380 C   0  0  0  0  0  3  0  0  0  0  0  0
  191.4900  175.4810  136.7180 C   0  0  0  0  0  3  0  0  0  0  0  0
  189.4230  176.2960  138.7400 N   0  0  0  0  0  2  0  0  0  0  0  0
  190.8160  176.4730  138.8470 C   0  0  0  0  0  0  0  0  0  0  0  0
  192.4280  177.4310  140.3490 C   0  0  0  0  0  3  0  0  0  0  0  0
  189.8430  177.3620  140.7390 C   0  0  1  0  0  3  0  0  0  0  0  0
  188.7680  176.8270  139.8710 N   0  0  0  0  0  0  0  0  0  0  0  0
  193.4530  177.0890  139.4480 C   0  0  0  0  0  3  0  0  0  0  0  0
  189.8380  176.6270  142.0680 C   0  0  0  0  0  2  0  0  0  0  0  0
  190.1620  177.5290  143.1180 O   0  0  0  0  0  0  0  0  0  0  0  0
  188.8650  177.2320  146.5630 C   0  0  0  0  0  3  0  0  0  0  0  0
  191.7640  176.3380  146.2940 C   0  0  0  0  0  3  0  0  0  0  0  0
  191.1150  176.6860  147.4040 C   0  0  0  0  0  3  0  0  0  0  0  0
  188.9750  177.0330  145.2500 C   0  0  0  0  0  3  0  0  0  0  0  0
  190.2270  177.1370  144.4570 C   0  0  0  0  0  0  0  0  0  0  0  0
  190.0020  177.6790  147.4180 C   0  0  0  0  0  2  0  0  0  0  0  0
  191.4350  176.7990  144.9310 C   0  0  0  0  0  3  0  0  0  0  0  0
  187.9850  177.9720  139.4110 C   0  0  0  0  0  2  0  0  0  0  0  0
  186.9400  177.6140  138.3440 C   0  0  1  0  0  3  0  0  0  0  0  0
  185.9140  178.7340  138.2710 C   0  0  1  0  0  3  0  0  0  0  0  0
  186.9010  178.5480  137.1380 C   0  0  0  0  0  2  0  0  0  0  0  0
  184.5010  178.2400  137.9000 C   0  0  1  0  0  3  0  0  0  0  0  0
  184.4100  176.8400  137.8640 O   0  0  0  0  0  1  0  0  0  0  0  0
  183.7860  180.1200  139.2100 O   0  0  0  0  0  1  0  0  0  0  0  0
  183.4090  178.8290  138.8150 C   0  0  1  0  0  0  0  0  0  0  0  0
  182.0500  178.8500  138.0820 C   0  0  0  0  0  2  0  0  0  0  0  0
  180.6110  180.1970  136.5460 C   0  0  0  0  0  1  0  0  0  0  0  0
  181.5210  180.2430  137.7570 C   0  0  0  0  0  2  0  0  0  0  0  0
  183.2950  177.9640  139.9970 N   0  0  0  0  0  2  0  0  0  0  0  0
  183.0360  178.7520  141.2030 C   0  0  1  0  0  3  0  0  0  0  0  0
  181.7090  178.5660  141.5940 O   0  0  0  0  0  1  0  0  0  0  0  0
  183.9780  178.3180  142.3240 C   0  0  0  0  0  3  0  0  0  0  0  0
  184.8160  179.1720  144.6040 C   0  0  0  0  0  2  0  0  0  0  0  0
  186.4020  178.0310  143.0080 C   0  0  0  0  0  2  0  0  0  0  0  0
  185.8020  178.0210  144.4210 C   0  0  0  0  0  2  0  0  0  0  0  0
  185.4380  178.5610  141.9380 C   0  0  0  0  0  2  0  0  0  0  0  0
  183.6320  179.0490  143.6340 C   0  0  0  0  0  2  0  0  0  0  0  0
  1  7  1  0  0  0  0
  2 11  1  0  0  0  0
  2 12  1  0  0  0  0
  3 14  1  0  0  0  0
  4  1  2  0  0  0  0
  4  8  1  0  0  0  0
  5  1  1  0  0  0  0
  6  3  1  0  0  0  0
  6 10  1  0  0  0  0
  7  3  2  0  0  0  0
  8  6  2  0  0  0  0
  9 10  1  0  0  0  0
  9 13  1  0  0  0  0
 10  2  2  0  0  0  0
 12 15  1  1  0  0  0
 13 12  1  0  0  0  0
 14 11  2  0  0  0  0
 15 16  1  0  0  0  0
 16 21  1  0  0  0  0
 17 22  1  0  0  0  0
 18 19  2  0  0  0  0
 19 22  1  0  0  0  0
 20 17  2  0  0  0  0
 21 23  2  0  0  0  0
 21 20  1  0  0  0  0
 23 18  1  0  0  0  0
 24 13  1  0  0  0  0
 25 24  1  1  0  0  0
 26 28  1  6  0  0  0
 26 25  1  0  0  0  0
 27 26  1  0  0  0  0
 27 25  1  0  0  0  0
 28 29  1  1  0  0  0
 28 31  1  0  0  0  0
 31 30  1  1  0  0  0
 31 35  1  0  0  0  0
 32 31  1  0  0  0  0
 33 34  1  0  0  0  0
 34 32  1  0  0  0  0
 35 36  1  0  0  0  0
 36 37  1  1  0  0  0
 36 38  1  0  0  0  0
 38 43  1  0  0  0  0
 40 41  1  0  0  0  0
 41 39  1  0  0  0  0
 42 38  1  0  0  0  0
 42 40  1  0  0  0  0
 43 39  1  0  0  0  0
M  END
>  <MODEL>
3

>  <REMARK>
 VINA RESULT:      -8.5      3.258      9.092
  Name = 
  12 active torsions:
  status: ('A' for Active; 'I' for Inactive)
    1  A    between atoms: C_1  and  O_28
    2  A    between atoms: C_1  and  C_34
    3  A    between atoms: C_2  and  C_13
    4  A    between atoms: C_4  and  C_12
    5  A    between atoms: C_4  and  C_15
    6  A    between atoms: C_4  and  N_22
    7  A    between atoms: C_6  and  C_12
    8  A    between atoms: C_11  and  C_14
    9  A    between atoms: C_13  and  N_38
   10  A    between atoms: C_14  and  N_22
   11  A    between atoms: C_15  and  C_42
   12  A    between atoms: O_28  and  C_35
                            x       y       z     vdW  Elec       q    Type
                         _______ _______ _______ _____ _____    ______ ____

>  <TORSDO>
F 12

$$$$
=
 OpenBabel10262422273D

 43 48  0  0  1  0  0  0  0  0999 V2000
  187.4770  178.1190  147.6520 C   0  0  0  0  0  0  0  0  0  0  0  0
  185.8990  178.0570  142.8910 C   0  0  0  0  0  0  0  0  0  0  0  0
  187.2850  177.7180  145.2720 C   0  0  0  0  0  0  0  0  0  0  0  0
  186.2840  178.8550  147.6320 C   0  0  0  0  0  3  0  0  0  0  0  0
  188.3420  177.9070  149.1580 Cl  0  0  0  0  0  0  0  0  0  0  0  0
  186.0780  178.4650  145.2530 C   0  0  0  0  0  0  0  0  0  0  0  0
  187.9750  177.5510  146.4760 C   0  0  0  0  0  3  0  0  0  0  0  0
  185.5830  179.0280  146.4340 C   0  0  0  0  0  3  0  0  0  0  0  0
  184.2030  179.2670  143.7760 N   0  0  0  0  0  2  0  0  0  0  0  0
  185.4200  178.6070  144.0320 C   0  0  0  0  0  0  0  0  0  0  0  0
  187.0770  177.3070  142.8740 C   0  0  0  0  0  3  0  0  0  0  0  0
  184.9420  178.3620  141.7900 C   0  0  1  0  0  3  0  0  0  0  0  0
  183.8530  179.1480  142.4150 N   0  0  0  0  0  0  0  0  0  0  0  0
  187.7760  177.1430  144.0830 C   0  0  0  0  0  3  0  0  0  0  0  0
  185.6260  179.1980  140.7210 C   0  0  0  0  0  2  0  0  0  0  0  0
  185.4510  178.5880  139.4490 O   0  0  0  0  0  0  0  0  0  0  0  0
  189.0320  178.2950  138.5970 C   0  0  0  0  0  3  0  0  0  0  0  0
  187.1880  177.6380  136.2630 C   0  0  0  0  0  3  0  0  0  0  0  0
  188.4780  177.9670  136.2180 C   0  0  0  0  0  3  0  0  0  0  0  0
  187.8730  178.0640  139.2120 C   0  0  0  0  0  3  0  0  0  0  0  0
  186.5220  178.2460  138.6220 C   0  0  0  0  0  0  0  0  0  0  0  0
  189.1240  178.8620  137.2210 C   0  0  0  0  0  2  0  0  0  0  0  0
  186.2430  178.0260  137.3280 C   0  0  0  0  0  3  0  0  0  0  0  0
  182.6480  178.3240  142.3550 C   0  0  0  0  0  2  0  0  0  0  0  0
  181.3440  179.1330  142.4330 C   0  0  1  0  0  3  0  0  0  0  0  0
  180.4760  178.7750  141.2360 C   0  0  1  0  0  3  0  0  0  0  0  0
  180.0780  178.3040  142.6190 C   0  0  0  0  0  2  0  0  0  0  0  0
  179.6040  179.9480  140.7470 C   0  0  1  0  0  3  0  0  0  0  0  0
  179.6940  181.0740  141.5790 O   0  0  0  0  0  1  0  0  0  0  0  0
  178.9320  179.7520  138.4500 O   0  0  0  0  0  1  0  0  0  0  0  0
  179.8980  180.3340  139.2830 C   0  0  1  0  0  0  0  0  0  0  0  0
  179.9100  181.8700  139.1260 C   0  0  0  0  0  2  0  0  0  0  0  0
  179.6180  183.6060  137.3510 C   0  0  0  0  0  1  0  0  0  0  0  0
  178.9900  182.4070  138.0330 C   0  0  0  0  0  2  0  0  0  0  0  0
  181.2270  179.8130  138.9370 N   0  0  0  0  0  2  0  0  0  0  0  0
  181.1690  178.9770  137.7370 C   0  0  1  0  0  3  0  0  0  0  0  0
  181.4350  179.7660  136.6160 O   0  0  0  0  0  1  0  0  0  0  0  0
  182.1930  177.8480  137.8370 C   0  0  0  0  0  3  0  0  0  0  0  0
  183.2000  175.9960  136.3590 C   0  0  0  0  0  2  0  0  0  0  0  0
  182.6570  175.5410  138.7790 C   0  0  0  0  0  2  0  0  0  0  0  0
  183.7520  175.5320  137.7030 C   0  0  0  0  0  2  0  0  0  0  0  0
  181.6080  176.6420  138.5760 C   0  0  0  0  0  2  0  0  0  0  0  0
  182.6870  177.4420  136.4360 C   0  0  0  0  0  2  0  0  0  0  0  0
  1  5  1  0  0  0  0
  2 10  1  0  0  0  0
  3  7  1  0  0  0  0
  4  1  1  0  0  0  0
  6  3  1  0  0  0  0
  6  8  1  0  0  0  0
  7  1  2  0  0  0  0
  8  4  2  0  0  0  0
  9 10  1  0  0  0  0
 10  6  2  0  0  0  0
 11  2  2  0  0  0  0
 11 14  1  0  0  0  0
 12 15  1  6  0  0  0
 12 13  1  0  0  0  0
 12  2  1  0  0  0  0
 13  9  1  0  0  0  0
 14  3  2  0  0  0  0
 16 15  1  0  0  0  0
 17 20  2  0  0  0  0
 18 23  1  0  0  0  0
 19 18  2  0  0  0  0
 19 22  1  0  0  0  0
 21 20  1  0  0  0  0
 21 16  1  0  0  0  0
 22 17  1  0  0  0  0
 23 21  2  0  0  0  0
 24 13  1  0  0  0  0
 25 24  1  6  0  0  0
 25 27  1  0  0  0  0
 26 28  1  1  0  0  0
 26 25  1  0  0  0  0
 26 27  1  0  0  0  0
 28 29  1  1  0  0  0
 31 30  1  6  0  0  0
 31 28  1  0  0  0  0
 32 31  1  0  0  0  0
 33 34  1  0  0  0  0
 34 32  1  0  0  0  0
 35 31  1  0  0  0  0
 36 37  1  6  0  0  0
 36 38  1  0  0  0  0
 36 35  1  0  0  0  0
 38 42  1  0  0  0  0
 39 43  1  0  0  0  0
 39 41  1  0  0  0  0
 41 40  1  0  0  0  0
 42 40  1  0  0  0  0
 43 38  1  0  0  0  0
M  END
>  <MODEL>
4

>  <REMARK>
 VINA RESULT:      -8.3      2.404      7.154
  Name = 
  12 active torsions:
  status: ('A' for Active; 'I' for Inactive)
    1  A    between atoms: C_1  and  O_28
    2  A    between atoms: C_1  and  C_34
    3  A    between atoms: C_2  and  C_13
    4  A    between atoms: C_4  and  C_12
    5  A    between atoms: C_4  and  C_15
    6  A    between atoms: C_4  and  N_22
    7  A    between atoms: C_6  and  C_12
    8  A    between atoms: C_11  and  C_14
    9  A    between atoms: C_13  and  N_38
   10  A    between atoms: C_14  and  N_22
   11  A    between atoms: C_15  and  C_42
   12  A    between atoms: O_28  and  C_35
                            x       y       z     vdW  Elec       q    Type
                         _______ _______ _______ _____ _____    ______ ____

>  <TORSDO>
F 12

$$$$
=
 OpenBabel10262422273D

 43 48  0  0  1  0  0  0  0  0999 V2000
  187.0480  177.8700  146.6800 C   0  0  0  0  0  0  0  0  0  0  0  0
  183.6990  178.7400  143.0480 C   0  0  0  0  0  0  0  0  0  0  0  0
  185.0580  178.5110  145.4580 C   0  0  0  0  0  0  0  0  0  0  0  0
  187.6590  177.4630  145.4860 C   0  0  0  0  0  3  0  0  0  0  0  0
  187.9140  177.7250  148.1930 Cl  0  0  0  0  0  0  0  0  0  0  0  0
  185.6790  178.0970  144.2500 C   0  0  0  0  0  0  0  0  0  0  0  0
  185.7510  178.3930  146.6660 C   0  0  0  0  0  3  0  0  0  0  0  0
  186.9770  177.5770  144.2700 C   0  0  0  0  0  3  0  0  0  0  0  0
  185.3690  177.9260  141.7570 N   0  0  0  0  0  2  0  0  0  0  0  0
  184.9540  178.2330  143.0670 C   0  0  0  0  0  0  0  0  0  0  0  0
  183.0610  179.1680  144.2150 C   0  0  0  0  0  3  0  0  0  0  0  0
  183.2340  178.7840  141.6330 C   0  0  1  0  0  3  0  0  0  0  0  0
  184.3560  178.2470  140.8280 N   0  0  0  0  0  0  0  0  0  0  0  0
  183.7540  179.0440  145.4330 C   0  0  0  0  0  3  0  0  0  0  0  0
  182.0120  177.8980  141.4580 C   0  0  0  0  0  2  0  0  0  0  0  0
  181.1550  178.4520  140.4690 O   0  0  0  0  0  0  0  0  0  0  0  0
  180.8160  175.6650  138.0690 C   0  0  0  0  0  3  0  0  0  0  0  0
  181.2220  178.3660  136.7180 C   0  0  0  0  0  3  0  0  0  0  0  0
  181.4100  177.1540  136.1980 C   0  0  0  0  0  3  0  0  0  0  0  0
  180.5020  176.5160  139.0450 C   0  0  0  0  0  3  0  0  0  0  0  0
  181.0200  177.9010  139.1930 C   0  0  0  0  0  0  0  0  0  0  0  0
  181.8210  175.9740  137.0120 C   0  0  0  0  0  2  0  0  0  0  0  0
  181.3020  178.7010  138.1540 C   0  0  0  0  0  3  0  0  0  0  0  0
  184.8590  179.3500  140.0140 C   0  0  0  0  0  2  0  0  0  0  0  0
  185.0370  178.9900  138.5310 C   0  0  1  0  0  3  0  0  0  0  0  0
  186.2210  178.0440  138.3970 C   0  0  1  0  0  3  0  0  0  0  0  0
  184.8160  177.5200  138.1910 C   0  0  0  0  0  2  0  0  0  0  0  0
  186.9820  178.2100  137.0670 C   0  0  1  0  0  3  0  0  0  0  0  0
  187.3800  179.5350  136.8310 O   0  0  0  0  0  1  0  0  0  0  0  0
  187.7930  175.9680  137.3450 O   0  0  0  0  0  1  0  0  0  0  0  0
  188.1870  177.2550  136.9520 C   0  0  1  0  0  0  0  0  0  0  0  0
  188.7300  177.2500  135.5060 C   0  0  0  0  0  2  0  0  0  0  0  0
  190.0080  175.2000  134.8650 C   0  0  0  0  0  1  0  0  0  0  0  0
  188.6630  175.8970  134.8040 C   0  0  0  0  0  2  0  0  0  0  0  0
  189.2390  177.7460  137.8500 N   0  0  0  0  0  2  0  0  0  0  0  0
  190.0740  176.6450  138.3340 C   0  0  1  0  0  3  0  0  0  0  0  0
  191.3350  176.7320  137.7400 O   0  0  0  0  0  1  0  0  0  0  0  0
  190.2070  176.7180  139.8540 C   0  0  0  0  0  3  0  0  0  0  0  0
  189.3150  178.1160  141.8230 C   0  0  0  0  0  2  0  0  0  0  0  0
  191.7230  177.3680  141.7790 C   0  0  0  0  0  2  0  0  0  0  0  0
  190.4060  177.3540  142.5690 C   0  0  0  0  0  2  0  0  0  0  0  0
  191.5240  177.3850  140.2570 C   0  0  0  0  0  2  0  0  0  0  0  0
  189.0080  177.4650  140.4660 C   0  0  0  0  0  2  0  0  0  0  0  0
  1  5  1  0  0  0  0
  2 10  2  0  0  0  0
  2 11  1  0  0  0  0
  3  7  2  0  0  0  0
  4  1  2  0  0  0  0
  6  8  2  0  0  0  0
  6  3  1  0  0  0  0
  7  1  1  0  0  0  0
  8  4  1  0  0  0  0
  9 10  1  0  0  0  0
 10  6  1  0  0  0  0
 11 14  2  0  0  0  0
 12 15  1  1  0  0  0
 12  2  1  0  0  0  0
 13 12  1  0  0  0  0
 13  9  1  0  0  0  0
 14  3  1  0  0  0  0
 16 15  1  0  0  0  0
 17 20  2  0  0  0  0
 18 23  1  0  0  0  0
 19 18  2  0  0  0  0
 19 22  1  0  0  0  0
 20 21  1  0  0  0  0
 21 16  1  0  0  0  0
 22 17  1  0  0  0  0
 23 21  2  0  0  0  0
 24 13  1  0  0  0  0
 25 24  1  1  0  0  0
 26 28  1  6  0  0  0
 26 25  1  0  0  0  0
 27 26  1  0  0  0  0
 27 25  1  0  0  0  0
 28 29  1  1  0  0  0
 31 28  1  0  0  0  0
 31 30  1  1  0  0  0
 31 35  1  0  0  0  0
 32 31  1  0  0  0  0
 34 33  1  0  0  0  0
 34 32  1  0  0  0  0
 35 36  1  0  0  0  0
 36 37  1  6  0  0  0
 36 38  1  0  0  0  0
 38 42  1  0  0  0  0
 38 43  1  0  0  0  0
 39 41  1  0  0  0  0
 40 41  1  0  0  0  0
 42 40  1  0  0  0  0
 43 39  1  0  0  0  0
M  END
>  <MODEL>
5

>  <REMARK>
 VINA RESULT:      -8.2      1.107      1.721
  Name = 
  12 active torsions:
  status: ('A' for Active; 'I' for Inactive)
    1  A    between atoms: C_1  and  O_28
    2  A    between atoms: C_1  and  C_34
    3  A    between atoms: C_2  and  C_13
    4  A    between atoms: C_4  and  C_12
    5  A    between atoms: C_4  and  C_15
    6  A    between atoms: C_4  and  N_22
    7  A    between atoms: C_6  and  C_12
    8  A    between atoms: C_11  and  C_14
    9  A    between atoms: C_13  and  N_38
   10  A    between atoms: C_14  and  N_22
   11  A    between atoms: C_15  and  C_42
   12  A    between atoms: O_28  and  C_35
                            x       y       z     vdW  Elec       q    Type
                         _______ _______ _______ _____ _____    ______ ____

>  <TORSDO>
F 12

$$$$
=
 OpenBabel10262422273D

 43 48  0  0  1  0  0  0  0  0999 V2000
  187.1030  177.8890  146.7580 C   0  0  0  0  0  0  0  0  0  0  0  0
  183.7810  178.7140  143.0910 C   0  0  0  0  0  0  0  0  0  0  0  0
  185.1150  178.4960  145.5160 C   0  0  0  0  0  0  0  0  0  0  0  0
  187.7380  177.5060  145.5690 C   0  0  0  0  0  3  0  0  0  0  0  0
  187.9530  177.7520  148.2810 Cl  0  0  0  0  0  0  0  0  0  0  0  0
  185.7600  178.1050  144.3130 C   0  0  0  0  0  0  0  0  0  0  0  0
  185.7950  178.3830  146.7310 C   0  0  0  0  0  3  0  0  0  0  0  0
  187.0690  177.6150  144.3450 C   0  0  0  0  0  3  0  0  0  0  0  0
  185.4850  177.9480  141.8140 N   0  0  0  0  0  2  0  0  0  0  0  0
  185.0460  178.2340  143.1210 C   0  0  0  0  0  0  0  0  0  0  0  0
  183.1190  179.1170  144.2520 C   0  0  0  0  0  3  0  0  0  0  0  0
  183.3330  178.7580  141.6700 C   0  0  1  0  0  3  0  0  0  0  0  0
  184.4770  178.2530  140.8760 N   0  0  0  0  0  0  0  0  0  0  0  0
  183.7990  179.0000  145.4780 C   0  0  0  0  0  3  0  0  0  0  0  0
  182.1330  177.8470  141.4730 C   0  0  0  0  0  2  0  0  0  0  0  0
  181.1310  178.5270  140.7290 O   0  0  0  0  0  0  0  0  0  0  0  0
  181.1810  180.7380  137.7720 C   0  0  0  0  0  3  0  0  0  0  0  0
  181.2870  177.7790  137.0560 C   0  0  0  0  0  3  0  0  0  0  0  0
  180.9450  178.7990  136.2700 C   0  0  0  0  0  3  0  0  0  0  0  0
  181.5620  180.1860  138.9220 C   0  0  0  0  0  3  0  0  0  0  0  0
  181.2580  178.8010  139.3650 C   0  0  0  0  0  0  0  0  0  0  0  0
  180.3050  180.0430  136.7850 C   0  0  0  0  0  2  0  0  0  0  0  0
  181.1700  177.7570  138.5270 C   0  0  0  0  0  3  0  0  0  0  0  0
  184.9660  179.3740  140.0760 C   0  0  0  0  0  2  0  0  0  0  0  0
  185.0570  179.0660  138.5740 C   0  0  1  0  0  3  0  0  0  0  0  0
  186.1320  178.0120  138.3570 C   0  0  1  0  0  3  0  0  0  0  0  0
  184.6740  177.6420  138.1810 C   0  0  0  0  0  2  0  0  0  0  0  0
  186.8630  178.1600  137.0070 C   0  0  1  0  0  3  0  0  0  0  0  0
  187.3160  179.4670  136.7770 O   0  0  0  0  0  1  0  0  0  0  0  0
  188.1730  176.8420  135.4880 O   0  0  0  0  0  1  0  0  0  0  0  0
  188.0180  177.1510  136.8470 C   0  0  1  0  0  0  0  0  0  0  0  0
  189.3220  177.7330  137.4340 C   0  0  0  0  0  2  0  0  0  0  0  0
  189.6060  177.8650  139.9130 C   0  0  0  0  0  1  0  0  0  0  0  0
  189.8370  177.0160  138.6790 C   0  0  0  0  0  2  0  0  0  0  0  0
  187.6640  175.9370  137.5920 N   0  0  0  0  0  2  0  0  0  0  0  0
  187.2080  174.8780  136.6900 C   0  0  1  0  0  3  0  0  0  0  0  0
  188.0260  173.7570  136.8490 O   0  0  0  0  0  1  0  0  0  0  0  0
  185.7570  174.5160  136.9990 C   0  0  0  0  0  3  0  0  0  0  0  0
  184.2660  172.4240  137.1710 C   0  0  0  0  0  2  0  0  0  0  0  0
  183.3770  174.5410  136.1260 C   0  0  0  0  0  2  0  0  0  0  0  0
  183.1690  173.4840  137.2190 C   0  0  0  0  0  2  0  0  0  0  0  0
  184.8540  174.7980  135.7960 C   0  0  0  0  0  2  0  0  0  0  0  0
  185.6480  173.0410  137.4290 C   0  0  0  0  0  2  0  0  0  0  0  0
  1  5  1  0  0  0  0
  2 10  2  0  0  0  0
  2 11  1  0  0  0  0
  3  7  2  0  0  0  0
  4  1  2  0  0  0  0
  6  8  2  0  0  0  0
  6  3  1  0  0  0  0
  7  1  1  0  0  0  0
  8  4  1  0  0  0  0
  9 10  1  0  0  0  0
 10  6  1  0  0  0  0
 11 14  2  0  0  0  0
 12 15  1  1  0  0  0
 12  2  1  0  0  0  0
 13 12  1  0  0  0  0
 13  9  1  0  0  0  0
 14  3  1  0  0  0  0
 16 15  1  0  0  0  0
 17 20  2  0  0  0  0
 18 23  1  0  0  0  0
 19 22  1  0  0  0  0
 19 18  2  0  0  0  0
 20 21  1  0  0  0  0
 21 16  1  0  0  0  0
 22 17  1  0  0  0  0
 23 21  2  0  0  0  0
 24 13  1  0  0  0  0
 25 24  1  1  0  0  0
 26 28  1  6  0  0  0
 26 25  1  0  0  0  0
 27 26  1  0  0  0  0
 27 25  1  0  0  0  0
 28 29  1  1  0  0  0
 31 30  1  6  0  0  0
 31 28  1  0  0  0  0
 31 32  1  0  0  0  0
 31 35  1  0  0  0  0
 32 34  1  0  0  0  0
 34 33  1  0  0  0  0
 36 37  1  1  0  0  0
 36 38  1  0  0  0  0
 36 35  1  0  0  0  0
 38 43  1  0  0  0  0
 39 41  1  0  0  0  0
 39 43  1  0  0  0  0
 40 41  1  0  0  0  0
 42 40  1  0  0  0  0
 42 38  1  0  0  0  0
M  END
>  <MODEL>
6

>  <REMARK>
 VINA RESULT:      -8.1      1.863      3.718
  Name = 
  12 active torsions:
  status: ('A' for Active; 'I' for Inactive)
    1  A    between atoms: C_1  and  O_28
    2  A    between atoms: C_1  and  C_34
    3  A    between atoms: C_2  and  C_13
    4  A    between atoms: C_4  and  C_12
    5  A    between atoms: C_4  and  C_15
    6  A    between atoms: C_4  and  N_22
    7  A    between atoms: C_6  and  C_12
    8  A    between atoms: C_11  and  C_14
    9  A    between atoms: C_13  and  N_38
   10  A    between atoms: C_14  and  N_22
   11  A    between atoms: C_15  and  C_42
   12  A    between atoms: O_28  and  C_35
                            x       y       z     vdW  Elec       q    Type
                         _______ _______ _______ _____ _____    ______ ____

>  <TORSDO>
F 12

$$$$
=
 OpenBabel10262422273D

 43 48  0  0  1  0  0  0  0  0999 V2000
  187.1880  177.8560  146.6030 C   0  0  0  0  0  0  0  0  0  0  0  0
  183.7180  178.7190  143.0850 C   0  0  0  0  0  0  0  0  0  0  0  0
  185.1540  178.4840  145.4490 C   0  0  0  0  0  0  0  0  0  0  0  0
  187.7670  177.4690  145.3870 C   0  0  0  0  0  3  0  0  0  0  0  0
  188.1010  177.7080  148.0870 Cl  0  0  0  0  0  0  0  0  0  0  0  0
  185.7420  178.0890  144.2180 C   0  0  0  0  0  0  0  0  0  0  0  0
  185.8850  178.3620  146.6340 C   0  0  0  0  0  3  0  0  0  0  0  0
  187.0470  177.5860  144.1940 C   0  0  0  0  0  3  0  0  0  0  0  0
  185.3580  177.9390  141.7340 N   0  0  0  0  0  2  0  0  0  0  0  0
  184.9790  178.2270  143.0590 C   0  0  0  0  0  0  0  0  0  0  0  0
  183.1110  179.1260  144.2740 C   0  0  0  0  0  3  0  0  0  0  0  0
  183.2100  178.7700  141.6850 C   0  0  1  0  0  3  0  0  0  0  0  0
  184.3130  178.2560  140.8410 N   0  0  0  0  0  0  0  0  0  0  0  0
  183.8430  179.0000  145.4690 C   0  0  0  0  0  3  0  0  0  0  0  0
  181.9940  177.8700  141.5380 C   0  0  0  0  0  2  0  0  0  0  0  0
  181.7800  177.5710  140.1650 O   0  0  0  0  0  0  0  0  0  0  0  0
  179.1600  175.0150  140.6540 C   0  0  0  0  0  3  0  0  0  0  0  0
  180.3490  174.9890  137.8490 C   0  0  0  0  0  3  0  0  0  0  0  0
  179.6670  174.0200  138.4580 C   0  0  0  0  0  3  0  0  0  0  0  0
  179.7340  176.2150  140.5830 C   0  0  0  0  0  3  0  0  0  0  0  0
  180.9030  176.5720  139.7380 C   0  0  0  0  0  0  0  0  0  0  0  0
  179.6840  173.8180  139.9350 C   0  0  0  0  0  2  0  0  0  0  0  0
  181.1340  176.0380  138.5290 C   0  0  0  0  0  3  0  0  0  0  0  0
  184.7770  179.3730  140.0220 C   0  0  0  0  0  2  0  0  0  0  0  0
  184.9120  179.0300  138.5310 C   0  0  1  0  0  3  0  0  0  0  0  0
  186.0740  178.0640  138.3560 C   0  0  1  0  0  3  0  0  0  0  0  0
  184.6540  177.5690  138.1770 C   0  0  0  0  0  2  0  0  0  0  0  0
  186.8060  178.2330  137.0100 C   0  0  1  0  0  3  0  0  0  0  0  0
  187.3650  179.5100  136.8540 O   0  0  0  0  0  1  0  0  0  0  0  0
  187.8710  176.7830  135.4210 O   0  0  0  0  0  1  0  0  0  0  0  0
  187.8720  177.1440  136.7760 C   0  0  1  0  0  0  0  0  0  0  0  0
  189.2630  177.6540  137.2100 C   0  0  0  0  0  2  0  0  0  0  0  0
  189.5850  177.9990  139.6640 C   0  0  0  0  0  1  0  0  0  0  0  0
  189.7910  177.0440  138.5050 C   0  0  0  0  0  2  0  0  0  0  0  0
  187.5180  175.9800  137.5980 N   0  0  0  0  0  2  0  0  0  0  0  0
  187.2970  174.7960  136.7670 C   0  0  1  0  0  3  0  0  0  0  0  0
  188.2200  173.8100  137.1220 O   0  0  0  0  0  1  0  0  0  0  0  0
  185.8750  174.2750  136.9640 C   0  0  0  0  0  3  0  0  0  0  0  0
  184.5530  172.0800  136.7210 C   0  0  0  0  0  2  0  0  0  0  0  0
  183.5150  174.2750  136.0370 C   0  0  0  0  0  2  0  0  0  0  0  0
  183.3740  173.0280  136.9210 C   0  0  0  0  0  2  0  0  0  0  0  0
  184.9720  174.6970  135.8030 C   0  0  0  0  0  2  0  0  0  0  0  0
  185.8770  172.7440  137.1250 C   0  0  0  0  0  2  0  0  0  0  0  0
  1  7  1  0  0  0  0
  1  5  1  0  0  0  0
  2 11  1  0  0  0  0
  3 14  1  0  0  0  0
  3  7  2  0  0  0  0
  4  1  2  0  0  0  0
  6  3  1  0  0  0  0
  8  6  2  0  0  0  0
  8  4  1  0  0  0  0
  9 10  1  0  0  0  0
 10  2  2  0  0  0  0
 10  6  1  0  0  0  0
 11 14  2  0  0  0  0
 12 15  1  1  0  0  0
 12  2  1  0  0  0  0
 13 12  1  0  0  0  0
 13  9  1  0  0  0  0
 16 15  1  0  0  0  0
 18 19  2  0  0  0  0
 18 23  1  0  0  0  0
 19 22  1  0  0  0  0
 20 17  2  0  0  0  0
 21 16  1  0  0  0  0
 21 20  1  0  0  0  0
 22 17  1  0  0  0  0
 23 21  2  0  0  0  0
 24 13  1  0  0  0  0
 25 24  1  1  0  0  0
 26 28  1  6  0  0  0
 26 25  1  0  0  0  0
 27 26  1  0  0  0  0
 27 25  1  0  0  0  0
 28 29  1  1  0  0  0
 31 30  1  6  0  0  0
 31 28  1  0  0  0  0
 31 32  1  0  0  0  0
 31 35  1  0  0  0  0
 32 34  1  0  0  0  0
 34 33  1  0  0  0  0
 36 38  1  0  0  0  0
 36 37  1  1  0  0  0
 36 35  1  0  0  0  0
 38 43  1  0  0  0  0
 39 41  1  0  0  0  0
 39 43  1  0  0  0  0
 40 41  1  0  0  0  0
 42 40  1  0  0  0  0
 42 38  1  0  0  0  0
M  END
>  <MODEL>
7

>  <REMARK>
 VINA RESULT:      -8.0      2.404      4.325
  Name = 
  12 active torsions:
  status: ('A' for Active; 'I' for Inactive)
    1  A    between atoms: C_1  and  O_28
    2  A    between atoms: C_1  and  C_34
    3  A    between atoms: C_2  and  C_13
    4  A    between atoms: C_4  and  C_12
    5  A    between atoms: C_4  and  C_15
    6  A    between atoms: C_4  and  N_22
    7  A    between atoms: C_6  and  C_12
    8  A    between atoms: C_11  and  C_14
    9  A    between atoms: C_13  and  N_38
   10  A    between atoms: C_14  and  N_22
   11  A    between atoms: C_15  and  C_42
   12  A    between atoms: O_28  and  C_35
                            x       y       z     vdW  Elec       q    Type
                         _______ _______ _______ _____ _____    ______ ____

>  <TORSDO>
F 12

$$$$
=
 OpenBabel10262422273D

 43 48  0  0  1  0  0  0  0  0999 V2000
  192.1830  175.8230  146.6740 C   0  0  0  0  0  0  0  0  0  0  0  0
  190.0030  178.0050  142.7180 C   0  0  0  0  0  0  0  0  0  0  0  0
  191.0600  177.3920  145.2110 C   0  0  0  0  0  0  0  0  0  0  0  0
  192.2410  174.8840  145.6360 C   0  0  0  0  0  3  0  0  0  0  0  0
  192.8560  175.4300  148.2400 Cl  0  0  0  0  0  0  0  0  0  0  0  0
  191.1170  176.4380  144.1610 C   0  0  0  0  0  0  0  0  0  0  0  0
  191.5950  177.0740  146.4620 C   0  0  0  0  0  3  0  0  0  0  0  0
  191.7090  175.1900  144.3780 C   0  0  0  0  0  3  0  0  0  0  0  0
  190.5430  176.0360  141.7420 N   0  0  0  0  0  2  0  0  0  0  0  0
  190.5720  176.7940  142.9280 C   0  0  0  0  0  0  0  0  0  0  0  0
  189.9380  178.9720  143.7240 C   0  0  0  0  0  3  0  0  0  0  0  0
  189.5630  178.0720  141.2960 C   0  0  1  0  0  3  0  0  0  0  0  0
  189.9390  176.7700  140.7000 N   0  0  0  0  0  0  0  0  0  0  0  0
  190.4720  178.6520  144.9850 C   0  0  0  0  0  3  0  0  0  0  0  0
  188.0560  178.2500  141.2240 C   0  0  0  0  0  2  0  0  0  0  0  0
  187.4210  177.3480  142.1210 O   0  0  0  0  0  0  0  0  0  0  0  0
  184.2160  178.9540  143.0040 C   0  0  0  0  0  3  0  0  0  0  0  0
  185.8260  178.0770  145.4370 C   0  0  0  0  0  3  0  0  0  0  0  0
  184.8360  178.9670  145.3890 C   0  0  0  0  0  3  0  0  0  0  0  0
  185.0670  178.0770  142.4750 C   0  0  0  0  0  3  0  0  0  0  0  0
  186.4150  177.7440  143.0040 C   0  0  0  0  0  0  0  0  0  0  0  0
  184.5480  179.8000  144.1860 C   0  0  0  0  0  2  0  0  0  0  0  0
  186.7140  177.7250  144.3110 C   0  0  0  0  0  3  0  0  0  0  0  0
  190.9790  177.0400  139.7110 C   0  0  0  0  0  2  0  0  0  0  0  0
  190.9800  176.0550  138.5320 C   0  0  1  0  0  3  0  0  0  0  0  0
  190.5130  176.7880  137.2830 C   0  0  1  0  0  3  0  0  0  0  0  0
  191.9660  176.3830  137.4150 C   0  0  0  0  0  2  0  0  0  0  0  0
  189.7430  175.8830  136.3020 C   0  0  1  0  0  3  0  0  0  0  0  0
  190.1330  174.5380  136.3850 O   0  0  0  0  0  1  0  0  0  0  0  0
  187.8200  175.4230  137.6630 O   0  0  0  0  0  1  0  0  0  0  0  0
  188.2140  176.0120  136.4530 C   0  0  1  0  0  0  0  0  0  0  0  0
  187.7940  177.4970  136.3990 C   0  0  0  0  0  2  0  0  0  0  0  0
  185.7200  178.0620  137.6740 C   0  0  0  0  0  1  0  0  0  0  0  0
  187.2350  178.0510  137.7070 C   0  0  0  0  0  2  0  0  0  0  0  0
  187.5870  175.3030  135.3300 N   0  0  0  0  0  2  0  0  0  0  0  0
  186.2650  174.7960  135.7000 C   0  0  1  0  0  3  0  0  0  0  0  0
  185.2860  175.5750  135.0800 O   0  0  0  0  0  1  0  0  0  0  0  0
  186.1240  173.3380  135.2670 C   0  0  0  0  0  3  0  0  0  0  0  0
  184.6790  171.2770  135.8060 C   0  0  0  0  0  2  0  0  0  0  0  0
  187.1540  171.0240  135.3910 C   0  0  0  0  0  2  0  0  0  0  0  0
  185.7460  170.5850  134.9630 C   0  0  0  0  0  2  0  0  0  0  0  0
  187.2150  172.4710  135.9000 C   0  0  0  0  0  2  0  0  0  0  0  0
  184.7260  172.8010  135.6230 C   0  0  0  0  0  2  0  0  0  0  0  0
  1  5  1  0  0  0  0
  2 10  2  0  0  0  0
  2 11  1  0  0  0  0
  3  7  2  0  0  0  0
  4  1  2  0  0  0  0
  6  8  2  0  0  0  0
  6  3  1  0  0  0  0
  7  1  1  0  0  0  0
  8  4  1  0  0  0  0
  9 10  1  0  0  0  0
 10  6  1  0  0  0  0
 11 14  2  0  0  0  0
 12 15  1  1  0  0  0
 12  2  1  0  0  0  0
 13 12  1  0  0  0  0
 13  9  1  0  0  0  0
 14  3  1  0  0  0  0
 15 16  1  0  0  0  0
 16 21  1  0  0  0  0
 17 22  1  0  0  0  0
 19 18  2  0  0  0  0
 20 21  1  0  0  0  0
 20 17  2  0  0  0  0
 21 23  2  0  0  0  0
 22 19  1  0  0  0  0
 23 18  1  0  0  0  0
 24 13  1  0  0  0  0
 25 24  1  1  0  0  0
 26 28  1  6  0  0  0
 26 27  1  0  0  0  0
 26 25  1  0  0  0  0
 27 25  1  0  0  0  0
 28 29  1  1  0  0  0
 28 31  1  0  0  0  0
 31 30  1  1  0  0  0
 32 31  1  0  0  0  0
 32 34  1  0  0  0  0
 33 34  1  0  0  0  0
 35 36  1  0  0  0  0
 35 31  1  0  0  0  0
 36 37  1  6  0  0  0
 38 43  1  0  0  0  0
 38 36  1  0  0  0  0
 38 42  1  0  0  0  0
 40 42  1  0  0  0  0
 41 40  1  0  0  0  0
 41 39  1  0  0  0  0
 43 39  1  0  0  0  0
M  END
>  <MODEL>
8

>  <REMARK>
 VINA RESULT:      -8.0      3.221      6.631
  Name = 
  12 active torsions:
  status: ('A' for Active; 'I' for Inactive)
    1  A    between atoms: C_1  and  O_28
    2  A    between atoms: C_1  and  C_34
    3  A    between atoms: C_2  and  C_13
    4  A    between atoms: C_4  and  C_12
    5  A    between atoms: C_4  and  C_15
    6  A    between atoms: C_4  and  N_22
    7  A    between atoms: C_6  and  C_12
    8  A    between atoms: C_11  and  C_14
    9  A    between atoms: C_13  and  N_38
   10  A    between atoms: C_14  and  N_22
   11  A    between atoms: C_15  and  C_42
   12  A    between atoms: O_28  and  C_35
                            x       y       z     vdW  Elec       q    Type
                         _______ _______ _______ _____ _____    ______ ____

>  <TORSDO>
F 12

$$$$
=
 OpenBabel10262422273D

 43 48  0  0  1  0  0  0  0  0999 V2000
  185.7640  178.3010  145.2720 C   0  0  0  0  0  0  0  0  0  0  0  0
  187.7810  177.7380  140.7140 C   0  0  0  0  0  0  0  0  0  0  0  0
  187.1950  177.6620  143.4260 C   0  0  0  0  0  0  0  0  0  0  0  0
  184.9330  179.0100  144.3930 C   0  0  0  0  0  3  0  0  0  0  0  0
  185.3840  178.2560  146.9790 Cl  0  0  0  0  0  0  0  0  0  0  0  0
  186.3540  178.3820  142.5380 C   0  0  0  0  0  0  0  0  0  0  0  0
  186.8910  177.6280  144.7900 C   0  0  0  0  0  3  0  0  0  0  0  0
  185.2260  179.0500  143.0250 C   0  0  0  0  0  3  0  0  0  0  0  0
  185.9970  178.9980  140.1230 N   0  0  0  0  0  2  0  0  0  0  0  0
  186.6920  178.3890  141.1850 C   0  0  0  0  0  0  0  0  0  0  0  0
  188.6250  177.0110  141.5570 C   0  0  0  0  0  3  0  0  0  0  0  0
  187.8260  177.9140  139.2350 C   0  0  1  0  0  3  0  0  0  0  0  0
  186.6430  178.7380  138.8950 N   0  0  0  0  0  0  0  0  0  0  0  0
  188.3240  176.9800  142.9300 C   0  0  0  0  0  3  0  0  0  0  0  0
  189.0930  178.6510  138.8360 C   0  0  0  0  0  2  0  0  0  0  0  0
  189.4600  178.2950  137.5100 O   0  0  0  0  0  0  0  0  0  0  0  0
  189.9840  175.0950  135.7430 C   0  0  0  0  0  3  0  0  0  0  0  0
  192.0040  175.5760  137.9720 C   0  0  0  0  0  3  0  0  0  0  0  0
  191.6880  174.4200  137.3900 C   0  0  0  0  0  3  0  0  0  0  0  0
  189.8760  176.4080  135.9390 C   0  0  0  0  0  3  0  0  0  0  0  0
  190.1590  177.1240  137.2100 C   0  0  0  0  0  0  0  0  0  0  0  0
  190.3360  174.1350  136.8280 C   0  0  0  0  0  2  0  0  0  0  0  0
  191.1180  176.7530  138.0720 C   0  0  0  0  0  3  0  0  0  0  0  0
  185.7460  177.8920  138.1130 C   0  0  0  0  0  2  0  0  0  0  0  0
  186.4750  176.8290  137.2770 C   0  0  1  0  0  3  0  0  0  0  0  0
  185.4470  176.0580  136.4640 C   0  0  1  0  0  3  0  0  0  0  0  0
  186.3850  177.0200  135.7660 C   0  0  0  0  0  2  0  0  0  0  0  0
  185.8410  174.5860  136.2280 C   0  0  1  0  0  3  0  0  0  0  0  0
  186.6960  174.0880  137.2220 O   0  0  0  0  0  1  0  0  0  0  0  0
  183.8810  174.0780  134.9370 O   0  0  0  0  0  1  0  0  0  0  0  0
  184.6150  173.6660  136.0590 C   0  0  1  0  0  0  0  0  0  0  0  0
  185.0650  172.1960  135.9150 C   0  0  0  0  0  2  0  0  0  0  0  0
  183.2180  170.6300  135.2970 C   0  0  0  0  0  1  0  0  0  0  0  0
  184.0640  171.1680  136.4340 C   0  0  0  0  0  2  0  0  0  0  0  0
  183.7870  173.7900  137.2650 N   0  0  0  0  0  2  0  0  0  0  0  0
  182.4180  174.1820  136.9260 C   0  0  1  0  0  3  0  0  0  0  0  0
  181.5540  173.1250  137.2190 O   0  0  0  0  0  1  0  0  0  0  0  0
  182.0160  175.4220  137.7210 C   0  0  0  0  0  3  0  0  0  0  0  0
  182.2240  177.9840  137.5710 C   0  0  0  0  0  2  0  0  0  0  0  0
  182.4940  176.8110  139.7880 C   0  0  0  0  0  2  0  0  0  0  0  0
  181.7220  177.8860  139.0090 C   0  0  0  0  0  2  0  0  0  0  0  0
  182.9490  175.6320  138.9170 C   0  0  0  0  0  2  0  0  0  0  0  0
  182.0050  176.6660  136.8140 C   0  0  0  0  0  2  0  0  0  0  0  0
  1  5  1  0  0  0  0
  2 10  2  0  0  0  0
  2 11  1  0  0  0  0
  3  7  2  0  0  0  0
  4  1  2  0  0  0  0
  6  8  2  0  0  0  0
  6  3  1  0  0  0  0
  7  1  1  0  0  0  0
  8  4  1  0  0  0  0
  9 10  1  0  0  0  0
 10  6  1  0  0  0  0
 11 14  2  0  0  0  0
 12 15  1  1  0  0  0
 12  2  1  0  0  0  0
 13 12  1  0  0  0  0
 13  9  1  0  0  0  0
 14  3  1  0  0  0  0
 16 15  1  0  0  0  0
 17 20  2  0  0  0  0
 17 22  1  0  0  0  0
 18 23  1  0  0  0  0
 19 18  2  0  0  0  0
 20 21  1  0  0  0  0
 21 16  1  0  0  0  0
 21 23  2  0  0  0  0
 22 19  1  0  0  0  0
 24 13  1  0  0  0  0
 25 24  1  1  0  0  0
 26 28  1  6  0  0  0
 26 25  1  0  0  0  0
 27 26  1  0  0  0  0
 27 25  1  0  0  0  0
 28 29  1  1  0  0  0
 31 30  1  6  0  0  0
 31 28  1  0  0  0  0
 31 35  1  0  0  0  0
 32 31  1  0  0  0  0
 32 34  1  0  0  0  0
 33 34  1  0  0  0  0
 36 37  1  1  0  0  0
 36 35  1  0  0  0  0
 36 38  1  0  0  0  0
 38 42  1  0  0  0  0
 39 41  1  0  0  0  0
 41 40  1  0  0  0  0
 42 40  1  0  0  0  0
 43 39  1  0  0  0  0
 43 38  1  0  0  0  0
M  END
>  <MODEL>
9

>  <REMARK>
 VINA RESULT:      -7.9      3.021      7.223
  Name = 
  12 active torsions:
  status: ('A' for Active; 'I' for Inactive)
    1  A    between atoms: C_1  and  O_28
    2  A    between atoms: C_1  and  C_34
    3  A    between atoms: C_2  and  C_13
    4  A    between atoms: C_4  and  C_12
    5  A    between atoms: C_4  and  C_15
    6  A    between atoms: C_4  and  N_22
    7  A    between atoms: C_6  and  C_12
    8  A    between atoms: C_11  and  C_14
    9  A    between atoms: C_13  and  N_38
   10  A    between atoms: C_14  and  N_22
   11  A    between atoms: C_15  and  C_42
   12  A    between atoms: O_28  and  C_35
                            x       y       z     vdW  Elec       q    Type
                         _______ _______ _______ _____ _____    ______ ____

>  <TORSDO>
F 12

$$$$
