=
 OpenBabel10262420503D

 28 32  0  0  1  0  0  0  0  0999 V2000
  189.5350  177.5870  141.5670 N   0  0  0  0  0  0  0  0  0  0  0  0
  184.5750  178.4440  142.3780 C   0  0  0  0  0  3  0  0  0  0  0  0
  189.3650  177.2910  146.6510 S   0  0  0  0  0  0  0  0  0  0  0  0
  184.3810  178.4940  144.8020 C   0  0  0  0  0  0  0  0  0  0  0  0
  186.5820  177.9020  143.7780 C   0  0  0  0  0  0  0  0  0  0  0  0
  182.4640  179.0220  143.4140 C   0  0  0  0  0  0  0  0  0  0  0  0
  185.1560  178.2680  143.6430 C   0  0  0  0  0  0  0  0  0  0  0  0
  186.4740  178.4660  146.1920 C   0  0  0  0  0  2  0  0  0  0  0  0
  183.0360  178.8570  144.6770 C   0  0  0  0  0  3  0  0  0  0  0  0
  189.3920  177.4840  143.9590 C   0  0  0  0  0  0  0  0  0  0  0  0
  187.3550  177.8890  142.7310 N   0  0  0  0  0  0  0  0  0  0  0  0
  184.9550  178.2900  146.1780 C   0  0  0  0  0  2  0  0  0  0  0  0
  191.5350  177.1650  142.9210 C   0  0  0  0  0  3  0  0  0  0  0  0
  188.6170  177.5580  145.2140 C   0  0  0  0  0  0  0  0  0  0  0  0
  190.8200  177.3250  143.9930 N   0  0  0  0  0  0  0  0  0  0  0  0
  181.0370  179.4150  143.2900 C   0  0  0  0  0  1  0  0  0  0  0  0
  183.2340  178.8180  142.2650 C   0  0  0  0  0  3  0  0  0  0  0  0
  187.1110  177.5450  145.1490 C   0  0  2  0  0  3  0  0  0  0  0  0
  190.9020  177.0680  141.5610 C   0  0  0  0  0  2  0  0  0  0  0  0
  188.7660  177.6220  142.7820 C   0  0  0  0  0  0  0  0  0  0  0  0
  188.9070  177.8700  140.2850 C   0  0  0  0  0  2  0  0  0  0  0  0
  189.4040  176.9480  139.2770 N   0  0  0  0  0  0  0  0  0  0  0  0
  190.1790  176.2100  136.6200 C   0  0  0  0  0  0  0  0  0  0  0  0
  188.3180  176.7270  138.3240 C   0  0  0  0  0  2  0  0  0  0  0  0
  190.4970  177.6320  138.5850 C   0  0  0  0  0  2  0  0  0  0  0  0
  191.1910  176.6890  137.6050 C   0  0  0  0  0  2  0  0  0  0  0  0
  190.2760  176.4990  135.4390 O   0  0  0  0  0  0  0  0  0  0  0  0
  188.7410  175.3320  137.2280 S   0  0  0  0  0  0  0  0  0  0  0  0
  1 20  1  0  0  0  0
  2  7  1  0  0  0  0
  4 12  1  0  0  0  0
  5 18  1  0  0  0  0
  6  9  2  0  0  0  0
  7  5  1  0  0  0  0
  7  4  2  0  0  0  0
  9  4  1  0  0  0  0
 10 15  1  0  0  0  0
 10 14  1  0  0  0  0
 11 20  1  0  0  0  0
 11  5  2  0  0  0  0
 12  8  1  0  0  0  0
 13 15  2  0  0  0  0
 14  3  2  0  0  0  0
 16  6  1  0  0  0  0
 17  2  2  0  0  0  0
 17  6  1  0  0  0  0
 18 14  1  0  0  0  0
 18  8  1  1  0  0  0
 19  1  1  0  0  0  0
 19 13  1  0  0  0  0
 20 10  2  0  0  0  0
 21  1  1  0  0  0  0
 22 21  1  0  0  0  0
 23 28  1  0  0  0  0
 23 26  1  0  0  0  0
 24 22  1  0  0  0  0
 25 22  1  0  0  0  0
 26 25  1  0  0  0  0
 27 23  2  0  0  0  0
 28 24  1  0  0  0  0
M  END
>  <MODEL>
1

>  <REMARK>
 VINA RESULT:      -9.8      0.000      0.000
  Name = 
  2 active torsions:
  status: ('A' for Active; 'I' for Inactive)
    1  A    between atoms: N_1  and  C_2
    2  A    between atoms: C_2  and  N_3
                            x       y       z     vdW  Elec       q    Type
                         _______ _______ _______ _____ _____    ______ ____

>  <TORSDO>
F 2

$$$$
=
 OpenBabel10262420503D

 28 32  0  0  1  0  0  0  0  0999 V2000
  187.1860  178.1830  140.9190 N   0  0  0  0  0  0  0  0  0  0  0  0
  190.3760  177.0710  144.7370 C   0  0  0  0  0  3  0  0  0  0  0  0
  184.1000  178.8360  144.9210 S   0  0  0  0  0  0  0  0  0  0  0  0
  188.9740  177.1850  146.7200 C   0  0  0  0  0  0  0  0  0  0  0  0
  188.0020  177.8410  144.5140 C   0  0  0  0  0  0  0  0  0  0  0  0
  191.2730  176.4350  146.8940 C   0  0  0  0  0  0  0  0  0  0  0  0
  189.1420  177.3760  145.3310 C   0  0  0  0  0  0  0  0  0  0  0  0
  186.4900  177.4490  146.4420 C   0  0  0  0  0  2  0  0  0  0  0  0
  190.0450  176.7280  147.4930 C   0  0  0  0  0  3  0  0  0  0  0  0
  185.7780  178.4500  142.8430 C   0  0  0  0  0  0  0  0  0  0  0  0
  188.0800  177.8270  143.2140 N   0  0  0  0  0  0  0  0  0  0  0  0
  187.6760  177.5250  147.4030 C   0  0  0  0  0  2  0  0  0  0  0  0
  184.8340  178.8300  140.6660 C   0  0  0  0  0  3  0  0  0  0  0  0
  185.5640  178.4180  144.3030 C   0  0  0  0  0  0  0  0  0  0  0  0
  184.6810  178.7020  141.9500 N   0  0  0  0  0  0  0  0  0  0  0  0
  192.4050  175.9440  147.7210 C   0  0  0  0  0  1  0  0  0  0  0  0
  191.4370  176.6050  145.5160 C   0  0  0  0  0  3  0  0  0  0  0  0
  186.7570  178.3300  145.2210 C   0  0  2  0  0  3  0  0  0  0  0  0
  186.1940  178.7870  140.0290 C   0  0  0  0  0  2  0  0  0  0  0  0
  186.9950  178.1870  142.3440 C   0  0  0  0  0  0  0  0  0  0  0  0
  188.4560  177.7680  140.3430 C   0  0  0  0  0  2  0  0  0  0  0  0
  188.3200  177.6130  138.9040 N   0  0  0  0  0  0  0  0  0  0  0  0
  189.2850  177.0080  136.2760 C   0  0  0  0  0  0  0  0  0  0  0  0
  189.1750  178.6220  138.2800 C   0  0  0  0  0  2  0  0  0  0  0  0
  188.8470  176.2890  138.5730 C   0  0  0  0  0  2  0  0  0  0  0  0
  188.6090  175.9660  137.0990 C   0  0  0  0  0  2  0  0  0  0  0  0
  190.2160  176.7150  135.5440 O   0  0  0  0  0  0  0  0  0  0  0  0
  188.8050  178.7190  136.4980 S   0  0  0  0  0  0  0  0  0  0  0  0
  1 20  1  0  0  0  0
  2  7  2  0  0  0  0
  2 17  1  0  0  0  0
  4 12  1  0  0  0  0
  4  9  2  0  0  0  0
  5 18  1  0  0  0  0
  5  7  1  0  0  0  0
  6  9  1  0  0  0  0
  6 16  1  0  0  0  0
  7  4  1  0  0  0  0
  8 12  1  0  0  0  0
 10 14  1  0  0  0  0
 11  5  2  0  0  0  0
 13 15  2  0  0  0  0
 14  3  2  0  0  0  0
 14 18  1  0  0  0  0
 15 10  1  0  0  0  0
 17  6  2  0  0  0  0
 18  8  1  1  0  0  0
 19 13  1  0  0  0  0
 19  1  1  0  0  0  0
 20 10  2  0  0  0  0
 20 11  1  0  0  0  0
 21  1  1  0  0  0  0
 22 21  1  0  0  0  0
 23 28  1  0  0  0  0
 23 26  1  0  0  0  0
 24 22  1  0  0  0  0
 25 22  1  0  0  0  0
 26 25  1  0  0  0  0
 27 23  2  0  0  0  0
 28 24  1  0  0  0  0
M  END
>  <MODEL>
2

>  <REMARK>
 VINA RESULT:      -9.8      2.272      5.101
  Name = 
  2 active torsions:
  status: ('A' for Active; 'I' for Inactive)
    1  A    between atoms: N_1  and  C_2
    2  A    between atoms: C_2  and  N_3
                            x       y       z     vdW  Elec       q    Type
                         _______ _______ _______ _____ _____    ______ ____

>  <TORSDO>
F 2

$$$$
=
 OpenBabel10262420503D

 28 32  0  0  1  0  0  0  0  0999 V2000
  189.3000  177.8650  138.8790 N   0  0  0  0  0  0  0  0  0  0  0  0
  189.3730  177.5140  143.9650 C   0  0  0  0  0  3  0  0  0  0  0  0
  184.4520  179.0070  139.9540 S   0  0  0  0  0  0  0  0  0  0  0  0
  187.0570  177.8790  144.6080 C   0  0  0  0  0  0  0  0  0  0  0  0
  187.6990  178.1330  142.2060 C   0  0  0  0  0  0  0  0  0  0  0  0
  188.7040  177.2680  146.2790 C   0  0  0  0  0  0  0  0  0  0  0  0
  188.0590  177.8540  143.6130 C   0  0  0  0  0  0  0  0  0  0  0  0
  185.2980  177.9840  142.8160 C   0  0  0  0  0  2  0  0  0  0  0  0
  187.3900  177.5970  145.9360 C   0  0  0  0  0  3  0  0  0  0  0  0
  187.0260  178.3710  139.4500 C   0  0  0  0  0  0  0  0  0  0  0  0
  188.5610  177.9170  141.2560 N   0  0  0  0  0  0  0  0  0  0  0  0
  185.6390  178.2640  144.2800 C   0  0  0  0  0  2  0  0  0  0  0  0
  187.6540  178.3590  137.1310 C   0  0  0  0  0  3  0  0  0  0  0  0
  185.9540  178.5620  140.4480 C   0  0  0  0  0  0  0  0  0  0  0  0
  186.7330  178.4300  138.0450 N   0  0  0  0  0  0  0  0  0  0  0  0
  189.0500  176.9650  147.6910 C   0  0  0  0  0  1  0  0  0  0  0  0
  189.6940  177.2240  145.2930 C   0  0  0  0  0  3  0  0  0  0  0  0
  186.3170  178.6720  141.9070 C   0  0  2  0  0  3  0  0  0  0  0  0
  189.1110  178.2760  137.4880 C   0  0  0  0  0  2  0  0  0  0  0  0
  188.2710  178.0870  139.8590 C   0  0  0  0  0  0  0  0  0  0  0  0
  190.6250  177.4220  139.2850 C   0  0  0  0  0  2  0  0  0  0  0  0
  191.2520  176.6820  138.2020 N   0  0  0  0  0  0  0  0  0  0  0  0
  192.7960  174.5330  137.1070 C   0  0  0  0  0  0  0  0  0  0  0  0
  192.6970  176.7480  138.4180 C   0  0  0  0  0  2  0  0  0  0  0  0
  190.8240  175.2900  138.3420 C   0  0  0  0  0  2  0  0  0  0  0  0
  191.3090  174.4550  137.1580 C   0  0  0  0  0  2  0  0  0  0  0  0
  193.4770  173.5360  137.2850 O   0  0  0  0  0  0  0  0  0  0  0  0
  193.5640  176.1410  136.9330 S   0  0  0  0  0  0  0  0  0  0  0  0
  1 21  1  0  0  0  0
  1 20  1  0  0  0  0
  2 17  1  0  0  0  0
  3 14  2  0  0  0  0
  4  9  2  0  0  0  0
  5  7  1  0  0  0  0
  6 16  1  0  0  0  0
  7  2  2  0  0  0  0
  7  4  1  0  0  0  0
  8 12  1  0  0  0  0
  9  6  1  0  0  0  0
 10 20  2  0  0  0  0
 10 14  1  0  0  0  0
 11  5  2  0  0  0  0
 12  4  1  0  0  0  0
 13 19  1  0  0  0  0
 13 15  2  0  0  0  0
 14 18  1  0  0  0  0
 15 10  1  0  0  0  0
 17  6  2  0  0  0  0
 18  5  1  0  0  0  0
 18  8  1  1  0  0  0
 19  1  1  0  0  0  0
 20 11  1  0  0  0  0
 22 25  1  0  0  0  0
 22 24  1  0  0  0  0
 22 21  1  0  0  0  0
 23 26  1  0  0  0  0
 23 27  2  0  0  0  0
 26 25  1  0  0  0  0
 28 23  1  0  0  0  0
 28 24  1  0  0  0  0
M  END
>  <MODEL>
3

>  <REMARK>
 VINA RESULT:      -9.6      2.775      4.857
  Name = 
  2 active torsions:
  status: ('A' for Active; 'I' for Inactive)
    1  A    between atoms: N_1  and  C_2
    2  A    between atoms: C_2  and  N_3
                            x       y       z     vdW  Elec       q    Type
                         _______ _______ _______ _____ _____    ______ ____

>  <TORSDO>
F 2

$$$$
=
 OpenBabel10262420503D

 28 32  0  0  1  0  0  0  0  0999 V2000
  189.8320  177.6310  139.1350 N   0  0  0  0  0  0  0  0  0  0  0  0
  191.0720  177.0450  144.0450 C   0  0  0  0  0  3  0  0  0  0  0  0
  185.4240  178.8930  141.3580 S   0  0  0  0  0  0  0  0  0  0  0  0
  188.9880  177.4620  145.2260 C   0  0  0  0  0  0  0  0  0  0  0  0
  189.0640  177.8020  142.7520 C   0  0  0  0  0  0  0  0  0  0  0  0
  190.9500  176.7170  146.4410 C   0  0  0  0  0  0  0  0  0  0  0  0
  189.7280  177.4470  144.0240 C   0  0  0  0  0  0  0  0  0  0  0  0
  186.8670  177.7110  143.9020 C   0  0  0  0  0  2  0  0  0  0  0  0
  189.6090  177.1080  146.4280 C   0  0  0  0  0  3  0  0  0  0  0  0
  187.7790  178.1900  140.2410 C   0  0  0  0  0  0  0  0  0  0  0  0
  189.6700  177.6000  141.6190 N   0  0  0  0  0  0  0  0  0  0  0  0
  187.5520  177.9120  145.2540 C   0  0  0  0  0  2  0  0  0  0  0  0
  187.8470  178.2620  137.8410 C   0  0  0  0  0  3  0  0  0  0  0  0
  186.9780  178.3730  141.4690 C   0  0  0  0  0  0  0  0  0  0  0  0
  187.1690  178.3240  138.9470 N   0  0  0  0  0  0  0  0  0  0  0  0
  191.6020  176.3380  147.7210 C   0  0  0  0  0  1  0  0  0  0  0  0
  191.6810  176.6840  145.2490 C   0  0  0  0  0  3  0  0  0  0  0  0
  187.6760  178.4030  142.8050 C   0  0  2  0  0  3  0  0  0  0  0  0
  189.3420  178.1110  137.8430 C   0  0  0  0  0  2  0  0  0  0  0  0
  189.0700  177.8430  140.3360 C   0  0  0  0  0  0  0  0  0  0  0  0
  191.1940  177.1220  139.2020 C   0  0  0  0  0  2  0  0  0  0  0  0
  191.5480  176.4900  137.9420 N   0  0  0  0  0  0  0  0  0  0  0  0
  192.6430  174.3880  136.3340 C   0  0  0  0  0  0  0  0  0  0  0  0
  193.0070  176.3980  137.9030 C   0  0  0  0  0  2  0  0  0  0  0  0
  190.9980  175.1350  137.9830 C   0  0  0  0  0  2  0  0  0  0  0  0
  191.1850  174.4350  136.6390 C   0  0  0  0  0  2  0  0  0  0  0  0
  193.2300  173.3200  136.2630 O   0  0  0  0  0  0  0  0  0  0  0  0
  193.5450  175.9310  136.2250 S   0  0  0  0  0  0  0  0  0  0  0  0
  1 21  1  0  0  0  0
  1 20  1  0  0  0  0
  2 17  1  0  0  0  0
  3 14  2  0  0  0  0
  4 12  1  0  0  0  0
  4  9  2  0  0  0  0
  5 18  1  0  0  0  0
  5  7  1  0  0  0  0
  6 16  1  0  0  0  0
  7  2  2  0  0  0  0
  7  4  1  0  0  0  0
  8 12  1  0  0  0  0
  9  6  1  0  0  0  0
 10 20  2  0  0  0  0
 10 14  1  0  0  0  0
 11  5  2  0  0  0  0
 13 19  1  0  0  0  0
 13 15  2  0  0  0  0
 14 18  1  0  0  0  0
 15 10  1  0  0  0  0
 17  6  2  0  0  0  0
 18  8  1  1  0  0  0
 19  1  1  0  0  0  0
 20 11  1  0  0  0  0
 22 25  1  0  0  0  0
 22 21  1  0  0  0  0
 23 26  1  0  0  0  0
 24 22  1  0  0  0  0
 26 25  1  0  0  0  0
 27 23  2  0  0  0  0
 28 23  1  0  0  0  0
 28 24  1  0  0  0  0
M  END
>  <MODEL>
4

>  <REMARK>
 VINA RESULT:      -9.5      2.928      5.275
  Name = 
  2 active torsions:
  status: ('A' for Active; 'I' for Inactive)
    1  A    between atoms: N_1  and  C_2
    2  A    between atoms: C_2  and  N_3
                            x       y       z     vdW  Elec       q    Type
                         _______ _______ _______ _____ _____    ______ ____

>  <TORSDO>
F 2

$$$$
=
 OpenBabel10262420503D

 28 32  0  0  1  0  0  0  0  0999 V2000
  186.6680  178.4570  139.9310 N   0  0  0  0  0  0  0  0  0  0  0  0
  187.2250  177.8800  144.9660 C   0  0  0  0  0  3  0  0  0  0  0  0
  191.5880  177.1550  140.1730 S   0  0  0  0  0  0  0  0  0  0  0  0
  189.5950  177.4120  145.2400 C   0  0  0  0  0  0  0  0  0  0  0  0
  188.6590  177.5960  142.9310 C   0  0  0  0  0  0  0  0  0  0  0  0
  188.1770  177.7040  147.1850 C   0  0  0  0  0  0  0  0  0  0  0  0
  188.4800  177.6140  144.3980 C   0  0  0  0  0  0  0  0  0  0  0  0
  191.1190  177.6390  143.2540 C   0  0  0  0  0  2  0  0  0  0  0  0
  189.4320  177.4460  146.6280 C   0  0  0  0  0  3  0  0  0  0  0  0
  188.9840  177.8640  140.1150 C   0  0  0  0  0  0  0  0  0  0  0  0
  187.6910  177.9780  142.1490 N   0  0  0  0  0  0  0  0  0  0  0  0
  190.9540  177.0970  144.6740 C   0  0  0  0  0  2  0  0  0  0  0  0
  188.0770  178.2940  137.9320 C   0  0  0  0  0  3  0  0  0  0  0  0
  190.1670  177.4990  140.9210 C   0  0  0  0  0  0  0  0  0  0  0  0
  189.1020  178.0620  138.6970 N   0  0  0  0  0  0  0  0  0  0  0  0
  188.0130  177.7450  148.6610 C   0  0  0  0  0  1  0  0  0  0  0  0
  187.0740  177.9230  146.3540 C   0  0  0  0  0  3  0  0  0  0  0  0
  189.9830  177.1250  142.3700 C   0  0  2  0  0  3  0  0  0  0  0  0
  186.6770  178.3060  138.4760 C   0  0  0  0  0  2  0  0  0  0  0  0
  187.8040  178.0650  140.7200 C   0  0  0  0  0  0  0  0  0  0  0  0
  185.4110  178.8160  140.5710 C   0  0  0  0  0  2  0  0  0  0  0  0
  184.2950  178.3980  139.7400 N   0  0  0  0  0  0  0  0  0  0  0  0
  181.5310  178.3080  138.9910 C   0  0  0  0  0  0  0  0  0  0  0  0
  183.4250  177.5680  140.5730 C   0  0  0  0  0  2  0  0  0  0  0  0
  183.5660  179.6120  139.3720 C   0  0  0  0  0  2  0  0  0  0  0  0
  182.4590  179.2960  138.3690 C   0  0  0  0  0  2  0  0  0  0  0  0
  180.3720  178.6070  139.2270 O   0  0  0  0  0  0  0  0  0  0  0  0
  182.1910  176.7310  139.5230 S   0  0  0  0  0  0  0  0  0  0  0  0
  1 21  1  0  0  0  0
  1 20  1  0  0  0  0
  2 17  1  0  0  0  0
  3 14  2  0  0  0  0
  4  9  2  0  0  0  0
  5  7  1  0  0  0  0
  6 16  1  0  0  0  0
  7  2  2  0  0  0  0
  7  4  1  0  0  0  0
  8 12  1  0  0  0  0
  9  6  1  0  0  0  0
 10 20  2  0  0  0  0
 10 14  1  0  0  0  0
 11  5  2  0  0  0  0
 12  4  1  0  0  0  0
 13 19  1  0  0  0  0
 13 15  2  0  0  0  0
 14 18  1  0  0  0  0
 15 10  1  0  0  0  0
 17  6  2  0  0  0  0
 18  5  1  0  0  0  0
 18  8  1  1  0  0  0
 19  1  1  0  0  0  0
 20 11  1  0  0  0  0
 22 21  1  0  0  0  0
 22 24  1  0  0  0  0
 23 27  2  0  0  0  0
 23 28  1  0  0  0  0
 25 22  1  0  0  0  0
 26 23  1  0  0  0  0
 26 25  1  0  0  0  0
 28 24  1  0  0  0  0
M  END
>  <MODEL>
5

>  <REMARK>
 VINA RESULT:      -9.5      3.348      6.014
  Name = 
  2 active torsions:
  status: ('A' for Active; 'I' for Inactive)
    1  A    between atoms: N_1  and  C_2
    2  A    between atoms: C_2  and  N_3
                            x       y       z     vdW  Elec       q    Type
                         _______ _______ _______ _____ _____    ______ ____

>  <TORSDO>
F 2

$$$$
=
 OpenBabel10262420503D

 28 32  0  0  1  0  0  0  0  0999 V2000
  189.5430  177.9150  140.1990 N   0  0  0  0  0  0  0  0  0  0  0  0
  184.9150  178.4410  142.2730 C   0  0  0  0  0  3  0  0  0  0  0  0
  190.6060  176.9490  145.0880 S   0  0  0  0  0  0  0  0  0  0  0  0
  185.3100  178.1640  144.6560 C   0  0  0  0  0  0  0  0  0  0  0  0
  187.2060  177.8090  143.0680 C   0  0  0  0  0  0  0  0  0  0  0  0
  183.1100  178.7850  143.8490 C   0  0  0  0  0  0  0  0  0  0  0  0
  185.7860  178.1260  143.3270 C   0  0  0  0  0  0  0  0  0  0  0  0
  187.6770  178.0460  145.4930 C   0  0  0  0  0  2  0  0  0  0  0  0
  183.9710  178.4820  144.9060 C   0  0  0  0  0  3  0  0  0  0  0  0
  189.9820  177.4940  142.5190 C   0  0  0  0  0  0  0  0  0  0  0  0
  187.7050  177.9670  141.8770 N   0  0  0  0  0  0  0  0  0  0  0  0
  186.2010  177.8080  145.8160 C   0  0  0  0  0  2  0  0  0  0  0  0
  191.8150  177.4080  140.9680 C   0  0  0  0  0  3  0  0  0  0  0  0
  189.5310  177.3690  143.9200 C   0  0  0  0  0  0  0  0  0  0  0  0
  191.3770  177.3950  142.1920 N   0  0  0  0  0  0  0  0  0  0  0  0
  181.6900  179.1280  144.1220 C   0  0  0  0  0  1  0  0  0  0  0  0
  183.5820  178.7670  142.5330 C   0  0  0  0  0  3  0  0  0  0  0  0
  188.0540  177.2990  144.2130 C   0  0  2  0  0  3  0  0  0  0  0  0
  190.8740  177.4620  139.7980 C   0  0  0  0  0  2  0  0  0  0  0  0
  189.0890  177.7570  141.5540 C   0  0  0  0  0  0  0  0  0  0  0  0
  188.6220  178.3350  139.1540 C   0  0  0  0  0  2  0  0  0  0  0  0
  188.0230  177.1700  138.5250 N   0  0  0  0  0  0  0  0  0  0  0  0
  187.2520  175.5640  136.2810 C   0  0  0  0  0  0  0  0  0  0  0  0
  186.8710  177.6410  137.7560 C   0  0  0  0  0  2  0  0  0  0  0  0
  189.0170  176.6380  137.5930 C   0  0  0  0  0  2  0  0  0  0  0  0
  188.5410  175.3180  136.9900 C   0  0  0  0  0  2  0  0  0  0  0  0
  187.1720  175.4250  135.0720 O   0  0  0  0  0  0  0  0  0  0  0  0
  185.8720  176.2150  137.2170 S   0  0  0  0  0  0  0  0  0  0  0  0
  1 20  1  0  0  0  0
  2 17  2  0  0  0  0
  2  7  1  0  0  0  0
  4  9  1  0  0  0  0
  4 12  1  0  0  0  0
  5  7  1  0  0  0  0
  5 18  1  0  0  0  0
  6 16  1  0  0  0  0
  6  9  2  0  0  0  0
  7  4  2  0  0  0  0
  8 12  1  0  0  0  0
 10 14  1  0  0  0  0
 11  5  2  0  0  0  0
 13 15  2  0  0  0  0
 14 18  1  0  0  0  0
 14  3  2  0  0  0  0
 15 10  1  0  0  0  0
 17  6  1  0  0  0  0
 18  8  1  1  0  0  0
 19  1  1  0  0  0  0
 19 13  1  0  0  0  0
 20 11  1  0  0  0  0
 20 10  2  0  0  0  0
 21  1  1  0  0  0  0
 22 21  1  0  0  0  0
 23 26  1  0  0  0  0
 23 28  1  0  0  0  0
 24 22  1  0  0  0  0
 25 22  1  0  0  0  0
 26 25  1  0  0  0  0
 27 23  2  0  0  0  0
 28 24  1  0  0  0  0
M  END
>  <MODEL>
6

>  <REMARK>
 VINA RESULT:      -9.2      1.494      1.749
  Name = 
  2 active torsions:
  status: ('A' for Active; 'I' for Inactive)
    1  A    between atoms: N_1  and  C_2
    2  A    between atoms: C_2  and  N_3
                            x       y       z     vdW  Elec       q    Type
                         _______ _______ _______ _____ _____    ______ ____

>  <TORSDO>
F 2

$$$$
=
 OpenBabel10262420503D

 28 32  0  0  1  0  0  0  0  0999 V2000
  184.3890  178.8490  143.0120 N   0  0  0  0  0  0  0  0  0  0  0  0
  188.3860  177.8860  139.9980 C   0  0  0  0  0  3  0  0  0  0  0  0
  187.8620  177.5030  146.4880 S   0  0  0  0  0  0  0  0  0  0  0  0
  190.0870  177.0660  141.5310 C   0  0  0  0  0  0  0  0  0  0  0  0
  187.9260  177.9060  142.4620 C   0  0  0  0  0  0  0  0  0  0  0  0
  190.4910  177.0520  139.1400 C   0  0  0  0  0  0  0  0  0  0  0  0
  188.8130  177.6350  141.3110 C   0  0  0  0  0  0  0  0  0  0  0  0
  189.4530  176.6010  143.9180 C   0  0  0  0  0  2  0  0  0  0  0  0
  190.9210  176.7910  140.4430 C   0  0  0  0  0  3  0  0  0  0  0  0
  186.0620  178.1830  144.5960 C   0  0  0  0  0  0  0  0  0  0  0  0
  186.6830  178.2370  142.2650 N   0  0  0  0  0  0  0  0  0  0  0  0
  190.5960  176.8040  142.9230 C   0  0  0  0  0  2  0  0  0  0  0  0
  183.8790  178.7710  145.4090 C   0  0  0  0  0  3  0  0  0  0  0  0
  187.4290  177.7280  144.9200 C   0  0  0  0  0  0  0  0  0  0  0  0
  185.0670  178.2910  145.6270 N   0  0  0  0  0  0  0  0  0  0  0  0
  191.3810  176.7520  137.9890 C   0  0  0  0  0  1  0  0  0  0  0  0
  189.2230  177.5980  138.9180 C   0  0  0  0  0  3  0  0  0  0  0  0
  188.4970  177.7930  143.8580 C   0  0  2  0  0  3  0  0  0  0  0  0
  183.4840  179.3130  144.0640 C   0  0  0  0  0  2  0  0  0  0  0  0
  185.7330  178.4430  143.3220 C   0  0  0  0  0  0  0  0  0  0  0  0
  183.9630  179.0070  141.6290 C   0  0  0  0  0  2  0  0  0  0  0  0
  182.8700  178.0940  141.3410 N   0  0  0  0  0  0  0  0  0  0  0  0
  180.9020  176.8860  139.6460 C   0  0  0  0  0  0  0  0  0  0  0  0
  181.7000  178.9110  141.0230 C   0  0  0  0  0  2  0  0  0  0  0  0
  183.2530  177.3460  140.1430 C   0  0  0  0  0  2  0  0  0  0  0  0
  182.2350  176.2480  139.8430 C   0  0  0  0  0  2  0  0  0  0  0  0
  180.3430  176.8340  138.5630 O   0  0  0  0  0  0  0  0  0  0  0  0
  180.2120  177.8580  140.9820 S   0  0  0  0  0  0  0  0  0  0  0  0
  1 20  1  0  0  0  0
  1 19  1  0  0  0  0
  2  7  1  0  0  0  0
  4 12  1  0  0  0  0
  5 18  1  0  0  0  0
  6  9  2  0  0  0  0
  7  4  2  0  0  0  0
  7  5  1  0  0  0  0
  9  4  1  0  0  0  0
 10 14  1  0  0  0  0
 10 15  1  0  0  0  0
 11  5  2  0  0  0  0
 11 20  1  0  0  0  0
 12  8  1  0  0  0  0
 13 15  2  0  0  0  0
 14  3  2  0  0  0  0
 16  6  1  0  0  0  0
 17  6  1  0  0  0  0
 17  2  2  0  0  0  0
 18  8  1  6  0  0  0
 18 14  1  0  0  0  0
 19 13  1  0  0  0  0
 20 10  2  0  0  0  0
 21  1  1  0  0  0  0
 22 21  1  0  0  0  0
 23 26  1  0  0  0  0
 23 28  1  0  0  0  0
 24 22  1  0  0  0  0
 25 22  1  0  0  0  0
 26 25  1  0  0  0  0
 27 23  2  0  0  0  0
 28 24  1  0  0  0  0
M  END
>  <MODEL>
7

>  <REMARK>
 VINA RESULT:      -8.4      3.297      6.848
  Name = 
  2 active torsions:
  status: ('A' for Active; 'I' for Inactive)
    1  A    between atoms: N_1  and  C_2
    2  A    between atoms: C_2  and  N_3
                            x       y       z     vdW  Elec       q    Type
                         _______ _______ _______ _____ _____    ______ ____

>  <TORSDO>
F 2

$$$$
=
 OpenBabel10262420503D

 28 32  0  0  1  0  0  0  0  0999 V2000
  183.0830  178.0560  139.0890 N   0  0  0  0  0  0  0  0  0  0  0  0
  186.5810  177.7930  142.7890 C   0  0  0  0  0  3  0  0  0  0  0  0
  180.3330  179.6410  143.0750 S   0  0  0  0  0  0  0  0  0  0  0  0
  185.3450  178.3730  144.8010 C   0  0  0  0  0  0  0  0  0  0  0  0
  184.1930  178.5250  142.5900 C   0  0  0  0  0  0  0  0  0  0  0  0
  187.6550  177.6500  144.9540 C   0  0  0  0  0  0  0  0  0  0  0  0
  185.3990  178.2410  143.3960 C   0  0  0  0  0  0  0  0  0  0  0  0
  182.8460  178.6010  144.6730 C   0  0  0  0  0  2  0  0  0  0  0  0
  186.4790  178.0870  145.5680 C   0  0  0  0  0  3  0  0  0  0  0  0
  181.8370  178.7710  141.0100 C   0  0  0  0  0  0  0  0  0  0  0  0
  184.1640  178.2160  141.3250 N   0  0  0  0  0  0  0  0  0  0  0  0
  184.1070  178.8760  145.4920 C   0  0  0  0  0  2  0  0  0  0  0  0
  180.7150  178.6610  138.8880 C   0  0  0  0  0  3  0  0  0  0  0  0
  181.7430  179.0740  142.4520 C   0  0  0  0  0  0  0  0  0  0  0  0
  180.6690  178.8300  140.1750 N   0  0  0  0  0  0  0  0  0  0  0  0
  188.8540  177.3430  145.7760 C   0  0  0  0  0  1  0  0  0  0  0  0
  187.7050  177.5000  143.5650 C   0  0  0  0  0  3  0  0  0  0  0  0
  183.0080  179.1780  143.2660 C   0  0  2  0  0  3  0  0  0  0  0  0
  182.0190  178.4560  138.1690 C   0  0  0  0  0  2  0  0  0  0  0  0
  183.0100  178.3850  140.4870 C   0  0  0  0  0  0  0  0  0  0  0  0
  184.3040  177.5040  138.5210 C   0  0  0  0  0  2  0  0  0  0  0  0
  183.9760  176.4810  137.5420 N   0  0  0  0  0  0  0  0  0  0  0  0
  184.0290  173.8230  136.4770 C   0  0  0  0  0  0  0  0  0  0  0  0
  185.2330  176.0550  136.9290 C   0  0  0  0  0  2  0  0  0  0  0  0
  183.4150  175.3530  138.2850 C   0  0  0  0  0  2  0  0  0  0  0  0
  182.8950  174.2810  137.3280 C   0  0  0  0  0  2  0  0  0  0  0  0
  184.4350  172.6750  136.5480 O   0  0  0  0  0  0  0  0  0  0  0  0
  184.8810  175.0290  135.4630 S   0  0  0  0  0  0  0  0  0  0  0  0
  1 20  1  0  0  0  0
  2  7  2  0  0  0  0
  2 17  1  0  0  0  0
  4 12  1  0  0  0  0
  4  9  2  0  0  0  0
  5 18  1  0  0  0  0
  5  7  1  0  0  0  0
  6  9  1  0  0  0  0
  6 16  1  0  0  0  0
  7  4  1  0  0  0  0
  8 12  1  0  0  0  0
 10 14  1  0  0  0  0
 11  5  2  0  0  0  0
 13 15  2  0  0  0  0
 14  3  2  0  0  0  0
 14 18  1  0  0  0  0
 15 10  1  0  0  0  0
 17  6  2  0  0  0  0
 18  8  1  1  0  0  0
 19 13  1  0  0  0  0
 19  1  1  0  0  0  0
 20 10  2  0  0  0  0
 20 11  1  0  0  0  0
 21  1  1  0  0  0  0
 22 25  1  0  0  0  0
 22 21  1  0  0  0  0
 23 27  2  0  0  0  0
 23 26  1  0  0  0  0
 24 22  1  0  0  0  0
 26 25  1  0  0  0  0
 28 23  1  0  0  0  0
 28 24  1  0  0  0  0
M  END
>  <MODEL>
8

>  <REMARK>
 VINA RESULT:      -8.3      4.086      6.478
  Name = 
  2 active torsions:
  status: ('A' for Active; 'I' for Inactive)
    1  A    between atoms: N_1  and  C_2
    2  A    between atoms: C_2  and  N_3
                            x       y       z     vdW  Elec       q    Type
                         _______ _______ _______ _____ _____    ______ ____

>  <TORSDO>
F 2

$$$$
=
 OpenBabel10262420503D

 28 32  0  0  1  0  0  0  0  0999 V2000
  186.2070  178.6180  138.7350 N   0  0  0  0  0  0  0  0  0  0  0  0
  185.6870  178.3160  143.7970 C   0  0  0  0  0  3  0  0  0  0  0  0
  190.8960  177.1280  140.0580 S   0  0  0  0  0  0  0  0  0  0  0  0
  187.9220  177.7670  144.5810 C   0  0  0  0  0  0  0  0  0  0  0  0
  187.4910  177.8530  142.1210 C   0  0  0  0  0  0  0  0  0  0  0  0
  186.1520  178.2320  146.1710 C   0  0  0  0  0  0  0  0  0  0  0  0
  187.0150  177.9650  143.5160 C   0  0  0  0  0  0  0  0  0  0  0  0
  189.8310  177.8120  142.9470 C   0  0  0  0  0  2  0  0  0  0  0  0
  187.4790  177.8900  145.9020 C   0  0  0  0  0  3  0  0  0  0  0  0
  188.4020  177.9400  139.4250 C   0  0  0  0  0  0  0  0  0  0  0  0
  186.7260  178.2280  141.1370 N   0  0  0  0  0  0  0  0  0  0  0  0
  189.3490  177.3630  144.3270 C   0  0  0  0  0  2  0  0  0  0  0  0
  187.9870  178.2780  137.0830 C   0  0  0  0  0  3  0  0  0  0  0  0
  189.3720  177.5740  140.4760 C   0  0  0  0  0  0  0  0  0  0  0  0
  188.8180  178.0490  138.0540 N   0  0  0  0  0  0  0  0  0  0  0  0
  185.6910  178.3670  147.5770 C   0  0  0  0  0  1  0  0  0  0  0  0
  185.2570  178.4480  145.1200 C   0  0  0  0  0  3  0  0  0  0  0  0
  188.8750  177.2940  141.8710 C   0  0  2  0  0  3  0  0  0  0  0  0
  186.5070  178.3810  137.3230 C   0  0  0  0  0  2  0  0  0  0  0  0
  187.1350  178.2260  139.7610 C   0  0  0  0  0  0  0  0  0  0  0  0
  184.8660  179.0660  139.0810 C   0  0  0  0  0  2  0  0  0  0  0  0
  183.8900  178.0710  138.6690 N   0  0  0  0  0  0  0  0  0  0  0  0
  181.2450  176.9940  138.4500 C   0  0  0  0  0  0  0  0  0  0  0  0
  183.3220  177.4970  139.8880 C   0  0  0  0  0  2  0  0  0  0  0  0
  182.8330  178.7890  137.9570 C   0  0  0  0  0  2  0  0  0  0  0  0
  181.8310  177.8100  137.3490 C   0  0  0  0  0  2  0  0  0  0  0  0
  180.0570  177.0720  138.7170 O   0  0  0  0  0  0  0  0  0  0  0  0
  182.3460  176.0160  139.4690 S   0  0  0  0  0  0  0  0  0  0  0  0
  1 21  1  0  0  0  0
  1 20  1  0  0  0  0
  2 17  1  0  0  0  0
  3 14  2  0  0  0  0
  4  9  2  0  0  0  0
  5  7  1  0  0  0  0
  6 16  1  0  0  0  0
  7  2  2  0  0  0  0
  7  4  1  0  0  0  0
  8 12  1  0  0  0  0
  9  6  1  0  0  0  0
 10 20  2  0  0  0  0
 10 14  1  0  0  0  0
 11  5  2  0  0  0  0
 12  4  1  0  0  0  0
 13 19  1  0  0  0  0
 13 15  2  0  0  0  0
 14 18  1  0  0  0  0
 15 10  1  0  0  0  0
 17  6  2  0  0  0  0
 18  5  1  0  0  0  0
 18  8  1  1  0  0  0
 19  1  1  0  0  0  0
 20 11  1  0  0  0  0
 22 21  1  0  0  0  0
 22 24  1  0  0  0  0
 23 27  2  0  0  0  0
 23 28  1  0  0  0  0
 25 22  1  0  0  0  0
 26 25  1  0  0  0  0
 26 23  1  0  0  0  0
 28 24  1  0  0  0  0
M  END
>  <MODEL>
9

>  <REMARK>
 VINA RESULT:      -8.2      3.476      5.694
  Name = 
  2 active torsions:
  status: ('A' for Active; 'I' for Inactive)
    1  A    between atoms: N_1  and  C_2
    2  A    between atoms: C_2  and  N_3
                            x       y       z     vdW  Elec       q    Type
                         _______ _______ _______ _____ _____    ______ ____

>  <TORSDO>
F 2

$$$$
