=
 OpenBabel10262420023D

 27 32  0  0  1  0  0  0  0  0999 V2000
  182.5790  178.7810  138.8040 C   0  0  2  0  0  0  0  0  0  0  0  0
  182.3390  179.0060  141.3340 C   0  0  1  0  0  3  0  0  0  0  0  0
  184.5850  178.4540  140.3520 C   0  0  0  0  0  2  0  0  0  0  0  0
  184.0520  178.9990  145.3230 C   0  0  0  0  0  2  0  0  0  0  0  0
  185.9830  178.6440  146.8420 C   0  0  0  0  0  1  0  0  0  0  0  0
  181.4080  178.8980  142.5430 C   0  0  0  0  0  2  0  0  0  0  0  0
  185.5770  177.8050  143.1200 C   0  0  0  0  0  2  0  0  0  0  0  0
  185.0290  176.6640  137.2990 C   0  0  0  0  0  2  0  0  0  0  0  0
  186.2630  178.2620  144.4040 C   0  0  0  0  0  2  0  0  0  0  0  0
  184.1440  177.6450  136.5570 C   0  0  2  0  0  3  0  0  0  0  0  0
  183.6540  178.2280  141.5460 C   0  0  1  0  0  3  0  0  0  0  0  0
  181.6350  178.6060  140.0180 C   0  0  2  0  0  3  0  0  0  0  0  0
  185.2980  178.1580  145.5830 C   0  0  2  0  0  3  0  0  0  0  0  0
  183.3680  178.5420  144.0380 C   0  0  2  0  0  3  0  0  0  0  0  0
  182.8670  180.2700  138.6300 C   0  0  0  0  0  1  0  0  0  0  0  0
  184.3380  178.6620  142.8500 C   0  0  1  0  0  3  0  0  0  0  0  0
  184.8410  178.0560  137.8640 C   0  0  1  0  0  3  0  0  0  0  0  0
  182.1210  179.3820  143.7970 C   0  0  0  0  0  2  0  0  0  0  0  0
  182.6790  177.2390  136.7440 C   0  0  0  0  0  2  0  0  0  0  0  0
  181.8960  178.3160  137.5010 C   0  0  0  0  0  2  0  0  0  0  0  0
  183.8950  178.0070  139.0650 C   0  0  2  0  0  3  0  0  0  0  0  0
  179.6480  174.7810  140.2180 C   0  0  0  0  0  3  0  0  0  0  0  0
  180.9600  177.2540  140.0860 C   0  0  0  0  0  0  0  0  0  0  0  0
  181.6730  176.0620  139.8830 C   0  0  0  0  0  3  0  0  0  0  0  0
  181.0170  174.8300  139.9500 C   0  0  0  0  0  3  0  0  0  0  0  0
  178.9320  175.9650  140.4210 C   0  0  0  0  0  3  0  0  0  0  0  0
  179.5870  177.1980  140.3550 C   0  0  0  0  0  3  0  0  0  0  0  0
  1 15  1  6  0  0  0
  1 21  1  0  0  0  0
  1 12  1  0  0  0  0
  2 11  1  0  0  0  0
  2  6  1  1  0  0  0
  4 13  1  0  0  0  0
  6 18  1  0  0  0  0
  7  9  1  0  0  0  0
  9 13  1  0  0  0  0
 10 19  1  1  0  0  0
 10  8  1  0  0  0  0
 10 17  1  0  0  0  0
 11  3  1  6  0  0  0
 11 16  1  0  0  0  0
 12 23  1  1  0  0  0
 12  2  1  0  0  0  0
 13  5  1  1  0  0  0
 14 18  1  6  0  0  0
 14  4  1  0  0  0  0
 16  7  1  1  0  0  0
 16 14  1  0  0  0  0
 17  8  1  1  0  0  0
 17 21  1  0  0  0  0
 19 20  1  0  0  0  0
 20  1  1  0  0  0  0
 21  3  1  1  0  0  0
 22 26  1  0  0  0  0
 23 27  1  0  0  0  0
 24 25  1  0  0  0  0
 24 23  2  0  0  0  0
 25 22  2  0  0  0  0
 27 26  2  0  0  0  0
M  END
>  <MODEL>
1

>  <REMARK>
 VINA RESULT:      -7.9      0.000      0.000
  Name = 
  1 active torsions:
  status: ('A' for Active; 'I' for Inactive)
    1  A    between atoms: C_9  and  C_15
                            x       y       z     vdW  Elec       q    Type
                         _______ _______ _______ _____ _____    ______ ____

>  <TORSDO>
F 1

$$$$
=
 OpenBabel10262420023D

 27 32  0  0  1  0  0  0  0  0999 V2000
  188.7140  178.0040  137.4500 C   0  0  2  0  0  0  0  0  0  0  0  0
  186.9240  178.4900  139.2010 C   0  0  1  0  0  3  0  0  0  0  0  0
  189.1480  177.5730  139.9300 C   0  0  0  0  0  2  0  0  0  0  0  0
  185.6000  178.6370  143.3330 C   0  0  0  0  0  2  0  0  0  0  0  0
  185.9910  178.1850  145.7420 C   0  0  0  0  0  1  0  0  0  0  0  0
  185.4290  178.6110  139.4990 C   0  0  0  0  0  2  0  0  0  0  0  0
  187.9830  177.0640  142.6600 C   0  0  0  0  0  2  0  0  0  0  0  0
  191.1880  175.4680  137.9000 C   0  0  0  0  0  2  0  0  0  0  0  0
  187.7270  177.5480  144.0850 C   0  0  0  0  0  2  0  0  0  0  0  0
  191.1650  176.4790  136.7710 C   0  0  2  0  0  3  0  0  0  0  0  0
  187.6430  177.5770  140.2160 C   0  0  1  0  0  3  0  0  0  0  0  0
  187.1960  178.0610  137.7410 C   0  0  2  0  0  3  0  0  0  0  0  0
  186.2260  177.6740  144.3370 C   0  0  2  0  0  3  0  0  0  0  0  0
  185.8570  178.1520  141.9100 C   0  0  2  0  0  3  0  0  0  0  0  0
  189.2720  179.4230  137.5270 C   0  0  0  0  0  1  0  0  0  0  0  0
  187.3700  178.0400  141.6530 C   0  0  1  0  0  3  0  0  0  0  0  0
  190.8960  176.9190  138.2190 C   0  0  1  0  0  3  0  0  0  0  0  0
  185.2180  179.1160  140.9190 C   0  0  0  0  0  2  0  0  0  0  0  0
  189.8910  176.2780  135.9430 C   0  0  0  0  0  2  0  0  0  0  0  0
  188.9830  177.5100  136.0130 C   0  0  0  0  0  2  0  0  0  0  0  0
  189.4030  177.0990  138.5010 C   0  0  2  0  0  3  0  0  0  0  0  0
  184.9940  174.5500  136.5420 C   0  0  0  0  0  3  0  0  0  0  0  0
  186.4410  176.8160  137.3320 C   0  0  0  0  0  0  0  0  0  0  0  0
  186.9570  175.5310  137.5600 C   0  0  0  0  0  3  0  0  0  0  0  0
  186.2340  174.4020  137.1660 C   0  0  0  0  0  3  0  0  0  0  0  0
  184.4750  175.8270  136.3110 C   0  0  0  0  0  3  0  0  0  0  0  0
  185.1970  176.9570  136.7050 C   0  0  0  0  0  3  0  0  0  0  0  0
  1 15  1  1  0  0  0
  1 12  1  0  0  0  0
  1 21  1  0  0  0  0
  2  6  1  1  0  0  0
  2 11  1  0  0  0  0
  4 13  1  0  0  0  0
  6 18  1  0  0  0  0
  7  9  1  0  0  0  0
  9 13  1  0  0  0  0
 10 19  1  6  0  0  0
 10  8  1  0  0  0  0
 10 17  1  0  0  0  0
 11  3  1  6  0  0  0
 11 16  1  0  0  0  0
 12 23  1  1  0  0  0
 12  2  1  0  0  0  0
 13  5  1  1  0  0  0
 14 18  1  6  0  0  0
 14  4  1  0  0  0  0
 16 14  1  0  0  0  0
 16  7  1  1  0  0  0
 17  8  1  1  0  0  0
 17 21  1  0  0  0  0
 19 20  1  0  0  0  0
 20  1  1  0  0  0  0
 21  3  1  1  0  0  0
 22 25  1  0  0  0  0
 23 24  1  0  0  0  0
 25 24  2  0  0  0  0
 26 22  2  0  0  0  0
 26 27  1  0  0  0  0
 27 23  2  0  0  0  0
M  END
>  <MODEL>
2

>  <REMARK>
 VINA RESULT:      -6.9      3.385      5.369
  Name = 
  1 active torsions:
  status: ('A' for Active; 'I' for Inactive)
    1  A    between atoms: C_9  and  C_15
                            x       y       z     vdW  Elec       q    Type
                         _______ _______ _______ _____ _____    ______ ____

>  <TORSDO>
F 1

$$$$
=
 OpenBabel10262420023D

 27 32  0  0  1  0  0  0  0  0999 V2000
  188.5450  177.9200  136.9570 C   0  0  2  0  0  0  0  0  0  0  0  0
  187.5150  178.2530  139.2670 C   0  0  1  0  0  3  0  0  0  0  0  0
  189.7800  177.1830  139.0680 C   0  0  0  0  0  2  0  0  0  0  0  0
  187.7220  177.9500  143.5930 C   0  0  0  0  0  2  0  0  0  0  0  0
  188.8910  177.2020  145.6510 C   0  0  0  0  0  1  0  0  0  0  0  0
  186.2290  178.3860  140.0840 C   0  0  0  0  0  2  0  0  0  0  0  0
  189.6020  176.3910  141.9680 C   0  0  0  0  0  2  0  0  0  0  0  0
  190.8300  175.2690  136.2480 C   0  0  0  0  0  2  0  0  0  0  0  0
  189.8930  176.7100  143.4320 C   0  0  0  0  0  2  0  0  0  0  0  0
  190.4900  176.4070  135.3080 C   0  0  2  0  0  3  0  0  0  0  0  0
  188.4730  177.2020  139.8660 C   0  0  1  0  0  3  0  0  0  0  0  0
  187.2310  177.9910  137.7700 C   0  0  2  0  0  3  0  0  0  0  0  0
  188.5870  176.8540  144.2090 C   0  0  2  0  0  3  0  0  0  0  0  0
  187.4330  177.6300  142.1300 C   0  0  2  0  0  3  0  0  0  0  0  0
  189.1960  179.3000  136.9740 C   0  0  0  0  0  1  0  0  0  0  0  0
  188.7500  177.4990  141.3450 C   0  0  1  0  0  3  0  0  0  0  0  0
  190.7730  176.6800  136.7940 C   0  0  1  0  0  3  0  0  0  0  0  0
  186.5610  178.7250  141.5300 C   0  0  0  0  0  2  0  0  0  0  0  0
  188.9970  176.3480  134.9680 C   0  0  0  0  0  2  0  0  0  0  0  0
  188.2620  177.5920  135.4770 C   0  0  0  0  0  2  0  0  0  0  0  0
  189.4890  176.8740  137.6010 C   0  0  2  0  0  3  0  0  0  0  0  0
  184.5020  174.7220  137.0770 C   0  0  0  0  0  3  0  0  0  0  0  0
  186.2920  176.8290  137.5320 C   0  0  0  0  0  0  0  0  0  0  0  0
  186.7500  175.5020  137.5140 C   0  0  0  0  0  3  0  0  0  0  0  0
  185.8560  174.4530  137.2870 C   0  0  0  0  0  3  0  0  0  0  0  0
  184.0400  176.0420  137.0930 C   0  0  0  0  0  3  0  0  0  0  0  0
  184.9340  177.0920  137.3200 C   0  0  0  0  0  3  0  0  0  0  0  0
  1 15  1  1  0  0  0
  1 21  1  0  0  0  0
  1 12  1  0  0  0  0
  2 11  1  0  0  0  0
  2  6  1  1  0  0  0
  4 13  1  0  0  0  0
  6 18  1  0  0  0  0
  7  9  1  0  0  0  0
  9 13  1  0  0  0  0
 10 19  1  1  0  0  0
 10  8  1  0  0  0  0
 10 17  1  0  0  0  0
 11  3  1  6  0  0  0
 11 16  1  0  0  0  0
 12 23  1  1  0  0  0
 12  2  1  0  0  0  0
 13  5  1  1  0  0  0
 14 18  1  6  0  0  0
 14  4  1  0  0  0  0
 16  7  1  1  0  0  0
 16 14  1  0  0  0  0
 17  8  1  1  0  0  0
 17 21  1  0  0  0  0
 19 20  1  0  0  0  0
 20  1  1  0  0  0  0
 21  3  1  1  0  0  0
 22 26  2  0  0  0  0
 22 25  1  0  0  0  0
 24 23  1  0  0  0  0
 25 24  2  0  0  0  0
 26 27  1  0  0  0  0
 27 23  2  0  0  0  0
M  END
>  <MODEL>
3

>  <REMARK>
 VINA RESULT:      -6.7      3.709      5.564
  Name = 
  1 active torsions:
  status: ('A' for Active; 'I' for Inactive)
    1  A    between atoms: C_9  and  C_15
                            x       y       z     vdW  Elec       q    Type
                         _______ _______ _______ _____ _____    ______ ____

>  <TORSDO>
F 1

$$$$
=
 OpenBabel10262420023D

 27 32  0  0  1  0  0  0  0  0999 V2000
  180.7640  178.0140  139.9840 C   0  0  2  0  0  0  0  0  0  0  0  0
  182.9660  177.8390  138.7100 C   0  0  1  0  0  3  0  0  0  0  0  0
  183.0030  178.2780  141.1840 C   0  0  0  0  0  2  0  0  0  0  0  0
  187.3070  177.8340  138.6190 C   0  0  0  0  0  2  0  0  0  0  0  0
  189.4900  178.1290  139.7630 C   0  0  0  0  0  1  0  0  0  0  0  0
  183.6820  178.0060  137.3690 C   0  0  0  0  0  2  0  0  0  0  0  0
  185.9370  178.9260  140.9720 C   0  0  0  0  0  2  0  0  0  0  0  0
  180.4150  180.0000  142.9320 C   0  0  0  0  0  2  0  0  0  0  0  0
  187.3880  178.4610  141.0440 C   0  0  0  0  0  2  0  0  0  0  0  0
  179.3690  179.0470  142.3890 C   0  0  2  0  0  3  0  0  0  0  0  0
  183.7070  178.5630  139.8540 C   0  0  1  0  0  3  0  0  0  0  0  0
  181.4780  178.2490  138.6320 C   0  0  2  0  0  3  0  0  0  0  0  0
  188.0620  178.6250  139.6830 C   0  0  2  0  0  3  0  0  0  0  0  0
  185.8560  178.3000  138.5490 C   0  0  2  0  0  3  0  0  0  0  0  0
  180.7190  176.5120  140.2500 C   0  0  0  0  0  1  0  0  0  0  0  0
  185.1750  178.1200  139.9170 C   0  0  1  0  0  3  0  0  0  0  0  0
  180.8460  178.6260  142.4630 C   0  0  1  0  0  3  0  0  0  0  0  0
  185.1170  177.5110  137.4770 C   0  0  0  0  0  2  0  0  0  0  0  0
  178.9350  179.5180  140.9970 C   0  0  0  0  0  2  0  0  0  0  0  0
  179.2970  178.4880  139.9230 C   0  0  0  0  0  2  0  0  0  0  0  0
  181.5480  178.7350  141.1090 C   0  0  2  0  0  3  0  0  0  0  0  0
  180.8360  182.1590  136.9250 C   0  0  0  0  0  3  0  0  0  0  0  0
  181.2660  179.6300  138.0520 C   0  0  0  0  0  0  0  0  0  0  0  0
  181.6900  180.7860  138.7250 C   0  0  0  0  0  3  0  0  0  0  0  0
  181.4750  182.0470  138.1620 C   0  0  0  0  0  3  0  0  0  0  0  0
  180.4110  181.0110  136.2500 C   0  0  0  0  0  3  0  0  0  0  0  0
  180.6270  179.7490  136.8130 C   0  0  0  0  0  3  0  0  0  0  0  0
  1 15  1  1  0  0  0
  1 21  1  0  0  0  0
  2  6  1  6  0  0  0
  2 11  1  0  0  0  0
  4 13  1  0  0  0  0
  6 18  1  0  0  0  0
  7  9  1  0  0  0  0
 10 19  1  6  0  0  0
 10 17  1  0  0  0  0
 10  8  1  0  0  0  0
 11 16  1  0  0  0  0
 11  3  1  1  0  0  0
 12 23  1  1  0  0  0
 12  2  1  0  0  0  0
 12  1  1  0  0  0  0
 13  5  1  1  0  0  0
 13  9  1  0  0  0  0
 14 18  1  6  0  0  0
 14  4  1  0  0  0  0
 14 16  1  0  0  0  0
 16  7  1  1  0  0  0
 17  8  1  1  0  0  0
 20  1  1  0  0  0  0
 20 19  1  0  0  0  0
 21  3  1  1  0  0  0
 21 17  1  0  0  0  0
 22 25  1  0  0  0  0
 23 24  1  0  0  0  0
 25 24  2  0  0  0  0
 26 27  1  0  0  0  0
 26 22  2  0  0  0  0
 27 23  2  0  0  0  0
M  END
>  <MODEL>
4

>  <REMARK>
 VINA RESULT:      -6.2      2.260      5.433
  Name = 
  1 active torsions:
  status: ('A' for Active; 'I' for Inactive)
    1  A    between atoms: C_9  and  C_15
                            x       y       z     vdW  Elec       q    Type
                         _______ _______ _______ _____ _____    ______ ____

>  <TORSDO>
F 1

$$$$
=
 OpenBabel10262420023D

 27 32  0  0  1  0  0  0  0  0999 V2000
  181.1640  176.9190  138.8060 C   0  0  2  0  0  0  0  0  0  0  0  0
  180.4520  179.3210  139.2870 C   0  0  1  0  0  3  0  0  0  0  0  0
  180.8870  178.6140  136.9150 C   0  0  0  0  0  2  0  0  0  0  0  0
  179.3980  183.3090  137.9330 C   0  0  0  0  0  2  0  0  0  0  0  0
  179.1650  184.9780  136.1110 C   0  0  0  0  0  1  0  0  0  0  0  0
  180.4320  180.4690  140.2980 C   0  0  0  0  0  2  0  0  0  0  0  0
  180.8060  181.5100  136.0930 C   0  0  0  0  0  2  0  0  0  0  0  0
  183.1960  176.0540  136.0000 C   0  0  0  0  0  2  0  0  0  0  0  0
  180.0040  182.7020  135.5790 C   0  0  0  0  0  2  0  0  0  0  0  0
  182.5190  175.0670  136.9290 C   0  0  2  0  0  3  0  0  0  0  0  0
  180.9840  179.7730  137.9110 C   0  0  1  0  0  3  0  0  0  0  0  0
  181.2090  178.0850  139.8230 C   0  0  2  0  0  3  0  0  0  0  0  0
  179.9910  183.8170  136.6220 C   0  0  2  0  0  3  0  0  0  0  0  0
  180.2010  182.1170  138.4440 C   0  0  2  0  0  3  0  0  0  0  0  0
  179.7190  176.4430  138.6850 C   0  0  0  0  0  1  0  0  0  0  0  0
  180.2000  180.9890  137.3980 C   0  0  1  0  0  3  0  0  0  0  0  0
  181.7550  176.2910  136.4010 C   0  0  1  0  0  3  0  0  0  0  0  0
  179.6060  181.6270  139.7580 C   0  0  0  0  0  2  0  0  0  0  0  0
  183.0720  175.2520  138.3460 C   0  0  0  0  0  2  0  0  0  0  0  0
  181.9780  175.7110  139.3140 C   0  0  0  0  0  2  0  0  0  0  0  0
  181.6810  177.4170  137.4340 C   0  0  2  0  0  3  0  0  0  0  0  0
  185.1460  178.9810  141.3450 C   0  0  0  0  0  3  0  0  0  0  0  0
  182.5960  178.4060  140.3340 C   0  0  0  0  0  0  0  0  0  0  0  0
  183.6400  178.7600  139.4640 C   0  0  0  0  0  3  0  0  0  0  0  0
  184.9100  179.0470  139.9700 C   0  0  0  0  0  3  0  0  0  0  0  0
  184.1110  178.6280  142.2160 C   0  0  0  0  0  3  0  0  0  0  0  0
  182.8390  178.3410  141.7110 C   0  0  0  0  0  3  0  0  0  0  0  0
  1 15  1  6  0  0  0
  1 20  1  0  0  0  0
  1 12  1  0  0  0  0
  2 12  1  0  0  0  0
  2  6  1  1  0  0  0
  9  7  1  0  0  0  0
  9 13  1  0  0  0  0
 10  8  1  6  0  0  0
 10 19  1  0  0  0  0
 11  3  1  6  0  0  0
 11  2  1  0  0  0  0
 12 23  1  6  0  0  0
 13  5  1  6  0  0  0
 13  4  1  0  0  0  0
 14  4  1  6  0  0  0
 14 18  1  0  0  0  0
 16  7  1  6  0  0  0
 16 11  1  0  0  0  0
 16 14  1  0  0  0  0
 17  8  1  6  0  0  0
 17 10  1  0  0  0  0
 17 21  1  0  0  0  0
 18  6  1  0  0  0  0
 19 20  1  0  0  0  0
 21  3  1  6  0  0  0
 21  1  1  0  0  0  0
 22 26  1  0  0  0  0
 23 27  1  0  0  0  0
 24 25  1  0  0  0  0
 24 23  2  0  0  0  0
 25 22  2  0  0  0  0
 27 26  2  0  0  0  0
M  END
>  <MODEL>
5

>  <REMARK>
 VINA RESULT:      -6.2      2.692      6.358
  Name = 
  1 active torsions:
  status: ('A' for Active; 'I' for Inactive)
    1  A    between atoms: C_9  and  C_15
                            x       y       z     vdW  Elec       q    Type
                         _______ _______ _______ _____ _____    ______ ____

>  <TORSDO>
F 1

$$$$
=
 OpenBabel10262420023D

 27 32  0  0  1  0  0  0  0  0999 V2000
  188.8310  177.5560  137.2900 C   0  0  2  0  0  0  0  0  0  0  0  0
  186.6270  177.3390  136.0240 C   0  0  1  0  0  3  0  0  0  0  0  0
  186.6040  178.0800  138.4260 C   0  0  0  0  0  2  0  0  0  0  0  0
  182.3050  177.7130  135.8400 C   0  0  0  0  0  2  0  0  0  0  0  0
  180.1300  178.1790  136.9420 C   0  0  0  0  0  1  0  0  0  0  0  0
  185.8680  176.6490  134.8900 C   0  0  0  0  0  2  0  0  0  0  0  0
  183.6180  177.6870  138.4630 C   0  0  0  0  0  2  0  0  0  0  0  0
  189.0560  177.1060  140.8250 C   0  0  0  0  0  2  0  0  0  0  0  0
  182.2190  178.2690  138.2810 C   0  0  0  0  0  2  0  0  0  0  0  0
  190.1740  177.6050  139.9320 C   0  0  2  0  0  3  0  0  0  0  0  0
  185.8470  177.2890  137.3550 C   0  0  1  0  0  3  0  0  0  0  0  0
  188.0670  176.8000  136.1760 C   0  0  2  0  0  3  0  0  0  0  0  0
  181.5030  177.5680  137.1300 C   0  0  2  0  0  3  0  0  0  0  0  0
  183.7030  177.1310  136.0240 C   0  0  2  0  0  3  0  0  0  0  0  0
  189.0240  179.0030  136.8440 C   0  0  0  0  0  1  0  0  0  0  0  0
  184.4290  177.8490  137.1750 C   0  0  1  0  0  3  0  0  0  0  0  0
  188.7460  178.1510  139.7730 C   0  0  1  0  0  3  0  0  0  0  0  0
  184.4890  177.2720  134.7270 C   0  0  0  0  0  2  0  0  0  0  0  0
  190.5310  176.5130  138.9180 C   0  0  0  0  0  2  0  0  0  0  0  0
  190.2450  176.9700  137.4850 C   0  0  0  0  0  2  0  0  0  0  0  0
  188.0070  177.5040  138.6000 C   0  0  2  0  0  3  0  0  0  0  0  0
  188.3170  172.5030  136.4700 C   0  0  0  0  0  3  0  0  0  0  0  0
  188.1340  175.2940  136.2930 C   0  0  0  0  0  0  0  0  0  0  0  0
  187.2650  174.5790  137.1320 C   0  0  0  0  0  3  0  0  0  0  0  0
  187.3570  173.1870  137.2190 C   0  0  0  0  0  3  0  0  0  0  0  0
  189.1860  173.2090  135.6340 C   0  0  0  0  0  3  0  0  0  0  0  0
  189.0940  174.6020  135.5460 C   0  0  0  0  0  3  0  0  0  0  0  0
  1 15  1  6  0  0  0
  1 20  1  0  0  0  0
  1 21  1  0  0  0  0
  2  6  1  6  0  0  0
  2 12  1  0  0  0  0
  2 11  1  0  0  0  0
  4 14  1  0  0  0  0
  4 13  1  0  0  0  0
  9  7  1  0  0  0  0
 10 19  1  6  0  0  0
 10  8  1  0  0  0  0
 11  3  1  1  0  0  0
 12 23  1  1  0  0  0
 12  1  1  0  0  0  0
 13  5  1  6  0  0  0
 13  9  1  0  0  0  0
 14 18  1  6  0  0  0
 14 16  1  0  0  0  0
 16 11  1  0  0  0  0
 16  7  1  1  0  0  0
 17 10  1  0  0  0  0
 17  8  1  1  0  0  0
 18  6  1  0  0  0  0
 20 19  1  0  0  0  0
 21  3  1  6  0  0  0
 21 17  1  0  0  0  0
 22 25  1  0  0  0  0
 23 24  1  0  0  0  0
 24 25  2  0  0  0  0
 26 22  2  0  0  0  0
 27 26  1  0  0  0  0
 27 23  2  0  0  0  0
M  END
>  <MODEL>
6

>  <REMARK>
 VINA RESULT:      -5.8      3.835      7.831
  Name = 
  1 active torsions:
  status: ('A' for Active; 'I' for Inactive)
    1  A    between atoms: C_9  and  C_15
                            x       y       z     vdW  Elec       q    Type
                         _______ _______ _______ _____ _____    ______ ____

>  <TORSDO>
F 1

$$$$
=
 OpenBabel10262420023D

 27 32  0  0  1  0  0  0  0  0999 V2000
  187.5460  177.6500  136.5770 C   0  0  2  0  0  0  0  0  0  0  0  0
  185.0030  177.5030  136.4430 C   0  0  1  0  0  3  0  0  0  0  0  0
  186.0870  178.2050  138.5990 C   0  0  0  0  0  2  0  0  0  0  0  0
  181.0760  177.9750  138.2320 C   0  0  0  0  0  2  0  0  0  0  0  0
  179.6460  178.4710  140.1990 C   0  0  0  0  0  1  0  0  0  0  0  0
  183.7960  176.8470  135.7700 C   0  0  0  0  0  2  0  0  0  0  0  0
  183.4300  177.8780  139.9790 C   0  0  0  0  0  2  0  0  0  0  0  0
  189.3310  177.1390  139.6280 C   0  0  0  0  0  2  0  0  0  0  0  0
  182.1160  178.4940  140.4510 C   0  0  0  0  0  2  0  0  0  0  0  0
  189.9390  177.6270  138.3280 C   0  0  2  0  0  3  0  0  0  0  0  0
  184.9070  177.4490  137.9820 C   0  0  1  0  0  3  0  0  0  0  0  0
  186.3420  176.9300  135.9260 C   0  0  2  0  0  3  0  0  0  0  0  0
  180.9390  177.8270  139.7440 C   0  0  2  0  0  3  0  0  0  0  0  0
  182.3900  177.3590  137.7620 C   0  0  2  0  0  3  0  0  0  0  0  0
  187.5560  179.0990  136.0980 C   0  0  0  0  0  1  0  0  0  0  0  0
  183.5770  178.0420  138.4650 C   0  0  1  0  0  3  0  0  0  0  0  0
  188.6080  178.2070  138.8330 C   0  0  1  0  0  3  0  0  0  0  0  0
  182.5100  177.5030  136.2510 C   0  0  0  0  0  2  0  0  0  0  0  0
  189.7700  176.5430  137.2580 C   0  0  0  0  0  2  0  0  0  0  0  0
  188.8800  177.0300  136.1100 C   0  0  0  0  0  2  0  0  0  0  0  0
  187.4020  177.5950  138.1180 C   0  0  2  0  0  3  0  0  0  0  0  0
  186.5620  172.6220  136.0500 C   0  0  0  0  0  3  0  0  0  0  0  0
  186.4140  175.4200  135.9930 C   0  0  0  0  0  0  0  0  0  0  0  0
  186.3500  174.7320  137.2150 C   0  0  0  0  0  3  0  0  0  0  0  0
  186.4230  173.3370  137.2410 C   0  0  0  0  0  3  0  0  0  0  0  0
  186.6260  173.3020  134.8300 C   0  0  0  0  0  3  0  0  0  0  0  0
  186.5530  174.6980  134.8020 C   0  0  0  0  0  3  0  0  0  0  0  0
  1 15  1  6  0  0  0
  1 21  1  0  0  0  0
  2  6  1  6  0  0  0
  2 11  1  0  0  0  0
  4 13  1  0  0  0  0
  6 18  1  0  0  0  0
  7  9  1  0  0  0  0
 10 19  1  6  0  0  0
 10 17  1  0  0  0  0
 10  8  1  0  0  0  0
 11 16  1  0  0  0  0
 11  3  1  1  0  0  0
 12 23  1  1  0  0  0
 12  2  1  0  0  0  0
 12  1  1  0  0  0  0
 13  5  1  1  0  0  0
 13  9  1  0  0  0  0
 14 18  1  6  0  0  0
 14  4  1  0  0  0  0
 14 16  1  0  0  0  0
 16  7  1  1  0  0  0
 17  8  1  1  0  0  0
 20  1  1  0  0  0  0
 20 19  1  0  0  0  0
 21  3  1  6  0  0  0
 21 17  1  0  0  0  0
 22 25  1  0  0  0  0
 23 24  1  0  0  0  0
 24 25  2  0  0  0  0
 26 22  2  0  0  0  0
 27 26  1  0  0  0  0
 27 23  2  0  0  0  0
M  END
>  <MODEL>
7

>  <REMARK>
 VINA RESULT:      -5.5      3.046      6.511
  Name = 
  1 active torsions:
  status: ('A' for Active; 'I' for Inactive)
    1  A    between atoms: C_9  and  C_15
                            x       y       z     vdW  Elec       q    Type
                         _______ _______ _______ _____ _____    ______ ____

>  <TORSDO>
F 1

$$$$
=
 OpenBabel10262420023D

 27 32  0  0  1  0  0  0  0  0999 V2000
  181.7650  178.8850  138.0500 C   0  0  2  0  0  0  0  0  0  0  0  0
  183.4320  177.0940  137.3300 C   0  0  1  0  0  3  0  0  0  0  0  0
  181.0440  176.4500  137.7750 C   0  0  0  0  0  2  0  0  0  0  0  0
  184.3680  172.9890  136.2680 C   0  0  0  0  0  2  0  0  0  0  0  0
  183.6920  170.6120  136.0360 C   0  0  0  0  0  1  0  0  0  0  0  0
  184.8950  176.6470  137.3030 C   0  0  0  0  0  2  0  0  0  0  0  0
  181.8630  173.5530  137.6870 C   0  0  0  0  0  2  0  0  0  0  0  0
  178.9310  178.1460  140.0940 C   0  0  0  0  0  2  0  0  0  0  0  0
  182.0480  172.2700  136.8830 C   0  0  0  0  0  2  0  0  0  0  0  0
  179.2010  179.4760  139.4170 C   0  0  2  0  0  3  0  0  0  0  0  0
  182.5000  175.9860  137.8640 C   0  0  1  0  0  3  0  0  0  0  0  0
  183.2420  178.4260  138.0890 C   0  0  2  0  0  3  0  0  0  0  0  0
  183.5210  171.8680  136.8630 C   0  0  2  0  0  3  0  0  0  0  0  0
  184.1810  174.2720  137.0720 C   0  0  2  0  0  3  0  0  0  0  0  0
  181.4060  179.2280  136.6070 C   0  0  0  0  0  1  0  0  0  0  0  0
  182.6980  174.6830  137.0790 C   0  0  1  0  0  3  0  0  0  0  0  0
  179.3910  178.1570  138.6510 C   0  0  1  0  0  3  0  0  0  0  0  0
  185.0390  175.3790  136.4750 C   0  0  0  0  0  2  0  0  0  0  0  0
  180.5070  180.0610  139.9650 C   0  0  0  0  0  2  0  0  0  0  0  0
  181.5670  180.1790  138.8660 C   0  0  0  0  0  2  0  0  0  0  0  0
  180.8610  177.7400  138.5710 C   0  0  2  0  0  3  0  0  0  0  0  0
  185.0350  178.4480  142.0130 C   0  0  0  0  0  3  0  0  0  0  0  0
  183.8520  178.4200  139.4730 C   0  0  0  0  0  0  0  0  0  0  0  0
  183.1800  177.8660  140.5730 C   0  0  0  0  0  3  0  0  0  0  0  0
  183.7710  177.8800  141.8390 C   0  0  0  0  0  3  0  0  0  0  0  0
  185.7090  179.0030  140.9210 C   0  0  0  0  0  3  0  0  0  0  0  0
  185.1190  178.9880  139.6540 C   0  0  0  0  0  3  0  0  0  0  0  0
  1 15  1  6  0  0  0
  1 12  1  0  0  0  0
  1 21  1  0  0  0  0
  1 20  1  0  0  0  0
  2  6  1  1  0  0  0
  2 11  1  0  0  0  0
  2 12  1  0  0  0  0
  4 13  1  0  0  0  0
  9  7  1  0  0  0  0
 10 19  1  1  0  0  0
 10  8  1  0  0  0  0
 11  3  1  6  0  0  0
 12 23  1  1  0  0  0
 13  5  1  6  0  0  0
 13  9  1  0  0  0  0
 14  4  1  6  0  0  0
 14 16  1  0  0  0  0
 16  7  1  1  0  0  0
 16 11  1  0  0  0  0
 17 10  1  0  0  0  0
 17  8  1  1  0  0  0
 18 14  1  0  0  0  0
 18  6  1  0  0  0  0
 20 19  1  0  0  0  0
 21  3  1  6  0  0  0
 21 17  1  0  0  0  0
 23 27  2  0  0  0  0
 23 24  1  0  0  0  0
 24 25  2  0  0  0  0
 25 22  1  0  0  0  0
 26 22  2  0  0  0  0
 27 26  1  0  0  0  0
M  END
>  <MODEL>
8

>  <REMARK>
 VINA RESULT:      -5.3      2.407      6.776
  Name = 
  1 active torsions:
  status: ('A' for Active; 'I' for Inactive)
    1  A    between atoms: C_9  and  C_15
                            x       y       z     vdW  Elec       q    Type
                         _______ _______ _______ _____ _____    ______ ____

>  <TORSDO>
F 1

$$$$
=
 OpenBabel10262420023D

 27 32  0  0  1  0  0  0  0  0999 V2000
  180.7680  177.0600  138.6080 C   0  0  2  0  0  0  0  0  0  0  0  0
  182.6920  176.9160  136.9400 C   0  0  1  0  0  3  0  0  0  0  0  0
  183.1770  177.4980  139.3360 C   0  0  0  0  0  2  0  0  0  0  0  0
  186.9280  177.1100  136.0070 C   0  0  0  0  0  2  0  0  0  0  0  0
  189.2690  177.5730  136.6900 C   0  0  0  0  0  1  0  0  0  0  0  0
  183.1270  177.0390  135.4790 C   0  0  0  0  0  2  0  0  0  0  0  0
  185.9730  178.2700  138.5270 C   0  0  0  0  0  2  0  0  0  0  0  0
  180.8770  179.1930  141.4700 C   0  0  0  0  0  2  0  0  0  0  0  0
  187.4360  177.8780  138.3370 C   0  0  0  0  0  2  0  0  0  0  0  0
  179.8030  178.1620  141.1870 C   0  0  2  0  0  3  0  0  0  0  0  0
  183.5950  177.7380  137.8830 C   0  0  1  0  0  3  0  0  0  0  0  0
  181.1950  177.2500  137.1340 C   0  0  2  0  0  3  0  0  0  0  0  0
  187.8260  177.9950  136.8660 C   0  0  2  0  0  3  0  0  0  0  0  0
  185.4660  177.5030  136.1990 C   0  0  2  0  0  3  0  0  0  0  0  0
  180.8610  175.5750  138.9490 C   0  0  0  0  0  1  0  0  0  0  0  0
  185.0710  177.3700  137.6800 C   0  0  1  0  0  3  0  0  0  0  0  0
  181.2890  177.8160  140.9920 C   0  0  1  0  0  3  0  0  0  0  0  0
  184.5820  176.6190  135.3290 C   0  0  0  0  0  2  0  0  0  0  0  0
  179.0840  178.5320  139.8860 C   0  0  0  0  0  2  0  0  0  0  0  0
  179.2920  177.4600  138.8110 C   0  0  0  0  0  2  0  0  0  0  0  0
  181.7100  177.8800  139.5240 C   0  0  2  0  0  3  0  0  0  0  0  0
  180.0190  181.0210  135.3980 C   0  0  0  0  0  3  0  0  0  0  0  0
  180.7980  178.5840  136.5420 C   0  0  0  0  0  0  0  0  0  0  0  0
  181.1940  179.7980  137.1240 C   0  0  0  0  0  3  0  0  0  0  0  0
  180.8060  181.0120  136.5520 C   0  0  0  0  0  3  0  0  0  0  0  0
  179.6210  179.8150  134.8140 C   0  0  0  0  0  3  0  0  0  0  0  0
  180.0090  178.6000  135.3850 C   0  0  0  0  0  3  0  0  0  0  0  0
  1 20  1  0  0  0  0
  1 15  1  1  0  0  0
  1 21  1  0  0  0  0
  2  6  1  6  0  0  0
  2 12  1  0  0  0  0
  2 11  1  0  0  0  0
  4 14  1  0  0  0  0
  4 13  1  0  0  0  0
  9  7  1  0  0  0  0
 10 19  1  6  0  0  0
 10  8  1  0  0  0  0
 11  3  1  1  0  0  0
 12 23  1  1  0  0  0
 12  1  1  0  0  0  0
 13  5  1  1  0  0  0
 13  9  1  0  0  0  0
 14 18  1  6  0  0  0
 14 16  1  0  0  0  0
 16 11  1  0  0  0  0
 16  7  1  1  0  0  0
 17 10  1  0  0  0  0
 17  8  1  1  0  0  0
 18  6  1  0  0  0  0
 20 19  1  0  0  0  0
 21  3  1  1  0  0  0
 21 17  1  0  0  0  0
 22 25  1  0  0  0  0
 23 24  1  0  0  0  0
 25 24  2  0  0  0  0
 26 27  1  0  0  0  0
 26 22  2  0  0  0  0
 27 23  2  0  0  0  0
M  END
>  <MODEL>
9

>  <REMARK>
 VINA RESULT:      -5.2      3.032      6.213
  Name = 
  1 active torsions:
  status: ('A' for Active; 'I' for Inactive)
    1  A    between atoms: C_9  and  C_15
                            x       y       z     vdW  Elec       q    Type
                         _______ _______ _______ _____ _____    ______ ____

>  <TORSDO>
F 1

$$$$
