=
 OpenBabel10262421083D

 32 38  0  0  1  0  0  0  0  0999 V2000
  186.4350  178.2250  141.6780 C   0  0  0  0  0  0  0  0  0  0  0  0
  187.9340  177.5000  143.4550 C   0  0  0  0  0  0  0  0  0  0  0  0
  186.2240  178.5270  140.3250 C   0  0  0  0  0  3  0  0  0  0  0  0
  187.7180  177.8100  142.1030 C   0  0  0  0  0  0  0  0  0  0  0  0
  189.2780  176.9420  143.8990 C   0  0  2  0  0  3  0  0  0  0  0  0
  186.6580  178.5830  147.9770 C   0  0  0  0  0  3  0  0  0  0  0  0
  186.8950  177.6990  144.3750 C   0  0  0  0  0  0  0  0  0  0  0  0
  188.9450  177.8290  147.5620 C   0  0  0  0  0  3  0  0  0  0  0  0
  188.6420  177.8630  146.0890 C   0  0  1  0  0  3  0  0  0  0  0  0
  188.7820  177.7520  141.1780 C   0  0  0  0  0  0  0  0  0  0  0  0
  189.5350  176.9640  145.3570 N   0  0  0  0  0  2  0  0  0  0  0  0
  190.1650  177.3290  141.5990 C   0  0  0  0  0  2  0  0  0  0  0  0
  188.5460  178.0510  139.8340 C   0  0  0  0  0  3  0  0  0  0  0  0
  185.6650  178.0870  143.9410 N   0  0  0  0  0  0  0  0  0  0  0  0
  185.4040  178.3400  142.6290 C   0  0  0  0  0  0  0  0  0  0  0  0
  187.1760  177.4860  145.8300 C   0  0  1  0  0  3  0  0  0  0  0  0
  190.4160  177.5720  143.0920 C   0  0  2  0  0  3  0  0  0  0  0  0
  187.2730  178.4360  139.4080 C   0  0  0  0  0  3  0  0  0  0  0  0
  188.0110  178.2120  148.4420 C   0  0  0  0  0  3  0  0  0  0  0  0
  186.2670  178.2840  146.7330 C   0  0  0  0  0  3  0  0  0  0  0  0
  181.7300  179.2000  143.0000 C   0  0  2  0  0  3  0  0  0  0  0  0
  181.6060  179.9530  139.2240 O   0  0  0  0  0  0  0  0  0  0  0  0
  180.6990  178.5630  143.9140 C   0  0  0  0  0  1  0  0  0  0  0  0
  182.0480  177.9160  140.7080 C   0  0  2  0  0  3  0  0  0  0  0  0
  184.0160  178.7630  142.2250 C   0  0  1  0  0  3  0  0  0  0  0  0
  181.4940  178.7670  141.6490 N   0  0  0  0  0  0  0  0  0  0  0  0
  183.5480  177.8490  141.0460 C   0  0  0  0  0  2  0  0  0  0  0  0
  183.0830  178.7620  143.3880 N   0  0  0  0  0  0  0  0  0  0  0  0
  183.5540  179.7560  144.3470 C   0  0  0  0  0  1  0  0  0  0  0  0
  181.6620  179.1280  140.1720 C   0  0  0  0  0  0  0  0  0  0  0  0
  191.7550  176.9620  143.4790 C   0  0  0  0  0  2  0  0  0  0  0  0
  191.6460  175.5730  143.5380 O   0  0  0  0  0  1  0  0  0  0  0  0
  1  4  1  0  0  0  0
  1 15  2  0  0  0  0
  2  7  1  0  0  0  0
  3  1  1  0  0  0  0
  4  2  2  0  0  0  0
  5  2  1  1  0  0  0
  5 11  1  0  0  0  0
  6 19  1  0  0  0  0
  7 16  1  0  0  0  0
  8 19  2  0  0  0  0
  9  8  1  1  0  0  0
 10 12  1  0  0  0  0
 10  4  1  0  0  0  0
 11  9  1  0  0  0  0
 12 17  1  0  0  0  0
 13 10  2  0  0  0  0
 14  7  2  0  0  0  0
 15 14  1  0  0  0  0
 16  9  1  0  0  0  0
 16 20  1  1  0  0  0
 17 31  1  1  0  0  0
 17  5  1  0  0  0  0
 18 13  1  0  0  0  0
 18  3  2  0  0  0  0
 20  6  2  0  0  0  0
 21 28  1  0  0  0  0
 21 23  1  1  0  0  0
 22 30  2  0  0  0  0
 24 27  1  1  0  0  0
 24 26  1  0  0  0  0
 25 15  1  1  0  0  0
 25 28  1  0  0  0  0
 26 21  1  0  0  0  0
 27 25  1  0  0  0  0
 28 29  1  0  0  0  0
 30 24  1  0  0  0  0
 30 26  1  0  0  0  0
 31 32  1  0  0  0  0
M  END
>  <MODEL>
1

>  <REMARK>
 VINA RESULT:     -10.9      0.000      0.000
  Name = 
  2 active torsions:
  status: ('A' for Active; 'I' for Inactive)
    1  A    between atoms: C_13  and  C_29
    2  A    between atoms: C_16  and  C_27
                            x       y       z     vdW  Elec       q    Type
                         _______ _______ _______ _____ _____    ______ ____

>  <TORSDO>
F 2

$$$$
=
 OpenBabel10262421083D

 32 38  0  0  1  0  0  0  0  0999 V2000
  184.5530  178.6650  142.1460 C   0  0  0  0  0  0  0  0  0  0  0  0
  186.9680  178.3770  142.0300 C   0  0  0  0  0  0  0  0  0  0  0  0
  183.3820  178.7530  142.9140 C   0  0  0  0  0  3  0  0  0  0  0  0
  185.7920  178.4600  142.7930 C   0  0  0  0  0  0  0  0  0  0  0  0
  188.3170  178.2730  142.7260 C   0  0  2  0  0  3  0  0  0  0  0  0
  188.8060  176.9640  137.8030 C   0  0  0  0  0  3  0  0  0  0  0  0
  186.8770  178.4090  140.6320 C   0  0  0  0  0  0  0  0  0  0  0  0
  190.2280  176.8500  139.7870 C   0  0  0  0  0  3  0  0  0  0  0  0
  189.0320  177.2380  140.6130 C   0  0  1  0  0  3  0  0  0  0  0  0
  185.8370  178.2940  144.1940 C   0  0  0  0  0  0  0  0  0  0  0  0
  189.4510  177.8550  141.8710 N   0  0  0  0  0  2  0  0  0  0  0  0
  187.1380  178.0570  144.9150 C   0  0  0  0  0  2  0  0  0  0  0  0
  184.6590  178.3910  144.9390 C   0  0  0  0  0  3  0  0  0  0  0  0
  185.6740  178.6210  140.0310 N   0  0  0  0  0  0  0  0  0  0  0  0
  184.5210  178.7630  140.7430 C   0  0  0  0  0  0  0  0  0  0  0  0
  188.1210  178.1930  139.8280 C   0  0  1  0  0  3  0  0  0  0  0  0
  188.2010  177.4350  144.0020 C   0  0  2  0  0  3  0  0  0  0  0  0
  183.4370  178.6210  144.3040 C   0  0  0  0  0  3  0  0  0  0  0  0
  190.0980  176.6830  138.4660 C   0  0  0  0  0  3  0  0  0  0  0  0
  187.8490  177.6390  138.4510 C   0  0  0  0  0  3  0  0  0  0  0  0
  181.6350  178.0860  138.3800 C   0  0  2  0  0  3  0  0  0  0  0  0
  180.1010  181.4650  139.4130 O   0  0  0  0  0  0  0  0  0  0  0  0
  181.6610  177.3830  137.0350 C   0  0  0  0  0  1  0  0  0  0  0  0
  182.2280  180.6610  138.2400 C   0  0  2  0  0  3  0  0  0  0  0  0
  183.2290  178.9970  140.0070 C   0  0  1  0  0  3  0  0  0  0  0  0
  181.4770  179.5000  138.1710 N   0  0  0  0  0  0  0  0  0  0  0  0
  183.3160  180.3860  139.2930 C   0  0  0  0  0  2  0  0  0  0  0  0
  182.9120  177.8700  139.0840 N   0  0  0  0  0  0  0  0  0  0  0  0
  182.7160  176.6680  139.8870 C   0  0  0  0  0  1  0  0  0  0  0  0
  180.9660  180.8070  138.7820 C   0  0  0  0  0  0  0  0  0  0  0  0
  189.5300  177.3910  144.7410 C   0  0  0  0  0  2  0  0  0  0  0  0
  189.3120  177.1630  146.1000 O   0  0  0  0  0  1  0  0  0  0  0  0
  1  4  2  0  0  0  0
  1  3  1  0  0  0  0
  2  5  1  0  0  0  0
  2  4  1  0  0  0  0
  3 18  2  0  0  0  0
  4 10  1  0  0  0  0
  5 11  1  6  0  0  0
  5 17  1  0  0  0  0
  6 20  2  0  0  0  0
  6 19  1  0  0  0  0
  7  2  2  0  0  0  0
  9  8  1  6  0  0  0
  9 11  1  0  0  0  0
 10 12  1  0  0  0  0
 10 13  2  0  0  0  0
 14  7  1  0  0  0  0
 14 15  2  0  0  0  0
 15  1  1  0  0  0  0
 16 20  1  6  0  0  0
 16  9  1  0  0  0  0
 16  7  1  0  0  0  0
 17 31  1  1  0  0  0
 17 12  1  0  0  0  0
 18 13  1  0  0  0  0
 19  8  2  0  0  0  0
 21 23  1  6  0  0  0
 21 28  1  0  0  0  0
 24 30  1  0  0  0  0
 24 27  1  1  0  0  0
 25 15  1  6  0  0  0
 26 24  1  0  0  0  0
 26 21  1  0  0  0  0
 26 30  1  0  0  0  0
 27 25  1  0  0  0  0
 28 29  1  0  0  0  0
 28 25  1  0  0  0  0
 30 22  2  0  0  0  0
 31 32  1  0  0  0  0
M  END
>  <MODEL>
2

>  <REMARK>
 VINA RESULT:     -10.7      2.181      5.053
  Name = 
  2 active torsions:
  status: ('A' for Active; 'I' for Inactive)
    1  A    between atoms: C_13  and  C_29
    2  A    between atoms: C_16  and  C_27
                            x       y       z     vdW  Elec       q    Type
                         _______ _______ _______ _____ _____    ______ ____

>  <TORSDO>
F 2

$$$$
=
 OpenBabel10262421083D

 32 38  0  0  1  0  0  0  0  0999 V2000
  189.4000  177.6130  141.7490 C   0  0  0  0  0  0  0  0  0  0  0  0
  188.6320  177.2810  144.0350 C   0  0  0  0  0  0  0  0  0  0  0  0
  190.4540  177.6770  140.8260 C   0  0  0  0  0  3  0  0  0  0  0  0
  189.6840  177.3520  143.1080 C   0  0  0  0  0  0  0  0  0  0  0  0
  188.9180  176.8860  145.4770 C   0  0  2  0  0  3  0  0  0  0  0  0
  184.2700  179.0030  145.1560 C   0  0  0  0  0  3  0  0  0  0  0  0
  187.3270  177.5610  143.6090 C   0  0  0  0  0  0  0  0  0  0  0  0
  185.7600  178.3350  146.9740 C   0  0  0  0  0  3  0  0  0  0  0  0
  186.8380  178.1100  145.9490 C   0  0  1  0  0  3  0  0  0  0  0  0
  191.0220  177.2100  143.5340 C   0  0  0  0  0  0  0  0  0  0  0  0
  187.8340  177.1610  146.4470 N   0  0  0  0  0  2  0  0  0  0  0  0
  191.3620  176.9480  144.9770 C   0  0  0  0  0  2  0  0  0  0  0  0
  192.0560  177.2720  142.5950 C   0  0  0  0  0  3  0  0  0  0  0  0
  187.0750  177.7960  142.2920 N   0  0  0  0  0  0  0  0  0  0  0  0
  188.0640  177.8160  141.3560 C   0  0  0  0  0  0  0  0  0  0  0  0
  186.2340  177.6060  144.6310 C   0  0  1  0  0  3  0  0  0  0  0  0
  190.2690  177.4460  145.9300 C   0  0  2  0  0  3  0  0  0  0  0  0
  191.7740  177.5030  141.2470 C   0  0  0  0  0  3  0  0  0  0  0  0
  184.5640  178.7970  146.5900 C   0  0  0  0  0  3  0  0  0  0  0  0
  185.0750  178.4820  144.2220 C   0  0  0  0  0  3  0  0  0  0  0  0
  185.8820  178.2550  138.2860 C   0  0  2  0  0  3  0  0  0  0  0  0
  189.0560  179.0030  136.2350 O   0  0  0  0  0  0  0  0  0  0  0  0
  184.6190  177.5020  137.9110 C   0  0  0  0  0  1  0  0  0  0  0  0
  188.1050  177.0240  137.5480 C   0  0  2  0  0  3  0  0  0  0  0  0
  187.7060  178.0820  139.9170 C   0  0  1  0  0  3  0  0  0  0  0  0
  186.9650  177.8030  137.4550 N   0  0  0  0  0  0  0  0  0  0  0  0
  188.5540  177.1250  139.0170 C   0  0  0  0  0  2  0  0  0  0  0  0
  186.2370  177.9710  139.6890 N   0  0  0  0  0  0  0  0  0  0  0  0
  185.5770  179.0080  140.4740 C   0  0  0  0  0  1  0  0  0  0  0  0
  188.3090  178.1860  136.8320 C   0  0  0  0  0  0  0  0  0  0  0  0
  190.5950  176.9910  147.3450 C   0  0  0  0  0  2  0  0  0  0  0  0
  191.9640  176.7520  147.4660 O   0  0  0  0  0  1  0  0  0  0  0  0
  1  4  1  0  0  0  0
  3 18  2  0  0  0  0
  3  1  1  0  0  0  0
  4 10  1  0  0  0  0
  4  2  2  0  0  0  0
  5  2  1  6  0  0  0
  5 17  1  0  0  0  0
  5 11  1  0  0  0  0
  6 19  1  0  0  0  0
  7  2  1  0  0  0  0
  7 16  1  0  0  0  0
  9 11  1  0  0  0  0
  9  8  1  1  0  0  0
 10 12  1  0  0  0  0
 12 17  1  0  0  0  0
 13 10  2  0  0  0  0
 14  7  2  0  0  0  0
 15  1  2  0  0  0  0
 15 14  1  0  0  0  0
 16 20  1  6  0  0  0
 16  9  1  0  0  0  0
 17 31  1  1  0  0  0
 18 13  1  0  0  0  0
 19  8  2  0  0  0  0
 20  6  2  0  0  0  0
 21 23  1  6  0  0  0
 21 28  1  0  0  0  0
 22 30  2  0  0  0  0
 24 27  1  1  0  0  0
 25 15  1  1  0  0  0
 26 24  1  0  0  0  0
 26 21  1  0  0  0  0
 27 25  1  0  0  0  0
 28 25  1  0  0  0  0
 28 29  1  0  0  0  0
 30 26  1  0  0  0  0
 30 24  1  0  0  0  0
 31 32  1  0  0  0  0
M  END
>  <MODEL>
3

>  <REMARK>
 VINA RESULT:     -10.5      2.684      4.411
  Name = 
  2 active torsions:
  status: ('A' for Active; 'I' for Inactive)
    1  A    between atoms: C_13  and  C_29
    2  A    between atoms: C_16  and  C_27
                            x       y       z     vdW  Elec       q    Type
                         _______ _______ _______ _____ _____    ______ ____

>  <TORSDO>
F 2

$$$$
=
 OpenBabel10262421083D

 32 38  0  0  1  0  0  0  0  0999 V2000
  190.0040  177.5080  142.7310 C   0  0  0  0  0  0  0  0  0  0  0  0
  187.9460  177.4950  144.0320 C   0  0  0  0  0  0  0  0  0  0  0  0
  191.4060  177.5190  142.6880 C   0  0  0  0  0  3  0  0  0  0  0  0
  189.3490  177.5110  143.9830 C   0  0  0  0  0  0  0  0  0  0  0  0
  187.2360  177.3800  145.3730 C   0  0  2  0  0  3  0  0  0  0  0  0
  183.9280  178.9430  141.7970 C   0  0  0  0  0  3  0  0  0  0  0  0
  187.2210  177.5690  142.8350 C   0  0  0  0  0  0  0  0  0  0  0  0
  183.8970  178.7430  144.2310 C   0  0  0  0  0  3  0  0  0  0  0  0
  185.3730  178.4550  144.1820 C   0  0  1  0  0  3  0  0  0  0  0  0
  190.1050  177.5760  145.1730 C   0  0  0  0  0  0  0  0  0  0  0  0
  185.7930  177.7070  145.3680 N   0  0  0  0  0  2  0  0  0  0  0  0
  189.4400  177.5970  146.5250 C   0  0  0  0  0  2  0  0  0  0  0  0
  191.5010  177.5790  145.1060 C   0  0  0  0  0  3  0  0  0  0  0  0
  187.8730  177.5520  141.6410 N   0  0  0  0  0  0  0  0  0  0  0  0
  189.2310  177.5100  141.5550 C   0  0  0  0  0  0  0  0  0  0  0  0
  185.7300  177.6780  142.9080 C   0  0  1  0  0  3  0  0  0  0  0  0
  188.0070  178.1390  146.4570 C   0  0  2  0  0  3  0  0  0  0  0  0
  192.1490  177.5500  143.8700 C   0  0  0  0  0  3  0  0  0  0  0  0
  183.2350  179.0130  143.1000 C   0  0  0  0  0  3  0  0  0  0  0  0
  185.1260  178.3540  141.7000 C   0  0  0  0  0  3  0  0  0  0  0  0
  189.5320  177.7860  137.7850 C   0  0  2  0  0  3  0  0  0  0  0  0
  193.2850  176.9750  138.1060 O   0  0  0  0  0  0  0  0  0  0  0  0
  188.5230  177.3840  136.7260 C   0  0  0  0  0  1  0  0  0  0  0  0
  191.0710  175.7890  138.5910 C   0  0  2  0  0  3  0  0  0  0  0  0
  189.8800  177.4920  140.1960 C   0  0  1  0  0  3  0  0  0  0  0  0
  190.6050  176.8270  137.8030 N   0  0  0  0  0  0  0  0  0  0  0  0
  190.6180  176.1240  140.0240 C   0  0  0  0  0  2  0  0  0  0  0  0
  188.8950  177.7790  139.1150 N   0  0  0  0  0  0  0  0  0  0  0  0
  188.3900  179.1340  139.3100 C   0  0  0  0  0  1  0  0  0  0  0  0
  192.0830  176.6080  138.1320 C   0  0  0  0  0  0  0  0  0  0  0  0
  187.3430  177.9640  147.8150 C   0  0  0  0  0  2  0  0  0  0  0  0
  188.2800  178.1510  148.8310 O   0  0  0  0  0  1  0  0  0  0  0  0
  1  4  1  0  0  0  0
  3  1  2  0  0  0  0
  3 18  1  0  0  0  0
  4  2  1  0  0  0  0
  4 10  2  0  0  0  0
  5  2  1  6  0  0  0
  5 17  1  0  0  0  0
  6 19  1  0  0  0  0
  7 16  1  0  0  0  0
  7  2  2  0  0  0  0
  9  8  1  1  0  0  0
  9 11  1  0  0  0  0
 10 12  1  0  0  0  0
 11  5  1  0  0  0  0
 13 10  1  0  0  0  0
 14  7  1  0  0  0  0
 15 14  2  0  0  0  0
 15  1  1  0  0  0  0
 16 20  1  6  0  0  0
 16  9  1  0  0  0  0
 17 12  1  0  0  0  0
 17 31  1  1  0  0  0
 18 13  2  0  0  0  0
 19  8  2  0  0  0  0
 20  6  2  0  0  0  0
 21 23  1  6  0  0  0
 21 26  1  0  0  0  0
 21 28  1  0  0  0  0
 22 30  2  0  0  0  0
 24 27  1  1  0  0  0
 25 15  1  1  0  0  0
 26 30  1  0  0  0  0
 26 24  1  0  0  0  0
 27 25  1  0  0  0  0
 28 29  1  0  0  0  0
 28 25  1  0  0  0  0
 30 24  1  0  0  0  0
 31 32  1  0  0  0  0
M  END
>  <MODEL>
4

>  <REMARK>
 VINA RESULT:     -10.1      2.976      6.559
  Name = 
  2 active torsions:
  status: ('A' for Active; 'I' for Inactive)
    1  A    between atoms: C_13  and  C_29
    2  A    between atoms: C_16  and  C_27
                            x       y       z     vdW  Elec       q    Type
                         _______ _______ _______ _____ _____    ______ ____

>  <TORSDO>
F 2

$$$$
=
 OpenBabel10262421083D

 32 38  0  0  1  0  0  0  0  0999 V2000
  185.0910  178.5070  141.4510 C   0  0  0  0  0  0  0  0  0  0  0  0
  187.4150  178.2670  140.7640 C   0  0  0  0  0  0  0  0  0  0  0  0
  184.1290  178.5220  142.4710 C   0  0  0  0  0  3  0  0  0  0  0  0
  186.4460  178.2780  141.7810 C   0  0  0  0  0  0  0  0  0  0  0  0
  188.8880  178.1370  141.1230 C   0  0  2  0  0  3  0  0  0  0  0  0
  188.2330  177.1780  136.1390 C   0  0  0  0  0  3  0  0  0  0  0  0
  187.0050  178.3930  139.4300 C   0  0  0  0  0  0  0  0  0  0  0  0
  190.0720  176.9510  137.7320 C   0  0  0  0  0  3  0  0  0  0  0  0
  189.0980  177.2620  138.8340 C   0  0  1  0  0  3  0  0  0  0  0  0
  186.8120  178.0160  143.1190 C   0  0  0  0  0  0  0  0  0  0  0  0
  189.7960  177.7970  140.0040 N   0  0  0  0  0  2  0  0  0  0  0  0
  188.2440  177.7520  143.5030 C   0  0  0  0  0  2  0  0  0  0  0  0
  185.8370  178.0430  144.1190 C   0  0  0  0  0  3  0  0  0  0  0  0
  185.6960  178.6270  139.1380 N   0  0  0  0  0  0  0  0  0  0  0  0
  184.7380  178.7000  140.1030 C   0  0  0  0  0  0  0  0  0  0  0  0
  188.0320  178.2540  138.3490 C   0  0  1  0  0  3  0  0  0  0  0  0
  189.0690  177.2120  142.3290 C   0  0  2  0  0  3  0  0  0  0  0  0
  184.5010  178.2960  143.7980 C   0  0  0  0  0  3  0  0  0  0  0  0
  189.6420  176.8730  136.4660 C   0  0  0  0  0  3  0  0  0  0  0  0
  187.4500  177.7910  137.0350 C   0  0  0  0  0  3  0  0  0  0  0  0
  181.3880  178.1430  138.4170 C   0  0  2  0  0  3  0  0  0  0  0  0
  180.1270  181.4090  140.0250 O   0  0  0  0  0  0  0  0  0  0  0  0
  181.1060  177.5410  137.0530 C   0  0  0  0  0  1  0  0  0  0  0  0
  181.9290  180.7330  138.3400 C   0  0  2  0  0  3  0  0  0  0  0  0
  183.3110  178.9640  139.7010 C   0  0  1  0  0  3  0  0  0  0  0  0
  181.1850  179.5660  138.3570 N   0  0  0  0  0  0  0  0  0  0  0  0
  183.2300  180.4020  139.0930 C   0  0  0  0  0  2  0  0  0  0  0  0
  182.7930  177.9010  138.7930 N   0  0  0  0  0  0  0  0  0  0  0  0
  182.7880  176.6400  139.5270 C   0  0  0  0  0  1  0  0  0  0  0  0
  180.8250  180.8150  139.1650 C   0  0  0  0  0  0  0  0  0  0  0  0
  190.5330  177.1380  142.7390 C   0  0  0  0  0  2  0  0  0  0  0  0
  190.7710  175.9590  143.4450 O   0  0  0  0  0  1  0  0  0  0  0  0
  1  4  2  0  0  0  0
  1  3  1  0  0  0  0
  2  5  1  0  0  0  0
  2  4  1  0  0  0  0
  3 18  2  0  0  0  0
  4 10  1  0  0  0  0
  5 11  1  6  0  0  0
  5 17  1  0  0  0  0
  6 19  1  0  0  0  0
  6 20  2  0  0  0  0
  7  2  2  0  0  0  0
  9  8  1  6  0  0  0
  9 11  1  0  0  0  0
 10 12  1  0  0  0  0
 10 13  2  0  0  0  0
 14  7  1  0  0  0  0
 14 15  2  0  0  0  0
 15  1  1  0  0  0  0
 16 20  1  6  0  0  0
 16  9  1  0  0  0  0
 16  7  1  0  0  0  0
 17 31  1  1  0  0  0
 17 12  1  0  0  0  0
 18 13  1  0  0  0  0
 19  8  2  0  0  0  0
 21 23  1  6  0  0  0
 21 28  1  0  0  0  0
 24 26  1  0  0  0  0
 24 27  1  1  0  0  0
 24 30  1  0  0  0  0
 25 15  1  6  0  0  0
 26 21  1  0  0  0  0
 26 30  1  0  0  0  0
 27 25  1  0  0  0  0
 28 29  1  0  0  0  0
 28 25  1  0  0  0  0
 30 22  2  0  0  0  0
 31 32  1  0  0  0  0
M  END
>  <MODEL>
5

>  <REMARK>
 VINA RESULT:     -10.0      2.584      5.487
  Name = 
  2 active torsions:
  status: ('A' for Active; 'I' for Inactive)
    1  A    between atoms: C_13  and  C_29
    2  A    between atoms: C_16  and  C_27
                            x       y       z     vdW  Elec       q    Type
                         _______ _______ _______ _____ _____    ______ ____

>  <TORSDO>
F 2

$$$$
=
 OpenBabel10262421083D

 32 38  0  0  1  0  0  0  0  0999 V2000
  188.8030  177.3550  142.7350 C   0  0  0  0  0  0  0  0  0  0  0  0
  186.8870  178.3770  141.6350 C   0  0  0  0  0  0  0  0  0  0  0  0
  190.0610  176.7420  142.6470 C   0  0  0  0  0  3  0  0  0  0  0  0
  188.1440  177.7580  141.5520 C   0  0  0  0  0  0  0  0  0  0  0  0
  186.2240  178.9180  140.3770 C   0  0  2  0  0  3  0  0  0  0  0  0
  182.7690  178.5710  144.1340 C   0  0  0  0  0  3  0  0  0  0  0  0
  186.2690  178.5010  142.8870 C   0  0  0  0  0  0  0  0  0  0  0  0
  182.6930  179.0070  141.7320 C   0  0  0  0  0  3  0  0  0  0  0  0
  184.1470  178.6300  141.6620 C   0  0  1  0  0  3  0  0  0  0  0  0
  188.7290  177.4950  140.2950 C   0  0  0  0  0  0  0  0  0  0  0  0
  184.7840  179.2410  140.4950 N   0  0  0  0  0  2  0  0  0  0  0  0
  188.0470  177.8950  139.0130 C   0  0  0  0  0  2  0  0  0  0  0  0
  189.9860  176.8880  140.2310 C   0  0  0  0  0  3  0  0  0  0  0  0
  186.9290  178.1180  144.0140 N   0  0  0  0  0  0  0  0  0  0  0  0
  188.1730  177.5660  143.9760 C   0  0  0  0  0  0  0  0  0  0  0  0
  184.8770  179.0480  142.9470 C   0  0  1  0  0  3  0  0  0  0  0  0
  186.5270  178.0150  139.1780 C   0  0  2  0  0  3  0  0  0  0  0  0
  190.6510  176.5140  141.4010 C   0  0  0  0  0  3  0  0  0  0  0  0
  182.0430  178.9350  142.8990 C   0  0  0  0  0  3  0  0  0  0  0  0
  184.1070  178.5790  144.1580 C   0  0  0  0  0  3  0  0  0  0  0  0
  188.6970  177.2220  147.7150 C   0  0  2  0  0  3  0  0  0  0  0  0
  191.9690  175.3190  147.0010 O   0  0  0  0  0  0  0  0  0  0  0  0
  188.3500  178.2120  148.8110 C   0  0  0  0  0  1  0  0  0  0  0  0
  191.0500  177.6710  146.5910 C   0  0  2  0  0  3  0  0  0  0  0  0
  188.8400  177.1700  145.2660 C   0  0  1  0  0  3  0  0  0  0  0  0
  190.1210  177.2210  147.5130 N   0  0  0  0  0  0  0  0  0  0  0  0
  190.3110  177.7000  145.2410 C   0  0  0  0  0  2  0  0  0  0  0  0
  188.0580  177.6300  146.4500 N   0  0  0  0  0  0  0  0  0  0  0  0
  186.7660  176.9550  146.4310 C   0  0  0  0  0  1  0  0  0  0  0  0
  191.3180  176.3940  147.0410 C   0  0  0  0  0  0  0  0  0  0  0  0
  185.9310  178.5910  137.9020 C   0  0  0  0  0  2  0  0  0  0  0  0
  186.9500  178.9990  137.0410 O   0  0  0  0  0  1  0  0  0  0  0  0
  1 15  2  0  0  0  0
  2  7  1  0  0  0  0
  3  1  1  0  0  0  0
  4  2  2  0  0  0  0
  4  1  1  0  0  0  0
  5 11  1  1  0  0  0
  5  2  1  0  0  0  0
  6 20  2  0  0  0  0
  7 16  1  0  0  0  0
  7 14  2  0  0  0  0
  8 19  2  0  0  0  0
  9  8  1  1  0  0  0
  9 16  1  0  0  0  0
 10  4  1  0  0  0  0
 11  9  1  0  0  0  0
 12 17  1  0  0  0  0
 12 10  1  0  0  0  0
 13 10  2  0  0  0  0
 13 18  1  0  0  0  0
 15 14  1  0  0  0  0
 16 20  1  1  0  0  0
 17 31  1  6  0  0  0
 17  5  1  0  0  0  0
 18  3  2  0  0  0  0
 19  6  1  0  0  0  0
 21 23  1  1  0  0  0
 22 30  2  0  0  0  0
 24 27  1  6  0  0  0
 24 30  1  0  0  0  0
 24 26  1  0  0  0  0
 25 15  1  6  0  0  0
 25 28  1  0  0  0  0
 26 21  1  0  0  0  0
 27 25  1  0  0  0  0
 28 21  1  0  0  0  0
 29 28  1  0  0  0  0
 30 26  1  0  0  0  0
 32 31  1  0  0  0  0
M  END
>  <MODEL>
6

>  <REMARK>
 VINA RESULT:     -10.0      1.853      6.742
  Name = 
  2 active torsions:
  status: ('A' for Active; 'I' for Inactive)
    1  A    between atoms: C_13  and  C_29
    2  A    between atoms: C_16  and  C_27
                            x       y       z     vdW  Elec       q    Type
                         _______ _______ _______ _____ _____    ______ ____

>  <TORSDO>
F 2

$$$$
=
 OpenBabel10262421083D

 32 38  0  0  1  0  0  0  0  0999 V2000
  185.7030  178.1130  144.2080 C   0  0  0  0  0  0  0  0  0  0  0  0
  187.9530  178.1790  143.2780 C   0  0  0  0  0  0  0  0  0  0  0  0
  184.8600  178.0110  145.3240 C   0  0  0  0  0  3  0  0  0  0  0  0
  187.1040  178.0720  144.3910 C   0  0  0  0  0  0  0  0  0  0  0  0
  189.4590  178.2530  143.4780 C   0  0  2  0  0  3  0  0  0  0  0  0
  188.4190  177.1550  138.5900 C   0  0  0  0  0  3  0  0  0  0  0  0
  187.3910  178.2330  141.9950 C   0  0  0  0  0  0  0  0  0  0  0  0
  190.4290  177.1960  139.9780 C   0  0  0  0  0  3  0  0  0  0  0  0
  189.5440  177.3870  141.1780 C   0  0  1  0  0  3  0  0  0  0  0  0
  187.6400  177.8780  145.6820 C   0  0  0  0  0  0  0  0  0  0  0  0
  190.2810  178.0250  142.2680 N   0  0  0  0  0  2  0  0  0  0  0  0
  189.1270  177.8130  145.9120 C   0  0  0  0  0  2  0  0  0  0  0  0
  186.7810  177.7850  146.7800 C   0  0  0  0  0  3  0  0  0  0  0  0
  186.0390  178.2850  141.8430 N   0  0  0  0  0  0  0  0  0  0  0  0
  185.1870  178.2400  142.9040 C   0  0  0  0  0  0  0  0  0  0  0  0
  188.3080  178.2200  140.8110 C   0  0  1  0  0  3  0  0  0  0  0  0
  189.8890  177.3750  144.6560 C   0  0  2  0  0  3  0  0  0  0  0  0
  185.3970  177.8520  146.6030 C   0  0  0  0  0  3  0  0  0  0  0  0
  189.8820  177.0460  138.7650 C   0  0  0  0  0  3  0  0  0  0  0  0
  187.6590  177.6680  139.5650 C   0  0  0  0  0  3  0  0  0  0  0  0
  181.9470  178.6650  140.9820 C   0  0  2  0  0  3  0  0  0  0  0  0
  180.0150  177.9730  144.2430 O   0  0  0  0  0  0  0  0  0  0  0  0
  181.6450  179.6170  139.8390 C   0  0  0  0  0  1  0  0  0  0  0  0
  181.6350  179.7530  143.3750 C   0  0  2  0  0  3  0  0  0  0  0  0
  183.7030  178.3050  142.6570 C   0  0  1  0  0  3  0  0  0  0  0  0
  181.3040  179.1430  142.1770 N   0  0  0  0  0  0  0  0  0  0  0  0
  183.0800  179.3150  143.6740 C   0  0  0  0  0  2  0  0  0  0  0  0
  183.3990  178.6260  141.2330 N   0  0  0  0  0  0  0  0  0  0  0  0
  183.9080  177.5390  140.4040 C   0  0  0  0  0  1  0  0  0  0  0  0
  180.7120  178.7380  143.5280 C   0  0  0  0  0  0  0  0  0  0  0  0
  191.3840  177.5040  144.9080 C   0  0  0  0  0  2  0  0  0  0  0  0
  191.6800  177.1280  146.2180 O   0  0  0  0  0  1  0  0  0  0  0  0
  1  4  2  0  0  0  0
  1  3  1  0  0  0  0
  2  5  1  0  0  0  0
  2  4  1  0  0  0  0
  3 18  2  0  0  0  0
  4 10  1  0  0  0  0
  5 11  1  6  0  0  0
  5 17  1  0  0  0  0
  6 19  1  0  0  0  0
  6 20  2  0  0  0  0
  7  2  2  0  0  0  0
  9  8  1  6  0  0  0
  9 11  1  0  0  0  0
 10 12  1  0  0  0  0
 10 13  2  0  0  0  0
 14  7  1  0  0  0  0
 14 15  2  0  0  0  0
 15  1  1  0  0  0  0
 16 20  1  6  0  0  0
 16  9  1  0  0  0  0
 16  7  1  0  0  0  0
 17 31  1  1  0  0  0
 17 12  1  0  0  0  0
 18 13  1  0  0  0  0
 19  8  2  0  0  0  0
 21 23  1  6  0  0  0
 21 28  1  0  0  0  0
 21 26  1  0  0  0  0
 24 30  1  0  0  0  0
 24 27  1  1  0  0  0
 25 15  1  6  0  0  0
 25 27  1  0  0  0  0
 26 24  1  0  0  0  0
 26 30  1  0  0  0  0
 28 25  1  0  0  0  0
 29 28  1  0  0  0  0
 30 22  2  0  0  0  0
 31 32  1  0  0  0  0
M  END
>  <MODEL>
7

>  <REMARK>
 VINA RESULT:      -9.8      1.676      4.673
  Name = 
  2 active torsions:
  status: ('A' for Active; 'I' for Inactive)
    1  A    between atoms: C_13  and  C_29
    2  A    between atoms: C_16  and  C_27
                            x       y       z     vdW  Elec       q    Type
                         _______ _______ _______ _____ _____    ______ ____

>  <TORSDO>
F 2

$$$$
=
 OpenBabel10262421083D

 32 38  0  0  1  0  0  0  0  0999 V2000
  182.6450  178.7810  141.7170 C   0  0  0  0  0  0  0  0  0  0  0  0
  184.9130  178.8540  142.6000 C   0  0  0  0  0  0  0  0  0  0  0  0
  181.2620  178.7340  141.9430 C   0  0  0  0  0  3  0  0  0  0  0  0
  183.5280  178.8020  142.8210 C   0  0  0  0  0  0  0  0  0  0  0  0
  185.8630  178.9940  143.7800 C   0  0  2  0  0  3  0  0  0  0  0  0
  188.4650  177.4980  139.6360 C   0  0  0  0  0  3  0  0  0  0  0  0
  185.3970  178.7930  141.2860 C   0  0  0  0  0  0  0  0  0  0  0  0
  188.9570  177.7120  142.0200 C   0  0  0  0  0  3  0  0  0  0  0  0
  187.4920  177.9610  142.2540 C   0  0  1  0  0  3  0  0  0  0  0  0
  183.0160  178.7230  144.1340 C   0  0  0  0  0  0  0  0  0  0  0  0
  187.2880  178.7040  143.4980 N   0  0  0  0  0  2  0  0  0  0  0  0
  183.9280  178.7260  145.3320 C   0  0  0  0  0  2  0  0  0  0  0  0
  181.6340  178.6840  144.3350 C   0  0  0  0  0  3  0  0  0  0  0  0
  184.5280  178.7870  140.2390 N   0  0  0  0  0  0  0  0  0  0  0  0
  183.1780  178.7930  140.4150 C   0  0  0  0  0  0  0  0  0  0  0  0
  186.8770  178.7230  141.0710 C   0  0  1  0  0  3  0  0  0  0  0  0
  185.3350  178.2220  144.9910 C   0  0  2  0  0  3  0  0  0  0  0  0
  180.7600  178.6900  143.2460 C   0  0  0  0  0  3  0  0  0  0  0  0
  189.3970  177.4530  140.7820 C   0  0  0  0  0  3  0  0  0  0  0  0
  187.2560  178.0560  139.7710 C   0  0  0  0  0  3  0  0  0  0  0  0
  181.9070  177.8500  136.9690 C   0  0  2  0  0  3  0  0  0  0  0  0
  178.9310  180.2370  137.5020 O   0  0  0  0  0  0  0  0  0  0  0  0
  182.7090  177.5360  135.7210 C   0  0  0  0  0  1  0  0  0  0  0  0
  181.4750  180.4360  137.3280 C   0  0  2  0  0  3  0  0  0  0  0  0
  182.2810  178.7880  139.2050 C   0  0  1  0  0  3  0  0  0  0  0  0
  181.3130  179.1530  136.8350 N   0  0  0  0  0  0  0  0  0  0  0  0
  182.0950  180.2650  138.7260 C   0  0  0  0  0  2  0  0  0  0  0  0
  182.7960  177.8750  138.1450 N   0  0  0  0  0  0  0  0  0  0  0  0
  182.7840  176.5150  138.6720 C   0  0  0  0  0  1  0  0  0  0  0  0
  180.1510  180.0500  137.2650 C   0  0  0  0  0  0  0  0  0  0  0  0
  186.2420  178.4200  146.1970 C   0  0  0  0  0  2  0  0  0  0  0  0
  185.6150  179.2400  147.1350 O   0  0  0  0  0  1  0  0  0  0  0  0
  1  3  2  0  0  0  0
  1  4  1  0  0  0  0
  2  4  1  0  0  0  0
  3 18  1  0  0  0  0
  4 10  2  0  0  0  0
  5  2  1  6  0  0  0
  5 17  1  0  0  0  0
  6 20  2  0  0  0  0
  6 19  1  0  0  0  0
  7  2  2  0  0  0  0
  9  8  1  6  0  0  0
  9 11  1  0  0  0  0
 10 13  1  0  0  0  0
 10 12  1  0  0  0  0
 11  5  1  0  0  0  0
 14 15  2  0  0  0  0
 14  7  1  0  0  0  0
 15  1  1  0  0  0  0
 16 20  1  6  0  0  0
 16  7  1  0  0  0  0
 16  9  1  0  0  0  0
 17 12  1  0  0  0  0
 17 31  1  1  0  0  0
 18 13  2  0  0  0  0
 19  8  2  0  0  0  0
 21 23  1  6  0  0  0
 21 28  1  0  0  0  0
 24 27  1  1  0  0  0
 25 15  1  1  0  0  0
 26 21  1  0  0  0  0
 26 30  1  0  0  0  0
 26 24  1  0  0  0  0
 27 25  1  0  0  0  0
 28 29  1  0  0  0  0
 28 25  1  0  0  0  0
 30 24  1  0  0  0  0
 30 22  2  0  0  0  0
 31 32  1  0  0  0  0
M  END
>  <MODEL>
8

>  <REMARK>
 VINA RESULT:      -9.5      2.593      5.649
  Name = 
  2 active torsions:
  status: ('A' for Active; 'I' for Inactive)
    1  A    between atoms: C_13  and  C_29
    2  A    between atoms: C_16  and  C_27
                            x       y       z     vdW  Elec       q    Type
                         _______ _______ _______ _____ _____    ______ ____

>  <TORSDO>
F 2

$$$$
=
 OpenBabel10262421083D

 32 38  0  0  1  0  0  0  0  0999 V2000
  186.0000  178.3710  143.9950 C   0  0  0  0  0  0  0  0  0  0  0  0
  185.6030  178.1340  141.6040 C   0  0  0  0  0  0  0  0  0  0  0  0
  185.5060  178.6340  145.2810 C   0  0  0  0  0  3  0  0  0  0  0  0
  185.1160  178.4030  142.8930 C   0  0  0  0  0  0  0  0  0  0  0  0
  184.6390  178.0520  140.4310 C   0  0  2  0  0  3  0  0  0  0  0  0
  189.4290  178.5350  138.6970 C   0  0  0  0  0  3  0  0  0  0  0  0
  186.9780  177.9280  141.4240 C   0  0  0  0  0  0  0  0  0  0  0  0
  187.1980  178.6270  137.7050 C   0  0  0  0  0  3  0  0  0  0  0  0
  186.6260  178.6130  139.0960 C   0  0  1  0  0  3  0  0  0  0  0  0
  183.7610  178.7490  143.0860 C   0  0  0  0  0  0  0  0  0  0  0  0
  185.2550  178.1040  139.0860 N   0  0  0  0  0  2  0  0  0  0  0  0
  182.7950  178.8090  141.9320 C   0  0  0  0  0  2  0  0  0  0  0  0
  183.2900  179.0020  144.3770 C   0  0  0  0  0  3  0  0  0  0  0  0
  187.8080  177.8880  142.5030 N   0  0  0  0  0  0  0  0  0  0  0  0
  187.3600  178.0880  143.7730 C   0  0  0  0  0  0  0  0  0  0  0  0
  187.5020  177.7680  140.0310 C   0  0  1  0  0  3  0  0  0  0  0  0
  183.5030  179.0650  140.5960 C   0  0  2  0  0  3  0  0  0  0  0  0
  184.1570  178.9440  145.4700 C   0  0  0  0  0  3  0  0  0  0  0  0
  188.5250  178.6330  137.5320 C   0  0  0  0  0  3  0  0  0  0  0  0
  188.9500  178.1700  139.8930 C   0  0  0  0  0  3  0  0  0  0  0  0
  190.6440  177.5020  145.5760 C   0  0  2  0  0  3  0  0  0  0  0  0
  188.9550  178.6280  148.8500 O   0  0  0  0  0  0  0  0  0  0  0  0
  191.6810  176.4240  145.3200 C   0  0  0  0  0  1  0  0  0  0  0  0
  188.6780  176.7210  147.1670 C   0  0  2  0  0  3  0  0  0  0  0  0
  188.3400  178.0260  144.9150 C   0  0  1  0  0  3  0  0  0  0  0  0
  189.9230  177.1870  146.7800 N   0  0  0  0  0  0  0  0  0  0  0  0
  187.7100  177.1610  146.0550 C   0  0  0  0  0  2  0  0  0  0  0  0
  189.6760  177.5400  144.4640 N   0  0  0  0  0  0  0  0  0  0  0  0
  190.2130  178.5070  143.5140 C   0  0  0  0  0  1  0  0  0  0  0  0
  189.1250  177.7670  147.9490 C   0  0  0  0  0  0  0  0  0  0  0  0
  182.4940  178.9350  139.4640 C   0  0  0  0  0  2  0  0  0  0  0  0
  182.5020  180.0920  138.6840 O   0  0  0  0  0  1  0  0  0  0  0  0
  1  3  1  0  0  0  0
  2  4  1  0  0  0  0
  3 18  2  0  0  0  0
  4 10  1  0  0  0  0
  4  1  2  0  0  0  0
  5 11  1  6  0  0  0
  5 17  1  0  0  0  0
  5  2  1  0  0  0  0
  6 20  2  0  0  0  0
  7  2  2  0  0  0  0
  7 14  1  0  0  0  0
  9  8  1  6  0  0  0
  9 16  1  0  0  0  0
 10 13  2  0  0  0  0
 11  9  1  0  0  0  0
 12 10  1  0  0  0  0
 13 18  1  0  0  0  0
 14 15  2  0  0  0  0
 15  1  1  0  0  0  0
 16 20  1  1  0  0  0
 16  7  1  0  0  0  0
 17 31  1  6  0  0  0
 17 12  1  0  0  0  0
 19  8  2  0  0  0  0
 19  6  1  0  0  0  0
 21 23  1  6  0  0  0
 21 26  1  0  0  0  0
 24 27  1  6  0  0  0
 24 30  1  0  0  0  0
 25 15  1  6  0  0  0
 25 27  1  0  0  0  0
 26 24  1  0  0  0  0
 26 30  1  0  0  0  0
 28 25  1  0  0  0  0
 28 21  1  0  0  0  0
 29 28  1  0  0  0  0
 30 22  2  0  0  0  0
 32 31  1  0  0  0  0
M  END
>  <MODEL>
9

>  <REMARK>
 VINA RESULT:      -9.0      2.156      7.748
  Name = 
  2 active torsions:
  status: ('A' for Active; 'I' for Inactive)
    1  A    between atoms: C_13  and  C_29
    2  A    between atoms: C_16  and  C_27
                            x       y       z     vdW  Elec       q    Type
                         _______ _______ _______ _____ _____    ______ ____

>  <TORSDO>
F 2

$$$$
