=
 OpenBabel10262420133D

 27 30  0  0  1  0  0  0  0  0999 V2000
  187.3930  177.3550  142.5480 C   0  0  2  0  0  3  0  0  0  0  0  0
  187.1680  177.0140  143.8960 O   0  0  0  0  0  0  0  0  0  0  0  0
  189.4710  176.9110  143.4200 N   0  0  2  0  0  0  0  0  0  0  0  0
  190.9840  177.3900  141.1810 C   0  0  0  0  0  0  0  0  0  0  0  0
  190.7640  178.9400  144.1520 C   0  0  0  0  0  1  0  0  0  0  0  0
  191.6520  177.3600  140.1600 O   0  0  0  0  0  0  0  0  0  0  0  0
  188.8390  177.7240  142.4200 C   0  0  1  0  0  3  0  0  0  0  0  0
  188.4410  176.7380  144.4590 C   0  0  1  0  0  3  0  0  0  0  0  0
  191.7090  177.3080  142.5170 C   0  0  0  0  0  2  0  0  0  0  0  0
  189.0940  178.4370  140.1650 O   0  0  0  0  0  1  0  0  0  0  0  0
  189.4700  177.4380  141.0650 C   0  0  1  0  0  3  0  0  0  0  0  0
  190.7970  177.4660  143.7430 C   0  0  2  0  0  3  0  0  0  0  0  0
  187.7570  179.0460  147.5680 C   0  0  0  0  0  2  0  0  0  0  0  0
  188.7640  178.2510  148.4110 C   0  0  0  0  0  2  0  0  0  0  0  0
  188.6490  176.8780  148.1380 O   0  0  0  0  0  0  0  0  0  0  0  0
  188.6680  177.5380  145.7580 C   0  0  2  0  0  3  0  0  0  0  0  0
  189.2500  176.6480  146.8800 C   0  0  0  0  0  2  0  0  0  0  0  0
  187.4400  178.3380  146.2430 C   0  0  1  0  0  3  0  0  0  0  0  0
  185.0730  178.2320  147.0310 C   0  0  0  0  0  1  0  0  0  0  0  0
  186.2100  177.4480  146.4040 C   0  0  0  0  0  2  0  0  0  0  0  0
  186.5030  178.4320  142.0770 N   0  0  0  0  0  2  0  0  0  0  0  0
  182.4610  178.6780  143.4510 C   0  0  0  0  0  2  0  0  0  0  0  0
  185.1370  178.4220  142.6280 C   0  0  0  0  0  3  0  0  0  0  0  0
  184.8490  179.6370  143.5120 C   0  0  0  0  0  2  0  0  0  0  0  0
  183.4900  179.5220  144.2140 C   0  0  0  0  0  2  0  0  0  0  0  0
  182.6910  178.7440  141.9450 C   0  0  0  0  0  2  0  0  0  0  0  0
  184.0500  178.1420  141.5750 C   0  0  0  0  0  2  0  0  0  0  0  0
  1 21  1  1  0  0  0
  1  2  1  0  0  0  0
  2  8  1  0  0  0  0
  3 12  1  0  0  0  0
  3  8  1  0  0  0  0
  4  9  1  0  0  0  0
  6  4  2  0  0  0  0
  7  1  1  0  0  0  0
  7  3  1  0  0  0  0
  8 16  1  0  0  0  0
  9 12  1  0  0  0  0
 10 11  1  0  0  0  0
 11  4  1  0  0  0  0
 11  7  1  0  0  0  0
 12  5  1  0  0  0  0
 13 14  1  0  0  0  0
 15 14  1  0  0  0  0
 16 18  1  0  0  0  0
 16 17  1  0  0  0  0
 17 15  1  0  0  0  0
 18 20  1  0  0  0  0
 18 13  1  0  0  0  0
 20 19  1  0  0  0  0
 21 23  1  0  0  0  0
 22 25  1  0  0  0  0
 23 24  1  0  0  0  0
 24 25  1  0  0  0  0
 26 22  1  0  0  0  0
 27 26  1  0  0  0  0
 27 23  1  0  0  0  0
M  END
>  <MODEL>
1

>  <REMARK>
 VINA RESULT:      -8.8      0.000      0.000
  Name = 
  4 active torsions:
  status: ('A' for Active; 'I' for Inactive)
    1  A    between atoms: C_1  and  N_15
    2  A    between atoms: C_9  and  N_15
    3  A    between atoms: C_14  and  C_19
    4  A    between atoms: C_17  and  C_21
                            x       y       z     vdW  Elec       q    Type
                         _______ _______ _______ _____ _____    ______ ____

>  <TORSDO>
F 4

$$$$
=
 OpenBabel10262420133D

 27 30  0  0  1  0  0  0  0  0999 V2000
  186.8630  177.9030  142.4300 C   0  0  2  0  0  3  0  0  0  0  0  0
  186.5160  177.5940  143.7610 O   0  0  0  0  0  0  0  0  0  0  0  0
  188.7510  176.9740  143.3530 N   0  0  2  0  0  0  0  0  0  0  0  0
  190.4140  177.1380  141.1760 C   0  0  0  0  0  0  0  0  0  0  0  0
  190.4470  178.6360  144.1820 C   0  0  0  0  0  1  0  0  0  0  0  0
  191.0940  176.9770  140.1760 O   0  0  0  0  0  0  0  0  0  0  0  0
  188.3590  177.9310  142.3580 C   0  0  1  0  0  3  0  0  0  0  0  0
  187.6710  177.0220  144.3540 C   0  0  1  0  0  3  0  0  0  0  0  0
  191.0510  176.8640  142.5310 C   0  0  0  0  0  2  0  0  0  0  0  0
  188.8530  178.6130  140.1330 O   0  0  0  0  0  1  0  0  0  0  0  0
  188.9570  177.5360  141.0150 C   0  0  1  0  0  3  0  0  0  0  0  0
  190.1550  177.2020  143.7330 C   0  0  2  0  0  3  0  0  0  0  0  0
  187.3280  179.1600  147.6350 C   0  0  0  0  0  2  0  0  0  0  0  0
  188.3310  178.2530  148.3620 C   0  0  0  0  0  2  0  0  0  0  0  0
  188.1110  176.9100  148.0140 O   0  0  0  0  0  0  0  0  0  0  0  0
  188.0280  177.7200  145.6820 C   0  0  2  0  0  3  0  0  0  0  0  0
  188.6190  176.7250  146.7080 C   0  0  0  0  0  2  0  0  0  0  0  0
  186.8860  178.5600  146.2930 C   0  0  1  0  0  3  0  0  0  0  0  0
  184.3940  178.5690  146.1270 C   0  0  0  0  0  1  0  0  0  0  0  0
  185.6130  177.7380  146.4790 C   0  0  0  0  0  2  0  0  0  0  0  0
  186.2610  179.1650  141.9640 N   0  0  0  0  0  2  0  0  0  0  0  0
  182.9810  178.4120  139.3260 C   0  0  0  0  0  2  0  0  0  0  0  0
  185.1120  179.0300  141.0530 C   0  0  0  0  0  3  0  0  0  0  0  0
  185.5280  178.6310  139.6350 C   0  0  0  0  0  2  0  0  0  0  0  0
  184.3410  178.6660  138.6630 C   0  0  0  0  0  2  0  0  0  0  0  0
  183.1150  177.5100  140.5480 C   0  0  0  0  0  2  0  0  0  0  0  0
  183.9640  178.1820  141.6310 C   0  0  0  0  0  2  0  0  0  0  0  0
  1 21  1  1  0  0  0
  1  2  1  0  0  0  0
  2  8  1  0  0  0  0
  3 12  1  0  0  0  0
  3  8  1  0  0  0  0
  4  9  1  0  0  0  0
  6  4  2  0  0  0  0
  7  1  1  0  0  0  0
  7  3  1  0  0  0  0
  8 16  1  0  0  0  0
  9 12  1  0  0  0  0
 10 11  1  0  0  0  0
 11  4  1  0  0  0  0
 11  7  1  0  0  0  0
 12  5  1  0  0  0  0
 13 14  1  0  0  0  0
 15 14  1  0  0  0  0
 16 18  1  0  0  0  0
 16 17  1  0  0  0  0
 17 15  1  0  0  0  0
 18 20  1  0  0  0  0
 18 13  1  0  0  0  0
 19 20  1  0  0  0  0
 22 26  1  0  0  0  0
 23 27  1  0  0  0  0
 23 21  1  0  0  0  0
 24 23  1  0  0  0  0
 25 22  1  0  0  0  0
 25 24  1  0  0  0  0
 26 27  1  0  0  0  0
M  END
>  <MODEL>
2

>  <REMARK>
 VINA RESULT:      -7.9      1.148      1.747
  Name = 
  4 active torsions:
  status: ('A' for Active; 'I' for Inactive)
    1  A    between atoms: C_1  and  N_15
    2  A    between atoms: C_9  and  N_15
    3  A    between atoms: C_14  and  C_19
    4  A    between atoms: C_17  and  C_21
                            x       y       z     vdW  Elec       q    Type
                         _______ _______ _______ _____ _____    ______ ____

>  <TORSDO>
F 4

$$$$
=
 OpenBabel10262420133D

 27 30  0  0  1  0  0  0  0  0999 V2000
  188.0940  178.1460  143.2650 C   0  0  2  0  0  3  0  0  0  0  0  0
  188.6340  178.3760  141.9840 O   0  0  0  0  0  0  0  0  0  0  0  0
  190.3540  177.7920  143.4810 N   0  0  2  0  0  0  0  0  0  0  0  0
  190.4280  177.1270  146.1430 C   0  0  0  0  0  0  0  0  0  0  0  0
  191.0630  175.3830  143.3440 C   0  0  0  0  0  1  0  0  0  0  0  0
  190.5280  177.0640  147.3580 O   0  0  0  0  0  0  0  0  0  0  0  0
  189.1050  177.3510  144.0340 C   0  0  1  0  0  3  0  0  0  0  0  0
  190.0320  178.1590  142.0910 C   0  0  1  0  0  3  0  0  0  0  0  0
  191.6580  176.8110  145.3030 C   0  0  0  0  0  2  0  0  0  0  0  0
  188.0550  176.8710  146.1140 O   0  0  0  0  0  1  0  0  0  0  0  0
  189.1100  177.5810  145.5380 C   0  0  1  0  0  3  0  0  0  0  0  0
  191.4060  176.8070  143.7870 C   0  0  2  0  0  3  0  0  0  0  0  0
  190.2470  176.1150  138.7400 C   0  0  0  0  0  2  0  0  0  0  0  0
  191.7810  176.1430  138.7920 C   0  0  0  0  0  2  0  0  0  0  0  0
  192.2290  177.4010  139.2290 O   0  0  0  0  0  0  0  0  0  0  0  0
  190.5350  177.1790  141.0130 C   0  0  2  0  0  3  0  0  0  0  0  0
  192.0040  177.4660  140.6220 C   0  0  0  0  0  2  0  0  0  0  0  0
  189.6260  177.0680  139.7710 C   0  0  1  0  0  3  0  0  0  0  0  0
  189.0430  178.2710  137.6600 C   0  0  0  0  0  1  0  0  0  0  0  0
  189.3640  178.4310  139.1340 C   0  0  0  0  0  2  0  0  0  0  0  0
  186.7820  177.4760  143.2170 N   0  0  0  0  0  2  0  0  0  0  0  0
  183.2270  179.6900  144.0770 C   0  0  0  0  0  2  0  0  0  0  0  0
  185.6130  178.3370  143.4590 C   0  0  0  0  0  3  0  0  0  0  0  0
  184.4180  177.9700  142.5760 C   0  0  0  0  0  2  0  0  0  0  0  0
  183.2740  178.9840  142.7160 C   0  0  0  0  0  2  0  0  0  0  0  0
  183.7820  178.8030  145.1860 C   0  0  0  0  0  2  0  0  0  0  0  0
  185.2640  178.4980  144.9490 C   0  0  0  0  0  2  0  0  0  0  0  0
  1 21  1  6  0  0  0
  1  7  1  0  0  0  0
  2  8  1  0  0  0  0
  2  1  1  0  0  0  0
  3 12  1  0  0  0  0
  3  7  1  0  0  0  0
  4  6  2  0  0  0  0
  5 12  1  0  0  0  0
  7 11  1  0  0  0  0
  8  3  1  0  0  0  0
  9  4  1  0  0  0  0
 11 10  1  0  0  0  0
 11  4  1  0  0  0  0
 12  9  1  0  0  0  0
 13 14  1  0  0  0  0
 13 18  1  0  0  0  0
 14 15  1  0  0  0  0
 15 17  1  0  0  0  0
 16  8  1  0  0  0  0
 17 16  1  0  0  0  0
 18 16  1  0  0  0  0
 19 20  1  0  0  0  0
 20 18  1  0  0  0  0
 21 23  1  0  0  0  0
 22 26  1  0  0  0  0
 23 27  1  0  0  0  0
 24 25  1  0  0  0  0
 24 23  1  0  0  0  0
 25 22  1  0  0  0  0
 27 26  1  0  0  0  0
M  END
>  <MODEL>
3

>  <REMARK>
 VINA RESULT:      -7.6      1.688      5.443
  Name = 
  4 active torsions:
  status: ('A' for Active; 'I' for Inactive)
    1  A    between atoms: C_1  and  N_15
    2  A    between atoms: C_9  and  N_15
    3  A    between atoms: C_14  and  C_19
    4  A    between atoms: C_17  and  C_21
                            x       y       z     vdW  Elec       q    Type
                         _______ _______ _______ _____ _____    ______ ____

>  <TORSDO>
F 4

$$$$
=
 OpenBabel10262420133D

 27 30  0  0  1  0  0  0  0  0999 V2000
  188.2030  177.8240  141.9450 C   0  0  2  0  0  3  0  0  0  0  0  0
  186.9620  178.4810  142.0650 O   0  0  0  0  0  0  0  0  0  0  0  0
  187.7260  178.6160  139.8420 N   0  0  2  0  0  0  0  0  0  0  0  0
  189.9480  177.6870  138.5240 C   0  0  0  0  0  0  0  0  0  0  0  0
  186.6840  176.9320  138.2920 C   0  0  0  0  0  1  0  0  0  0  0  0
  191.0190  177.5020  137.9690 O   0  0  0  0  0  0  0  0  0  0  0  0
  188.4120  177.5350  140.4910 C   0  0  1  0  0  3  0  0  0  0  0  0
  186.6440  178.9760  140.7730 C   0  0  1  0  0  3  0  0  0  0  0  0
  188.7710  178.1560  137.6790 C   0  0  0  0  0  2  0  0  0  0  0  0
  190.4380  176.2900  140.3970 O   0  0  0  0  0  1  0  0  0  0  0  0
  189.8620  177.5080  140.0300 C   0  0  1  0  0  3  0  0  0  0  0  0
  187.4410  178.2530  138.4430 C   0  0  2  0  0  3  0  0  0  0  0  0
  182.9090  177.7650  140.9640 C   0  0  0  0  0  2  0  0  0  0  0  0
  182.5460  178.6080  139.7330 C   0  0  0  0  0  2  0  0  0  0  0  0
  183.2000  179.8500  139.7860 O   0  0  0  0  0  0  0  0  0  0  0  0
  185.2270  178.5500  140.3400 C   0  0  2  0  0  3  0  0  0  0  0  0
  184.5550  179.6250  139.4540 C   0  0  0  0  0  2  0  0  0  0  0  0
  184.3060  178.1090  141.4980 C   0  0  1  0  0  3  0  0  0  0  0  0
  183.4850  178.6280  143.7990 C   0  0  0  0  0  1  0  0  0  0  0  0
  184.2040  179.1790  142.5820 C   0  0  0  0  0  2  0  0  0  0  0  0
  188.2830  176.6050  142.7700 N   0  0  0  0  0  2  0  0  0  0  0  0
  187.9780  177.5400  146.9320 C   0  0  0  0  0  2  0  0  0  0  0  0
  188.2200  176.8110  144.2270 C   0  0  0  0  0  3  0  0  0  0  0  0
  189.2980  177.7720  144.7330 C   0  0  0  0  0  2  0  0  0  0  0  0
  189.3280  177.8380  146.2660 C   0  0  0  0  0  2  0  0  0  0  0  0
  186.8120  177.9470  146.0380 C   0  0  0  0  0  2  0  0  0  0  0  0
  186.8060  177.1280  144.7440 C   0  0  0  0  0  2  0  0  0  0  0  0
  1  2  1  0  0  0  0
  1 21  1  1  0  0  0
  3  7  1  0  0  0  0
  3  8  1  0  0  0  0
  4 11  1  0  0  0  0
  5 12  1  0  0  0  0
  6  4  2  0  0  0  0
  7  1  1  0  0  0  0
  8  2  1  0  0  0  0
  9 12  1  0  0  0  0
  9  4  1  0  0  0  0
 11 10  1  0  0  0  0
 11  7  1  0  0  0  0
 12  3  1  0  0  0  0
 13 18  1  0  0  0  0
 14 15  1  0  0  0  0
 14 13  1  0  0  0  0
 16  8  1  0  0  0  0
 16 18  1  0  0  0  0
 17 15  1  0  0  0  0
 17 16  1  0  0  0  0
 18 20  1  0  0  0  0
 20 19  1  0  0  0  0
 21 23  1  0  0  0  0
 23 24  1  0  0  0  0
 23 27  1  0  0  0  0
 24 25  1  0  0  0  0
 25 22  1  0  0  0  0
 26 22  1  0  0  0  0
 27 26  1  0  0  0  0
M  END
>  <MODEL>
4

>  <REMARK>
 VINA RESULT:      -7.1      2.287      5.680
  Name = 
  4 active torsions:
  status: ('A' for Active; 'I' for Inactive)
    1  A    between atoms: C_1  and  N_15
    2  A    between atoms: C_9  and  N_15
    3  A    between atoms: C_14  and  C_19
    4  A    between atoms: C_17  and  C_21
                            x       y       z     vdW  Elec       q    Type
                         _______ _______ _______ _____ _____    ______ ____

>  <TORSDO>
F 4

$$$$
=
 OpenBabel10262420133D

 27 30  0  0  1  0  0  0  0  0999 V2000
  186.8240  178.2800  142.5510 C   0  0  2  0  0  3  0  0  0  0  0  0
  187.5000  178.4780  141.3310 O   0  0  0  0  0  0  0  0  0  0  0  0
  189.0540  178.0240  143.0400 N   0  0  2  0  0  0  0  0  0  0  0  0
  188.8420  177.4750  145.7210 C   0  0  0  0  0  0  0  0  0  0  0  0
  189.8560  175.6410  143.0950 C   0  0  0  0  0  1  0  0  0  0  0  0
  188.8030  177.4660  146.9400 O   0  0  0  0  0  0  0  0  0  0  0  0
  187.7650  177.5590  143.4660 C   0  0  1  0  0  3  0  0  0  0  0  0
  188.8830  178.3200  141.6070 C   0  0  1  0  0  3  0  0  0  0  0  0
  190.1710  177.1720  145.0420 C   0  0  0  0  0  2  0  0  0  0  0  0
  186.4980  177.1250  145.4320 O   0  0  0  0  0  1  0  0  0  0  0  0
  187.5880  177.8510  144.9490 C   0  0  1  0  0  3  0  0  0  0  0  0
  190.0960  177.0950  143.5090 C   0  0  2  0  0  3  0  0  0  0  0  0
  189.7360  176.3500  138.3140 C   0  0  0  0  0  2  0  0  0  0  0  0
  191.2000  176.2000  138.7520 C   0  0  0  0  0  2  0  0  0  0  0  0
  191.6490  177.3870  139.3550 O   0  0  0  0  0  0  0  0  0  0  0  0
  189.5410  177.3160  140.6390 C   0  0  2  0  0  3  0  0  0  0  0  0
  191.0820  177.4430  140.6480 C   0  0  0  0  0  2  0  0  0  0  0  0
  188.9740  177.3420  139.2040 C   0  0  1  0  0  3  0  0  0  0  0  0
  188.9480  178.6620  137.0830 C   0  0  0  0  0  1  0  0  0  0  0  0
  189.0280  178.7420  138.5960 C   0  0  0  0  0  2  0  0  0  0  0  0
  185.5490  177.5580  142.3850 N   0  0  0  0  0  2  0  0  0  0  0  0
  181.8540  179.6080  143.0330 C   0  0  0  0  0  2  0  0  0  0  0  0
  184.3290  178.3640  142.5530 C   0  0  0  0  0  3  0  0  0  0  0  0
  183.1900  177.9050  141.6390 C   0  0  0  0  0  2  0  0  0  0  0  0
  181.9900  178.8610  141.7000 C   0  0  0  0  0  2  0  0  0  0  0  0
  182.4100  178.7890  144.1930 C   0  0  0  0  0  2  0  0  0  0  0  0
  183.9140  178.5560  144.0220 C   0  0  0  0  0  2  0  0  0  0  0  0
  1 21  1  6  0  0  0
  1  7  1  0  0  0  0
  2  8  1  0  0  0  0
  2  1  1  0  0  0  0
  3  7  1  0  0  0  0
  3 12  1  0  0  0  0
  4  6  2  0  0  0  0
  5 12  1  0  0  0  0
  7 11  1  0  0  0  0
  8  3  1  0  0  0  0
  9  4  1  0  0  0  0
 11 10  1  0  0  0  0
 11  4  1  0  0  0  0
 12  9  1  0  0  0  0
 13 14  1  0  0  0  0
 13 18  1  0  0  0  0
 14 15  1  0  0  0  0
 15 17  1  0  0  0  0
 16 17  1  0  0  0  0
 16  8  1  0  0  0  0
 18 16  1  0  0  0  0
 19 20  1  0  0  0  0
 20 18  1  0  0  0  0
 21 23  1  0  0  0  0
 22 26  1  0  0  0  0
 23 27  1  0  0  0  0
 24 25  1  0  0  0  0
 24 23  1  0  0  0  0
 25 22  1  0  0  0  0
 27 26  1  0  0  0  0
M  END
>  <MODEL>
5

>  <REMARK>
 VINA RESULT:      -7.1      1.681      5.473
  Name = 
  4 active torsions:
  status: ('A' for Active; 'I' for Inactive)
    1  A    between atoms: C_1  and  N_15
    2  A    between atoms: C_9  and  N_15
    3  A    between atoms: C_14  and  C_19
    4  A    between atoms: C_17  and  C_21
                            x       y       z     vdW  Elec       q    Type
                         _______ _______ _______ _____ _____    ______ ____

>  <TORSDO>
F 4

$$$$
=
 OpenBabel10262420133D

 27 30  0  0  1  0  0  0  0  0999 V2000
  187.3480  177.8830  141.2590 C   0  0  2  0  0  3  0  0  0  0  0  0
  187.7040  177.3630  142.5190 O   0  0  0  0  0  0  0  0  0  0  0  0
  189.3170  176.7480  140.9170 N   0  0  2  0  0  0  0  0  0  0  0  0
  189.6240  177.2280  138.2330 C   0  0  0  0  0  0  0  0  0  0  0  0
  191.3800  178.1860  140.9310 C   0  0  0  0  0  1  0  0  0  0  0  0
  189.6670  177.2180  137.0130 O   0  0  0  0  0  0  0  0  0  0  0  0
  188.5840  177.8740  140.4120 C   0  0  1  0  0  3  0  0  0  0  0  0
  188.9230  176.6590  142.3340 C   0  0  1  0  0  3  0  0  0  0  0  0
  190.8320  176.7050  138.9980 C   0  0  0  0  0  2  0  0  0  0  0  0
  187.9360  178.9110  138.3710 O   0  0  0  0  0  1  0  0  0  0  0  0
  188.3520  177.6950  138.9190 C   0  0  1  0  0  3  0  0  0  0  0  0
  190.7310  176.8620  140.5240 C   0  0  2  0  0  3  0  0  0  0  0  0
  190.5790  178.2410  145.5290 C   0  0  0  0  0  2  0  0  0  0  0  0
  191.6800  177.1720  145.5190 C   0  0  0  0  0  2  0  0  0  0  0  0
  191.1380  175.9190  145.1880 O   0  0  0  0  0  0  0  0  0  0  0  0
  189.9930  177.1080  143.3500 C   0  0  2  0  0  3  0  0  0  0  0  0
  190.8840  175.9260  143.7980 C   0  0  0  0  0  2  0  0  0  0  0  0
  189.4420  177.8970  144.5570 C   0  0  1  0  0  3  0  0  0  0  0  0
  188.0910  177.7370  146.6510 C   0  0  0  0  0  1  0  0  0  0  0  0
  188.3430  177.1270  145.2850 C   0  0  0  0  0  2  0  0  0  0  0  0
  186.7460  179.2260  141.3480 N   0  0  0  0  0  2  0  0  0  0  0  0
  183.0940  179.1290  143.5690 C   0  0  0  0  0  2  0  0  0  0  0  0
  185.4660  179.3080  142.0690 C   0  0  0  0  0  3  0  0  0  0  0  0
  184.3920  178.3990  141.4680 C   0  0  0  0  0  2  0  0  0  0  0  0
  183.0210  178.6270  142.1210 C   0  0  0  0  0  2  0  0  0  0  0  0
  184.3510  178.6280  144.2710 C   0  0  0  0  0  2  0  0  0  0  0  0
  185.6090  179.1830  143.5960 C   0  0  0  0  0  2  0  0  0  0  0  0
  1 21  1  1  0  0  0
  1  2  1  0  0  0  0
  3  8  1  0  0  0  0
  4 11  1  0  0  0  0
  4  9  1  0  0  0  0
  6  4  2  0  0  0  0
  7  3  1  0  0  0  0
  7  1  1  0  0  0  0
  8  2  1  0  0  0  0
  8 16  1  0  0  0  0
  9 12  1  0  0  0  0
 10 11  1  0  0  0  0
 11  7  1  0  0  0  0
 12  3  1  0  0  0  0
 12  5  1  0  0  0  0
 14 13  1  0  0  0  0
 15 14  1  0  0  0  0
 16 17  1  0  0  0  0
 16 18  1  0  0  0  0
 17 15  1  0  0  0  0
 18 20  1  0  0  0  0
 18 13  1  0  0  0  0
 20 19  1  0  0  0  0
 21 23  1  0  0  0  0
 22 26  1  0  0  0  0
 23 27  1  0  0  0  0
 24 23  1  0  0  0  0
 24 25  1  0  0  0  0
 25 22  1  0  0  0  0
 27 26  1  0  0  0  0
M  END
>  <MODEL>
6

>  <REMARK>
 VINA RESULT:      -6.9      1.779      2.787
  Name = 
  4 active torsions:
  status: ('A' for Active; 'I' for Inactive)
    1  A    between atoms: C_1  and  N_15
    2  A    between atoms: C_9  and  N_15
    3  A    between atoms: C_14  and  C_19
    4  A    between atoms: C_17  and  C_21
                            x       y       z     vdW  Elec       q    Type
                         _______ _______ _______ _____ _____    ______ ____

>  <TORSDO>
F 4

$$$$
=
 OpenBabel10262420133D

 27 30  0  0  1  0  0  0  0  0999 V2000
  187.7340  178.3320  141.5180 C   0  0  2  0  0  3  0  0  0  0  0  0
  187.1430  178.7300  140.3020 O   0  0  0  0  0  0  0  0  0  0  0  0
  189.4240  178.2520  139.9640 N   0  0  2  0  0  0  0  0  0  0  0  0
  191.4590  177.3930  141.5910 C   0  0  0  0  0  0  0  0  0  0  0  0
  189.8650  175.9720  138.9990 C   0  0  0  0  0  1  0  0  0  0  0  0
  192.4260  177.2460  142.3210 O   0  0  0  0  0  0  0  0  0  0  0  0
  189.0040  177.6140  141.1780 C   0  0  1  0  0  3  0  0  0  0  0  0
  188.1700  178.6850  139.3230 C   0  0  1  0  0  3  0  0  0  0  0  0
  191.6740  177.3040  140.0870 C   0  0  0  0  0  2  0  0  0  0  0  0
  189.8480  176.8400  143.2640 O   0  0  0  0  0  1  0  0  0  0  0  0
  190.1130  177.7220  142.2140 C   0  0  1  0  0  3  0  0  0  0  0  0
  190.3840  177.3880  139.2560 C   0  0  2  0  0  3  0  0  0  0  0  0
  185.9220  176.6700  136.8050 C   0  0  0  0  0  2  0  0  0  0  0  0
  186.7530  177.1770  135.6180 C   0  0  0  0  0  2  0  0  0  0  0  0
  187.0870  178.5290  135.8020 O   0  0  0  0  0  0  0  0  0  0  0  0
  187.7380  177.8660  138.0910 C   0  0  2  0  0  3  0  0  0  0  0  0
  188.1140  178.5800  136.7720 C   0  0  0  0  0  2  0  0  0  0  0  0
  186.2580  177.4250  138.0990 C   0  0  1  0  0  3  0  0  0  0  0  0
  183.8770  178.1290  138.3670 C   0  0  0  0  0  1  0  0  0  0  0  0
  185.3130  178.6110  138.2760 C   0  0  0  0  0  2  0  0  0  0  0  0
  186.8340  177.5060  142.3440 N   0  0  0  0  0  2  0  0  0  0  0  0
  185.3640  178.9610  146.0860 C   0  0  0  0  0  2  0  0  0  0  0  0
  186.3730  178.1190  143.6000 C   0  0  0  0  0  3  0  0  0  0  0  0
  184.8500  178.2620  143.6620 C   0  0  0  0  0  2  0  0  0  0  0  0
  184.4020  179.0590  144.8950 C   0  0  0  0  0  2  0  0  0  0  0  0
  186.1050  177.6280  146.0980 C   0  0  0  0  0  2  0  0  0  0  0  0
  186.9940  177.4880  144.8590 C   0  0  0  0  0  2  0  0  0  0  0  0
  1 21  1  6  0  0  0
  2  1  1  0  0  0  0
  3  7  1  0  0  0  0
  4 11  1  0  0  0  0
  4  6  2  0  0  0  0
  5 12  1  0  0  0  0
  7  1  1  0  0  0  0
  7 11  1  0  0  0  0
  8  3  1  0  0  0  0
  8  2  1  0  0  0  0
  9  4  1  0  0  0  0
 11 10  1  0  0  0  0
 12  3  1  0  0  0  0
 12  9  1  0  0  0  0
 13 18  1  0  0  0  0
 14 15  1  0  0  0  0
 14 13  1  0  0  0  0
 15 17  1  0  0  0  0
 16 18  1  0  0  0  0
 16  8  1  0  0  0  0
 17 16  1  0  0  0  0
 18 20  1  0  0  0  0
 20 19  1  0  0  0  0
 21 23  1  0  0  0  0
 22 26  1  0  0  0  0
 23 24  1  0  0  0  0
 23 27  1  0  0  0  0
 24 25  1  0  0  0  0
 25 22  1  0  0  0  0
 27 26  1  0  0  0  0
M  END
>  <MODEL>
7

>  <REMARK>
 VINA RESULT:      -6.9      2.896      6.236
  Name = 
  4 active torsions:
  status: ('A' for Active; 'I' for Inactive)
    1  A    between atoms: C_1  and  N_15
    2  A    between atoms: C_9  and  N_15
    3  A    between atoms: C_14  and  C_19
    4  A    between atoms: C_17  and  C_21
                            x       y       z     vdW  Elec       q    Type
                         _______ _______ _______ _____ _____    ______ ____

>  <TORSDO>
F 4

$$$$
=
 OpenBabel10262420133D

 27 30  0  0  1  0  0  0  0  0999 V2000
  188.5640  178.0340  141.0760 C   0  0  2  0  0  3  0  0  0  0  0  0
  187.6660  178.4290  140.0660 O   0  0  0  0  0  0  0  0  0  0  0  0
  189.7870  178.0160  139.1310 N   0  0  2  0  0  0  0  0  0  0  0  0
  192.1990  177.1950  140.1510 C   0  0  0  0  0  0  0  0  0  0  0  0
  190.0110  175.7590  138.0460 C   0  0  0  0  0  1  0  0  0  0  0  0
  193.3270  177.0680  140.5980 O   0  0  0  0  0  0  0  0  0  0  0  0
  189.7160  177.3550  140.4020 C   0  0  1  0  0  3  0  0  0  0  0  0
  188.3990  178.4220  138.8500 C   0  0  1  0  0  3  0  0  0  0  0  0
  192.0120  177.1270  138.6420 C   0  0  0  0  0  2  0  0  0  0  0  0
  191.0980  176.5820  142.1790 O   0  0  0  0  0  1  0  0  0  0  0  0
  191.0570  177.4810  141.1110 C   0  0  1  0  0  3  0  0  0  0  0  0
  190.5470  177.1860  138.1810 C   0  0  2  0  0  3  0  0  0  0  0  0
  185.5500  176.5670  136.8750 C   0  0  0  0  0  2  0  0  0  0  0  0
  186.2110  176.9240  135.5360 C   0  0  0  0  0  2  0  0  0  0  0  0
  186.7120  178.2360  135.5770 O   0  0  0  0  0  0  0  0  0  0  0  0
  187.6760  177.6040  137.7610 C   0  0  2  0  0  3  0  0  0  0  0  0
  187.8910  178.2120  136.3560 C   0  0  0  0  0  2  0  0  0  0  0  0
  186.1830  177.3340  138.0440 C   0  0  1  0  0  3  0  0  0  0  0  0
  184.1680  178.3410  139.1250 C   0  0  0  0  0  1  0  0  0  0  0  0
  185.4110  178.6260  138.3030 C   0  0  0  0  0  2  0  0  0  0  0  0
  187.9330  177.1760  142.0950 N   0  0  0  0  0  2  0  0  0  0  0  0
  185.6180  178.8890  145.2560 C   0  0  0  0  0  2  0  0  0  0  0  0
  187.1790  177.8780  143.1470 C   0  0  0  0  0  3  0  0  0  0  0  0
  185.6710  177.8820  142.8860 C   0  0  0  0  0  2  0  0  0  0  0  0
  184.9210  178.7640  143.8940 C   0  0  0  0  0  2  0  0  0  0  0  0
  186.4310  177.6420  145.5840 C   0  0  0  0  0  2  0  0  0  0  0  0
  187.5660  177.4510  144.5740 C   0  0  0  0  0  2  0  0  0  0  0  0
  1 21  1  1  0  0  0
  2  1  1  0  0  0  0
  3  7  1  0  0  0  0
  4  6  2  0  0  0  0
  4 11  1  0  0  0  0
  5 12  1  0  0  0  0
  7  1  1  0  0  0  0
  7 11  1  0  0  0  0
  8  3  1  0  0  0  0
  8  2  1  0  0  0  0
  9  4  1  0  0  0  0
 11 10  1  0  0  0  0
 12  9  1  0  0  0  0
 12  3  1  0  0  0  0
 13 18  1  0  0  0  0
 14 15  1  0  0  0  0
 14 13  1  0  0  0  0
 15 17  1  0  0  0  0
 16 18  1  0  0  0  0
 16  8  1  0  0  0  0
 17 16  1  0  0  0  0
 18 20  1  0  0  0  0
 20 19  1  0  0  0  0
 21 23  1  0  0  0  0
 22 26  1  0  0  0  0
 23 27  1  0  0  0  0
 24 23  1  0  0  0  0
 24 25  1  0  0  0  0
 25 22  1  0  0  0  0
 27 26  1  0  0  0  0
M  END
>  <MODEL>
8

>  <REMARK>
 VINA RESULT:      -6.8      3.059      6.429
  Name = 
  4 active torsions:
  status: ('A' for Active; 'I' for Inactive)
    1  A    between atoms: C_1  and  N_15
    2  A    between atoms: C_9  and  N_15
    3  A    between atoms: C_14  and  C_19
    4  A    between atoms: C_17  and  C_21
                            x       y       z     vdW  Elec       q    Type
                         _______ _______ _______ _____ _____    ______ ____

>  <TORSDO>
F 4

$$$$
=
 OpenBabel10262420133D

 27 30  0  0  1  0  0  0  0  0999 V2000
  188.2870  178.2350  140.2920 C   0  0  2  0  0  3  0  0  0  0  0  0
  187.0770  178.8320  140.6990 O   0  0  0  0  0  0  0  0  0  0  0  0
  187.1160  178.6240  138.3540 N   0  0  2  0  0  0  0  0  0  0  0  0
  188.9220  177.6070  136.5550 C   0  0  0  0  0  0  0  0  0  0  0  0
  185.8400  176.6430  137.4760 C   0  0  0  0  0  1  0  0  0  0  0  0
  189.7890  177.3880  135.7230 O   0  0  0  0  0  0  0  0  0  0  0  0
  188.0760  177.7110  138.9050 C   0  0  1  0  0  3  0  0  0  0  0  0
  186.3330  179.0790  139.5160 C   0  0  1  0  0  3  0  0  0  0  0  0
  187.5020  177.8560  136.0640 C   0  0  0  0  0  2  0  0  0  0  0  0
  190.1000  176.5830  138.3610 O   0  0  0  0  0  1  0  0  0  0  0  0
  189.3140  177.6860  138.0200 C   0  0  1  0  0  3  0  0  0  0  0  0
  186.4630  178.0100  137.1860 C   0  0  2  0  0  3  0  0  0  0  0  0
  183.0710  177.4840  141.0210 C   0  0  0  0  0  2  0  0  0  0  0  0
  182.1980  178.2830  140.0430 C   0  0  0  0  0  2  0  0  0  0  0  0
  182.7010  179.5870  139.8980 O   0  0  0  0  0  0  0  0  0  0  0  0
  184.9050  178.5070  139.6180 C   0  0  2  0  0  3  0  0  0  0  0  0
  183.8520  179.5050  139.0820 C   0  0  0  0  0  2  0  0  0  0  0  0
  184.5260  177.9740  141.0160 C   0  0  1  0  0  3  0  0  0  0  0  0
  184.0660  178.5880  143.3930 C   0  0  0  0  0  1  0  0  0  0  0  0
  184.7280  179.0280  142.1010 C   0  0  0  0  0  2  0  0  0  0  0  0
  188.7410  177.1830  141.2200 N   0  0  0  0  0  2  0  0  0  0  0  0
  188.6200  177.7990  145.4490 C   0  0  0  0  0  2  0  0  0  0  0  0
  188.6510  177.5080  142.6520 C   0  0  0  0  0  3  0  0  0  0  0  0
  187.5610  176.7090  143.3700 C   0  0  0  0  0  2  0  0  0  0  0  0
  187.3640  177.1850  144.8160 C   0  0  0  0  0  2  0  0  0  0  0  0
  189.8930  177.1910  144.8690 C   0  0  0  0  0  2  0  0  0  0  0  0
  190.0110  177.5000  143.3730 C   0  0  0  0  0  2  0  0  0  0  0  0
  1  2  1  0  0  0  0
  1 21  1  1  0  0  0
  3  7  1  0  0  0  0
  3  8  1  0  0  0  0
  4 11  1  0  0  0  0
  6  4  2  0  0  0  0
  7  1  1  0  0  0  0
  8 16  1  0  0  0  0
  8  2  1  0  0  0  0
  9  4  1  0  0  0  0
  9 12  1  0  0  0  0
 11 10  1  0  0  0  0
 11  7  1  0  0  0  0
 12  5  1  0  0  0  0
 12  3  1  0  0  0  0
 14 13  1  0  0  0  0
 15 14  1  0  0  0  0
 16 18  1  0  0  0  0
 17 16  1  0  0  0  0
 17 15  1  0  0  0  0
 18 13  1  0  0  0  0
 18 20  1  0  0  0  0
 20 19  1  0  0  0  0
 21 23  1  0  0  0  0
 23 24  1  0  0  0  0
 23 27  1  0  0  0  0
 24 25  1  0  0  0  0
 25 22  1  0  0  0  0
 26 22  1  0  0  0  0
 27 26  1  0  0  0  0
M  END
>  <MODEL>
9

>  <REMARK>
 VINA RESULT:      -6.7      3.024      6.327
  Name = 
  4 active torsions:
  status: ('A' for Active; 'I' for Inactive)
    1  A    between atoms: C_1  and  N_15
    2  A    between atoms: C_9  and  N_15
    3  A    between atoms: C_14  and  C_19
    4  A    between atoms: C_17  and  C_21
                            x       y       z     vdW  Elec       q    Type
                         _______ _______ _______ _____ _____    ______ ____

>  <TORSDO>
F 4

$$$$
