=
 OpenBabel10262421103D

 32 36  0  0  1  0  0  0  0  0999 V2000
  187.1810  177.8460  140.2050 C   0  0  1  0  0  3  0  0  0  0  0  0
  185.1180  179.1950  141.0380 C   0  0  2  0  0  3  0  0  0  0  0  0
  188.6910  177.7740  140.4740 C   0  0  0  0  0  2  0  0  0  0  0  0
  186.5820  178.7780  141.2600 C   0  0  1  0  0  3  0  0  0  0  0  0
  184.1790  178.2320  141.7930 C   0  0  2  0  0  3  0  0  0  0  0  0
  180.3210  179.4140  137.9900 N   0  0  0  0  0  1  0  0  0  0  0  0
  184.7370  179.3270  139.5960 C   0  0  1  0  0  3  0  0  0  0  0  0
  181.2790  177.9490  139.6900 C   0  0  0  0  0  2  0  0  0  0  0  0
  182.4720  177.5150  140.5570 C   0  0  0  0  0  2  0  0  0  0  0  0
  186.7250  178.0380  142.5910 C   0  0  2  0  0  3  0  0  0  0  0  0
  182.8110  178.4630  141.5390 O   0  0  0  0  0  0  0  0  0  0  0  0
  185.8950  178.6150  143.5700 O   0  0  0  0  0  0  0  0  0  0  0  0
  188.1970  178.0100  142.9710 C   0  0  0  0  0  2  0  0  0  0  0  0
  185.3300  178.3730  138.5960 C   0  0  0  0  0  2  0  0  0  0  0  0
  186.8460  178.3050  138.7810 C   0  0  2  0  0  3  0  0  0  0  0  0
  183.6300  179.9420  139.3800 N   0  0  0  0  0  2  0  0  0  0  0  0
  184.5550  178.2050  143.3090 C   0  0  1  0  0  3  0  0  0  0  0  0
  188.9690  177.2340  141.8900 C   0  0  0  0  0  2  0  0  0  0  0  0
  181.3770  179.3130  138.9790 C   0  0  1  0  0  3  0  0  0  0  0  0
  182.7230  179.6080  138.3210 C   0  0  0  0  0  2  0  0  0  0  0  0
  189.0170  177.0380  135.9250 C   0  0  0  0  0  0  0  0  0  0  0  0
  189.9910  177.4950  135.1000 F   0  0  0  0  0  0  0  0  0  0  0  0
  187.4480  177.4020  137.7420 C   0  0  0  0  0  0  0  0  0  0  0  0
  188.5760  175.7180  135.8060 C   0  0  0  0  0  3  0  0  0  0  0  0
  187.0100  176.0730  137.6150 C   0  0  0  0  0  3  0  0  0  0  0  0
  188.4560  177.8820  136.8910 C   0  0  0  0  0  0  0  0  0  0  0  0
  188.9040  179.1950  137.0020 O   0  0  0  0  0  1  0  0  0  0  0  0
  187.5680  175.2280  136.6510 C   0  0  0  0  0  0  0  0  0  0  0  0
  186.0410  173.4150  137.3560 C   0  0  0  0  0  1  0  0  0  0  0  0
  187.1060  173.9130  136.5570 O   0  0  0  0  0  0  0  0  0  0  0  0
  183.6180  179.0590  144.1530 C   0  0  0  0  0  2  0  0  0  0  0  0
  183.9960  178.9980  145.4940 O   0  0  0  0  0  1  0  0  0  0  0  0
  1  3  1  6  0  0  0
  1  4  1  0  0  0  0
  2  4  1  0  0  0  0
  2  5  1  0  0  0  0
  3 18  1  0  0  0  0
  4 10  1  0  0  0  0
  5 17  1  0  0  0  0
  6 19  1  0  0  0  0
  7  2  1  0  0  0  0
  8  9  1  0  0  0  0
  9 11  1  0  0  0  0
 10 13  1  0  0  0  0
 10 12  1  0  0  0  0
 11  5  1  0  0  0  0
 14 15  1  0  0  0  0
 14  7  1  0  0  0  0
 15  1  1  0  0  0  0
 16  7  1  0  0  0  0
 17 12  1  0  0  0  0
 17 31  1  0  0  0  0
 18 13  1  0  0  0  0
 19  8  1  0  0  0  0
 20 19  1  0  0  0  0
 20 16  1  0  0  0  0
 21 26  1  0  0  0  0
 22 21  1  0  0  0  0
 23 15  1  0  0  0  0
 24 21  2  0  0  0  0
 24 28  1  0  0  0  0
 25 23  1  0  0  0  0
 26 27  1  0  0  0  0
 26 23  2  0  0  0  0
 28 25  2  0  0  0  0
 30 28  1  0  0  0  0
 30 29  1  0  0  0  0
 31 32  1  0  0  0  0
M  END
>  <MODEL>
1

>  <REMARK>
 VINA RESULT:      -7.2      0.000      0.000
  Name = 
  3 active torsions:
  status: ('A' for Active; 'I' for Inactive)
    1  A    between atoms: C_13  and  C_29
    2  A    between atoms: O_15  and  C_26
    3  A    between atoms: C_16  and  C_27
                            x       y       z     vdW  Elec       q    Type
                         _______ _______ _______ _____ _____    ______ ____

>  <TORSDO>
F 3

$$$$
=
 OpenBabel10262421103D

 32 36  0  0  1  0  0  0  0  0999 V2000
  187.4420  178.0600  140.5070 C   0  0  1  0  0  3  0  0  0  0  0  0
  188.3270  177.7870  138.0770 C   0  0  2  0  0  3  0  0  0  0  0  0
  186.5230  179.0040  141.2970 C   0  0  0  0  0  2  0  0  0  0  0  0
  187.3110  178.4380  139.0310 C   0  0  1  0  0  3  0  0  0  0  0  0
  187.7360  176.4910  137.4860 C   0  0  2  0  0  3  0  0  0  0  0  0
  192.9400  174.6510  136.9620 N   0  0  0  0  0  1  0  0  0  0  0  0
  189.6730  177.5540  138.6900 C   0  0  1  0  0  3  0  0  0  0  0  0
  190.5400  174.2660  137.1740 C   0  0  0  0  0  2  0  0  0  0  0  0
  189.1390  174.7650  137.5630 C   0  0  0  0  0  2  0  0  0  0  0  0
  185.8870  178.0490  138.6320 C   0  0  2  0  0  3  0  0  0  0  0  0
  188.6510  175.7600  136.6990 O   0  0  0  0  0  0  0  0  0  0  0  0
  185.7600  178.0030  137.2310 O   0  0  0  0  0  0  0  0  0  0  0  0
  184.9180  179.0080  139.3060 C   0  0  0  0  0  2  0  0  0  0  0  0
  189.7540  177.1600  140.1390 C   0  0  0  0  0  2  0  0  0  0  0  0
  188.8990  178.1060  140.9820 C   0  0  2  0  0  3  0  0  0  0  0  0
  190.6120  177.2870  137.8560 N   0  0  0  0  0  2  0  0  0  0  0  0
  186.3810  176.8040  136.7710 C   0  0  1  0  0  3  0  0  0  0  0  0
  185.0620  178.8600  140.8300 C   0  0  0  0  0  2  0  0  0  0  0  0
  191.6550  175.3200  137.0310 C   0  0  1  0  0  3  0  0  0  0  0  0
  191.6900  176.3810  138.1290 C   0  0  0  0  0  2  0  0  0  0  0  0
  190.4170  177.3650  144.3920 C   0  0  0  0  0  0  0  0  0  0  0  0
  191.6380  177.3050  144.9770 F   0  0  0  0  0  0  0  0  0  0  0  0
  189.0290  177.7530  142.4380 C   0  0  0  0  0  0  0  0  0  0  0  0
  189.2740  177.1010  145.1520 C   0  0  0  0  0  3  0  0  0  0  0  0
  187.8870  177.4850  143.2090 C   0  0  0  0  0  3  0  0  0  0  0  0
  190.2980  177.6920  143.0360 C   0  0  0  0  0  0  0  0  0  0  0  0
  191.4410  177.9550  142.2890 O   0  0  0  0  0  1  0  0  0  0  0  0
  188.0020  177.1590  144.5630 C   0  0  0  0  0  0  0  0  0  0  0  0
  186.2760  177.8420  146.1970 C   0  0  0  0  0  1  0  0  0  0  0  0
  186.8410  176.8990  145.2970 O   0  0  0  0  0  0  0  0  0  0  0  0
  186.5310  176.8900  135.2580 C   0  0  0  0  0  2  0  0  0  0  0  0
  186.8070  178.2050  134.8810 O   0  0  0  0  0  1  0  0  0  0  0  0
  1 15  1  0  0  0  0
  1  3  1  1  0  0  0
  2  7  1  0  0  0  0
  2  4  1  0  0  0  0
  4  1  1  0  0  0  0
  5  2  1  0  0  0  0
  6 19  1  0  0  0  0
  7 14  1  0  0  0  0
  8  9  1  0  0  0  0
 10  4  1  0  0  0  0
 10 13  1  0  0  0  0
 11  5  1  0  0  0  0
 11  9  1  0  0  0  0
 12 10  1  0  0  0  0
 13 18  1  0  0  0  0
 14 15  1  0  0  0  0
 15 23  1  0  0  0  0
 16 20  1  0  0  0  0
 16  7  1  0  0  0  0
 17 12  1  0  0  0  0
 17  5  1  0  0  0  0
 18  3  1  0  0  0  0
 19  8  1  0  0  0  0
 19 20  1  0  0  0  0
 21 22  1  0  0  0  0
 21 24  1  0  0  0  0
 23 26  1  0  0  0  0
 23 25  2  0  0  0  0
 25 28  1  0  0  0  0
 26 21  2  0  0  0  0
 27 26  1  0  0  0  0
 28 24  2  0  0  0  0
 28 30  1  0  0  0  0
 30 29  1  0  0  0  0
 31 17  1  0  0  0  0
 32 31  1  0  0  0  0
M  END
>  <MODEL>
2

>  <REMARK>
 VINA RESULT:      -6.9      3.668      7.562
  Name = 
  3 active torsions:
  status: ('A' for Active; 'I' for Inactive)
    1  A    between atoms: C_13  and  C_29
    2  A    between atoms: O_15  and  C_26
    3  A    between atoms: C_16  and  C_27
                            x       y       z     vdW  Elec       q    Type
                         _______ _______ _______ _____ _____    ______ ____

>  <TORSDO>
F 3

$$$$
=
 OpenBabel10262421103D

 32 36  0  0  1  0  0  0  0  0999 V2000
  185.1890  178.4610  142.9480 C   0  0  1  0  0  3  0  0  0  0  0  0
  183.8010  179.0500  140.8280 C   0  0  2  0  0  3  0  0  0  0  0  0
  185.3680  178.9750  144.3840 C   0  0  0  0  0  2  0  0  0  0  0  0
  184.0090  179.2240  142.3420 C   0  0  1  0  0  3  0  0  0  0  0  0
  182.8040  177.9030  140.5650 C   0  0  2  0  0  3  0  0  0  0  0  0
  185.3350  177.1580  135.6880 N   0  0  0  0  0  1  0  0  0  0  0  0
  185.0720  178.8690  140.0570 C   0  0  1  0  0  3  0  0  0  0  0  0
  183.9790  176.3460  137.5470 C   0  0  0  0  0  2  0  0  0  0  0  0
  183.4910  176.4790  138.9990 C   0  0  0  0  0  2  0  0  0  0  0  0
  182.7740  178.7430  143.1050 C   0  0  2  0  0  3  0  0  0  0  0  0
  182.6530  177.5890  139.1980 O   0  0  0  0  0  0  0  0  0  0  0  0
  181.5990  179.0850  142.4100 O   0  0  0  0  0  0  0  0  0  0  0  0
  182.8350  179.2970  144.5200 C   0  0  0  0  0  2  0  0  0  0  0  0
  186.1970  178.0900  140.6810 C   0  0  0  0  0  2  0  0  0  0  0  0
  186.4570  178.6010  142.0980 C   0  0  2  0  0  3  0  0  0  0  0  0
  184.9610  179.0100  138.7850 N   0  0  0  0  0  2  0  0  0  0  0  0
  181.4600  178.1880  141.3100 C   0  0  1  0  0  3  0  0  0  0  0  0
  184.0900  178.7380  145.2110 C   0  0  0  0  0  2  0  0  0  0  0  0
  184.6920  177.5620  136.9240 C   0  0  1  0  0  3  0  0  0  0  0  0
  185.7120  178.2500  137.8280 C   0  0  0  0  0  2  0  0  0  0  0  0
  189.7370  176.7020  142.4380 C   0  0  0  0  0  0  0  0  0  0  0  0
  190.7330  176.2310  141.6480 F   0  0  0  0  0  0  0  0  0  0  0  0
  187.6230  177.8670  142.7000 C   0  0  0  0  0  0  0  0  0  0  0  0
  189.8010  176.5040  143.8190 C   0  0  0  0  0  3  0  0  0  0  0  0
  187.6950  177.6630  144.0870 C   0  0  0  0  0  3  0  0  0  0  0  0
  188.6510  177.3830  141.8750 C   0  0  0  0  0  0  0  0  0  0  0  0
  188.5980  177.5760  140.4980 O   0  0  0  0  0  1  0  0  0  0  0  0
  188.7780  176.9840  144.6520 C   0  0  0  0  0  0  0  0  0  0  0  0
  188.0540  177.5980  146.9350 C   0  0  0  0  0  1  0  0  0  0  0  0
  188.8130  176.8010  146.0370 O   0  0  0  0  0  0  0  0  0  0  0  0
  180.3850  178.7320  140.3790 C   0  0  0  0  0  2  0  0  0  0  0  0
  180.4170  180.1260  140.3760 O   0  0  0  0  0  1  0  0  0  0  0  0
  1  3  1  1  0  0  0
  2  4  1  0  0  0  0
  3 18  1  0  0  0  0
  4  1  1  0  0  0  0
  4 10  1  0  0  0  0
  5  2  1  0  0  0  0
  5 17  1  0  0  0  0
  6 19  1  0  0  0  0
  7 14  1  0  0  0  0
  7  2  1  0  0  0  0
  8  9  1  0  0  0  0
  9 11  1  0  0  0  0
 10 13  1  0  0  0  0
 11  5  1  0  0  0  0
 12 10  1  0  0  0  0
 13 18  1  0  0  0  0
 14 15  1  0  0  0  0
 15 23  1  0  0  0  0
 15  1  1  0  0  0  0
 16  7  1  0  0  0  0
 17 12  1  0  0  0  0
 19  8  1  0  0  0  0
 19 20  1  0  0  0  0
 20 16  1  0  0  0  0
 21 24  1  0  0  0  0
 22 21  1  0  0  0  0
 23 25  2  0  0  0  0
 24 28  2  0  0  0  0
 25 28  1  0  0  0  0
 26 21  2  0  0  0  0
 26 23  1  0  0  0  0
 27 26  1  0  0  0  0
 28 30  1  0  0  0  0
 30 29  1  0  0  0  0
 31 17  1  0  0  0  0
 32 31  1  0  0  0  0
M  END
>  <MODEL>
3

>  <REMARK>
 VINA RESULT:      -6.8      2.840      5.289
  Name = 
  3 active torsions:
  status: ('A' for Active; 'I' for Inactive)
    1  A    between atoms: C_13  and  C_29
    2  A    between atoms: O_15  and  C_26
    3  A    between atoms: C_16  and  C_27
                            x       y       z     vdW  Elec       q    Type
                         _______ _______ _______ _____ _____    ______ ____

>  <TORSDO>
F 3

$$$$
=
 OpenBabel10262421103D

 32 36  0  0  1  0  0  0  0  0999 V2000
  185.5760  178.1150  139.5740 C   0  0  1  0  0  3  0  0  0  0  0  0
  187.0200  178.8780  141.5990 C   0  0  2  0  0  3  0  0  0  0  0  0
  185.5690  178.2650  138.0460 C   0  0  0  0  0  2  0  0  0  0  0  0
  186.8980  178.6970  140.0760 C   0  0  1  0  0  3  0  0  0  0  0  0
  187.6800  177.6320  142.2240 C   0  0  2  0  0  3  0  0  0  0  0  0
  184.9300  178.8220  146.8890 N   0  0  0  0  0  1  0  0  0  0  0  0
  185.7280  179.2200  142.2750 C   0  0  1  0  0  3  0  0  0  0  0  0
  186.0730  177.2490  145.4150 C   0  0  0  0  0  2  0  0  0  0  0  0
  186.6110  176.8760  144.0240 C   0  0  0  0  0  2  0  0  0  0  0  0
  187.9840  177.7480  139.5680 C   0  0  2  0  0  3  0  0  0  0  0  0
  187.7130  177.6570  143.6340 O   0  0  0  0  0  0  0  0  0  0  0  0
  189.1910  177.9620  140.2590 O   0  0  0  0  0  0  0  0  0  0  0  0
  188.1010  177.9120  138.0610 C   0  0  0  0  0  2  0  0  0  0  0  0
  184.4550  178.6040  141.7640 C   0  0  0  0  0  2  0  0  0  0  0  0
  184.3680  178.7770  140.2470 C   0  0  2  0  0  3  0  0  0  0  0  0
  185.8420  179.6550  143.4780 N   0  0  0  0  0  2  0  0  0  0  0  0
  189.0680  177.3760  141.5530 C   0  0  1  0  0  3  0  0  0  0  0  0
  186.7600  177.5160  137.4190 C   0  0  0  0  0  2  0  0  0  0  0  0
  185.6840  178.7210  145.6540 C   0  0  1  0  0  3  0  0  0  0  0  0
  184.8980  179.3780  144.5210 C   0  0  0  0  0  2  0  0  0  0  0  0
  180.9850  178.5070  138.5260 C   0  0  0  0  0  0  0  0  0  0  0  0
  180.1400  179.2830  137.8030 F   0  0  0  0  0  0  0  0  0  0  0  0
  183.0660  178.2190  139.7440 C   0  0  0  0  0  0  0  0  0  0  0  0
  180.6410  177.1800  138.7970 C   0  0  0  0  0  3  0  0  0  0  0  0
  182.7110  176.8870  140.0120 C   0  0  0  0  0  3  0  0  0  0  0  0
  182.1960  179.0290  138.9960 C   0  0  0  0  0  0  0  0  0  0  0  0
  182.5300  180.3510  138.7180 O   0  0  0  0  0  1  0  0  0  0  0  0
  181.5030  176.3630  139.5440 C   0  0  0  0  0  0  0  0  0  0  0  0
  179.8810  174.6210  140.2140 C   0  0  0  0  0  1  0  0  0  0  0  0
  181.1870  175.0330  139.8330 O   0  0  0  0  0  0  0  0  0  0  0  0
  190.2260  177.8630  142.4140 C   0  0  0  0  0  2  0  0  0  0  0  0
  191.4390  177.5010  141.8310 O   0  0  0  0  0  1  0  0  0  0  0  0
  1  3  1  6  0  0  0
  1  4  1  0  0  0  0
  1 15  1  0  0  0  0
  2  5  1  0  0  0  0
  2  7  1  0  0  0  0
  4  2  1  0  0  0  0
  5 11  1  0  0  0  0
  7 16  1  0  0  0  0
  8 19  1  0  0  0  0
  9  8  1  0  0  0  0
 10  4  1  0  0  0  0
 10 12  1  0  0  0  0
 11  9  1  0  0  0  0
 12 17  1  0  0  0  0
 13 10  1  0  0  0  0
 14  7  1  0  0  0  0
 15 14  1  0  0  0  0
 16 20  1  0  0  0  0
 17  5  1  0  0  0  0
 17 31  1  0  0  0  0
 18  3  1  0  0  0  0
 18 13  1  0  0  0  0
 19  6  1  0  0  0  0
 20 19  1  0  0  0  0
 21 24  2  0  0  0  0
 21 26  1  0  0  0  0
 22 21  1  0  0  0  0
 23 25  1  0  0  0  0
 23 15  1  0  0  0  0
 24 28  1  0  0  0  0
 26 23  2  0  0  0  0
 27 26  1  0  0  0  0
 28 30  1  0  0  0  0
 28 25  2  0  0  0  0
 30 29  1  0  0  0  0
 32 31  1  0  0  0  0
M  END
>  <MODEL>
4

>  <REMARK>
 VINA RESULT:      -6.7      3.226      6.044
  Name = 
  3 active torsions:
  status: ('A' for Active; 'I' for Inactive)
    1  A    between atoms: C_13  and  C_29
    2  A    between atoms: O_15  and  C_26
    3  A    between atoms: C_16  and  C_27
                            x       y       z     vdW  Elec       q    Type
                         _______ _______ _______ _____ _____    ______ ____

>  <TORSDO>
F 3

$$$$
=
 OpenBabel10262421103D

 32 36  0  0  1  0  0  0  0  0999 V2000
  186.2170  178.3660  143.1870 C   0  0  1  0  0  3  0  0  0  0  0  0
  183.9990  179.3060  142.2040 C   0  0  2  0  0  3  0  0  0  0  0  0
  187.1340  178.6110  144.3950 C   0  0  0  0  0  2  0  0  0  0  0  0
  184.9550  179.2030  143.4050 C   0  0  1  0  0  3  0  0  0  0  0  0
  182.9210  178.2060  142.2960 C   0  0  2  0  0  3  0  0  0  0  0  0
  182.5850  178.4210  136.7660 N   0  0  0  0  0  1  0  0  0  0  0  0
  184.6910  179.2960  140.8760 C   0  0  1  0  0  3  0  0  0  0  0  0
  182.2930  177.2540  138.8890 C   0  0  0  0  0  2  0  0  0  0  0  0
  182.6160  177.1080  140.3850 C   0  0  0  0  0  2  0  0  0  0  0  0
  184.2400  178.5650  144.5970 C   0  0  2  0  0  3  0  0  0  0  0  0
  182.0790  178.1450  141.1670 O   0  0  0  0  0  0  0  0  0  0  0  0
  182.9050  179.0040  144.6660 O   0  0  0  0  0  0  0  0  0  0  0  0
  185.0470  178.8510  145.8530 C   0  0  0  0  0  2  0  0  0  0  0  0
  185.9130  178.4390  140.6980 C   0  0  0  0  0  2  0  0  0  0  0  0
  186.8910  178.6860  141.8480 C   0  0  2  0  0  3  0  0  0  0  0  0
  183.9650  179.6650  139.8820 N   0  0  0  0  0  2  0  0  0  0  0  0
  182.1630  178.3210  143.6580 C   0  0  1  0  0  3  0  0  0  0  0  0
  186.4330  178.2000  145.7040 C   0  0  0  0  0  2  0  0  0  0  0  0
  182.6860  178.5780  138.2040 C   0  0  1  0  0  3  0  0  0  0  0  0
  184.0710  179.1100  138.5640 C   0  0  0  0  0  2  0  0  0  0  0  0
  189.9590  177.1510  140.2030 C   0  0  0  0  0  0  0  0  0  0  0  0
  190.5950  177.1680  139.0060 F   0  0  0  0  0  0  0  0  0  0  0  0
  188.1410  177.8790  141.6390 C   0  0  0  0  0  0  0  0  0  0  0  0
  190.4760  176.3790  141.2470 C   0  0  0  0  0  3  0  0  0  0  0  0
  188.6670  177.0990  142.6820 C   0  0  0  0  0  3  0  0  0  0  0  0
  188.7930  177.9020  140.3950 C   0  0  0  0  0  0  0  0  0  0  0  0
  188.2890  178.6680  139.3500 O   0  0  0  0  0  1  0  0  0  0  0  0
  189.8310  176.3480  142.4930 C   0  0  0  0  0  0  0  0  0  0  0  0
  191.6810  175.6320  143.9680 C   0  0  0  0  0  1  0  0  0  0  0  0
  190.3220  175.5860  143.5560 O   0  0  0  0  0  0  0  0  0  0  0  0
  180.8090  179.0040  143.5110 C   0  0  0  0  0  2  0  0  0  0  0  0
  179.7850  178.0890  143.7530 O   0  0  0  0  0  1  0  0  0  0  0  0
  1  4  1  0  0  0  0
  1  3  1  1  0  0  0
  2  5  1  0  0  0  0
  2  4  1  0  0  0  0
  3 18  1  0  0  0  0
  4 10  1  0  0  0  0
  5 17  1  0  0  0  0
  6 19  1  0  0  0  0
  7  2  1  0  0  0  0
  8  9  1  0  0  0  0
  9 11  1  0  0  0  0
 10 12  1  0  0  0  0
 10 13  1  0  0  0  0
 11  5  1  0  0  0  0
 14  7  1  0  0  0  0
 14 15  1  0  0  0  0
 15  1  1  0  0  0  0
 16  7  1  0  0  0  0
 17 12  1  0  0  0  0
 18 13  1  0  0  0  0
 19 20  1  0  0  0  0
 19  8  1  0  0  0  0
 20 16  1  0  0  0  0
 21 26  2  0  0  0  0
 21 24  1  0  0  0  0
 22 21  1  0  0  0  0
 23 15  1  0  0  0  0
 23 25  2  0  0  0  0
 24 28  2  0  0  0  0
 26 23  1  0  0  0  0
 27 26  1  0  0  0  0
 28 25  1  0  0  0  0
 28 30  1  0  0  0  0
 30 29  1  0  0  0  0
 31 17  1  0  0  0  0
 31 32  1  0  0  0  0
M  END
>  <MODEL>
5

>  <REMARK>
 VINA RESULT:      -6.5      2.678      3.895
  Name = 
  3 active torsions:
  status: ('A' for Active; 'I' for Inactive)
    1  A    between atoms: C_13  and  C_29
    2  A    between atoms: O_15  and  C_26
    3  A    between atoms: C_16  and  C_27
                            x       y       z     vdW  Elec       q    Type
                         _______ _______ _______ _____ _____    ______ ____

>  <TORSDO>
F 3

$$$$
=
 OpenBabel10262421103D

 32 36  0  0  1  0  0  0  0  0999 V2000
  186.5100  178.0220  139.0920 C   0  0  1  0  0  3  0  0  0  0  0  0
  187.4820  178.8680  141.3520 C   0  0  2  0  0  3  0  0  0  0  0  0
  186.8380  178.1120  137.5940 C   0  0  0  0  0  2  0  0  0  0  0  0
  187.6950  178.6270  139.8480 C   0  0  1  0  0  3  0  0  0  0  0  0
  187.9820  177.6490  142.1540 C   0  0  2  0  0  3  0  0  0  0  0  0
  184.2880  179.0150  146.0560 N   0  0  0  0  0  1  0  0  0  0  0  0
  186.0760  179.2330  141.7150 C   0  0  1  0  0  3  0  0  0  0  0  0
  185.7140  177.3880  144.9290 C   0  0  0  0  0  2  0  0  0  0  0  0
  186.5410  176.9620  143.7050 C   0  0  0  0  0  2  0  0  0  0  0  0
  188.8600  177.6610  139.6270 C   0  0  2  0  0  3  0  0  0  0  0  0
  187.7060  177.7300  143.5350 O   0  0  0  0  0  0  0  0  0  0  0  0
  189.8880  177.9050  140.5560 O   0  0  0  0  0  0  0  0  0  0  0  0
  189.3040  177.7660  138.1760 C   0  0  0  0  0  2  0  0  0  0  0  0
  184.9410  178.5950  140.9630 C   0  0  0  0  0  2  0  0  0  0  0  0
  185.1890  178.7070  139.4590 C   0  0  2  0  0  3  0  0  0  0  0  0
  185.9270  179.7160  142.8960 N   0  0  0  0  0  2  0  0  0  0  0  0
  189.4810  177.3700  141.8130 C   0  0  1  0  0  3  0  0  0  0  0  0
  188.1330  177.3420  137.2720 C   0  0  0  0  0  2  0  0  0  0  0  0
  185.2920  178.8680  145.0200 C   0  0  1  0  0  3  0  0  0  0  0  0
  184.7770  179.4780  143.7190 C   0  0  0  0  0  2  0  0  0  0  0  0
  181.8520  178.4000  137.6570 C   0  0  0  0  0  0  0  0  0  0  0  0
  180.7940  179.1790  137.3210 F   0  0  0  0  0  0  0  0  0  0  0  0
  184.0250  178.1280  138.7040 C   0  0  0  0  0  0  0  0  0  0  0  0
  181.8560  177.0510  137.2930 C   0  0  0  0  0  3  0  0  0  0  0  0
  184.0210  176.7730  138.3350 C   0  0  0  0  0  3  0  0  0  0  0  0
  182.9330  178.9410  138.3610 C   0  0  0  0  0  0  0  0  0  0  0  0
  182.9190  180.2860  138.7170 O   0  0  0  0  0  1  0  0  0  0  0  0
  182.9420  176.2290  137.6320 C   0  0  0  0  0  0  0  0  0  0  0  0
  184.0700  174.0280  137.6060 C   0  0  0  0  0  1  0  0  0  0  0  0
  182.9760  174.8760  137.2830 O   0  0  0  0  0  0  0  0  0  0  0  0
  190.4260  177.8940  142.8870 C   0  0  0  0  0  2  0  0  0  0  0  0
  191.7270  177.4620  142.6290 O   0  0  0  0  0  1  0  0  0  0  0  0
  1  3  1  6  0  0  0
  1 15  1  0  0  0  0
  1  4  1  0  0  0  0
  2  7  1  0  0  0  0
  2  5  1  0  0  0  0
  4  2  1  0  0  0  0
  5 11  1  0  0  0  0
  7 16  1  0  0  0  0
  8 19  1  0  0  0  0
  9  8  1  0  0  0  0
 10  4  1  0  0  0  0
 10 12  1  0  0  0  0
 11  9  1  0  0  0  0
 12 17  1  0  0  0  0
 13 10  1  0  0  0  0
 14  7  1  0  0  0  0
 15 14  1  0  0  0  0
 16 20  1  0  0  0  0
 17  5  1  0  0  0  0
 17 31  1  0  0  0  0
 18  3  1  0  0  0  0
 18 13  1  0  0  0  0
 19  6  1  0  0  0  0
 20 19  1  0  0  0  0
 21 26  1  0  0  0  0
 22 21  1  0  0  0  0
 23 15  1  0  0  0  0
 24 28  1  0  0  0  0
 24 21  2  0  0  0  0
 25 23  1  0  0  0  0
 26 23  2  0  0  0  0
 26 27  1  0  0  0  0
 28 25  2  0  0  0  0
 30 29  1  0  0  0  0
 30 28  1  0  0  0  0
 32 31  1  0  0  0  0
M  END
>  <MODEL>
6

>  <REMARK>
 VINA RESULT:      -6.3      3.047      5.341
  Name = 
  3 active torsions:
  status: ('A' for Active; 'I' for Inactive)
    1  A    between atoms: C_13  and  C_29
    2  A    between atoms: O_15  and  C_26
    3  A    between atoms: C_16  and  C_27
                            x       y       z     vdW  Elec       q    Type
                         _______ _______ _______ _____ _____    ______ ____

>  <TORSDO>
F 3

$$$$
=
 OpenBabel10262421103D

 32 36  0  0  1  0  0  0  0  0999 V2000
  183.9210  178.6480  142.3150 C   0  0  1  0  0  3  0  0  0  0  0  0
  183.2080  178.8940  139.8250 C   0  0  2  0  0  3  0  0  0  0  0  0
  183.5910  179.2840  143.6730 C   0  0  0  0  0  2  0  0  0  0  0  0
  182.9160  179.2030  141.3040 C   0  0  1  0  0  3  0  0  0  0  0  0
  182.4660  177.6100  139.4020 C   0  0  2  0  0  3  0  0  0  0  0  0
  186.4500  176.8550  135.6210 N   0  0  0  0  0  1  0  0  0  0  0  0
  184.6670  178.8280  139.4960 C   0  0  1  0  0  3  0  0  0  0  0  0
  184.6750  176.0080  137.0640 C   0  0  0  0  0  2  0  0  0  0  0  0
  183.7490  176.1790  138.2800 C   0  0  0  0  0  2  0  0  0  0  0  0
  181.5620  178.6200  141.7090 C   0  0  2  0  0  3  0  0  0  0  0  0
  182.7810  177.1810  138.0960 O   0  0  0  0  0  0  0  0  0  0  0  0
  180.6330  178.7530  140.6610 O   0  0  0  0  0  0  0  0  0  0  0  0
  181.1230  179.2780  143.0080 C   0  0  0  0  0  2  0  0  0  0  0  0
  185.6160  178.2510  140.5080 C   0  0  0  0  0  2  0  0  0  0  0  0
  185.3690  178.8930  141.8740 C   0  0  2  0  0  3  0  0  0  0  0  0
  184.9430  178.8600  138.2410 N   0  0  0  0  0  2  0  0  0  0  0  0
  180.9350  177.7680  139.6750 C   0  0  1  0  0  3  0  0  0  0  0  0
  182.1520  178.9410  144.1010 C   0  0  0  0  0  2  0  0  0  0  0  0
  185.4170  177.2590  136.5550 C   0  0  1  0  0  3  0  0  0  0  0  0
  186.0280  178.1390  137.6420 C   0  0  0  0  0  2  0  0  0  0  0  0
  188.5950  177.5800  143.4080 C   0  0  0  0  0  0  0  0  0  0  0  0
  189.8650  177.2940  143.0300 F   0  0  0  0  0  0  0  0  0  0  0  0
  186.3600  178.3650  142.8740 C   0  0  0  0  0  0  0  0  0  0  0  0
  188.2110  177.3860  144.7370 C   0  0  0  0  0  3  0  0  0  0  0  0
  185.9830  178.1650  144.2120 C   0  0  0  0  0  3  0  0  0  0  0  0
  187.6730  178.0700  142.4740 C   0  0  0  0  0  0  0  0  0  0  0  0
  188.0670  178.2620  141.1540 O   0  0  0  0  0  1  0  0  0  0  0  0
  186.9000  177.6770  145.1460 C   0  0  0  0  0  0  0  0  0  0  0  0
  185.4400  178.2530  147.0570 C   0  0  0  0  0  1  0  0  0  0  0  0
  186.4860  177.4920  146.4670 O   0  0  0  0  0  0  0  0  0  0  0  0
  180.1530  178.0960  138.4110 C   0  0  0  0  0  2  0  0  0  0  0  0
  179.3830  176.9980  138.0280 O   0  0  0  0  0  1  0  0  0  0  0  0
  1  3  1  1  0  0  0
  2  4  1  0  0  0  0
  3 18  1  0  0  0  0
  4 10  1  0  0  0  0
  4  1  1  0  0  0  0
  5 17  1  0  0  0  0
  5  2  1  0  0  0  0
  6 19  1  0  0  0  0
  7  2  1  0  0  0  0
  7 14  1  0  0  0  0
  8  9  1  0  0  0  0
 10 13  1  0  0  0  0
 11  9  1  0  0  0  0
 11  5  1  0  0  0  0
 12 10  1  0  0  0  0
 13 18  1  0  0  0  0
 14 15  1  0  0  0  0
 15  1  1  0  0  0  0
 15 23  1  0  0  0  0
 16  7  1  0  0  0  0
 17 12  1  0  0  0  0
 19  8  1  0  0  0  0
 19 20  1  0  0  0  0
 20 16  1  0  0  0  0
 21 24  1  0  0  0  0
 22 21  1  0  0  0  0
 23 25  2  0  0  0  0
 24 28  2  0  0  0  0
 25 28  1  0  0  0  0
 26 23  1  0  0  0  0
 26 21  2  0  0  0  0
 27 26  1  0  0  0  0
 28 30  1  0  0  0  0
 30 29  1  0  0  0  0
 31 17  1  0  0  0  0
 32 31  1  0  0  0  0
M  END
>  <MODEL>
7

>  <REMARK>
 VINA RESULT:      -6.3      2.793      6.118
  Name = 
  3 active torsions:
  status: ('A' for Active; 'I' for Inactive)
    1  A    between atoms: C_13  and  C_29
    2  A    between atoms: O_15  and  C_26
    3  A    between atoms: C_16  and  C_27
                            x       y       z     vdW  Elec       q    Type
                         _______ _______ _______ _____ _____    ______ ____

>  <TORSDO>
F 3

$$$$
=
 OpenBabel10262421103D

 32 36  0  0  1  0  0  0  0  0999 V2000
  183.0110  178.5360  142.5000 C   0  0  1  0  0  3  0  0  0  0  0  0
  182.6660  178.9020  139.9480 C   0  0  2  0  0  3  0  0  0  0  0  0
  182.3860  179.0030  143.8230 C   0  0  0  0  0  2  0  0  0  0  0  0
  182.1070  179.0410  141.3740 C   0  0  1  0  0  3  0  0  0  0  0  0
  182.1890  177.5740  139.3260 C   0  0  2  0  0  3  0  0  0  0  0  0
  186.7800  177.6720  136.2180 N   0  0  0  0  0  1  0  0  0  0  0  0
  184.1530  179.0540  139.8620 C   0  0  1  0  0  3  0  0  0  0  0  0
  184.9400  176.4800  137.2890 C   0  0  0  0  0  2  0  0  0  0  0  0
  183.8220  176.4240  138.3420 C   0  0  0  0  0  2  0  0  0  0  0  0
  180.8030  178.2540  141.5100 C   0  0  2  0  0  3  0  0  0  0  0  0
  182.7610  177.3040  138.0650 O   0  0  0  0  0  0  0  0  0  0  0  0
  180.0390  178.3560  140.3330 O   0  0  0  0  0  0  0  0  0  0  0  0
  180.0770  178.7350  142.7580 C   0  0  0  0  0  2  0  0  0  0  0  0
  185.0050  178.5200  140.9790 C   0  0  0  0  0  2  0  0  0  0  0  0
  184.4600  179.0040  142.3230 C   0  0  2  0  0  3  0  0  0  0  0  0
  184.6140  179.2300  138.6750 N   0  0  0  0  0  2  0  0  0  0  0  0
  180.6280  177.5080  139.3500 C   0  0  1  0  0  3  0  0  0  0  0  0
  180.9610  178.4410  143.9820 C   0  0  0  0  0  2  0  0  0  0  0  0
  185.5670  177.8560  136.9920 C   0  0  1  0  0  3  0  0  0  0  0  0
  185.8710  178.7110  138.2200 C   0  0  0  0  0  2  0  0  0  0  0  0
  186.0560  178.6320  145.7570 C   0  0  0  0  0  0  0  0  0  0  0  0
  185.9480  179.1660  146.9990 F   0  0  0  0  0  0  0  0  0  0  0  0
  185.3480  178.5240  143.4370 C   0  0  0  0  0  0  0  0  0  0  0  0
  186.9970  177.6270  145.5180 C   0  0  0  0  0  3  0  0  0  0  0  0
  186.2960  177.5150  143.2060 C   0  0  0  0  0  3  0  0  0  0  0  0
  185.2300  179.0820  144.7200 C   0  0  0  0  0  0  0  0  0  0  0  0
  184.2950  180.0820  144.9700 O   0  0  0  0  0  1  0  0  0  0  0  0
  187.1230  177.0630  144.2390 C   0  0  0  0  0  0  0  0  0  0  0  0
  189.2010  176.2720  143.1580 C   0  0  0  0  0  1  0  0  0  0  0  0
  188.0540  176.0580  143.9690 O   0  0  0  0  0  0  0  0  0  0  0  0
  180.0130  177.8400  137.9970 C   0  0  0  0  0  2  0  0  0  0  0  0
  179.8830  179.2220  137.8590 O   0  0  0  0  0  1  0  0  0  0  0  0
  1  3  1  1  0  0  0
  2  4  1  0  0  0  0
  3 18  1  0  0  0  0
  4 10  1  0  0  0  0
  4  1  1  0  0  0  0
  5 17  1  0  0  0  0
  5  2  1  0  0  0  0
  6 19  1  0  0  0  0
  7  2  1  0  0  0  0
  7 14  1  0  0  0  0
  8  9  1  0  0  0  0
 10 13  1  0  0  0  0
 11  9  1  0  0  0  0
 11  5  1  0  0  0  0
 12 10  1  0  0  0  0
 13 18  1  0  0  0  0
 14 15  1  0  0  0  0
 15  1  1  0  0  0  0
 15 23  1  0  0  0  0
 16  7  1  0  0  0  0
 17 12  1  0  0  0  0
 19  8  1  0  0  0  0
 19 20  1  0  0  0  0
 20 16  1  0  0  0  0
 21 22  1  0  0  0  0
 23 26  1  0  0  0  0
 24 21  1  0  0  0  0
 25 23  2  0  0  0  0
 25 28  1  0  0  0  0
 26 27  1  0  0  0  0
 26 21  2  0  0  0  0
 28 24  2  0  0  0  0
 29 30  1  0  0  0  0
 30 28  1  0  0  0  0
 31 17  1  0  0  0  0
 32 31  1  0  0  0  0
M  END
>  <MODEL>
8

>  <REMARK>
 VINA RESULT:      -6.2      3.443      6.651
  Name = 
  3 active torsions:
  status: ('A' for Active; 'I' for Inactive)
    1  A    between atoms: C_13  and  C_29
    2  A    between atoms: O_15  and  C_26
    3  A    between atoms: C_16  and  C_27
                            x       y       z     vdW  Elec       q    Type
                         _______ _______ _______ _____ _____    ______ ____

>  <TORSDO>
F 3

$$$$
=
 OpenBabel10262421103D

 32 36  0  0  1  0  0  0  0  0999 V2000
  188.1300  177.7850  140.7070 C   0  0  1  0  0  3  0  0  0  0  0  0
  185.9710  178.9820  141.5270 C   0  0  2  0  0  3  0  0  0  0  0  0
  189.6300  177.7640  141.0390 C   0  0  0  0  0  2  0  0  0  0  0  0
  187.4430  178.6190  141.7900 C   0  0  1  0  0  3  0  0  0  0  0  0
  185.0480  177.9310  142.1760 C   0  0  2  0  0  3  0  0  0  0  0  0
  181.3050  179.1810  138.2820 N   0  0  0  0  0  1  0  0  0  0  0  0
  185.6470  179.1900  140.0800 C   0  0  1  0  0  3  0  0  0  0  0  0
  182.2580  177.6540  139.9280 C   0  0  0  0  0  2  0  0  0  0  0  0
  183.4320  177.2200  140.8200 C   0  0  0  0  0  2  0  0  0  0  0  0
  187.5640  177.8010  143.0760 C   0  0  2  0  0  3  0  0  0  0  0  0
  183.6830  178.1160  141.8740 O   0  0  0  0  0  0  0  0  0  0  0  0
  186.6670  178.2750  144.0500 O   0  0  0  0  0  0  0  0  0  0  0  0
  189.0180  177.8150  143.5210 C   0  0  0  0  0  2  0  0  0  0  0  0
  186.3270  178.3310  139.0510 C   0  0  0  0  0  2  0  0  0  0  0  0
  187.8350  178.3200  139.3010 C   0  0  2  0  0  3  0  0  0  0  0  0
  184.5220  179.7670  139.8530 N   0  0  0  0  0  2  0  0  0  0  0  0
  185.3600  177.8230  143.7030 C   0  0  1  0  0  3  0  0  0  0  0  0
  189.8720  177.1460  142.4290 C   0  0  0  0  0  2  0  0  0  0  0  0
  182.3210  179.0650  139.3100 C   0  0  1  0  0  3  0  0  0  0  0  0
  183.6780  179.4620  138.7340 C   0  0  0  0  0  2  0  0  0  0  0  0
  189.0650  177.1440  135.8970 C   0  0  0  0  0  0  0  0  0  0  0  0
  188.9700  177.5070  134.5940 F   0  0  0  0  0  0  0  0  0  0  0  0
  188.5240  177.5140  138.2350 C   0  0  0  0  0  0  0  0  0  0  0  0
  189.8120  176.0160  136.2460 C   0  0  0  0  0  3  0  0  0  0  0  0
  189.2760  176.3780  138.5770 C   0  0  0  0  0  3  0  0  0  0  0  0
  188.4210  177.8950  136.8870 C   0  0  0  0  0  0  0  0  0  0  0  0
  187.6810  179.0180  136.5290 O   0  0  0  0  0  1  0  0  0  0  0  0
  189.9200  175.6270  137.5900 C   0  0  0  0  0  0  0  0  0  0  0  0
  192.0100  174.3050  137.5780 C   0  0  0  0  0  1  0  0  0  0  0  0
  190.6590  174.5030  137.9710 O   0  0  0  0  0  0  0  0  0  0  0  0
  184.3470  178.5770  144.5550 C   0  0  0  0  0  2  0  0  0  0  0  0
  185.0090  179.3350  145.5210 O   0  0  0  0  0  1  0  0  0  0  0  0
  1  3  1  1  0  0  0
  1  4  1  0  0  0  0
  2  4  1  0  0  0  0
  2  5  1  0  0  0  0
  3 18  1  0  0  0  0
  4 10  1  0  0  0  0
  5 17  1  0  0  0  0
  6 19  1  0  0  0  0
  7  2  1  0  0  0  0
  8  9  1  0  0  0  0
  9 11  1  0  0  0  0
 10 13  1  0  0  0  0
 10 12  1  0  0  0  0
 11  5  1  0  0  0  0
 14 15  1  0  0  0  0
 14  7  1  0  0  0  0
 15  1  1  0  0  0  0
 16  7  1  0  0  0  0
 17 12  1  0  0  0  0
 17 31  1  0  0  0  0
 18 13  1  0  0  0  0
 19  8  1  0  0  0  0
 20 19  1  0  0  0  0
 20 16  1  0  0  0  0
 21 24  2  0  0  0  0
 21 26  1  0  0  0  0
 22 21  1  0  0  0  0
 23 25  1  0  0  0  0
 23 15  1  0  0  0  0
 24 28  1  0  0  0  0
 26 23  2  0  0  0  0
 27 26  1  0  0  0  0
 28 30  1  0  0  0  0
 28 25  2  0  0  0  0
 29 30  1  0  0  0  0
 31 32  1  0  0  0  0
M  END
>  <MODEL>
9

>  <REMARK>
 VINA RESULT:      -6.1      1.499      1.714
  Name = 
  3 active torsions:
  status: ('A' for Active; 'I' for Inactive)
    1  A    between atoms: C_13  and  C_29
    2  A    between atoms: O_15  and  C_26
    3  A    between atoms: C_16  and  C_27
                            x       y       z     vdW  Elec       q    Type
                         _______ _______ _______ _____ _____    ______ ____

>  <TORSDO>
F 3

$$$$
