=
 OpenBabel10262420313D

 55 59  0  0  1  0  0  0  0  0999 V2000
  184.7030  175.0800  137.0380 C   0  0  0  0  0  2  0  0  0  0  0  0
  187.5270  172.5790  136.3000 C   0  0  0  0  0  2  0  0  0  0  0  0
  187.2260  175.2730  137.1440 C   0  0  1  0  0  3  0  0  0  0  0  0
  188.4400  174.7700  136.6370 O   0  0  0  0  0  0  0  0  0  0  0  0
  185.8140  177.3810  136.6650 C   0  0  2  0  0  3  0  0  0  0  0  0
  184.7070  176.5790  137.3650 C   0  0  1  0  0  3  0  0  0  0  0  0
  185.6240  177.3920  135.2820 O   0  0  0  0  0  1  0  0  0  0  0  0
  186.1200  173.0760  136.6210 C   0  0  0  0  0  2  0  0  0  0  0  0
  188.5380  173.4340  137.0610 C   0  0  0  0  0  2  0  0  0  0  0  0
  187.1990  176.8040  136.9820 C   0  0  1  0  0  3  0  0  0  0  0  0
  186.0280  174.5910  136.4510 C   0  0  1  0  0  3  0  0  0  0  0  0
  183.0480  177.8180  136.2030 O   0  0  0  0  0  0  0  0  0  0  0  0
  183.3520  177.2220  137.2710 C   0  0  0  0  0  0  0  0  0  0  0  0
  182.3280  176.3820  140.5420 O   0  0  0  0  0  0  0  0  0  0  0  0
  182.3690  177.0950  138.3150 N   0  0  0  0  0  0  0  0  0  0  0  0
  182.7200  177.2420  139.7060 C   0  0  0  0  0  0  0  0  0  0  0  0
  180.9110  175.2910  137.5020 C   0  0  0  0  0  3  0  0  0  0  0  0
  179.9100  174.8850  136.7170 C   0  0  0  0  0  3  0  0  0  0  0  0
  180.4670  177.6800  136.8410 C   0  0  0  0  0  2  0  0  0  0  0  0
  179.1660  177.1710  136.2830 C   0  0  0  0  0  3  0  0  0  0  0  0
  178.9310  175.8580  136.1930 C   0  0  0  0  0  3  0  0  0  0  0  0
  181.0040  176.7350  137.9250 C   0  0  2  0  0  3  0  0  0  0  0  0
  183.4540  178.4350  140.1730 C   0  0  0  0  0  0  0  0  0  0  0  0
  183.6000  179.4060  139.3820 O   0  0  0  0  0  0  0  0  0  0  0  0
  181.5110  179.0030  142.6030 Cl  0  0  0  0  0  0  0  0  0  0  0  0
  185.4160  178.3030  141.6910 C   0  0  0  0  0  3  0  0  0  0  0  0
  186.0150  178.4020  142.9470 C   0  0  0  0  0  3  0  0  0  0  0  0
  183.2540  178.7960  142.6760 C   0  0  0  0  0  0  0  0  0  0  0  0
  183.8610  178.8860  143.9310 C   0  0  0  0  0  3  0  0  0  0  0  0
  185.2440  178.7110  144.0720 C   0  0  0  0  0  0  0  0  0  0  0  0
  184.0370  178.5030  141.5340 C   0  0  0  0  0  0  0  0  0  0  0  0
  185.8860  178.7750  145.4230 C   0  0  1  0  0  3  0  0  0  0  0  0
  184.9490  178.3370  146.4580 C   0  0  0  0  0  2  0  0  0  0  0  0
  186.0000  177.4210  145.9950 N   0  0  0  0  0  2  0  0  0  0  0  0
  187.7190  177.4170  138.1530 O   0  0  0  0  0  0  0  0  0  0  0  0
  188.8660  178.2080  138.1150 C   0  0  0  0  0  0  0  0  0  0  0  0
  188.7520  179.4620  138.1370 O   0  0  0  0  0  0  0  0  0  0  0  0
  190.1270  177.6120  138.0370 O   0  0  0  0  0  0  0  0  0  0  0  0
  190.5880  176.6790  139.0020 C   0  0  1  0  0  3  0  0  0  0  0  0
  191.4150  175.5290  137.0450 O   0  0  0  0  0  1  0  0  0  0  0  0
  191.6980  175.8190  138.3850 C   0  0  1  0  0  3  0  0  0  0  0  0
  193.0510  176.4980  138.5090 C   0  0  0  0  0  2  0  0  0  0  0  0
  193.6980  176.4900  137.2730 O   0  0  0  0  0  1  0  0  0  0  0  0
  191.0530  177.4340  140.2420 C   0  0  0  0  0  2  0  0  0  0  0  0
  188.9720  177.0200  141.5240 C   0  0  0  0  0  1  0  0  0  0  0  0
  190.4790  176.8270  141.5140 C   0  0  2  0  0  3  0  0  0  0  0  0
  191.1110  177.4830  142.7450 C   0  0  1  0  0  3  0  0  0  0  0  0
  190.5740  178.7610  142.9610 O   0  0  0  0  0  1  0  0  0  0  0  0
  191.9230  175.6830  143.8810 O   0  0  0  0  0  1  0  0  0  0  0  0
  190.9640  176.6390  143.9390 N   0  0  0  0  0  0  0  0  0  0  0  0
  191.2040  177.4190  145.1480 C   0  0  0  0  0  2  0  0  0  0  0  0
  191.5310  176.5620  146.2000 O   0  0  0  0  0  0  0  0  0  0  0  0
  190.3820  176.5290  146.9910 C   0  0  0  0  0  2  0  0  0  0  0  0
  189.0540  177.9620  148.0110 C   0  0  0  0  0  1  0  0  0  0  0  0
  189.6330  177.6850  146.7750 O   0  0  0  0  0  0  0  0  0  0  0  0
  1  6  1  0  0  0  0
  2  8  1  0  0  0  0
  2  9  1  0  0  0  0
  3  4  1  6  0  0  0
  4  9  1  0  0  0  0
  5  7  1  6  0  0  0
  5 10  1  0  0  0  0
  5  6  1  0  0  0  0
  6 13  1  6  0  0  0
 10  3  1  0  0  0  0
 10 35  1  1  0  0  0
 11  8  1  1  0  0  0
 11  1  1  0  0  0  0
 11  3  1  0  0  0  0
 12 13  2  0  0  0  0
 13 15  1  0  0  0  0
 15 16  1  0  0  0  0
 16 23  1  0  0  0  0
 16 14  2  0  0  0  0
 17 22  1  0  0  0  0
 18 17  2  0  0  0  0
 19 22  1  0  0  0  0
 20 19  1  0  0  0  0
 21 20  2  0  0  0  0
 21 18  1  0  0  0  0
 22 15  1  6  0  0  0
 23 31  1  0  0  0  0
 24 23  2  0  0  0  0
 25 28  1  0  0  0  0
 26 27  1  0  0  0  0
 27 30  2  0  0  0  0
 28 29  2  0  0  0  0
 29 30  1  0  0  0  0
 31 26  2  0  0  0  0
 31 28  1  0  0  0  0
 32 30  1  6  0  0  0
 32 34  1  0  0  0  0
 32 33  1  0  0  0  0
 34 33  1  0  0  0  0
 36 37  2  0  0  0  0
 36 35  1  0  0  0  0
 38 36  1  0  0  0  0
 38 39  1  0  0  0  0
 39 44  1  1  0  0  0
 41 40  1  6  0  0  0
 41 42  1  0  0  0  0
 41 39  1  0  0  0  0
 43 42  1  0  0  0  0
 44 46  1  0  0  0  0
 46 45  1  1  0  0  0
 46 47  1  0  0  0  0
 47 48  1  1  0  0  0
 47 50  1  0  0  0  0
 49 50  1  0  0  0  0
 50 51  1  0  0  0  0
 51 52  1  0  0  0  0
 52 53  1  0  0  0  0
 55 53  1  0  0  0  0
 55 54  1  0  0  0  0
M  END
>  <MODEL>
1

>  <REMARK>
 VINA RESULT:      -7.5      0.000      0.000
  Name = 
  19 active torsions:
  status: ('A' for Active; 'I' for Inactive)
    1  A    between atoms: C_1  and  C_21
    2  A    between atoms: C_1  and  N_53
    3  A    between atoms: C_3  and  O_25
    4  A    between atoms: C_3  and  O_38
    5  A    between atoms: C_6  and  C_14
    6  A    between atoms: C_6  and  O_22
    7  A    between atoms: C_6  and  C_46
    8  A    between atoms: C_8  and  O_22
    9  A    between atoms: C_8  and  O_54
   10  A    between atoms: C_10  and  C_48
   11  A    between atoms: C_14  and  C_20
   12  A    between atoms: C_19  and  C_37
   13  A    between atoms: C_21  and  C_46
   14  A    between atoms: C_26  and  N_45
   15  A    between atoms: C_29  and  O_38
   16  A    between atoms: C_29  and  N_53
   17  A    between atoms: C_33  and  C_49
   18  A    between atoms: C_33  and  C_52
   19  A    between atoms: C_51  and  O_54
                            x       y       z     vdW  Elec       q    Type
                         _______ _______ _______ _____ _____    ______ ____

>  <TORSDO>
F 19

$$$$
=
 OpenBabel10262420313D

 55 59  0  0  1  0  0  0  0  0999 V2000
  183.6840  178.4130  144.3110 C   0  0  0  0  0  2  0  0  0  0  0  0
  180.0330  178.8290  143.1850 C   0  0  0  0  0  2  0  0  0  0  0  0
  182.5960  178.4470  142.0250 C   0  0  1  0  0  3  0  0  0  0  0  0
  181.4920  178.9100  141.2840 O   0  0  0  0  0  0  0  0  0  0  0  0
  185.0470  179.2210  142.2730 C   0  0  2  0  0  3  0  0  0  0  0  0
  185.0070  178.3480  143.5360 C   0  0  1  0  0  3  0  0  0  0  0  0
  184.9760  180.5770  142.6000 O   0  0  0  0  0  1  0  0  0  0  0  0
  181.2060  178.5390  144.1180 C   0  0  0  0  0  2  0  0  0  0  0  0
  180.3540  178.2690  141.8010 C   0  0  0  0  0  2  0  0  0  0  0  0
  183.8990  178.8690  141.3200 C   0  0  1  0  0  3  0  0  0  0  0  0
  182.5260  178.9620  143.4770 C   0  0  1  0  0  3  0  0  0  0  0  0
  186.2540  179.4400  145.2360 O   0  0  0  0  0  0  0  0  0  0  0  0
  186.2250  178.4940  144.4030 C   0  0  0  0  0  0  0  0  0  0  0  0
  187.9940  175.7830  142.9990 O   0  0  0  0  0  0  0  0  0  0  0  0
  187.3030  177.5410  144.3780 N   0  0  0  0  0  0  0  0  0  0  0  0
  187.8280  177.0260  143.1380 C   0  0  0  0  0  0  0  0  0  0  0  0
  187.0660  177.6650  146.8210 C   0  0  0  0  0  3  0  0  0  0  0  0
  187.6280  177.7020  148.0330 C   0  0  0  0  0  3  0  0  0  0  0  0
  189.3230  177.2530  145.7810 C   0  0  0  0  0  2  0  0  0  0  0  0
  189.7940  176.9610  147.1800 C   0  0  0  0  0  3  0  0  0  0  0  0
  189.0070  177.2120  148.2310 C   0  0  0  0  0  3  0  0  0  0  0  0
  187.8060  177.0480  145.6610 C   0  0  2  0  0  3  0  0  0  0  0  0
  188.2590  177.9460  142.0650 C   0  0  0  0  0  0  0  0  0  0  0  0
  188.0160  179.1770  142.1870 O   0  0  0  0  0  0  0  0  0  0  0  0
  191.2670  177.0040  142.3250 Cl  0  0  0  0  0  0  0  0  0  0  0  0
  188.2340  177.4090  139.6400 C   0  0  0  0  0  3  0  0  0  0  0  0
  188.8520  176.9920  138.4610 C   0  0  0  0  0  3  0  0  0  0  0  0
  190.3020  177.0500  140.8580 C   0  0  0  0  0  0  0  0  0  0  0  0
  190.9110  176.6280  139.6740 C   0  0  0  0  0  3  0  0  0  0  0  0
  190.1990  176.6150  138.4670 C   0  0  0  0  0  0  0  0  0  0  0  0
  188.9450  177.4500  140.8490 C   0  0  0  0  0  0  0  0  0  0  0  0
  190.8450  176.1310  137.2070 C   0  0  1  0  0  3  0  0  0  0  0  0
  191.8880  175.1500  137.5090 C   0  0  0  0  0  2  0  0  0  0  0  0
  190.5800  174.6920  137.0220 N   0  0  0  0  0  2  0  0  0  0  0  0
  184.3120  177.8430  140.4280 O   0  0  0  0  0  0  0  0  0  0  0  0
  184.5850  178.1070  139.0870 C   0  0  0  0  0  0  0  0  0  0  0  0
  185.0990  179.2110  138.7680 O   0  0  0  0  0  0  0  0  0  0  0  0
  184.2760  177.1600  138.1070 O   0  0  0  0  0  0  0  0  0  0  0  0
  182.9390  176.8040  137.7900 C   0  0  1  0  0  3  0  0  0  0  0  0
  181.6260  175.8660  139.5870 O   0  0  0  0  0  1  0  0  0  0  0  0
  182.5470  175.5500  138.5810 C   0  0  1  0  0  3  0  0  0  0  0  0
  181.9860  174.4750  137.6650 C   0  0  0  0  0  2  0  0  0  0  0  0
  180.5970  174.4370  137.7770 O   0  0  0  0  0  1  0  0  0  0  0  0
  182.0270  177.9900  138.0820 C   0  0  0  0  0  2  0  0  0  0  0  0
  181.5490  177.4650  135.7060 C   0  0  0  0  0  1  0  0  0  0  0  0
  181.1160  178.2970  136.9010 C   0  0  2  0  0  3  0  0  0  0  0  0
  181.1740  179.7900  136.5640 C   0  0  1  0  0  3  0  0  0  0  0  0
  181.1930  179.9870  135.1750 O   0  0  0  0  0  1  0  0  0  0  0  0
  180.5010  180.9700  138.3930 O   0  0  0  0  0  1  0  0  0  0  0  0
  180.0660  180.5260  137.1880 N   0  0  0  0  0  0  0  0  0  0  0  0
  179.7210  181.7000  136.3940 C   0  0  0  0  0  2  0  0  0  0  0  0
  180.4530  182.8000  136.8430 O   0  0  0  0  0  0  0  0  0  0  0  0
  180.8020  183.4830  135.6780 C   0  0  0  0  0  2  0  0  0  0  0  0
  181.6860  184.6120  137.3520 C   0  0  0  0  0  1  0  0  0  0  0  0
  181.3320  184.7300  136.0090 O   0  0  0  0  0  0  0  0  0  0  0  0
  2  8  1  0  0  0  0
  3  4  1  6  0  0  0
  3 11  1  0  0  0  0
  4  9  1  0  0  0  0
  5  7  1  1  0  0  0
  5  6  1  0  0  0  0
  6  1  1  0  0  0  0
  6 13  1  1  0  0  0
  9  2  1  0  0  0  0
 10 35  1  6  0  0  0
 10  3  1  0  0  0  0
 10  5  1  0  0  0  0
 11  8  1  1  0  0  0
 11  1  1  0  0  0  0
 13 12  2  0  0  0  0
 14 16  2  0  0  0  0
 15 13  1  0  0  0  0
 16 15  1  0  0  0  0
 17 18  2  0  0  0  0
 18 21  1  0  0  0  0
 19 20  1  0  0  0  0
 20 21  2  0  0  0  0
 22 15  1  6  0  0  0
 22 19  1  0  0  0  0
 22 17  1  0  0  0  0
 23 24  2  0  0  0  0
 23 16  1  0  0  0  0
 26 31  1  0  0  0  0
 27 30  1  0  0  0  0
 27 26  2  0  0  0  0
 28 25  1  0  0  0  0
 29 28  1  0  0  0  0
 30 29  2  0  0  0  0
 31 28  2  0  0  0  0
 31 23  1  0  0  0  0
 32 33  1  0  0  0  0
 32 30  1  1  0  0  0
 34 32  1  0  0  0  0
 34 33  1  0  0  0  0
 36 35  1  0  0  0  0
 37 36  2  0  0  0  0
 38 36  1  0  0  0  0
 39 44  1  1  0  0  0
 39 38  1  0  0  0  0
 39 41  1  0  0  0  0
 41 40  1  1  0  0  0
 42 43  1  0  0  0  0
 42 41  1  0  0  0  0
 46 45  1  6  0  0  0
 46 44  1  0  0  0  0
 47 48  1  6  0  0  0
 47 46  1  0  0  0  0
 47 50  1  0  0  0  0
 50 49  1  0  0  0  0
 51 52  1  0  0  0  0
 51 50  1  0  0  0  0
 53 55  1  0  0  0  0
 53 52  1  0  0  0  0
 55 54  1  0  0  0  0
M  END
>  <MODEL>
2

>  <REMARK>
 VINA RESULT:      -6.5      3.219     10.200
  Name = 
  19 active torsions:
  status: ('A' for Active; 'I' for Inactive)
    1  A    between atoms: C_1  and  C_21
    2  A    between atoms: C_1  and  N_53
    3  A    between atoms: C_3  and  O_25
    4  A    between atoms: C_3  and  O_38
    5  A    between atoms: C_6  and  C_14
    6  A    between atoms: C_6  and  O_22
    7  A    between atoms: C_6  and  C_46
    8  A    between atoms: C_8  and  O_22
    9  A    between atoms: C_8  and  O_54
   10  A    between atoms: C_10  and  C_48
   11  A    between atoms: C_14  and  C_20
   12  A    between atoms: C_19  and  C_37
   13  A    between atoms: C_21  and  C_46
   14  A    between atoms: C_26  and  N_45
   15  A    between atoms: C_29  and  O_38
   16  A    between atoms: C_29  and  N_53
   17  A    between atoms: C_33  and  C_49
   18  A    between atoms: C_33  and  C_52
   19  A    between atoms: C_51  and  O_54
                            x       y       z     vdW  Elec       q    Type
                         _______ _______ _______ _____ _____    ______ ____

>  <TORSDO>
F 19

$$$$
=
 OpenBabel10262420313D

 55 59  0  0  1  0  0  0  0  0999 V2000
  183.7010  178.3930  144.2230 C   0  0  0  0  0  2  0  0  0  0  0  0
  180.0730  178.7860  143.0150 C   0  0  0  0  0  2  0  0  0  0  0  0
  182.6660  178.4330  141.9130 C   0  0  1  0  0  3  0  0  0  0  0  0
  181.5750  178.8920  141.1490 O   0  0  0  0  0  0  0  0  0  0  0  0
  185.1040  179.2250  142.2220 C   0  0  2  0  0  3  0  0  0  0  0  0
  185.0420  178.3440  143.4780 C   0  0  1  0  0  3  0  0  0  0  0  0
  185.0130  180.5780  142.5550 O   0  0  0  0  0  1  0  0  0  0  0  0
  181.2270  178.4990  143.9730 C   0  0  0  0  0  2  0  0  0  0  0  0
  180.4310  178.2380  141.6360 C   0  0  0  0  0  2  0  0  0  0  0  0
  183.9810  178.8700  141.2400 C   0  0  1  0  0  3  0  0  0  0  0  0
  182.5580  178.9380  143.3660 C   0  0  1  0  0  3  0  0  0  0  0  0
  186.2490  179.4480  145.1980 O   0  0  0  0  0  0  0  0  0  0  0  0
  186.2380  178.4950  144.3740 C   0  0  0  0  0  0  0  0  0  0  0  0
  188.0320  175.7640  143.0410 O   0  0  0  0  0  0  0  0  0  0  0  0
  187.3130  177.5380  144.3860 N   0  0  0  0  0  0  0  0  0  0  0  0
  187.8670  177.0090  143.1640 C   0  0  0  0  0  0  0  0  0  0  0  0
  187.0030  177.6720  146.8200 C   0  0  0  0  0  3  0  0  0  0  0  0
  187.5290  177.7210  148.0470 C   0  0  0  0  0  3  0  0  0  0  0  0
  189.2930  177.2740  145.8490 C   0  0  0  0  0  2  0  0  0  0  0  0
  189.7250  176.9930  147.2630 C   0  0  0  0  0  3  0  0  0  0  0  0
  188.9050  177.2430  148.2880 C   0  0  0  0  0  3  0  0  0  0  0  0
  187.7820  177.0550  145.6860 C   0  0  2  0  0  3  0  0  0  0  0  0
  188.3280  177.9160  142.0930 C   0  0  0  0  0  0  0  0  0  0  0  0
  188.0330  179.1400  142.1670 O   0  0  0  0  0  0  0  0  0  0  0  0
  191.3780  177.2030  142.5320 Cl  0  0  0  0  0  0  0  0  0  0  0  0
  188.4560  177.2700  139.6980 C   0  0  0  0  0  3  0  0  0  0  0  0
  189.1550  176.8450  138.5690 C   0  0  0  0  0  3  0  0  0  0  0  0
  190.4830  177.1140  141.0230 C   0  0  0  0  0  0  0  0  0  0  0  0
  191.1750  176.6830  139.8890 C   0  0  0  0  0  3  0  0  0  0  0  0
  190.5230  176.5650  138.6540 C   0  0  0  0  0  0  0  0  0  0  0  0
  189.1030  177.4160  140.9340 C   0  0  0  0  0  0  0  0  0  0  0  0
  191.2600  176.0710  137.4480 C   0  0  1  0  0  3  0  0  0  0  0  0
  192.5350  175.4660  137.8370 C   0  0  0  0  0  2  0  0  0  0  0  0
  191.3940  174.6040  137.5010 N   0  0  0  0  0  2  0  0  0  0  0  0
  184.4230  177.8530  140.3520 O   0  0  0  0  0  0  0  0  0  0  0  0
  184.6450  178.1100  139.0010 C   0  0  0  0  0  0  0  0  0  0  0  0
  185.5670  178.8990  138.6660 O   0  0  0  0  0  0  0  0  0  0  0  0
  183.8410  177.5080  138.0290 O   0  0  0  0  0  0  0  0  0  0  0  0
  182.6250  176.8500  138.3510 C   0  0  1  0  0  3  0  0  0  0  0  0
  180.3500  176.5920  137.5820 O   0  0  0  0  0  1  0  0  0  0  0  0
  181.6160  177.0660  137.2170 C   0  0  1  0  0  3  0  0  0  0  0  0
  181.5410  178.5310  136.8200 C   0  0  0  0  0  2  0  0  0  0  0  0
  181.0510  179.2850  137.8860 O   0  0  0  0  0  1  0  0  0  0  0  0
  182.9120  175.3740  138.6060 C   0  0  0  0  0  2  0  0  0  0  0  0
  182.4710  173.4590  137.0940 C   0  0  0  0  0  1  0  0  0  0  0  0
  183.3630  174.6650  137.3360 C   0  0  2  0  0  3  0  0  0  0  0  0
  184.8260  174.2310  137.4640 C   0  0  1  0  0  3  0  0  0  0  0  0
  184.9190  172.8510  137.6970 O   0  0  0  0  0  1  0  0  0  0  0  0
  185.8730  173.4950  135.5790 O   0  0  0  0  0  1  0  0  0  0  0  0
  185.6080  174.6220  136.2830 N   0  0  0  0  0  0  0  0  0  0  0  0
  184.8240  175.4970  135.4190 C   0  0  0  0  0  2  0  0  0  0  0  0
  185.6810  176.3070  134.6720 O   0  0  0  0  0  0  0  0  0  0  0  0
  186.3440  177.0820  135.6250 C   0  0  0  0  0  2  0  0  0  0  0  0
  188.4360  177.2380  134.9480 C   0  0  0  0  0  1  0  0  0  0  0  0
  187.2350  177.9440  134.9860 O   0  0  0  0  0  0  0  0  0  0  0  0
  2  8  1  0  0  0  0
  3  4  1  6  0  0  0
  3 11  1  0  0  0  0
  4  9  1  0  0  0  0
  5  7  1  1  0  0  0
  5  6  1  0  0  0  0
  6  1  1  0  0  0  0
  6 13  1  1  0  0  0
  9  2  1  0  0  0  0
 10 35  1  6  0  0  0
 10  3  1  0  0  0  0
 10  5  1  0  0  0  0
 11  8  1  1  0  0  0
 11  1  1  0  0  0  0
 13 15  1  0  0  0  0
 13 12  2  0  0  0  0
 14 16  2  0  0  0  0
 16 15  1  0  0  0  0
 17 18  2  0  0  0  0
 18 21  1  0  0  0  0
 19 20  1  0  0  0  0
 20 21  2  0  0  0  0
 22 15  1  6  0  0  0
 22 19  1  0  0  0  0
 22 17  1  0  0  0  0
 23 24  2  0  0  0  0
 23 16  1  0  0  0  0
 26 31  1  0  0  0  0
 27 30  1  0  0  0  0
 27 26  2  0  0  0  0
 28 25  1  0  0  0  0
 29 28  1  0  0  0  0
 30 29  2  0  0  0  0
 31 28  2  0  0  0  0
 31 23  1  0  0  0  0
 32 34  1  0  0  0  0
 32 33  1  0  0  0  0
 32 30  1  1  0  0  0
 34 33  1  0  0  0  0
 36 35  1  0  0  0  0
 37 36  2  0  0  0  0
 38 39  1  0  0  0  0
 38 36  1  0  0  0  0
 39 44  1  6  0  0  0
 41 40  1  1  0  0  0
 41 39  1  0  0  0  0
 42 41  1  0  0  0  0
 42 43  1  0  0  0  0
 46 45  1  1  0  0  0
 46 47  1  0  0  0  0
 46 44  1  0  0  0  0
 47 48  1  6  0  0  0
 49 50  1  0  0  0  0
 50 47  1  0  0  0  0
 51 50  1  0  0  0  0
 52 51  1  0  0  0  0
 52 53  1  0  0  0  0
 54 55  1  0  0  0  0
 55 53  1  0  0  0  0
M  END
>  <MODEL>
3

>  <REMARK>
 VINA RESULT:      -6.5      2.867      9.526
  Name = 
  19 active torsions:
  status: ('A' for Active; 'I' for Inactive)
    1  A    between atoms: C_1  and  C_21
    2  A    between atoms: C_1  and  N_53
    3  A    between atoms: C_3  and  O_25
    4  A    between atoms: C_3  and  O_38
    5  A    between atoms: C_6  and  C_14
    6  A    between atoms: C_6  and  O_22
    7  A    between atoms: C_6  and  C_46
    8  A    between atoms: C_8  and  O_22
    9  A    between atoms: C_8  and  O_54
   10  A    between atoms: C_10  and  C_48
   11  A    between atoms: C_14  and  C_20
   12  A    between atoms: C_19  and  C_37
   13  A    between atoms: C_21  and  C_46
   14  A    between atoms: C_26  and  N_45
   15  A    between atoms: C_29  and  O_38
   16  A    between atoms: C_29  and  N_53
   17  A    between atoms: C_33  and  C_49
   18  A    between atoms: C_33  and  C_52
   19  A    between atoms: C_51  and  O_54
                            x       y       z     vdW  Elec       q    Type
                         _______ _______ _______ _____ _____    ______ ____

>  <TORSDO>
F 19

$$$$
=
 OpenBabel10262420313D

 55 59  0  0  1  0  0  0  0  0999 V2000
  185.5190  174.8510  136.1100 C   0  0  0  0  0  2  0  0  0  0  0  0
  188.6040  172.6540  135.4540 C   0  0  0  0  0  2  0  0  0  0  0  0
  187.9360  175.0400  136.8390 C   0  0  1  0  0  3  0  0  0  0  0  0
  189.2640  174.6980  136.5200 O   0  0  0  0  0  0  0  0  0  0  0  0
  186.5200  177.1840  136.5780 C   0  0  2  0  0  3  0  0  0  0  0  0
  185.3450  176.2180  136.7860 C   0  0  1  0  0  3  0  0  0  0  0  0
  186.6400  177.5450  135.2350 O   0  0  0  0  0  1  0  0  0  0  0  0
  187.1290  173.0360  135.5540 C   0  0  0  0  0  2  0  0  0  0  0  0
  189.3590  173.2990  136.6130 C   0  0  0  0  0  2  0  0  0  0  0  0
  187.8380  176.5620  137.0550 C   0  0  1  0  0  3  0  0  0  0  0  0
  186.9710  174.5440  135.7430 C   0  0  1  0  0  3  0  0  0  0  0  0
  183.8040  177.4180  135.4360 O   0  0  0  0  0  0  0  0  0  0  0  0
  184.0020  176.8470  136.5420 C   0  0  0  0  0  0  0  0  0  0  0  0
  182.6590  176.0670  139.7100 O   0  0  0  0  0  0  0  0  0  0  0  0
  182.9200  176.7340  137.4840 N   0  0  0  0  0  0  0  0  0  0  0  0
  183.1270  176.9120  138.8990 C   0  0  0  0  0  0  0  0  0  0  0  0
  180.4980  177.1200  137.6470 C   0  0  0  0  0  3  0  0  0  0  0  0
  179.2520  176.6370  137.6530 C   0  0  0  0  0  3  0  0  0  0  0  0
  181.3850  174.8370  137.0590 C   0  0  0  0  0  2  0  0  0  0  0  0
  179.9570  174.4810  136.7450 C   0  0  0  0  0  3  0  0  0  0  0  0
  178.9620  175.3150  137.0630 C   0  0  0  0  0  3  0  0  0  0  0  0
  181.6040  176.3540  136.9660 C   0  0  2  0  0  3  0  0  0  0  0  0
  183.8040  178.1210  139.4130 C   0  0  0  0  0  0  0  0  0  0  0  0
  184.3850  178.8850  138.5950 O   0  0  0  0  0  0  0  0  0  0  0  0
  186.6140  178.5700  140.7920 Cl  0  0  0  0  0  0  0  0  0  0  0  0
  182.6160  178.5370  141.5540 C   0  0  0  0  0  3  0  0  0  0  0  0
  182.5930  178.7900  142.9250 C   0  0  0  0  0  3  0  0  0  0  0  0
  185.0410  178.6110  141.5720 C   0  0  0  0  0  0  0  0  0  0  0  0
  185.0100  178.8710  142.9440 C   0  0  0  0  0  3  0  0  0  0  0  0
  183.7910  178.9420  143.6320 C   0  0  0  0  0  0  0  0  0  0  0  0
  183.8310  178.4380  140.8600 C   0  0  0  0  0  0  0  0  0  0  0  0
  183.7600  179.2530  145.0960 C   0  0  1  0  0  3  0  0  0  0  0  0
  184.5150  178.2520  145.8500 C   0  0  0  0  0  2  0  0  0  0  0  0
  185.1180  179.5630  145.5780 N   0  0  0  0  0  2  0  0  0  0  0  0
  188.0430  176.8630  138.4280 O   0  0  0  0  0  0  0  0  0  0  0  0
  189.2680  177.3330  138.8980 C   0  0  0  0  0  0  0  0  0  0  0  0
  189.5190  178.5660  138.8440 O   0  0  0  0  0  0  0  0  0  0  0  0
  190.2150  176.4400  139.4070 O   0  0  0  0  0  0  0  0  0  0  0  0
  191.2730  176.8570  140.2570 C   0  0  1  0  0  3  0  0  0  0  0  0
  193.6640  177.1670  140.1150 O   0  0  0  0  0  1  0  0  0  0  0  0
  192.4650  177.3010  139.4020 C   0  0  1  0  0  3  0  0  0  0  0  0
  192.5300  176.5180  138.1020 C   0  0  0  0  0  2  0  0  0  0  0  0
  193.8190  176.5870  137.5720 O   0  0  0  0  0  1  0  0  0  0  0  0
  190.7650  177.9650  141.1740 C   0  0  0  0  0  2  0  0  0  0  0  0
  191.6240  176.2470  142.7430 C   0  0  0  0  0  1  0  0  0  0  0  0
  190.9130  177.5870  142.6420 C   0  0  2  0  0  3  0  0  0  0  0  0
  189.5370  177.5140  143.3100 C   0  0  1  0  0  3  0  0  0  0  0  0
  188.8350  176.3760  142.8870 O   0  0  0  0  0  1  0  0  0  0  0  0
  190.1440  178.7680  145.1130 O   0  0  0  0  0  1  0  0  0  0  0  0
  189.6490  177.5530  144.7750 N   0  0  0  0  0  0  0  0  0  0  0  0
  188.3320  177.4370  145.3910 C   0  0  0  0  0  2  0  0  0  0  0  0
  188.4640  176.9390  146.6870 O   0  0  0  0  0  0  0  0  0  0  0  0
  187.4740  177.6000  147.4160 C   0  0  0  0  0  2  0  0  0  0  0  0
  189.2120  178.1100  148.6710 C   0  0  0  0  0  1  0  0  0  0  0  0
  188.0450  178.6490  148.1340 O   0  0  0  0  0  0  0  0  0  0  0  0
  1  6  1  0  0  0  0
  2  8  1  0  0  0  0
  2  9  1  0  0  0  0
  3  4  1  6  0  0  0
  3 10  1  0  0  0  0
  4  9  1  0  0  0  0
  5  7  1  6  0  0  0
  5  6  1  0  0  0  0
  5 10  1  0  0  0  0
  6 13  1  6  0  0  0
 10 35  1  1  0  0  0
 11  8  1  1  0  0  0
 11  1  1  0  0  0  0
 11  3  1  0  0  0  0
 12 13  2  0  0  0  0
 13 15  1  0  0  0  0
 15 16  1  0  0  0  0
 16 23  1  0  0  0  0
 16 14  2  0  0  0  0
 17 18  2  0  0  0  0
 20 19  1  0  0  0  0
 20 21  2  0  0  0  0
 21 18  1  0  0  0  0
 22 19  1  0  0  0  0
 22 15  1  1  0  0  0
 22 17  1  0  0  0  0
 23 31  1  0  0  0  0
 24 23  2  0  0  0  0
 25 28  1  0  0  0  0
 26 27  1  0  0  0  0
 27 30  2  0  0  0  0
 28 29  2  0  0  0  0
 29 30  1  0  0  0  0
 31 26  2  0  0  0  0
 31 28  1  0  0  0  0
 32 30  1  6  0  0  0
 32 34  1  0  0  0  0
 32 33  1  0  0  0  0
 34 33  1  0  0  0  0
 35 36  1  0  0  0  0
 36 38  1  0  0  0  0
 37 36  2  0  0  0  0
 38 39  1  0  0  0  0
 39 44  1  6  0  0  0
 41 40  1  1  0  0  0
 41 39  1  0  0  0  0
 42 41  1  0  0  0  0
 43 42  1  0  0  0  0
 44 46  1  0  0  0  0
 46 45  1  6  0  0  0
 46 47  1  0  0  0  0
 47 48  1  1  0  0  0
 47 50  1  0  0  0  0
 50 49  1  0  0  0  0
 50 51  1  0  0  0  0
 51 52  1  0  0  0  0
 52 53  1  0  0  0  0
 53 55  1  0  0  0  0
 55 54  1  0  0  0  0
M  END
>  <MODEL>
4

>  <REMARK>
 VINA RESULT:      -6.2      1.528      2.013
  Name = 
  19 active torsions:
  status: ('A' for Active; 'I' for Inactive)
    1  A    between atoms: C_1  and  C_21
    2  A    between atoms: C_1  and  N_53
    3  A    between atoms: C_3  and  O_25
    4  A    between atoms: C_3  and  O_38
    5  A    between atoms: C_6  and  C_14
    6  A    between atoms: C_6  and  O_22
    7  A    between atoms: C_6  and  C_46
    8  A    between atoms: C_8  and  O_22
    9  A    between atoms: C_8  and  O_54
   10  A    between atoms: C_10  and  C_48
   11  A    between atoms: C_14  and  C_20
   12  A    between atoms: C_19  and  C_37
   13  A    between atoms: C_21  and  C_46
   14  A    between atoms: C_26  and  N_45
   15  A    between atoms: C_29  and  O_38
   16  A    between atoms: C_29  and  N_53
   17  A    between atoms: C_33  and  C_49
   18  A    between atoms: C_33  and  C_52
   19  A    between atoms: C_51  and  O_54
                            x       y       z     vdW  Elec       q    Type
                         _______ _______ _______ _____ _____    ______ ____

>  <TORSDO>
F 19

$$$$
=
 OpenBabel10262420313D

 55 59  0  0  1  0  0  0  0  0999 V2000
  189.6640  176.6370  139.4440 C   0  0  0  0  0  2  0  0  0  0  0  0
  189.1920  177.7830  143.0820 C   0  0  0  0  0  2  0  0  0  0  0  0
  187.7850  177.8630  140.6170 C   0  0  1  0  0  3  0  0  0  0  0  0
  187.4590  178.7000  141.7020 O   0  0  0  0  0  0  0  0  0  0  0  0
  188.1740  178.2580  138.0950 C   0  0  2  0  0  3  0  0  0  0  0  0
  188.8490  176.8800  138.1670 C   0  0  1  0  0  3  0  0  0  0  0  0
  189.1260  179.2770  138.0240 O   0  0  0  0  0  1  0  0  0  0  0  0
  189.7630  176.9970  141.9050 C   0  0  0  0  0  2  0  0  0  0  0  0
  187.6890  177.9600  142.8740 C   0  0  0  0  0  2  0  0  0  0  0  0
  187.2690  178.4950  139.3100 C   0  0  1  0  0  3  0  0  0  0  0  0
  189.3040  177.5980  140.5780 C   0  0  1  0  0  3  0  0  0  0  0  0
  190.1180  177.4180  136.2340 O   0  0  0  0  0  0  0  0  0  0  0  0
  189.5730  176.5020  136.9060 C   0  0  0  0  0  0  0  0  0  0  0  0
  188.8460  173.0540  137.0940 O   0  0  0  0  0  0  0  0  0  0  0  0
  189.7410  175.1320  136.4990 N   0  0  0  0  0  0  0  0  0  0  0  0
  188.6560  174.1850  136.5660 C   0  0  0  0  0  0  0  0  0  0  0  0
  191.0150  173.5500  135.1160 C   0  0  0  0  0  3  0  0  0  0  0  0
  192.0710  172.7450  134.9620 C   0  0  0  0  0  3  0  0  0  0  0  0
  191.9620  174.3810  137.2970 C   0  0  0  0  0  2  0  0  0  0  0  0
  193.2460  173.7260  136.8660 C   0  0  0  0  0  3  0  0  0  0  0  0
  193.2780  172.9300  135.7930 C   0  0  0  0  0  3  0  0  0  0  0  0
  191.0780  174.7040  136.0840 C   0  0  2  0  0  3  0  0  0  0  0  0
  187.3520  174.4910  135.9420 C   0  0  0  0  0  0  0  0  0  0  0  0
  187.2270  175.5650  135.2930 O   0  0  0  0  0  0  0  0  0  0  0  0
  184.7890  175.5520  137.4610 Cl  0  0  0  0  0  0  0  0  0  0  0  0
  186.2740  172.2920  135.5280 C   0  0  0  0  0  3  0  0  0  0  0  0
  185.2250  171.3830  135.6730 C   0  0  0  0  0  3  0  0  0  0  0  0
  185.0210  173.9480  136.7830 C   0  0  0  0  0  0  0  0  0  0  0  0
  183.9730  173.0350  136.9170 C   0  0  0  0  0  3  0  0  0  0  0  0
  184.0750  171.7440  136.3830 C   0  0  0  0  0  0  0  0  0  0  0  0
  186.1930  173.5780  136.0810 C   0  0  0  0  0  0  0  0  0  0  0  0
  182.9370  170.7790  136.5000 C   0  0  1  0  0  3  0  0  0  0  0  0
  181.7050  171.4790  136.8640 C   0  0  0  0  0  2  0  0  0  0  0  0
  181.9210  171.0650  135.4710 N   0  0  0  0  0  2  0  0  0  0  0  0
  185.9600  178.0190  139.0350 O   0  0  0  0  0  0  0  0  0  0  0  0
  184.8470  178.8530  139.1200 C   0  0  0  0  0  0  0  0  0  0  0  0
  184.7790  179.7000  140.0490 O   0  0  0  0  0  0  0  0  0  0  0  0
  183.8100  178.7380  138.1910 O   0  0  0  0  0  0  0  0  0  0  0  0
  182.4490  178.6280  138.5800 C   0  0  1  0  0  3  0  0  0  0  0  0
  181.2640  179.8630  136.8750 O   0  0  0  0  0  1  0  0  0  0  0  0
  181.5660  178.5720  137.3280 C   0  0  1  0  0  3  0  0  0  0  0  0
  182.2280  177.7640  136.2250 C   0  0  0  0  0  2  0  0  0  0  0  0
  181.4460  177.8090  135.0710 O   0  0  0  0  0  1  0  0  0  0  0  0
  182.2840  177.4000  139.4680 C   0  0  0  0  0  2  0  0  0  0  0  0
  180.0160  176.9650  140.3700 C   0  0  0  0  0  1  0  0  0  0  0  0
  181.3360  177.6720  140.6280 C   0  0  2  0  0  3  0  0  0  0  0  0
  181.1140  179.1790  140.7860 C   0  0  1  0  0  3  0  0  0  0  0  0
  179.7880  179.5230  140.4860 O   0  0  0  0  0  1  0  0  0  0  0  0
  180.3970  179.5090  142.9240 O   0  0  0  0  0  1  0  0  0  0  0  0
  181.4890  179.6390  142.1310 N   0  0  0  0  0  0  0  0  0  0  0  0
  182.5320  178.7870  142.6900 C   0  0  0  0  0  2  0  0  0  0  0  0
  182.8340  179.2060  143.9860 O   0  0  0  0  0  0  0  0  0  0  0  0
  184.2070  179.4540  143.9600 C   0  0  0  0  0  2  0  0  0  0  0  0
  185.0230  178.8140  145.9050 C   0  0  0  0  0  1  0  0  0  0  0  0
  184.8820  178.4030  144.5810 O   0  0  0  0  0  0  0  0  0  0  0  0
  3  4  1  1  0  0  0
  4  9  1  0  0  0  0
  5  7  1  1  0  0  0
  5  6  1  0  0  0  0
  5 10  1  0  0  0  0
  6 13  1  6  0  0  0
  6  1  1  0  0  0  0
  8  2  1  0  0  0  0
  9  2  1  0  0  0  0
 10 35  1  6  0  0  0
 10  3  1  0  0  0  0
 11  1  1  6  0  0  0
 11  3  1  0  0  0  0
 11  8  1  0  0  0  0
 12 13  2  0  0  0  0
 15 16  1  0  0  0  0
 15 13  1  0  0  0  0
 16 14  2  0  0  0  0
 17 22  1  0  0  0  0
 18 17  2  0  0  0  0
 18 21  1  0  0  0  0
 20 19  1  0  0  0  0
 21 20  2  0  0  0  0
 22 15  1  1  0  0  0
 22 19  1  0  0  0  0
 23 31  1  0  0  0  0
 23 16  1  0  0  0  0
 24 23  2  0  0  0  0
 26 27  2  0  0  0  0
 26 31  1  0  0  0  0
 27 30  1  0  0  0  0
 28 29  1  0  0  0  0
 28 25  1  0  0  0  0
 30 29  2  0  0  0  0
 31 28  2  0  0  0  0
 32 30  1  6  0  0  0
 32 33  1  0  0  0  0
 34 32  1  0  0  0  0
 34 33  1  0  0  0  0
 35 36  1  0  0  0  0
 36 37  2  0  0  0  0
 38 39  1  0  0  0  0
 38 36  1  0  0  0  0
 39 44  1  6  0  0  0
 41 40  1  6  0  0  0
 41 39  1  0  0  0  0
 42 41  1  0  0  0  0
 43 42  1  0  0  0  0
 44 46  1  0  0  0  0
 46 45  1  6  0  0  0
 46 47  1  0  0  0  0
 47 48  1  1  0  0  0
 47 50  1  0  0  0  0
 50 51  1  0  0  0  0
 50 49  1  0  0  0  0
 51 52  1  0  0  0  0
 53 52  1  0  0  0  0
 53 55  1  0  0  0  0
 55 54  1  0  0  0  0
M  END
>  <MODEL>
5

>  <REMARK>
 VINA RESULT:      -6.1      3.055      8.903
  Name = 
  19 active torsions:
  status: ('A' for Active; 'I' for Inactive)
    1  A    between atoms: C_1  and  C_21
    2  A    between atoms: C_1  and  N_53
    3  A    between atoms: C_3  and  O_25
    4  A    between atoms: C_3  and  O_38
    5  A    between atoms: C_6  and  C_14
    6  A    between atoms: C_6  and  O_22
    7  A    between atoms: C_6  and  C_46
    8  A    between atoms: C_8  and  O_22
    9  A    between atoms: C_8  and  O_54
   10  A    between atoms: C_10  and  C_48
   11  A    between atoms: C_14  and  C_20
   12  A    between atoms: C_19  and  C_37
   13  A    between atoms: C_21  and  C_46
   14  A    between atoms: C_26  and  N_45
   15  A    between atoms: C_29  and  O_38
   16  A    between atoms: C_29  and  N_53
   17  A    between atoms: C_33  and  C_49
   18  A    between atoms: C_33  and  C_52
   19  A    between atoms: C_51  and  O_54
                            x       y       z     vdW  Elec       q    Type
                         _______ _______ _______ _____ _____    ______ ____

>  <TORSDO>
F 19

$$$$
=
 OpenBabel10262420313D

 55 59  0  0  1  0  0  0  0  0999 V2000
  185.1740  177.6940  137.7490 C   0  0  0  0  0  2  0  0  0  0  0  0
  188.7310  178.4800  136.5230 C   0  0  0  0  0  2  0  0  0  0  0  0
  187.3440  178.1390  138.9760 C   0  0  1  0  0  3  0  0  0  0  0  0
  188.6000  178.7700  138.8990 O   0  0  0  0  0  0  0  0  0  0  0  0
  185.1020  178.7280  140.1130 C   0  0  2  0  0  3  0  0  0  0  0  0
  184.5400  177.6760  139.1460 C   0  0  1  0  0  3  0  0  0  0  0  0
  184.7960  180.0190  139.6800 O   0  0  0  0  0  1  0  0  0  0  0  0
  187.2880  177.9860  136.4670 C   0  0  0  0  0  2  0  0  0  0  0  0
  189.3230  178.1210  137.8840 C   0  0  0  0  0  2  0  0  0  0  0  0
  186.6220  178.5900  140.2600 C   0  0  1  0  0  3  0  0  0  0  0  0
  186.5150  178.4280  137.7080 C   0  0  1  0  0  3  0  0  0  0  0  0
  182.4200  177.8870  140.1940 O   0  0  0  0  0  0  0  0  0  0  0  0
  183.0390  177.6200  139.1290 C   0  0  0  0  0  0  0  0  0  0  0  0
  182.7560  176.5970  135.7640 O   0  0  0  0  0  0  0  0  0  0  0  0
  182.2950  177.3680  137.9230 N   0  0  0  0  0  0  0  0  0  0  0  0
  182.6850  176.3350  136.9960 C   0  0  0  0  0  0  0  0  0  0  0  0
  181.5830  179.6960  137.5840 C   0  0  0  0  0  3  0  0  0  0  0  0
  180.6790  180.6620  137.7670 C   0  0  0  0  0  3  0  0  0  0  0  0
  180.0050  178.0190  138.6070 C   0  0  0  0  0  2  0  0  0  0  0  0
  178.9470  179.0760  138.4430 C   0  0  0  0  0  3  0  0  0  0  0  0
  179.2780  180.3210  138.0870 C   0  0  0  0  0  3  0  0  0  0  0  0
  181.1640  178.2480  137.6250 C   0  0  2  0  0  3  0  0  0  0  0  0
  182.9120  174.9520  137.4640 C   0  0  0  0  0  0  0  0  0  0  0  0
  182.2540  174.5300  138.4530 O   0  0  0  0  0  0  0  0  0  0  0  0
  182.0850  171.9570  136.8730 Cl  0  0  0  0  0  0  0  0  0  0  0  0
  185.1620  174.5920  136.4750 C   0  0  0  0  0  3  0  0  0  0  0  0
  186.1440  173.7860  135.9010 C   0  0  0  0  0  3  0  0  0  0  0  0
  183.6430  172.7020  136.5490 C   0  0  0  0  0  0  0  0  0  0  0  0
  184.6290  171.9030  135.9670 C   0  0  0  0  0  3  0  0  0  0  0  0
  185.8900  172.4320  135.6590 C   0  0  0  0  0  0  0  0  0  0  0  0
  183.9060  174.0670  136.8120 C   0  0  0  0  0  0  0  0  0  0  0  0
  186.9340  171.5810  135.0050 C   0  0  1  0  0  3  0  0  0  0  0  0
  188.2560  172.1910  135.1450 C   0  0  0  0  0  2  0  0  0  0  0  0
  187.8780  171.0710  136.0160 N   0  0  0  0  0  2  0  0  0  0  0  0
  186.9240  177.6910  141.3170 O   0  0  0  0  0  0  0  0  0  0  0  0
  187.8910  177.9900  142.2750 C   0  0  0  0  0  0  0  0  0  0  0  0
  188.8780  178.7020  141.9550 O   0  0  0  0  0  0  0  0  0  0  0  0
  187.7710  177.4880  143.5740 O   0  0  0  0  0  0  0  0  0  0  0  0
  187.4530  178.3170  144.6820 C   0  0  1  0  0  3  0  0  0  0  0  0
  186.3590  177.8400  146.7820 O   0  0  0  0  0  1  0  0  0  0  0  0
  186.2130  177.7600  145.3920 C   0  0  1  0  0  3  0  0  0  0  0  0
  184.9540  178.4860  144.9470 C   0  0  0  0  0  2  0  0  0  0  0  0
  184.6250  178.1070  143.6460 O   0  0  0  0  0  1  0  0  0  0  0  0
  188.6650  178.4020  145.6030 C   0  0  0  0  0  2  0  0  0  0  0  0
  189.5330  176.4780  146.9040 C   0  0  0  0  0  1  0  0  0  0  0  0
  189.5090  177.1370  145.5340 C   0  0  2  0  0  3  0  0  0  0  0  0
  190.9310  177.4730  145.0780 C   0  0  1  0  0  3  0  0  0  0  0  0
  191.8410  177.3380  146.1380 O   0  0  0  0  0  1  0  0  0  0  0  0
  190.2480  175.9470  143.5310 O   0  0  0  0  0  1  0  0  0  0  0  0
  191.3340  176.6540  143.9270 N   0  0  0  0  0  0  0  0  0  0  0  0
  191.7270  177.5040  142.8080 C   0  0  0  0  0  2  0  0  0  0  0  0
  192.1310  176.7080  141.7350 O   0  0  0  0  0  0  0  0  0  0  0  0
  191.9200  177.5080  140.6110 C   0  0  0  0  0  2  0  0  0  0  0  0
  192.6530  176.6270  138.7290 C   0  0  0  0  0  1  0  0  0  0  0  0
  193.0410  177.4520  139.7830 O   0  0  0  0  0  0  0  0  0  0  0  0
  1  6  1  0  0  0  0
  2  9  1  0  0  0  0
  3  4  1  6  0  0  0
  3 10  1  0  0  0  0
  5  7  1  6  0  0  0
  5 10  1  0  0  0  0
  6 13  1  6  0  0  0
  6  5  1  0  0  0  0
  8  2  1  0  0  0  0
  9  4  1  0  0  0  0
 10 35  1  1  0  0  0
 11  8  1  6  0  0  0
 11  1  1  0  0  0  0
 11  3  1  0  0  0  0
 13 12  2  0  0  0  0
 14 16  2  0  0  0  0
 15 13  1  0  0  0  0
 16 23  1  0  0  0  0
 16 15  1  0  0  0  0
 17 22  1  0  0  0  0
 17 18  2  0  0  0  0
 18 21  1  0  0  0  0
 20 19  1  0  0  0  0
 21 20  2  0  0  0  0
 22 15  1  1  0  0  0
 22 19  1  0  0  0  0
 23 24  2  0  0  0  0
 26 31  1  0  0  0  0
 27 26  2  0  0  0  0
 28 31  2  0  0  0  0
 28 25  1  0  0  0  0
 29 28  1  0  0  0  0
 30 27  1  0  0  0  0
 30 29  2  0  0  0  0
 31 23  1  0  0  0  0
 32 33  1  0  0  0  0
 32 30  1  1  0  0  0
 32 34  1  0  0  0  0
 33 34  1  0  0  0  0
 35 36  1  0  0  0  0
 36 38  1  0  0  0  0
 37 36  2  0  0  0  0
 38 39  1  0  0  0  0
 39 41  1  0  0  0  0
 39 44  1  1  0  0  0
 41 40  1  1  0  0  0
 42 41  1  0  0  0  0
 43 42  1  0  0  0  0
 46 44  1  0  0  0  0
 46 45  1  1  0  0  0
 47 46  1  0  0  0  0
 47 48  1  1  0  0  0
 49 50  1  0  0  0  0
 50 47  1  0  0  0  0
 51 50  1  0  0  0  0
 52 51  1  0  0  0  0
 53 52  1  0  0  0  0
 54 55  1  0  0  0  0
 55 53  1  0  0  0  0
M  END
>  <MODEL>
6

>  <REMARK>
 VINA RESULT:      -5.9      2.498      6.488
  Name = 
  19 active torsions:
  status: ('A' for Active; 'I' for Inactive)
    1  A    between atoms: C_1  and  C_21
    2  A    between atoms: C_1  and  N_53
    3  A    between atoms: C_3  and  O_25
    4  A    between atoms: C_3  and  O_38
    5  A    between atoms: C_6  and  C_14
    6  A    between atoms: C_6  and  O_22
    7  A    between atoms: C_6  and  C_46
    8  A    between atoms: C_8  and  O_22
    9  A    between atoms: C_8  and  O_54
   10  A    between atoms: C_10  and  C_48
   11  A    between atoms: C_14  and  C_20
   12  A    between atoms: C_19  and  C_37
   13  A    between atoms: C_21  and  C_46
   14  A    between atoms: C_26  and  N_45
   15  A    between atoms: C_29  and  O_38
   16  A    between atoms: C_29  and  N_53
   17  A    between atoms: C_33  and  C_49
   18  A    between atoms: C_33  and  C_52
   19  A    between atoms: C_51  and  O_54
                            x       y       z     vdW  Elec       q    Type
                         _______ _______ _______ _____ _____    ______ ____

>  <TORSDO>
F 19

$$$$
=
 OpenBabel10262420313D

 55 59  0  0  1  0  0  0  0  0999 V2000
  189.4390  176.7180  139.8040 C   0  0  0  0  0  2  0  0  0  0  0  0
  188.5960  177.5870  143.4520 C   0  0  0  0  0  2  0  0  0  0  0  0
  187.4520  177.8700  140.8690 C   0  0  1  0  0  3  0  0  0  0  0  0
  187.0170  178.6240  141.9750 O   0  0  0  0  0  0  0  0  0  0  0  0
  188.1000  178.4530  138.4390 C   0  0  2  0  0  3  0  0  0  0  0  0
  188.7610  177.0670  138.4730 C   0  0  1  0  0  3  0  0  0  0  0  0
  189.0560  179.4650  138.5440 O   0  0  0  0  0  1  0  0  0  0  0  0
  189.2840  176.8880  142.2820 C   0  0  0  0  0  2  0  0  0  0  0  0
  187.1230  177.7940  143.1040 C   0  0  0  0  0  2  0  0  0  0  0  0
  187.0750  178.6050  139.5680 C   0  0  1  0  0  3  0  0  0  0  0  0
  188.9660  177.5930  140.9650 C   0  0  1  0  0  3  0  0  0  0  0  0
  190.1290  177.7530  136.6580 O   0  0  0  0  0  0  0  0  0  0  0  0
  189.6110  176.7800  137.2670 C   0  0  0  0  0  0  0  0  0  0  0  0
  189.1610  173.2810  137.3360 O   0  0  0  0  0  0  0  0  0  0  0  0
  189.9240  175.4370  136.8520 N   0  0  0  0  0  0  0  0  0  0  0  0
  188.9190  174.4040  136.8140 C   0  0  0  0  0  0  0  0  0  0  0  0
  192.2700  175.9940  137.3280 C   0  0  0  0  0  3  0  0  0  0  0  0
  193.5180  176.1920  136.8940 C   0  0  0  0  0  3  0  0  0  0  0  0
  191.5860  175.2280  135.0280 C   0  0  0  0  0  2  0  0  0  0  0  0
  193.0600  175.1410  134.7360 C   0  0  0  0  0  3  0  0  0  0  0  0
  193.9550  175.6310  135.6000 C   0  0  0  0  0  3  0  0  0  0  0  0
  191.3200  175.1300  136.5370 C   0  0  2  0  0  3  0  0  0  0  0  0
  187.6480  174.6180  136.0930 C   0  0  0  0  0  0  0  0  0  0  0  0
  187.5880  175.5320  135.2270 O   0  0  0  0  0  0  0  0  0  0  0  0
  187.3400  171.8410  134.6100 Cl  0  0  0  0  0  0  0  0  0  0  0  0
  185.5050  174.2800  137.3030 C   0  0  0  0  0  3  0  0  0  0  0  0
  184.3380  173.5660  137.5720 C   0  0  0  0  0  3  0  0  0  0  0  0
  186.2010  172.5660  135.7330 C   0  0  0  0  0  0  0  0  0  0  0  0
  185.0330  171.8530  136.0130 C   0  0  0  0  0  3  0  0  0  0  0  0
  184.0860  172.3570  136.9160 C   0  0  0  0  0  0  0  0  0  0  0  0
  186.4470  173.7990  136.3810 C   0  0  0  0  0  0  0  0  0  0  0  0
  182.8510  171.5750  137.2390 C   0  0  1  0  0  3  0  0  0  0  0  0
  181.6550  172.3880  137.0190 C   0  0  0  0  0  2  0  0  0  0  0  0
  182.0420  171.3800  136.0230 N   0  0  0  0  0  2  0  0  0  0  0  0
  185.8000  178.1640  139.1240 O   0  0  0  0  0  0  0  0  0  0  0  0
  184.6280  178.8090  139.5150 C   0  0  0  0  0  0  0  0  0  0  0  0
  184.5080  180.0460  139.3150 O   0  0  0  0  0  0  0  0  0  0  0  0
  183.6040  178.0890  140.1360 O   0  0  0  0  0  0  0  0  0  0  0  0
  182.2940  178.0100  139.5940 C   0  0  1  0  0  3  0  0  0  0  0  0
  180.8820  179.9700  139.5830 O   0  0  0  0  0  1  0  0  0  0  0  0
  181.3600  178.9290  140.3900 C   0  0  1  0  0  3  0  0  0  0  0  0
  180.2030  178.1490  140.9920 C   0  0  0  0  0  2  0  0  0  0  0  0
  180.2130  176.8410  140.5090 O   0  0  0  0  0  1  0  0  0  0  0  0
  182.3470  178.3690  138.1130 C   0  0  0  0  0  2  0  0  0  0  0  0
  182.3030  176.5200  136.4610 C   0  0  0  0  0  1  0  0  0  0  0  0
  181.4440  177.4630  137.2870 C   0  0  2  0  0  3  0  0  0  0  0  0
  180.5450  178.3040  136.3760 C   0  0  1  0  0  3  0  0  0  0  0  0
  179.3310  178.6050  137.0110 O   0  0  0  0  0  1  0  0  0  0  0  0
  181.4290  179.4140  134.5940 O   0  0  0  0  0  1  0  0  0  0  0  0
  181.2260  179.5270  135.9290 N   0  0  0  0  0  0  0  0  0  0  0  0
  180.3740  180.6920  136.1390 C   0  0  0  0  0  2  0  0  0  0  0  0
  180.6570  181.6590  135.1740 O   0  0  0  0  0  0  0  0  0  0  0  0
  180.2500  182.8600  135.7560 C   0  0  0  0  0  2  0  0  0  0  0  0
  181.0360  184.7950  136.4580 C   0  0  0  0  0  1  0  0  0  0  0  0
  181.1540  183.8690  135.4240 O   0  0  0  0  0  0  0  0  0  0  0  0
  3 11  1  0  0  0  0
  3  4  1  1  0  0  0
  4  9  1  0  0  0  0
  5  6  1  0  0  0  0
  5  7  1  1  0  0  0
  5 10  1  0  0  0  0
  6 13  1  6  0  0  0
  6  1  1  0  0  0  0
  8  2  1  0  0  0  0
  9  2  1  0  0  0  0
 10 35  1  6  0  0  0
 10  3  1  0  0  0  0
 11  1  1  6  0  0  0
 11  8  1  0  0  0  0
 12 13  2  0  0  0  0
 15 13  1  0  0  0  0
 16 15  1  0  0  0  0
 16 14  2  0  0  0  0
 18 17  2  0  0  0  0
 19 22  1  0  0  0  0
 20 19  1  0  0  0  0
 20 21  2  0  0  0  0
 21 18  1  0  0  0  0
 22 15  1  6  0  0  0
 22 17  1  0  0  0  0
 23 31  1  0  0  0  0
 23 16  1  0  0  0  0
 24 23  2  0  0  0  0
 25 28  1  0  0  0  0
 26 27  1  0  0  0  0
 28 29  2  0  0  0  0
 28 31  1  0  0  0  0
 29 30  1  0  0  0  0
 30 27  2  0  0  0  0
 31 26  2  0  0  0  0
 32 30  1  6  0  0  0
 33 32  1  0  0  0  0
 34 33  1  0  0  0  0
 34 32  1  0  0  0  0
 35 36  1  0  0  0  0
 36 38  1  0  0  0  0
 37 36  2  0  0  0  0
 39 44  1  6  0  0  0
 39 38  1  0  0  0  0
 39 41  1  0  0  0  0
 41 40  1  6  0  0  0
 41 42  1  0  0  0  0
 43 42  1  0  0  0  0
 46 45  1  6  0  0  0
 46 44  1  0  0  0  0
 47 48  1  1  0  0  0
 47 46  1  0  0  0  0
 49 50  1  0  0  0  0
 50 51  1  0  0  0  0
 50 47  1  0  0  0  0
 52 53  1  0  0  0  0
 52 51  1  0  0  0  0
 55 53  1  0  0  0  0
 55 54  1  0  0  0  0
M  END
>  <MODEL>
7

>  <REMARK>
 VINA RESULT:      -5.8      3.515     10.197
  Name = 
  19 active torsions:
  status: ('A' for Active; 'I' for Inactive)
    1  A    between atoms: C_1  and  C_21
    2  A    between atoms: C_1  and  N_53
    3  A    between atoms: C_3  and  O_25
    4  A    between atoms: C_3  and  O_38
    5  A    between atoms: C_6  and  C_14
    6  A    between atoms: C_6  and  O_22
    7  A    between atoms: C_6  and  C_46
    8  A    between atoms: C_8  and  O_22
    9  A    between atoms: C_8  and  O_54
   10  A    between atoms: C_10  and  C_48
   11  A    between atoms: C_14  and  C_20
   12  A    between atoms: C_19  and  C_37
   13  A    between atoms: C_21  and  C_46
   14  A    between atoms: C_26  and  N_45
   15  A    between atoms: C_29  and  O_38
   16  A    between atoms: C_29  and  N_53
   17  A    between atoms: C_33  and  C_49
   18  A    between atoms: C_33  and  C_52
   19  A    between atoms: C_51  and  O_54
                            x       y       z     vdW  Elec       q    Type
                         _______ _______ _______ _____ _____    ______ ____

>  <TORSDO>
F 19

$$$$
=
 OpenBabel10262420313D

 55 59  0  0  1  0  0  0  0  0999 V2000
  190.3740  176.7920  139.6240 C   0  0  0  0  0  2  0  0  0  0  0  0
  191.5870  177.8580  143.1120 C   0  0  0  0  0  2  0  0  0  0  0  0
  189.2030  177.9080  141.5710 C   0  0  1  0  0  3  0  0  0  0  0  0
  189.3820  178.7110  142.7140 O   0  0  0  0  0  0  0  0  0  0  0  0
  188.3750  178.3600  139.1680 C   0  0  2  0  0  3  0  0  0  0  0  0
  189.0550  177.0160  138.8720 C   0  0  1  0  0  3  0  0  0  0  0  0
  189.1490  179.4250  138.7040 O   0  0  0  0  0  1  0  0  0  0  0  0
  191.5810  177.1190  141.7760 C   0  0  0  0  0  2  0  0  0  0  0  0
  190.1520  177.9650  143.6220 C   0  0  0  0  0  2  0  0  0  0  0  0
  188.1220  178.5340  140.6700 C   0  0  1  0  0  3  0  0  0  0  0  0
  190.5410  177.7170  140.8300 C   0  0  1  0  0  3  0  0  0  0  0  0
  190.1520  177.0610  136.7680 O   0  0  0  0  0  0  0  0  0  0  0  0
  189.1310  176.6930  137.4070 C   0  0  0  0  0  0  0  0  0  0  0  0
  185.9720  175.1310  137.2190 O   0  0  0  0  0  0  0  0  0  0  0  0
  188.1290  175.9010  136.7430 N   0  0  0  0  0  0  0  0  0  0  0  0
  186.7220  176.1160  136.9720 C   0  0  0  0  0  0  0  0  0  0  0  0
  187.4430  174.2050  135.1010 C   0  0  0  0  0  3  0  0  0  0  0  0
  187.5460  172.9650  134.6150 C   0  0  0  0  0  3  0  0  0  0  0  0
  189.3540  173.7500  136.6790 C   0  0  0  0  0  2  0  0  0  0  0  0
  189.6170  172.5300  135.8370 C   0  0  0  0  0  3  0  0  0  0  0  0
  188.7440  172.1490  134.9000 C   0  0  0  0  0  3  0  0  0  0  0  0
  188.5850  174.8110  135.8790 C   0  0  2  0  0  3  0  0  0  0  0  0
  186.1350  177.4640  136.8300 C   0  0  0  0  0  0  0  0  0  0  0  0
  186.8580  178.3970  136.3890 O   0  0  0  0  0  0  0  0  0  0  0  0
  183.8500  176.7600  134.7590 Cl  0  0  0  0  0  0  0  0  0  0  0  0
  184.4720  178.2940  138.4780 C   0  0  0  0  0  3  0  0  0  0  0  0
  183.1710  178.6140  138.8660 C   0  0  0  0  0  3  0  0  0  0  0  0
  183.6470  177.5030  136.3380 C   0  0  0  0  0  0  0  0  0  0  0  0
  182.3460  177.8200  136.7360 C   0  0  0  0  0  3  0  0  0  0  0  0
  182.1020  178.3950  137.9910 C   0  0  0  0  0  0  0  0  0  0  0  0
  184.7310  177.7430  137.2150 C   0  0  0  0  0  0  0  0  0  0  0  0
  180.7040  178.7030  138.4280 C   0  0  1  0  0  3  0  0  0  0  0  0
  179.8100  177.5880  138.1150 C   0  0  0  0  0  2  0  0  0  0  0  0
  180.2880  177.7710  139.4920 N   0  0  0  0  0  2  0  0  0  0  0  0
  186.8500  178.0000  141.0090 O   0  0  0  0  0  0  0  0  0  0  0  0
  186.0210  178.6230  141.9400 C   0  0  0  0  0  0  0  0  0  0  0  0
  185.8540  179.8700  141.8820 O   0  0  0  0  0  0  0  0  0  0  0  0
  185.3940  177.8710  142.9370 O   0  0  0  0  0  0  0  0  0  0  0  0
  184.8640  178.4620  144.1140 C   0  0  1  0  0  3  0  0  0  0  0  0
  183.1890  180.1950  143.9560 O   0  0  0  0  0  1  0  0  0  0  0  0
  183.3890  178.8110  143.8860 C   0  0  1  0  0  3  0  0  0  0  0  0
  182.8960  178.2690  142.5540 C   0  0  0  0  0  2  0  0  0  0  0  0
  182.2940  179.2920  141.8220 O   0  0  0  0  0  1  0  0  0  0  0  0
  185.0650  177.5050  145.2840 C   0  0  0  0  0  2  0  0  0  0  0  0
  185.6570  179.7060  146.2600 C   0  0  0  0  0  1  0  0  0  0  0  0
  185.7160  178.2020  146.4710 C   0  0  2  0  0  3  0  0  0  0  0  0
  187.1680  177.7400  146.6240 C   0  0  1  0  0  3  0  0  0  0  0  0
  187.9020  178.0040  145.4580 O   0  0  0  0  0  1  0  0  0  0  0  0
  187.5640  177.5390  148.8580 O   0  0  0  0  0  1  0  0  0  0  0  0
  187.8040  178.3500  147.7990 N   0  0  0  0  0  0  0  0  0  0  0  0
  189.2510  178.4130  147.6220 C   0  0  0  0  0  2  0  0  0  0  0  0
  189.8650  177.4860  148.4650 O   0  0  0  0  0  0  0  0  0  0  0  0
  191.0280  177.1170  147.7870 C   0  0  0  0  0  2  0  0  0  0  0  0
  191.9160  175.9890  146.1150 C   0  0  0  0  0  1  0  0  0  0  0  0
  190.7100  176.2070  146.7790 O   0  0  0  0  0  0  0  0  0  0  0  0
  2  9  1  0  0  0  0
  3  4  1  1  0  0  0
  4  9  1  0  0  0  0
  5  7  1  1  0  0  0
  5 10  1  0  0  0  0
  6 13  1  6  0  0  0
  6  5  1  0  0  0  0
  6  1  1  0  0  0  0
  8  2  1  0  0  0  0
 10 35  1  1  0  0  0
 10  3  1  0  0  0  0
 11  1  1  6  0  0  0
 11  3  1  0  0  0  0
 11  8  1  0  0  0  0
 12 13  2  0  0  0  0
 15 16  1  0  0  0  0
 15 13  1  0  0  0  0
 16 14  2  0  0  0  0
 17 22  1  0  0  0  0
 18 21  1  0  0  0  0
 18 17  2  0  0  0  0
 20 19  1  0  0  0  0
 21 20  2  0  0  0  0
 22 19  1  0  0  0  0
 22 15  1  1  0  0  0
 23 16  1  0  0  0  0
 23 31  1  0  0  0  0
 24 23  2  0  0  0  0
 25 28  1  0  0  0  0
 26 27  1  0  0  0  0
 28 29  2  0  0  0  0
 28 31  1  0  0  0  0
 29 30  1  0  0  0  0
 30 27  2  0  0  0  0
 31 26  2  0  0  0  0
 32 30  1  6  0  0  0
 32 34  1  0  0  0  0
 33 32  1  0  0  0  0
 33 34  1  0  0  0  0
 35 36  1  0  0  0  0
 36 38  1  0  0  0  0
 37 36  2  0  0  0  0
 38 39  1  0  0  0  0
 39 44  1  1  0  0  0
 41 40  1  6  0  0  0
 41 39  1  0  0  0  0
 42 41  1  0  0  0  0
 43 42  1  0  0  0  0
 44 46  1  0  0  0  0
 46 45  1  6  0  0  0
 46 47  1  0  0  0  0
 47 48  1  6  0  0  0
 47 50  1  0  0  0  0
 50 49  1  0  0  0  0
 51 50  1  0  0  0  0
 51 52  1  0  0  0  0
 53 52  1  0  0  0  0
 54 55  1  0  0  0  0
 55 53  1  0  0  0  0
M  END
>  <MODEL>
8

>  <REMARK>
 VINA RESULT:      -5.8      2.299      7.054
  Name = 
  19 active torsions:
  status: ('A' for Active; 'I' for Inactive)
    1  A    between atoms: C_1  and  C_21
    2  A    between atoms: C_1  and  N_53
    3  A    between atoms: C_3  and  O_25
    4  A    between atoms: C_3  and  O_38
    5  A    between atoms: C_6  and  C_14
    6  A    between atoms: C_6  and  O_22
    7  A    between atoms: C_6  and  C_46
    8  A    between atoms: C_8  and  O_22
    9  A    between atoms: C_8  and  O_54
   10  A    between atoms: C_10  and  C_48
   11  A    between atoms: C_14  and  C_20
   12  A    between atoms: C_19  and  C_37
   13  A    between atoms: C_21  and  C_46
   14  A    between atoms: C_26  and  N_45
   15  A    between atoms: C_29  and  O_38
   16  A    between atoms: C_29  and  N_53
   17  A    between atoms: C_33  and  C_49
   18  A    between atoms: C_33  and  C_52
   19  A    between atoms: C_51  and  O_54
                            x       y       z     vdW  Elec       q    Type
                         _______ _______ _______ _____ _____    ______ ____

>  <TORSDO>
F 19

$$$$
=
 OpenBabel10262420313D

 55 59  0  0  1  0  0  0  0  0999 V2000
  189.4760  176.7300  139.5580 C   0  0  0  0  0  2  0  0  0  0  0  0
  188.6100  177.7120  143.1720 C   0  0  0  0  0  2  0  0  0  0  0  0
  187.4640  177.8790  140.5790 C   0  0  1  0  0  3  0  0  0  0  0  0
  187.0120  178.6640  141.6570 O   0  0  0  0  0  0  0  0  0  0  0  0
  188.1050  178.3870  138.1300 C   0  0  2  0  0  3  0  0  0  0  0  0
  188.7930  177.0170  138.2140 C   0  0  1  0  0  3  0  0  0  0  0  0
  189.0400  179.4210  138.2000 O   0  0  0  0  0  1  0  0  0  0  0  0
  189.3140  176.9850  142.0280 C   0  0  0  0  0  2  0  0  0  0  0  0
  187.1340  177.8770  142.8150 C   0  0  0  0  0  2  0  0  0  0  0  0
  187.0750  178.5590  139.2530 C   0  0  1  0  0  3  0  0  0  0  0  0
  188.9840  177.6360  140.6870 C   0  0  1  0  0  3  0  0  0  0  0  0
  190.1400  177.6650  136.3690 O   0  0  0  0  0  0  0  0  0  0  0  0
  189.6500  176.7030  137.0200 C   0  0  0  0  0  0  0  0  0  0  0  0
  189.3040  173.1990  137.2400 O   0  0  0  0  0  0  0  0  0  0  0  0
  190.0030  175.3550  136.6620 N   0  0  0  0  0  0  0  0  0  0  0  0
  189.0300  174.2910  136.6710 C   0  0  0  0  0  0  0  0  0  0  0  0
  191.5530  174.2750  135.0900 C   0  0  0  0  0  3  0  0  0  0  0  0
  192.6580  173.5570  134.8720 C   0  0  0  0  0  3  0  0  0  0  0  0
  192.1090  174.3960  137.5440 C   0  0  0  0  0  2  0  0  0  0  0  0
  193.4760  173.9050  137.1480 C   0  0  0  0  0  3  0  0  0  0  0  0
  193.7120  173.4780  135.9040 C   0  0  0  0  0  3  0  0  0  0  0  0
  191.4080  175.0760  136.3590 C   0  0  2  0  0  3  0  0  0  0  0  0
  187.7520  174.4360  135.9440 C   0  0  0  0  0  0  0  0  0  0  0  0
  187.6130  175.4040  135.1480 O   0  0  0  0  0  0  0  0  0  0  0  0
  187.9970  171.5470  134.6800 Cl  0  0  0  0  0  0  0  0  0  0  0  0
  185.5210  173.8990  136.8950 C   0  0  0  0  0  3  0  0  0  0  0  0
  184.4260  173.0550  137.0740 C   0  0  0  0  0  3  0  0  0  0  0  0
  186.6330  172.1880  135.5820 C   0  0  0  0  0  0  0  0  0  0  0  0
  185.5350  171.3470  135.7720 C   0  0  0  0  0  3  0  0  0  0  0  0
  184.4180  171.7800  136.5000 C   0  0  0  0  0  0  0  0  0  0  0  0
  186.6330  173.4860  136.1460 C   0  0  0  0  0  0  0  0  0  0  0  0
  183.2570  170.8640  136.7290 C   0  0  1  0  0  3  0  0  0  0  0  0
  182.0630  171.6280  137.0930 C   0  0  0  0  0  2  0  0  0  0  0  0
  182.2070  171.1140  135.7250 N   0  0  0  0  0  2  0  0  0  0  0  0
  185.8100  178.0770  138.8230 O   0  0  0  0  0  0  0  0  0  0  0  0
  184.6870  178.9020  138.7910 C   0  0  0  0  0  0  0  0  0  0  0  0
  184.6240  179.8890  139.5700 O   0  0  0  0  0  0  0  0  0  0  0  0
  183.6370  178.6250  137.9130 O   0  0  0  0  0  0  0  0  0  0  0  0
  182.5040  177.8610  138.3000 C   0  0  1  0  0  3  0  0  0  0  0  0
  182.9990  175.5930  138.9670 O   0  0  0  0  0  1  0  0  0  0  0  0
  182.7030  176.4040  137.8650 C   0  0  1  0  0  3  0  0  0  0  0  0
  181.4810  175.8790  137.1310 C   0  0  0  0  0  2  0  0  0  0  0  0
  181.0600  176.8120  136.1840 O   0  0  0  0  0  1  0  0  0  0  0  0
  182.3020  178.0010  139.8040 C   0  0  0  0  0  2  0  0  0  0  0  0
  180.0350  177.2630  140.4870 C   0  0  0  0  0  1  0  0  0  0  0  0
  180.8920  178.4680  140.1370 C   0  0  2  0  0  3  0  0  0  0  0  0
  180.2910  179.2240  138.9480 C   0  0  1  0  0  3  0  0  0  0  0  0
  179.0130  178.7360  138.6400 O   0  0  0  0  0  1  0  0  0  0  0  0
  180.4730  180.8660  140.5180 O   0  0  0  0  0  1  0  0  0  0  0  0
  180.2590  180.6730  139.1930 N   0  0  0  0  0  0  0  0  0  0  0  0
  181.3460  181.3350  138.4800 C   0  0  0  0  0  2  0  0  0  0  0  0
  180.8760  182.5170  137.9060 O   0  0  0  0  0  0  0  0  0  0  0  0
  179.8360  182.1070  137.0700 C   0  0  0  0  0  2  0  0  0  0  0  0
  179.6200  181.0560  135.1450 C   0  0  0  0  0  1  0  0  0  0  0  0
  180.2640  182.1370  135.7440 O   0  0  0  0  0  0  0  0  0  0  0  0
  3 11  1  0  0  0  0
  3  4  1  1  0  0  0
  4  9  1  0  0  0  0
  5  7  1  1  0  0  0
  5  6  1  0  0  0  0
  5 10  1  0  0  0  0
  6 13  1  6  0  0  0
  6  1  1  0  0  0  0
  8  2  1  0  0  0  0
  9  2  1  0  0  0  0
 10 35  1  6  0  0  0
 10  3  1  0  0  0  0
 11  1  1  6  0  0  0
 11  8  1  0  0  0  0
 12 13  2  0  0  0  0
 15 16  1  0  0  0  0
 15 13  1  0  0  0  0
 16 14  2  0  0  0  0
 17 22  1  0  0  0  0
 18 17  2  0  0  0  0
 18 21  1  0  0  0  0
 20 19  1  0  0  0  0
 21 20  2  0  0  0  0
 22 15  1  1  0  0  0
 22 19  1  0  0  0  0
 23 31  1  0  0  0  0
 23 16  1  0  0  0  0
 24 23  2  0  0  0  0
 25 28  1  0  0  0  0
 26 27  1  0  0  0  0
 28 29  2  0  0  0  0
 28 31  1  0  0  0  0
 29 30  1  0  0  0  0
 30 27  2  0  0  0  0
 31 26  2  0  0  0  0
 32 30  1  6  0  0  0
 32 33  1  0  0  0  0
 34 32  1  0  0  0  0
 34 33  1  0  0  0  0
 36 35  1  0  0  0  0
 36 37  2  0  0  0  0
 38 39  1  0  0  0  0
 38 36  1  0  0  0  0
 39 44  1  1  0  0  0
 41 39  1  0  0  0  0
 41 40  1  1  0  0  0
 42 41  1  0  0  0  0
 43 42  1  0  0  0  0
 44 46  1  0  0  0  0
 46 45  1  6  0  0  0
 47 48  1  1  0  0  0
 47 50  1  0  0  0  0
 47 46  1  0  0  0  0
 50 49  1  0  0  0  0
 51 50  1  0  0  0  0
 52 51  1  0  0  0  0
 53 52  1  0  0  0  0
 54 55  1  0  0  0  0
 55 53  1  0  0  0  0
M  END
>  <MODEL>
9

>  <REMARK>
 VINA RESULT:      -5.7      3.572      9.942
  Name = 
  19 active torsions:
  status: ('A' for Active; 'I' for Inactive)
    1  A    between atoms: C_1  and  C_21
    2  A    between atoms: C_1  and  N_53
    3  A    between atoms: C_3  and  O_25
    4  A    between atoms: C_3  and  O_38
    5  A    between atoms: C_6  and  C_14
    6  A    between atoms: C_6  and  O_22
    7  A    between atoms: C_6  and  C_46
    8  A    between atoms: C_8  and  O_22
    9  A    between atoms: C_8  and  O_54
   10  A    between atoms: C_10  and  C_48
   11  A    between atoms: C_14  and  C_20
   12  A    between atoms: C_19  and  C_37
   13  A    between atoms: C_21  and  C_46
   14  A    between atoms: C_26  and  N_45
   15  A    between atoms: C_29  and  O_38
   16  A    between atoms: C_29  and  N_53
   17  A    between atoms: C_33  and  C_49
   18  A    between atoms: C_33  and  C_52
   19  A    between atoms: C_51  and  O_54
                            x       y       z     vdW  Elec       q    Type
                         _______ _______ _______ _____ _____    ______ ____

>  <TORSDO>
F 19

$$$$
