=
 OpenBabel10262421593D

 30 36  0  0  1  0  0  0  0  0999 V2000
  186.3450  178.5220  142.1560 C   0  0  0  0  0  0  0  0  0  0  0  0
  183.1360  178.7500  143.9700 C   0  0  0  0  0  3  0  0  0  0  0  0
  187.3520  177.4610  147.2480 C   0  0  0  0  0  2  0  0  0  0  0  0
  187.7530  178.4810  142.3360 N   0  0  0  0  0  0  0  0  0  0  0  0
  185.8970  178.4500  140.8140 C   0  0  0  0  0  0  0  0  0  0  0  0
  186.3400  178.3070  138.4480 N   0  0  0  0  0  0  0  0  0  0  0  0
  189.8310  178.4520  142.1490 C   0  0  1  0  0  3  0  0  0  0  0  0
  186.8240  178.3790  139.7170 C   0  0  0  0  0  0  0  0  0  0  0  0
  184.5160  178.4530  140.5440 C   0  0  0  0  0  0  0  0  0  0  0  0
  189.0310  177.0490  145.3650 C   0  0  1  0  0  3  0  0  0  0  0  0
  187.5970  176.8760  145.8650 C   0  0  0  0  0  2  0  0  0  0  0  0
  183.5970  178.5400  141.5980 C   0  0  0  0  0  3  0  0  0  0  0  0
  188.3090  178.3840  139.9350 C   0  0  0  0  0  3  0  0  0  0  0  0
  183.6000  178.8780  145.2810 C   0  0  0  0  0  3  0  0  0  0  0  0
  189.0290  177.0500  143.8360 C   0  0  1  0  0  3  0  0  0  0  0  0
  190.0020  175.1080  142.9850 C   0  0  0  0  0  1  0  0  0  0  0  0
  184.0720  178.3740  139.2240 C   0  0  0  0  0  3  0  0  0  0  0  0
  184.0480  178.6400  142.9200 C   0  0  0  0  0  0  0  0  0  0  0  0
  186.9530  178.9270  147.1360 C   0  0  0  0  0  2  0  0  0  0  0  0
  185.4460  179.0840  146.9450 C   0  0  0  0  0  2  0  0  0  0  0  0
  185.0050  178.3010  138.1850 C   0  0  0  0  0  3  0  0  0  0  0  0
  185.4310  178.6490  143.2080 C   0  0  0  0  0  0  0  0  0  0  0  0
  188.6650  178.4370  141.2060 C   0  0  0  0  0  0  0  0  0  0  0  0
  189.6430  178.2010  145.8740 O   0  0  0  0  0  1  0  0  0  0  0  0
  188.8860  178.4350  143.2360 C   0  0  2  0  0  3  0  0  0  0  0  0
  190.2680  176.4980  143.3190 N   0  0  0  0  0  0  0  0  0  0  0  0
  191.9500  177.4660  142.0840 C   0  0  0  0  0  1  0  0  0  0  0  0
  184.9760  178.9000  145.5320 C   0  0  0  0  0  0  0  0  0  0  0  0
  185.8530  178.7960  144.4930 N   0  0  0  0  0  0  0  0  0  0  0  0
  190.5280  177.1670  142.1080 N   0  0  0  0  0  0  0  0  0  0  0  0
  1  4  1  0  0  0  0
  1 22  1  0  0  0  0
  2 14  1  0  0  0  0
  5  1  2  0  0  0  0
  6  8  2  0  0  0  0
  7 23  1  6  0  0  0
  7 25  1  0  0  0  0
  8 13  1  0  0  0  0
  8  5  1  0  0  0  0
  9  5  1  0  0  0  0
  9 12  2  0  0  0  0
 10 11  1  0  0  0  0
 10 24  1  1  0  0  0
 11  3  1  0  0  0  0
 12 18  1  0  0  0  0
 13 23  2  0  0  0  0
 14 28  2  0  0  0  0
 15 26  1  6  0  0  0
 15 10  1  0  0  0  0
 16 26  1  0  0  0  0
 17  9  1  0  0  0  0
 18 22  1  0  0  0  0
 18  2  2  0  0  0  0
 19  3  1  0  0  0  0
 20 19  1  0  0  0  0
 21  6  1  0  0  0  0
 21 17  2  0  0  0  0
 22 29  2  0  0  0  0
 23  4  1  0  0  0  0
 25  4  1  6  0  0  0
 25 15  1  0  0  0  0
 27 30  1  0  0  0  0
 28 20  1  0  0  0  0
 29 28  1  0  0  0  0
 30  7  1  0  0  0  0
 30 26  1  0  0  0  0
M  END
>  <MODEL>
1

>  <REMARK>
 VINA RESULT:      -9.5      0.000      0.000
  Name = 
  0 active torsions:
  status: ('A' for Active; 'I' for Inactive)
                            x       y       z     vdW  Elec       q    Type
                         _______ _______ _______ _____ _____    ______ ____

>  <TORSDO>
F 0

$$$$
=
 OpenBabel10262421593D

 30 36  0  0  1  0  0  0  0  0999 V2000
  186.5610  177.8180  142.6590 C   0  0  0  0  0  0  0  0  0  0  0  0
  184.2530  179.3380  140.2080 C   0  0  0  0  0  3  0  0  0  0  0  0
  189.1920  178.2220  138.0790 C   0  0  0  0  0  2  0  0  0  0  0  0
  187.7850  177.1080  142.7810 N   0  0  0  0  0  0  0  0  0  0  0  0
  185.8970  178.1070  143.8770 C   0  0  0  0  0  0  0  0  0  0  0  0
  185.7480  177.9760  146.2800 N   0  0  0  0  0  0  0  0  0  0  0  0
  189.4630  176.0310  143.3940 C   0  0  1  0  0  3  0  0  0  0  0  0
  186.4240  177.6680  145.1410 C   0  0  0  0  0  0  0  0  0  0  0  0
  184.6920  178.8340  143.8530 C   0  0  0  0  0  0  0  0  0  0  0  0
  190.3190  177.6680  140.3060 C   0  0  1  0  0  3  0  0  0  0  0  0
  189.3510  178.5780  139.5500 C   0  0  0  0  0  2  0  0  0  0  0  0
  184.1530  179.2540  142.6310 C   0  0  0  0  0  3  0  0  0  0  0  0
  187.6970  176.8790  145.2350 C   0  0  0  0  0  3  0  0  0  0  0  0
  184.8940  178.9930  139.0170 C   0  0  0  0  0  3  0  0  0  0  0  0
  189.9380  177.6580  141.7870 C   0  0  1  0  0  3  0  0  0  0  0  0
  191.5220  178.7830  143.0780 C   0  0  0  0  0  1  0  0  0  0  0  0
  184.0400  179.1260  145.0510 C   0  0  0  0  0  3  0  0  0  0  0  0
  184.8000  178.9400  141.4280 C   0  0  0  0  0  0  0  0  0  0  0  0
  188.0870  177.1890  137.9040 C   0  0  0  0  0  2  0  0  0  0  0  0
  186.7190  177.8530  137.7570 C   0  0  0  0  0  2  0  0  0  0  0  0
  184.5880  178.6870  146.2600 C   0  0  0  0  0  3  0  0  0  0  0  0
  186.0040  178.2020  141.4340 C   0  0  0  0  0  0  0  0  0  0  0  0
  188.2780  176.6550  144.0690 C   0  0  0  0  0  0  0  0  0  0  0  0
  190.3590  176.3710  139.7820 O   0  0  0  0  0  1  0  0  0  0  0  0
  188.9630  176.5540  142.1480 C   0  0  2  0  0  3  0  0  0  0  0  0
  191.1120  177.4650  142.6190 N   0  0  0  0  0  0  0  0  0  0  0  0
  191.6950  175.7440  144.0300 C   0  0  0  0  0  1  0  0  0  0  0  0
  186.0770  178.2480  139.0540 C   0  0  0  0  0  0  0  0  0  0  0  0
  186.5950  177.8640  140.2560 N   0  0  0  0  0  0  0  0  0  0  0  0
  190.6830  176.7510  143.7540 N   0  0  0  0  0  0  0  0  0  0  0  0
  1  4  1  0  0  0  0
  1  5  1  0  0  0  0
  2 18  1  0  0  0  0
  3 11  1  0  0  0  0
  4 23  1  0  0  0  0
  5  8  1  0  0  0  0
  7 30  1  0  0  0  0
  7 23  1  1  0  0  0
  8 13  1  0  0  0  0
  8  6  2  0  0  0  0
  9  5  2  0  0  0  0
  9 17  1  0  0  0  0
 10 24  1  6  0  0  0
 10 15  1  0  0  0  0
 11 10  1  0  0  0  0
 12  9  1  0  0  0  0
 14 28  1  0  0  0  0
 14  2  2  0  0  0  0
 15 25  1  0  0  0  0
 15 26  1  1  0  0  0
 17 21  2  0  0  0  0
 18 22  1  0  0  0  0
 18 12  2  0  0  0  0
 19  3  1  0  0  0  0
 20 19  1  0  0  0  0
 20 28  1  0  0  0  0
 21  6  1  0  0  0  0
 22  1  2  0  0  0  0
 23 13  2  0  0  0  0
 25  4  1  1  0  0  0
 25  7  1  0  0  0  0
 26 16  1  0  0  0  0
 26 30  1  0  0  0  0
 28 29  2  0  0  0  0
 29 22  1  0  0  0  0
 30 27  1  0  0  0  0
M  END
>  <MODEL>
2

>  <REMARK>
 VINA RESULT:      -9.4      1.782      5.199
  Name = 
  0 active torsions:
  status: ('A' for Active; 'I' for Inactive)
                            x       y       z     vdW  Elec       q    Type
                         _______ _______ _______ _____ _____    ______ ____

>  <TORSDO>
F 0

$$$$
=
 OpenBabel10262421593D

 30 36  0  0  1  0  0  0  0  0999 V2000
  186.5480  178.3890  141.0930 C   0  0  0  0  0  0  0  0  0  0  0  0
  182.9890  178.5900  142.0570 C   0  0  0  0  0  3  0  0  0  0  0  0
  186.2960  177.5480  146.3180 C   0  0  0  0  0  2  0  0  0  0  0  0
  187.8700  178.3970  141.6130 N   0  0  0  0  0  0  0  0  0  0  0  0
  186.4440  178.2550  139.6870 C   0  0  0  0  0  0  0  0  0  0  0  0
  187.4570  178.0380  137.5080 N   0  0  0  0  0  0  0  0  0  0  0  0
  189.9300  178.4220  141.9400 C   0  0  1  0  0  3  0  0  0  0  0  0
  187.6130  178.1700  138.8530 C   0  0  0  0  0  0  0  0  0  0  0  0
  185.1710  178.2060  139.0880 C   0  0  0  0  0  0  0  0  0  0  0  0
  188.3940  177.1160  144.9210 C   0  0  1  0  0  3  0  0  0  0  0  0
  186.8850  176.9200  145.0630 C   0  0  0  0  0  2  0  0  0  0  0  0
  184.0210  178.3060  139.8810 C   0  0  0  0  0  3  0  0  0  0  0  0
  188.9990  178.2280  139.4260 C   0  0  0  0  0  3  0  0  0  0  0  0
  183.1140  178.7800  143.4340 C   0  0  0  0  0  3  0  0  0  0  0  0
  188.7670  177.0600  143.4390 C   0  0  1  0  0  3  0  0  0  0  0  0
  189.9560  175.1170  142.9360 C   0  0  0  0  0  1  0  0  0  0  0  0
  185.0660  178.0660  137.7040 C   0  0  0  0  0  3  0  0  0  0  0  0
  184.1320  178.4680  141.2680 C   0  0  0  0  0  0  0  0  0  0  0  0
  185.9090  178.9950  146.0490 C   0  0  0  0  0  2  0  0  0  0  0  0
  184.4920  179.1010  145.4890 C   0  0  0  0  0  2  0  0  0  0  0  0
  186.2270  177.9820  136.9280 C   0  0  0  0  0  3  0  0  0  0  0  0
  185.4020  178.5280  141.8830 C   0  0  0  0  0  0  0  0  0  0  0  0
  189.0310  178.3370  140.7430 C   0  0  0  0  0  0  0  0  0  0  0  0
  188.8390  178.3030  145.5130 O   0  0  0  0  0  1  0  0  0  0  0  0
  188.7480  178.4180  142.7640 C   0  0  2  0  0  3  0  0  0  0  0  0
  190.1050  176.5260  143.2650 N   0  0  0  0  0  0  0  0  0  0  0  0
  192.0190  177.4970  142.4370 C   0  0  0  0  0  1  0  0  0  0  0  0
  184.3860  178.8510  144.0130 C   0  0  0  0  0  0  0  0  0  0  0  0
  185.4930  178.7340  143.2250 N   0  0  0  0  0  0  0  0  0  0  0  0
  190.6410  177.1580  142.1260 N   0  0  0  0  0  0  0  0  0  0  0  0
  1  4  1  0  0  0  0
  1 22  1  0  0  0  0
  2 14  1  0  0  0  0
  5  1  2  0  0  0  0
  6  8  2  0  0  0  0
  7 23  1  6  0  0  0
  7 30  1  0  0  0  0
  7 25  1  0  0  0  0
  8 13  1  0  0  0  0
  8  5  1  0  0  0  0
  9  5  1  0  0  0  0
  9 12  2  0  0  0  0
 10 11  1  0  0  0  0
 10 24  1  6  0  0  0
 11  3  1  0  0  0  0
 12 18  1  0  0  0  0
 13 23  2  0  0  0  0
 14 28  2  0  0  0  0
 15 26  1  1  0  0  0
 15 10  1  0  0  0  0
 16 26  1  0  0  0  0
 17  9  1  0  0  0  0
 18 22  1  0  0  0  0
 18  2  2  0  0  0  0
 19  3  1  0  0  0  0
 20 19  1  0  0  0  0
 21  6  1  0  0  0  0
 21 17  2  0  0  0  0
 22 29  2  0  0  0  0
 23  4  1  0  0  0  0
 25  4  1  6  0  0  0
 25 15  1  0  0  0  0
 28 20  1  0  0  0  0
 29 28  1  0  0  0  0
 30 27  1  0  0  0  0
 30 26  1  0  0  0  0
M  END
>  <MODEL>
3

>  <REMARK>
 VINA RESULT:      -8.9      0.867      1.255
  Name = 
  0 active torsions:
  status: ('A' for Active; 'I' for Inactive)
                            x       y       z     vdW  Elec       q    Type
                         _______ _______ _______ _____ _____    ______ ____

>  <TORSDO>
F 0

$$$$
=
 OpenBabel10262421593D

 30 36  0  0  1  0  0  0  0  0999 V2000
  186.9380  178.1040  141.5840 C   0  0  0  0  0  0  0  0  0  0  0  0
  190.3860  176.8100  141.8660 C   0  0  0  0  0  3  0  0  0  0  0  0
  188.4990  176.7480  136.7070 C   0  0  0  0  0  2  0  0  0  0  0  0
  185.9720  178.5770  140.6570 N   0  0  0  0  0  0  0  0  0  0  0  0
  186.5210  178.0710  142.9380 C   0  0  0  0  0  0  0  0  0  0  0  0
  184.8650  178.4700  144.6450 N   0  0  0  0  0  0  0  0  0  0  0  0
  184.3180  179.3730  139.6660 C   0  0  1  0  0  3  0  0  0  0  0  0
  185.2150  178.5270  143.3320 C   0  0  0  0  0  0  0  0  0  0  0  0
  187.4030  177.5860  143.9220 C   0  0  0  0  0  0  0  0  0  0  0  0
  186.0760  177.3000  137.3070 C   0  0  1  0  0  3  0  0  0  0  0  0
  187.3400  176.5190  137.6650 C   0  0  0  0  0  2  0  0  0  0  0  0
  188.6860  177.1550  143.5610 C   0  0  0  0  0  3  0  0  0  0  0  0
  184.2320  179.0660  142.3350 C   0  0  0  0  0  3  0  0  0  0  0  0
  190.7960  176.9050  140.5350 C   0  0  0  0  0  3  0  0  0  0  0  0
  185.2570  177.5320  138.5780 C   0  0  1  0  0  3  0  0  0  0  0  0
  183.3000  176.2630  138.5690 C   0  0  0  0  0  1  0  0  0  0  0  0
  186.9930  177.5460  145.2550 C   0  0  0  0  0  3  0  0  0  0  0  0
  189.1010  177.2180  142.2250 C   0  0  0  0  0  0  0  0  0  0  0  0
  189.3220  177.9490  137.1540 C   0  0  0  0  0  2  0  0  0  0  0  0
  190.4020  177.5450  138.1570 C   0  0  0  0  0  2  0  0  0  0  0  0
  185.7130  177.9930  145.5970 C   0  0  0  0  0  3  0  0  0  0  0  0
  188.2320  177.7110  141.2260 C   0  0  0  0  0  0  0  0  0  0  0  0
  184.6710  179.0560  141.0880 C   0  0  0  0  0  0  0  0  0  0  0  0
  186.3560  178.5070  136.6550 O   0  0  0  0  0  1  0  0  0  0  0  0
  185.5960  178.8320  139.2820 C   0  0  2  0  0  3  0  0  0  0  0  0
  183.8380  177.5810  138.2730 N   0  0  0  0  0  0  0  0  0  0  0  0
  182.3140  179.2940  138.4630 C   0  0  0  0  0  1  0  0  0  0  0  0
  189.9180  177.4120  139.5710 C   0  0  0  0  0  0  0  0  0  0  0  0
  188.6670  177.8100  139.9410 N   0  0  0  0  0  0  0  0  0  0  0  0
  183.2640  178.4740  139.1980 N   0  0  0  0  0  0  0  0  0  0  0  0
  1  5  1  0  0  0  0
  2 18  1  0  0  0  0
  3 19  1  0  0  0  0
  3 11  1  0  0  0  0
  4 23  1  0  0  0  0
  4  1  1  0  0  0  0
  5  8  2  0  0  0  0
  5  9  1  0  0  0  0
  6 21  2  0  0  0  0
  7 23  1  1  0  0  0
  8  6  1  0  0  0  0
  9 17  2  0  0  0  0
 10 24  1  1  0  0  0
 10 11  1  0  0  0  0
 10 15  1  0  0  0  0
 12  9  1  0  0  0  0
 13  8  1  0  0  0  0
 14  2  2  0  0  0  0
 15 26  1  6  0  0  0
 15 25  1  0  0  0  0
 17 21  1  0  0  0  0
 18 12  2  0  0  0  0
 19 20  1  0  0  0  0
 20 28  1  0  0  0  0
 22  1  2  0  0  0  0
 22 18  1  0  0  0  0
 23 13  2  0  0  0  0
 25  7  1  0  0  0  0
 25  4  1  1  0  0  0
 26 16  1  0  0  0  0
 26 30  1  0  0  0  0
 27 30  1  0  0  0  0
 28 29  2  0  0  0  0
 28 14  1  0  0  0  0
 29 22  1  0  0  0  0
 30  7  1  0  0  0  0
M  END
>  <MODEL>
4

>  <REMARK>
 VINA RESULT:      -8.9      2.602      7.082
  Name = 
  0 active torsions:
  status: ('A' for Active; 'I' for Inactive)
                            x       y       z     vdW  Elec       q    Type
                         _______ _______ _______ _____ _____    ______ ____

>  <TORSDO>
F 0

$$$$
=
 OpenBabel10262421593D

 30 36  0  0  1  0  0  0  0  0999 V2000
  186.7760  178.3020  141.3180 C   0  0  0  0  0  0  0  0  0  0  0  0
  186.7630  177.8870  144.9880 C   0  0  0  0  0  3  0  0  0  0  0  0
  191.6080  176.6400  142.7180 C   0  0  0  0  0  2  0  0  0  0  0  0
  187.6290  178.4010  140.1870 N   0  0  0  0  0  0  0  0  0  0  0  0
  185.3870  178.3730  141.0450 C   0  0  0  0  0  0  0  0  0  0  0  0
  183.5520  178.6280  139.5020 N   0  0  0  0  0  0  0  0  0  0  0  0
  188.5000  178.6440  138.3070 C   0  0  1  0  0  3  0  0  0  0  0  0
  184.8950  178.5710  139.7090 C   0  0  0  0  0  0  0  0  0  0  0  0
  184.4670  178.2530  142.1030 C   0  0  0  0  0  0  0  0  0  0  0  0
  190.7870  176.7050  140.2970 C   0  0  1  0  0  3  0  0  0  0  0  0
  190.4940  176.2950  141.7400 C   0  0  0  0  0  2  0  0  0  0  0  0
  184.9270  178.0790  143.4140 C   0  0  0  0  0  3  0  0  0  0  0  0
  185.8230  178.7190  138.5380 C   0  0  0  0  0  3  0  0  0  0  0  0
  188.1360  177.8780  145.2420 C   0  0  0  0  0  3  0  0  0  0  0  0
  189.4640  176.9270  139.5640 C   0  0  1  0  0  3  0  0  0  0  0  0
  189.0800  175.2560  137.9820 C   0  0  0  0  0  1  0  0  0  0  0  0
  183.0990  178.3150  141.8370 C   0  0  0  0  0  3  0  0  0  0  0  0
  186.3020  178.0380  143.6800 C   0  0  0  0  0  0  0  0  0  0  0  0
  191.4130  178.0500  143.2610 C   0  0  0  0  0  2  0  0  0  0  0  0
  190.5080  178.0550  144.4920 C   0  0  0  0  0  2  0  0  0  0  0  0
  182.6600  178.5030  140.5220 C   0  0  0  0  0  3  0  0  0  0  0  0
  187.2390  178.1670  142.6320 C   0  0  0  0  0  0  0  0  0  0  0  0
  187.1030  178.6280  138.8530 C   0  0  0  0  0  0  0  0  0  0  0  0
  191.6100  177.8350  140.2160 O   0  0  0  0  0  1  0  0  0  0  0  0
  188.9680  178.3580  139.6390 C   0  0  2  0  0  3  0  0  0  0  0  0
  189.5960  176.6050  138.1550 N   0  0  0  0  0  0  0  0  0  0  0  0
  189.4300  177.9320  136.2830 C   0  0  0  0  0  1  0  0  0  0  0  0
  189.0390  178.0230  144.1840 C   0  0  0  0  0  0  0  0  0  0  0  0
  188.5710  178.1750  142.9120 N   0  0  0  0  0  0  0  0  0  0  0  0
  188.7240  177.4690  137.4650 N   0  0  0  0  0  0  0  0  0  0  0  0
  1 22  1  0  0  0  0
  2 14  1  0  0  0  0
  3 19  1  0  0  0  0
  4  1  1  0  0  0  0
  5  1  2  0  0  0  0
  5  9  1  0  0  0  0
  6  8  2  0  0  0  0
  6 21  1  0  0  0  0
  7 23  1  1  0  0  0
  7 25  1  0  0  0  0
  8  5  1  0  0  0  0
  9 12  2  0  0  0  0
 10 24  1  1  0  0  0
 10 11  1  0  0  0  0
 11  3  1  0  0  0  0
 12 18  1  0  0  0  0
 13 23  2  0  0  0  0
 13  8  1  0  0  0  0
 15 26  1  6  0  0  0
 15 25  1  0  0  0  0
 15 10  1  0  0  0  0
 16 26  1  0  0  0  0
 17  9  1  0  0  0  0
 18  2  2  0  0  0  0
 19 20  1  0  0  0  0
 21 17  2  0  0  0  0
 22 29  2  0  0  0  0
 22 18  1  0  0  0  0
 23  4  1  0  0  0  0
 25  4  1  1  0  0  0
 27 30  1  0  0  0  0
 28 20  1  0  0  0  0
 28 14  2  0  0  0  0
 29 28  1  0  0  0  0
 30 26  1  0  0  0  0
 30  7  1  0  0  0  0
M  END
>  <MODEL>
5

>  <REMARK>
 VINA RESULT:      -8.7      2.147      4.089
  Name = 
  0 active torsions:
  status: ('A' for Active; 'I' for Inactive)
                            x       y       z     vdW  Elec       q    Type
                         _______ _______ _______ _____ _____    ______ ____

>  <TORSDO>
F 0

$$$$
=
 OpenBabel10262421593D

 30 36  0  0  1  0  0  0  0  0999 V2000
  185.0980  178.5220  142.1100 C   0  0  0  0  0  0  0  0  0  0  0  0
  188.7000  177.8910  141.5900 C   0  0  0  0  0  3  0  0  0  0  0  0
  185.7190  177.1130  137.0410 C   0  0  0  0  0  2  0  0  0  0  0  0
  183.8720  178.7460  141.4290 N   0  0  0  0  0  0  0  0  0  0  0  0
  185.0200  178.5150  143.5250 C   0  0  0  0  0  0  0  0  0  0  0  0
  183.7580  178.7360  145.5680 N   0  0  0  0  0  0  0  0  0  0  0  0
  181.9130  179.1580  140.8430 C   0  0  1  0  0  3  0  0  0  0  0  0
  183.7780  178.7580  144.2080 C   0  0  0  0  0  0  0  0  0  0  0  0
  186.1820  178.2700  144.2810 C   0  0  0  0  0  0  0  0  0  0  0  0
  183.4410  177.2650  138.1910 C   0  0  1  0  0  3  0  0  0  0  0  0
  184.8790  176.7510  138.2570 C   0  0  0  0  0  2  0  0  0  0  0  0
  187.4040  178.0500  143.6340 C   0  0  0  0  0  3  0  0  0  0  0  0
  182.5070  179.0380  143.4620 C   0  0  0  0  0  3  0  0  0  0  0  0
  188.7650  177.9600  140.1970 C   0  0  0  0  0  3  0  0  0  0  0  0
  182.9090  177.4400  139.6150 C   0  0  1  0  0  3  0  0  0  0  0  0
  181.2830  175.8440  140.1150 C   0  0  0  0  0  1  0  0  0  0  0  0
  186.1060  178.2550  145.6730 C   0  0  0  0  0  3  0  0  0  0  0  0
  187.4790  178.0880  142.2360 C   0  0  0  0  0  0  0  0  0  0  0  0
  186.3780  178.4710  137.2420 C   0  0  0  0  0  2  0  0  0  0  0  0
  187.7170  178.3420  137.9660 C   0  0  0  0  0  2  0  0  0  0  0  0
  184.8780  178.4900  146.3010 C   0  0  0  0  0  3  0  0  0  0  0  0
  186.3250  178.3420  141.4620 C   0  0  0  0  0  0  0  0  0  0  0  0
  182.6400  179.0150  142.1470 C   0  0  0  0  0  0  0  0  0  0  0  0
  183.3270  178.4510  137.4570 O   0  0  0  0  0  1  0  0  0  0  0  0
  183.1470  178.8270  140.1780 C   0  0  2  0  0  3  0  0  0  0  0  0
  181.4760  177.2120  139.6600 N   0  0  0  0  0  0  0  0  0  0  0  0
  179.7390  178.6330  140.1610 C   0  0  0  0  0  1  0  0  0  0  0  0
  187.6080  178.2290  139.4590 C   0  0  0  0  0  0  0  0  0  0  0  0
  186.4240  178.4230  140.1070 N   0  0  0  0  0  0  0  0  0  0  0  0
  180.9710  178.0530  140.6690 N   0  0  0  0  0  0  0  0  0  0  0  0
  1  5  1  0  0  0  0
  2 18  1  0  0  0  0
  3 19  1  0  0  0  0
  3 11  1  0  0  0  0
  4  1  1  0  0  0  0
  4 23  1  0  0  0  0
  5  8  2  0  0  0  0
  5  9  1  0  0  0  0
  6 21  2  0  0  0  0
  7 23  1  1  0  0  0
  8  6  1  0  0  0  0
  9 17  2  0  0  0  0
 10 24  1  1  0  0  0
 10 11  1  0  0  0  0
 10 15  1  0  0  0  0
 12  9  1  0  0  0  0
 13  8  1  0  0  0  0
 14  2  2  0  0  0  0
 15 26  1  6  0  0  0
 15 25  1  0  0  0  0
 17 21  1  0  0  0  0
 18 12  2  0  0  0  0
 19 20  1  0  0  0  0
 20 28  1  0  0  0  0
 22  1  2  0  0  0  0
 22 18  1  0  0  0  0
 23 13  2  0  0  0  0
 25  7  1  0  0  0  0
 25  4  1  1  0  0  0
 26 16  1  0  0  0  0
 26 30  1  0  0  0  0
 27 30  1  0  0  0  0
 28 29  2  0  0  0  0
 28 14  1  0  0  0  0
 29 22  1  0  0  0  0
 30  7  1  0  0  0  0
M  END
>  <MODEL>
6

>  <REMARK>
 VINA RESULT:      -8.6      2.957      7.423
  Name = 
  0 active torsions:
  status: ('A' for Active; 'I' for Inactive)
                            x       y       z     vdW  Elec       q    Type
                         _______ _______ _______ _____ _____    ______ ____

>  <TORSDO>
F 0

$$$$
=
 OpenBabel10262421593D

 30 36  0  0  1  0  0  0  0  0999 V2000
  187.8110  178.0180  140.5620 C   0  0  0  0  0  0  0  0  0  0  0  0
  190.4450  177.4720  143.0920 C   0  0  0  0  0  3  0  0  0  0  0  0
  191.8800  175.6850  138.1000 C   0  0  0  0  0  2  0  0  0  0  0  0
  187.5650  178.0460  139.1640 N   0  0  0  0  0  0  0  0  0  0  0  0
  186.6890  178.2810  141.3870 C   0  0  0  0  0  0  0  0  0  0  0  0
  184.3570  178.8320  141.6620 N   0  0  0  0  0  0  0  0  0  0  0  0
  186.7970  178.2420  137.2340 C   0  0  1  0  0  3  0  0  0  0  0  0
  185.4020  178.5910  140.8250 C   0  0  0  0  0  0  0  0  0  0  0  0
  186.8340  178.2430  142.7860 C   0  0  0  0  0  0  0  0  0  0  0  0
  189.5630  175.9470  137.0520 C   0  0  1  0  0  3  0  0  0  0  0  0
  190.3770  175.5260  138.2750 C   0  0  0  0  0  2  0  0  0  0  0  0
  188.0840  177.9610  143.3520 C   0  0  0  0  0  3  0  0  0  0  0  0
  185.1820  178.6590  139.3420 C   0  0  0  0  0  3  0  0  0  0  0  0
  191.5500  177.2730  142.2620 C   0  0  0  0  0  3  0  0  0  0  0  0
  188.1640  176.3680  137.5050 C   0  0  1  0  0  3  0  0  0  0  0  0
  186.5530  174.8220  136.8310 C   0  0  0  0  0  1  0  0  0  0  0  0
  185.7300  178.4940  143.6000 C   0  0  0  0  0  3  0  0  0  0  0  0
  189.1950  177.7310  142.5310 C   0  0  0  0  0  0  0  0  0  0  0  0
  192.3120  177.0870  138.5110 C   0  0  0  0  0  2  0  0  0  0  0  0
  192.6090  177.1650  140.0070 C   0  0  0  0  0  2  0  0  0  0  0  0
  184.4930  178.7870  143.0160 C   0  0  0  0  0  3  0  0  0  0  0  0
  189.0690  177.7750  141.1250 C   0  0  0  0  0  0  0  0  0  0  0  0
  186.2600  178.3890  138.6270 C   0  0  0  0  0  0  0  0  0  0  0  0
  190.1860  176.9620  136.3150 O   0  0  0  0  0  1  0  0  0  0  0  0
  188.0540  177.8480  137.8160 C   0  0  2  0  0  3  0  0  0  0  0  0
  187.1820  176.0840  136.4750 N   0  0  0  0  0  0  0  0  0  0  0  0
  185.8530  177.4910  135.2310 C   0  0  0  0  0  1  0  0  0  0  0  0
  191.3960  177.3380  140.8740 C   0  0  0  0  0  0  0  0  0  0  0  0
  190.1670  177.5970  140.3420 N   0  0  0  0  0  0  0  0  0  0  0  0
  186.1930  177.0800  136.5830 N   0  0  0  0  0  0  0  0  0  0  0  0
  1 22  2  0  0  0  0
  1  5  1  0  0  0  0
  3 11  1  0  0  0  0
  3 19  1  0  0  0  0
  4  1  1  0  0  0  0
  5  9  1  0  0  0  0
  6 21  2  0  0  0  0
  7 25  1  0  0  0  0
  7 23  1  1  0  0  0
  8  5  2  0  0  0  0
  8  6  1  0  0  0  0
  9 12  1  0  0  0  0
  9 17  2  0  0  0  0
 10 24  1  1  0  0  0
 10 15  1  0  0  0  0
 10 11  1  0  0  0  0
 13  8  1  0  0  0  0
 14  2  2  0  0  0  0
 15 26  1  6  0  0  0
 15 25  1  0  0  0  0
 18  2  1  0  0  0  0
 18 12  2  0  0  0  0
 19 20  1  0  0  0  0
 20 28  1  0  0  0  0
 21 17  1  0  0  0  0
 22 18  1  0  0  0  0
 23  4  1  0  0  0  0
 23 13  2  0  0  0  0
 25  4  1  1  0  0  0
 26 30  1  0  0  0  0
 26 16  1  0  0  0  0
 27 30  1  0  0  0  0
 28 14  1  0  0  0  0
 29 28  2  0  0  0  0
 29 22  1  0  0  0  0
 30  7  1  0  0  0  0
M  END
>  <MODEL>
7

>  <REMARK>
 VINA RESULT:      -8.3      2.884      6.604
  Name = 
  0 active torsions:
  status: ('A' for Active; 'I' for Inactive)
                            x       y       z     vdW  Elec       q    Type
                         _______ _______ _______ _____ _____    ______ ____

>  <TORSDO>
F 0

$$$$
=
 OpenBabel10262421593D

 30 36  0  0  1  0  0  0  0  0999 V2000
  183.8480  178.5000  140.7160 C   0  0  0  0  0  0  0  0  0  0  0  0
  184.1260  178.9880  144.3660 C   0  0  0  0  0  3  0  0  0  0  0  0
  179.0800  180.0180  142.4560 C   0  0  0  0  0  2  0  0  0  0  0  0
  182.9150  178.3490  139.6560 N   0  0  0  0  0  0  0  0  0  0  0  0
  185.2130  178.4730  140.3380 C   0  0  0  0  0  0  0  0  0  0  0  0
  186.9340  178.2530  138.6620 N   0  0  0  0  0  0  0  0  0  0  0  0
  181.9130  178.0380  137.8530 C   0  0  1  0  0  3  0  0  0  0  0  0
  185.6090  178.2660  138.9710 C   0  0  0  0  0  0  0  0  0  0  0  0
  186.2070  178.6470  141.3200 C   0  0  0  0  0  0  0  0  0  0  0  0
  179.7150  179.9340  139.9800 C   0  0  1  0  0  3  0  0  0  0  0  0
  180.1020  180.3830  141.3890 C   0  0  0  0  0  2  0  0  0  0  0  0
  185.8420  178.8310  142.6590 C   0  0  0  0  0  3  0  0  0  0  0  0
  184.6010  178.0620  137.8780 C   0  0  0  0  0  3  0  0  0  0  0  0
  182.7780  178.9540  144.7250 C   0  0  0  0  0  3  0  0  0  0  0  0
  180.9850  179.7440  139.1510 C   0  0  1  0  0  3  0  0  0  0  0  0
  181.1860  181.3950  137.5150 C   0  0  0  0  0  1  0  0  0  0  0  0
  187.5520  178.6280  140.9490 C   0  0  0  0  0  3  0  0  0  0  0  0
  184.4920  178.8280  143.0300 C   0  0  0  0  0  0  0  0  0  0  0  0
  179.3680  178.6270  143.0060 C   0  0  0  0  0  2  0  0  0  0  0  0
  180.3630  178.6780  144.1630 C   0  0  0  0  0  2  0  0  0  0  0  0
  187.8960  178.4290  139.6080 C   0  0  0  0  0  3  0  0  0  0  0  0
  183.4820  178.6450  142.0590 C   0  0  0  0  0  0  0  0  0  0  0  0
  183.3460  178.1140  138.2890 C   0  0  0  0  0  0  0  0  0  0  0  0
  178.9310  178.7740  139.9820 O   0  0  0  0  0  1  0  0  0  0  0  0
  181.5370  178.3330  139.2120 C   0  0  2  0  0  3  0  0  0  0  0  0
  180.7340  180.0330  137.7510 N   0  0  0  0  0  0  0  0  0  0  0  0
  180.8050  178.6750  135.8950 C   0  0  0  0  0  1  0  0  0  0  0  0
  181.8020  178.7560  143.7430 C   0  0  0  0  0  0  0  0  0  0  0  0
  182.1770  178.5960  142.4410 N   0  0  0  0  0  0  0  0  0  0  0  0
  181.5820  179.1870  137.0110 N   0  0  0  0  0  0  0  0  0  0  0  0
  1 22  1  0  0  0  0
  2 14  1  0  0  0  0
  3 19  1  0  0  0  0
  4  1  1  0  0  0  0
  5  1  2  0  0  0  0
  5  9  1  0  0  0  0
  6  8  2  0  0  0  0
  6 21  1  0  0  0  0
  7 23  1  1  0  0  0
  7 25  1  0  0  0  0
  8  5  1  0  0  0  0
  9 12  2  0  0  0  0
 10 24  1  1  0  0  0
 10 11  1  0  0  0  0
 11  3  1  0  0  0  0
 12 18  1  0  0  0  0
 13 23  2  0  0  0  0
 13  8  1  0  0  0  0
 15 26  1  6  0  0  0
 15 25  1  0  0  0  0
 15 10  1  0  0  0  0
 16 26  1  0  0  0  0
 17  9  1  0  0  0  0
 18  2  2  0  0  0  0
 19 20  1  0  0  0  0
 21 17  2  0  0  0  0
 22 29  2  0  0  0  0
 22 18  1  0  0  0  0
 23  4  1  0  0  0  0
 25  4  1  1  0  0  0
 27 30  1  0  0  0  0
 28 20  1  0  0  0  0
 28 14  2  0  0  0  0
 29 28  1  0  0  0  0
 30 26  1  0  0  0  0
 30  7  1  0  0  0  0
M  END
>  <MODEL>
8

>  <REMARK>
 VINA RESULT:      -8.0      3.693      7.167
  Name = 
  0 active torsions:
  status: ('A' for Active; 'I' for Inactive)
                            x       y       z     vdW  Elec       q    Type
                         _______ _______ _______ _____ _____    ______ ____

>  <TORSDO>
F 0

$$$$
=
 OpenBabel10262421593D

 30 36  0  0  1  0  0  0  0  0999 V2000
  187.2910  177.8600  142.6560 C   0  0  0  0  0  0  0  0  0  0  0  0
  186.1530  178.5570  139.2130 C   0  0  0  0  0  3  0  0  0  0  0  0
  191.5360  177.5030  139.5070 C   0  0  0  0  0  2  0  0  0  0  0  0
  188.3660  177.3230  143.4120 N   0  0  0  0  0  0  0  0  0  0  0  0
  186.1940  178.3430  143.4110 C   0  0  0  0  0  0  0  0  0  0  0  0
  185.0950  178.7340  145.5220 N   0  0  0  0  0  0  0  0  0  0  0  0
  189.6620  176.5830  144.8710 C   0  0  1  0  0  3  0  0  0  0  0  0
  186.1720  178.2510  144.8460 C   0  0  0  0  0  0  0  0  0  0  0  0
  185.0970  178.9220  142.7450 C   0  0  0  0  0  0  0  0  0  0  0  0
  191.6780  177.5740  142.0590 C   0  0  1  0  0  3  0  0  0  0  0  0
  191.0910  178.1900  140.7890 C   0  0  0  0  0  2  0  0  0  0  0  0
  185.0900  179.0030  141.3480 C   0  0  0  0  0  3  0  0  0  0  0  0
  187.3030  177.6350  145.6160 C   0  0  0  0  0  3  0  0  0  0  0  0
  187.2180  178.0240  138.4860 C   0  0  0  0  0  3  0  0  0  0  0  0
  190.7350  177.8530  143.2300 C   0  0  1  0  0  3  0  0  0  0  0  0
  191.6640  179.3910  144.7180 C   0  0  0  0  0  1  0  0  0  0  0  0
  184.0180  179.4040  143.4860 C   0  0  0  0  0  3  0  0  0  0  0  0
  186.1660  178.4970  140.6060 C   0  0  0  0  0  0  0  0  0  0  0  0
  190.5970  176.3510  139.1740 C   0  0  0  0  0  2  0  0  0  0  0  0
  189.4000  176.8230  138.3510 C   0  0  0  0  0  2  0  0  0  0  0  0
  184.0370  179.3010  144.8810 C   0  0  0  0  0  3  0  0  0  0  0  0
  187.2700  177.9050  141.2580 C   0  0  0  0  0  0  0  0  0  0  0  0
  188.3040  177.2190  144.8590 C   0  0  0  0  0  0  0  0  0  0  0  0
  191.9290  176.2030  141.9240 O   0  0  0  0  0  1  0  0  0  0  0  0
  189.7020  176.7640  143.4420 C   0  0  2  0  0  3  0  0  0  0  0  0
  191.4790  177.9700  144.4710 N   0  0  0  0  0  0  0  0  0  0  0  0
  191.4540  176.6720  146.3710 C   0  0  0  0  0  1  0  0  0  0  0  0
  188.2900  177.4290  139.1600 C   0  0  0  0  0  0  0  0  0  0  0  0
  188.2850  177.3750  140.5220 N   0  0  0  0  0  0  0  0  0  0  0  0
  190.6340  177.4850  145.4880 N   0  0  0  0  0  0  0  0  0  0  0  0
  1  5  1  0  0  0  0
  1  4  1  0  0  0  0
  2 18  1  0  0  0  0
  3 11  1  0  0  0  0
  4 23  1  0  0  0  0
  5  8  1  0  0  0  0
  7 23  1  1  0  0  0
  7 30  1  0  0  0  0
  8  6  2  0  0  0  0
  8 13  1  0  0  0  0
  9  5  2  0  0  0  0
  9 17  1  0  0  0  0
 10 24  1  6  0  0  0
 10 15  1  0  0  0  0
 11 10  1  0  0  0  0
 12  9  1  0  0  0  0
 14 28  1  0  0  0  0
 14  2  2  0  0  0  0
 15 25  1  0  0  0  0
 15 26  1  1  0  0  0
 17 21  2  0  0  0  0
 18 22  1  0  0  0  0
 18 12  2  0  0  0  0
 19  3  1  0  0  0  0
 20 28  1  0  0  0  0
 20 19  1  0  0  0  0
 21  6  1  0  0  0  0
 22  1  2  0  0  0  0
 23 13  2  0  0  0  0
 25  4  1  1  0  0  0
 25  7  1  0  0  0  0
 26 16  1  0  0  0  0
 26 30  1  0  0  0  0
 28 29  2  0  0  0  0
 29 22  1  0  0  0  0
 30 27  1  0  0  0  0
M  END
>  <MODEL>
9

>  <REMARK>
 VINA RESULT:      -7.8      1.897      5.214
  Name = 
  0 active torsions:
  status: ('A' for Active; 'I' for Inactive)
                            x       y       z     vdW  Elec       q    Type
                         _______ _______ _______ _____ _____    ______ ____

>  <TORSDO>
F 0

$$$$
