=
 OpenBabel10262419553D

 25 28  0  0  1  0  0  0  0  0999 V2000
  187.5380  177.6440  145.6250 C   0  0  0  0  0  0  0  0  0  0  0  0
  188.8500  177.2990  145.2750 C   0  0  0  0  0  0  0  0  0  0  0  0
  188.1290  178.0210  147.9340 C   0  0  0  0  0  3  0  0  0  0  0  0
  186.2880  177.6220  144.8150 C   0  0  1  0  0  3  0  0  0  0  0  0
  190.1570  176.3480  143.2660 C   0  0  0  0  0  0  0  0  0  0  0  0
  183.9610  179.2090  144.2110 C   0  0  0  0  0  3  0  0  0  0  0  0
  189.4590  177.7170  147.6140 C   0  0  0  0  0  3  0  0  0  0  0  0
  185.3050  178.0900  145.8540 C   0  0  0  0  0  0  0  0  0  0  0  0
  184.0260  178.6740  145.4370 C   0  0  0  0  0  3  0  0  0  0  0  0
  191.2800  177.0580  146.0050 C   0  0  1  0  0  3  0  0  0  0  0  0
  192.0560  177.0670  147.1670 O   0  0  0  0  0  1  0  0  0  0  0  0
  189.1100  176.9540  143.8570 C   0  0  0  0  0  3  0  0  0  0  0  0
  185.1600  179.2520  143.3330 C   0  0  0  0  0  3  0  0  0  0  0  0
  187.1870  177.9600  146.9160 C   0  0  0  0  0  0  0  0  0  0  0  0
  185.8080  178.2740  147.0340 N   0  0  0  0  0  0  0  0  0  0  0  0
  191.3740  175.7000  145.3590 C   0  0  0  0  0  2  0  0  0  0  0  0
  186.2740  178.5660  143.6390 C   0  0  0  0  0  3  0  0  0  0  0  0
  191.2670  175.8370  143.9520 O   0  0  0  0  0  0  0  0  0  0  0  0
  189.8380  177.3530  146.2990 C   0  0  0  0  0  0  0  0  0  0  0  0
  190.1550  176.2040  141.8400 N   0  0  0  0  0  2  0  0  0  0  0  0
  188.9110  177.4330  140.1320 C   0  0  0  0  0  1  0  0  0  0  0  0
  190.2180  177.3180  140.9000 C   0  0  2  0  0  3  0  0  0  0  0  0
  191.3530  177.1230  139.9510 C   0  0  0  0  0  0  0  0  0  0  0  0
  191.1310  176.4570  138.7160 N   0  0  0  0  0  1  0  0  0  0  0  0
  192.5090  177.5350  140.2410 O   0  0  0  0  0  0  0  0  0  0  0  0
  1 14  1  0  0  0  0
  2  1  2  0  0  0  0
  2 19  1  0  0  0  0
  4 17  1  6  0  0  0
  4  1  1  0  0  0  0
  4  8  1  0  0  0  0
  5 12  2  0  0  0  0
  5 18  1  0  0  0  0
  6  9  2  0  0  0  0
  7  3  1  0  0  0  0
  8 15  2  0  0  0  0
  9  8  1  0  0  0  0
 10 19  1  0  0  0  0
 10 11  1  1  0  0  0
 12  2  1  0  0  0  0
 13 17  2  0  0  0  0
 13  6  1  0  0  0  0
 14 15  1  0  0  0  0
 14  3  2  0  0  0  0
 16 10  1  0  0  0  0
 18 16  1  0  0  0  0
 19  7  2  0  0  0  0
 20  5  1  0  0  0  0
 22 21  1  6  0  0  0
 22 20  1  0  0  0  0
 23 25  2  0  0  0  0
 23 22  1  0  0  0  0
 24 23  1  0  0  0  0
M  END
>  <MODEL>
1

>  <REMARK>
 VINA RESULT:      -9.9      0.000      0.000
  Name = 
  3 active torsions:
  status: ('A' for Active; 'I' for Inactive)
    1  A    between atoms: C_2  and  C_25
    2  A    between atoms: C_6  and  N_15
    3  A    between atoms: N_15  and  C_25
                            x       y       z     vdW  Elec       q    Type
                         _______ _______ _______ _____ _____    ______ ____

>  <TORSDO>
F 3

$$$$
=
 OpenBabel10262419553D

 25 28  0  0  1  0  0  0  0  0999 V2000
  186.3180  178.0300  144.6880 C   0  0  0  0  0  0  0  0  0  0  0  0
  187.5440  177.8180  145.3330 C   0  0  0  0  0  0  0  0  0  0  0  0
  185.2490  178.7810  146.7150 C   0  0  0  0  0  3  0  0  0  0  0  0
  185.9040  177.7360  143.2870 C   0  0  1  0  0  3  0  0  0  0  0  0
  189.8610  176.7930  144.8510 C   0  0  0  0  0  0  0  0  0  0  0  0
  184.5180  178.9090  141.0510 C   0  0  0  0  0  3  0  0  0  0  0  0
  186.4670  178.6170  147.3860 C   0  0  0  0  0  3  0  0  0  0  0  0
  184.4740  178.2030  143.3430 C   0  0  0  0  0  0  0  0  0  0  0  0
  183.7720  178.5530  142.1050 C   0  0  0  0  0  3  0  0  0  0  0  0
  188.9060  177.9990  147.4790 C   0  0  1  0  0  3  0  0  0  0  0  0
  188.7320  178.2620  148.8400 O   0  0  0  0  0  1  0  0  0  0  0  0
  188.6740  177.3280  144.5080 C   0  0  0  0  0  3  0  0  0  0  0  0
  185.9980  178.9950  141.1580 C   0  0  0  0  0  3  0  0  0  0  0  0
  185.2040  178.4630  145.3650 C   0  0  0  0  0  0  0  0  0  0  0  0
  184.0800  178.6050  144.5110 N   0  0  0  0  0  0  0  0  0  0  0  0
  189.4200  176.5920  147.3100 C   0  0  0  0  0  2  0  0  0  0  0  0
  186.6500  178.5080  142.2270 C   0  0  0  0  0  3  0  0  0  0  0  0
  190.2580  176.5280  146.1680 O   0  0  0  0  0  0  0  0  0  0  0  0
  187.6190  178.1360  146.7180 C   0  0  0  0  0  0  0  0  0  0  0  0
  190.7940  176.4650  143.8150 N   0  0  0  0  0  2  0  0  0  0  0  0
  191.4500  178.8180  143.7380 C   0  0  0  0  0  1  0  0  0  0  0  0
  191.6660  177.4310  143.1550 C   0  0  2  0  0  3  0  0  0  0  0  0
  191.3970  177.4450  141.6880 C   0  0  0  0  0  0  0  0  0  0  0  0
  190.0580  177.3610  141.2170 N   0  0  0  0  0  1  0  0  0  0  0  0
  192.3460  177.5200  140.8610 O   0  0  0  0  0  0  0  0  0  0  0  0
  1  2  2  0  0  0  0
  1 14  1  0  0  0  0
  2 19  1  0  0  0  0
  3  7  1  0  0  0  0
  4 17  1  6  0  0  0
  4  8  1  0  0  0  0
  4  1  1  0  0  0  0
  5 18  1  0  0  0  0
  6 13  1  0  0  0  0
  6  9  2  0  0  0  0
  8 15  2  0  0  0  0
  9  8  1  0  0  0  0
 10 11  1  1  0  0  0
 12  5  2  0  0  0  0
 12  2  1  0  0  0  0
 13 17  2  0  0  0  0
 14  3  2  0  0  0  0
 15 14  1  0  0  0  0
 16 10  1  0  0  0  0
 18 16  1  0  0  0  0
 19  7  2  0  0  0  0
 19 10  1  0  0  0  0
 20  5  1  0  0  0  0
 22 21  1  1  0  0  0
 22 20  1  0  0  0  0
 23 22  1  0  0  0  0
 24 23  1  0  0  0  0
 25 23  2  0  0  0  0
M  END
>  <MODEL>
2

>  <REMARK>
 VINA RESULT:      -9.8      1.747      2.624
  Name = 
  3 active torsions:
  status: ('A' for Active; 'I' for Inactive)
    1  A    between atoms: C_2  and  C_25
    2  A    between atoms: C_6  and  N_15
    3  A    between atoms: N_15  and  C_25
                            x       y       z     vdW  Elec       q    Type
                         _______ _______ _______ _____ _____    ______ ____

>  <TORSDO>
F 3

$$$$
=
 OpenBabel10262419553D

 25 28  0  0  1  0  0  0  0  0999 V2000
  188.5460  177.6390  144.8340 C   0  0  0  0  0  0  0  0  0  0  0  0
  187.8350  177.8060  143.6380 C   0  0  0  0  0  0  0  0  0  0  0  0
  186.5390  177.7030  146.1720 C   0  0  0  0  0  3  0  0  0  0  0  0
  190.0140  177.5870  145.0820 C   0  0  1  0  0  3  0  0  0  0  0  0
  188.2840  178.2220  141.1340 C   0  0  0  0  0  0  0  0  0  0  0  0
  192.0080  176.0870  146.5230 C   0  0  0  0  0  3  0  0  0  0  0  0
  185.7920  177.8340  144.9940 C   0  0  0  0  0  3  0  0  0  0  0  0
  190.0120  177.4170  146.5780 C   0  0  0  0  0  0  0  0  0  0  0  0
  191.1880  176.8570  147.2500 C   0  0  0  0  0  3  0  0  0  0  0  0
  185.5680  178.0100  142.4930 C   0  0  1  0  0  3  0  0  0  0  0  0
  184.2180  178.1840  142.8100 O   0  0  0  0  0  1  0  0  0  0  0  0
  188.6160  177.8300  142.3780 C   0  0  0  0  0  3  0  0  0  0  0  0
  191.7000  175.7740  145.1020 C   0  0  0  0  0  3  0  0  0  0  0  0
  187.9200  177.6230  146.0580 C   0  0  0  0  0  0  0  0  0  0  0  0
  188.8370  177.4440  147.1260 N   0  0  0  0  0  0  0  0  0  0  0  0
  186.0430  179.1950  141.6920 C   0  0  0  0  0  2  0  0  0  0  0  0
  190.7280  176.4240  144.4400 C   0  0  0  0  0  3  0  0  0  0  0  0
  187.0480  178.7790  140.7820 O   0  0  0  0  0  0  0  0  0  0  0  0
  186.4170  177.8910  143.7250 C   0  0  0  0  0  0  0  0  0  0  0  0
  189.2470  178.0680  140.0840 N   0  0  0  0  0  2  0  0  0  0  0  0
  191.5620  177.4040  140.5010 C   0  0  0  0  0  1  0  0  0  0  0  0
  190.1980  176.9650  139.9930 C   0  0  2  0  0  3  0  0  0  0  0  0
  190.3050  176.4960  138.5800 C   0  0  0  0  0  0  0  0  0  0  0  0
  190.8930  175.2330  138.3000 N   0  0  0  0  0  1  0  0  0  0  0  0
  189.8880  177.2160  137.6320 O   0  0  0  0  0  0  0  0  0  0  0  0
  1  4  1  0  0  0  0
  1 14  1  0  0  0  0
  2 19  1  0  0  0  0
  2  1  2  0  0  0  0
  4 17  1  6  0  0  0
  4  8  1  0  0  0  0
  5 12  2  0  0  0  0
  6  9  2  0  0  0  0
  7  3  1  0  0  0  0
  8 15  2  0  0  0  0
  8  9  1  0  0  0  0
 10 11  1  1  0  0  0
 10 19  1  0  0  0  0
 12  2  1  0  0  0  0
 13  6  1  0  0  0  0
 14  3  2  0  0  0  0
 14 15  1  0  0  0  0
 16 10  1  0  0  0  0
 17 13  2  0  0  0  0
 18  5  1  0  0  0  0
 18 16  1  0  0  0  0
 19  7  2  0  0  0  0
 20  5  1  0  0  0  0
 22 20  1  0  0  0  0
 22 21  1  6  0  0  0
 23 22  1  0  0  0  0
 24 23  1  0  0  0  0
 25 23  2  0  0  0  0
M  END
>  <MODEL>
3

>  <REMARK>
 VINA RESULT:      -9.8      2.590      4.844
  Name = 
  3 active torsions:
  status: ('A' for Active; 'I' for Inactive)
    1  A    between atoms: C_2  and  C_25
    2  A    between atoms: C_6  and  N_15
    3  A    between atoms: N_15  and  C_25
                            x       y       z     vdW  Elec       q    Type
                         _______ _______ _______ _____ _____    ______ ____

>  <TORSDO>
F 3

$$$$
=
 OpenBabel10262419553D

 25 28  0  0  1  0  0  0  0  0999 V2000
  188.1050  177.7150  144.7280 C   0  0  0  0  0  0  0  0  0  0  0  0
  186.8670  178.1090  144.2030 C   0  0  0  0  0  0  0  0  0  0  0  0
  187.2690  177.6920  146.9910 C   0  0  0  0  0  3  0  0  0  0  0  0
  189.4230  177.5360  144.0560 C   0  0  1  0  0  3  0  0  0  0  0  0
  185.8440  178.8830  141.9670 C   0  0  0  0  0  0  0  0  0  0  0  0
  191.6470  175.7120  143.9000 C   0  0  0  0  0  3  0  0  0  0  0  0
  186.0080  178.0500  146.5000 C   0  0  0  0  0  3  0  0  0  0  0  0
  190.2590  177.1350  145.2420 C   0  0  0  0  0  0  0  0  0  0  0  0
  191.5150  176.4070  145.0370 C   0  0  0  0  0  3  0  0  0  0  0  0
  184.4110  178.6270  144.6410 C   0  0  1  0  0  3  0  0  0  0  0  0
  183.5310  178.8300  145.7070 O   0  0  0  0  0  1  0  0  0  0  0  0
  186.7730  178.2830  142.7340 C   0  0  0  0  0  3  0  0  0  0  0  0
  190.5360  175.6440  142.9140 C   0  0  0  0  0  3  0  0  0  0  0  0
  188.3040  177.5470  146.0780 C   0  0  0  0  0  0  0  0  0  0  0  0
  189.6330  177.1480  146.3770 N   0  0  0  0  0  0  0  0  0  0  0  0
  184.4980  179.8920  143.8250 C   0  0  0  0  0  2  0  0  0  0  0  0
  189.4640  176.4460  143.0140 C   0  0  0  0  0  3  0  0  0  0  0  0
  184.7240  179.5620  142.4650 O   0  0  0  0  0  0  0  0  0  0  0  0
  185.7870  178.2660  145.1180 C   0  0  0  0  0  0  0  0  0  0  0  0
  185.9930  178.8370  140.5420 N   0  0  0  0  0  2  0  0  0  0  0  0
  185.5660  178.0260  138.2760 C   0  0  0  0  0  1  0  0  0  0  0  0
  184.9550  178.3880  139.6200 C   0  0  2  0  0  3  0  0  0  0  0  0
  183.9290  179.4570  139.4440 C   0  0  0  0  0  0  0  0  0  0  0  0
  182.5780  179.2020  139.8050 N   0  0  0  0  0  1  0  0  0  0  0  0
  184.2480  180.5800  138.9690 O   0  0  0  0  0  0  0  0  0  0  0  0
  1 14  1  0  0  0  0
  2  1  2  0  0  0  0
  2 19  1  0  0  0  0
  4 17  1  6  0  0  0
  4  1  1  0  0  0  0
  4  8  1  0  0  0  0
  5 18  1  0  0  0  0
  5 12  2  0  0  0  0
  6  9  2  0  0  0  0
  7  3  1  0  0  0  0
  8 15  2  0  0  0  0
  9  8  1  0  0  0  0
 10 19  1  0  0  0  0
 10 11  1  1  0  0  0
 12  2  1  0  0  0  0
 13 17  2  0  0  0  0
 13  6  1  0  0  0  0
 14 15  1  0  0  0  0
 14  3  2  0  0  0  0
 16 10  1  0  0  0  0
 18 16  1  0  0  0  0
 19  7  2  0  0  0  0
 20  5  1  0  0  0  0
 22 21  1  6  0  0  0
 22 20  1  0  0  0  0
 23 22  1  0  0  0  0
 23 24  1  0  0  0  0
 25 23  2  0  0  0  0
M  END
>  <MODEL>
4

>  <REMARK>
 VINA RESULT:      -9.7      3.887      5.896
  Name = 
  3 active torsions:
  status: ('A' for Active; 'I' for Inactive)
    1  A    between atoms: C_2  and  C_25
    2  A    between atoms: C_6  and  N_15
    3  A    between atoms: N_15  and  C_25
                            x       y       z     vdW  Elec       q    Type
                         _______ _______ _______ _____ _____    ______ ____

>  <TORSDO>
F 3

$$$$
=
 OpenBabel10262419553D

 25 28  0  0  1  0  0  0  0  0999 V2000
  187.2680  177.8070  145.0460 C   0  0  0  0  0  0  0  0  0  0  0  0
  188.5240  177.5720  144.4710 C   0  0  0  0  0  0  0  0  0  0  0  0
  188.1680  177.8390  147.2840 C   0  0  0  0  0  3  0  0  0  0  0  0
  185.9180  177.8650  144.4180 C   0  0  1  0  0  3  0  0  0  0  0  0
  189.5540  176.9990  142.1780 C   0  0  0  0  0  0  0  0  0  0  0  0
  183.5040  179.4370  144.3960 C   0  0  0  0  0  3  0  0  0  0  0  0
  189.4450  177.6400  146.7440 C   0  0  0  0  0  3  0  0  0  0  0  0
  185.0810  178.1270  145.6420 C   0  0  0  0  0  0  0  0  0  0  0  0
  183.7480  178.7190  145.5000 C   0  0  0  0  0  3  0  0  0  0  0  0
  191.0350  177.3120  144.8200 C   0  0  1  0  0  3  0  0  0  0  0  0
  191.9650  177.1670  145.8530 O   0  0  0  0  0  1  0  0  0  0  0  0
  188.5900  177.4640  142.9940 C   0  0  0  0  0  3  0  0  0  0  0  0
  184.5690  179.6640  143.3830 C   0  0  0  0  0  3  0  0  0  0  0  0
  187.0950  177.9030  146.4060 C   0  0  0  0  0  0  0  0  0  0  0  0
  185.7410  178.1410  146.7570 N   0  0  0  0  0  0  0  0  0  0  0  0
  191.0610  176.0770  143.9560 C   0  0  0  0  0  2  0  0  0  0  0  0
  185.7250  178.9810  143.4220 C   0  0  0  0  0  3  0  0  0  0  0  0
  190.7570  176.4300  142.6170 O   0  0  0  0  0  0  0  0  0  0  0  0
  189.6430  177.5010  145.3480 C   0  0  0  0  0  0  0  0  0  0  0  0
  189.3560  177.0820  140.7610 N   0  0  0  0  0  2  0  0  0  0  0  0
  187.3440  178.2720  140.0490 C   0  0  0  0  0  1  0  0  0  0  0  0
  188.8640  178.2660  140.0650 C   0  0  2  0  0  3  0  0  0  0  0  0
  189.3910  178.2960  138.6700 C   0  0  0  0  0  0  0  0  0  0  0  0
  188.9620  179.3160  137.7770 N   0  0  0  0  0  1  0  0  0  0  0  0
  190.2050  177.4190  138.2720 O   0  0  0  0  0  0  0  0  0  0  0  0
  1 14  1  0  0  0  0
  2  1  2  0  0  0  0
  2 19  1  0  0  0  0
  4 17  1  6  0  0  0
  4  1  1  0  0  0  0
  4  8  1  0  0  0  0
  5 18  1  0  0  0  0
  5 12  2  0  0  0  0
  6  9  2  0  0  0  0
  7  3  1  0  0  0  0
  8 15  2  0  0  0  0
  9  8  1  0  0  0  0
 10 19  1  0  0  0  0
 10 11  1  1  0  0  0
 12  2  1  0  0  0  0
 13 17  2  0  0  0  0
 13  6  1  0  0  0  0
 14 15  1  0  0  0  0
 14  3  2  0  0  0  0
 16 10  1  0  0  0  0
 18 16  1  0  0  0  0
 19  7  2  0  0  0  0
 20  5  1  0  0  0  0
 22 21  1  6  0  0  0
 22 20  1  0  0  0  0
 23 22  1  0  0  0  0
 24 23  1  0  0  0  0
 25 23  2  0  0  0  0
M  END
>  <MODEL>
5

>  <REMARK>
 VINA RESULT:      -9.7      1.382      1.494
  Name = 
  3 active torsions:
  status: ('A' for Active; 'I' for Inactive)
    1  A    between atoms: C_2  and  C_25
    2  A    between atoms: C_6  and  N_15
    3  A    between atoms: N_15  and  C_25
                            x       y       z     vdW  Elec       q    Type
                         _______ _______ _______ _____ _____    ______ ____

>  <TORSDO>
F 3

$$$$
=
 OpenBabel10262419553D

 25 28  0  0  1  0  0  0  0  0999 V2000
  188.3400  177.6960  144.5840 C   0  0  0  0  0  0  0  0  0  0  0  0
  187.4930  177.9340  143.4930 C   0  0  0  0  0  0  0  0  0  0  0  0
  186.5010  177.6260  146.1450 C   0  0  0  0  0  3  0  0  0  0  0  0
  189.8270  177.6550  144.6570 C   0  0  1  0  0  3  0  0  0  0  0  0
  187.6420  178.5350  140.9910 C   0  0  0  0  0  0  0  0  0  0  0  0
  191.9910  176.0960  145.7450 C   0  0  0  0  0  3  0  0  0  0  0  0
  185.6210  177.8260  145.0750 C   0  0  0  0  0  3  0  0  0  0  0  0
  190.0010  177.3790  146.1270 C   0  0  0  0  0  0  0  0  0  0  0  0
  191.2530  176.7960  146.6160 C   0  0  0  0  0  3  0  0  0  0  0  0
  185.1050  178.1750  142.6350 C   0  0  1  0  0  3  0  0  0  0  0  0
  183.8000  178.2990  143.1170 O   0  0  0  0  0  1  0  0  0  0  0  0
  188.1210  178.0630  142.1570 C   0  0  0  0  0  3  0  0  0  0  0  0
  191.5240  175.8790  144.3510 C   0  0  0  0  0  3  0  0  0  0  0  0
  187.8610  177.5810  145.8670 C   0  0  0  0  0  0  0  0  0  0  0  0
  188.8980  177.3450  146.8060 N   0  0  0  0  0  0  0  0  0  0  0  0
  185.4700  179.4230  141.8730 C   0  0  0  0  0  2  0  0  0  0  0  0
  190.4740  176.5550  143.8540 C   0  0  0  0  0  3  0  0  0  0  0  0
  186.3670  179.0910  140.8250 O   0  0  0  0  0  0  0  0  0  0  0  0
  186.0930  177.9850  143.7490 C   0  0  0  0  0  0  0  0  0  0  0  0
  188.4780  178.4750  139.8280 N   0  0  0  0  0  2  0  0  0  0  0  0
  189.8650  177.1930  138.2770 C   0  0  0  0  0  1  0  0  0  0  0  0
  188.4770  177.3760  138.8690 C   0  0  2  0  0  3  0  0  0  0  0  0
  187.4890  177.6450  137.7830 C   0  0  0  0  0  0  0  0  0  0  0  0
  186.8880  176.5580  137.0920 N   0  0  0  0  0  1  0  0  0  0  0  0
  187.1910  178.8290  137.4660 O   0  0  0  0  0  0  0  0  0  0  0  0
  1  4  1  0  0  0  0
  1 14  1  0  0  0  0
  2 19  1  0  0  0  0
  2  1  2  0  0  0  0
  4 17  1  6  0  0  0
  4  8  1  0  0  0  0
  5 12  2  0  0  0  0
  6  9  2  0  0  0  0
  7  3  1  0  0  0  0
  8  9  1  0  0  0  0
  8 15  2  0  0  0  0
 10 11  1  1  0  0  0
 10 19  1  0  0  0  0
 12  2  1  0  0  0  0
 13  6  1  0  0  0  0
 14  3  2  0  0  0  0
 14 15  1  0  0  0  0
 16 10  1  0  0  0  0
 17 13  2  0  0  0  0
 18  5  1  0  0  0  0
 18 16  1  0  0  0  0
 19  7  2  0  0  0  0
 20  5  1  0  0  0  0
 22 21  1  6  0  0  0
 22 20  1  0  0  0  0
 23 22  1  0  0  0  0
 24 23  1  0  0  0  0
 25 23  2  0  0  0  0
M  END
>  <MODEL>
6

>  <REMARK>
 VINA RESULT:      -9.5      3.041      5.201
  Name = 
  3 active torsions:
  status: ('A' for Active; 'I' for Inactive)
    1  A    between atoms: C_2  and  C_25
    2  A    between atoms: C_6  and  N_15
    3  A    between atoms: N_15  and  C_25
                            x       y       z     vdW  Elec       q    Type
                         _______ _______ _______ _____ _____    ______ ____

>  <TORSDO>
F 3

$$$$
=
 OpenBabel10262419553D

 25 28  0  0  1  0  0  0  0  0999 V2000
  185.8670  178.5050  144.7640 C   0  0  0  0  0  0  0  0  0  0  0  0
  185.7270  178.4070  143.3730 C   0  0  0  0  0  0  0  0  0  0  0  0
  183.4850  178.6730  145.1090 C   0  0  0  0  0  3  0  0  0  0  0  0
  187.0940  178.5970  145.6040 C   0  0  1  0  0  3  0  0  0  0  0  0
  187.1920  178.3970  141.2520 C   0  0  0  0  0  0  0  0  0  0  0  0
  188.2770  177.5180  147.9990 C   0  0  0  0  0  3  0  0  0  0  0  0
  183.3030  178.5400  143.7270 C   0  0  0  0  0  3  0  0  0  0  0  0
  186.4610  178.6980  146.9660 C   0  0  0  0  0  0  0  0  0  0  0  0
  187.2380  178.3490  148.1590 C   0  0  0  0  0  3  0  0  0  0  0  0
  184.1540  178.2490  141.3750 C   0  0  1  0  0  3  0  0  0  0  0  0
  182.7980  178.3860  141.0640 O   0  0  0  0  0  1  0  0  0  0  0  0
  186.9650  178.2580  142.5720 C   0  0  0  0  0  3  0  0  0  0  0  0
  188.5890  176.9350  146.6670 C   0  0  0  0  0  3  0  0  0  0  0  0
  184.7850  178.6670  145.5960 C   0  0  0  0  0  0  0  0  0  0  0  0
  185.1660  178.7440  146.9610 N   0  0  0  0  0  0  0  0  0  0  0  0
  184.9380  179.3010  140.6330 C   0  0  0  0  0  2  0  0  0  0  0  0
  187.9950  177.3890  145.5500 C   0  0  0  0  0  3  0  0  0  0  0  0
  186.2260  178.7970  140.3200 O   0  0  0  0  0  0  0  0  0  0  0  0
  184.4050  178.4100  142.8460 C   0  0  0  0  0  0  0  0  0  0  0  0
  188.5050  178.1230  140.7470 N   0  0  0  0  0  2  0  0  0  0  0  0
  190.0630  177.8370  142.6080 C   0  0  0  0  0  1  0  0  0  0  0  0
  189.4520  177.2030  141.3690 C   0  0  2  0  0  3  0  0  0  0  0  0
  190.5250  176.8400  140.3980 C   0  0  0  0  0  0  0  0  0  0  0  0
  191.7910  177.4820  140.4750 N   0  0  0  0  0  1  0  0  0  0  0  0
  190.3160  175.9760  139.5040 O   0  0  0  0  0  0  0  0  0  0  0  0
  1 14  1  0  0  0  0
  1  4  1  0  0  0  0
  2  1  2  0  0  0  0
  3 14  2  0  0  0  0
  4 17  1  1  0  0  0
  4  8  1  0  0  0  0
  5 12  2  0  0  0  0
  6  9  2  0  0  0  0
  7  3  1  0  0  0  0
  8  9  1  0  0  0  0
 10 11  1  1  0  0  0
 10 19  1  0  0  0  0
 12  2  1  0  0  0  0
 13  6  1  0  0  0  0
 14 15  1  0  0  0  0
 15  8  2  0  0  0  0
 16 10  1  0  0  0  0
 17 13  2  0  0  0  0
 18 16  1  0  0  0  0
 18  5  1  0  0  0  0
 19  2  1  0  0  0  0
 19  7  2  0  0  0  0
 20  5  1  0  0  0  0
 20 22  1  0  0  0  0
 22 21  1  1  0  0  0
 23 24  1  0  0  0  0
 23 22  1  0  0  0  0
 25 23  2  0  0  0  0
M  END
>  <MODEL>
7

>  <REMARK>
 VINA RESULT:      -9.4      2.705      5.002
  Name = 
  3 active torsions:
  status: ('A' for Active; 'I' for Inactive)
    1  A    between atoms: C_2  and  C_25
    2  A    between atoms: C_6  and  N_15
    3  A    between atoms: N_15  and  C_25
                            x       y       z     vdW  Elec       q    Type
                         _______ _______ _______ _____ _____    ______ ____

>  <TORSDO>
F 3

$$$$
=
 OpenBabel10262419553D

 25 28  0  0  1  0  0  0  0  0999 V2000
  185.9800  178.4750  144.8790 C   0  0  0  0  0  0  0  0  0  0  0  0
  185.8090  178.4060  143.4890 C   0  0  0  0  0  0  0  0  0  0  0  0
  183.6070  178.6450  145.2800 C   0  0  0  0  0  3  0  0  0  0  0  0
  187.2260  178.5440  145.6930 C   0  0  1  0  0  3  0  0  0  0  0  0
  187.2270  178.4340  141.3370 C   0  0  0  0  0  0  0  0  0  0  0  0
  188.4560  177.4100  148.0380 C   0  0  0  0  0  3  0  0  0  0  0  0
  183.3940  178.5420  143.8990 C   0  0  0  0  0  3  0  0  0  0  0  0
  186.6240  178.6200  147.0700 C   0  0  0  0  0  0  0  0  0  0  0  0
  187.4250  178.2420  148.2380 C   0  0  0  0  0  3  0  0  0  0  0  0
  184.1910  178.2970  141.5240 C   0  0  1  0  0  3  0  0  0  0  0  0
  182.8300  178.4450  141.2460 O   0  0  0  0  0  1  0  0  0  0  0  0
  187.0280  178.2690  142.6580 C   0  0  0  0  0  3  0  0  0  0  0  0
  188.7360  176.8540  146.6880 C   0  0  0  0  0  3  0  0  0  0  0  0
  184.9170  178.6240  145.7380 C   0  0  0  0  0  0  0  0  0  0  0  0
  185.3290  178.6710  147.0950 N   0  0  0  0  0  0  0  0  0  0  0  0
  184.9640  179.3610  140.7860 C   0  0  0  0  0  2  0  0  0  0  0  0
  188.1200  177.3340  145.5940 C   0  0  0  0  0  3  0  0  0  0  0  0
  186.2420  178.8580  140.4340 O   0  0  0  0  0  0  0  0  0  0  0  0
  184.4750  178.4260  142.9920 C   0  0  0  0  0  0  0  0  0  0  0  0
  188.5270  178.1650  140.7970 N   0  0  0  0  0  2  0  0  0  0  0  0
  190.1760  176.7830  139.6370 C   0  0  0  0  0  1  0  0  0  0  0  0
  188.7720  177.3650  139.6010 C   0  0  2  0  0  3  0  0  0  0  0  0
  188.5980  178.2050  138.3790 C   0  0  0  0  0  0  0  0  0  0  0  0
  187.9170  177.6720  137.2510 N   0  0  0  0  0  1  0  0  0  0  0  0
  189.0580  179.3780  138.3360 O   0  0  0  0  0  0  0  0  0  0  0  0
  1  4  1  0  0  0  0
  1 14  1  0  0  0  0
  2  1  2  0  0  0  0
  3 14  2  0  0  0  0
  4 17  1  1  0  0  0
  4  8  1  0  0  0  0
  5 12  2  0  0  0  0
  6  9  2  0  0  0  0
  7  3  1  0  0  0  0
  8 15  2  0  0  0  0
  8  9  1  0  0  0  0
 10 11  1  1  0  0  0
 10 19  1  0  0  0  0
 12  2  1  0  0  0  0
 13  6  1  0  0  0  0
 14 15  1  0  0  0  0
 16 10  1  0  0  0  0
 17 13  2  0  0  0  0
 18 16  1  0  0  0  0
 18  5  1  0  0  0  0
 19  2  1  0  0  0  0
 19  7  2  0  0  0  0
 20  5  1  0  0  0  0
 22 21  1  1  0  0  0
 22 20  1  0  0  0  0
 23 22  1  0  0  0  0
 24 23  1  0  0  0  0
 25 23  2  0  0  0  0
M  END
>  <MODEL>
8

>  <REMARK>
 VINA RESULT:      -9.4      2.929      5.079
  Name = 
  3 active torsions:
  status: ('A' for Active; 'I' for Inactive)
    1  A    between atoms: C_2  and  C_25
    2  A    between atoms: C_6  and  N_15
    3  A    between atoms: N_15  and  C_25
                            x       y       z     vdW  Elec       q    Type
                         _______ _______ _______ _____ _____    ______ ____

>  <TORSDO>
F 3

$$$$
=
 OpenBabel10262419553D

 25 28  0  0  1  0  0  0  0  0999 V2000
  184.9950  178.7320  143.9000 C   0  0  0  0  0  0  0  0  0  0  0  0
  184.9750  178.6090  142.5040 C   0  0  0  0  0  0  0  0  0  0  0  0
  182.5870  178.7200  144.0510 C   0  0  0  0  0  3  0  0  0  0  0  0
  186.1400  178.9270  144.8330 C   0  0  1  0  0  3  0  0  0  0  0  0
  186.6040  178.6890  140.5070 C   0  0  0  0  0  0  0  0  0  0  0  0
  187.2030  177.9660  147.3320 C   0  0  0  0  0  3  0  0  0  0  0  0
  182.5280  178.5600  142.6610 C   0  0  0  0  0  3  0  0  0  0  0  0
  185.3930  178.9930  146.1390 C   0  0  0  0  0  0  0  0  0  0  0  0
  186.0950  178.7160  147.3960 C   0  0  0  0  0  3  0  0  0  0  0  0
  183.5850  178.3110  140.3900 C   0  0  1  0  0  3  0  0  0  0  0  0
  182.2530  178.3400  139.9690 O   0  0  0  0  0  1  0  0  0  0  0  0
  186.2810  178.5470  141.8070 C   0  0  0  0  0  3  0  0  0  0  0  0
  187.6650  177.3950  146.0400 C   0  0  0  0  0  3  0  0  0  0  0  0
  183.8400  178.8190  144.6400 C   0  0  0  0  0  0  0  0  0  0  0  0
  184.1030  178.9390  146.0300 N   0  0  0  0  0  0  0  0  0  0  0  0
  184.3450  179.4120  139.6950 C   0  0  0  0  0  2  0  0  0  0  0  0
  187.1310  177.7910  144.8720 C   0  0  0  0  0  3  0  0  0  0  0  0
  185.6890  179.0040  139.4940 O   0  0  0  0  0  0  0  0  0  0  0  0
  183.7030  178.5060  141.8730 C   0  0  0  0  0  0  0  0  0  0  0  0
  187.9700  178.5110  140.1130 N   0  0  0  0  0  2  0  0  0  0  0  0
  189.5970  176.7780  139.5450 C   0  0  0  0  0  1  0  0  0  0  0  0
  188.4120  177.5980  139.0630 C   0  0  2  0  0  3  0  0  0  0  0  0
  188.7860  178.3680  137.8400 C   0  0  0  0  0  0  0  0  0  0  0  0
  189.0550  177.6750  136.6280 N   0  0  0  0  0  1  0  0  0  0  0  0
  188.8750  179.6250  137.8750 O   0  0  0  0  0  0  0  0  0  0  0  0
  1 14  1  0  0  0  0
  1  4  1  0  0  0  0
  2  1  2  0  0  0  0
  3 14  2  0  0  0  0
  4 17  1  1  0  0  0
  4  8  1  0  0  0  0
  5 12  2  0  0  0  0
  6  9  2  0  0  0  0
  7  3  1  0  0  0  0
  8  9  1  0  0  0  0
 10 11  1  6  0  0  0
 10 19  1  0  0  0  0
 12  2  1  0  0  0  0
 13  6  1  0  0  0  0
 14 15  1  0  0  0  0
 15  8  2  0  0  0  0
 16 10  1  0  0  0  0
 17 13  2  0  0  0  0
 18 16  1  0  0  0  0
 18  5  1  0  0  0  0
 19  2  1  0  0  0  0
 19  7  2  0  0  0  0
 20  5  1  0  0  0  0
 22 21  1  1  0  0  0
 22 20  1  0  0  0  0
 23 25  2  0  0  0  0
 23 22  1  0  0  0  0
 24 23  1  0  0  0  0
M  END
>  <MODEL>
9

>  <REMARK>
 VINA RESULT:      -9.3      3.383      5.631
  Name = 
  3 active torsions:
  status: ('A' for Active; 'I' for Inactive)
    1  A    between atoms: C_2  and  C_25
    2  A    between atoms: C_6  and  N_15
    3  A    between atoms: N_15  and  C_25
                            x       y       z     vdW  Elec       q    Type
                         _______ _______ _______ _____ _____    ______ ____

>  <TORSDO>
F 3

$$$$
