=
 OpenBabel10262421363D

 32 36  0  0  1  0  0  0  0  0999 V2000
  186.0910  178.2410  145.1150 C   0  0  0  0  0  0  0  0  0  0  0  0
  182.5970  177.8210  141.4140 C   0  0  2  0  0  3  0  0  0  0  0  0
  182.6800  177.1370  138.9200 C   0  0  0  0  0  0  0  0  0  0  0  0
  182.4920  177.7260  137.6020 C   0  0  0  0  0  0  0  0  0  0  0  0
  184.8080  178.4980  142.5370 C   0  0  1  0  0  3  0  0  0  0  0  0
  182.5780  178.9050  143.7030 C   0  0  0  0  0  2  0  0  0  0  0  0
  181.4840  178.9470  136.0700 N   0  0  0  0  0  0  0  0  0  0  0  0
  184.6900  178.7710  145.0540 C   0  0  0  0  0  2  0  0  0  0  0  0
  182.0770  179.0030  142.2540 C   0  0  2  0  0  3  0  0  0  0  0  0
  180.5550  179.1640  142.1910 C   0  0  2  0  0  3  0  0  0  0  0  0
  181.0830  178.9100  139.7540 N   0  0  2  0  0  0  0  0  0  0  0  0
  182.4950  178.2800  135.4750 C   0  0  0  0  0  3  0  0  0  0  0  0
  186.6100  177.3810  143.9970 C   0  0  0  0  0  2  0  0  0  0  0  0
  183.9680  178.2620  143.8090 C   0  0  2  0  0  3  0  0  0  0  0  0
  183.1590  177.4890  136.4130 C   0  0  0  0  0  3  0  0  0  0  0  0
  186.2560  177.9900  142.6380 C   0  0  0  0  0  2  0  0  0  0  0  0
  186.8380  178.5190  146.1800 C   0  0  0  0  0  3  0  0  0  0  0  0
  180.0100  179.0960  140.7520 C   0  0  1  0  0  3  0  0  0  0  0  0
  180.4810  178.9530  138.4060 C   0  0  0  0  0  2  0  0  0  0  0  0
  184.1290  177.9280  141.2820 C   0  0  0  0  0  2  0  0  0  0  0  0
  183.4550  176.1550  139.0770 O   0  0  0  0  0  0  0  0  0  0  0  0
  180.5390  179.8280  135.4060 C   0  0  0  0  0  1  0  0  0  0  0  0
  181.8330  177.6620  140.0710 C   0  0  2  0  0  3  0  0  0  0  0  0
  181.4970  178.6150  137.3670 C   0  0  0  0  0  0  0  0  0  0  0  0
  188.6970  177.5760  147.5550 C   0  0  0  0  0  0  0  0  0  0  0  0
  188.1750  178.0320  146.3070 N   0  0  0  0  0  2  0  0  0  0  0  0
  190.0040  177.1120  147.6240 O   0  0  0  0  0  0  0  0  0  0  0  0
  187.9860  177.5900  148.5950 O   0  0  0  0  0  1  0  0  0  0  0  0
  179.0420  180.1560  143.6700 C   0  0  0  0  0  1  0  0  0  0  0  0
  180.1650  180.4300  142.7900 N   0  0  0  0  0  2  0  0  0  0  0  0
  179.0020  177.1750  141.7810 O   0  0  0  0  0  1  0  0  0  0  0  0
  178.9310  178.0100  140.6650 C   0  0  0  0  0  2  0  0  0  0  0  0
  1 17  2  0  0  0  0
  2 20  1  6  0  0  0
  2  9  1  0  0  0  0
  3 21  2  0  0  0  0
  4  3  1  0  0  0  0
  5 20  1  6  0  0  0
  5 16  1  0  0  0  0
  5 14  1  0  0  0  0
  7 24  1  0  0  0  0
  8  1  1  0  0  0  0
  9  6  1  1  0  0  0
 10  9  1  0  0  0  0
 10 30  1  6  0  0  0
 11 19  1  6  0  0  0
 11 23  1  0  0  0  0
 11 18  1  0  0  0  0
 12  7  1  0  0  0  0
 12 15  2  0  0  0  0
 13  1  1  0  0  0  0
 14  6  1  6  0  0  0
 14  8  1  0  0  0  0
 15  4  1  0  0  0  0
 16 13  1  0  0  0  0
 17 26  1  0  0  0  0
 18 32  1  1  0  0  0
 18 10  1  0  0  0  0
 22  7  1  0  0  0  0
 23  3  1  6  0  0  0
 23  2  1  0  0  0  0
 24  4  2  0  0  0  0
 24 19  1  0  0  0  0
 25 27  2  0  0  0  0
 25 28  1  0  0  0  0
 26 25  1  0  0  0  0
 30 29  1  0  0  0  0
 32 31  1  0  0  0  0
M  END
>  <MODEL>
1

>  <REMARK>
 VINA RESULT:      -8.1      0.000      0.000
  Name = 
  3 active torsions:
  status: ('A' for Active; 'I' for Inactive)
    1  A    between atoms: N_10  and  C_24
    2  A    between atoms: N_13  and  C_15
    3  A    between atoms: C_25  and  C_26
                            x       y       z     vdW  Elec       q    Type
                         _______ _______ _______ _____ _____    ______ ____

>  <TORSDO>
F 3

$$$$
=
 OpenBabel10262421363D

 32 36  0  0  1  0  0  0  0  0999 V2000
  190.8210  177.0510  144.4910 C   0  0  0  0  0  0  0  0  0  0  0  0
  187.7740  178.2520  140.5720 C   0  0  2  0  0  3  0  0  0  0  0  0
  185.2900  178.9430  140.3610 C   0  0  0  0  0  0  0  0  0  0  0  0
  184.0370  178.4270  139.8280 C   0  0  0  0  0  0  0  0  0  0  0  0
  188.5110  177.1090  142.7540 C   0  0  1  0  0  3  0  0  0  0  0  0
  190.0550  177.1600  140.7260 C   0  0  0  0  0  2  0  0  0  0  0  0
  182.7300  177.4670  138.3360 N   0  0  0  0  0  0  0  0  0  0  0  0
  191.0160  176.8280  143.0220 C   0  0  0  0  0  2  0  0  0  0  0  0
  188.7170  177.1920  139.9710 C   0  0  2  0  0  3  0  0  0  0  0  0
  188.9220  177.3540  138.4620 C   0  0  2  0  0  3  0  0  0  0  0  0
  186.4250  177.5300  138.5990 N   0  0  2  0  0  0  0  0  0  0  0  0
  181.9540  177.9170  139.3450 C   0  0  0  0  0  3  0  0  0  0  0  0
  189.6130  177.8000  144.9760 C   0  0  0  0  0  2  0  0  0  0  0  0
  189.9040  177.4960  142.2160 C   0  0  2  0  0  3  0  0  0  0  0  0
  182.7460  178.5370  140.3120 C   0  0  0  0  0  3  0  0  0  0  0  0
  188.3480  177.3010  144.2710 C   0  0  0  0  0  2  0  0  0  0  0  0
  191.7470  176.6060  145.3370 C   0  0  0  0  0  3  0  0  0  0  0  0
  187.5980  177.5580  137.7010 C   0  0  1  0  0  3  0  0  0  0  0  0
  185.2040  177.6360  137.7770 C   0  0  0  0  0  2  0  0  0  0  0  0
  187.3810  177.8280  142.0020 C   0  0  0  0  0  2  0  0  0  0  0  0
  185.2890  179.7370  141.3400 O   0  0  0  0  0  0  0  0  0  0  0  0
  182.2580  176.8150  137.1270 C   0  0  0  0  0  1  0  0  0  0  0  0
  186.5810  178.5880  139.6370 C   0  0  2  0  0  3  0  0  0  0  0  0
  183.9980  177.7690  138.6440 C   0  0  0  0  0  0  0  0  0  0  0  0
  192.4430  176.0880  147.6790 C   0  0  0  0  0  0  0  0  0  0  0  0
  191.6300  176.8000  146.7480 N   0  0  0  0  0  2  0  0  0  0  0  0
  192.2890  176.3150  149.0390 O   0  0  0  0  0  1  0  0  0  0  0  0
  193.3000  175.2550  147.2790 O   0  0  0  0  0  0  0  0  0  0  0  0
  190.7550  176.6750  137.1820 C   0  0  0  0  0  1  0  0  0  0  0  0
  189.6070  176.1880  137.9260 N   0  0  0  0  0  2  0  0  0  0  0  0
  188.7920  179.5930  137.2560 O   0  0  0  0  0  1  0  0  0  0  0  0
  187.6770  178.8460  136.8740 C   0  0  0  0  0  2  0  0  0  0  0  0
  1 13  1  0  0  0  0
  1 17  2  0  0  0  0
  2 20  1  1  0  0  0
  3 21  2  0  0  0  0
  4 15  1  0  0  0  0
  4  3  1  0  0  0  0
  5 20  1  6  0  0  0
  5 16  1  0  0  0  0
  7 24  1  0  0  0  0
  7 12  1  0  0  0  0
  8  1  1  0  0  0  0
  9  2  1  0  0  0  0
  9  6  1  1  0  0  0
 10 30  1  6  0  0  0
 10  9  1  0  0  0  0
 11 19  1  6  0  0  0
 11 23  1  0  0  0  0
 12 15  2  0  0  0  0
 14  6  1  6  0  0  0
 14  5  1  0  0  0  0
 14  8  1  0  0  0  0
 16 13  1  0  0  0  0
 17 26  1  0  0  0  0
 18 32  1  1  0  0  0
 18 10  1  0  0  0  0
 18 11  1  0  0  0  0
 19 24  1  0  0  0  0
 22  7  1  0  0  0  0
 23  3  1  1  0  0  0
 23  2  1  0  0  0  0
 24  4  2  0  0  0  0
 25 27  1  0  0  0  0
 26 25  1  0  0  0  0
 28 25  2  0  0  0  0
 29 30  1  0  0  0  0
 32 31  1  0  0  0  0
M  END
>  <MODEL>
2

>  <REMARK>
 VINA RESULT:      -8.0      3.948      6.331
  Name = 
  3 active torsions:
  status: ('A' for Active; 'I' for Inactive)
    1  A    between atoms: N_10  and  C_24
    2  A    between atoms: N_13  and  C_15
    3  A    between atoms: C_25  and  C_26
                            x       y       z     vdW  Elec       q    Type
                         _______ _______ _______ _____ _____    ______ ____

>  <TORSDO>
F 3

$$$$
=
 OpenBabel10262421363D

 32 36  0  0  1  0  0  0  0  0999 V2000
  188.7030  177.1570  145.6620 C   0  0  0  0  0  0  0  0  0  0  0  0
  187.6170  178.2360  140.7890 C   0  0  2  0  0  3  0  0  0  0  0  0
  185.4490  178.8380  139.5120 C   0  0  0  0  0  0  0  0  0  0  0  0
  184.5660  178.2770  138.4990 C   0  0  0  0  0  0  0  0  0  0  0  0
  187.3710  177.1280  143.0950 C   0  0  1  0  0  3  0  0  0  0  0  0
  189.6380  177.2260  141.9340 C   0  0  0  0  0  2  0  0  0  0  0  0
  184.0630  177.2670  136.6060 N   0  0  0  0  0  0  0  0  0  0  0  0
  189.5210  176.9350  144.4250 C   0  0  0  0  0  2  0  0  0  0  0  0
  188.7580  177.2080  140.6740 C   0  0  2  0  0  3  0  0  0  0  0  0
  189.5910  177.3720  139.3990 C   0  0  2  0  0  3  0  0  0  0  0  0
  187.2780  177.4610  138.4400 N   0  0  2  0  0  0  0  0  0  0  0  0
  182.9140  177.6930  137.1720 C   0  0  0  0  0  3  0  0  0  0  0  0
  187.3810  177.8650  145.5620 C   0  0  0  0  0  2  0  0  0  0  0  0
  188.8470  177.5620  143.2060 C   0  0  2  0  0  3  0  0  0  0  0  0
  183.1900  178.3440  138.3750 C   0  0  0  0  0  3  0  0  0  0  0  0
  186.5620  177.3190  144.3890 C   0  0  0  0  0  2  0  0  0  0  0  0
  189.1840  176.7470  146.8320 C   0  0  0  0  0  3  0  0  0  0  0  0
  188.7220  177.5260  138.1370 C   0  0  1  0  0  3  0  0  0  0  0  0
  186.5290  177.5200  137.1690 C   0  0  0  0  0  2  0  0  0  0  0  0
  186.6570  177.8040  141.9150 C   0  0  0  0  0  2  0  0  0  0  0  0
  185.0010  179.6360  140.3790 O   0  0  0  0  0  0  0  0  0  0  0  0
  184.1810  176.5950  135.3250 C   0  0  0  0  0  1  0  0  0  0  0  0
  186.9360  178.5270  139.4240 C   0  0  2  0  0  3  0  0  0  0  0  0
  185.0630  177.6150  137.4270 C   0  0  0  0  0  0  0  0  0  0  0  0
  188.6070  178.1270  148.8320 C   0  0  0  0  0  0  0  0  0  0  0  0
  188.4620  176.9420  148.0500 N   0  0  0  0  0  2  0  0  0  0  0  0
  187.8830  178.2660  150.0080 O   0  0  0  0  0  1  0  0  0  0  0  0
  189.3860  179.0480  148.4680 O   0  0  0  0  0  0  0  0  0  0  0  0
  191.7780  176.7510  138.8580 C   0  0  0  0  0  1  0  0  0  0  0  0
  190.4750  176.2290  139.2340 N   0  0  0  0  0  2  0  0  0  0  0  0
  189.5190  178.5170  136.1010 O   0  0  0  0  0  1  0  0  0  0  0  0
  189.1110  178.8140  137.4020 C   0  0  0  0  0  2  0  0  0  0  0  0
  1 17  2  0  0  0  0
  2 20  1  1  0  0  0
  3 21  2  0  0  0  0
  4  3  1  0  0  0  0
  5 20  1  6  0  0  0
  5 14  1  0  0  0  0
  5 16  1  0  0  0  0
  7 12  1  0  0  0  0
  7 24  1  0  0  0  0
  8  1  1  0  0  0  0
  9  2  1  0  0  0  0
  9  6  1  1  0  0  0
 10 30  1  6  0  0  0
 10  9  1  0  0  0  0
 11 19  1  6  0  0  0
 11 23  1  0  0  0  0
 12 15  2  0  0  0  0
 13  1  1  0  0  0  0
 14  6  1  6  0  0  0
 14  8  1  0  0  0  0
 15  4  1  0  0  0  0
 16 13  1  0  0  0  0
 17 26  1  0  0  0  0
 18 32  1  1  0  0  0
 18 11  1  0  0  0  0
 18 10  1  0  0  0  0
 19 24  1  0  0  0  0
 22  7  1  0  0  0  0
 23  3  1  1  0  0  0
 23  2  1  0  0  0  0
 24  4  2  0  0  0  0
 25 27  1  0  0  0  0
 26 25  1  0  0  0  0
 28 25  2  0  0  0  0
 29 30  1  0  0  0  0
 31 32  1  0  0  0  0
M  END
>  <MODEL>
3

>  <REMARK>
 VINA RESULT:      -7.8      3.606      6.159
  Name = 
  3 active torsions:
  status: ('A' for Active; 'I' for Inactive)
    1  A    between atoms: N_10  and  C_24
    2  A    between atoms: N_13  and  C_15
    3  A    between atoms: C_25  and  C_26
                            x       y       z     vdW  Elec       q    Type
                         _______ _______ _______ _____ _____    ______ ____

>  <TORSDO>
F 3

$$$$
=
 OpenBabel10262421363D

 32 36  0  0  1  0  0  0  0  0999 V2000
  189.8910  177.5390  144.8080 C   0  0  0  0  0  0  0  0  0  0  0  0
  185.5660  178.9560  142.4900 C   0  0  2  0  0  3  0  0  0  0  0  0
  183.1320  179.3360  143.2810 C   0  0  0  0  0  0  0  0  0  0  0  0
  181.8080  178.7540  143.1150 C   0  0  0  0  0  0  0  0  0  0  0  0
  187.1110  177.5760  144.0120 C   0  0  1  0  0  3  0  0  0  0  0  0
  187.8150  178.1660  141.6340 C   0  0  0  0  0  2  0  0  0  0  0  0
  180.1170  177.8900  141.9970 N   0  0  0  0  0  0  0  0  0  0  0  0
  189.5570  177.5890  143.3470 C   0  0  0  0  0  2  0  0  0  0  0  0
  186.2970  178.1440  141.4030 C   0  0  2  0  0  3  0  0  0  0  0  0
  185.9340  178.5800  139.9800 C   0  0  2  0  0  3  0  0  0  0  0  0
  183.6480  178.3980  140.9920 N   0  0  2  0  0  0  0  0  0  0  0  0
  179.7290  178.0600  143.2780 C   0  0  0  0  0  3  0  0  0  0  0  0
  188.8910  178.0310  145.8160 C   0  0  0  0  0  2  0  0  0  0  0  0
  188.1890  178.2280  143.1210 C   0  0  2  0  0  3  0  0  0  0  0  0
  180.7730  178.6110  144.0220 C   0  0  0  0  0  3  0  0  0  0  0  0
  187.4930  177.4910  145.4990 C   0  0  0  0  0  2  0  0  0  0  0  0
  191.0850  177.0860  145.1800 C   0  0  0  0  0  3  0  0  0  0  0  0
  184.4150  178.7280  139.7730 C   0  0  1  0  0  3  0  0  0  0  0  0
  182.2080  178.4750  140.6740 C   0  0  0  0  0  2  0  0  0  0  0  0
  185.7420  178.2530  143.8510 C   0  0  0  0  0  2  0  0  0  0  0  0
  183.4310  179.9510  144.3410 O   0  0  0  0  0  0  0  0  0  0  0  0
  179.2870  177.3890  140.9160 C   0  0  0  0  0  1  0  0  0  0  0  0
  184.0970  179.2810  142.1050 C   0  0  2  0  0  3  0  0  0  0  0  0
  181.3890  178.3020  141.9090 C   0  0  0  0  0  0  0  0  0  0  0  0
  192.1790  175.9130  147.0930 C   0  0  0  0  0  0  0  0  0  0  0  0
  191.4710  177.0280  146.5540 N   0  0  0  0  0  2  0  0  0  0  0  0
  192.5310  175.9060  148.4360 O   0  0  0  0  0  1  0  0  0  0  0  0
  192.4900  174.9330  146.3640 O   0  0  0  0  0  0  0  0  0  0  0  0
  186.4090  178.2560  137.7150 C   0  0  0  0  0  1  0  0  0  0  0  0
  186.4550  177.6200  139.0200 N   0  0  0  0  0  2  0  0  0  0  0  0
  182.9960  180.0970  138.4020 O   0  0  0  0  0  1  0  0  0  0  0  0
  184.1060  180.1350  139.2470 C   0  0  0  0  0  2  0  0  0  0  0  0
  1 17  2  0  0  0  0
  1 13  1  0  0  0  0
  2 20  1  1  0  0  0
  3 21  2  0  0  0  0
  4  3  1  0  0  0  0
  4 15  1  0  0  0  0
  5 20  1  1  0  0  0
  5 16  1  0  0  0  0
  7 12  1  0  0  0  0
  8  1  1  0  0  0  0
  9  6  1  1  0  0  0
  9  2  1  0  0  0  0
 10 30  1  6  0  0  0
 10  9  1  0  0  0  0
 11 19  1  6  0  0  0
 11 23  1  0  0  0  0
 12 15  2  0  0  0  0
 14  6  1  6  0  0  0
 14  8  1  0  0  0  0
 14  5  1  0  0  0  0
 16 13  1  0  0  0  0
 17 26  1  0  0  0  0
 18 32  1  1  0  0  0
 18 10  1  0  0  0  0
 18 11  1  0  0  0  0
 19 24  1  0  0  0  0
 22  7  1  0  0  0  0
 23  2  1  0  0  0  0
 23  3  1  1  0  0  0
 24  7  1  0  0  0  0
 24  4  2  0  0  0  0
 25 27  1  0  0  0  0
 26 25  1  0  0  0  0
 28 25  2  0  0  0  0
 29 30  1  0  0  0  0
 31 32  1  0  0  0  0
M  END
>  <MODEL>
4

>  <REMARK>
 VINA RESULT:      -7.7      2.870      5.260
  Name = 
  3 active torsions:
  status: ('A' for Active; 'I' for Inactive)
    1  A    between atoms: N_10  and  C_24
    2  A    between atoms: N_13  and  C_15
    3  A    between atoms: C_25  and  C_26
                            x       y       z     vdW  Elec       q    Type
                         _______ _______ _______ _____ _____    ______ ____

>  <TORSDO>
F 3

$$$$
=
 OpenBabel10262421363D

 32 36  0  0  1  0  0  0  0  0999 V2000
  183.6460  178.8180  143.6540 C   0  0  0  0  0  0  0  0  0  0  0  0
  188.3630  178.3040  141.7620 C   0  0  2  0  0  3  0  0  0  0  0  0
  189.3560  178.2540  139.3730 C   0  0  0  0  0  0  0  0  0  0  0  0
  190.0110  177.3240  138.4640 C   0  0  0  0  0  0  0  0  0  0  0  0
  185.8380  177.8910  142.0100 C   0  0  1  0  0  3  0  0  0  0  0  0
  187.3600  177.9100  144.0550 C   0  0  0  0  0  2  0  0  0  0  0  0
  191.4460  175.7580  137.8790 N   0  0  0  0  0  0  0  0  0  0  0  0
  184.9020  178.3430  144.3230 C   0  0  0  0  0  2  0  0  0  0  0  0
  188.3950  177.4260  143.0280 C   0  0  2  0  0  3  0  0  0  0  0  0
  189.7930  177.3090  143.6440 C   0  0  2  0  0  3  0  0  0  0  0  0
  190.3210  176.8460  141.2380 N   0  0  2  0  0  0  0  0  0  0  0  0
  190.8230  176.1930  136.7630 C   0  0  0  0  0  3  0  0  0  0  0  0
  183.7000  179.3080  142.2350 C   0  0  0  0  0  2  0  0  0  0  0  0
  186.1070  178.5070  143.3990 C   0  0  2  0  0  3  0  0  0  0  0  0
  189.9050  177.1930  137.0910 C   0  0  0  0  0  3  0  0  0  0  0  0
  184.5210  178.3540  141.3630 C   0  0  0  0  0  2  0  0  0  0  0  0
  182.5110  178.8240  144.3480 C   0  0  0  0  0  3  0  0  0  0  0  0
  190.8780  176.9880  142.5990 C   0  0  1  0  0  3  0  0  0  0  0  0
  191.4110  176.4480  140.3260 C   0  0  0  0  0  2  0  0  0  0  0  0
  187.0120  178.1090  141.0450 C   0  0  0  0  0  2  0  0  0  0  0  0
  188.6690  179.2110  138.9240 O   0  0  0  0  0  0  0  0  0  0  0  0
  192.5000  174.7610  137.9300 C   0  0  0  0  0  1  0  0  0  0  0  0
  189.6150  178.1050  140.8660 C   0  0  2  0  0  3  0  0  0  0  0  0
  190.9360  176.4420  138.9120 C   0  0  0  0  0  0  0  0  0  0  0  0
  180.0970  178.4870  143.8050 C   0  0  0  0  0  0  0  0  0  0  0  0
  181.2840  179.2790  143.7750 N   0  0  0  0  0  2  0  0  0  0  0  0
  178.9310  178.9770  143.2330 O   0  0  0  0  0  0  0  0  0  0  0  0
  180.0960  177.3480  144.3440 O   0  0  0  0  0  1  0  0  0  0  0  0
  190.3250  176.8840  145.8790 C   0  0  0  0  0  1  0  0  0  0  0  0
  189.7970  176.2780  144.6690 N   0  0  0  0  0  2  0  0  0  0  0  0
  191.6540  179.0220  143.6110 O   0  0  0  0  0  1  0  0  0  0  0  0
  191.9870  178.0440  142.6740 C   0  0  0  0  0  2  0  0  0  0  0  0
  1  8  1  0  0  0  0
  1 17  2  0  0  0  0
  2 20  1  6  0  0  0
  2  9  1  0  0  0  0
  4 24  2  0  0  0  0
  4  3  1  0  0  0  0
  5 20  1  6  0  0  0
  5 14  1  0  0  0  0
  7 22  1  0  0  0  0
  7 24  1  0  0  0  0
  9 10  1  0  0  0  0
  9  6  1  1  0  0  0
 10 30  1  1  0  0  0
 11 19  1  6  0  0  0
 11 18  1  0  0  0  0
 12 15  2  0  0  0  0
 12  7  1  0  0  0  0
 13  1  1  0  0  0  0
 14  6  1  1  0  0  0
 14  8  1  0  0  0  0
 15  4  1  0  0  0  0
 16  5  1  0  0  0  0
 16 13  1  0  0  0  0
 18 32  1  6  0  0  0
 18 10  1  0  0  0  0
 21  3  2  0  0  0  0
 23  3  1  6  0  0  0
 23 11  1  0  0  0  0
 23  2  1  0  0  0  0
 24 19  1  0  0  0  0
 25 28  1  0  0  0  0
 26 25  1  0  0  0  0
 26 17  1  0  0  0  0
 27 25  2  0  0  0  0
 30 29  1  0  0  0  0
 32 31  1  0  0  0  0
M  END
>  <MODEL>
5

>  <REMARK>
 VINA RESULT:      -7.6      4.354      8.440
  Name = 
  3 active torsions:
  status: ('A' for Active; 'I' for Inactive)
    1  A    between atoms: N_10  and  C_24
    2  A    between atoms: N_13  and  C_15
    3  A    between atoms: C_25  and  C_26
                            x       y       z     vdW  Elec       q    Type
                         _______ _______ _______ _____ _____    ______ ____

>  <TORSDO>
F 3

$$$$
=
 OpenBabel10262421363D

 32 36  0  0  1  0  0  0  0  0999 V2000
  184.0040  178.9410  142.8210 C   0  0  0  0  0  0  0  0  0  0  0  0
  188.3990  178.3260  140.2930 C   0  0  2  0  0  3  0  0  0  0  0  0
  189.0710  178.3880  137.7950 C   0  0  0  0  0  0  0  0  0  0  0  0
  189.5490  177.4910  136.7530 C   0  0  0  0  0  0  0  0  0  0  0  0
  185.9080  178.0210  140.8490 C   0  0  1  0  0  3  0  0  0  0  0  0
  187.6810  177.8290  142.6710 C   0  0  0  0  0  2  0  0  0  0  0  0
  190.8040  175.8990  135.8890 N   0  0  0  0  0  0  0  0  0  0  0  0
  185.3060  178.3630  143.2880 C   0  0  0  0  0  2  0  0  0  0  0  0
  188.5450  177.3650  141.4880 C   0  0  2  0  0  3  0  0  0  0  0  0
  190.0010  177.1390  141.9050 C   0  0  2  0  0  3  0  0  0  0  0  0
  190.1870  176.8130  139.4270 N   0  0  2  0  0  0  0  0  0  0  0  0
  190.0680  176.4380  134.8940 C   0  0  0  0  0  3  0  0  0  0  0  0
  183.9010  179.5230  141.4400 C   0  0  0  0  0  2  0  0  0  0  0  0
  186.3890  178.5290  142.2240 C   0  0  2  0  0  3  0  0  0  0  0  0
  189.2590  177.4570  135.4000 C   0  0  0  0  0  3  0  0  0  0  0  0
  184.5480  178.5900  140.4110 C   0  0  0  0  0  2  0  0  0  0  0  0
  182.9710  178.9560  143.6590 C   0  0  0  0  0  3  0  0  0  0  0  0
  190.9220  176.8370  140.7080 C   0  0  1  0  0  3  0  0  0  0  0  0
  191.1250  176.4240  138.3560 C   0  0  0  0  0  2  0  0  0  0  0  0
  186.9580  178.2450  139.7510 C   0  0  0  0  0  2  0  0  0  0  0  0
  188.3880  179.4050  137.4990 O   0  0  0  0  0  0  0  0  0  0  0  0
  191.7970  174.8510  135.7400 C   0  0  0  0  0  1  0  0  0  0  0  0
  189.5120  178.1270  139.2280 C   0  0  2  0  0  3  0  0  0  0  0  0
  190.4720  176.5360  137.0200 C   0  0  0  0  0  0  0  0  0  0  0  0
  180.4740  178.8990  143.6620 C   0  0  0  0  0  0  0  0  0  0  0  0
  181.7080  179.5080  143.2820 N   0  0  0  0  0  2  0  0  0  0  0  0
  179.2740  179.4760  143.2690 O   0  0  0  0  0  0  0  0  0  0  0  0
  180.4620  177.8430  144.3490 O   0  0  0  0  0  1  0  0  0  0  0  0
  191.1260  176.3780  143.8070 C   0  0  0  0  0  1  0  0  0  0  0  0
  190.0800  176.0430  142.8570 N   0  0  0  0  0  2  0  0  0  0  0  0
  193.3000  177.1430  140.5830 O   0  0  0  0  0  1  0  0  0  0  0  0
  192.0910  177.8290  140.6990 C   0  0  0  0  0  2  0  0  0  0  0  0
  1  8  1  0  0  0  0
  1 17  2  0  0  0  0
  2 20  1  6  0  0  0
  2  9  1  0  0  0  0
  4 24  2  0  0  0  0
  4  3  1  0  0  0  0
  5 20  1  6  0  0  0
  5 14  1  0  0  0  0
  7 24  1  0  0  0  0
  9 10  1  0  0  0  0
  9  6  1  1  0  0  0
 10 30  1  1  0  0  0
 11 19  1  6  0  0  0
 11 18  1  0  0  0  0
 12 15  2  0  0  0  0
 12  7  1  0  0  0  0
 13  1  1  0  0  0  0
 14  6  1  1  0  0  0
 14  8  1  0  0  0  0
 15  4  1  0  0  0  0
 16  5  1  0  0  0  0
 16 13  1  0  0  0  0
 18 32  1  6  0  0  0
 18 10  1  0  0  0  0
 21  3  2  0  0  0  0
 22  7  1  0  0  0  0
 23  3  1  6  0  0  0
 23 11  1  0  0  0  0
 23  2  1  0  0  0  0
 24 19  1  0  0  0  0
 25 28  1  0  0  0  0
 26 17  1  0  0  0  0
 26 25  1  0  0  0  0
 27 25  2  0  0  0  0
 30 29  1  0  0  0  0
 31 32  1  0  0  0  0
M  END
>  <MODEL>
6

>  <REMARK>
 VINA RESULT:      -6.9      4.969      8.387
  Name = 
  3 active torsions:
  status: ('A' for Active; 'I' for Inactive)
    1  A    between atoms: N_10  and  C_24
    2  A    between atoms: N_13  and  C_15
    3  A    between atoms: C_25  and  C_26
                            x       y       z     vdW  Elec       q    Type
                         _______ _______ _______ _____ _____    ______ ____

>  <TORSDO>
F 3

$$$$
=
 OpenBabel10262421363D

 32 36  0  0  1  0  0  0  0  0999 V2000
  190.5740  177.6580  144.2850 C   0  0  0  0  0  0  0  0  0  0  0  0
  188.7390  177.6310  139.5180 C   0  0  2  0  0  3  0  0  0  0  0  0
  186.4000  178.0150  138.4800 C   0  0  0  0  0  0  0  0  0  0  0  0
  185.3650  177.2730  137.7740 C   0  0  0  0  0  0  0  0  0  0  0  0
  188.8530  177.0960  142.0300 C   0  0  1  0  0  3  0  0  0  0  0  0
  190.9090  176.8260  140.5470 C   0  0  0  0  0  2  0  0  0  0  0  0
  184.5630  175.8770  136.2700 N   0  0  0  0  0  0  0  0  0  0  0  0
  191.1850  177.1230  143.0240 C   0  0  0  0  0  2  0  0  0  0  0  0
  189.8410  176.5560  139.4760 C   0  0  2  0  0  3  0  0  0  0  0  0
  190.4630  176.3860  138.0860 C   0  0  2  0  0  3  0  0  0  0  0  0
  188.0280  176.3500  137.4960 N   0  0  2  0  0  0  0  0  0  0  0  0
  183.5200  176.4700  136.8880 C   0  0  0  0  0  3  0  0  0  0  0  0
  189.2580  178.3810  144.2240 C   0  0  0  0  0  2  0  0  0  0  0  0
  190.3310  177.4800  141.8100 C   0  0  2  0  0  3  0  0  0  0  0  0
  183.9870  177.3690  137.8490 C   0  0  0  0  0  3  0  0  0  0  0  0
  188.2600  177.6140  143.3510 C   0  0  0  0  0  2  0  0  0  0  0  0
  191.2310  177.5100  145.4320 C   0  0  0  0  0  3  0  0  0  0  0  0
  189.4060  176.2820  136.9710 C   0  0  1  0  0  3  0  0  0  0  0  0
  187.0890  176.1470  136.3750 C   0  0  0  0  0  2  0  0  0  0  0  0
  187.9660  177.5120  140.8470 C   0  0  0  0  0  2  0  0  0  0  0  0
  186.0990  179.0090  139.1950 O   0  0  0  0  0  0  0  0  0  0  0  0
  184.4730  174.9230  135.1790 C   0  0  0  0  0  1  0  0  0  0  0  0
  187.8530  177.6280  138.2430 C   0  0  2  0  0  3  0  0  0  0  0  0
  185.6820  176.3610  136.8240 C   0  0  0  0  0  0  0  0  0  0  0  0
  189.6060  177.3970  147.3240 C   0  0  0  0  0  0  0  0  0  0  0  0
  190.7120  178.0110  146.6640 N   0  0  0  0  0  2  0  0  0  0  0  0
  189.1410  177.9240  148.5210 O   0  0  0  0  0  1  0  0  0  0  0  0
  189.0470  176.3800  146.8320 O   0  0  0  0  0  0  0  0  0  0  0  0
  192.5660  175.5850  137.4560 C   0  0  0  0  0  1  0  0  0  0  0  0
  191.3030  175.1990  138.0610 N   0  0  0  0  0  2  0  0  0  0  0  0
  190.1580  176.7460  134.7380 O   0  0  0  0  0  1  0  0  0  0  0  0
  189.6830  177.3480  135.9040 C   0  0  0  0  0  2  0  0  0  0  0  0
  1 17  2  0  0  0  0
  2 20  1  1  0  0  0
  3 21  2  0  0  0  0
  4 15  1  0  0  0  0
  4  3  1  0  0  0  0
  5 20  1  6  0  0  0
  5 16  1  0  0  0  0
  7 24  1  0  0  0  0
  7 12  1  0  0  0  0
  8  1  1  0  0  0  0
  9  2  1  0  0  0  0
  9  6  1  1  0  0  0
 10 30  1  1  0  0  0
 10  9  1  0  0  0  0
 11 19  1  6  0  0  0
 11 23  1  0  0  0  0
 12 15  2  0  0  0  0
 13  1  1  0  0  0  0
 14  6  1  6  0  0  0
 14  5  1  0  0  0  0
 14  8  1  0  0  0  0
 16 13  1  0  0  0  0
 17 26  1  0  0  0  0
 18 32  1  6  0  0  0
 18 11  1  0  0  0  0
 18 10  1  0  0  0  0
 19 24  1  0  0  0  0
 22  7  1  0  0  0  0
 23  3  1  1  0  0  0
 23  2  1  0  0  0  0
 24  4  2  0  0  0  0
 25 27  1  0  0  0  0
 26 25  1  0  0  0  0
 28 25  2  0  0  0  0
 29 30  1  0  0  0  0
 31 32  1  0  0  0  0
M  END
>  <MODEL>
7

>  <REMARK>
 VINA RESULT:      -6.7      4.619      7.166
  Name = 
  3 active torsions:
  status: ('A' for Active; 'I' for Inactive)
    1  A    between atoms: N_10  and  C_24
    2  A    between atoms: N_13  and  C_15
    3  A    between atoms: C_25  and  C_26
                            x       y       z     vdW  Elec       q    Type
                         _______ _______ _______ _____ _____    ______ ____

>  <TORSDO>
F 3

$$$$
=
 OpenBabel10262421363D

 32 36  0  0  1  0  0  0  0  0999 V2000
  192.4630  174.8840  137.5400 C   0  0  0  0  0  0  0  0  0  0  0  0
  187.5640  176.1390  136.8230 C   0  0  2  0  0  3  0  0  0  0  0  0
  186.0510  178.0620  137.6630 C   0  0  0  0  0  0  0  0  0  0  0  0
  184.8980  178.2690  138.5280 C   0  0  0  0  0  0  0  0  0  0  0  0
  189.7460  175.6940  138.1080 C   0  0  1  0  0  3  0  0  0  0  0  0
  188.9030  174.0380  136.3630 C   0  0  0  0  0  2  0  0  0  0  0  0
  182.8970  177.8440  139.3480 N   0  0  0  0  0  0  0  0  0  0  0  0
  191.3340  174.0660  136.9880 C   0  0  0  0  0  2  0  0  0  0  0  0
  187.5400  174.5990  136.7950 C   0  0  2  0  0  3  0  0  0  0  0  0
  186.3980  174.0310  135.9470 C   0  0  2  0  0  3  0  0  0  0  0  0
  185.1480  175.7280  137.3020 N   0  0  2  0  0  0  0  0  0  0  0  0
  183.3310  179.0060  139.8820 C   0  0  0  0  0  3  0  0  0  0  0  0
  192.2330  176.3260  137.8940 C   0  0  0  0  0  2  0  0  0  0  0  0
  190.0770  174.9160  136.8170 C   0  0  2  0  0  3  0  0  0  0  0  0
  184.5980  179.3140  139.3840 C   0  0  0  0  0  3  0  0  0  0  0  0
  190.9310  176.4880  138.6840 C   0  0  0  0  0  2  0  0  0  0  0  0
  193.6600  174.3190  137.6750 C   0  0  0  0  0  3  0  0  0  0  0  0
  185.0440  174.7000  136.2470 C   0  0  1  0  0  3  0  0  0  0  0  0
  183.7950  176.2450  137.5880 C   0  0  0  0  0  2  0  0  0  0  0  0
  188.5260  176.6100  137.9330 C   0  0  0  0  0  2  0  0  0  0  0  0
  186.8980  178.9800  137.4970 O   0  0  0  0  0  0  0  0  0  0  0  0
  181.6040  177.2290  139.5880 C   0  0  0  0  0  1  0  0  0  0  0  0
  186.1410  176.7580  136.8830 C   0  0  2  0  0  3  0  0  0  0  0  0
  183.8630  177.3950  138.5350 C   0  0  0  0  0  0  0  0  0  0  0  0
  195.8310  174.4100  138.9050 C   0  0  0  0  0  0  0  0  0  0  0  0
  194.7810  175.0470  138.1790 N   0  0  0  0  0  2  0  0  0  0  0  0
  196.8980  175.1650  139.3730 O   0  0  0  0  0  1  0  0  0  0  0  0
  195.8010  173.1700  139.1270 O   0  0  0  0  0  0  0  0  0  0  0  0
  186.3050  171.9630  134.8610 C   0  0  0  0  0  1  0  0  0  0  0  0
  186.2820  172.5980  136.1680 N   0  0  0  0  0  2  0  0  0  0  0  0
  183.3040  174.5270  134.6010 O   0  0  0  0  0  1  0  0  0  0  0  0
  184.4470  175.2500  134.9460 C   0  0  0  0  0  2  0  0  0  0  0  0
  1 17  2  0  0  0  0
  1 13  1  0  0  0  0
  2 23  1  0  0  0  0
  2 20  1  1  0  0  0
  3  4  1  0  0  0  0
  4 24  2  0  0  0  0
  4 15  1  0  0  0  0
  5 20  1  6  0  0  0
  5 16  1  0  0  0  0
  7 22  1  0  0  0  0
  7 12  1  0  0  0  0
  8  1  1  0  0  0  0
  9  6  1  6  0  0  0
  9  2  1  0  0  0  0
 10 30  1  1  0  0  0
 10 18  1  0  0  0  0
 10  9  1  0  0  0  0
 11 19  1  6  0  0  0
 13 16  1  0  0  0  0
 14  6  1  1  0  0  0
 14  8  1  0  0  0  0
 14  5  1  0  0  0  0
 15 12  2  0  0  0  0
 17 26  1  0  0  0  0
 18 32  1  6  0  0  0
 18 11  1  0  0  0  0
 19 24  1  0  0  0  0
 21  3  2  0  0  0  0
 23 11  1  0  0  0  0
 23  3  1  1  0  0  0
 24  7  1  0  0  0  0
 25 28  2  0  0  0  0
 25 27  1  0  0  0  0
 26 25  1  0  0  0  0
 29 30  1  0  0  0  0
 31 32  1  0  0  0  0
M  END
>  <MODEL>
8

>  <REMARK>
 VINA RESULT:      -6.7      6.373      8.509
  Name = 
  3 active torsions:
  status: ('A' for Active; 'I' for Inactive)
    1  A    between atoms: N_10  and  C_24
    2  A    between atoms: N_13  and  C_15
    3  A    between atoms: C_25  and  C_26
                            x       y       z     vdW  Elec       q    Type
                         _______ _______ _______ _____ _____    ______ ____

>  <TORSDO>
F 3

$$$$
=
 OpenBabel10262421363D

 32 36  0  0  1  0  0  0  0  0999 V2000
  183.2890  179.2080  140.7420 C   0  0  0  0  0  0  0  0  0  0  0  0
  188.2590  178.2730  140.0290 C   0  0  2  0  0  3  0  0  0  0  0  0
  189.7640  177.9920  137.9430 C   0  0  0  0  0  0  0  0  0  0  0  0
  190.5360  176.9610  137.2640 C   0  0  0  0  0  0  0  0  0  0  0  0
  185.7200  178.0350  139.7070 C   0  0  1  0  0  3  0  0  0  0  0  0
  186.7340  178.1070  142.0450 C   0  0  0  0  0  2  0  0  0  0  0  0
  191.9430  175.2720  137.1160 N   0  0  0  0  0  0  0  0  0  0  0  0
  184.3190  178.7070  141.7090 C   0  0  0  0  0  2  0  0  0  0  0  0
  187.9360  177.4880  141.3140 C   0  0  2  0  0  3  0  0  0  0  0  0
  189.1430  177.3300  142.2440 C   0  0  2  0  0  3  0  0  0  0  0  0
  190.1690  176.6650  140.0560 N   0  0  2  0  0  0  0  0  0  0  0  0
  191.6260  175.6640  135.8630 C   0  0  0  0  0  3  0  0  0  0  0  0
  183.7010  179.5920  139.3490 C   0  0  0  0  0  2  0  0  0  0  0  0
  185.7120  178.7300  141.0840 C   0  0  2  0  0  3  0  0  0  0  0  0
  190.7370  176.7380  135.9130 C   0  0  0  0  0  3  0  0  0  0  0  0
  184.6250  178.5300  138.7470 C   0  0  0  0  0  2  0  0  0  0  0  0
  182.0300  179.3340  141.1520 C   0  0  0  0  0  3  0  0  0  0  0  0
  190.4100  176.8690  141.4990 C   0  0  1  0  0  3  0  0  0  0  0  0
  191.4050  176.1360  139.4450 C   0  0  0  0  0  2  0  0  0  0  0  0
  187.0970  178.1100  139.0300 C   0  0  0  0  0  2  0  0  0  0  0  0
  189.2730  178.9540  137.2940 O   0  0  0  0  0  0  0  0  0  0  0  0
  192.8790  174.2190  137.4650 C   0  0  0  0  0  1  0  0  0  0  0  0
  189.6640  177.9340  139.4610 C   0  0  2  0  0  3  0  0  0  0  0  0
  191.2650  176.0580  137.9620 C   0  0  0  0  0  0  0  0  0  0  0  0
  179.9010  180.5830  140.7750 C   0  0  0  0  0  0  0  0  0  0  0  0
  181.0040  179.8210  140.2860 N   0  0  0  0  0  2  0  0  0  0  0  0
  178.9310  181.0330  139.8900 O   0  0  0  0  0  0  0  0  0  0  0  0
  179.7970  180.8530  142.0010 O   0  0  0  0  0  1  0  0  0  0  0  0
  188.9930  177.0750  144.5620 C   0  0  0  0  0  1  0  0  0  0  0  0
  188.8350  176.3760  143.2980 N   0  0  0  0  0  2  0  0  0  0  0  0
  192.0790  177.6390  143.0440 O   0  0  0  0  0  1  0  0  0  0  0  0
  191.5500  177.8580  141.7710 C   0  0  0  0  0  2  0  0  0  0  0  0
  1 17  2  0  0  0  0
  1  8  1  0  0  0  0
  2 20  1  6  0  0  0
  2  9  1  0  0  0  0
  4  3  1  0  0  0  0
  4 24  2  0  0  0  0
  5 16  1  6  0  0  0
  5 14  1  0  0  0  0
  7 22  1  0  0  0  0
  7 24  1  0  0  0  0
  9  6  1  1  0  0  0
  9 10  1  0  0  0  0
 10 30  1  1  0  0  0
 11 19  1  6  0  0  0
 11 18  1  0  0  0  0
 12 15  2  0  0  0  0
 12  7  1  0  0  0  0
 13  1  1  0  0  0  0
 14  8  1  1  0  0  0
 14  6  1  0  0  0  0
 15  4  1  0  0  0  0
 16 13  1  0  0  0  0
 18 32  1  6  0  0  0
 18 10  1  0  0  0  0
 20  5  1  0  0  0  0
 21  3  2  0  0  0  0
 23  3  1  6  0  0  0
 23  2  1  0  0  0  0
 23 11  1  0  0  0  0
 24 19  1  0  0  0  0
 25 28  1  0  0  0  0
 26 25  1  0  0  0  0
 26 17  1  0  0  0  0
 27 25  2  0  0  0  0
 30 29  1  0  0  0  0
 32 31  1  0  0  0  0
M  END
>  <MODEL>
9

>  <REMARK>
 VINA RESULT:      -6.6      5.007      8.905
  Name = 
  3 active torsions:
  status: ('A' for Active; 'I' for Inactive)
    1  A    between atoms: N_10  and  C_24
    2  A    between atoms: N_13  and  C_15
    3  A    between atoms: C_25  and  C_26
                            x       y       z     vdW  Elec       q    Type
                         _______ _______ _______ _____ _____    ______ ____

>  <TORSDO>
F 3

$$$$
