=
 OpenBabel10262419593D

 27 31  0  0  1  0  0  0  0  0999 V2000
  190.5270  178.7200  143.7970 C   0  0  0  0  0  2  0  0  0  0  0  0
  188.5210  177.9530  144.9980 C   0  0  0  0  0  0  0  0  0  0  0  0
  187.9740  177.8310  142.5590 O   0  0  0  0  0  0  0  0  0  0  0  0
  184.3830  178.3620  145.8590 C   0  0  0  0  0  3  0  0  0  0  0  0
  183.9140  179.1050  143.5600 C   0  0  0  0  0  2  0  0  0  0  0  0
  188.0490  178.0020  146.2740 N   0  0  0  0  0  0  0  0  0  0  0  0
  185.1940  178.4040  143.0850 C   0  0  1  0  0  3  0  0  0  0  0  0
  190.4070  176.7510  140.0090 C   0  0  0  0  0  0  0  0  0  0  0  0
  185.6830  179.1800  141.8730 C   0  0  0  0  0  1  0  0  0  0  0  0
  190.3730  175.9510  138.4530 Cl  0  0  0  0  0  0  0  0  0  0  0  0
  186.2480  178.3070  144.1900 C   0  0  0  0  0  0  0  0  0  0  0  0
  189.9360  177.8560  144.8010 N   0  0  0  0  0  0  0  0  0  0  0  0
  183.4850  178.6840  144.9310 C   0  0  0  0  0  3  0  0  0  0  0  0
  185.8130  178.2980  145.5310 C   0  0  0  0  0  0  0  0  0  0  0  0
  190.4530  178.0340  142.4910 C   0  0  0  0  0  0  0  0  0  0  0  0
  187.6160  178.0520  143.9080 C   0  0  0  0  0  0  0  0  0  0  0  0
  189.2170  176.9830  140.7010 C   0  0  0  0  0  3  0  0  0  0  0  0
  186.7330  178.1440  146.5580 C   0  0  0  0  0  3  0  0  0  0  0  0
  191.6240  177.1590  140.5570 C   0  0  0  0  0  3  0  0  0  0  0  0
  191.6440  177.8010  141.7960 C   0  0  0  0  0  3  0  0  0  0  0  0
  189.2220  177.6150  141.9500 C   0  0  0  0  0  0  0  0  0  0  0  0
  192.4090  175.2490  147.0830 C   0  0  0  0  0  3  0  0  0  0  0  0
  190.7640  176.9610  145.5740 C   0  0  0  0  0  0  0  0  0  0  0  0
  191.4730  175.9180  144.9540 C   0  0  0  0  0  3  0  0  0  0  0  0
  192.2880  175.0660  145.7040 C   0  0  0  0  0  3  0  0  0  0  0  0
  191.7150  176.2860  147.7130 C   0  0  0  0  0  3  0  0  0  0  0  0
  190.9000  177.1380  146.9620 C   0  0  0  0  0  3  0  0  0  0  0  0
  1 12  1  0  0  0  0
  2  6  1  0  0  0  0
  3 16  1  0  0  0  0
  5 13  1  0  0  0  0
  6 18  2  0  0  0  0
  7  9  1  6  0  0  0
  7  5  1  0  0  0  0
  7 11  1  0  0  0  0
  8 19  2  0  0  0  0
  8 17  1  0  0  0  0
 10  8  1  0  0  0  0
 11 14  2  0  0  0  0
 12  2  1  0  0  0  0
 12 23  1  0  0  0  0
 13  4  2  0  0  0  0
 14  4  1  0  0  0  0
 14 18  1  0  0  0  0
 15  1  1  0  0  0  0
 16 11  1  0  0  0  0
 16  2  2  0  0  0  0
 17 21  2  0  0  0  0
 19 20  1  0  0  0  0
 20 15  2  0  0  0  0
 21 15  1  0  0  0  0
 21  3  1  0  0  0  0
 22 26  1  0  0  0  0
 23 27  1  0  0  0  0
 24 23  2  0  0  0  0
 24 25  1  0  0  0  0
 25 22  2  0  0  0  0
 27 26  2  0  0  0  0
M  END
>  <MODEL>
1

>  <REMARK>
 VINA RESULT:     -10.5      0.000      0.000
  Name = 
  1 active torsions:
  status: ('A' for Active; 'I' for Inactive)
    1  A    between atoms: C_9  and  N_15
                            x       y       z     vdW  Elec       q    Type
                         _______ _______ _______ _____ _____    ______ ____

>  <TORSDO>
F 1

$$$$
=
 OpenBabel10262419593D

 27 31  0  0  1  0  0  0  0  0999 V2000
  187.4420  179.3390  141.1160 C   0  0  0  0  0  2  0  0  0  0  0  0
  188.4960  177.8380  142.7570 C   0  0  0  0  0  0  0  0  0  0  0  0
  186.0740  177.9750  143.3760 O   0  0  0  0  0  0  0  0  0  0  0  0
  189.4260  176.8910  146.7910 C   0  0  0  0  0  3  0  0  0  0  0  0
  187.2940  177.8420  147.5710 C   0  0  0  0  0  2  0  0  0  0  0  0
  189.7610  177.5350  143.1560 N   0  0  0  0  0  0  0  0  0  0  0  0
  186.7000  177.6280  146.1720 C   0  0  1  0  0  3  0  0  0  0  0  0
  183.3680  178.0820  140.8750 C   0  0  0  0  0  0  0  0  0  0  0  0
  185.6410  178.7030  145.9870 C   0  0  0  0  0  1  0  0  0  0  0  0
  181.6950  177.5780  140.7640 Cl  0  0  0  0  0  0  0  0  0  0  0  0
  187.7680  177.6540  145.0770 C   0  0  0  0  0  0  0  0  0  0  0  0
  188.2800  178.1860  141.3850 N   0  0  0  0  0  0  0  0  0  0  0  0
  188.5710  177.0910  147.7900 C   0  0  0  0  0  3  0  0  0  0  0  0
  189.0870  177.2960  145.4200 C   0  0  0  0  0  0  0  0  0  0  0  0
  186.0370  178.8890  141.0620 C   0  0  0  0  0  0  0  0  0  0  0  0
  187.4420  177.8540  143.7100 C   0  0  0  0  0  0  0  0  0  0  0  0
  184.0930  177.8430  142.0440 C   0  0  0  0  0  3  0  0  0  0  0  0
  190.0690  177.2440  144.4410 C   0  0  0  0  0  3  0  0  0  0  0  0
  183.9760  178.7240  139.7960 C   0  0  0  0  0  3  0  0  0  0  0  0
  185.3080  179.1290  139.8920 C   0  0  0  0  0  3  0  0  0  0  0  0
  185.4340  178.2310  142.1520 C   0  0  0  0  0  0  0  0  0  0  0  0
  190.0790  176.0550  138.1690 C   0  0  0  0  0  3  0  0  0  0  0  0
  188.8830  177.4510  140.2980 C   0  0  0  0  0  0  0  0  0  0  0  0
  188.1770  177.2230  139.1040 C   0  0  0  0  0  3  0  0  0  0  0  0
  188.7710  176.5280  138.0480 C   0  0  0  0  0  3  0  0  0  0  0  0
  190.7950  176.2800  139.3480 C   0  0  0  0  0  3  0  0  0  0  0  0
  190.2010  176.9760  140.4040 C   0  0  0  0  0  3  0  0  0  0  0  0
  1 12  1  0  0  0  0
  2  6  2  0  0  0  0
  2 16  1  0  0  0  0
  3 16  1  0  0  0  0
  4 13  2  0  0  0  0
  5 13  1  0  0  0  0
  6 18  1  0  0  0  0
  7  9  1  6  0  0  0
  7  5  1  0  0  0  0
  8 17  1  0  0  0  0
 10  8  1  0  0  0  0
 11 14  1  0  0  0  0
 11  7  1  0  0  0  0
 12  2  1  0  0  0  0
 14  4  1  0  0  0  0
 15  1  1  0  0  0  0
 15 21  1  0  0  0  0
 16 11  2  0  0  0  0
 17 21  2  0  0  0  0
 18 14  2  0  0  0  0
 19 20  1  0  0  0  0
 19  8  2  0  0  0  0
 20 15  2  0  0  0  0
 21  3  1  0  0  0  0
 22 26  1  0  0  0  0
 23 27  1  0  0  0  0
 23 12  1  0  0  0  0
 24 23  2  0  0  0  0
 25 22  2  0  0  0  0
 25 24  1  0  0  0  0
 26 27  2  0  0  0  0
M  END
>  <MODEL>
2

>  <REMARK>
 VINA RESULT:      -9.1      2.531      5.673
  Name = 
  1 active torsions:
  status: ('A' for Active; 'I' for Inactive)
    1  A    between atoms: C_9  and  N_15
                            x       y       z     vdW  Elec       q    Type
                         _______ _______ _______ _____ _____    ______ ____

>  <TORSDO>
F 1

$$$$
=
 OpenBabel10262419593D

 27 31  0  0  1  0  0  0  0  0999 V2000
  189.6090  178.6280  138.4250 C   0  0  0  0  0  2  0  0  0  0  0  0
  189.6520  177.3720  140.5410 C   0  0  0  0  0  0  0  0  0  0  0  0
  187.2400  177.7700  140.0040 O   0  0  0  0  0  0  0  0  0  0  0  0
  188.6400  177.0860  144.6550 C   0  0  0  0  0  3  0  0  0  0  0  0
  186.5280  178.2940  144.2840 C   0  0  0  0  0  2  0  0  0  0  0  0
  190.5740  177.0620  141.4930 N   0  0  0  0  0  0  0  0  0  0  0  0
  186.5640  177.8780  142.8080 C   0  0  1  0  0  3  0  0  0  0  0  0
  185.8970  177.6120  136.5740 C   0  0  0  0  0  0  0  0  0  0  0  0
  185.8390  178.9690  142.0370 C   0  0  0  0  0  1  0  0  0  0  0  0
  184.3790  177.2050  135.8020 Cl  0  0  0  0  0  0  0  0  0  0  0  0
  187.9880  177.6430  142.3030 C   0  0  0  0  0  0  0  0  0  0  0  0
  190.0900  177.4880  139.1820 N   0  0  0  0  0  0  0  0  0  0  0  0
  187.4770  177.5130  145.1400 C   0  0  0  0  0  3  0  0  0  0  0  0
  188.9750  177.2660  143.2370 C   0  0  0  0  0  0  0  0  0  0  0  0
  188.3140  178.2670  137.8150 C   0  0  0  0  0  0  0  0  0  0  0  0
  188.3060  177.6220  140.9190 C   0  0  0  0  0  0  0  0  0  0  0  0
  186.0160  177.5350  137.9630 C   0  0  0  0  0  3  0  0  0  0  0  0
  190.2630  176.9810  142.8080 C   0  0  0  0  0  3  0  0  0  0  0  0
  186.9860  178.0160  135.8020 C   0  0  0  0  0  3  0  0  0  0  0  0
  188.1920  178.3440  136.4230 C   0  0  0  0  0  3  0  0  0  0  0  0
  187.2220  177.8500  138.6010 C   0  0  0  0  0  0  0  0  0  0  0  0
  192.7560  174.7110  137.3660 C   0  0  0  0  0  3  0  0  0  0  0  0
  190.9920  176.5370  138.5780 C   0  0  0  0  0  0  0  0  0  0  0  0
  190.5050  175.3710  137.9630 C   0  0  0  0  0  3  0  0  0  0  0  0
  191.3810  174.4630  137.3630 C   0  0  0  0  0  3  0  0  0  0  0  0
  193.2540  175.8690  137.9690 C   0  0  0  0  0  3  0  0  0  0  0  0
  192.3770  176.7770  138.5690 C   0  0  0  0  0  3  0  0  0  0  0  0
  1 12  1  0  0  0  0
  2 16  2  0  0  0  0
  2  6  1  0  0  0  0
  3 16  1  0  0  0  0
  4 13  2  0  0  0  0
  5 13  1  0  0  0  0
  6 18  2  0  0  0  0
  7  9  1  6  0  0  0
  7  5  1  0  0  0  0
  8 17  1  0  0  0  0
 10  8  1  0  0  0  0
 11  7  1  0  0  0  0
 11 14  2  0  0  0  0
 12  2  1  0  0  0  0
 14  4  1  0  0  0  0
 15  1  1  0  0  0  0
 15 21  1  0  0  0  0
 16 11  1  0  0  0  0
 17 21  2  0  0  0  0
 18 14  1  0  0  0  0
 19 20  1  0  0  0  0
 19  8  2  0  0  0  0
 20 15  2  0  0  0  0
 21  3  1  0  0  0  0
 22 26  1  0  0  0  0
 23 12  1  0  0  0  0
 24 23  2  0  0  0  0
 25 22  2  0  0  0  0
 25 24  1  0  0  0  0
 26 27  2  0  0  0  0
 27 23  1  0  0  0  0
M  END
>  <MODEL>
3

>  <REMARK>
 VINA RESULT:      -8.6      3.242      5.735
  Name = 
  1 active torsions:
  status: ('A' for Active; 'I' for Inactive)
    1  A    between atoms: C_9  and  N_15
                            x       y       z     vdW  Elec       q    Type
                         _______ _______ _______ _____ _____    ______ ____

>  <TORSDO>
F 1

$$$$
=
 OpenBabel10262419593D

 27 31  0  0  1  0  0  0  0  0999 V2000
  184.3330  179.8260  139.0950 C   0  0  0  0  0  2  0  0  0  0  0  0
  185.8950  178.5440  140.5000 C   0  0  0  0  0  0  0  0  0  0  0  0
  183.6550  178.3850  141.6050 O   0  0  0  0  0  0  0  0  0  0  0  0
  187.7480  177.8890  144.2640 C   0  0  0  0  0  3  0  0  0  0  0  0
  185.7100  178.5810  145.4580 C   0  0  0  0  0  2  0  0  0  0  0  0
  187.2440  178.4260  140.6310 N   0  0  0  0  0  0  0  0  0  0  0  0
  184.8790  178.2350  144.2150 C   0  0  1  0  0  3  0  0  0  0  0  0
  180.5070  178.0340  139.7190 C   0  0  0  0  0  0  0  0  0  0  0  0
  183.6680  179.1530  144.2410 C   0  0  0  0  0  1  0  0  0  0  0  0
  178.9320  177.3100  139.9630 Cl  0  0  0  0  0  0  0  0  0  0  0  0
  185.6870  178.3580  142.9220 C   0  0  0  0  0  0  0  0  0  0  0  0
  185.3580  178.8050  139.1980 N   0  0  0  0  0  0  0  0  0  0  0  0
  187.0960  178.0150  145.4160 C   0  0  0  0  0  3  0  0  0  0  0  0
  187.0850  178.1910  142.9890 C   0  0  0  0  0  0  0  0  0  0  0  0
  183.0210  179.1930  139.3390 C   0  0  0  0  0  0  0  0  0  0  0  0
  185.0650  178.4590  141.6500 C   0  0  0  0  0  0  0  0  0  0  0  0
  181.4810  177.9400  140.7150 C   0  0  0  0  0  3  0  0  0  0  0  0
  187.8440  178.2300  141.8280 C   0  0  0  0  0  3  0  0  0  0  0  0
  180.7880  178.7070  138.5300 C   0  0  0  0  0  3  0  0  0  0  0  0
  182.0440  179.2870  138.3430 C   0  0  0  0  0  3  0  0  0  0  0  0
  182.7490  178.5050  140.5380 C   0  0  0  0  0  0  0  0  0  0  0  0
  186.7040  176.7950  135.6960 C   0  0  0  0  0  3  0  0  0  0  0  0
  185.8210  178.1140  138.0180 C   0  0  0  0  0  0  0  0  0  0  0  0
  185.2020  176.9280  137.5880 C   0  0  0  0  0  3  0  0  0  0  0  0
  185.6410  176.2720  136.4360 C   0  0  0  0  0  3  0  0  0  0  0  0
  187.3260  177.9760  136.1080 C   0  0  0  0  0  3  0  0  0  0  0  0
  186.8860  178.6320  137.2600 C   0  0  0  0  0  3  0  0  0  0  0  0
  1 12  1  0  0  0  0
  1 15  1  0  0  0  0
  2  6  2  0  0  0  0
  2 16  1  0  0  0  0
  3 16  1  0  0  0  0
  4 13  2  0  0  0  0
  6 18  1  0  0  0  0
  7  9  1  6  0  0  0
  7  5  1  0  0  0  0
  8 10  1  0  0  0  0
  8 17  1  0  0  0  0
 11 14  1  0  0  0  0
 11  7  1  0  0  0  0
 12  2  1  0  0  0  0
 13  5  1  0  0  0  0
 14  4  1  0  0  0  0
 15 21  1  0  0  0  0
 16 11  2  0  0  0  0
 18 14  2  0  0  0  0
 19  8  2  0  0  0  0
 20 19  1  0  0  0  0
 20 15  2  0  0  0  0
 21 17  2  0  0  0  0
 21  3  1  0  0  0  0
 22 26  2  0  0  0  0
 22 25  1  0  0  0  0
 23 12  1  0  0  0  0
 24 23  1  0  0  0  0
 25 24  2  0  0  0  0
 26 27  1  0  0  0  0
 27 23  2  0  0  0  0
M  END
>  <MODEL>
4

>  <REMARK>
 VINA RESULT:      -8.3      4.431      7.856
  Name = 
  1 active torsions:
  status: ('A' for Active; 'I' for Inactive)
    1  A    between atoms: C_9  and  N_15
                            x       y       z     vdW  Elec       q    Type
                         _______ _______ _______ _____ _____    ______ ____

>  <TORSDO>
F 1

$$$$
=
 OpenBabel10262419593D

 27 31  0  0  1  0  0  0  0  0999 V2000
  189.3580  179.0240  142.3350 C   0  0  0  0  0  2  0  0  0  0  0  0
  188.3060  177.9500  140.3860 C   0  0  0  0  0  0  0  0  0  0  0  0
  190.3830  176.6430  140.8790 O   0  0  0  0  0  0  0  0  0  0  0  0
  188.5230  176.6800  136.3390 C   0  0  0  0  0  3  0  0  0  0  0  0
  190.9160  176.1500  136.5680 C   0  0  0  0  0  2  0  0  0  0  0  0
  187.3460  178.2680  139.4760 N   0  0  0  0  0  0  0  0  0  0  0  0
  190.7260  176.0060  138.0840 C   0  0  1  0  0  3  0  0  0  0  0  0
  191.5340  175.9230  144.3070 C   0  0  0  0  0  0  0  0  0  0  0  0
  192.0570  176.3740  138.7200 C   0  0  0  0  0  1  0  0  0  0  0  0
  192.4300  174.6630  145.1270 Cl  0  0  0  0  0  0  0  0  0  0  0  0
  189.5660  176.8530  138.6090 C   0  0  0  0  0  0  0  0  0  0  0  0
  188.1730  178.4550  141.7190 N   0  0  0  0  0  0  0  0  0  0  0  0
  189.6240  176.1530  135.8110 C   0  0  0  0  0  3  0  0  0  0  0  0
  188.5140  177.1670  137.7250 C   0  0  0  0  0  0  0  0  0  0  0  0
  190.1100  177.9340  142.9880 C   0  0  0  0  0  0  0  0  0  0  0  0
  189.4300  177.1790  139.9840 C   0  0  0  0  0  0  0  0  0  0  0  0
  191.2830  175.8230  142.9370 C   0  0  0  0  0  3  0  0  0  0  0  0
  187.4130  177.8780  138.1810 C   0  0  0  0  0  3  0  0  0  0  0  0
  191.0720  177.0290  145.0210 C   0  0  0  0  0  3  0  0  0  0  0  0
  190.3630  178.0330  144.3610 C   0  0  0  0  0  3  0  0  0  0  0  0
  190.5630  176.8160  142.2620 C   0  0  0  0  0  0  0  0  0  0  0  0
  184.4760  178.4390  143.8280 C   0  0  0  0  0  3  0  0  0  0  0  0
  186.9180  178.4360  142.4310 C   0  0  0  0  0  0  0  0  0  0  0  0
  186.8280  177.8780  143.7180 C   0  0  0  0  0  3  0  0  0  0  0  0
  185.6140  177.8780  144.4110 C   0  0  0  0  0  3  0  0  0  0  0  0
  184.5520  179.0030  142.5520 C   0  0  0  0  0  3  0  0  0  0  0  0
  185.7660  179.0030  141.8590 C   0  0  0  0  0  3  0  0  0  0  0  0
  1 15  1  0  0  0  0
  2 12  1  0  0  0  0
  3 21  1  0  0  0  0
  4 14  1  0  0  0  0
  5  7  1  0  0  0  0
  6  2  2  0  0  0  0
  7 11  1  0  0  0  0
  7  9  1  1  0  0  0
  8 19  1  0  0  0  0
  8 10  1  0  0  0  0
 11 16  2  0  0  0  0
 12  1  1  0  0  0  0
 12 23  1  0  0  0  0
 13  4  2  0  0  0  0
 13  5  1  0  0  0  0
 14 18  2  0  0  0  0
 14 11  1  0  0  0  0
 15 20  1  0  0  0  0
 16  2  1  0  0  0  0
 16  3  1  0  0  0  0
 17  8  2  0  0  0  0
 18  6  1  0  0  0  0
 20 19  2  0  0  0  0
 21 17  1  0  0  0  0
 21 15  2  0  0  0  0
 22 25  1  0  0  0  0
 23 24  1  0  0  0  0
 24 25  2  0  0  0  0
 26 22  2  0  0  0  0
 27 23  2  0  0  0  0
 27 26  1  0  0  0  0
M  END
>  <MODEL>
5

>  <REMARK>
 VINA RESULT:      -8.2      2.757      6.691
  Name = 
  1 active torsions:
  status: ('A' for Active; 'I' for Inactive)
    1  A    between atoms: C_9  and  N_15
                            x       y       z     vdW  Elec       q    Type
                         _______ _______ _______ _____ _____    ______ ____

>  <TORSDO>
F 1

$$$$
=
 OpenBabel10262419593D

 27 31  0  0  1  0  0  0  0  0999 V2000
  183.7320  177.1840  138.6370 C   0  0  0  0  0  2  0  0  0  0  0  0
  183.1900  178.5590  140.6050 C   0  0  0  0  0  0  0  0  0  0  0  0
  185.6860  178.3930  140.5230 O   0  0  0  0  0  0  0  0  0  0  0  0
  183.4160  179.2120  144.7950 C   0  0  0  0  0  3  0  0  0  0  0  0
  185.6670  178.2220  144.8910 C   0  0  0  0  0  2  0  0  0  0  0  0
  182.0870  178.8250  141.3560 N   0  0  0  0  0  0  0  0  0  0  0  0
  185.8570  178.5370  143.4010 C   0  0  1  0  0  3  0  0  0  0  0  0
  187.6000  178.4800  137.3730 C   0  0  0  0  0  0  0  0  0  0  0  0
  186.8090  177.4850  142.8570 C   0  0  0  0  0  1  0  0  0  0  0  0
  189.1850  179.0010  136.8420 Cl  0  0  0  0  0  0  0  0  0  0  0  0
  184.5290  178.5820  142.6420 C   0  0  0  0  0  0  0  0  0  0  0  0
  183.0160  178.3100  139.2050 N   0  0  0  0  0  0  0  0  0  0  0  0
  184.5090  178.9470  145.5040 C   0  0  0  0  0  3  0  0  0  0  0  0
  183.3600  178.9080  143.3590 C   0  0  0  0  0  0  0  0  0  0  0  0
  185.0750  177.6450  138.2300 C   0  0  0  0  0  0  0  0  0  0  0  0
  184.4640  178.4820  141.2280 C   0  0  0  0  0  0  0  0  0  0  0  0
  187.2270  178.6310  138.7110 C   0  0  0  0  0  3  0  0  0  0  0  0
  182.1480  179.0230  142.6930 C   0  0  0  0  0  3  0  0  0  0  0  0
  186.7100  177.9120  136.4610 C   0  0  0  0  0  3  0  0  0  0  0  0
  185.4500  177.4940  136.8910 C   0  0  0  0  0  3  0  0  0  0  0  0
  185.9620  178.2280  139.1550 C   0  0  0  0  0  0  0  0  0  0  0  0
  180.4280  180.6890  136.8040 C   0  0  0  0  0  3  0  0  0  0  0  0
  182.1480  179.1160  138.3800 C   0  0  0  0  0  0  0  0  0  0  0  0
  181.3770  178.5330  137.3600 C   0  0  0  0  0  3  0  0  0  0  0  0
  180.5240  179.3140  136.5760 C   0  0  0  0  0  3  0  0  0  0  0  0
  181.1840  181.2820  137.8190 C   0  0  0  0  0  3  0  0  0  0  0  0
  182.0370  180.5000  138.6020 C   0  0  0  0  0  3  0  0  0  0  0  0
  1 12  1  0  0  0  0
  2 16  2  0  0  0  0
  2  6  1  0  0  0  0
  3 16  1  0  0  0  0
  4 13  2  0  0  0  0
  5 13  1  0  0  0  0
  6 18  2  0  0  0  0
  7  9  1  6  0  0  0
  7  5  1  0  0  0  0
  8 17  1  0  0  0  0
 10  8  1  0  0  0  0
 11 14  2  0  0  0  0
 11  7  1  0  0  0  0
 12  2  1  0  0  0  0
 14  4  1  0  0  0  0
 15  1  1  0  0  0  0
 15 21  1  0  0  0  0
 16 11  1  0  0  0  0
 17 21  2  0  0  0  0
 18 14  1  0  0  0  0
 19 20  1  0  0  0  0
 19  8  2  0  0  0  0
 20 15  2  0  0  0  0
 21  3  1  0  0  0  0
 22 26  1  0  0  0  0
 23 27  1  0  0  0  0
 23 12  1  0  0  0  0
 24 23  2  0  0  0  0
 25 22  2  0  0  0  0
 25 24  1  0  0  0  0
 26 27  2  0  0  0  0
M  END
>  <MODEL>
6

>  <REMARK>
 VINA RESULT:      -7.8      4.478      8.119
  Name = 
  1 active torsions:
  status: ('A' for Active; 'I' for Inactive)
    1  A    between atoms: C_9  and  N_15
                            x       y       z     vdW  Elec       q    Type
                         _______ _______ _______ _____ _____    ______ ____

>  <TORSDO>
F 1

$$$$
=
 OpenBabel10262419593D

 27 31  0  0  1  0  0  0  0  0999 V2000
  187.9070  176.4440  142.8660 C   0  0  0  0  0  2  0  0  0  0  0  0
  189.0290  177.4900  140.9410 C   0  0  0  0  0  0  0  0  0  0  0  0
  186.6470  178.2550  140.8740 O   0  0  0  0  0  0  0  0  0  0  0  0
  189.2990  178.1100  136.7490 C   0  0  0  0  0  3  0  0  0  0  0  0
  186.8510  178.0140  136.5140 C   0  0  0  0  0  2  0  0  0  0  0  0
  190.1930  177.3200  140.2580 N   0  0  0  0  0  0  0  0  0  0  0  0
  186.7060  178.4030  137.9910 C   0  0  1  0  0  3  0  0  0  0  0  0
  184.7220  179.0930  143.9040 C   0  0  0  0  0  0  0  0  0  0  0  0
  185.4030  177.7840  138.4720 C   0  0  0  0  0  1  0  0  0  0  0  0
  183.4130  180.1680  144.3430 Cl  0  0  0  0  0  0  0  0  0  0  0  0
  187.9110  177.9700  138.8280 C   0  0  0  0  0  0  0  0  0  0  0  0
  189.0190  177.2190  142.3470 N   0  0  0  0  0  0  0  0  0  0  0  0
  188.2270  178.2530  135.9740 C   0  0  0  0  0  3  0  0  0  0  0  0
  189.1570  177.8300  138.1830 C   0  0  0  0  0  0  0  0  0  0  0  0
  186.8080  177.3730  143.1950 C   0  0  0  0  0  0  0  0  0  0  0  0
  187.8530  177.8760  140.2430 C   0  0  0  0  0  0  0  0  0  0  0  0
  185.2000  179.0730  142.5930 C   0  0  0  0  0  3  0  0  0  0  0  0
  190.2860  177.5030  138.9200 C   0  0  0  0  0  3  0  0  0  0  0  0
  185.2870  178.2530  144.8650 C   0  0  0  0  0  3  0  0  0  0  0  0
  186.3270  177.3940  144.5080 C   0  0  0  0  0  3  0  0  0  0  0  0
  186.2510  178.2260  142.2220 C   0  0  0  0  0  0  0  0  0  0  0  0
  192.1010  178.5320  144.9740 C   0  0  0  0  0  3  0  0  0  0  0  0
  190.0740  177.6630  143.2270 C   0  0  0  0  0  0  0  0  0  0  0  0
  190.5020  179.0020  143.2190 C   0  0  0  0  0  3  0  0  0  0  0  0
  191.5100  179.4330  144.0850 C   0  0  0  0  0  3  0  0  0  0  0  0
  191.6800  177.1990  144.9980 C   0  0  0  0  0  3  0  0  0  0  0  0
  190.6720  176.7690  144.1310 C   0  0  0  0  0  3  0  0  0  0  0  0
  1 15  1  0  0  0  0
  2 12  1  0  0  0  0
  3 21  1  0  0  0  0
  4 14  1  0  0  0  0
  5  7  1  0  0  0  0
  6  2  1  0  0  0  0
  7  9  1  1  0  0  0
  7 11  1  0  0  0  0
  8 10  1  0  0  0  0
  8 19  1  0  0  0  0
 11 16  1  0  0  0  0
 12  1  1  0  0  0  0
 12 23  1  0  0  0  0
 13  5  1  0  0  0  0
 13  4  2  0  0  0  0
 14 11  2  0  0  0  0
 14 18  1  0  0  0  0
 15 20  1  0  0  0  0
 16  3  1  0  0  0  0
 16  2  2  0  0  0  0
 17  8  2  0  0  0  0
 18  6  2  0  0  0  0
 20 19  2  0  0  0  0
 21 17  1  0  0  0  0
 21 15  2  0  0  0  0
 22 26  1  0  0  0  0
 23 27  1  0  0  0  0
 24 23  2  0  0  0  0
 24 25  1  0  0  0  0
 25 22  2  0  0  0  0
 27 26  2  0  0  0  0
M  END
>  <MODEL>
7

>  <REMARK>
 VINA RESULT:      -7.8      3.112      5.924
  Name = 
  1 active torsions:
  status: ('A' for Active; 'I' for Inactive)
    1  A    between atoms: C_9  and  N_15
                            x       y       z     vdW  Elec       q    Type
                         _______ _______ _______ _____ _____    ______ ____

>  <TORSDO>
F 1

$$$$
=
 OpenBabel10262419593D

 27 31  0  0  1  0  0  0  0  0999 V2000
  189.8210  175.3710  143.2060 C   0  0  0  0  0  2  0  0  0  0  0  0
  188.4470  177.2870  142.5020 C   0  0  0  0  0  0  0  0  0  0  0  0
  188.5800  177.3900  144.9990 O   0  0  0  0  0  0  0  0  0  0  0  0
  184.7770  179.4180  142.6560 C   0  0  0  0  0  3  0  0  0  0  0  0
  184.4400  178.7920  145.0120 C   0  0  0  0  0  2  0  0  0  0  0  0
  187.7890  177.6760  141.3770 N   0  0  0  0  0  0  0  0  0  0  0  0
  185.9520  178.5730  145.1570 C   0  0  1  0  0  3  0  0  0  0  0  0
  191.6400  176.5630  146.8810 C   0  0  0  0  0  0  0  0  0  0  0  0
  186.1300  177.5130  146.2310 C   0  0  0  0  0  1  0  0  0  0  0  0
  192.3950  177.0370  148.3880 Cl  0  0  0  0  0  0  0  0  0  0  0  0
  186.6150  178.1910  143.8330 C   0  0  0  0  0  0  0  0  0  0  0  0
  189.6580  176.5350  142.3570 N   0  0  0  0  0  0  0  0  0  0  0  0
  184.0710  179.5510  143.7750 C   0  0  0  0  0  3  0  0  0  0  0  0
  186.0070  178.6150  142.6340 C   0  0  0  0  0  0  0  0  0  0  0  0
  190.4270  175.8060  144.4800 C   0  0  0  0  0  0  0  0  0  0  0  0
  187.8970  177.5840  143.7780 C   0  0  0  0  0  0  0  0  0  0  0  0
  190.4280  177.1390  146.4960 C   0  0  0  0  0  3  0  0  0  0  0  0
  186.6130  178.3450  141.4150 C   0  0  0  0  0  3  0  0  0  0  0  0
  192.2490  175.6080  146.0660 C   0  0  0  0  0  3  0  0  0  0  0  0
  191.6410  175.2300  144.8690 C   0  0  0  0  0  3  0  0  0  0  0  0
  189.8110  176.7790  145.2910 C   0  0  0  0  0  0  0  0  0  0  0  0
  192.6680  177.5330  139.5170 C   0  0  0  0  0  3  0  0  0  0  0  0
  190.6740  176.8880  141.3950 C   0  0  0  0  0  0  0  0  0  0  0  0
  191.8770  177.4860  141.8040 C   0  0  0  0  0  3  0  0  0  0  0  0
  192.8670  177.8090  140.8720 C   0  0  0  0  0  3  0  0  0  0  0  0
  191.4780  176.9320  139.0960 C   0  0  0  0  0  3  0  0  0  0  0  0
  190.4900  176.6100  140.0290 C   0  0  0  0  0  3  0  0  0  0  0  0
  1 15  1  0  0  0  0
  2 16  1  0  0  0  0
  3 21  1  0  0  0  0
  4 13  2  0  0  0  0
  5  7  1  0  0  0  0
  6 18  1  0  0  0  0
  6  2  2  0  0  0  0
  7  9  1  1  0  0  0
  8 10  1  0  0  0  0
 11  7  1  0  0  0  0
 12  2  1  0  0  0  0
 12  1  1  0  0  0  0
 13  5  1  0  0  0  0
 14  4  1  0  0  0  0
 14 11  1  0  0  0  0
 15 20  2  0  0  0  0
 15 21  1  0  0  0  0
 16 11  2  0  0  0  0
 16  3  1  0  0  0  0
 17  8  1  0  0  0  0
 18 14  2  0  0  0  0
 19  8  2  0  0  0  0
 20 19  1  0  0  0  0
 21 17  2  0  0  0  0
 22 25  1  0  0  0  0
 23 24  1  0  0  0  0
 23 12  1  0  0  0  0
 25 24  2  0  0  0  0
 26 22  2  0  0  0  0
 26 27  1  0  0  0  0
 27 23  2  0  0  0  0
M  END
>  <MODEL>
8

>  <REMARK>
 VINA RESULT:      -7.6      2.469      4.874
  Name = 
  1 active torsions:
  status: ('A' for Active; 'I' for Inactive)
    1  A    between atoms: C_9  and  N_15
                            x       y       z     vdW  Elec       q    Type
                         _______ _______ _______ _____ _____    ______ ____

>  <TORSDO>
F 1

$$$$
=
 OpenBabel10262419593D

 27 31  0  0  1  0  0  0  0  0999 V2000
  188.5650  179.3120  140.9490 C   0  0  0  0  0  2  0  0  0  0  0  0
  186.7940  178.4330  142.4140 C   0  0  0  0  0  0  0  0  0  0  0  0
  185.9450  178.2150  140.0690 O   0  0  0  0  0  0  0  0  0  0  0  0
  182.7830  178.5680  143.8030 C   0  0  0  0  0  3  0  0  0  0  0  0
  181.9670  179.2210  141.5750 C   0  0  0  0  0  2  0  0  0  0  0  0
  186.4890  178.4780  143.7390 N   0  0  0  0  0  0  0  0  0  0  0  0
  183.2230  178.6020  140.9470 C   0  0  1  0  0  3  0  0  0  0  0  0
  188.1000  177.2500  137.2370 C   0  0  0  0  0  0  0  0  0  0  0  0
  183.4920  179.3810  139.6700 C   0  0  0  0  0  1  0  0  0  0  0  0
  187.9240  176.4130  135.7100 Cl  0  0  0  0  0  0  0  0  0  0  0  0
  184.4150  178.6060  141.9040 C   0  0  0  0  0  0  0  0  0  0  0  0
  188.1740  178.4310  142.0330 N   0  0  0  0  0  0  0  0  0  0  0  0
  181.7520  178.8030  142.9960 C   0  0  0  0  0  3  0  0  0  0  0  0
  184.1590  178.5970  143.2910 C   0  0  0  0  0  0  0  0  0  0  0  0
  188.3730  178.5910  139.6740 C   0  0  0  0  0  0  0  0  0  0  0  0
  185.7500  178.4420  141.4500 C   0  0  0  0  0  0  0  0  0  0  0  0
  186.9960  177.4140  138.0760 C   0  0  0  0  0  3  0  0  0  0  0  0
  185.2140  178.5340  144.1910 C   0  0  0  0  0  3  0  0  0  0  0  0
  189.3440  177.7560  137.6160 C   0  0  0  0  0  3  0  0  0  0  0  0
  189.4780  178.4270  138.8320 C   0  0  0  0  0  3  0  0  0  0  0  0
  187.1160  178.0740  139.3050 C   0  0  0  0  0  0  0  0  0  0  0  0
  191.1090  176.0430  143.9840 C   0  0  0  0  0  3  0  0  0  0  0  0
  189.1590  177.6170  142.7040 C   0  0  0  0  0  0  0  0  0  0  0  0
  189.2310  176.2330  142.4690 C   0  0  0  0  0  3  0  0  0  0  0  0
  190.1980  175.4510  143.1060 C   0  0  0  0  0  3  0  0  0  0  0  0
  191.0530  177.4190  144.2230 C   0  0  0  0  0  3  0  0  0  0  0  0
  190.0850  178.2000  143.5860 C   0  0  0  0  0  3  0  0  0  0  0  0
  1 12  1  0  0  0  0
  2  6  1  0  0  0  0
  3 16  1  0  0  0  0
  5 13  1  0  0  0  0
  6 18  2  0  0  0  0
  7  9  1  6  0  0  0
  7  5  1  0  0  0  0
  7 11  1  0  0  0  0
  8 19  2  0  0  0  0
  8 17  1  0  0  0  0
 10  8  1  0  0  0  0
 11 14  2  0  0  0  0
 12  2  1  0  0  0  0
 12 23  1  0  0  0  0
 13  4  2  0  0  0  0
 14  4  1  0  0  0  0
 14 18  1  0  0  0  0
 15  1  1  0  0  0  0
 16 11  1  0  0  0  0
 16  2  2  0  0  0  0
 17 21  2  0  0  0  0
 19 20  1  0  0  0  0
 20 15  2  0  0  0  0
 21 15  1  0  0  0  0
 21  3  1  0  0  0  0
 22 26  1  0  0  0  0
 23 27  1  0  0  0  0
 24 23  2  0  0  0  0
 24 25  1  0  0  0  0
 25 22  2  0  0  0  0
 27 26  2  0  0  0  0
M  END
>  <MODEL>
9

>  <REMARK>
 VINA RESULT:      -7.6      2.343      3.282
  Name = 
  1 active torsions:
  status: ('A' for Active; 'I' for Inactive)
    1  A    between atoms: C_9  and  N_15
                            x       y       z     vdW  Elec       q    Type
                         _______ _______ _______ _____ _____    ______ ____

>  <TORSDO>
F 1

$$$$
