=
 OpenBabel10262421563D

 30 33  0  0  1  0  0  0  0  0999 V2000
  185.9500  178.5360  142.1500 C   0  0  0  0  0  2  0  0  0  0  0  0
  183.4340  178.7190  141.9930 C   0  0  0  0  0  0  0  0  0  0  0  0
  185.6190  178.5270  146.4240 C   0  0  0  0  0  3  0  0  0  0  0  0
  186.9480  177.6870  142.9450 C   0  0  2  0  0  3  0  0  0  0  0  0
  186.7510  178.3150  147.2140 C   0  0  0  0  0  3  0  0  0  0  0  0
  182.1800  178.8370  142.5980 C   0  0  0  0  0  3  0  0  0  0  0  0
  183.5140  178.7730  140.5040 C   0  0  0  0  0  1  0  0  0  0  0  0
  185.6770  178.3480  145.0320 C   0  0  0  0  0  0  0  0  0  0  0  0
  182.0640  178.8080  143.9890 C   0  0  0  0  0  3  0  0  0  0  0  0
  184.5870  178.5610  142.7850 C   0  0  0  0  0  0  0  0  0  0  0  0
  186.8970  177.9650  144.4320 C   0  0  0  0  0  0  0  0  0  0  0  0
  187.9480  177.9090  146.6240 C   0  0  0  0  0  3  0  0  0  0  0  0
  188.0170  177.7240  145.2420 C   0  0  0  0  0  3  0  0  0  0  0  0
  183.2020  178.6600  144.7810 C   0  0  0  0  0  3  0  0  0  0  0  0
  184.4700  178.5390  144.1920 C   0  0  0  0  0  0  0  0  0  0  0  0
  188.2980  177.8190  142.3870 N   0  0  0  0  0  0  0  0  0  0  0  0
  191.5980  177.2130  144.1220 C   0  0  0  0  0  3  0  0  0  0  0  0
  190.4910  179.2760  143.6100 O   0  0  0  0  0  1  0  0  0  0  0  0
  189.4510  177.1570  142.9690 C   0  0  0  0  0  0  0  0  0  0  0  0
  189.5480  175.7560  142.9190 C   0  0  0  0  0  3  0  0  0  0  0  0
  190.5030  177.8870  143.5710 C   0  0  0  0  0  0  0  0  0  0  0  0
  191.6690  175.8200  144.0740 C   0  0  0  0  0  3  0  0  0  0  0  0
  190.6460  175.0920  143.4680 C   0  0  0  0  0  3  0  0  0  0  0  0
  188.4190  178.6670  141.2070 C   0  0  0  0  0  2  0  0  0  0  0  0
  188.6490  177.8130  139.9700 C   0  0  0  0  0  2  0  0  0  0  0  0
  190.1350  177.6840  139.6920 C   0  0  0  0  0  2  0  0  0  0  0  0
  190.4690  176.2960  139.4150 N   0  0  0  0  0  2  0  0  0  0  0  0
  190.5660  176.5970  137.1010 O   0  0  0  0  0  0  0  0  0  0  0  0
  190.6720  175.8180  138.0860 C   0  0  0  0  0  0  0  0  0  0  0  0
  190.9970  174.4510  137.8700 N   0  0  0  0  0  1  0  0  0  0  0  0
  1 10  1  0  0  0  0
  1  4  1  0  0  0  0
  2  6  2  0  0  0  0
  2 10  1  0  0  0  0
  3  5  1  0  0  0  0
  4 16  1  6  0  0  0
  4 11  1  0  0  0  0
  6  9  1  0  0  0  0
  7  2  1  0  0  0  0
  8  3  2  0  0  0  0
  9 14  2  0  0  0  0
 10 15  2  0  0  0  0
 11  8  1  0  0  0  0
 11 13  2  0  0  0  0
 12  5  2  0  0  0  0
 13 12  1  0  0  0  0
 15 14  1  0  0  0  0
 15  8  1  0  0  0  0
 16 19  1  0  0  0  0
 19 21  1  0  0  0  0
 20 19  2  0  0  0  0
 20 23  1  0  0  0  0
 21 18  1  0  0  0  0
 21 17  2  0  0  0  0
 22 17  1  0  0  0  0
 23 22  2  0  0  0  0
 24 16  1  0  0  0  0
 25 24  1  0  0  0  0
 26 25  1  0  0  0  0
 27 26  1  0  0  0  0
 28 29  2  0  0  0  0
 29 27  1  0  0  0  0
 30 29  1  0  0  0  0
M  END
>  <MODEL>
1

>  <REMARK>
 VINA RESULT:     -10.1      0.000      0.000
  Name = 
  6 active torsions:
  status: ('A' for Active; 'I' for Inactive)
    1  A    between atoms: C_4  and  N_13
    2  A    between atoms: N_7  and  C_16
    3  A    between atoms: C_8  and  N_13
    4  A    between atoms: N_13  and  C_27
    5  A    between atoms: C_16  and  C_30
    6  A    between atoms: C_27  and  C_30
                            x       y       z     vdW  Elec       q    Type
                         _______ _______ _______ _____ _____    ______ ____

>  <TORSDO>
F 6

$$$$
=
 OpenBabel10262421563D

 30 33  0  0  1  0  0  0  0  0999 V2000
  185.9230  178.5330  142.1390 C   0  0  0  0  0  2  0  0  0  0  0  0
  183.4060  178.7120  141.9960 C   0  0  0  0  0  0  0  0  0  0  0  0
  185.6160  178.5340  146.4150 C   0  0  0  0  0  3  0  0  0  0  0  0
  186.9260  177.6880  142.9310 C   0  0  2  0  0  3  0  0  0  0  0  0
  186.7530  178.3250  147.1990 C   0  0  0  0  0  3  0  0  0  0  0  0
  182.1550  178.8290  142.6090 C   0  0  0  0  0  3  0  0  0  0  0  0
  183.4760  178.7620  140.5070 C   0  0  0  0  0  1  0  0  0  0  0  0
  185.6670  178.3510  145.0230 C   0  0  0  0  0  0  0  0  0  0  0  0
  182.0470  178.8030  144.0000 C   0  0  0  0  0  3  0  0  0  0  0  0
  184.5630  178.5580  142.7830 C   0  0  0  0  0  0  0  0  0  0  0  0
  186.8830  177.9700  144.4180 C   0  0  0  0  0  0  0  0  0  0  0  0
  187.9470  177.9200  146.6030 C   0  0  0  0  0  3  0  0  0  0  0  0
  188.0090  177.7320  145.2210 C   0  0  0  0  0  3  0  0  0  0  0  0
  183.1900  178.6590  144.7860 C   0  0  0  0  0  3  0  0  0  0  0  0
  184.4540  178.5380  144.1910 C   0  0  0  0  0  0  0  0  0  0  0  0
  188.2730  177.8200  142.3640 N   0  0  0  0  0  0  0  0  0  0  0  0
  191.5860  177.2270  144.0790 C   0  0  0  0  0  3  0  0  0  0  0  0
  190.4740  179.2860  143.5620 O   0  0  0  0  0  1  0  0  0  0  0  0
  189.4300  177.1630  142.9420 C   0  0  0  0  0  0  0  0  0  0  0  0
  189.5280  175.7620  142.9010 C   0  0  0  0  0  3  0  0  0  0  0  0
  190.4860  177.8970  143.5320 C   0  0  0  0  0  0  0  0  0  0  0  0
  191.6580  175.8340  144.0390 C   0  0  0  0  0  3  0  0  0  0  0  0
  190.6300  175.1010  143.4460 C   0  0  0  0  0  3  0  0  0  0  0  0
  188.3860  178.6640  141.1810 C   0  0  0  0  0  2  0  0  0  0  0  0
  189.0860  177.9080  140.0640 C   0  0  0  0  0  2  0  0  0  0  0  0
  189.0040  178.6940  138.7690 C   0  0  0  0  0  2  0  0  0  0  0  0
  188.2980  177.9200  137.7600 N   0  0  0  0  0  2  0  0  0  0  0  0
  186.2040  178.8090  138.2910 O   0  0  0  0  0  0  0  0  0  0  0  0
  186.8870  178.0280  137.5750 C   0  0  0  0  0  0  0  0  0  0  0  0
  186.2460  177.2480  136.5750 N   0  0  0  0  0  1  0  0  0  0  0  0
  1 10  1  0  0  0  0
  1  4  1  0  0  0  0
  2  6  2  0  0  0  0
  2 10  1  0  0  0  0
  3  5  1  0  0  0  0
  4 16  1  6  0  0  0
  4 11  1  0  0  0  0
  6  9  1  0  0  0  0
  7  2  1  0  0  0  0
  8  3  2  0  0  0  0
  9 14  2  0  0  0  0
 10 15  2  0  0  0  0
 11  8  1  0  0  0  0
 11 13  2  0  0  0  0
 12  5  2  0  0  0  0
 13 12  1  0  0  0  0
 15 14  1  0  0  0  0
 15  8  1  0  0  0  0
 16 19  1  0  0  0  0
 19 21  1  0  0  0  0
 20 19  2  0  0  0  0
 20 23  1  0  0  0  0
 21 18  1  0  0  0  0
 21 17  2  0  0  0  0
 22 17  1  0  0  0  0
 23 22  2  0  0  0  0
 24 16  1  0  0  0  0
 25 24  1  0  0  0  0
 26 25  1  0  0  0  0
 27 26  1  0  0  0  0
 29 27  1  0  0  0  0
 29 28  2  0  0  0  0
 30 29  1  0  0  0  0
M  END
>  <MODEL>
2

>  <REMARK>
 VINA RESULT:     -10.1      1.567      1.735
  Name = 
  6 active torsions:
  status: ('A' for Active; 'I' for Inactive)
    1  A    between atoms: C_4  and  N_13
    2  A    between atoms: N_7  and  C_16
    3  A    between atoms: C_8  and  N_13
    4  A    between atoms: N_13  and  C_27
    5  A    between atoms: C_16  and  C_30
    6  A    between atoms: C_27  and  C_30
                            x       y       z     vdW  Elec       q    Type
                         _______ _______ _______ _____ _____    ______ ____

>  <TORSDO>
F 6

$$$$
=
 OpenBabel10262421563D

 30 33  0  0  1  0  0  0  0  0999 V2000
  186.1450  178.4850  142.2190 C   0  0  0  0  0  2  0  0  0  0  0  0
  183.7080  178.6740  141.5780 C   0  0  0  0  0  0  0  0  0  0  0  0
  185.0050  178.6270  146.3490 C   0  0  0  0  0  3  0  0  0  0  0  0
  186.9630  177.6600  143.2180 C   0  0  2  0  0  3  0  0  0  0  0  0
  185.9630  178.4380  147.3470 C   0  0  0  0  0  3  0  0  0  0  0  0
  182.3620  178.8190  141.9280 C   0  0  0  0  0  3  0  0  0  0  0  0
  184.0700  178.6750  140.1310 C   0  0  0  0  0  1  0  0  0  0  0  0
  185.3250  178.3990  145.0000 C   0  0  0  0  0  0  0  0  0  0  0  0
  181.9830  178.8390  143.2710 C   0  0  0  0  0  3  0  0  0  0  0  0
  184.6860  178.5390  142.5810 C   0  0  0  0  0  0  0  0  0  0  0  0
  186.6320  177.9900  144.6580 C   0  0  0  0  0  0  0  0  0  0  0  0
  187.2460  178.0060  147.0100 C   0  0  0  0  0  3  0  0  0  0  0  0
  187.5750  177.7720  145.6740 C   0  0  0  0  0  3  0  0  0  0  0  0
  182.9470  178.7140  144.2720 C   0  0  0  0  0  3  0  0  0  0  0  0
  184.3030  178.5660  143.9400 C   0  0  0  0  0  0  0  0  0  0  0  0
  188.3960  177.7660  142.9240 N   0  0  0  0  0  0  0  0  0  0  0  0
  190.3340  176.5460  139.9200 C   0  0  0  0  0  3  0  0  0  0  0  0
  190.2980  175.7080  142.1640 O   0  0  0  0  0  1  0  0  0  0  0  0
  188.9270  177.6470  141.5790 C   0  0  0  0  0  0  0  0  0  0  0  0
  188.5470  178.5750  140.5950 C   0  0  0  0  0  3  0  0  0  0  0  0
  189.8440  176.6280  141.2270 C   0  0  0  0  0  0  0  0  0  0  0  0
  189.9340  177.4700  138.9540 C   0  0  0  0  0  3  0  0  0  0  0  0
  189.0430  178.4880  139.2930 C   0  0  0  0  0  3  0  0  0  0  0  0
  189.2670  177.9920  144.0710 C   0  0  0  0  0  2  0  0  0  0  0  0
  190.4680  178.8270  143.6600 C   0  0  0  0  0  2  0  0  0  0  0  0
  191.7520  178.1510  144.1020 C   0  0  0  0  0  2  0  0  0  0  0  0
  191.6480  177.7490  145.4960 N   0  0  0  0  0  2  0  0  0  0  0  0
  192.0320  175.4880  145.0550 O   0  0  0  0  0  0  0  0  0  0  0  0
  191.8000  176.3900  145.9040 C   0  0  0  0  0  0  0  0  0  0  0  0
  191.6880  176.0510  147.2800 N   0  0  0  0  0  1  0  0  0  0  0  0
  1 10  1  0  0  0  0
  1  4  1  0  0  0  0
  2  6  2  0  0  0  0
  2 10  1  0  0  0  0
  3  5  1  0  0  0  0
  4 16  1  1  0  0  0
  4 11  1  0  0  0  0
  6  9  1  0  0  0  0
  7  2  1  0  0  0  0
  8  3  2  0  0  0  0
  9 14  2  0  0  0  0
 10 15  2  0  0  0  0
 11  8  1  0  0  0  0
 11 13  2  0  0  0  0
 12  5  2  0  0  0  0
 13 12  1  0  0  0  0
 15 14  1  0  0  0  0
 15  8  1  0  0  0  0
 16 24  1  0  0  0  0
 17 21  1  0  0  0  0
 19 16  1  0  0  0  0
 20 19  1  0  0  0  0
 21 19  2  0  0  0  0
 21 18  1  0  0  0  0
 22 23  1  0  0  0  0
 22 17  2  0  0  0  0
 23 20  2  0  0  0  0
 25 24  1  0  0  0  0
 25 26  1  0  0  0  0
 26 27  1  0  0  0  0
 27 29  1  0  0  0  0
 28 29  2  0  0  0  0
 29 30  1  0  0  0  0
M  END
>  <MODEL>
3

>  <REMARK>
 VINA RESULT:      -9.7      2.108      3.822
  Name = 
  6 active torsions:
  status: ('A' for Active; 'I' for Inactive)
    1  A    between atoms: C_4  and  N_13
    2  A    between atoms: N_7  and  C_16
    3  A    between atoms: C_8  and  N_13
    4  A    between atoms: N_13  and  C_27
    5  A    between atoms: C_16  and  C_30
    6  A    between atoms: C_27  and  C_30
                            x       y       z     vdW  Elec       q    Type
                         _______ _______ _______ _____ _____    ______ ____

>  <TORSDO>
F 6

$$$$
=
 OpenBabel10262421563D

 30 33  0  0  1  0  0  0  0  0999 V2000
  187.5330  178.1390  142.0640 C   0  0  0  0  0  2  0  0  0  0  0  0
  186.6490  178.3410  139.7050 C   0  0  0  0  0  0  0  0  0  0  0  0
  183.6560  179.2120  143.5430 C   0  0  0  0  0  3  0  0  0  0  0  0
  187.0590  177.4910  143.3690 C   0  0  2  0  0  3  0  0  0  0  0  0
  183.3940  179.1760  144.9140 C   0  0  0  0  0  3  0  0  0  0  0  0
  185.6160  178.6390  138.8110 C   0  0  0  0  0  3  0  0  0  0  0  0
  187.9960  178.0160  139.1530 C   0  0  0  0  0  1  0  0  0  0  0  0
  184.8540  178.6870  143.0310 C   0  0  0  0  0  0  0  0  0  0  0  0
  184.3450  178.9630  139.2870 C   0  0  0  0  0  3  0  0  0  0  0  0
  186.4060  178.3580  141.0920 C   0  0  0  0  0  0  0  0  0  0  0  0
  185.8040  178.1360  143.9180 C   0  0  0  0  0  0  0  0  0  0  0  0
  184.3200  178.6050  145.7870 C   0  0  0  0  0  3  0  0  0  0  0  0
  185.5130  178.0770  145.2900 C   0  0  0  0  0  3  0  0  0  0  0  0
  184.0990  178.9910  140.6600 C   0  0  0  0  0  3  0  0  0  0  0  0
  185.1220  178.6920  141.5730 C   0  0  0  0  0  0  0  0  0  0  0  0
  188.1500  177.4440  144.3480 N   0  0  0  0  0  0  0  0  0  0  0  0
  191.6600  176.9950  143.0280 C   0  0  0  0  0  3  0  0  0  0  0  0
  189.8330  175.4460  143.0820 O   0  0  0  0  0  1  0  0  0  0  0  0
  189.5330  177.6970  143.9890 C   0  0  0  0  0  0  0  0  0  0  0  0
  190.1130  178.9420  144.2870 C   0  0  0  0  0  3  0  0  0  0  0  0
  190.3310  176.7130  143.3610 C   0  0  0  0  0  0  0  0  0  0  0  0
  192.2140  178.2420  143.3220 C   0  0  0  0  0  3  0  0  0  0  0  0
  191.4410  179.2150  143.9550 C   0  0  0  0  0  3  0  0  0  0  0  0
  187.7650  177.1170  145.7160 C   0  0  0  0  0  2  0  0  0  0  0  0
  188.4500  178.0590  146.6920 C   0  0  0  0  0  2  0  0  0  0  0  0
  189.2490  177.2680  147.7100 C   0  0  0  0  0  2  0  0  0  0  0  0
  190.1490  176.3500  147.0320 N   0  0  0  0  0  2  0  0  0  0  0  0
  192.0540  177.1160  148.1460 O   0  0  0  0  0  0  0  0  0  0  0  0
  191.5510  176.3280  147.3010 C   0  0  0  0  0  0  0  0  0  0  0  0
  192.3870  175.4100  146.6080 N   0  0  0  0  0  1  0  0  0  0  0  0
  1  4  1  0  0  0  0
  2 10  1  0  0  0  0
  3  5  1  0  0  0  0
  4 11  1  0  0  0  0
  4 16  1  1  0  0  0
  5 12  2  0  0  0  0
  6  9  1  0  0  0  0
  6  2  2  0  0  0  0
  7  2  1  0  0  0  0
  8  3  2  0  0  0  0
  8 11  1  0  0  0  0
  9 14  2  0  0  0  0
 10 15  2  0  0  0  0
 10  1  1  0  0  0  0
 11 13  2  0  0  0  0
 13 12  1  0  0  0  0
 14 15  1  0  0  0  0
 15  8  1  0  0  0  0
 16 24  1  0  0  0  0
 17 22  2  0  0  0  0
 17 21  1  0  0  0  0
 18 21  1  0  0  0  0
 19 20  1  0  0  0  0
 19 16  1  0  0  0  0
 21 19  2  0  0  0  0
 22 23  1  0  0  0  0
 23 20  2  0  0  0  0
 24 25  1  0  0  0  0
 25 26  1  0  0  0  0
 27 29  1  0  0  0  0
 27 26  1  0  0  0  0
 29 28  2  0  0  0  0
 30 29  1  0  0  0  0
M  END
>  <MODEL>
4

>  <REMARK>
 VINA RESULT:      -8.8      2.567      4.915
  Name = 
  6 active torsions:
  status: ('A' for Active; 'I' for Inactive)
    1  A    between atoms: C_4  and  N_13
    2  A    between atoms: N_7  and  C_16
    3  A    between atoms: C_8  and  N_13
    4  A    between atoms: N_13  and  C_27
    5  A    between atoms: C_16  and  C_30
    6  A    between atoms: C_27  and  C_30
                            x       y       z     vdW  Elec       q    Type
                         _______ _______ _______ _____ _____    ______ ____

>  <TORSDO>
F 6

$$$$
=
 OpenBabel10262421563D

 30 33  0  0  1  0  0  0  0  0999 V2000
  186.8190  177.9380  143.2880 C   0  0  0  0  0  2  0  0  0  0  0  0
  184.8780  178.5460  144.7880 C   0  0  0  0  0  0  0  0  0  0  0  0
  184.2670  178.4540  139.8830 C   0  0  0  0  0  3  0  0  0  0  0  0
  187.4410  178.4990  142.0050 C   0  0  2  0  0  3  0  0  0  0  0  0
  184.7950  178.3710  138.5930 C   0  0  0  0  0  3  0  0  0  0  0  0
  183.5350  178.8890  144.9650 C   0  0  0  0  0  3  0  0  0  0  0  0
  185.7230  178.3300  145.9990 C   0  0  0  0  0  1  0  0  0  0  0  0
  185.1170  178.4740  141.0010 C   0  0  0  0  0  0  0  0  0  0  0  0
  182.7060  179.0840  143.8600 C   0  0  0  0  0  3  0  0  0  0  0  0
  185.4040  178.4050  143.4900 C   0  0  0  0  0  0  0  0  0  0  0  0
  186.5130  178.3930  140.8120 C   0  0  0  0  0  0  0  0  0  0  0  0
  186.1760  178.3200  138.4060 C   0  0  0  0  0  3  0  0  0  0  0  0
  187.0310  178.3430  139.5090 C   0  0  0  0  0  3  0  0  0  0  0  0
  183.2170  178.9380  142.5700 C   0  0  0  0  0  3  0  0  0  0  0  0
  184.5630  178.5960  142.3710 C   0  0  0  0  0  0  0  0  0  0  0  0
  188.7550  177.8950  141.7610 N   0  0  0  0  0  0  0  0  0  0  0  0
  191.0850  176.5070  144.3890 C   0  0  0  0  0  3  0  0  0  0  0  0
  189.4400  175.3880  143.0540 O   0  0  0  0  0  1  0  0  0  0  0  0
  189.7720  177.7970  142.7910 C   0  0  0  0  0  0  0  0  0  0  0  0
  190.4410  178.9550  143.2210 C   0  0  0  0  0  3  0  0  0  0  0  0
  190.0980  176.5620  143.3990 C   0  0  0  0  0  0  0  0  0  0  0  0
  191.7470  177.6670  144.7930 C   0  0  0  0  0  3  0  0  0  0  0  0
  191.4230  178.8920  144.2120 C   0  0  0  0  0  3  0  0  0  0  0  0
  188.9870  177.4010  140.4090 C   0  0  0  0  0  2  0  0  0  0  0  0
  190.4790  177.3300  140.1270 C   0  0  0  0  0  2  0  0  0  0  0  0
  190.7210  177.0300  138.6600 C   0  0  0  0  0  2  0  0  0  0  0  0
  190.7240  175.5930  138.4400 N   0  0  0  0  0  2  0  0  0  0  0  0
  189.1080  175.6700  136.7550 O   0  0  0  0  0  0  0  0  0  0  0  0
  189.8850  174.9760  137.4630 C   0  0  0  0  0  0  0  0  0  0  0  0
  189.9270  173.5660  137.2880 N   0  0  0  0  0  1  0  0  0  0  0  0
  1 10  1  0  0  0  0
  2  6  1  0  0  0  0
  2  7  1  0  0  0  0
  3  8  1  0  0  0  0
  4 16  1  6  0  0  0
  4  1  1  0  0  0  0
  5  3  2  0  0  0  0
  8 15  1  0  0  0  0
  9  6  2  0  0  0  0
 10  2  2  0  0  0  0
 11  8  2  0  0  0  0
 11  4  1  0  0  0  0
 12  5  1  0  0  0  0
 12 13  2  0  0  0  0
 13 11  1  0  0  0  0
 14  9  1  0  0  0  0
 15 14  2  0  0  0  0
 15 10  1  0  0  0  0
 16 19  1  0  0  0  0
 17 22  1  0  0  0  0
 18 21  1  0  0  0  0
 19 20  2  0  0  0  0
 19 21  1  0  0  0  0
 20 23  1  0  0  0  0
 21 17  2  0  0  0  0
 23 22  2  0  0  0  0
 24 16  1  0  0  0  0
 25 24  1  0  0  0  0
 26 25  1  0  0  0  0
 27 26  1  0  0  0  0
 28 29  2  0  0  0  0
 29 27  1  0  0  0  0
 30 29  1  0  0  0  0
M  END
>  <MODEL>
5

>  <REMARK>
 VINA RESULT:      -8.5      1.445      3.617
  Name = 
  6 active torsions:
  status: ('A' for Active; 'I' for Inactive)
    1  A    between atoms: C_4  and  N_13
    2  A    between atoms: N_7  and  C_16
    3  A    between atoms: C_8  and  N_13
    4  A    between atoms: N_13  and  C_27
    5  A    between atoms: C_16  and  C_30
    6  A    between atoms: C_27  and  C_30
                            x       y       z     vdW  Elec       q    Type
                         _______ _______ _______ _____ _____    ______ ____

>  <TORSDO>
F 6

$$$$
=
 OpenBabel10262421563D

 30 33  0  0  1  0  0  0  0  0999 V2000
  186.7210  178.0120  143.3310 C   0  0  0  0  0  2  0  0  0  0  0  0
  184.8970  178.6290  144.9680 C   0  0  0  0  0  0  0  0  0  0  0  0
  183.9230  178.5120  140.1220 C   0  0  0  0  0  3  0  0  0  0  0  0
  187.2450  178.5660  142.0020 C   0  0  2  0  0  3  0  0  0  0  0  0
  184.3540  178.4220  138.7960 C   0  0  0  0  0  3  0  0  0  0  0  0
  183.5700  178.9740  145.2420 C   0  0  0  0  0  3  0  0  0  0  0  0
  185.8290  178.4190  146.1130 C   0  0  0  0  0  1  0  0  0  0  0  0
  184.8540  178.5370  141.1740 C   0  0  0  0  0  0  0  0  0  0  0  0
  182.6620  179.1630  144.2000 C   0  0  0  0  0  3  0  0  0  0  0  0
  185.3240  178.4810  143.6350 C   0  0  0  0  0  0  0  0  0  0  0  0
  186.2320  178.4540  140.8820 C   0  0  0  0  0  0  0  0  0  0  0  0
  185.7170  178.3690  138.5080 C   0  0  0  0  0  3  0  0  0  0  0  0
  186.6520  178.3970  139.5440 C   0  0  0  0  0  3  0  0  0  0  0  0
  183.0760  179.0100  142.8770 C   0  0  0  0  0  3  0  0  0  0  0  0
  184.4030  178.6670  142.5800 C   0  0  0  0  0  0  0  0  0  0  0  0
  188.5380  177.9600  141.6640 N   0  0  0  0  0  0  0  0  0  0  0  0
  190.9690  176.4390  144.1210 C   0  0  0  0  0  3  0  0  0  0  0  0
  189.2280  175.4000  142.8450 O   0  0  0  0  0  1  0  0  0  0  0  0
  189.6050  177.8070  142.6340 C   0  0  0  0  0  0  0  0  0  0  0  0
  190.3250  178.9350  143.0620 C   0  0  0  0  0  3  0  0  0  0  0  0
  189.9330  176.5470  143.1880 C   0  0  0  0  0  0  0  0  0  0  0  0
  191.6810  177.5700  144.5230 C   0  0  0  0  0  3  0  0  0  0  0  0
  191.3560  178.8200  143.9960 C   0  0  0  0  0  3  0  0  0  0  0  0
  188.6940  177.5230  140.2820 C   0  0  0  0  0  2  0  0  0  0  0  0
  190.1320  177.7190  139.8300 C   0  0  0  0  0  2  0  0  0  0  0  0
  190.7990  176.3750  139.6070 C   0  0  0  0  0  2  0  0  0  0  0  0
  191.5980  176.4120  138.3930 N   0  0  0  0  0  2  0  0  0  0  0  0
  193.5700  177.0000  139.4980 O   0  0  0  0  0  0  0  0  0  0  0  0
  192.9880  176.7350  138.4130 C   0  0  0  0  0  0  0  0  0  0  0  0
  193.7230  176.7570  137.1950 N   0  0  0  0  0  1  0  0  0  0  0  0
  1 10  1  0  0  0  0
  2  6  1  0  0  0  0
  2  7  1  0  0  0  0
  3  8  1  0  0  0  0
  4 16  1  6  0  0  0
  4  1  1  0  0  0  0
  5  3  2  0  0  0  0
  8 15  1  0  0  0  0
  9  6  2  0  0  0  0
 10  2  2  0  0  0  0
 11  8  2  0  0  0  0
 11  4  1  0  0  0  0
 12  5  1  0  0  0  0
 12 13  2  0  0  0  0
 13 11  1  0  0  0  0
 14  9  1  0  0  0  0
 15 14  2  0  0  0  0
 15 10  1  0  0  0  0
 16 19  1  0  0  0  0
 17 22  1  0  0  0  0
 18 21  1  0  0  0  0
 19 20  2  0  0  0  0
 19 21  1  0  0  0  0
 20 23  1  0  0  0  0
 21 17  2  0  0  0  0
 23 22  2  0  0  0  0
 24 16  1  0  0  0  0
 25 24  1  0  0  0  0
 26 25  1  0  0  0  0
 27 29  1  0  0  0  0
 27 26  1  0  0  0  0
 29 28  2  0  0  0  0
 30 29  1  0  0  0  0
M  END
>  <MODEL>
6

>  <REMARK>
 VINA RESULT:      -8.5      1.731      3.727
  Name = 
  6 active torsions:
  status: ('A' for Active; 'I' for Inactive)
    1  A    between atoms: C_4  and  N_13
    2  A    between atoms: N_7  and  C_16
    3  A    between atoms: C_8  and  N_13
    4  A    between atoms: N_13  and  C_27
    5  A    between atoms: C_16  and  C_30
    6  A    between atoms: C_27  and  C_30
                            x       y       z     vdW  Elec       q    Type
                         _______ _______ _______ _____ _____    ______ ____

>  <TORSDO>
F 6

$$$$
=
 OpenBabel10262421563D

 30 33  0  0  1  0  0  0  0  0999 V2000
  187.4560  178.1620  140.9110 C   0  0  0  0  0  2  0  0  0  0  0  0
  185.5570  178.2250  142.5770 C   0  0  0  0  0  0  0  0  0  0  0  0
  190.2160  177.7570  144.1660 C   0  0  0  0  0  3  0  0  0  0  0  0
  188.7040  177.3000  140.6900 C   0  0  2  0  0  3  0  0  0  0  0  0
  191.5710  177.5360  143.9120 C   0  0  0  0  0  3  0  0  0  0  0  0
  185.0910  178.2220  143.8950 C   0  0  0  0  0  3  0  0  0  0  0  0
  184.5720  178.4150  141.4730 C   0  0  0  0  0  1  0  0  0  0  0  0
  189.2770  177.7050  143.1220 C   0  0  0  0  0  0  0  0  0  0  0  0
  185.9820  178.0640  144.9570 C   0  0  0  0  0  3  0  0  0  0  0  0
  186.9310  178.0590  142.3160 C   0  0  0  0  0  0  0  0  0  0  0  0
  189.7170  177.4420  141.8070 C   0  0  0  0  0  0  0  0  0  0  0  0
  192.0010  177.2480  142.6170 C   0  0  0  0  0  3  0  0  0  0  0  0
  191.0770  177.1900  141.5720 C   0  0  0  0  0  3  0  0  0  0  0  0
  187.3450  177.9080  144.7070 C   0  0  0  0  0  3  0  0  0  0  0  0
  187.8330  177.9060  143.3920 C   0  0  0  0  0  0  0  0  0  0  0  0
  189.2780  177.5520  139.3640 N   0  0  0  0  0  0  0  0  0  0  0  0
  190.0890  174.5840  137.1740 C   0  0  0  0  0  3  0  0  0  0  0  0
  187.9610  175.4720  137.8260 O   0  0  0  0  0  1  0  0  0  0  0  0
  190.0100  176.5400  138.6270 C   0  0  0  0  0  0  0  0  0  0  0  0
  191.4150  176.5250  138.6720 C   0  0  0  0  0  3  0  0  0  0  0  0
  189.3480  175.5420  137.8730 C   0  0  0  0  0  0  0  0  0  0  0  0
  191.4830  174.5930  137.2220 C   0  0  0  0  0  3  0  0  0  0  0  0
  192.1470  175.5620  137.9740 C   0  0  0  0  0  3  0  0  0  0  0  0
  189.0770  178.8920  138.8270 C   0  0  0  0  0  2  0  0  0  0  0  0
  189.0720  178.8520  137.3080 C   0  0  0  0  0  2  0  0  0  0  0  0
  187.7110  179.2590  136.7770 C   0  0  0  0  0  2  0  0  0  0  0  0
  186.7990  178.1260  136.8250 N   0  0  0  0  0  2  0  0  0  0  0  0
  185.3560  179.1280  138.3640 O   0  0  0  0  0  0  0  0  0  0  0  0
  185.6320  178.1300  137.6470 C   0  0  0  0  0  0  0  0  0  0  0  0
  184.7750  176.9960  137.6570 N   0  0  0  0  0  1  0  0  0  0  0  0
  1 10  1  0  0  0  0
  2  6  1  0  0  0  0
  4 16  1  6  0  0  0
  4  1  1  0  0  0  0
  4 11  1  0  0  0  0
  5  3  1  0  0  0  0
  6  9  2  0  0  0  0
  7  2  1  0  0  0  0
  8 15  1  0  0  0  0
  8  3  2  0  0  0  0
 10  2  2  0  0  0  0
 10 15  1  0  0  0  0
 11  8  1  0  0  0  0
 12  5  2  0  0  0  0
 13 11  2  0  0  0  0
 13 12  1  0  0  0  0
 14  9  1  0  0  0  0
 15 14  2  0  0  0  0
 17 22  2  0  0  0  0
 17 21  1  0  0  0  0
 18 21  1  0  0  0  0
 19 20  1  0  0  0  0
 19 16  1  0  0  0  0
 21 19  2  0  0  0  0
 22 23  1  0  0  0  0
 23 20  2  0  0  0  0
 24 16  1  0  0  0  0
 25 24  1  0  0  0  0
 26 27  1  0  0  0  0
 26 25  1  0  0  0  0
 27 29  1  0  0  0  0
 29 30  1  0  0  0  0
 29 28  2  0  0  0  0
M  END
>  <MODEL>
7

>  <REMARK>
 VINA RESULT:      -8.5      2.390      4.771
  Name = 
  6 active torsions:
  status: ('A' for Active; 'I' for Inactive)
    1  A    between atoms: C_4  and  N_13
    2  A    between atoms: N_7  and  C_16
    3  A    between atoms: C_8  and  N_13
    4  A    between atoms: N_13  and  C_27
    5  A    between atoms: C_16  and  C_30
    6  A    between atoms: C_27  and  C_30
                            x       y       z     vdW  Elec       q    Type
                         _______ _______ _______ _____ _____    ______ ____

>  <TORSDO>
F 6

$$$$
=
 OpenBabel10262421563D

 30 33  0  0  1  0  0  0  0  0999 V2000
  184.3220  178.3020  141.5760 C   0  0  0  0  0  2  0  0  0  0  0  0
  185.8350  178.2410  143.6000 C   0  0  0  0  0  0  0  0  0  0  0  0
  180.9620  178.8450  144.1830 C   0  0  0  0  0  3  0  0  0  0  0  0
  183.1690  179.1840  141.0860 C   0  0  2  0  0  3  0  0  0  0  0  0
  179.6940  179.0880  143.6500 C   0  0  0  0  0  3  0  0  0  0  0  0
  186.0200  178.2670  144.9850 C   0  0  0  0  0  3  0  0  0  0  0  0
  187.0210  178.0040  142.7270 C   0  0  0  0  0  1  0  0  0  0  0  0
  182.0970  178.8520  143.3550 C   0  0  0  0  0  0  0  0  0  0  0  0
  184.9330  178.4690  145.8370 C   0  0  0  0  0  3  0  0  0  0  0  0
  184.5490  178.4290  143.0580 C   0  0  0  0  0  0  0  0  0  0  0  0
  181.9440  179.0900  141.9720 C   0  0  0  0  0  0  0  0  0  0  0  0
  179.5480  179.3520  142.2890 C   0  0  0  0  0  3  0  0  0  0  0  0
  180.6680  179.3650  141.4560 C   0  0  0  0  0  3  0  0  0  0  0  0
  183.6550  178.6480  145.3080 C   0  0  0  0  0  3  0  0  0  0  0  0
  183.4490  178.6280  143.9200 C   0  0  0  0  0  0  0  0  0  0  0  0
  182.8740  178.9120  139.6750 N   0  0  0  0  0  0  0  0  0  0  0  0
  183.7120  175.7620  137.7660 C   0  0  0  0  0  3  0  0  0  0  0  0
  184.8780  177.8540  137.8610 O   0  0  0  0  0  1  0  0  0  0  0  0
  182.8120  177.5660  139.1370 C   0  0  0  0  0  0  0  0  0  0  0  0
  181.7280  176.7330  139.4660 C   0  0  0  0  0  3  0  0  0  0  0  0
  183.8060  177.0660  138.2640 C   0  0  0  0  0  0  0  0  0  0  0  0
  182.6350  174.9470  138.1150 C   0  0  0  0  0  3  0  0  0  0  0  0
  181.6400  175.4340  138.9620 C   0  0  0  0  0  3  0  0  0  0  0  0
  182.6510  180.0810  138.8340 C   0  0  0  0  0  2  0  0  0  0  0  0
  181.4170  179.8780  137.9700 C   0  0  0  0  0  2  0  0  0  0  0  0
  180.5790  181.1410  137.9490 C   0  0  0  0  0  2  0  0  0  0  0  0
  181.4420  182.3100  137.8980 N   0  0  0  0  0  2  0  0  0  0  0  0
  179.9220  183.5980  136.6780 O   0  0  0  0  0  0  0  0  0  0  0  0
  181.0470  183.5140  137.2410 C   0  0  0  0  0  0  0  0  0  0  0  0
  181.9300  184.6280  137.2190 N   0  0  0  0  0  1  0  0  0  0  0  0
  1 10  1  0  0  0  0
  2  6  1  0  0  0  0
  4 16  1  6  0  0  0
  4  1  1  0  0  0  0
  4 11  1  0  0  0  0
  5  3  1  0  0  0  0
  6  9  2  0  0  0  0
  7  2  1  0  0  0  0
  8 15  1  0  0  0  0
  8  3  2  0  0  0  0
 10  2  2  0  0  0  0
 10 15  1  0  0  0  0
 11  8  1  0  0  0  0
 12  5  2  0  0  0  0
 13 11  2  0  0  0  0
 13 12  1  0  0  0  0
 14  9  1  0  0  0  0
 15 14  2  0  0  0  0
 17 22  2  0  0  0  0
 17 21  1  0  0  0  0
 18 21  1  0  0  0  0
 19 20  1  0  0  0  0
 19 16  1  0  0  0  0
 21 19  2  0  0  0  0
 22 23  1  0  0  0  0
 23 20  2  0  0  0  0
 24 16  1  0  0  0  0
 25 24  1  0  0  0  0
 26 25  1  0  0  0  0
 27 26  1  0  0  0  0
 28 29  2  0  0  0  0
 29 27  1  0  0  0  0
 30 29  1  0  0  0  0
M  END
>  <MODEL>
8

>  <REMARK>
 VINA RESULT:      -8.4      4.522      7.849
  Name = 
  6 active torsions:
  status: ('A' for Active; 'I' for Inactive)
    1  A    between atoms: C_4  and  N_13
    2  A    between atoms: N_7  and  C_16
    3  A    between atoms: C_8  and  N_13
    4  A    between atoms: N_13  and  C_27
    5  A    between atoms: C_16  and  C_30
    6  A    between atoms: C_27  and  C_30
                            x       y       z     vdW  Elec       q    Type
                         _______ _______ _______ _____ _____    ______ ____

>  <TORSDO>
F 6

$$$$
=
 OpenBabel10262421563D

 30 33  0  0  1  0  0  0  0  0999 V2000
  187.1230  177.7130  143.5590 C   0  0  0  0  0  2  0  0  0  0  0  0
  185.4110  178.2830  145.3300 C   0  0  0  0  0  0  0  0  0  0  0  0
  184.2210  178.6450  140.5440 C   0  0  0  0  0  3  0  0  0  0  0  0
  187.6200  178.3520  142.2580 C   0  0  2  0  0  3  0  0  0  0  0  0
  184.5870  178.6480  139.1970 C   0  0  0  0  0  3  0  0  0  0  0  0
  184.1210  178.6740  145.6970 C   0  0  0  0  0  3  0  0  0  0  0  0
  186.3790  177.9230  146.4060 C   0  0  0  0  0  1  0  0  0  0  0  0
  185.1970  178.5270  141.5480 C   0  0  0  0  0  0  0  0  0  0  0  0
  183.1800  179.0040  144.7200 C   0  0  0  0  0  3  0  0  0  0  0  0
  185.7710  178.2300  143.9690 C   0  0  0  0  0  0  0  0  0  0  0  0
  186.5540  178.3940  141.1830 C   0  0  0  0  0  0  0  0  0  0  0  0
  185.9320  178.5460  138.8380 C   0  0  0  0  0  3  0  0  0  0  0  0
  186.9110  178.4310  139.8270 C   0  0  0  0  0  3  0  0  0  0  0  0
  183.5260  178.9450  143.3700 C   0  0  0  0  0  3  0  0  0  0  0  0
  184.8170  178.5570  142.9810 C   0  0  0  0  0  0  0  0  0  0  0  0
  188.8590  177.7080  141.8070 N   0  0  0  0  0  0  0  0  0  0  0  0
  191.5610  177.4190  144.4300 C   0  0  0  0  0  3  0  0  0  0  0  0
  190.5390  179.3720  143.4910 O   0  0  0  0  0  1  0  0  0  0  0  0
  189.8320  177.1580  142.7310 C   0  0  0  0  0  0  0  0  0  0  0  0
  190.0120  175.7660  142.8060 C   0  0  0  0  0  3  0  0  0  0  0  0
  190.6330  177.9870  143.5510 C   0  0  0  0  0  0  0  0  0  0  0  0
  191.7150  176.0340  144.4990 C   0  0  0  0  0  3  0  0  0  0  0  0
  190.9430  175.2070  143.6840 C   0  0  0  0  0  3  0  0  0  0  0  0
  189.0620  177.6590  140.3650 C   0  0  0  0  0  2  0  0  0  0  0  0
  190.5470  177.5980  140.0470 C   0  0  0  0  0  2  0  0  0  0  0  0
  190.8520  176.3790  139.1980 C   0  0  0  0  0  2  0  0  0  0  0  0
  189.9590  176.3350  138.0510 N   0  0  0  0  0  2  0  0  0  0  0  0
  190.3710  174.0820  137.5930 O   0  0  0  0  0  0  0  0  0  0  0  0
  189.7650  175.1440  137.2890 C   0  0  0  0  0  0  0  0  0  0  0  0
  188.8800  175.1560  136.1760 N   0  0  0  0  0  1  0  0  0  0  0  0
  1 10  1  0  0  0  0
  2  6  1  0  0  0  0
  2  7  1  0  0  0  0
  3  8  1  0  0  0  0
  4 16  1  6  0  0  0
  4  1  1  0  0  0  0
  5  3  2  0  0  0  0
  8 15  1  0  0  0  0
  9  6  2  0  0  0  0
 10  2  2  0  0  0  0
 11  8  2  0  0  0  0
 11  4  1  0  0  0  0
 12  5  1  0  0  0  0
 12 13  2  0  0  0  0
 13 11  1  0  0  0  0
 14  9  1  0  0  0  0
 15 14  2  0  0  0  0
 15 10  1  0  0  0  0
 16 19  1  0  0  0  0
 17 22  1  0  0  0  0
 18 21  1  0  0  0  0
 19 20  2  0  0  0  0
 19 21  1  0  0  0  0
 20 23  1  0  0  0  0
 21 17  2  0  0  0  0
 23 22  2  0  0  0  0
 24 16  1  0  0  0  0
 25 24  1  0  0  0  0
 26 25  1  0  0  0  0
 27 26  1  0  0  0  0
 29 28  2  0  0  0  0
 29 27  1  0  0  0  0
 30 29  1  0  0  0  0
M  END
>  <MODEL>
9

>  <REMARK>
 VINA RESULT:      -8.3      1.261      3.365
  Name = 
  6 active torsions:
  status: ('A' for Active; 'I' for Inactive)
    1  A    between atoms: C_4  and  N_13
    2  A    between atoms: N_7  and  C_16
    3  A    between atoms: C_8  and  N_13
    4  A    between atoms: N_13  and  C_27
    5  A    between atoms: C_16  and  C_30
    6  A    between atoms: C_27  and  C_30
                            x       y       z     vdW  Elec       q    Type
                         _______ _______ _______ _____ _____    ______ ____

>  <TORSDO>
F 6

$$$$
