=
 OpenBabel10252414583D

 34 37  0  0  1  0  0  0  0  0999 V2000
  181.0930  178.1890  136.2370 C   0  0  1  0  0  3  0  0  0  0  0  0
  185.5040  178.2350  138.3090 C   0  0  2  0  0  3  0  0  0  0  0  0
  181.4220  178.0760  139.7230 C   0  0  1  0  0  3  0  0  0  0  0  0
  183.8690  180.7360  138.5440 O   0  0  0  0  0  1  0  0  0  0  0  0
  179.4160  176.5230  135.6480 O   0  0  0  0  0  1  0  0  0  0  0  0
  183.0420  177.9810  137.7710 N   0  0  0  0  0  0  0  0  0  0  0  0
  182.6260  178.1140  136.3650 C   0  0  1  0  0  3  0  0  0  0  0  0
  185.6660  178.6520  139.7670 C   0  0  0  0  0  2  0  0  0  0  0  0
  183.3220  179.8420  139.4660 C   0  0  2  0  0  3  0  0  0  0  0  0
  180.6820  178.7900  134.8970 C   0  0  0  0  0  1  0  0  0  0  0  0
  184.3600  176.1090  138.2250 O   0  0  0  0  0  0  0  0  0  0  0  0
  180.8430  176.8060  139.0690 C   0  0  1  0  0  0  0  0  0  0  0  0
  180.4110  176.8500  136.5730 C   0  0  2  0  0  3  0  0  0  0  0  0
  184.2950  177.3610  138.0920 C   0  0  0  0  0  0  0  0  0  0  0  0
  181.5840  175.5350  139.2240 C   0  0  0  0  0  2  0  0  0  0  0  0
  180.4770  175.8480  140.0330 O   0  0  0  0  0  0  0  0  0  0  0  0
  184.4090  179.2690  140.4020 C   0  0  1  0  0  3  0  0  0  0  0  0
  182.3760  178.8380  138.7670 C   0  0  2  0  0  3  0  0  0  0  0  0
  179.7930  176.8940  137.9640 C   0  0  0  0  0  2  0  0  0  0  0  0
  179.5100  179.9210  142.4030 C   0  0  0  0  0  0  0  0  0  0  0  0
  178.9640  181.0760  141.6650 C   0  0  0  0  0  3  0  0  0  0  0  0
  180.2820  178.9880  140.2420 C   0  0  1  0  0  3  0  0  0  0  0  0
  179.3440  181.3070  140.4050 C   0  0  0  0  0  3  0  0  0  0  0  0
  180.1710  178.9610  141.7500 C   0  0  0  0  0  3  0  0  0  0  0  0
  180.3970  180.4440  139.7630 C   0  0  0  0  0  2  0  0  0  0  0  0
  179.3430  179.8360  143.8770 C   0  0  0  0  0  1  0  0  0  0  0  0
  187.2440  178.5830  136.6490 C   0  0  0  0  0  1  0  0  0  0  0  0
  186.7710  177.7390  137.7410 N   0  0  0  0  0  0  0  0  0  0  0  0
  187.7950  177.7190  138.7740 C   0  0  0  0  0  1  0  0  0  0  0  0
  183.8780  178.4560  141.5410 C   0  0  0  0  0  0  0  0  0  0  0  0
  183.4440  179.0940  142.6950 O   0  0  0  0  0  1  0  0  0  0  0  0
  183.7940  177.2020  141.4520 O   0  0  0  0  0  0  0  0  0  0  0  0
  183.2130  177.0130  135.4730 C   0  0  0  0  0  2  0  0  0  0  0  0
  184.3140  177.5740  134.5950 C   0  0  0  0  0  1  0  0  0  0  0  0
  1 10  1  6  0  0  0
  1  7  1  0  0  0  0
  1 13  1  0  0  0  0
  2 28  1  1  0  0  0
  2  8  1  0  0  0  0
  3 22  1  6  0  0  0
  6 14  1  0  0  0  0
  7 33  1  6  0  0  0
  7  6  1  0  0  0  0
  8 17  1  0  0  0  0
  9  4  1  6  0  0  0
  9 17  1  0  0  0  0
 12 19  1  6  0  0  0
 12 15  1  0  0  0  0
 12  3  1  0  0  0  0
 12 16  1  0  0  0  0
 13  5  1  6  0  0  0
 13 19  1  0  0  0  0
 14 11  2  0  0  0  0
 14  2  1  0  0  0  0
 15 16  1  0  0  0  0
 17 30  1  6  0  0  0
 18  6  1  1  0  0  0
 18  9  1  0  0  0  0
 18  3  1  0  0  0  0
 20 26  1  0  0  0  0
 21 20  1  0  0  0  0
 22 25  1  1  0  0  0
 22 24  1  0  0  0  0
 23 21  2  0  0  0  0
 24 20  2  0  0  0  0
 25 23  1  0  0  0  0
 27 28  1  0  0  0  0
 28 29  1  0  0  0  0
 30 31  1  0  0  0  0
 32 30  2  0  0  0  0
 34 33  1  0  0  0  0
M  END
>  <MODEL>
1

>  <REMARK>
 VINA RESULT:      -4.6      0.000      0.000
  Name = 
  4 active torsions:
  status: ('A' for Active; 'I' for Inactive)
    1  A    between atoms: C_2  and  C_15
    2  A    between atoms: C_3  and  N_14
    3  A    between atoms: C_4  and  C_12
    4  A    between atoms: C_13  and  C_29
                            x       y       z     vdW  Elec       q    Type
                         _______ _______ _______ _____ _____    ______ ____

>  <TORSDO>
F 4

$$$$
=
 OpenBabel10252414583D

 34 37  0  0  1  0  0  0  0  0999 V2000
  184.8290  177.0710  137.9620 C   0  0  1  0  0  3  0  0  0  0  0  0
  180.1810  175.9870  136.9800 C   0  0  2  0  0  3  0  0  0  0  0  0
  182.2610  178.1760  140.0740 C   0  0  1  0  0  3  0  0  0  0  0  0
  181.4530  174.5460  139.2800 O   0  0  0  0  0  1  0  0  0  0  0  0
  186.3240  178.9690  137.6440 O   0  0  0  0  0  1  0  0  0  0  0  0
  182.3460  176.9900  137.8300 N   0  0  0  0  0  0  0  0  0  0  0  0
  183.6000  176.5800  137.1760 C   0  0  1  0  0  3  0  0  0  0  0  0
  179.1280  176.0390  138.0820 C   0  0  0  0  0  2  0  0  0  0  0  0
  181.1720  175.8300  139.7510 C   0  0  2  0  0  3  0  0  0  0  0  0
  186.0760  176.2780  137.5840 C   0  0  0  0  0  1  0  0  0  0  0  0
  180.9050  178.2360  136.4810 O   0  0  0  0  0  0  0  0  0  0  0  0
  183.0170  179.2830  139.3120 C   0  0  1  0  0  0  0  0  0  0  0  0
  184.9990  178.6000  137.8890 C   0  0  2  0  0  3  0  0  0  0  0  0
  181.1480  177.1410  137.0540 C   0  0  0  0  0  0  0  0  0  0  0  0
  182.2550  180.1380  138.3770 C   0  0  0  0  0  2  0  0  0  0  0  0
  182.5670  180.5640  139.6810 O   0  0  0  0  0  0  0  0  0  0  0  0
  179.6930  176.2050  139.5030 C   0  0  1  0  0  3  0  0  0  0  0  0
  182.2520  176.8360  139.2930 C   0  0  2  0  0  3  0  0  0  0  0  0
  184.5380  179.2560  139.1840 C   0  0  0  0  0  2  0  0  0  0  0  0
  185.0110  178.3110  142.6550 C   0  0  0  0  0  0  0  0  0  0  0  0
  184.2660  178.5880  143.8970 C   0  0  0  0  0  3  0  0  0  0  0  0
  182.8410  178.0030  141.5000 C   0  0  1  0  0  3  0  0  0  0  0  0
  182.9610  178.8720  143.8480 C   0  0  0  0  0  3  0  0  0  0  0  0
  184.3510  178.0820  141.5150 C   0  0  0  0  0  3  0  0  0  0  0  0
  182.2650  178.9990  142.5200 C   0  0  0  0  0  2  0  0  0  0  0  0
  186.4960  178.3060  142.6650 C   0  0  0  0  0  1  0  0  0  0  0  0
  180.5690  175.7500  134.5940 C   0  0  0  0  0  1  0  0  0  0  0  0
  179.5750  175.7350  135.6600 N   0  0  0  0  0  0  0  0  0  0  0  0
  178.9310  174.4300  135.6590 C   0  0  0  0  0  1  0  0  0  0  0  0
  179.2620  177.4820  140.1510 C   0  0  0  0  0  0  0  0  0  0  0  0
  179.0800  177.5260  141.5270 O   0  0  0  0  0  1  0  0  0  0  0  0
  179.0910  178.5260  139.4660 O   0  0  0  0  0  0  0  0  0  0  0  0
  183.6610  177.0090  135.7060 C   0  0  0  0  0  2  0  0  0  0  0  0
  184.0920  175.8480  134.8320 C   0  0  0  0  0  1  0  0  0  0  0  0
  1 10  1  6  0  0  0
  2 28  1  6  0  0  0
  2 14  1  0  0  0  0
  2  8  1  0  0  0  0
  3 22  1  1  0  0  0
  7 33  1  6  0  0  0
  7  6  1  0  0  0  0
  7  1  1  0  0  0  0
  8 17  1  0  0  0  0
  9  4  1  6  0  0  0
 11 14  2  0  0  0  0
 12 15  1  6  0  0  0
 12 16  1  0  0  0  0
 12  3  1  0  0  0  0
 13  5  1  1  0  0  0
 13  1  1  0  0  0  0
 13 19  1  0  0  0  0
 14  6  1  0  0  0  0
 15 16  1  0  0  0  0
 17  9  1  0  0  0  0
 17 30  1  6  0  0  0
 18  6  1  6  0  0  0
 18  9  1  0  0  0  0
 18  3  1  0  0  0  0
 19 12  1  0  0  0  0
 20 26  1  0  0  0  0
 20 21  1  0  0  0  0
 22 24  1  6  0  0  0
 22 25  1  0  0  0  0
 23 21  2  0  0  0  0
 24 20  2  0  0  0  0
 25 23  1  0  0  0  0
 27 28  1  0  0  0  0
 29 28  1  0  0  0  0
 30 31  1  0  0  0  0
 32 30  2  0  0  0  0
 34 33  1  0  0  0  0
M  END
>  <MODEL>
2

>  <REMARK>
 VINA RESULT:      -4.3      2.266      5.295
  Name = 
  4 active torsions:
  status: ('A' for Active; 'I' for Inactive)
    1  A    between atoms: C_2  and  C_15
    2  A    between atoms: C_3  and  N_14
    3  A    between atoms: C_4  and  C_12
    4  A    between atoms: C_13  and  C_29
                            x       y       z     vdW  Elec       q    Type
                         _______ _______ _______ _____ _____    ______ ____

>  <TORSDO>
F 4

$$$$
=
 OpenBabel10252414583D

 34 37  0  0  1  0  0  0  0  0999 V2000
  184.8210  178.1140  138.9920 C   0  0  1  0  0  3  0  0  0  0  0  0
  185.8130  174.8030  135.5560 C   0  0  2  0  0  3  0  0  0  0  0  0
  182.2500  176.2140  137.5570 C   0  0  1  0  0  3  0  0  0  0  0  0
  185.0700  173.7630  138.2670 O   0  0  0  0  0  1  0  0  0  0  0  0
  184.0160  180.4120  139.0760 O   0  0  0  0  0  1  0  0  0  0  0  0
  184.7340  176.4870  137.1100 N   0  0  0  0  0  0  0  0  0  0  0  0
  185.6170  177.3350  137.9290 C   0  0  1  0  0  3  0  0  0  0  0  0
  184.8290  173.6750  135.2670 C   0  0  0  0  0  2  0  0  0  0  0  0
  183.8710  174.1760  137.6820 C   0  0  2  0  0  3  0  0  0  0  0  0
  185.7320  178.6000  140.1140 C   0  0  0  0  0  1  0  0  0  0  0  0
  184.8510  176.8900  134.8140 O   0  0  0  0  0  0  0  0  0  0  0  0
  182.2130  177.7240  137.2470 C   0  0  1  0  0  0  0  0  0  0  0  0
  183.9310  179.2070  138.3730 C   0  0  2  0  0  3  0  0  0  0  0  0
  185.1230  176.1250  135.7770 C   0  0  0  0  0  0  0  0  0  0  0  0
  182.3220  178.1540  135.8360 C   0  0  0  0  0  2  0  0  0  0  0  0
  181.0790  178.0680  136.4890 O   0  0  0  0  0  0  0  0  0  0  0  0
  183.6840  173.5440  136.2850 C   0  0  1  0  0  3  0  0  0  0  0  0
  183.6950  175.7070  137.8050 C   0  0  2  0  0  3  0  0  0  0  0  0
  182.4750  178.7610  138.3360 C   0  0  0  0  0  2  0  0  0  0  0  0
  180.2080  177.0790  140.6110 C   0  0  0  0  0  0  0  0  0  0  0  0
  179.1330  176.0690  140.5690 C   0  0  0  0  0  3  0  0  0  0  0  0
  181.3150  175.8800  138.7470 C   0  0  1  0  0  3  0  0  0  0  0  0
  179.0080  175.2650  139.5100 C   0  0  0  0  0  3  0  0  0  0  0  0
  181.2110  177.0250  139.7290 C   0  0  0  0  0  3  0  0  0  0  0  0
  179.9060  175.4450  138.3150 C   0  0  0  0  0  2  0  0  0  0  0  0
  180.1650  178.1680  141.6200 C   0  0  0  0  0  1  0  0  0  0  0  0
  187.9300  175.8180  134.9310 C   0  0  0  0  0  1  0  0  0  0  0  0
  186.9310  174.8100  134.5950 N   0  0  0  0  0  0  0  0  0  0  0  0
  187.5830  173.5100  134.5940 C   0  0  0  0  0  1  0  0  0  0  0  0
  182.3380  173.7790  135.6750 C   0  0  0  0  0  0  0  0  0  0  0  0
  182.2150  174.6480  134.5990 O   0  0  0  0  0  0  0  0  0  0  0  0
  181.3210  173.1740  136.1070 O   0  0  0  0  0  1  0  0  0  0  0  0
  186.4870  178.2680  137.0790 C   0  0  0  0  0  2  0  0  0  0  0  0
  187.9280  178.2230  137.5470 C   0  0  0  0  0  1  0  0  0  0  0  0
  1 10  1  1  0  0  0
  2 28  1  6  0  0  0
  2 14  1  0  0  0  0
  3 18  1  0  0  0  0
  3 22  1  1  0  0  0
  6  7  1  0  0  0  0
  7 33  1  6  0  0  0
  7  1  1  0  0  0  0
  8  2  1  0  0  0  0
  8 17  1  0  0  0  0
  9 18  1  0  0  0  0
  9  4  1  6  0  0  0
 11 14  2  0  0  0  0
 12 15  1  6  0  0  0
 12  3  1  0  0  0  0
 12 19  1  0  0  0  0
 13  1  1  0  0  0  0
 13  5  1  1  0  0  0
 14  6  1  0  0  0  0
 15 16  1  0  0  0  0
 16 12  1  0  0  0  0
 17 30  1  6  0  0  0
 17  9  1  0  0  0  0
 18  6  1  6  0  0  0
 19 13  1  0  0  0  0
 20 26  1  0  0  0  0
 21 20  1  0  0  0  0
 22 25  1  6  0  0  0
 22 24  1  0  0  0  0
 23 21  2  0  0  0  0
 24 20  2  0  0  0  0
 25 23  1  0  0  0  0
 28 27  1  0  0  0  0
 29 28  1  0  0  0  0
 30 32  1  0  0  0  0
 31 30  2  0  0  0  0
 33 34  1  0  0  0  0
M  END
>  <MODEL>
3

>  <REMARK>
 VINA RESULT:      -3.8      2.485      5.112
  Name = 
  4 active torsions:
  status: ('A' for Active; 'I' for Inactive)
    1  A    between atoms: C_2  and  C_15
    2  A    between atoms: C_3  and  N_14
    3  A    between atoms: C_4  and  C_12
    4  A    between atoms: C_13  and  C_29
                            x       y       z     vdW  Elec       q    Type
                         _______ _______ _______ _____ _____    ______ ____

>  <TORSDO>
F 4

$$$$
=
 OpenBabel10252414583D

 34 37  0  0  1  0  0  0  0  0999 V2000
  185.4370  173.9930  137.0960 C   0  0  1  0  0  3  0  0  0  0  0  0
  180.8110  175.4250  137.6400 C   0  0  2  0  0  3  0  0  0  0  0  0
  184.6210  177.4000  137.1190 C   0  0  1  0  0  3  0  0  0  0  0  0
  182.6450  175.8470  139.9720 O   0  0  0  0  0  1  0  0  0  0  0  0
  187.0000  173.6710  135.2550 O   0  0  0  0  0  1  0  0  0  0  0  0
  183.2840  175.2410  137.1280 N   0  0  0  0  0  0  0  0  0  0  0  0
  183.9020  173.9050  137.1760 C   0  0  1  0  0  3  0  0  0  0  0  0
  180.4930  176.8390  138.1140 C   0  0  0  0  0  2  0  0  0  0  0  0
  182.9660  176.8510  139.0570 C   0  0  2  0  0  3  0  0  0  0  0  0
  186.0880  172.7140  137.6120 C   0  0  0  0  0  1  0  0  0  0  0  0
  181.7320  175.5350  135.4100 O   0  0  0  0  0  0  0  0  0  0  0  0
  185.1520  176.8530  135.7790 C   0  0  1  0  0  0  0  0  0  0  0  0
  185.9260  174.4420  135.7060 C   0  0  2  0  0  3  0  0  0  0  0  0
  181.9420  175.3930  136.6440 C   0  0  0  0  0  0  0  0  0  0  0  0
  184.2700  176.9230  134.5940 C   0  0  0  0  0  2  0  0  0  0  0  0
  185.2810  177.8740  134.8190 O   0  0  0  0  0  0  0  0  0  0  0  0
  181.7070  177.6340  138.6220 C   0  0  1  0  0  3  0  0  0  0  0  0
  183.8910  176.3070  137.9440 C   0  0  2  0  0  3  0  0  0  0  0  0
  186.3470  175.9060  135.7300 C   0  0  0  0  0  2  0  0  0  0  0  0
  186.2600  178.6280  140.2890 C   0  0  0  0  0  0  0  0  0  0  0  0
  187.6950  178.4710  139.9850 C   0  0  0  0  0  3  0  0  0  0  0  0
  185.7650  178.0590  137.9290 C   0  0  1  0  0  3  0  0  0  0  0  0
  188.0790  177.8470  138.8680 C   0  0  0  0  0  3  0  0  0  0  0  0
  185.3460  178.3910  139.3440 C   0  0  0  0  0  3  0  0  0  0  0  0
  187.0550  177.2220  137.9600 C   0  0  0  0  0  2  0  0  0  0  0  0
  185.8300  179.0310  141.6520 C   0  0  0  0  0  1  0  0  0  0  0  0
  179.8760  173.6210  136.3090 C   0  0  0  0  0  1  0  0  0  0  0  0
  179.5900  174.6920  137.2550 N   0  0  0  0  0  0  0  0  0  0  0  0
  178.9820  174.1020  138.4380 C   0  0  0  0  0  1  0  0  0  0  0  0
  181.9890  178.8490  137.7950 C   0  0  0  0  0  0  0  0  0  0  0  0
  181.6630  178.8510  136.4450 O   0  0  0  0  0  0  0  0  0  0  0  0
  182.4910  179.8800  138.3170 O   0  0  0  0  0  1  0  0  0  0  0  0
  183.3330  172.9580  136.1130 C   0  0  0  0  0  2  0  0  0  0  0  0
  182.8330  171.6790  136.7560 C   0  0  0  0  0  1  0  0  0  0  0  0
  1  7  1  0  0  0  0
  1 10  1  6  0  0  0
  2 28  1  6  0  0  0
  2  8  1  0  0  0  0
  3 22  1  1  0  0  0
  3 18  1  0  0  0  0
  6  7  1  0  0  0  0
  7 33  1  6  0  0  0
  8 17  1  0  0  0  0
  9  4  1  6  0  0  0
 11 14  2  0  0  0  0
 12 15  1  6  0  0  0
 12  3  1  0  0  0  0
 13  5  1  1  0  0  0
 13 19  1  0  0  0  0
 13  1  1  0  0  0  0
 14  6  1  0  0  0  0
 14  2  1  0  0  0  0
 15 16  1  0  0  0  0
 16 12  1  0  0  0  0
 17 30  1  6  0  0  0
 17  9  1  0  0  0  0
 18  6  1  6  0  0  0
 18  9  1  0  0  0  0
 19 12  1  0  0  0  0
 20 26  1  0  0  0  0
 21 20  1  0  0  0  0
 22 25  1  1  0  0  0
 22 24  1  0  0  0  0
 23 21  2  0  0  0  0
 24 20  2  0  0  0  0
 25 23  1  0  0  0  0
 27 28  1  0  0  0  0
 28 29  1  0  0  0  0
 30 32  1  0  0  0  0
 31 30  2  0  0  0  0
 33 34  1  0  0  0  0
M  END
>  <MODEL>
4

>  <REMARK>
 VINA RESULT:      -3.6      2.751      6.284
  Name = 
  4 active torsions:
  status: ('A' for Active; 'I' for Inactive)
    1  A    between atoms: C_2  and  C_15
    2  A    between atoms: C_3  and  N_14
    3  A    between atoms: C_4  and  C_12
    4  A    between atoms: C_13  and  C_29
                            x       y       z     vdW  Elec       q    Type
                         _______ _______ _______ _____ _____    ______ ____

>  <TORSDO>
F 4

$$$$
=
 OpenBabel10252414583D

 34 37  0  0  1  0  0  0  0  0999 V2000
  184.4780  178.1120  139.0630 C   0  0  1  0  0  3  0  0  0  0  0  0
  186.1610  174.9140  135.7940 C   0  0  2  0  0  3  0  0  0  0  0  0
  182.2600  176.2370  137.1040 C   0  0  1  0  0  3  0  0  0  0  0  0
  184.9200  173.7880  138.2790 O   0  0  0  0  0  1  0  0  0  0  0  0
  183.6420  180.4010  139.0530 O   0  0  0  0  0  1  0  0  0  0  0  0
  184.7800  176.5420  137.1560 N   0  0  0  0  0  0  0  0  0  0  0  0
  185.4760  177.3720  138.1540 C   0  0  1  0  0  3  0  0  0  0  0  0
  185.2670  173.7870  135.2880 C   0  0  0  0  0  2  0  0  0  0  0  0
  183.8530  174.2090  137.4850 C   0  0  2  0  0  3  0  0  0  0  0  0
  185.1480  178.5710  140.3540 C   0  0  0  0  0  1  0  0  0  0  0  0
  185.3340  177.0150  134.9380 O   0  0  0  0  0  0  0  0  0  0  0  0
  182.2640  177.7550  136.8350 C   0  0  1  0  0  0  0  0  0  0  0  0
  183.7110  179.2170  138.3140 C   0  0  2  0  0  3  0  0  0  0  0  0
  185.4240  176.2230  135.9140 C   0  0  0  0  0  0  0  0  0  0  0  0
  182.6380  178.2280  135.4850 C   0  0  0  0  0  2  0  0  0  0  0  0
  181.2930  178.1130  135.8810 O   0  0  0  0  0  0  0  0  0  0  0  0
  183.9480  173.6170  136.0600 C   0  0  1  0  0  3  0  0  0  0  0  0
  183.6360  175.7340  137.6140 C   0  0  2  0  0  3  0  0  0  0  0  0
  182.2960  178.7610  137.9820 C   0  0  0  0  0  2  0  0  0  0  0  0
  179.6810  173.9010  138.5660 C   0  0  0  0  0  0  0  0  0  0  0  0
  179.5920  174.3620  139.9650 C   0  0  0  0  0  3  0  0  0  0  0  0
  181.1170  175.8600  138.0800 C   0  0  1  0  0  3  0  0  0  0  0  0
  180.4500  175.2770  140.4250 C   0  0  0  0  0  3  0  0  0  0  0  0
  180.4320  174.5710  137.6870 C   0  0  0  0  0  3  0  0  0  0  0  0
  181.5670  175.7750  139.5480 C   0  0  0  0  0  2  0  0  0  0  0  0
  178.9510  172.6800  138.1400 C   0  0  0  0  0  1  0  0  0  0  0  0
  188.5300  175.4400  135.9150 C   0  0  0  0  0  1  0  0  0  0  0  0
  187.4440  174.9580  135.0690 N   0  0  0  0  0  0  0  0  0  0  0  0
  187.7890  173.6230  134.6050 C   0  0  0  0  0  1  0  0  0  0  0  0
  182.7430  173.8600  135.2070 C   0  0  0  0  0  0  0  0  0  0  0  0
  181.7570  172.8860  135.1190 O   0  0  0  0  0  1  0  0  0  0  0  0
  182.5990  174.9510  134.5940 O   0  0  0  0  0  0  0  0  0  0  0  0
  186.4820  178.3370  137.5150 C   0  0  0  0  0  2  0  0  0  0  0  0
  187.8390  178.2030  138.1760 C   0  0  0  0  0  1  0  0  0  0  0  0
  1 10  1  1  0  0  0
  2 28  1  6  0  0  0
  2 14  1  0  0  0  0
  3 18  1  0  0  0  0
  3 22  1  1  0  0  0
  6  7  1  0  0  0  0
  7 33  1  6  0  0  0
  7  1  1  0  0  0  0
  8  2  1  0  0  0  0
  8 17  1  0  0  0  0
  9 18  1  0  0  0  0
  9  4  1  1  0  0  0
 11 14  2  0  0  0  0
 12 15  1  6  0  0  0
 12  3  1  0  0  0  0
 12 19  1  0  0  0  0
 13  5  1  1  0  0  0
 13  1  1  0  0  0  0
 14  6  1  0  0  0  0
 15 16  1  0  0  0  0
 16 12  1  0  0  0  0
 17 30  1  6  0  0  0
 17  9  1  0  0  0  0
 18  6  1  6  0  0  0
 19 13  1  0  0  0  0
 20 21  1  0  0  0  0
 21 23  2  0  0  0  0
 22 24  1  6  0  0  0
 22 25  1  0  0  0  0
 24 20  2  0  0  0  0
 25 23  1  0  0  0  0
 26 20  1  0  0  0  0
 28 27  1  0  0  0  0
 29 28  1  0  0  0  0
 31 30  1  0  0  0  0
 32 30  2  0  0  0  0
 33 34  1  0  0  0  0
M  END
>  <MODEL>
5

>  <REMARK>
 VINA RESULT:      -3.5      2.765      5.608
  Name = 
  4 active torsions:
  status: ('A' for Active; 'I' for Inactive)
    1  A    between atoms: C_2  and  C_15
    2  A    between atoms: C_3  and  N_14
    3  A    between atoms: C_4  and  C_12
    4  A    between atoms: C_13  and  C_29
                            x       y       z     vdW  Elec       q    Type
                         _______ _______ _______ _____ _____    ______ ____

>  <TORSDO>
F 4

$$$$
=
 OpenBabel10252414583D

 34 37  0  0  1  0  0  0  0  0999 V2000
  187.3660  176.7810  138.2120 C   0  0  1  0  0  3  0  0  0  0  0  0
  186.6550  172.4800  136.0330 C   0  0  2  0  0  3  0  0  0  0  0  0
  184.2350  175.9630  136.8690 C   0  0  1  0  0  3  0  0  0  0  0  0
  185.4010  172.8580  138.7290 O   0  0  0  0  0  1  0  0  0  0  0  0
  187.8330  179.0720  137.5270 O   0  0  0  0  0  1  0  0  0  0  0  0
  186.5290  174.8740  136.8490 N   0  0  0  0  0  0  0  0  0  0  0  0
  187.6920  175.4210  137.5660 C   0  0  1  0  0  3  0  0  0  0  0  0
  185.2450  171.9220  135.8710 C   0  0  0  0  0  2  0  0  0  0  0  0
  184.5960  173.5700  137.8380 C   0  0  2  0  0  3  0  0  0  0  0  0
  188.3610  177.1170  139.3180 C   0  0  0  0  0  1  0  0  0  0  0  0
  186.9070  174.4030  134.5940 O   0  0  0  0  0  0  0  0  0  0  0  0
  184.9780  177.1180  136.1680 C   0  0  1  0  0  0  0  0  0  0  0  0
  187.1720  177.8940  137.1660 C   0  0  2  0  0  3  0  0  0  0  0  0
  186.7230  173.9610  135.7600 C   0  0  0  0  0  0  0  0  0  0  0  0
  185.3340  176.9600  134.7410 C   0  0  0  0  0  2  0  0  0  0  0  0
  184.1990  177.6870  135.1430 O   0  0  0  0  0  0  0  0  0  0  0  0
  184.1600  172.6840  136.6490 C   0  0  1  0  0  3  0  0  0  0  0  0
  185.2160  174.9490  137.5140 C   0  0  2  0  0  3  0  0  0  0  0  0
  185.6930  178.2000  136.9710 C   0  0  0  0  0  2  0  0  0  0  0  0
  183.2580  177.9010  139.9560 C   0  0  0  0  0  0  0  0  0  0  0  0
  181.8930  178.3540  139.6270 C   0  0  0  0  0  3  0  0  0  0  0  0
  183.2220  176.5160  137.9030 C   0  0  1  0  0  3  0  0  0  0  0  0
  181.4020  178.1660  138.3990 C   0  0  0  0  0  3  0  0  0  0  0  0
  183.9070  177.0750  139.1290 C   0  0  0  0  0  3  0  0  0  0  0  0
  182.2680  177.5710  137.3210 C   0  0  0  0  0  2  0  0  0  0  0  0
  183.9190  178.3770  141.1980 C   0  0  0  0  0  1  0  0  0  0  0  0
  188.8580  171.4610  136.1360 C   0  0  0  0  0  1  0  0  0  0  0  0
  187.6530  171.6470  135.3370 N   0  0  0  0  0  0  0  0  0  0  0  0
  187.0870  170.3360  135.0580 C   0  0  0  0  0  1  0  0  0  0  0  0
  183.1380  173.3110  135.7530 C   0  0  0  0  0  0  0  0  0  0  0  0
  181.8390  173.4870  136.2100 O   0  0  0  0  0  1  0  0  0  0  0  0
  183.4520  173.7080  134.5990 O   0  0  0  0  0  0  0  0  0  0  0  0
  188.9420  175.5020  136.6810 C   0  0  0  0  0  2  0  0  0  0  0  0
  190.0560  174.6520  137.2590 C   0  0  0  0  0  1  0  0  0  0  0  0
  1 10  1  1  0  0  0
  2 28  1  6  0  0  0
  3 18  1  0  0  0  0
  3 22  1  1  0  0  0
  6  7  1  0  0  0  0
  7 33  1  6  0  0  0
  7  1  1  0  0  0  0
  8  2  1  0  0  0  0
  8 17  1  0  0  0  0
  9  4  1  6  0  0  0
 11 14  2  0  0  0  0
 12 15  1  6  0  0  0
 12  3  1  0  0  0  0
 12 19  1  0  0  0  0
 13  5  1  1  0  0  0
 13  1  1  0  0  0  0
 14  2  1  0  0  0  0
 14  6  1  0  0  0  0
 15 16  1  0  0  0  0
 16 12  1  0  0  0  0
 17 30  1  6  0  0  0
 17  9  1  0  0  0  0
 18  6  1  6  0  0  0
 18  9  1  0  0  0  0
 19 13  1  0  0  0  0
 20 26  1  0  0  0  0
 21 20  1  0  0  0  0
 22 25  1  6  0  0  0
 22 24  1  0  0  0  0
 23 21  2  0  0  0  0
 24 20  2  0  0  0  0
 25 23  1  0  0  0  0
 28 27  1  0  0  0  0
 29 28  1  0  0  0  0
 30 31  1  0  0  0  0
 32 30  2  0  0  0  0
 33 34  1  0  0  0  0
M  END
>  <MODEL>
6

>  <REMARK>
 VINA RESULT:      -3.1      3.667      6.441
  Name = 
  4 active torsions:
  status: ('A' for Active; 'I' for Inactive)
    1  A    between atoms: C_2  and  C_15
    2  A    between atoms: C_3  and  N_14
    3  A    between atoms: C_4  and  C_12
    4  A    between atoms: C_13  and  C_29
                            x       y       z     vdW  Elec       q    Type
                         _______ _______ _______ _____ _____    ______ ____

>  <TORSDO>
F 4

$$$$
=
 OpenBabel10252414583D

 34 37  0  0  1  0  0  0  0  0999 V2000
  183.4240  177.3450  135.8600 C   0  0  1  0  0  3  0  0  0  0  0  0
  184.0140  178.5390  140.5480 C   0  0  2  0  0  3  0  0  0  0  0  0
  180.6840  178.3510  137.7980 C   0  0  1  0  0  3  0  0  0  0  0  0
  183.4840  180.7830  138.6330 O   0  0  0  0  0  1  0  0  0  0  0  0
  182.6950  175.3950  134.5940 O   0  0  0  0  0  1  0  0  0  0  0  0
  183.1250  177.8480  138.2790 N   0  0  0  0  0  0  0  0  0  0  0  0
  184.1010  177.4910  137.2360 C   0  0  1  0  0  3  0  0  0  0  0  0
  182.9760  179.4010  141.2600 C   0  0  0  0  0  2  0  0  0  0  0  0
  182.2510  180.1600  138.8300 C   0  0  2  0  0  3  0  0  0  0  0  0
  184.4440  177.4510  134.7320 C   0  0  0  0  0  1  0  0  0  0  0  0
  183.0490  176.3730  140.0870 O   0  0  0  0  0  0  0  0  0  0  0  0
  180.6620  176.8830  137.3280 C   0  0  1  0  0  0  0  0  0  0  0  0
  182.5140  176.1050  135.7840 C   0  0  2  0  0  3  0  0  0  0  0  0
  183.3830  177.5060  139.6490 C   0  0  0  0  0  0  0  0  0  0  0  0
  180.6570  175.8170  138.3530 C   0  0  0  0  0  2  0  0  0  0  0  0
  179.4750  176.2330  137.7150 O   0  0  0  0  0  0  0  0  0  0  0  0
  181.9230  180.0330  140.3350 C   0  0  1  0  0  3  0  0  0  0  0  0
  182.1300  178.8870  137.9610 C   0  0  2  0  0  3  0  0  0  0  0  0
  181.0480  176.5040  135.9010 C   0  0  0  0  0  2  0  0  0  0  0  0
  179.2350  181.6300  136.6160 C   0  0  0  0  0  0  0  0  0  0  0  0
  179.1400  181.4260  135.1580 C   0  0  0  0  0  3  0  0  0  0  0  0
  179.8490  179.2400  136.8420 C   0  0  1  0  0  3  0  0  0  0  0  0
  179.6730  180.3380  134.5960 C   0  0  0  0  0  3  0  0  0  0  0  0
  179.6130  180.6220  137.4090 C   0  0  0  0  0  3  0  0  0  0  0  0
  180.4520  179.3600  135.4330 C   0  0  0  0  0  2  0  0  0  0  0  0
  178.9310  182.9600  137.2020 C   0  0  0  0  0  1  0  0  0  0  0  0
  186.3080  178.7490  141.3200 C   0  0  0  0  0  1  0  0  0  0  0  0
  185.0420  178.0430  141.4810 N   0  0  0  0  0  0  0  0  0  0  0  0
  184.5900  178.2300  142.8510 C   0  0  0  0  0  1  0  0  0  0  0  0
  180.5360  179.5550  140.6280 C   0  0  0  0  0  0  0  0  0  0  0  0
  179.4760  180.4510  140.5730 O   0  0  0  0  0  0  0  0  0  0  0  0
  180.3150  178.3440  140.8930 O   0  0  0  0  0  1  0  0  0  0  0  0
  184.9180  176.2450  137.5980 C   0  0  0  0  0  2  0  0  0  0  0  0
  186.3760  176.4430  137.2340 C   0  0  0  0  0  1  0  0  0  0  0  0
  1 10  1  6  0  0  0
  1  7  1  0  0  0  0
  2  8  1  0  0  0  0
  2 28  1  1  0  0  0
  3 22  1  6  0  0  0
  3 18  1  0  0  0  0
  6 14  1  0  0  0  0
  7 33  1  1  0  0  0
  7  6  1  0  0  0  0
  9  4  1  1  0  0  0
  9 17  1  0  0  0  0
 12 19  1  6  0  0  0
 12 16  1  0  0  0  0
 12  3  1  0  0  0  0
 12 15  1  0  0  0  0
 13  5  1  6  0  0  0
 13  1  1  0  0  0  0
 13 19  1  0  0  0  0
 14 11  2  0  0  0  0
 14  2  1  0  0  0  0
 16 15  1  0  0  0  0
 17 30  1  6  0  0  0
 17  8  1  0  0  0  0
 18  6  1  1  0  0  0
 18  9  1  0  0  0  0
 20 26  1  0  0  0  0
 20 24  2  0  0  0  0
 21 20  1  0  0  0  0
 22 25  1  6  0  0  0
 22 24  1  0  0  0  0
 23 21  2  0  0  0  0
 23 25  1  0  0  0  0
 27 28  1  0  0  0  0
 28 29  1  0  0  0  0
 30 32  1  0  0  0  0
 31 30  2  0  0  0  0
 34 33  1  0  0  0  0
M  END
>  <MODEL>
7

>  <REMARK>
 VINA RESULT:      -2.7      2.084      3.677
  Name = 
  4 active torsions:
  status: ('A' for Active; 'I' for Inactive)
    1  A    between atoms: C_2  and  C_15
    2  A    between atoms: C_3  and  N_14
    3  A    between atoms: C_4  and  C_12
    4  A    between atoms: C_13  and  C_29
                            x       y       z     vdW  Elec       q    Type
                         _______ _______ _______ _____ _____    ______ ____

>  <TORSDO>
F 4

$$$$
=
 OpenBabel10252414583D

 34 37  0  0  1  0  0  0  0  0999 V2000
  189.1740  176.7370  140.9060 C   0  0  1  0  0  3  0  0  0  0  0  0
  192.3790  175.7110  137.3810 C   0  0  2  0  0  3  0  0  0  0  0  0
  188.1920  176.7760  137.5430 C   0  0  1  0  0  3  0  0  0  0  0  0
  190.2960  173.6370  137.9660 O   0  0  0  0  0  1  0  0  0  0  0  0
  188.2220  178.7340  141.9260 O   0  0  0  0  0  1  0  0  0  0  0  0
  190.4060  176.5060  138.7560 N   0  0  0  0  0  0  0  0  0  0  0  0
  190.5280  176.4690  140.2230 C   0  0  1  0  0  3  0  0  0  0  0  0
  191.8940  175.2690  136.0040 C   0  0  0  0  0  2  0  0  0  0  0  0
  189.6410  174.6310  137.2360 C   0  0  2  0  0  3  0  0  0  0  0  0
  189.1790  176.2420  142.3490 C   0  0  0  0  0  1  0  0  0  0  0  0
  191.8160  178.0380  137.7000 O   0  0  0  0  0  0  0  0  0  0  0  0
  188.1760  178.1430  138.2560 C   0  0  1  0  0  0  0  0  0  0  0  0
  188.7080  178.1940  140.7320 C   0  0  2  0  0  3  0  0  0  0  0  0
  191.5480  176.8330  137.9500 C   0  0  0  0  0  0  0  0  0  0  0  0
  189.0510  179.2160  137.7370 C   0  0  0  0  0  2  0  0  0  0  0  0
  187.6820  179.1580  137.4160 O   0  0  0  0  0  0  0  0  0  0  0  0
  190.3930  174.9480  135.9240 C   0  0  1  0  0  3  0  0  0  0  0  0
  189.2540  175.8200  138.1460 C   0  0  2  0  0  3  0  0  0  0  0  0
  187.6210  178.2900  139.6710 C   0  0  0  0  0  2  0  0  0  0  0  0
  184.6880  176.2810  136.2310 C   0  0  0  0  0  0  0  0  0  0  0  0
  184.4050  174.8820  136.6040 C   0  0  0  0  0  3  0  0  0  0  0  0
  186.7790  176.1400  137.5530 C   0  0  1  0  0  3  0  0  0  0  0  0
  185.3740  174.1130  137.1080 C   0  0  0  0  0  3  0  0  0  0  0  0
  185.8220  176.8640  136.6320 C   0  0  0  0  0  3  0  0  0  0  0  0
  186.7800  174.6410  137.2150 C   0  0  0  0  0  2  0  0  0  0  0  0
  183.7220  177.0360  135.3930 C   0  0  0  0  0  1  0  0  0  0  0  0
  194.5220  174.8460  138.1290 C   0  0  0  0  0  1  0  0  0  0  0  0
  193.8390  175.9120  137.4050 N   0  0  0  0  0  0  0  0  0  0  0  0
  194.3520  175.9350  136.0440 C   0  0  0  0  0  1  0  0  0  0  0  0
  189.6550  175.8590  134.9940 C   0  0  0  0  0  0  0  0  0  0  0  0
  188.3660  175.5340  134.5940 O   0  0  0  0  0  1  0  0  0  0  0  0
  190.1800  176.9320  134.5940 O   0  0  0  0  0  0  0  0  0  0  0  0
  191.6200  177.4110  140.7450 C   0  0  0  0  0  2  0  0  0  0  0  0
  191.9410  177.0990  142.1930 C   0  0  0  0  0  1  0  0  0  0  0  0
  1 10  1  1  0  0  0
  2 28  1  6  0  0  0
  2 14  1  0  0  0  0
  3 22  1  1  0  0  0
  3 18  1  0  0  0  0
  3 12  1  0  0  0  0
  6  7  1  0  0  0  0
  7 33  1  1  0  0  0
  7  1  1  0  0  0  0
  8  2  1  0  0  0  0
  9  4  1  1  0  0  0
  9 18  1  0  0  0  0
 11 14  2  0  0  0  0
 12 15  1  1  0  0  0
 12 19  1  0  0  0  0
 13  1  1  0  0  0  0
 13  5  1  1  0  0  0
 14  6  1  0  0  0  0
 16 15  1  0  0  0  0
 16 12  1  0  0  0  0
 17 30  1  1  0  0  0
 17  8  1  0  0  0  0
 17  9  1  0  0  0  0
 18  6  1  6  0  0  0
 19 13  1  0  0  0  0
 20 21  1  0  0  0  0
 20 24  2  0  0  0  0
 21 23  2  0  0  0  0
 22 24  1  6  0  0  0
 23 25  1  0  0  0  0
 25 22  1  0  0  0  0
 26 20  1  0  0  0  0
 28 27  1  0  0  0  0
 29 28  1  0  0  0  0
 31 30  1  0  0  0  0
 32 30  2  0  0  0  0
 33 34  1  0  0  0  0
M  END
>  <MODEL>
8

>  <REMARK>
 VINA RESULT:      -2.7      5.303      8.826
  Name = 
  4 active torsions:
  status: ('A' for Active; 'I' for Inactive)
    1  A    between atoms: C_2  and  C_15
    2  A    between atoms: C_3  and  N_14
    3  A    between atoms: C_4  and  C_12
    4  A    between atoms: C_13  and  C_29
                            x       y       z     vdW  Elec       q    Type
                         _______ _______ _______ _____ _____    ______ ____

>  <TORSDO>
F 4

$$$$
=
 OpenBabel10252414583D

 34 37  0  0  1  0  0  0  0  0999 V2000
  184.8300  174.7300  137.0070 C   0  0  1  0  0  3  0  0  0  0  0  0
  180.2190  173.1770  136.7270 C   0  0  2  0  0  3  0  0  0  0  0  0
  182.1730  177.0070  137.1830 C   0  0  1  0  0  3  0  0  0  0  0  0
  181.1820  174.0920  139.4140 O   0  0  0  0  0  1  0  0  0  0  0  0
  186.4780  175.7080  135.5010 O   0  0  0  0  0  1  0  0  0  0  0  0
  182.3680  174.5190  136.7160 N   0  0  0  0  0  0  0  0  0  0  0  0
  183.6420  173.7820  136.7640 C   0  0  1  0  0  3  0  0  0  0  0  0
  179.0820  174.0440  137.2570 C   0  0  0  0  0  2  0  0  0  0  0  0
  180.9530  175.2580  138.6820 C   0  0  2  0  0  3  0  0  0  0  0  0
  186.0450  173.9660  137.5230 C   0  0  0  0  0  1  0  0  0  0  0  0
  181.1410  174.2180  134.7530 O   0  0  0  0  0  0  0  0  0  0  0  0
  183.0690  177.1270  135.9340 C   0  0  1  0  0  0  0  0  0  0  0  0
  185.1130  175.6370  135.7950 C   0  0  2  0  0  3  0  0  0  0  0  0
  181.2560  173.9820  135.9850 C   0  0  0  0  0  0  0  0  0  0  0  0
  182.4540  176.9190  134.6060 C   0  0  0  0  0  2  0  0  0  0  0  0
  182.6810  178.2080  135.1210 O   0  0  0  0  0  0  0  0  0  0  0  0
  179.5320  175.2660  138.0750 C   0  0  1  0  0  3  0  0  0  0  0  0
  182.1380  175.5580  137.7350 C   0  0  2  0  0  3  0  0  0  0  0  0
  184.5900  177.0460  136.0410 C   0  0  0  0  0  2  0  0  0  0  0  0
  181.5510  179.6110  139.8420 C   0  0  0  0  0  0  0  0  0  0  0  0
  182.6960  179.4160  140.7520 C   0  0  0  0  0  3  0  0  0  0  0  0
  182.6140  178.0210  138.2680 C   0  0  1  0  0  3  0  0  0  0  0  0
  183.5230  178.3810  140.5760 C   0  0  0  0  0  3  0  0  0  0  0  0
  181.4810  178.9260  138.6970 C   0  0  0  0  0  3  0  0  0  0  0  0
  183.2400  177.3600  139.5070 C   0  0  0  0  0  2  0  0  0  0  0  0
  180.4650  180.5560  140.2090 C   0  0  0  0  0  1  0  0  0  0  0  0
  180.7600  171.3110  135.2690 C   0  0  0  0  0  1  0  0  0  0  0  0
  179.7140  171.9780  136.0350 N   0  0  0  0  0  0  0  0  0  0  0  0
  179.1940  171.0330  137.0110 C   0  0  0  0  0  1  0  0  0  0  0  0
  179.1370  176.5620  137.4410 C   0  0  0  0  0  0  0  0  0  0  0  0
  178.9590  177.6880  138.2340 O   0  0  0  0  0  1  0  0  0  0  0  0
  178.9950  176.6510  136.1920 O   0  0  0  0  0  0  0  0  0  0  0  0
  183.8600  172.9080  135.5230 C   0  0  0  0  0  2  0  0  0  0  0  0
  184.1130  171.4690  135.9260 C   0  0  0  0  0  1  0  0  0  0  0  0
  1 10  1  6  0  0  0
  2 28  1  6  0  0  0
  2  8  1  0  0  0  0
  3 18  1  0  0  0  0
  3 22  1  1  0  0  0
  6  7  1  0  0  0  0
  7 33  1  6  0  0  0
  7  1  1  0  0  0  0
  8 17  1  0  0  0  0
  9  4  1  6  0  0  0
 11 14  2  0  0  0  0
 12 15  1  6  0  0  0
 12 19  1  0  0  0  0
 12  3  1  0  0  0  0
 13  5  1  1  0  0  0
 13 19  1  0  0  0  0
 13  1  1  0  0  0  0
 14  6  1  0  0  0  0
 14  2  1  0  0  0  0
 15 16  1  0  0  0  0
 16 12  1  0  0  0  0
 17 30  1  6  0  0  0
 17  9  1  0  0  0  0
 18  6  1  6  0  0  0
 18  9  1  0  0  0  0
 20 26  1  0  0  0  0
 20 21  1  0  0  0  0
 22 24  1  1  0  0  0
 22 25  1  0  0  0  0
 23 21  2  0  0  0  0
 24 20  2  0  0  0  0
 25 23  1  0  0  0  0
 27 28  1  0  0  0  0
 28 29  1  0  0  0  0
 30 31  1  0  0  0  0
 32 30  2  0  0  0  0
 33 34  1  0  0  0  0
M  END
>  <MODEL>
9

>  <REMARK>
 VINA RESULT:      -2.4      3.068      5.995
  Name = 
  4 active torsions:
  status: ('A' for Active; 'I' for Inactive)
    1  A    between atoms: C_2  and  C_15
    2  A    between atoms: C_3  and  N_14
    3  A    between atoms: C_4  and  C_12
    4  A    between atoms: C_13  and  C_29
                            x       y       z     vdW  Elec       q    Type
                         _______ _______ _______ _____ _____    ______ ____

>  <TORSDO>
F 4

$$$$
