=
 OpenBabel10262421413D

 32 37  0  0  0  0  0  0  0  0999 V2000
  181.9230  178.6240  142.2670 C   0  0  0  0  0  0  0  0  0  0  0  0
  186.9140  178.3100  143.1570 C   0  0  0  0  0  0  0  0  0  0  0  0
  187.2880  178.4520  138.5000 C   0  0  0  0  0  1  0  0  0  0  0  0
  189.3930  177.2620  139.3940 N   0  0  0  0  0  0  0  0  0  0  0  0
  188.2840  177.6930  145.1100 C   0  0  0  0  0  0  0  0  0  0  0  0
  189.4910  177.1700  145.6050 C   0  0  0  0  0  0  0  0  0  0  0  0
  184.4970  178.6900  143.3800 C   0  0  0  0  0  0  0  0  0  0  0  0
  185.3790  178.3790  141.1630 C   0  0  0  0  0  2  0  0  0  0  0  0
  191.9190  176.1340  146.5600 C   0  0  0  0  0  3  0  0  0  0  0  0
  183.0390  178.4480  141.4440 C   0  0  0  0  0  3  0  0  0  0  0  0
  188.0990  177.8440  139.5910 C   0  0  0  0  0  0  0  0  0  0  0  0
  186.7790  178.6080  141.6630 C   0  0  0  0  0  0  0  0  0  0  0  0
  187.8130  177.8760  140.8840 C   0  0  0  0  0  0  0  0  0  0  0  0
  189.1330  177.3450  142.8490 C   0  0  0  0  0  0  0  0  0  0  0  0
  190.9310  176.5410  147.4610 C   0  0  0  0  0  3  0  0  0  0  0  0
  182.0920  178.8620  143.6350 C   0  0  0  0  0  3  0  0  0  0  0  0
  184.3280  178.4990  141.9840 C   0  0  0  0  0  0  0  0  0  0  0  0
  189.7220  177.0580  146.9860 C   0  0  0  0  0  3  0  0  0  0  0  0
  183.3740  178.8860  144.1910 C   0  0  0  0  0  3  0  0  0  0  0  0
  189.9100  176.9770  140.5240 N   0  0  0  0  0  0  0  0  0  0  0  0
  188.9750  177.3580  141.5240 C   0  0  0  0  0  0  0  0  0  0  0  0
  190.2850  176.8500  143.3710 N   0  0  0  0  0  2  0  0  0  0  0  0
  185.7020  178.5990  143.9580 C   0  0  0  0  0  3  0  0  0  0  0  0
  187.4050  178.0720  145.9330 O   0  0  0  0  0  0  0  0  0  0  0  0
  191.7000  176.2410  145.1850 C   0  0  0  0  0  3  0  0  0  0  0  0
  188.0770  177.8080  143.7030 C   0  0  0  0  0  0  0  0  0  0  0  0
  190.4920  176.7570  144.7050 C   0  0  0  0  0  0  0  0  0  0  0  0
  180.5570  178.6050  141.6790 C   0  0  0  0  0  2  0  0  0  0  0  0
  179.9370  180.8100  140.6290 C   0  0  0  0  0  0  0  0  0  0  0  0
  180.5010  179.5030  140.5360 N   0  0  0  0  0  2  0  0  0  0  0  0
  179.9060  181.6470  139.4800 N   0  0  0  0  0  1  0  0  0  0  0  0
  179.4650  181.2290  141.7190 O   0  0  0  0  0  0  0  0  0  0  0  0
  1 16  1  0  0  0  0
  2 26  1  0  0  0  0
  2 23  2  0  0  0  0
  3 11  1  0  0  0  0
  4 11  2  0  0  0  0
  4 20  1  0  0  0  0
  5  6  1  0  0  0  0
  5 24  2  0  0  0  0
  6 18  1  0  0  0  0
  7 23  1  0  0  0  0
  7 19  1  0  0  0  0
  8 12  1  0  0  0  0
  8 17  1  0  0  0  0
  9 15  1  0  0  0  0
 10 17  1  0  0  0  0
 10  1  2  0  0  0  0
 11 13  1  0  0  0  0
 12  2  1  0  0  0  0
 13 21  1  0  0  0  0
 13 12  2  0  0  0  0
 14 22  1  0  0  0  0
 14 26  2  0  0  0  0
 16 19  2  0  0  0  0
 17  7  2  0  0  0  0
 18 15  2  0  0  0  0
 20 21  2  0  0  0  0
 21 14  1  0  0  0  0
 22 27  1  0  0  0  0
 25  9  2  0  0  0  0
 26  5  1  0  0  0  0
 27 25  1  0  0  0  0
 27  6  2  0  0  0  0
 28  1  1  0  0  0  0
 29 32  2  0  0  0  0
 30 29  1  0  0  0  0
 30 28  1  0  0  0  0
 31 29  1  0  0  0  0
M  END
>  <MODEL>
1

>  <REMARK>
 VINA RESULT:     -11.4      0.000      0.000
  Name = 
  2 active torsions:
  status: ('A' for Active; 'I' for Inactive)
    1  A    between atoms: C_2  and  C_24
    2  A    between atoms: N_10  and  C_24
                            x       y       z     vdW  Elec       q    Type
                         _______ _______ _______ _____ _____    ______ ____

>  <TORSDO>
F 2

$$$$
=
 OpenBabel10262421413D

 32 37  0  0  0  0  0  0  0  0999 V2000
  181.9890  178.6790  142.2310 C   0  0  0  0  0  0  0  0  0  0  0  0
  186.9730  178.3260  143.1440 C   0  0  0  0  0  0  0  0  0  0  0  0
  187.3710  178.4660  138.4890 C   0  0  0  0  0  1  0  0  0  0  0  0
  189.4620  177.2590  139.3930 N   0  0  0  0  0  0  0  0  0  0  0  0
  188.3290  177.6970  145.1040 C   0  0  0  0  0  0  0  0  0  0  0  0
  189.5300  177.1650  145.6050 C   0  0  0  0  0  0  0  0  0  0  0  0
  184.5590  178.7250  143.3560 C   0  0  0  0  0  0  0  0  0  0  0  0
  185.4490  178.4080  141.1430 C   0  0  0  0  0  2  0  0  0  0  0  0
  191.9450  176.1080  146.5710 C   0  0  0  0  0  3  0  0  0  0  0  0
  183.1080  178.4950  141.4130 C   0  0  0  0  0  3  0  0  0  0  0  0
  188.1720  177.8510  139.5840 C   0  0  0  0  0  0  0  0  0  0  0  0
  186.8480  178.6250  141.6490 C   0  0  0  0  0  0  0  0  0  0  0  0
  187.8800  177.8850  140.8750 C   0  0  0  0  0  0  0  0  0  0  0  0
  189.1860  177.3430  142.8470 C   0  0  0  0  0  0  0  0  0  0  0  0
  190.9560  176.5240  147.4670 C   0  0  0  0  0  3  0  0  0  0  0  0
  182.1540  178.9160  143.5990 C   0  0  0  0  0  3  0  0  0  0  0  0
  184.3950  178.5360  141.9590 C   0  0  0  0  0  0  0  0  0  0  0  0
  189.7530  177.0500  146.9870 C   0  0  0  0  0  3  0  0  0  0  0  0
  183.4330  178.9290  144.1610 C   0  0  0  0  0  3  0  0  0  0  0  0
  189.9720  176.9690  140.5250 N   0  0  0  0  0  0  0  0  0  0  0  0
  189.0350  177.3570  141.5210 C   0  0  0  0  0  0  0  0  0  0  0  0
  190.3320  176.8390  143.3740 N   0  0  0  0  0  2  0  0  0  0  0  0
  185.7600  178.6240  143.9400 C   0  0  0  0  0  3  0  0  0  0  0  0
  187.4490  178.0820  145.9220 O   0  0  0  0  0  0  0  0  0  0  0  0
  191.7330  176.2180  145.1940 C   0  0  0  0  0  3  0  0  0  0  0  0
  188.1300  177.8140  143.6960 C   0  0  0  0  0  0  0  0  0  0  0  0
  190.5320  176.7440  144.7090 C   0  0  0  0  0  0  0  0  0  0  0  0
  180.6260  178.6720  141.6360 C   0  0  0  0  0  2  0  0  0  0  0  0
  179.8340  176.5760  140.4850 C   0  0  0  0  0  0  0  0  0  0  0  0
  180.5950  177.7820  140.4860 N   0  0  0  0  0  2  0  0  0  0  0  0
  179.8390  175.7410  139.3350 N   0  0  0  0  0  1  0  0  0  0  0  0
  179.1570  176.2440  141.4940 O   0  0  0  0  0  0  0  0  0  0  0  0
  1 16  1  0  0  0  0
  2 26  1  0  0  0  0
  2 23  2  0  0  0  0
  3 11  1  0  0  0  0
  4 11  2  0  0  0  0
  4 20  1  0  0  0  0
  5  6  1  0  0  0  0
  5 24  2  0  0  0  0
  6 18  1  0  0  0  0
  7 23  1  0  0  0  0
  7 19  1  0  0  0  0
  8 12  1  0  0  0  0
  8 17  1  0  0  0  0
  9 15  1  0  0  0  0
 10 17  1  0  0  0  0
 10  1  2  0  0  0  0
 11 13  1  0  0  0  0
 12  2  1  0  0  0  0
 13 21  1  0  0  0  0
 13 12  2  0  0  0  0
 14 22  1  0  0  0  0
 14 26  2  0  0  0  0
 16 19  2  0  0  0  0
 17  7  2  0  0  0  0
 18 15  2  0  0  0  0
 20 21  2  0  0  0  0
 21 14  1  0  0  0  0
 22 27  1  0  0  0  0
 25  9  2  0  0  0  0
 26  5  1  0  0  0  0
 27 25  1  0  0  0  0
 27  6  2  0  0  0  0
 28  1  1  0  0  0  0
 29 30  1  0  0  0  0
 29 32  2  0  0  0  0
 30 28  1  0  0  0  0
 31 29  1  0  0  0  0
M  END
>  <MODEL>
2

>  <REMARK>
 VINA RESULT:     -11.2      1.257      1.591
  Name = 
  2 active torsions:
  status: ('A' for Active; 'I' for Inactive)
    1  A    between atoms: C_2  and  C_24
    2  A    between atoms: N_10  and  C_24
                            x       y       z     vdW  Elec       q    Type
                         _______ _______ _______ _____ _____    ______ ____

>  <TORSDO>
F 2

$$$$
=
 OpenBabel10262421413D

 32 37  0  0  0  0  0  0  0  0999 V2000
  191.3940  176.5500  138.1750 C   0  0  0  0  0  0  0  0  0  0  0  0
  188.1620  178.2110  141.7240 C   0  0  0  0  0  0  0  0  0  0  0  0
  191.6670  177.3150  144.6830 C   0  0  0  0  0  1  0  0  0  0  0  0
  189.4780  177.1870  146.0390 N   0  0  0  0  0  0  0  0  0  0  0  0
  185.7310  178.6100  141.7940 C   0  0  0  0  0  0  0  0  0  0  0  0
  184.5530  178.6770  142.5580 C   0  0  0  0  0  0  0  0  0  0  0  0
  189.3080  177.7760  139.5950 C   0  0  0  0  0  0  0  0  0  0  0  0
  190.4850  177.2490  141.6260 C   0  0  0  0  0  3  0  0  0  0  0  0
  182.2210  178.8150  144.1160 C   0  0  0  0  0  3  0  0  0  0  0  0
  191.4260  176.5730  139.5730 C   0  0  0  0  0  3  0  0  0  0  0  0
  190.1830  177.3150  144.7980 C   0  0  0  0  0  0  0  0  0  0  0  0
  189.5100  178.0640  142.4310 C   0  0  0  0  0  0  0  0  0  0  0  0
  189.3260  177.5660  143.8190 C   0  0  0  0  0  0  0  0  0  0  0  0
  186.9440  178.0280  143.8290 C   0  0  0  0  0  0  0  0  0  0  0  0
  182.1600  179.0660  142.7430 C   0  0  0  0  0  3  0  0  0  0  0  0
  190.3410  177.1630  137.4890 C   0  0  0  0  0  3  0  0  0  0  0  0
  190.4020  177.1980  140.2920 C   0  0  0  0  0  0  0  0  0  0  0  0
  183.3200  178.9970  141.9660 C   0  0  0  0  0  3  0  0  0  0  0  0
  189.2970  177.7650  138.1970 C   0  0  0  0  0  3  0  0  0  0  0  0
  188.2340  177.3870  145.8470 N   0  0  0  0  0  2  0  0  0  0  0  0
  188.0580  177.6570  144.4630 C   0  0  0  0  0  0  0  0  0  0  0  0
  185.7830  178.1080  144.5290 N   0  0  0  0  0  2  0  0  0  0  0  0
  188.2380  178.2530  140.2460 C   0  0  0  0  0  3  0  0  0  0  0  0
  185.6650  178.8530  140.5570 O   0  0  0  0  0  0  0  0  0  0  0  0
  183.4420  178.4950  144.7150 C   0  0  0  0  0  3  0  0  0  0  0  0
  186.9730  178.2950  142.4200 C   0  0  0  0  0  0  0  0  0  0  0  0
  184.6060  178.4260  143.9420 C   0  0  0  0  0  0  0  0  0  0  0  0
  192.5060  175.9160  137.4180 C   0  0  0  0  0  2  0  0  0  0  0  0
  194.5660  174.7980  138.3400 C   0  0  0  0  0  0  0  0  0  0  0  0
  193.7220  175.9410  138.2150 N   0  0  0  0  0  2  0  0  0  0  0  0
  195.7440  174.8760  139.1340 N   0  0  0  0  0  1  0  0  0  0  0  0
  194.2790  173.7210  137.7550 O   0  0  0  0  0  0  0  0  0  0  0  0
  1 10  1  0  0  0  0
  2 26  1  0  0  0  0
  2 12  1  0  0  0  0
  3 11  1  0  0  0  0
  5 26  1  0  0  0  0
  5  6  1  0  0  0  0
  6 27  1  0  0  0  0
  7 23  1  0  0  0  0
  7 17  1  0  0  0  0
  8 12  2  0  0  0  0
  9 25  1  0  0  0  0
 10 17  2  0  0  0  0
 11  4  2  0  0  0  0
 12 13  1  0  0  0  0
 13 21  2  0  0  0  0
 13 11  1  0  0  0  0
 14 21  1  0  0  0  0
 14 22  1  0  0  0  0
 15  9  2  0  0  0  0
 16  1  2  0  0  0  0
 16 19  1  0  0  0  0
 17  8  1  0  0  0  0
 18  6  2  0  0  0  0
 18 15  1  0  0  0  0
 19  7  2  0  0  0  0
 20  4  1  0  0  0  0
 21 20  1  0  0  0  0
 23  2  2  0  0  0  0
 24  5  2  0  0  0  0
 26 14  2  0  0  0  0
 27 22  1  0  0  0  0
 27 25  2  0  0  0  0
 28  1  1  0  0  0  0
 28 30  1  0  0  0  0
 29 31  1  0  0  0  0
 30 29  1  0  0  0  0
 32 29  2  0  0  0  0
M  END
>  <MODEL>
3

>  <REMARK>
 VINA RESULT:     -10.9      3.536      8.685
  Name = 
  2 active torsions:
  status: ('A' for Active; 'I' for Inactive)
    1  A    between atoms: C_2  and  C_24
    2  A    between atoms: N_10  and  C_24
                            x       y       z     vdW  Elec       q    Type
                         _______ _______ _______ _____ _____    ______ ____

>  <TORSDO>
F 2

$$$$
=
 OpenBabel10262421413D

 32 37  0  0  1  0  0  0  0  0999 V2000
  189.1460  177.6500  146.9440 C   0  0  0  0  0  0  0  0  0  0  0  0
  186.5010  177.7660  142.6090 C   0  0  0  0  0  0  0  0  0  0  0  0
  190.6650  177.1280  140.5850 C   0  0  0  0  0  1  0  0  0  0  0  0
  189.1470  178.2810  138.8500 N   0  0  0  0  0  0  0  0  0  0  0  0
  184.2310  178.5010  141.9910 C   0  0  0  0  0  0  0  0  0  0  0  0
  183.3640  179.0010  141.0040 C   0  0  0  0  0  0  0  0  0  0  0  0
  187.1590  177.5500  144.9660 C   0  0  0  0  0  0  0  0  0  0  0  0
  188.9090  177.5820  143.3160 C   0  0  0  0  0  3  0  0  0  0  0  0
  181.6590  179.9900  139.0040 C   0  0  0  0  0  3  0  0  0  0  0  0
  189.5080  177.6760  145.5940 C   0  0  0  0  0  3  0  0  0  0  0  0
  189.4000  177.7970  140.1740 C   0  0  0  0  0  0  0  0  0  0  0  0
  187.9120  177.3260  142.2190 C   0  0  2  0  0  3  0  0  0  0  0  0
  188.3050  177.9140  140.9110 C   0  0  0  0  0  0  0  0  0  0  0  0
  186.0370  178.5670  140.3520 C   0  0  0  0  0  0  0  0  0  0  0  0
  181.1600  179.7340  140.2840 C   0  0  0  0  0  3  0  0  0  0  0  0
  187.7990  177.5430  147.3050 C   0  0  0  0  0  3  0  0  0  0  0  0
  188.5290  177.6070  144.5980 C   0  0  0  0  0  0  0  0  0  0  0  0
  182.0080  179.2420  141.2800 C   0  0  0  0  0  3  0  0  0  0  0  0
  186.8090  177.5030  146.3190 C   0  0  0  0  0  3  0  0  0  0  0  0
  187.9300  178.6500  138.7540 N   0  0  0  0  0  0  0  0  0  0  0  0
  187.3210  178.4280  140.0180 C   0  0  0  0  0  0  0  0  0  0  0  0
  185.1640  179.0450  139.4280 N   0  0  0  0  0  2  0  0  0  0  0  0
  186.1840  177.6310  144.0500 C   0  0  0  0  0  3  0  0  0  0  0  0
  183.7650  178.2590  143.1390 O   0  0  0  0  0  0  0  0  0  0  0  0
  183.0070  179.7550  138.7180 C   0  0  0  0  0  3  0  0  0  0  0  0
  185.6020  178.2540  141.6830 C   0  0  0  0  0  0  0  0  0  0  0  0
  183.8590  179.2630  139.7110 C   0  0  0  0  0  0  0  0  0  0  0  0
  190.1970  177.6850  147.9960 C   0  0  0  0  0  2  0  0  0  0  0  0
  192.4580  176.6490  148.3930 C   0  0  0  0  0  0  0  0  0  0  0  0
  191.1960  176.6640  147.7280 N   0  0  0  0  0  2  0  0  0  0  0  0
  193.4010  175.6280  148.0930 N   0  0  0  0  0  1  0  0  0  0  0  0
  192.7450  177.5320  149.2440 O   0  0  0  0  0  0  0  0  0  0  0  0
  1 16  1  0  0  0  0
  1 28  1  0  0  0  0
  2 23  1  0  0  0  0
  4 11  1  0  0  0  0
  5 24  2  0  0  0  0
  6 18  1  0  0  0  0
  6  5  1  0  0  0  0
  7 19  1  0  0  0  0
  8 17  2  0  0  0  0
  9 15  1  0  0  0  0
 10  1  2  0  0  0  0
 11  3  1  0  0  0  0
 11 13  2  0  0  0  0
 12  2  1  0  0  0  0
 12  8  1  1  0  0  0
 13 12  1  0  0  0  0
 14 26  1  0  0  0  0
 15 18  2  0  0  0  0
 17  7  1  0  0  0  0
 17 10  1  0  0  0  0
 19 16  2  0  0  0  0
 20  4  2  0  0  0  0
 20 21  1  0  0  0  0
 21 14  2  0  0  0  0
 21 13  1  0  0  0  0
 22 27  1  0  0  0  0
 22 14  1  0  0  0  0
 23  7  2  0  0  0  0
 25  9  2  0  0  0  0
 25 27  1  0  0  0  0
 26  5  1  0  0  0  0
 26  2  2  0  0  0  0
 27  6  2  0  0  0  0
 29 32  2  0  0  0  0
 30 28  1  0  0  0  0
 30 29  1  0  0  0  0
 31 29  1  0  0  0  0
M  END
>  <MODEL>
4

>  <REMARK>
 VINA RESULT:     -10.5      2.458      8.289
  Name = 
  2 active torsions:
  status: ('A' for Active; 'I' for Inactive)
    1  A    between atoms: C_2  and  C_24
    2  A    between atoms: N_10  and  C_24
                            x       y       z     vdW  Elec       q    Type
                         _______ _______ _______ _____ _____    ______ ____

>  <TORSDO>
F 2

$$$$
=
 OpenBabel10262421413D

 32 37  0  0  0  0  0  0  0  0999 V2000
  181.3860  178.1990  140.4730 C   0  0  0  0  0  0  0  0  0  0  0  0
  185.8890  178.5170  142.8010 C   0  0  0  0  0  0  0  0  0  0  0  0
  187.6280  178.3420  138.4660 C   0  0  0  0  0  1  0  0  0  0  0  0
  189.4600  177.4680  140.0540 N   0  0  0  0  0  0  0  0  0  0  0  0
  186.6580  178.2080  145.1220 C   0  0  0  0  0  0  0  0  0  0  0  0
  187.7010  177.8650  145.9990 C   0  0  0  0  0  0  0  0  0  0  0  0
  183.4930  178.6390  142.2710 C   0  0  0  0  0  0  0  0  0  0  0  0
  185.0220  178.2600  140.4520 C   0  0  0  0  0  2  0  0  0  0  0  0
  189.8100  177.1830  147.7220 C   0  0  0  0  0  3  0  0  0  0  0  0
  182.7080  178.0870  140.0330 C   0  0  0  0  0  3  0  0  0  0  0  0
  188.1220  177.9140  139.8030 C   0  0  0  0  0  0  0  0  0  0  0  0
  186.1830  178.6820  141.3090 C   0  0  0  0  0  0  0  0  0  0  0  0
  187.4610  178.0130  140.9470 C   0  0  0  0  0  0  0  0  0  0  0  0
  188.1710  177.7860  143.2550 C   0  0  0  0  0  0  0  0  0  0  0  0
  188.5680  177.5450  148.2480 C   0  0  0  0  0  3  0  0  0  0  0  0
  181.1170  178.5580  141.7970 C   0  0  0  0  0  3  0  0  0  0  0  0
  183.7670  178.3240  140.9150 C   0  0  0  0  0  0  0  0  0  0  0  0
  187.5170  177.8850  147.3910 C   0  0  0  0  0  3  0  0  0  0  0  0
  182.1670  178.7690  142.6950 C   0  0  0  0  0  3  0  0  0  0  0  0
  189.6380  177.3300  141.3090 N   0  0  0  0  0  0  0  0  0  0  0  0
  188.4180  177.6790  141.9480 C   0  0  0  0  0  0  0  0  0  0  0  0
  189.1520  177.4650  144.1390 N   0  0  0  0  0  2  0  0  0  0  0  0
  184.4730  178.7280  143.1810 C   0  0  0  0  0  3  0  0  0  0  0  0
  185.5440  178.5480  145.6090 O   0  0  0  0  0  0  0  0  0  0  0  0
  190.0050  177.1590  146.3390 C   0  0  0  0  0  3  0  0  0  0  0  0
  186.8730  178.1920  143.7120 C   0  0  0  0  0  0  0  0  0  0  0  0
  188.9570  177.4980  145.4770 C   0  0  0  0  0  0  0  0  0  0  0  0
  180.2650  177.9820  139.5190 C   0  0  0  0  0  2  0  0  0  0  0  0
  179.5100  175.6170  139.9450 C   0  0  0  0  0  0  0  0  0  0  0  0
  180.1990  176.5780  139.1470 N   0  0  0  0  0  2  0  0  0  0  0  0
  179.4780  174.2550  139.5370 N   0  0  0  0  0  1  0  0  0  0  0  0
  178.9310  175.9630  141.0090 O   0  0  0  0  0  0  0  0  0  0  0  0
  1 16  1  0  0  0  0
  2 23  2  0  0  0  0
  2 26  1  0  0  0  0
  3 11  1  0  0  0  0
  4 20  1  0  0  0  0
  5 24  2  0  0  0  0
  5  6  1  0  0  0  0
  6 18  1  0  0  0  0
  7 19  1  0  0  0  0
  7 23  1  0  0  0  0
  8 17  1  0  0  0  0
  8 12  1  0  0  0  0
  9 15  1  0  0  0  0
 10  1  2  0  0  0  0
 10 17  1  0  0  0  0
 11  4  2  0  0  0  0
 11 13  1  0  0  0  0
 12  2  1  0  0  0  0
 13 12  2  0  0  0  0
 13 21  1  0  0  0  0
 14 26  2  0  0  0  0
 14 22  1  0  0  0  0
 16 19  2  0  0  0  0
 17  7  2  0  0  0  0
 18 15  2  0  0  0  0
 20 21  2  0  0  0  0
 21 14  1  0  0  0  0
 22 27  1  0  0  0  0
 25  9  2  0  0  0  0
 26  5  1  0  0  0  0
 27  6  2  0  0  0  0
 27 25  1  0  0  0  0
 28  1  1  0  0  0  0
 29 32  2  0  0  0  0
 30 28  1  0  0  0  0
 30 29  1  0  0  0  0
 31 29  1  0  0  0  0
M  END
>  <MODEL>
5

>  <REMARK>
 VINA RESULT:     -10.3      1.926      2.470
  Name = 
  2 active torsions:
  status: ('A' for Active; 'I' for Inactive)
    1  A    between atoms: C_2  and  C_24
    2  A    between atoms: N_10  and  C_24
                            x       y       z     vdW  Elec       q    Type
                         _______ _______ _______ _____ _____    ______ ____

>  <TORSDO>
F 2

$$$$
=
 OpenBabel10262421413D

 32 37  0  0  1  0  0  0  0  0999 V2000
  190.4770  176.6780  143.3140 C   0  0  0  0  0  0  0  0  0  0  0  0
  185.9640  178.5740  141.9610 C   0  0  0  0  0  0  0  0  0  0  0  0
  185.2830  179.0150  146.5640 C   0  0  0  0  0  1  0  0  0  0  0  0
  182.9570  178.8500  145.4660 N   0  0  0  0  0  0  0  0  0  0  0  0
  184.6400  178.5640  139.8830 C   0  0  0  0  0  0  0  0  0  0  0  0
  183.3750  178.6140  139.2720 C   0  0  0  0  0  0  0  0  0  0  0  0
  188.3080  177.8400  141.9670 C   0  0  0  0  0  0  0  0  0  0  0  0
  187.1880  178.0210  144.0890 C   0  0  0  0  0  3  0  0  0  0  0  0
  180.8330  178.7270  138.0840 C   0  0  0  0  0  3  0  0  0  0  0  0
  189.3310  177.0400  144.0280 C   0  0  0  0  0  3  0  0  0  0  0  0
  184.3860  178.7940  145.3960 C   0  0  1  0  0  3  0  0  0  0  0  0
  186.0840  178.8290  143.4640 C   0  0  0  0  0  0  0  0  0  0  0  0
  184.7690  178.6550  144.1360 C   0  0  0  0  0  0  0  0  0  0  0  0
  183.5290  178.7000  142.0510 C   0  0  0  0  0  0  0  0  0  0  0  0
  181.9740  178.6280  137.2840 C   0  0  0  0  0  3  0  0  0  0  0  0
  190.5520  176.9230  141.9390 C   0  0  0  0  0  3  0  0  0  0  0  0
  188.2510  177.6380  143.3710 C   0  0  0  0  0  0  0  0  0  0  0  0
  183.2400  178.5710  137.8740 C   0  0  0  0  0  3  0  0  0  0  0  0
  189.4680  177.4930  141.2670 C   0  0  0  0  0  3  0  0  0  0  0  0
  182.4680  178.7870  144.2900 N   0  0  0  0  0  0  0  0  0  0  0  0
  183.5590  178.6840  143.3850 C   0  0  0  0  0  0  0  0  0  0  0  0
  182.3280  178.7490  141.4190 N   0  0  0  0  0  2  0  0  0  0  0  0
  187.2430  178.2720  141.2790 C   0  0  0  0  0  3  0  0  0  0  0  0
  185.6640  178.4900  139.1490 O   0  0  0  0  0  0  0  0  0  0  0  0
  180.9550  178.7700  139.4750 C   0  0  0  0  0  3  0  0  0  0  0  0
  184.7510  178.6210  141.3040 C   0  0  0  0  0  0  0  0  0  0  0  0
  182.2190  178.7140  140.0710 C   0  0  0  0  0  0  0  0  0  0  0  0
  191.6360  176.0760  144.0260 C   0  0  0  0  0  2  0  0  0  0  0  0
  192.1710  175.8290  146.4750 C   0  0  0  0  0  0  0  0  0  0  0  0
  191.7190  176.6150  145.3740 N   0  0  0  0  0  2  0  0  0  0  0  0
  192.2310  176.4050  147.7740 N   0  0  0  0  0  1  0  0  0  0  0  0
  192.5170  174.6290  146.3080 O   0  0  0  0  0  0  0  0  0  0  0  0
  1 28  1  0  0  0  0
  1 10  1  0  0  0  0
  2 12  1  0  0  0  0
  5 26  1  0  0  0  0
  6  5  1  0  0  0  0
  6 27  1  0  0  0  0
  7 17  1  0  0  0  0
  9 25  1  0  0  0  0
 11  4  1  0  0  0  0
 11  3  1  6  0  0  0
 12  8  2  0  0  0  0
 12 13  1  0  0  0  0
 13 11  1  0  0  0  0
 14 21  1  0  0  0  0
 15 18  1  0  0  0  0
 15  9  2  0  0  0  0
 16  1  2  0  0  0  0
 17 10  2  0  0  0  0
 17  8  1  0  0  0  0
 18  6  2  0  0  0  0
 19 16  1  0  0  0  0
 19  7  2  0  0  0  0
 20  4  2  0  0  0  0
 21 13  2  0  0  0  0
 21 20  1  0  0  0  0
 22 14  1  0  0  0  0
 23  2  2  0  0  0  0
 23  7  1  0  0  0  0
 24  5  2  0  0  0  0
 25 27  2  0  0  0  0
 26  2  1  0  0  0  0
 26 14  2  0  0  0  0
 27 22  1  0  0  0  0
 28 30  1  0  0  0  0
 29 31  1  0  0  0  0
 30 29  1  0  0  0  0
 32 29  2  0  0  0  0
M  END
>  <MODEL>
6

>  <REMARK>
 VINA RESULT:     -10.2      2.809      9.157
  Name = 
  2 active torsions:
  status: ('A' for Active; 'I' for Inactive)
    1  A    between atoms: C_2  and  C_24
    2  A    between atoms: N_10  and  C_24
                            x       y       z     vdW  Elec       q    Type
                         _______ _______ _______ _____ _____    ______ ____

>  <TORSDO>
F 2

$$$$
=
 OpenBabel10262421413D

 32 37  0  0  1  0  0  0  0  0999 V2000
  183.4430  179.0080  143.9270 C   0  0  0  0  0  0  0  0  0  0  0  0
  188.1310  177.2610  143.0530 C   0  0  0  0  0  0  0  0  0  0  0  0
  188.4600  177.1370  147.7140 C   0  0  0  0  0  1  0  0  0  0  0  0
  190.8570  177.3510  146.7890 N   0  0  0  0  0  0  0  0  0  0  0  0
  189.6160  177.2100  141.0860 C   0  0  0  0  0  0  0  0  0  0  0  0
  190.9270  177.1860  140.5790 C   0  0  0  0  0  0  0  0  0  0  0  0
  185.7630  177.8760  142.8300 C   0  0  0  0  0  0  0  0  0  0  0  0
  186.7160  177.8810  145.0400 C   0  0  0  0  0  3  0  0  0  0  0  0
  193.5580  177.1280  139.6020 C   0  0  0  0  0  3  0  0  0  0  0  0
  184.5430  178.7480  144.7490 C   0  0  0  0  0  3  0  0  0  0  0  0
  189.4360  177.3310  146.6070 C   0  0  1  0  0  3  0  0  0  0  0  0
  187.9020  177.0930  144.5560 C   0  0  0  0  0  0  0  0  0  0  0  0
  189.1500  177.3730  145.3140 C   0  0  0  0  0  0  0  0  0  0  0  0
  190.5540  177.2630  143.3380 C   0  0  0  0  0  0  0  0  0  0  0  0
  192.4810  177.1210  138.7110 C   0  0  0  0  0  3  0  0  0  0  0  0
  183.4890  178.6770  142.5690 C   0  0  0  0  0  3  0  0  0  0  0  0
  185.6990  178.1660  144.2190 C   0  0  0  0  0  0  0  0  0  0  0  0
  191.1710  177.1500  139.1970 C   0  0  0  0  0  3  0  0  0  0  0  0
  184.6490  178.1210  142.0220 C   0  0  0  0  0  3  0  0  0  0  0  0
  191.4350  177.3660  145.6530 N   0  0  0  0  0  0  0  0  0  0  0  0
  190.4170  177.3590  144.6620 C   0  0  0  0  0  0  0  0  0  0  0  0
  191.8030  177.2350  142.8050 N   0  0  0  0  0  2  0  0  0  0  0  0
  186.8990  177.4560  142.2560 C   0  0  0  0  0  3  0  0  0  0  0  0
  188.6510  177.1880  140.2730 O   0  0  0  0  0  0  0  0  0  0  0  0
  193.3270  177.1640  140.9790 C   0  0  0  0  0  3  0  0  0  0  0  0
  189.3930  177.2340  142.4950 C   0  0  0  0  0  0  0  0  0  0  0  0
  192.0180  177.1930  141.4700 C   0  0  0  0  0  0  0  0  0  0  0  0
  182.2050  179.5930  144.5080 C   0  0  0  0  0  2  0  0  0  0  0  0
  180.0430  179.3840  143.2320 C   0  0  0  0  0  0  0  0  0  0  0  0
  181.0480  178.8250  144.0760 N   0  0  0  0  0  2  0  0  0  0  0  0
  178.9310  178.5880  142.8410 N   0  0  0  0  0  1  0  0  0  0  0  0
  180.1300  180.5740  142.8320 O   0  0  0  0  0  0  0  0  0  0  0  0
  1 28  1  0  0  0  0
  1 10  1  0  0  0  0
  2 12  1  0  0  0  0
  5 26  1  0  0  0  0
  6  5  1  0  0  0  0
  6 27  1  0  0  0  0
  7 17  1  0  0  0  0
  9 25  1  0  0  0  0
 11  4  1  0  0  0  0
 11  3  1  6  0  0  0
 12  8  2  0  0  0  0
 12 13  1  0  0  0  0
 13 11  1  0  0  0  0
 14 21  1  0  0  0  0
 15 18  1  0  0  0  0
 15  9  2  0  0  0  0
 16  1  2  0  0  0  0
 17 10  2  0  0  0  0
 17  8  1  0  0  0  0
 18  6  2  0  0  0  0
 19 16  1  0  0  0  0
 19  7  2  0  0  0  0
 20  4  2  0  0  0  0
 21 13  2  0  0  0  0
 21 20  1  0  0  0  0
 22 14  1  0  0  0  0
 23  7  1  0  0  0  0
 23  2  2  0  0  0  0
 24  5  2  0  0  0  0
 25 27  2  0  0  0  0
 26  2  1  0  0  0  0
 26 14  2  0  0  0  0
 27 22  1  0  0  0  0
 29 30  1  0  0  0  0
 30 28  1  0  0  0  0
 31 29  1  0  0  0  0
 32 29  2  0  0  0  0
M  END
>  <MODEL>
7

>  <REMARK>
 VINA RESULT:     -10.1      2.435      4.704
  Name = 
  2 active torsions:
  status: ('A' for Active; 'I' for Inactive)
    1  A    between atoms: C_2  and  C_24
    2  A    between atoms: N_10  and  C_24
                            x       y       z     vdW  Elec       q    Type
                         _______ _______ _______ _____ _____    ______ ____

>  <TORSDO>
F 2

$$$$
=
 OpenBabel10262421413D

 32 37  0  0  1  0  0  0  0  0999 V2000
  188.8800  177.9370  147.0090 C   0  0  0  0  0  0  0  0  0  0  0  0
  185.2750  178.0140  143.4310 C   0  0  0  0  0  0  0  0  0  0  0  0
  188.8510  177.5030  140.4650 C   0  0  0  0  0  1  0  0  0  0  0  0
  186.9350  178.6270  139.1570 N   0  0  0  0  0  0  0  0  0  0  0  0
  182.9060  178.6910  143.3820 C   0  0  0  0  0  0  0  0  0  0  0  0
  181.8170  179.1750  142.6370 C   0  0  0  0  0  0  0  0  0  0  0  0
  186.4810  177.7980  145.5600 C   0  0  0  0  0  0  0  0  0  0  0  0
  187.7860  177.8890  143.5410 C   0  0  0  0  0  3  0  0  0  0  0  0
  179.6610  180.1310  141.1150 C   0  0  0  0  0  3  0  0  0  0  0  0
  188.9090  177.9830  145.6120 C   0  0  0  0  0  3  0  0  0  0  0  0
  187.5080  178.1400  140.3760 C   0  0  0  0  0  0  0  0  0  0  0  0
  186.5630  177.6140  142.7100 C   0  0  2  0  0  3  0  0  0  0  0  0
  186.6190  178.2220  141.3550 C   0  0  0  0  0  0  0  0  0  0  0  0
  184.2670  178.8180  141.3610 C   0  0  0  0  0  0  0  0  0  0  0  0
  179.4870  179.8520  142.4730 C   0  0  0  0  0  3  0  0  0  0  0  0
  187.6610  177.7910  147.6790 C   0  0  0  0  0  3  0  0  0  0  0  0
  187.7220  177.8940  144.8780 C   0  0  0  0  0  0  0  0  0  0  0  0
  180.5600  179.3760  143.2310 C   0  0  0  0  0  3  0  0  0  0  0  0
  186.4660  177.7310  146.9570 C   0  0  0  0  0  3  0  0  0  0  0  0
  185.7220  178.9640  139.3590 N   0  0  0  0  0  0  0  0  0  0  0  0
  185.4380  178.7160  140.7290 C   0  0  0  0  0  0  0  0  0  0  0  0
  183.1870  179.2790  140.6780 N   0  0  0  0  0  2  0  0  0  0  0  0
  185.3150  177.8590  144.9040 C   0  0  0  0  0  3  0  0  0  0  0  0
  182.7340  178.4280  144.6050 O   0  0  0  0  0  0  0  0  0  0  0  0
  180.9060  179.9350  140.5130 C   0  0  0  0  0  3  0  0  0  0  0  0
  184.1690  178.4840  142.7530 C   0  0  0  0  0  0  0  0  0  0  0  0
  181.9820  179.4590  141.2670 C   0  0  0  0  0  0  0  0  0  0  0  0
  190.1510  177.9930  147.7800 C   0  0  0  0  0  2  0  0  0  0  0  0
  191.7710  176.4030  146.6900 C   0  0  0  0  0  0  0  0  0  0  0  0
  190.8250  176.7070  147.7130 N   0  0  0  0  0  2  0  0  0  0  0  0
  192.4020  175.1290  146.6690 N   0  0  0  0  0  1  0  0  0  0  0  0
  192.0540  177.2530  145.8040 O   0  0  0  0  0  0  0  0  0  0  0  0
  1 16  1  0  0  0  0
  1 28  1  0  0  0  0
  2 23  1  0  0  0  0
  4 20  2  0  0  0  0
  4 11  1  0  0  0  0
  5 24  2  0  0  0  0
  6 18  1  0  0  0  0
  6  5  1  0  0  0  0
  7 19  1  0  0  0  0
  8 17  2  0  0  0  0
  9 15  1  0  0  0  0
 10  1  2  0  0  0  0
 11  3  1  0  0  0  0
 11 13  2  0  0  0  0
 12  2  1  0  0  0  0
 12  8  1  1  0  0  0
 13 12  1  0  0  0  0
 14 26  1  0  0  0  0
 15 18  2  0  0  0  0
 17  7  1  0  0  0  0
 17 10  1  0  0  0  0
 19 16  2  0  0  0  0
 20 21  1  0  0  0  0
 21 13  1  0  0  0  0
 21 14  2  0  0  0  0
 22 27  1  0  0  0  0
 22 14  1  0  0  0  0
 23  7  2  0  0  0  0
 25  9  2  0  0  0  0
 25 27  1  0  0  0  0
 26  5  1  0  0  0  0
 26  2  2  0  0  0  0
 27  6  2  0  0  0  0
 29 30  1  0  0  0  0
 30 28  1  0  0  0  0
 31 29  1  0  0  0  0
 32 29  2  0  0  0  0
M  END
>  <MODEL>
8

>  <REMARK>
 VINA RESULT:     -10.0      2.187      8.242
  Name = 
  2 active torsions:
  status: ('A' for Active; 'I' for Inactive)
    1  A    between atoms: C_2  and  C_24
    2  A    between atoms: N_10  and  C_24
                            x       y       z     vdW  Elec       q    Type
                         _______ _______ _______ _____ _____    ______ ____

>  <TORSDO>
F 2

$$$$
=
 OpenBabel10262421413D

 32 37  0  0  1  0  0  0  0  0999 V2000
  188.4140  177.6330  145.1770 C   0  0  0  0  0  0  0  0  0  0  0  0
  189.7150  177.7270  140.2680 C   0  0  0  0  0  0  0  0  0  0  0  0
  185.2300  178.8420  139.5720 C   0  0  0  0  0  1  0  0  0  0  0  0
  186.0860  177.7480  137.4000 N   0  0  0  0  0  0  0  0  0  0  0  0
  191.6420  176.8930  138.9760 C   0  0  0  0  0  0  0  0  0  0  0  0
  192.1450  176.4250  137.7500 C   0  0  0  0  0  0  0  0  0  0  0  0
  189.7680  177.7730  142.7240 C   0  0  0  0  0  0  0  0  0  0  0  0
  187.6300  178.0160  141.6460 C   0  0  0  0  0  3  0  0  0  0  0  0
  193.1210  175.5050  135.2840 C   0  0  0  0  0  3  0  0  0  0  0  0
  187.6870  177.7570  143.9890 C   0  0  0  0  0  3  0  0  0  0  0  0
  186.2600  178.1260  138.7710 C   0  0  0  0  0  0  0  0  0  0  0  0
  188.2990  178.3000  140.3300 C   0  0  2  0  0  3  0  0  0  0  0  0
  187.5020  177.8640  139.1530 C   0  0  0  0  0  0  0  0  0  0  0  0
  189.4510  177.1060  137.9240 C   0  0  0  0  0  0  0  0  0  0  0  0
  193.9810  175.6080  136.3810 C   0  0  0  0  0  3  0  0  0  0  0  0
  189.8120  177.6100  145.1430 C   0  0  0  0  0  3  0  0  0  0  0  0
  188.3510  177.8470  142.7610 C   0  0  0  0  0  0  0  0  0  0  0  0
  193.4960  176.0650  137.6090 C   0  0  0  0  0  3  0  0  0  0  0  0
  190.4860  177.6710  143.9190 C   0  0  0  0  0  3  0  0  0  0  0  0
  187.1860  177.3040  136.9340 N   0  0  0  0  0  0  0  0  0  0  0  0
  188.1430  177.3660  137.9830 C   0  0  0  0  0  0  0  0  0  0  0  0
  189.9810  176.6530  136.7580 N   0  0  0  0  0  2  0  0  0  0  0  0
  190.4340  177.7070  141.5630 C   0  0  0  0  0  3  0  0  0  0  0  0
  192.4310  176.9950  139.9560 O   0  0  0  0  0  0  0  0  0  0  0  0
  191.7760  175.8600  135.4130 C   0  0  0  0  0  3  0  0  0  0  0  0
  190.2690  177.2640  139.0920 C   0  0  0  0  0  0  0  0  0  0  0  0
  191.2860  176.3190  136.6400 C   0  0  0  0  0  0  0  0  0  0  0  0
  187.7010  177.5760  146.4810 C   0  0  0  0  0  2  0  0  0  0  0  0
  185.4610  178.7140  146.6540 C   0  0  0  0  0  0  0  0  0  0  0  0
  186.2650  177.6040  146.2580 N   0  0  0  0  0  2  0  0  0  0  0  0
  184.0600  178.6900  146.4130 N   0  0  0  0  0  1  0  0  0  0  0  0
  185.9800  179.7150  147.2130 O   0  0  0  0  0  0  0  0  0  0  0  0
  1 28  1  0  0  0  0
  2 12  1  0  0  0  0
  2 23  1  0  0  0  0
  4 11  1  0  0  0  0
  5 26  1  0  0  0  0
  5 24  2  0  0  0  0
  6  5  1  0  0  0  0
  7 17  1  0  0  0  0
  7 19  1  0  0  0  0
  8 17  2  0  0  0  0
  9 25  2  0  0  0  0
  9 15  1  0  0  0  0
 10  1  2  0  0  0  0
 11 13  2  0  0  0  0
 11  3  1  0  0  0  0
 12  8  1  1  0  0  0
 13 12  1  0  0  0  0
 14 21  2  0  0  0  0
 14 26  1  0  0  0  0
 15 18  2  0  0  0  0
 16  1  1  0  0  0  0
 17 10  1  0  0  0  0
 18  6  1  0  0  0  0
 19 16  2  0  0  0  0
 20  4  2  0  0  0  0
 20 21  1  0  0  0  0
 21 13  1  0  0  0  0
 22 14  1  0  0  0  0
 23  7  2  0  0  0  0
 25 27  1  0  0  0  0
 26  2  2  0  0  0  0
 27 22  1  0  0  0  0
 27  6  2  0  0  0  0
 29 32  2  0  0  0  0
 30 28  1  0  0  0  0
 30 29  1  0  0  0  0
 31 29  1  0  0  0  0
M  END
>  <MODEL>
9

>  <REMARK>
 VINA RESULT:      -9.9      3.702      6.905
  Name = 
  2 active torsions:
  status: ('A' for Active; 'I' for Inactive)
    1  A    between atoms: C_2  and  C_24
    2  A    between atoms: N_10  and  C_24
                            x       y       z     vdW  Elec       q    Type
                         _______ _______ _______ _____ _____    ______ ____

>  <TORSDO>
F 2

$$$$
