=
 OpenBabel10262422463D

 37 43  0  0  1  0  0  0  0  0999 V2000
  189.4110  176.2170  140.8580 C   0  0  0  0  0  2  0  0  0  0  0  0
  191.6080  174.9890  145.7740 C   0  0  0  0  0  2  0  0  0  0  0  0
  188.2750  177.8460  145.0990 C   0  0  0  0  0  0  0  0  0  0  0  0
  190.5740  176.8300  140.0630 C   0  0  2  0  0  3  0  0  0  0  0  0
  186.2050  178.8460  142.1900 N   0  0  0  0  0  0  0  0  0  0  0  0
  190.3060  177.0570  146.1830 C   0  0  0  0  0  0  0  0  0  0  0  0
  187.7870  177.9180  143.7960 C   0  0  0  0  0  0  0  0  0  0  0  0
  189.5410  177.2920  145.0210 C   0  0  0  0  0  0  0  0  0  0  0  0
  186.4430  178.3360  143.3640 C   0  0  0  0  0  0  0  0  0  0  0  0
  189.7440  177.3970  147.4200 C   0  0  0  0  0  3  0  0  0  0  0  0
  190.2880  178.1960  139.3990 C   0  0  0  0  0  2  0  0  0  0  0  0
  189.8590  177.0220  143.7330 N   0  0  0  0  0  0  0  0  0  0  0  0
  191.2300  175.0020  143.5710 C   0  0  0  0  0  2  0  0  0  0  0  0
  186.4160  178.8080  146.4970 N   0  0  0  0  0  2  0  0  0  0  0  0
  188.4630  177.9640  147.4970 C   0  0  0  0  0  3  0  0  0  0  0  0
  191.1180  176.4820  143.2260 C   0  0  0  0  0  2  0  0  0  0  0  0
  188.8090  178.6070  139.4130 C   0  0  2  0  0  3  0  0  0  0  0  0
  187.0590  179.0210  141.0490 C   0  0  0  0  0  3  0  0  0  0  0  0
  187.7090  178.2090  146.3410 C   0  0  0  0  0  0  0  0  0  0  0  0
  188.7860  177.4010  142.9890 C   0  0  0  0  0  0  0  0  0  0  0  0
  191.6740  176.4560  146.1760 C   0  0  0  0  0  2  0  0  0  0  0  0
  185.3390  178.2970  144.3810 C   0  0  1  0  0  3  0  0  0  0  0  0
  192.2310  174.8170  144.5320 O   0  0  0  0  0  0  0  0  0  0  0  0
  188.1710  178.3400  140.7530 C   0  0  0  0  0  0  0  0  0  0  0  0
  188.6890  177.2720  141.5610 N   0  0  0  0  0  0  0  0  0  0  0  0
  185.5880  179.3540  145.4340 C   0  0  0  0  0  2  0  0  0  0  0  0
  182.7770  178.7270  144.6990 C   0  0  0  0  0  2  0  0  0  0  0  0
  183.9570  178.3980  143.8020 C   0  0  0  0  0  0  0  0  0  0  0  0
  183.8180  178.2630  142.4800 C   0  0  0  0  0  3  0  0  0  0  0  0
  182.3850  178.2650  140.6000 O   0  0  0  0  0  0  0  0  0  0  0  0
  181.3140  178.5870  142.6820 C   0  0  0  0  0  3  0  0  0  0  0  0
  182.4990  178.3700  141.8490 C   0  0  0  0  0  0  0  0  0  0  0  0
  181.4390  178.7380  144.0010 C   0  0  0  0  0  3  0  0  0  0  0  0
  188.0730  177.9100  138.3080 C   0  0  0  0  0  3  0  0  0  0  0  0
  187.3520  178.5370  137.5500 O   0  0  0  0  0  0  0  0  0  0  0  0
  191.6180  176.5800  138.0450 C   0  0  0  0  0  1  0  0  0  0  0  0
  191.2370  175.9140  139.2200 O   0  0  0  0  0  0  0  0  0  0  0  0
  1 25  1  0  0  0  0
  2 21  1  0  0  0  0
  3 19  1  0  0  0  0
  4 37  1  6  0  0  0
  4  1  1  0  0  0  0
  5  9  2  0  0  0  0
  6 10  2  0  0  0  0
  7  3  1  0  0  0  0
  8  3  2  0  0  0  0
  8  6  1  0  0  0  0
  9  7  1  0  0  0  0
  9 22  1  0  0  0  0
 10 15  1  0  0  0  0
 11 17  1  0  0  0  0
 11  4  1  0  0  0  0
 12  8  1  0  0  0  0
 13 23  1  0  0  0  0
 16 13  1  0  0  0  0
 16 12  1  0  0  0  0
 17 34  1  6  0  0  0
 17 24  1  0  0  0  0
 18  5  1  0  0  0  0
 19 14  1  0  0  0  0
 19 15  2  0  0  0  0
 20 12  1  0  0  0  0
 20  7  2  0  0  0  0
 21  6  1  0  0  0  0
 22 28  1  6  0  0  0
 22 26  1  0  0  0  0
 23  2  1  0  0  0  0
 24 18  2  0  0  0  0
 24 25  1  0  0  0  0
 25 20  1  0  0  0  0
 26 14  1  0  0  0  0
 28 27  1  0  0  0  0
 29 28  2  0  0  0  0
 30 32  2  0  0  0  0
 31 33  2  0  0  0  0
 32 29  1  0  0  0  0
 32 31  1  0  0  0  0
 33 27  1  0  0  0  0
 35 34  2  0  0  0  0
 36 37  1  0  0  0  0
M  END
>  <MODEL>
1

>  <REMARK>
 VINA RESULT:      -9.5      0.000      0.000
  Name = 
  3 active torsions:
  status: ('A' for Active; 'I' for Inactive)
    1  A    between atoms: C_5  and  O_23
    2  A    between atoms: C_6  and  C_31
    3  A    between atoms: C_11  and  C_26
                            x       y       z     vdW  Elec       q    Type
                         _______ _______ _______ _____ _____    ______ ____

>  <TORSDO>
F 3

$$$$
=
 OpenBabel10262422463D

 37 43  0  0  1  0  0  0  0  0999 V2000
  188.6410  176.8450  143.7700 C   0  0  0  0  0  2  0  0  0  0  0  0
  183.7740  178.0340  141.4460 C   0  0  0  0  0  2  0  0  0  0  0  0
  187.6830  178.0100  139.3370 C   0  0  0  0  0  0  0  0  0  0  0  0
  188.8220  177.9250  144.8480 C   0  0  2  0  0  3  0  0  0  0  0  0
  191.1490  177.0300  140.2150 N   0  0  0  0  0  0  0  0  0  0  0  0
  185.4490  178.8520  139.8140 C   0  0  0  0  0  0  0  0  0  0  0  0
  188.7730  177.5610  140.0770 C   0  0  0  0  0  0  0  0  0  0  0  0
  186.7050  178.3740  140.2460 C   0  0  0  0  0  0  0  0  0  0  0  0
  190.0210  176.9690  139.5670 C   0  0  0  0  0  0  0  0  0  0  0  0
  185.2200  178.9430  138.4350 C   0  0  0  0  0  3  0  0  0  0  0  0
  190.1670  178.6850  144.8170 C   0  0  0  0  0  2  0  0  0  0  0  0
  187.1410  178.1740  141.5130 N   0  0  0  0  0  0  0  0  0  0  0  0
  185.3070  177.4740  142.9730 C   0  0  0  0  0  2  0  0  0  0  0  0
  188.4380  177.7840  136.9460 N   0  0  0  0  0  2  0  0  0  0  0  0
  186.2140  178.5810  137.5140 C   0  0  0  0  0  3  0  0  0  0  0  0
  186.4300  178.4790  142.7520 C   0  0  0  0  0  2  0  0  0  0  0  0
  191.2200  178.0690  143.8840 C   0  0  2  0  0  3  0  0  0  0  0  0
  191.4560  177.5300  141.5260 C   0  0  0  0  0  3  0  0  0  0  0  0
  187.4650  178.1180  137.9450 C   0  0  0  0  0  0  0  0  0  0  0  0
  188.4010  177.6750  141.4060 C   0  0  0  0  0  0  0  0  0  0  0  0
  184.3450  179.2540  140.7370 C   0  0  0  0  0  2  0  0  0  0  0  0
  190.0050  176.3970  138.1790 C   0  0  1  0  0  3  0  0  0  0  0  0
  184.0690  178.1080  142.8120 O   0  0  0  0  0  0  0  0  0  0  0  0
  190.6200  177.6660  142.5600 C   0  0  0  0  0  0  0  0  0  0  0  0
  189.2320  177.3000  142.5160 N   0  0  0  0  0  0  0  0  0  0  0  0
  189.8490  177.5190  137.1760 C   0  0  0  0  0  2  0  0  0  0  0  0
  190.9580  174.1590  137.2140 C   0  0  0  0  0  2  0  0  0  0  0  0
  191.1780  175.5170  137.8570 C   0  0  0  0  0  0  0  0  0  0  0  0
  192.4040  175.9950  138.0850 C   0  0  0  0  0  3  0  0  0  0  0  0
  194.7420  175.6660  137.9710 O   0  0  0  0  0  0  0  0  0  0  0  0
  193.4330  173.8370  137.2470 C   0  0  0  0  0  3  0  0  0  0  0  0
  193.5930  175.1940  137.7750 C   0  0  0  0  0  0  0  0  0  0  0  0
  192.2150  173.3520  137.0000 C   0  0  0  0  0  3  0  0  0  0  0  0
  191.8860  176.9080  144.5590 C   0  0  0  0  0  3  0  0  0  0  0  0
  191.9630  176.8570  145.7760 O   0  0  0  0  0  0  0  0  0  0  0  0
  187.0980  177.9150  146.3470 C   0  0  0  0  0  1  0  0  0  0  0  0
  188.4270  177.5170  146.1380 O   0  0  0  0  0  0  0  0  0  0  0  0
  1  4  1  0  0  0  0
  2 23  1  0  0  0  0
  3  7  1  0  0  0  0
  3  8  1  0  0  0  0
  4 37  1  1  0  0  0
  5 18  1  0  0  0  0
  6  8  2  0  0  0  0
  6 21  1  0  0  0  0
  7 20  2  0  0  0  0
  8 12  1  0  0  0  0
  9  7  1  0  0  0  0
  9  5  2  0  0  0  0
 10  6  1  0  0  0  0
 11  4  1  0  0  0  0
 12 16  1  0  0  0  0
 14 26  1  0  0  0  0
 14 19  1  0  0  0  0
 15 19  1  0  0  0  0
 15 10  2  0  0  0  0
 16 13  1  0  0  0  0
 17 34  1  1  0  0  0
 17 11  1  0  0  0  0
 18 24  2  0  0  0  0
 19  3  2  0  0  0  0
 20 12  1  0  0  0  0
 20 25  1  0  0  0  0
 21  2  1  0  0  0  0
 22 28  1  6  0  0  0
 22  9  1  0  0  0  0
 23 13  1  0  0  0  0
 24 17  1  0  0  0  0
 25 24  1  0  0  0  0
 25  1  1  0  0  0  0
 26 22  1  0  0  0  0
 27 28  1  0  0  0  0
 28 29  2  0  0  0  0
 31 32  1  0  0  0  0
 32 30  2  0  0  0  0
 32 29  1  0  0  0  0
 33 27  1  0  0  0  0
 33 31  2  0  0  0  0
 34 35  2  0  0  0  0
 37 36  1  0  0  0  0
M  END
>  <MODEL>
2

>  <REMARK>
 VINA RESULT:      -9.3      2.254      8.303
  Name = 
  3 active torsions:
  status: ('A' for Active; 'I' for Inactive)
    1  A    between atoms: C_5  and  O_23
    2  A    between atoms: C_6  and  C_31
    3  A    between atoms: C_11  and  C_26
                            x       y       z     vdW  Elec       q    Type
                         _______ _______ _______ _____ _____    ______ ____

>  <TORSDO>
F 3

$$$$
=
 OpenBabel10262422463D

 37 43  0  0  1  0  0  0  0  0999 V2000
  187.3200  175.8530  137.2660 C   0  0  0  0  0  2  0  0  0  0  0  0
  192.5430  174.3590  136.2710 C   0  0  0  0  0  2  0  0  0  0  0  0
  191.2240  177.0170  139.5770 C   0  0  0  0  0  0  0  0  0  0  0  0
  186.8950  176.6170  136.0020 C   0  0  2  0  0  3  0  0  0  0  0  0
  187.9530  178.1170  140.9320 N   0  0  0  0  0  0  0  0  0  0  0  0
  192.7400  176.2840  137.8190 C   0  0  0  0  0  0  0  0  0  0  0  0
  189.8470  177.1680  139.7260 C   0  0  0  0  0  0  0  0  0  0  0  0
  191.4380  176.5650  138.2860 C   0  0  0  0  0  0  0  0  0  0  0  0
  189.1120  177.5240  140.9510 C   0  0  0  0  0  0  0  0  0  0  0  0
  193.8100  176.4720  138.7040 C   0  0  0  0  0  3  0  0  0  0  0  0
  186.2730  178.0110  136.2370 C   0  0  0  0  0  2  0  0  0  0  0  0
  190.2600  176.4330  137.6310 N   0  0  0  0  0  0  0  0  0  0  0  0
  190.3240  174.5390  136.0830 C   0  0  0  0  0  2  0  0  0  0  0  0
  192.1560  177.7160  141.8080 N   0  0  0  0  0  2  0  0  0  0  0  0
  193.5920  176.9370  140.0090 C   0  0  0  0  0  3  0  0  0  0  0  0
  190.0610  176.0320  136.2410 C   0  0  0  0  0  2  0  0  0  0  0  0
  185.9320  178.3120  137.7040 C   0  0  2  0  0  3  0  0  0  0  0  0
  187.0850  178.4540  139.8380 C   0  0  0  0  0  3  0  0  0  0  0  0
  192.3000  177.2270  140.4680 C   0  0  0  0  0  0  0  0  0  0  0  0
  189.2920  176.7980  138.5130 C   0  0  0  0  0  0  0  0  0  0  0  0
  193.0450  175.7860  136.4440 C   0  0  0  0  0  2  0  0  0  0  0  0
  189.8050  177.3160  142.2660 C   0  0  1  0  0  3  0  0  0  0  0  0
  191.4960  174.3430  135.3430 O   0  0  0  0  0  0  0  0  0  0  0  0
  187.0410  177.8830  138.6300 C   0  0  0  0  0  0  0  0  0  0  0  0
  187.8820  176.7880  138.2360 N   0  0  0  0  0  0  0  0  0  0  0  0
  190.9550  178.2920  142.3880 C   0  0  0  0  0  2  0  0  0  0  0  0
  187.4350  176.9830  143.3240 C   0  0  0  0  0  2  0  0  0  0  0  0
  188.8970  177.3680  143.4610 C   0  0  0  0  0  0  0  0  0  0  0  0
  189.4310  177.6900  144.6430 C   0  0  0  0  0  3  0  0  0  0  0  0
  189.1230  178.0200  146.9630 O   0  0  0  0  0  0  0  0  0  0  0  0
  187.1660  177.4740  145.7570 C   0  0  0  0  0  3  0  0  0  0  0  0
  188.6030  177.7400  145.8530 C   0  0  0  0  0  0  0  0  0  0  0  0
  186.6220  177.1370  144.5870 C   0  0  0  0  0  3  0  0  0  0  0  0
  184.6310  177.6630  138.0710 C   0  0  0  0  0  3  0  0  0  0  0  0
  183.7260  177.5810  137.2560 O   0  0  0  0  0  0  0  0  0  0  0  0
  185.5670  174.7740  135.7510 C   0  0  0  0  0  1  0  0  0  0  0  0
  186.1920  175.8280  135.0670 O   0  0  0  0  0  0  0  0  0  0  0  0
  1 25  1  0  0  0  0
  2 21  1  0  0  0  0
  3  7  1  0  0  0  0
  3 19  1  0  0  0  0
  4 37  1  1  0  0  0
  4 11  1  0  0  0  0
  4  1  1  0  0  0  0
  5  9  2  0  0  0  0
  6  8  1  0  0  0  0
  6 10  2  0  0  0  0
  7  9  1  0  0  0  0
  8  3  2  0  0  0  0
  9 22  1  0  0  0  0
 10 15  1  0  0  0  0
 11 17  1  0  0  0  0
 12  8  1  0  0  0  0
 12 20  1  0  0  0  0
 13 16  1  0  0  0  0
 14 26  1  0  0  0  0
 15 19  2  0  0  0  0
 16 12  1  0  0  0  0
 17 34  1  1  0  0  0
 17 24  1  0  0  0  0
 18  5  1  0  0  0  0
 19 14  1  0  0  0  0
 20  7  2  0  0  0  0
 21  6  1  0  0  0  0
 22 26  1  0  0  0  0
 22 28  1  1  0  0  0
 23 13  1  0  0  0  0
 23  2  1  0  0  0  0
 24 18  2  0  0  0  0
 25 20  1  0  0  0  0
 25 24  1  0  0  0  0
 27 28  1  0  0  0  0
 27 33  1  0  0  0  0
 28 29  2  0  0  0  0
 29 32  1  0  0  0  0
 31 32  1  0  0  0  0
 32 30  2  0  0  0  0
 33 31  2  0  0  0  0
 35 34  2  0  0  0  0
 37 36  1  0  0  0  0
M  END
>  <MODEL>
3

>  <REMARK>
 VINA RESULT:      -8.9      2.920      6.412
  Name = 
  3 active torsions:
  status: ('A' for Active; 'I' for Inactive)
    1  A    between atoms: C_5  and  O_23
    2  A    between atoms: C_6  and  C_31
    3  A    between atoms: C_11  and  C_26
                            x       y       z     vdW  Elec       q    Type
                         _______ _______ _______ _____ _____    ______ ____

>  <TORSDO>
F 3

$$$$
=
 OpenBabel10262422463D

 37 43  0  0  1  0  0  0  0  0999 V2000
  187.1320  175.3920  137.2020 C   0  0  0  0  0  2  0  0  0  0  0  0
  191.4730  172.6380  135.1840 C   0  0  0  0  0  2  0  0  0  0  0  0
  191.6900  175.9880  138.0930 C   0  0  0  0  0  0  0  0  0  0  0  0
  186.4790  176.0330  135.9670 C   0  0  2  0  0  3  0  0  0  0  0  0
  189.2220  177.9810  140.0110 N   0  0  0  0  0  0  0  0  0  0  0  0
  192.4540  174.6800  136.1870 C   0  0  0  0  0  0  0  0  0  0  0  0
  190.4710  176.4630  138.5690 C   0  0  0  0  0  0  0  0  0  0  0  0
  191.4230  175.3120  136.9150 C   0  0  0  0  0  0  0  0  0  0  0  0
  190.2140  177.1540  139.8430 C   0  0  0  0  0  0  0  0  0  0  0  0
  193.7580  174.7550  136.6940 C   0  0  0  0  0  3  0  0  0  0  0  0
  186.2040  177.5500  136.0640 C   0  0  0  0  0  2  0  0  0  0  0  0
  190.0970  175.3490  136.6400 N   0  0  0  0  0  0  0  0  0  0  0  0
  189.3650  173.2780  135.5620 C   0  0  0  0  0  2  0  0  0  0  0  0
  193.3610  176.7880  139.7970 N   0  0  0  0  0  2  0  0  0  0  0  0
  194.0280  175.4470  137.8840 C   0  0  0  0  0  3  0  0  0  0  0  0
  189.4200  174.7980  135.4690 C   0  0  0  0  0  2  0  0  0  0  0  0
  186.3800  178.1350  137.4720 C   0  0  2  0  0  3  0  0  0  0  0  0
  188.1340  178.3350  139.1440 C   0  0  0  0  0  3  0  0  0  0  0  0
  193.0050  176.0840  138.6000 C   0  0  0  0  0  0  0  0  0  0  0  0
  189.5190  176.0480  137.6520 C   0  0  0  0  0  0  0  0  0  0  0  0
  192.2380  173.9260  134.9150 C   0  0  0  0  0  2  0  0  0  0  0  0
  191.2280  176.9960  140.9400 C   0  0  1  0  0  3  0  0  0  0  0  0
  190.2060  172.7170  134.5940 O   0  0  0  0  0  0  0  0  0  0  0  0
  187.6290  177.6130  138.1380 C   0  0  0  0  0  0  0  0  0  0  0  0
  188.1120  176.3120  137.7700 N   0  0  0  0  0  0  0  0  0  0  0  0
  192.5080  177.6980  140.5440 C   0  0  0  0  0  2  0  0  0  0  0  0
  191.4830  178.5210  143.0510 C   0  0  0  0  0  2  0  0  0  0  0  0
  190.7480  177.4280  142.2950 C   0  0  0  0  0  0  0  0  0  0  0  0
  189.6290  176.8770  142.7720 C   0  0  0  0  0  3  0  0  0  0  0  0
  188.0270  176.7590  144.5060 O   0  0  0  0  0  0  0  0  0  0  0  0
  189.8220  178.2460  144.8930 C   0  0  0  0  0  3  0  0  0  0  0  0
  189.0960  177.2680  144.0810 C   0  0  0  0  0  0  0  0  0  0  0  0
  190.9330  178.8160  144.4250 C   0  0  0  0  0  3  0  0  0  0  0  0
  185.1620  177.8560  138.3000 C   0  0  0  0  0  3  0  0  0  0  0  0
  184.6120  178.7530  138.9180 O   0  0  0  0  0  0  0  0  0  0  0  0
  185.4900  173.9730  135.9180 C   0  0  0  0  0  1  0  0  0  0  0  0
  185.4030  175.2900  135.4390 O   0  0  0  0  0  0  0  0  0  0  0  0
  1 25  1  0  0  0  0
  3  7  1  0  0  0  0
  3 19  1  0  0  0  0
  4 37  1  1  0  0  0
  4 11  1  0  0  0  0
  4  1  1  0  0  0  0
  6 10  2  0  0  0  0
  6  8  1  0  0  0  0
  7  9  1  0  0  0  0
  8  3  2  0  0  0  0
  9  5  2  0  0  0  0
  9 22  1  0  0  0  0
 10 15  1  0  0  0  0
 11 17  1  0  0  0  0
 12  8  1  0  0  0  0
 12 20  1  0  0  0  0
 14 26  1  0  0  0  0
 15 19  2  0  0  0  0
 16 13  1  0  0  0  0
 16 12  1  0  0  0  0
 17 24  1  0  0  0  0
 17 34  1  1  0  0  0
 18  5  1  0  0  0  0
 19 14  1  0  0  0  0
 20 25  1  0  0  0  0
 20  7  2  0  0  0  0
 21  2  1  0  0  0  0
 21  6  1  0  0  0  0
 22 28  1  1  0  0  0
 23  2  1  0  0  0  0
 23 13  1  0  0  0  0
 24 18  2  0  0  0  0
 25 24  1  0  0  0  0
 26 22  1  0  0  0  0
 27 33  1  0  0  0  0
 28 29  2  0  0  0  0
 28 27  1  0  0  0  0
 29 32  1  0  0  0  0
 32 30  2  0  0  0  0
 32 31  1  0  0  0  0
 33 31  2  0  0  0  0
 34 35  2  0  0  0  0
 37 36  1  0  0  0  0
M  END
>  <MODEL>
4

>  <REMARK>
 VINA RESULT:      -8.7      3.546      7.627
  Name = 
  3 active torsions:
  status: ('A' for Active; 'I' for Inactive)
    1  A    between atoms: C_5  and  O_23
    2  A    between atoms: C_6  and  C_31
    3  A    between atoms: C_11  and  C_26
                            x       y       z     vdW  Elec       q    Type
                         _______ _______ _______ _____ _____    ______ ____

>  <TORSDO>
F 3

$$$$
=
 OpenBabel10262422463D

 37 43  0  0  1  0  0  0  0  0999 V2000
  188.6010  176.8330  143.8930 C   0  0  0  0  0  2  0  0  0  0  0  0
  183.6930  178.1260  141.7150 C   0  0  0  0  0  2  0  0  0  0  0  0
  187.5590  178.1720  139.5290 C   0  0  0  0  0  0  0  0  0  0  0  0
  188.8080  177.8710  145.0080 C   0  0  2  0  0  3  0  0  0  0  0  0
  191.0380  177.1490  140.2980 N   0  0  0  0  0  0  0  0  0  0  0  0
  185.3390  179.0020  140.0830 C   0  0  0  0  0  0  0  0  0  0  0  0
  188.6620  177.6920  140.2300 C   0  0  0  0  0  0  0  0  0  0  0  0
  186.6010  178.5040  140.4710 C   0  0  0  0  0  0  0  0  0  0  0  0
  189.8970  177.1150  139.6720 C   0  0  0  0  0  0  0  0  0  0  0  0
  185.0820  179.1460  138.7130 C   0  0  0  0  0  3  0  0  0  0  0  0
  190.1550  178.6270  144.9800 C   0  0  0  0  0  2  0  0  0  0  0  0
  187.0610  178.2540  141.7200 N   0  0  0  0  0  0  0  0  0  0  0  0
  185.2540  177.5020  143.1880 C   0  0  0  0  0  2  0  0  0  0  0  0
  188.2660  178.0360  137.1170 N   0  0  0  0  0  2  0  0  0  0  0  0
  186.0570  178.8170  137.7600 C   0  0  0  0  0  3  0  0  0  0  0  0
  186.3770  178.5120  142.9840 C   0  0  0  0  0  2  0  0  0  0  0  0
  191.1860  178.0440  144.0030 C   0  0  2  0  0  3  0  0  0  0  0  0
  191.3740  177.5960  141.6210 C   0  0  0  0  0  3  0  0  0  0  0  0
  187.3150  178.3340  138.1470 C   0  0  0  0  0  0  0  0  0  0  0  0
  188.3170  177.7550  141.5690 C   0  0  0  0  0  0  0  0  0  0  0  0
  184.2540  179.3710  141.0430 C   0  0  0  0  0  2  0  0  0  0  0  0
  189.8520  176.5980  138.2630 C   0  0  1  0  0  3  0  0  0  0  0  0
  184.0160  178.1460  143.0770 O   0  0  0  0  0  0  0  0  0  0  0  0
  190.5590  177.6950  142.6770 C   0  0  0  0  0  0  0  0  0  0  0  0
  189.1690  177.3350  142.6470 N   0  0  0  0  0  0  0  0  0  0  0  0
  189.6800  177.7580  137.3080 C   0  0  0  0  0  2  0  0  0  0  0  0
  192.4190  176.0970  138.3270 C   0  0  0  0  0  2  0  0  0  0  0  0
  191.0150  175.7270  137.8840 C   0  0  0  0  0  0  0  0  0  0  0  0
  190.7640  174.5980  137.2170 C   0  0  0  0  0  3  0  0  0  0  0  0
  191.6000  172.6210  136.2270 O   0  0  0  0  0  0  0  0  0  0  0  0
  193.2370  174.0540  137.1490 C   0  0  0  0  0  3  0  0  0  0  0  0
  191.8530  173.6940  136.8330 C   0  0  0  0  0  0  0  0  0  0  0  0
  193.5020  175.1710  137.8280 C   0  0  0  0  0  3  0  0  0  0  0  0
  191.8610  176.8560  144.6190 C   0  0  0  0  0  3  0  0  0  0  0  0
  192.0220  176.7890  145.8270 O   0  0  0  0  0  0  0  0  0  0  0  0
  187.1380  177.8650  146.5680 C   0  0  0  0  0  1  0  0  0  0  0  0
  188.4370  177.4140  146.2900 O   0  0  0  0  0  0  0  0  0  0  0  0
  1  4  1  0  0  0  0
  2 23  1  0  0  0  0
  3  7  1  0  0  0  0
  3  8  1  0  0  0  0
  4 37  1  1  0  0  0
  5 18  1  0  0  0  0
  6  8  2  0  0  0  0
  6 21  1  0  0  0  0
  7 20  2  0  0  0  0
  8 12  1  0  0  0  0
  9  7  1  0  0  0  0
  9  5  2  0  0  0  0
 10  6  1  0  0  0  0
 11  4  1  0  0  0  0
 12 16  1  0  0  0  0
 14 26  1  0  0  0  0
 14 19  1  0  0  0  0
 15 19  1  0  0  0  0
 15 10  2  0  0  0  0
 16 13  1  0  0  0  0
 17 34  1  1  0  0  0
 17 11  1  0  0  0  0
 18 24  2  0  0  0  0
 19  3  2  0  0  0  0
 20 12  1  0  0  0  0
 20 25  1  0  0  0  0
 21  2  1  0  0  0  0
 22 28  1  6  0  0  0
 22  9  1  0  0  0  0
 23 13  1  0  0  0  0
 24 17  1  0  0  0  0
 25 24  1  0  0  0  0
 25  1  1  0  0  0  0
 26 22  1  0  0  0  0
 28 27  1  0  0  0  0
 29 28  2  0  0  0  0
 30 32  2  0  0  0  0
 31 33  2  0  0  0  0
 32 31  1  0  0  0  0
 32 29  1  0  0  0  0
 33 27  1  0  0  0  0
 34 35  2  0  0  0  0
 37 36  1  0  0  0  0
M  END
>  <MODEL>
5

>  <REMARK>
 VINA RESULT:      -8.6      2.248      8.161
  Name = 
  3 active torsions:
  status: ('A' for Active; 'I' for Inactive)
    1  A    between atoms: C_5  and  O_23
    2  A    between atoms: C_6  and  C_31
    3  A    between atoms: C_11  and  C_26
                            x       y       z     vdW  Elec       q    Type
                         _______ _______ _______ _____ _____    ______ ____

>  <TORSDO>
F 3

$$$$
=
 OpenBabel10262422463D

 37 43  0  0  1  0  0  0  0  0999 V2000
  188.6810  176.9120  138.9320 C   0  0  0  0  0  2  0  0  0  0  0  0
  190.1010  176.3790  144.2420 C   0  0  0  0  0  2  0  0  0  0  0  0
  186.3440  178.2350  142.7690 C   0  0  0  0  0  0  0  0  0  0  0  0
  189.7790  177.8040  138.3320 C   0  0  2  0  0  3  0  0  0  0  0  0
  184.7050  178.6090  139.4640 N   0  0  0  0  0  0  0  0  0  0  0  0
  188.2540  178.0300  144.2650 C   0  0  0  0  0  0  0  0  0  0  0  0
  186.1220  178.1570  141.3960 C   0  0  0  0  0  0  0  0  0  0  0  0
  187.7000  178.0380  142.9660 C   0  0  0  0  0  0  0  0  0  0  0  0
  184.8300  178.1960  140.6930 C   0  0  0  0  0  0  0  0  0  0  0  0
  187.3890  178.2240  145.3490 C   0  0  0  0  0  3  0  0  0  0  0  0
  189.2870  179.0340  137.5390 C   0  0  0  0  0  2  0  0  0  0  0  0
  188.3260  177.8460  141.7810 N   0  0  0  0  0  0  0  0  0  0  0  0
  190.1770  176.2620  142.0120 C   0  0  0  0  0  2  0  0  0  0  0  0
  184.0610  178.6850  143.7280 N   0  0  0  0  0  2  0  0  0  0  0  0
  186.0160  178.4300  145.1480 C   0  0  0  0  0  3  0  0  0  0  0  0
  189.7560  177.6540  141.5570 C   0  0  0  0  0  2  0  0  0  0  0  0
  187.7790  179.0360  137.2470 C   0  0  2  0  0  3  0  0  0  0  0  0
  185.6940  178.9910  138.4950 C   0  0  0  0  0  3  0  0  0  0  0  0
  185.4690  178.4500  143.8570 C   0  0  0  0  0  0  0  0  0  0  0  0
  187.3610  177.9150  140.8260 C   0  0  0  0  0  0  0  0  0  0  0  0
  189.7040  177.8150  144.5530 C   0  0  0  0  0  2  0  0  0  0  0  0
  183.5950  177.8770  141.4850 C   0  0  1  0  0  3  0  0  0  0  0  0
  190.9800  176.3630  143.1540 O   0  0  0  0  0  0  0  0  0  0  0  0
  186.9800  178.6260  138.4580 C   0  0  0  0  0  0  0  0  0  0  0  0
  187.5850  177.7460  139.4170 N   0  0  0  0  0  0  0  0  0  0  0  0
  183.3480  178.9760  142.4950 C   0  0  0  0  0  2  0  0  0  0  0  0
  182.2850  176.3180  139.8410 C   0  0  0  0  0  2  0  0  0  0  0  0
  182.3770  177.5990  140.6520 C   0  0  0  0  0  0  0  0  0  0  0  0
  181.3650  178.4700  140.7060 C   0  0  0  0  0  3  0  0  0  0  0  0
  179.1850  179.0620  140.0110 O   0  0  0  0  0  0  0  0  0  0  0  0
  180.0410  177.0780  139.0560 C   0  0  0  0  0  3  0  0  0  0  0  0
  180.1400  178.2470  139.9310 C   0  0  0  0  0  0  0  0  0  0  0  0
  181.0370  176.1920  139.0020 C   0  0  0  0  0  3  0  0  0  0  0  0
  187.4830  178.1540  136.0720 C   0  0  0  0  0  3  0  0  0  0  0  0
  188.3570  177.8770  135.2670 O   0  0  0  0  0  0  0  0  0  0  0  0
  190.9720  175.8540  138.3430 C   0  0  0  0  0  1  0  0  0  0  0  0
  190.8100  177.0860  137.6900 O   0  0  0  0  0  0  0  0  0  0  0  0
  1 25  1  0  0  0  0
  2 21  1  0  0  0  0
  3  8  2  0  0  0  0
  3 19  1  0  0  0  0
  4 37  1  6  0  0  0
  4  1  1  0  0  0  0
  5  9  2  0  0  0  0
  6 21  1  0  0  0  0
  6 10  2  0  0  0  0
  7  3  1  0  0  0  0
  8  6  1  0  0  0  0
  9  7  1  0  0  0  0
  9 22  1  0  0  0  0
 11  4  1  0  0  0  0
 12  8  1  0  0  0  0
 13 23  1  0  0  0  0
 14 19  1  0  0  0  0
 15 10  1  0  0  0  0
 16 12  1  0  0  0  0
 16 13  1  0  0  0  0
 17 34  1  6  0  0  0
 17 11  1  0  0  0  0
 17 24  1  0  0  0  0
 18  5  1  0  0  0  0
 19 15  2  0  0  0  0
 20  7  2  0  0  0  0
 20 12  1  0  0  0  0
 22 28  1  6  0  0  0
 22 26  1  0  0  0  0
 23  2  1  0  0  0  0
 24 18  2  0  0  0  0
 24 25  1  0  0  0  0
 25 20  1  0  0  0  0
 26 14  1  0  0  0  0
 27 28  1  0  0  0  0
 28 29  2  0  0  0  0
 31 32  1  0  0  0  0
 32 30  2  0  0  0  0
 32 29  1  0  0  0  0
 33 31  2  0  0  0  0
 33 27  1  0  0  0  0
 35 34  2  0  0  0  0
 37 36  1  0  0  0  0
M  END
>  <MODEL>
6

>  <REMARK>
 VINA RESULT:      -8.6      1.993      3.084
  Name = 
  3 active torsions:
  status: ('A' for Active; 'I' for Inactive)
    1  A    between atoms: C_5  and  O_23
    2  A    between atoms: C_6  and  C_31
    3  A    between atoms: C_11  and  C_26
                            x       y       z     vdW  Elec       q    Type
                         _______ _______ _______ _____ _____    ______ ____

>  <TORSDO>
F 3

$$$$
=
 OpenBabel10262422463D

 37 43  0  0  1  0  0  0  0  0999 V2000
  188.7660  176.7160  141.4750 C   0  0  0  0  0  2  0  0  0  0  0  0
  187.9350  176.9630  146.9290 C   0  0  0  0  0  2  0  0  0  0  0  0
  185.1330  178.4890  143.8390 C   0  0  0  0  0  0  0  0  0  0  0  0
  190.0390  177.5470  141.2450 C   0  0  2  0  0  3  0  0  0  0  0  0
  184.9590  178.3550  140.1380 N   0  0  0  0  0  0  0  0  0  0  0  0
  186.2820  178.5480  145.9840 C   0  0  0  0  0  0  0  0  0  0  0  0
  185.4750  178.2160  142.5170 C   0  0  0  0  0  0  0  0  0  0  0  0
  186.2920  178.3600  144.5850 C   0  0  0  0  0  0  0  0  0  0  0  0
  184.5710  178.1200  141.3580 C   0  0  0  0  0  0  0  0  0  0  0  0
  185.0620  178.8650  146.5960 C   0  0  0  0  0  3  0  0  0  0  0  0
  189.9390  178.6420  140.1590 C   0  0  0  0  0  2  0  0  0  0  0  0
  187.3330  178.0240  143.7870 N   0  0  0  0  0  0  0  0  0  0  0  0
  188.8910  176.5410  144.9530 C   0  0  0  0  0  2  0  0  0  0  0  0
  182.6710  179.0020  143.7360 N   0  0  0  0  0  2  0  0  0  0  0  0
  183.8900  179.0020  145.8370 C   0  0  0  0  0  3  0  0  0  0  0  0
  188.7280  177.8440  144.1800 C   0  0  0  0  0  2  0  0  0  0  0  0
  188.6730  178.5600  139.2940 C   0  0  2  0  0  3  0  0  0  0  0  0
  186.2630  178.6280  139.6000 C   0  0  0  0  0  3  0  0  0  0  0  0
  183.9040  178.8270  144.4460 C   0  0  0  0  0  0  0  0  0  0  0  0
  186.8310  177.9330  142.5270 C   0  0  0  0  0  0  0  0  0  0  0  0
  187.4900  178.4170  146.8540 C   0  0  0  0  0  2  0  0  0  0  0  0
  183.1140  177.8790  141.6280 C   0  0  1  0  0  3  0  0  0  0  0  0
  189.1750  176.8230  146.2950 O   0  0  0  0  0  0  0  0  0  0  0  0
  187.4460  178.2990  140.1300 C   0  0  0  0  0  0  0  0  0  0  0  0
  187.5930  177.5770  141.3620 N   0  0  0  0  0  0  0  0  0  0  0  0
  182.5180  179.0990  142.2930 C   0  0  0  0  0  2  0  0  0  0  0  0
  182.5820  176.1030  139.7810 C   0  0  0  0  0  2  0  0  0  0  0  0
  182.3220  177.4530  140.4250 C   0  0  0  0  0  0  0  0  0  0  0  0
  181.3490  178.2600  139.9950 C   0  0  0  0  0  3  0  0  0  0  0  0
  179.5960  178.6520  138.4590 O   0  0  0  0  0  0  0  0  0  0  0  0
  180.8020  176.6490  138.1200 C   0  0  0  0  0  3  0  0  0  0  0  0
  180.5260  177.8950  138.8380 C   0  0  0  0  0  0  0  0  0  0  0  0
  181.7610  175.8260  138.5460 C   0  0  0  0  0  3  0  0  0  0  0  0
  188.8450  177.5150  138.2320 C   0  0  0  0  0  3  0  0  0  0  0  0
  189.9590  177.1700  137.8740 O   0  0  0  0  0  0  0  0  0  0  0  0
  192.1840  177.5030  140.4600 C   0  0  0  0  0  1  0  0  0  0  0  0
  191.2180  176.7770  141.1730 O   0  0  0  0  0  0  0  0  0  0  0  0
  3 19  2  0  0  0  0
  3  8  1  0  0  0  0
  4 37  1  6  0  0  0
  4  1  1  0  0  0  0
  5  9  2  0  0  0  0
  6 10  1  0  0  0  0
  6 21  1  0  0  0  0
  7 20  2  0  0  0  0
  7  3  1  0  0  0  0
  8  6  2  0  0  0  0
  9 22  1  0  0  0  0
  9  7  1  0  0  0  0
 11  4  1  0  0  0  0
 12 16  1  0  0  0  0
 12  8  1  0  0  0  0
 13 23  1  0  0  0  0
 14 19  1  0  0  0  0
 15 10  2  0  0  0  0
 16 13  1  0  0  0  0
 17 34  1  6  0  0  0
 17 24  1  0  0  0  0
 17 11  1  0  0  0  0
 18 24  2  0  0  0  0
 18  5  1  0  0  0  0
 19 15  1  0  0  0  0
 20 12  1  0  0  0  0
 21  2  1  0  0  0  0
 22 28  1  6  0  0  0
 22 26  1  0  0  0  0
 23  2  1  0  0  0  0
 24 25  1  0  0  0  0
 25  1  1  0  0  0  0
 25 20  1  0  0  0  0
 26 14  1  0  0  0  0
 27 28  1  0  0  0  0
 29 28  2  0  0  0  0
 30 32  2  0  0  0  0
 31 33  2  0  0  0  0
 31 32  1  0  0  0  0
 32 29  1  0  0  0  0
 33 27  1  0  0  0  0
 35 34  2  0  0  0  0
 36 37  1  0  0  0  0
M  END
>  <MODEL>
7

>  <REMARK>
 VINA RESULT:      -8.2      2.098      3.484
  Name = 
  3 active torsions:
  status: ('A' for Active; 'I' for Inactive)
    1  A    between atoms: C_5  and  O_23
    2  A    between atoms: C_6  and  C_31
    3  A    between atoms: C_11  and  C_26
                            x       y       z     vdW  Elec       q    Type
                         _______ _______ _______ _____ _____    ______ ____

>  <TORSDO>
F 3

$$$$
=
 OpenBabel10262422463D

 37 43  0  0  1  0  0  0  0  0999 V2000
  188.7260  176.7730  141.5090 C   0  0  0  0  0  2  0  0  0  0  0  0
  187.0070  177.2250  146.7380 C   0  0  0  0  0  2  0  0  0  0  0  0
  184.7050  178.5100  143.1630 C   0  0  0  0  0  0  0  0  0  0  0  0
  189.9940  177.6400  141.4490 C   0  0  2  0  0  3  0  0  0  0  0  0
  185.1430  178.2100  139.4940 N   0  0  0  0  0  0  0  0  0  0  0  0
  185.4840  178.7050  145.4610 C   0  0  0  0  0  0  0  0  0  0  0  0
  185.2660  178.1930  141.9290 C   0  0  0  0  0  0  0  0  0  0  0  0
  185.7290  178.4570  144.0930 C   0  0  0  0  0  0  0  0  0  0  0  0
  184.5680  178.0140  140.6450 C   0  0  0  0  0  0  0  0  0  0  0  0
  184.1710  179.0020  145.8510 C   0  0  0  0  0  3  0  0  0  0  0  0
  190.0410  178.6820  140.3090 C   0  0  0  0  0  2  0  0  0  0  0  0
  186.8950  178.1260  143.4920 N   0  0  0  0  0  0  0  0  0  0  0  0
  188.2850  176.7540  144.9660 C   0  0  0  0  0  2  0  0  0  0  0  0
  182.2790  178.9260  142.6370 N   0  0  0  0  0  2  0  0  0  0  0  0
  183.1360  179.0630  144.9060 C   0  0  0  0  0  3  0  0  0  0  0  0
  188.2120  178.0150  144.1140 C   0  0  0  0  0  2  0  0  0  0  0  0
  188.9370  178.5160  139.2550 C   0  0  2  0  0  3  0  0  0  0  0  0
  186.5090  178.5070  139.1620 C   0  0  0  0  0  3  0  0  0  0  0  0
  183.3830  178.8280  143.5460 C   0  0  0  0  0  0  0  0  0  0  0  0
  186.6100  177.9610  142.1730 C   0  0  0  0  0  0  0  0  0  0  0  0
  186.5370  178.6560  146.5210 C   0  0  0  0  0  2  0  0  0  0  0  0
  183.0940  177.7300  140.6870 C   0  0  1  0  0  3  0  0  0  0  0  0
  188.3370  177.1030  146.3210 O   0  0  0  0  0  0  0  0  0  0  0  0
  187.5980  178.2460  139.8920 C   0  0  0  0  0  0  0  0  0  0  0  0
  187.5630  177.5840  141.1660 N   0  0  0  0  0  0  0  0  0  0  0  0
  182.3600  178.9550  141.1860 C   0  0  0  0  0  2  0  0  0  0  0  0
  181.8700  178.1880  138.4200 C   0  0  0  0  0  2  0  0  0  0  0  0
  182.5230  177.2230  139.3940 C   0  0  0  0  0  0  0  0  0  0  0  0
  182.6720  175.9280  139.1050 C   0  0  0  0  0  3  0  0  0  0  0  0
  182.3250  174.1570  137.5790 O   0  0  0  0  0  0  0  0  0  0  0  0
  181.4290  176.2420  136.9210 C   0  0  0  0  0  3  0  0  0  0  0  0
  182.1550  175.3730  137.8490 C   0  0  0  0  0  0  0  0  0  0  0  0
  181.2850  177.5400  137.1880 C   0  0  0  0  0  3  0  0  0  0  0  0
  189.3110  177.4330  138.2870 C   0  0  0  0  0  3  0  0  0  0  0  0
  190.4740  177.2730  137.9530 O   0  0  0  0  0  0  0  0  0  0  0  0
  191.6810  177.1300  142.9040 C   0  0  0  0  0  1  0  0  0  0  0  0
  191.1920  176.9120  141.6070 O   0  0  0  0  0  0  0  0  0  0  0  0
  3 19  2  0  0  0  0
  3  8  1  0  0  0  0
  4  1  1  0  0  0  0
  4 37  1  6  0  0  0
  5  9  2  0  0  0  0
  6 10  1  0  0  0  0
  6 21  1  0  0  0  0
  7 20  2  0  0  0  0
  7  3  1  0  0  0  0
  8  6  2  0  0  0  0
  9 22  1  0  0  0  0
  9  7  1  0  0  0  0
 11  4  1  0  0  0  0
 12  8  1  0  0  0  0
 12 16  1  0  0  0  0
 13 23  1  0  0  0  0
 14 19  1  0  0  0  0
 15 10  2  0  0  0  0
 16 13  1  0  0  0  0
 17 34  1  6  0  0  0
 17 24  1  0  0  0  0
 17 11  1  0  0  0  0
 18  5  1  0  0  0  0
 18 24  2  0  0  0  0
 19 15  1  0  0  0  0
 20 12  1  0  0  0  0
 21  2  1  0  0  0  0
 22 28  1  6  0  0  0
 22 26  1  0  0  0  0
 23  2  1  0  0  0  0
 24 25  1  0  0  0  0
 25  1  1  0  0  0  0
 25 20  1  0  0  0  0
 26 14  1  0  0  0  0
 27 28  1  0  0  0  0
 29 28  2  0  0  0  0
 30 32  2  0  0  0  0
 31 33  2  0  0  0  0
 31 32  1  0  0  0  0
 32 29  1  0  0  0  0
 33 27  1  0  0  0  0
 35 34  2  0  0  0  0
 37 36  1  0  0  0  0
M  END
>  <MODEL>
8

>  <REMARK>
 VINA RESULT:      -8.1      2.513      4.246
  Name = 
  3 active torsions:
  status: ('A' for Active; 'I' for Inactive)
    1  A    between atoms: C_5  and  O_23
    2  A    between atoms: C_6  and  C_31
    3  A    between atoms: C_11  and  C_26
                            x       y       z     vdW  Elec       q    Type
                         _______ _______ _______ _____ _____    ______ ____

>  <TORSDO>
F 3

$$$$
=
 OpenBabel10262422463D

 37 43  0  0  1  0  0  0  0  0999 V2000
  181.4720  177.1040  140.5950 C   0  0  0  0  0  2  0  0  0  0  0  0
  184.1820  176.0630  135.8980 C   0  0  0  0  0  2  0  0  0  0  0  0
  185.8840  178.1520  139.4290 C   0  0  0  0  0  0  0  0  0  0  0  0
  180.3070  178.0120  140.1700 C   0  0  2  0  0  3  0  0  0  0  0  0
  184.7340  178.8640  142.8810 N   0  0  0  0  0  0  0  0  0  0  0  0
  185.5750  177.7600  137.0460 C   0  0  0  0  0  0  0  0  0  0  0  0
  185.0710  178.2020  140.5590 C   0  0  0  0  0  0  0  0  0  0  0  0
  185.0540  177.8990  138.3510 C   0  0  0  0  0  0  0  0  0  0  0  0
  185.4940  178.3410  141.9620 C   0  0  0  0  0  0  0  0  0  0  0  0
  186.9600  177.8830  136.8760 C   0  0  0  0  0  3  0  0  0  0  0  0
  180.1480  179.3220  140.9740 C   0  0  0  0  0  2  0  0  0  0  0  0
  183.7680  177.7930  138.7600 N   0  0  0  0  0  0  0  0  0  0  0  0
  182.5530  176.1410  137.4250 C   0  0  0  0  0  2  0  0  0  0  0  0
  188.1960  178.5830  140.3250 N   0  0  0  0  0  2  0  0  0  0  0  0
  187.7990  178.1470  137.9680 C   0  0  0  0  0  3  0  0  0  0  0  0
  182.5880  177.5800  137.9270 C   0  0  0  0  0  2  0  0  0  0  0  0
  181.0120  179.3940  142.2410 C   0  0  2  0  0  3  0  0  0  0  0  0
  183.3670  179.3000  142.8350 C   0  0  0  0  0  3  0  0  0  0  0  0
  187.2790  178.2960  139.2610 C   0  0  0  0  0  0  0  0  0  0  0  0
  183.7820  177.9750  140.1080 C   0  0  0  0  0  0  0  0  0  0  0  0
  184.7410  177.4780  135.8390 C   0  0  0  0  0  2  0  0  0  0  0  0
  186.9140  177.9900  142.3010 C   0  0  1  0  0  3  0  0  0  0  0  0
  182.7920  176.1180  136.0460 O   0  0  0  0  0  0  0  0  0  0  0  0
  182.4140  178.9030  141.9860 C   0  0  0  0  0  0  0  0  0  0  0  0
  182.6240  177.9230  140.9560 N   0  0  0  0  0  0  0  0  0  0  0  0
  187.8460  179.0030  141.6720 C   0  0  0  0  0  2  0  0  0  0  0  0
  186.0280  177.8530  144.7590 C   0  0  0  0  0  2  0  0  0  0  0  0
  187.1790  177.8220  143.7700 C   0  0  0  0  0  0  0  0  0  0  0  0
  188.4330  177.5770  144.1590 C   0  0  0  0  0  3  0  0  0  0  0  0
  189.9360  177.1290  145.9270 O   0  0  0  0  0  0  0  0  0  0  0  0
  187.6970  177.5030  146.5810 C   0  0  0  0  0  3  0  0  0  0  0  0
  188.7560  177.3840  145.5760 C   0  0  0  0  0  0  0  0  0  0  0  0
  186.4380  177.7330  146.2070 C   0  0  0  0  0  3  0  0  0  0  0  0
  180.3580  178.6280  143.3510 C   0  0  0  0  0  3  0  0  0  0  0  0
  179.1590  178.4010  143.3280 O   0  0  0  0  0  0  0  0  0  0  0  0
  179.1710  176.0740  140.5900 C   0  0  0  0  0  1  0  0  0  0  0  0
  179.0950  177.3230  139.9560 O   0  0  0  0  0  0  0  0  0  0  0  0
  1 25  1  0  0  0  0
  2 23  1  0  0  0  0
  3  7  1  0  0  0  0
  4 37  1  1  0  0  0
  4  1  1  0  0  0  0
  4 11  1  0  0  0  0
  6  8  1  0  0  0  0
  7  9  1  0  0  0  0
  8 12  1  0  0  0  0
  8  3  2  0  0  0  0
  9 22  1  0  0  0  0
  9  5  2  0  0  0  0
 10  6  2  0  0  0  0
 10 15  1  0  0  0  0
 11 17  1  0  0  0  0
 12 20  1  0  0  0  0
 13 16  1  0  0  0  0
 14 26  1  0  0  0  0
 15 19  2  0  0  0  0
 16 12  1  0  0  0  0
 17 34  1  1  0  0  0
 18  5  1  0  0  0  0
 19  3  1  0  0  0  0
 19 14  1  0  0  0  0
 20  7  2  0  0  0  0
 20 25  1  0  0  0  0
 21  2  1  0  0  0  0
 21  6  1  0  0  0  0
 22 28  1  1  0  0  0
 23 13  1  0  0  0  0
 24 17  1  0  0  0  0
 24 18  2  0  0  0  0
 25 24  1  0  0  0  0
 26 22  1  0  0  0  0
 27 33  1  0  0  0  0
 28 29  2  0  0  0  0
 28 27  1  0  0  0  0
 29 32  1  0  0  0  0
 32 30  2  0  0  0  0
 32 31  1  0  0  0  0
 33 31  2  0  0  0  0
 35 34  2  0  0  0  0
 37 36  1  0  0  0  0
M  END
>  <MODEL>
9

>  <REMARK>
 VINA RESULT:      -8.1      2.718      8.310
  Name = 
  3 active torsions:
  status: ('A' for Active; 'I' for Inactive)
    1  A    between atoms: C_5  and  O_23
    2  A    between atoms: C_6  and  C_31
    3  A    between atoms: C_11  and  C_26
                            x       y       z     vdW  Elec       q    Type
                         _______ _______ _______ _____ _____    ______ ____

>  <TORSDO>
F 3

$$$$
