=
 OpenBabel10262421233D

 32 37  0  0  1  0  0  0  0  0999 V2000
  191.0290  177.6240  144.5650 C   0  0  2  0  0  3  0  0  0  0  0  0
  186.9190  178.2050  143.1760 C   0  0  0  0  0  0  0  0  0  0  0  0
  188.4820  178.2460  138.6150 C   0  0  0  0  0  3  0  0  0  0  0  0
  187.1740  178.4120  138.1630 C   0  0  0  0  0  3  0  0  0  0  0  0
  184.4630  178.4800  143.5960 C   0  0  0  0  0  0  0  0  0  0  0  0
  183.1910  178.6430  143.0480 C   0  0  0  0  0  0  0  0  0  0  0  0
  188.6520  178.2790  145.0250 C   0  0  2  0  0  3  0  0  0  0  0  0
  189.4230  178.0270  142.6770 C   0  0  0  0  0  2  0  0  0  0  0  0
  181.6000  178.9010  141.3150 C   0  0  2  0  0  3  0  0  0  0  0  0
  191.4410  178.9470  144.5360 F   0  0  0  0  0  0  0  0  0  0  0  0
  188.7210  178.1550  139.9490 N   0  0  0  0  0  0  0  0  0  0  0  0
  187.9800  178.1170  142.2340 C   0  0  0  0  0  0  0  0  0  0  0  0
  187.7110  178.2190  140.8610 C   0  0  0  0  0  0  0  0  0  0  0  0
  185.3340  178.4700  141.3140 C   0  0  0  0  0  0  0  0  0  0  0  0
  180.8680  178.9660  142.6640 C   0  0  0  0  0  3  0  0  0  0  0  0
  190.0370  177.4070  146.9090 C   0  0  0  0  0  3  0  0  0  0  0  0
  189.5770  177.5000  144.0950 C   0  0  1  0  0  3  0  0  0  0  0  0
  181.9110  178.7770  143.7780 C   0  0  0  0  0  3  0  0  0  0  0  0
  188.8780  177.9190  146.4700 C   0  0  0  0  0  3  0  0  0  0  0  0
  191.1920  177.0690  145.9860 C   0  0  1  0  0  3  0  0  0  0  0  0
  186.1600  178.4800  139.0650 N   0  0  0  0  0  0  0  0  0  0  0  0
  186.3910  178.3880  140.4040 C   0  0  0  0  0  0  0  0  0  0  0  0
  184.0620  178.6340  140.8460 N   0  0  0  0  0  0  0  0  0  0  0  0
  187.2100  177.9870  144.6450 C   0  0  0  0  0  2  0  0  0  0  0  0
  184.5900  178.4300  144.9800 O   0  0  0  0  0  1  0  0  0  0  0  0
  181.1070  177.6980  140.5320 C   0  0  0  0  0  1  0  0  0  0  0  0
  185.5810  178.3810  142.7190 C   0  0  0  0  0  0  0  0  0  0  0  0
  183.0140  178.7100  141.7010 C   0  0  0  0  0  0  0  0  0  0  0  0
  191.5280  175.5730  145.9690 C   0  0  2  0  0  3  0  0  0  0  0  0
  192.4610  175.1660  147.1030 C   0  0  0  0  0  1  0  0  0  0  0  0
  192.1150  175.1710  144.6240 C   0  0  0  0  0  2  0  0  0  0  0  0
  192.5630  173.8500  144.6730 O   0  0  0  0  0  1  0  0  0  0  0  0
  1 10  1  1  0  0  0
  1 20  1  0  0  0  0
  2 24  1  0  0  0  0
  3 11  1  0  0  0  0
  4  3  2  0  0  0  0
  4 21  1  0  0  0  0
  5 25  1  0  0  0  0
  6  5  1  0  0  0  0
  6 18  1  0  0  0  0
  7 24  1  6  0  0  0
  7 19  1  0  0  0  0
  9 26  1  6  0  0  0
  9 28  1  0  0  0  0
  9 15  1  0  0  0  0
 11 13  2  0  0  0  0
 12  8  1  0  0  0  0
 12  2  2  0  0  0  0
 13 12  1  0  0  0  0
 14 27  1  0  0  0  0
 15 18  2  0  0  0  0
 17  8  1  6  0  0  0
 17  1  1  0  0  0  0
 17  7  1  0  0  0  0
 19 16  2  0  0  0  0
 20 29  1  6  0  0  0
 20 16  1  0  0  0  0
 21 22  2  0  0  0  0
 22 13  1  0  0  0  0
 22 14  1  0  0  0  0
 23 14  2  0  0  0  0
 23 28  1  0  0  0  0
 27  2  1  0  0  0  0
 27  5  2  0  0  0  0
 28  6  2  0  0  0  0
 29 30  1  1  0  0  0
 31 32  1  0  0  0  0
 31 29  1  0  0  0  0
M  END
>  <MODEL>
1

>  <REMARK>
 VINA RESULT:     -10.2      0.000      0.000
  Name = 
  2 active torsions:
  status: ('A' for Active; 'I' for Inactive)
    1  A    between atoms: C_1  and  C_10
    2  A    between atoms: C_10  and  C_24
                            x       y       z     vdW  Elec       q    Type
                         _______ _______ _______ _____ _____    ______ ____

>  <TORSDO>
F 2

$$$$
=
 OpenBabel10262421233D

 32 37  0  0  1  0  0  0  0  0999 V2000
  189.3390  177.4380  137.1840 C   0  0  2  0  0  3  0  0  0  0  0  0
  189.4230  177.4330  141.5600 C   0  0  0  0  0  0  0  0  0  0  0  0
  184.8870  179.0670  141.6330 C   0  0  0  0  0  3  0  0  0  0  0  0
  184.8980  179.0500  143.0270 C   0  0  0  0  0  3  0  0  0  0  0  0
  190.5770  177.0210  143.7480 C   0  0  0  0  0  0  0  0  0  0  0  0
  190.4900  177.0360  145.1390 C   0  0  0  0  0  0  0  0  0  0  0  0
  190.6330  177.3890  139.3330 C   0  0  2  0  0  3  0  0  0  0  0  0
  188.2170  177.9670  139.3670 C   0  0  0  0  0  2  0  0  0  0  0  0
  189.4550  177.3900  147.2380 C   0  0  2  0  0  3  0  0  0  0  0  0
  189.6350  178.7760  136.9780 F   0  0  0  0  0  0  0  0  0  0  0  0
  185.9940  178.6710  140.9520 N   0  0  0  0  0  0  0  0  0  0  0  0
  188.2480  177.8460  140.8740 C   0  0  0  0  0  0  0  0  0  0  0  0
  187.1190  178.2550  141.5970 C   0  0  0  0  0  0  0  0  0  0  0  0
  188.2720  177.8300  143.6970 C   0  0  0  0  0  0  0  0  0  0  0  0
  190.8970  176.9190  147.4780 C   0  0  0  0  0  3  0  0  0  0  0  0
  191.6590  176.3710  137.2980 C   0  0  0  0  0  3  0  0  0  0  0  0
  189.2800  177.1220  138.6810 C   0  0  1  0  0  3  0  0  0  0  0  0
  191.5490  176.6740  146.1070 C   0  0  0  0  0  3  0  0  0  0  0  0
  191.7540  176.7090  138.5920 C   0  0  0  0  0  3  0  0  0  0  0  0
  190.3930  176.5670  136.4850 C   0  0  1  0  0  3  0  0  0  0  0  0
  186.0170  178.6390  143.6800 N   0  0  0  0  0  0  0  0  0  0  0  0
  187.1300  178.2400  143.0040 C   0  0  0  0  0  0  0  0  0  0  0  0
  188.2580  177.8240  145.0630 N   0  0  0  0  0  0  0  0  0  0  0  0
  190.5950  176.8940  140.7690 C   0  0  0  0  0  2  0  0  0  0  0  0
  191.7730  176.6250  143.1590 O   0  0  0  0  0  1  0  0  0  0  0  0
  188.4890  176.3680  147.8070 C   0  0  0  0  0  1  0  0  0  0  0  0
  189.4410  177.4190  142.9850 C   0  0  0  0  0  0  0  0  0  0  0  0
  189.3460  177.4260  145.7640 C   0  0  0  0  0  0  0  0  0  0  0  0
  189.7900  175.2490  135.9860 C   0  0  2  0  0  3  0  0  0  0  0  0
  188.2950  175.1440  136.2630 C   0  0  0  0  0  1  0  0  0  0  0  0
  190.5290  174.0620  136.5840 C   0  0  0  0  0  2  0  0  0  0  0  0
  189.6920  173.3690  137.4610 O   0  0  0  0  0  1  0  0  0  0  0  0
  1 10  1  1  0  0  0
  1 17  1  0  0  0  0
  2 27  1  0  0  0  0
  3  4  1  0  0  0  0
  4 21  2  0  0  0  0
  5  6  1  0  0  0  0
  6 28  2  0  0  0  0
  6 18  1  0  0  0  0
  7 19  1  6  0  0  0
  7 24  1  0  0  0  0
  8 12  1  0  0  0  0
  9 15  1  0  0  0  0
  9 26  1  6  0  0  0
 11 13  1  0  0  0  0
 11  3  2  0  0  0  0
 12  2  2  0  0  0  0
 12 13  1  0  0  0  0
 13 22  2  0  0  0  0
 14 23  2  0  0  0  0
 16 19  2  0  0  0  0
 17  7  1  0  0  0  0
 17  8  1  1  0  0  0
 18 15  2  0  0  0  0
 20 29  1  1  0  0  0
 20  1  1  0  0  0  0
 20 16  1  0  0  0  0
 22 21  1  0  0  0  0
 22 14  1  0  0  0  0
 23 28  1  0  0  0  0
 24  2  1  0  0  0  0
 25  5  1  0  0  0  0
 27 14  1  0  0  0  0
 27  5  2  0  0  0  0
 28  9  1  0  0  0  0
 29 30  1  1  0  0  0
 29 31  1  0  0  0  0
 31 32  1  0  0  0  0
M  END
>  <MODEL>
2

>  <REMARK>
 VINA RESULT:     -10.2      3.093      7.232
  Name = 
  2 active torsions:
  status: ('A' for Active; 'I' for Inactive)
    1  A    between atoms: C_1  and  C_10
    2  A    between atoms: C_10  and  C_24
                            x       y       z     vdW  Elec       q    Type
                         _______ _______ _______ _____ _____    ______ ____

>  <TORSDO>
F 2

$$$$
=
 OpenBabel10262421233D

 32 37  0  0  1  0  0  0  0  0999 V2000
  181.9930  179.3420  138.6440 C   0  0  2  0  0  3  0  0  0  0  0  0
  185.2890  178.4540  141.3830 C   0  0  0  0  0  0  0  0  0  0  0  0
  188.3560  178.4340  137.6630 C   0  0  0  0  0  3  0  0  0  0  0  0
  189.4140  178.1700  138.5310 C   0  0  0  0  0  3  0  0  0  0  0  0
  186.1970  178.0200  143.6800 C   0  0  0  0  0  0  0  0  0  0  0  0
  187.3190  177.7590  144.4660 C   0  0  0  0  0  0  0  0  0  0  0  0
  182.8060  178.5340  140.8750 C   0  0  2  0  0  3  0  0  0  0  0  0
  184.4170  178.7940  139.0020 C   0  0  0  0  0  2  0  0  0  0  0  0
  189.6120  177.3600  144.8990 C   0  0  2  0  0  3  0  0  0  0  0  0
  181.7340  178.0510  138.2140 F   0  0  0  0  0  0  0  0  0  0  0  0
  187.1000  178.5670  138.1630 N   0  0  0  0  0  0  0  0  0  0  0  0
  185.5430  178.5970  139.9920 C   0  0  0  0  0  0  0  0  0  0  0  0
  186.8460  178.4510  139.4970 C   0  0  0  0  0  0  0  0  0  0  0  0
  187.6870  178.0460  141.7440 C   0  0  0  0  0  0  0  0  0  0  0  0
  188.8410  177.2700  146.2250 C   0  0  0  0  0  3  0  0  0  0  0  0
  180.5250  179.5360  140.7260 C   0  0  0  0  0  3  0  0  0  0  0  0
  183.1560  179.3580  139.6390 C   0  0  1  0  0  3  0  0  0  0  0  0
  187.3580  177.5520  145.9310 C   0  0  0  0  0  3  0  0  0  0  0  0
  181.4770  178.9370  141.4560 C   0  0  0  0  0  3  0  0  0  0  0  0
  180.7260  179.9350  139.2760 C   0  0  1  0  0  3  0  0  0  0  0  0
  189.1710  178.0500  139.8630 N   0  0  0  0  0  0  0  0  0  0  0  0
  187.9150  178.1830  140.3720 C   0  0  0  0  0  0  0  0  0  0  0  0
  188.7410  177.7870  142.5730 N   0  0  0  0  0  0  0  0  0  0  0  0
  183.8970  178.7200  141.9170 C   0  0  0  0  0  2  0  0  0  0  0  0
  184.9550  178.1050  144.2990 O   0  0  0  0  0  1  0  0  0  0  0  0
  190.5980  178.5120  144.9670 C   0  0  0  0  0  1  0  0  0  0  0  0
  186.3660  178.1790  142.2740 C   0  0  0  0  0  0  0  0  0  0  0  0
  188.5550  177.6550  143.9070 C   0  0  0  0  0  0  0  0  0  0  0  0
  180.6440  181.4490  139.0540 C   0  0  2  0  0  3  0  0  0  0  0  0
  179.2710  182.0190  139.3910 C   0  0  0  0  0  1  0  0  0  0  0  0
  181.0340  181.8030  137.6270 C   0  0  0  0  0  2  0  0  0  0  0  0
  181.2360  183.1800  137.5150 O   0  0  0  0  0  1  0  0  0  0  0  0
  1 10  1  1  0  0  0
  1 20  1  0  0  0  0
  1 17  1  0  0  0  0
  2 24  1  0  0  0  0
  2 27  1  0  0  0  0
  3 11  2  0  0  0  0
  3  4  1  0  0  0  0
  4 21  2  0  0  0  0
  5 25  1  0  0  0  0
  5  6  1  0  0  0  0
  6 18  1  0  0  0  0
  7 19  1  1  0  0  0
  7 24  1  0  0  0  0
  8 12  1  0  0  0  0
  9 26  1  1  0  0  0
  9 15  1  0  0  0  0
 11 13  1  0  0  0  0
 12  2  2  0  0  0  0
 13 12  1  0  0  0  0
 13 22  2  0  0  0  0
 14 27  1  0  0  0  0
 14 23  2  0  0  0  0
 16 19  2  0  0  0  0
 17  8  1  6  0  0  0
 17  7  1  0  0  0  0
 18 15  2  0  0  0  0
 20 29  1  1  0  0  0
 20 16  1  0  0  0  0
 21 22  1  0  0  0  0
 22 14  1  0  0  0  0
 23 28  1  0  0  0  0
 27  5  2  0  0  0  0
 28  6  2  0  0  0  0
 28  9  1  0  0  0  0
 29 30  1  6  0  0  0
 31 29  1  0  0  0  0
 32 31  1  0  0  0  0
M  END
>  <MODEL>
3

>  <REMARK>
 VINA RESULT:      -9.9      3.195      8.312
  Name = 
  2 active torsions:
  status: ('A' for Active; 'I' for Inactive)
    1  A    between atoms: C_1  and  C_10
    2  A    between atoms: C_10  and  C_24
                            x       y       z     vdW  Elec       q    Type
                         _______ _______ _______ _____ _____    ______ ____

>  <TORSDO>
F 2

$$$$
=
 OpenBabel10262421233D

 32 37  0  0  1  0  0  0  0  0999 V2000
  191.2680  177.5780  144.2030 C   0  0  2  0  0  3  0  0  0  0  0  0
  187.3570  178.1490  142.3230 C   0  0  0  0  0  0  0  0  0  0  0  0
  189.4500  178.0750  137.9800 C   0  0  0  0  0  3  0  0  0  0  0  0
  188.2070  178.2370  137.3730 C   0  0  0  0  0  3  0  0  0  0  0  0
  184.8700  178.4470  142.4430 C   0  0  0  0  0  0  0  0  0  0  0  0
  183.6740  178.6050  141.7440 C   0  0  0  0  0  0  0  0  0  0  0  0
  188.8590  178.2570  144.3640 C   0  0  2  0  0  3  0  0  0  0  0  0
  189.9010  177.9460  142.1300 C   0  0  0  0  0  2  0  0  0  0  0  0
  182.3020  178.8300  139.8280 C   0  0  2  0  0  3  0  0  0  0  0  0
  191.6910  178.8980  144.1940 F   0  0  0  0  0  0  0  0  0  0  0  0
  189.5290  178.0130  139.3350 N   0  0  0  0  0  0  0  0  0  0  0  0
  188.5210  178.0330  141.5160 C   0  0  0  0  0  0  0  0  0  0  0  0
  188.4180  178.1050  140.1190 C   0  0  0  0  0  0  0  0  0  0  0  0
  186.0060  178.3790  140.2810 C   0  0  0  0  0  0  0  0  0  0  0  0
  181.4160  178.9310  141.0790 C   0  0  0  0  0  3  0  0  0  0  0  0
  190.0030  177.4210  146.4180 C   0  0  0  0  0  3  0  0  0  0  0  0
  189.8810  177.4510  143.5680 C   0  0  1  0  0  3  0  0  0  0  0  0
  182.3180  178.7620  142.3130 C   0  0  0  0  0  3  0  0  0  0  0  0
  188.9090  177.9300  145.8320 C   0  0  0  0  0  3  0  0  0  0  0  0
  191.2570  177.0550  145.6460 C   0  0  1  0  0  3  0  0  0  0  0  0
  187.0930  178.3310  138.1460 N   0  0  0  0  0  0  0  0  0  0  0  0
  187.1630  178.2700  139.5050 C   0  0  0  0  0  0  0  0  0  0  0  0
  184.8000  178.5390  139.6620 N   0  0  0  0  0  0  0  0  0  0  0  0
  187.4690  177.9640  143.8210 C   0  0  0  0  0  2  0  0  0  0  0  0
  184.8320  178.4290  143.8330 O   0  0  0  0  0  1  0  0  0  0  0  0
  181.8950  177.6120  139.0200 C   0  0  0  0  0  1  0  0  0  0  0  0
  186.0840  178.3210  141.7070 C   0  0  0  0  0  0  0  0  0  0  0  0
  183.6590  178.6410  140.3840 C   0  0  0  0  0  0  0  0  0  0  0  0
  191.5800  175.5580  145.7030 C   0  0  2  0  0  3  0  0  0  0  0  0
  192.4950  175.1970  146.8670 C   0  0  0  0  0  1  0  0  0  0  0  0
  192.1810  175.0890  144.3860 C   0  0  0  0  0  2  0  0  0  0  0  0
  192.5220  173.7380  144.4700 O   0  0  0  0  0  1  0  0  0  0  0  0
  1 10  1  1  0  0  0
  1 20  1  0  0  0  0
  2 24  1  0  0  0  0
  3 11  1  0  0  0  0
  4  3  2  0  0  0  0
  4 21  1  0  0  0  0
  5 25  1  0  0  0  0
  6 18  1  0  0  0  0
  6  5  1  0  0  0  0
  7 24  1  6  0  0  0
  7 19  1  0  0  0  0
  9 26  1  6  0  0  0
  9 28  1  0  0  0  0
  9 15  1  0  0  0  0
 11 13  2  0  0  0  0
 12  8  1  0  0  0  0
 12  2  2  0  0  0  0
 13 12  1  0  0  0  0
 14 27  1  0  0  0  0
 15 18  2  0  0  0  0
 17  8  1  6  0  0  0
 17  1  1  0  0  0  0
 17  7  1  0  0  0  0
 19 16  2  0  0  0  0
 20 29  1  6  0  0  0
 20 16  1  0  0  0  0
 21 22  2  0  0  0  0
 22 13  1  0  0  0  0
 22 14  1  0  0  0  0
 23 14  2  0  0  0  0
 23 28  1  0  0  0  0
 27  2  1  0  0  0  0
 27  5  2  0  0  0  0
 28  6  2  0  0  0  0
 29 30  1  1  0  0  0
 31 32  1  0  0  0  0
 31 29  1  0  0  0  0
M  END
>  <MODEL>
4

>  <REMARK>
 VINA RESULT:      -9.4      0.919      1.062
  Name = 
  2 active torsions:
  status: ('A' for Active; 'I' for Inactive)
    1  A    between atoms: C_1  and  C_10
    2  A    between atoms: C_10  and  C_24
                            x       y       z     vdW  Elec       q    Type
                         _______ _______ _______ _____ _____    ______ ____

>  <TORSDO>
F 2

$$$$
=
 OpenBabel10262421233D

 32 37  0  0  1  0  0  0  0  0999 V2000
  181.5980  178.7580  141.3440 C   0  0  2  0  0  3  0  0  0  0  0  0
  185.8660  178.2370  142.1570 C   0  0  0  0  0  0  0  0  0  0  0  0
  184.9610  178.3340  146.8920 C   0  0  0  0  0  3  0  0  0  0  0  0
  186.3170  178.1500  147.1600 C   0  0  0  0  0  3  0  0  0  0  0  0
  188.2400  177.9430  141.4030 C   0  0  0  0  0  0  0  0  0  0  0  0
  189.5720  177.7570  141.7710 C   0  0  0  0  0  0  0  0  0  0  0  0
  183.9830  178.8540  140.5750 C   0  0  2  0  0  3  0  0  0  0  0  0
  183.4820  178.6310  142.9980 C   0  0  0  0  0  2  0  0  0  0  0  0
  191.3860  177.5030  143.2700 C   0  0  2  0  0  3  0  0  0  0  0  0
  181.5330  180.1350  141.4780 F   0  0  0  0  0  0  0  0  0  0  0  0
  184.5380  178.3960  145.6030 N   0  0  0  0  0  0  0  0  0  0  0  0
  184.9470  178.3410  143.2360 C   0  0  0  0  0  0  0  0  0  0  0  0
  185.4070  178.2790  144.5590 C   0  0  0  0  0  0  0  0  0  0  0  0
  187.6940  177.9830  143.7840 C   0  0  0  0  0  0  0  0  0  0  0  0
  191.9320  177.4860  141.8340 C   0  0  0  0  0  3  0  0  0  0  0  0
  182.1960  178.4720  138.8760 C   0  0  0  0  0  3  0  0  0  0  0  0
  183.0220  178.2560  141.5980 C   0  0  1  0  0  3  0  0  0  0  0  0
  190.7400  177.6300  140.8730 C   0  0  0  0  0  3  0  0  0  0  0  0
  183.4910  178.6600  139.1650 C   0  0  0  0  0  3  0  0  0  0  0  0
  181.1210  178.3580  139.9410 C   0  0  1  0  0  3  0  0  0  0  0  0
  187.1910  178.0340  146.1260 N   0  0  0  0  0  0  0  0  0  0  0  0
  186.7750  178.0940  144.8310 C   0  0  0  0  0  0  0  0  0  0  0  0
  189.0160  177.8040  144.0730 N   0  0  0  0  0  0  0  0  0  0  0  0
  185.3450  178.1980  140.7360 C   0  0  0  0  0  2  0  0  0  0  0  0
  187.9270  178.0210  140.0510 O   0  0  0  0  0  1  0  0  0  0  0  0
  191.6630  176.1660  143.9310 C   0  0  0  0  0  1  0  0  0  0  0  0
  187.2540  178.0540  142.4260 C   0  0  0  0  0  0  0  0  0  0  0  0
  189.9310  177.6850  143.0820 C   0  0  0  0  0  0  0  0  0  0  0  0
  180.4300  176.9890  139.9510 C   0  0  2  0  0  3  0  0  0  0  0  0
  180.1480  176.4620  138.5500 C   0  0  0  0  0  1  0  0  0  0  0  0
  179.1500  177.0420  140.7710 C   0  0  0  0  0  2  0  0  0  0  0  0
  178.9310  175.8120  141.3940 O   0  0  0  0  0  1  0  0  0  0  0  0
  1 10  1  6  0  0  0
  1 17  1  0  0  0  0
  2 27  2  0  0  0  0
  2 12  1  0  0  0  0
  3  4  1  0  0  0  0
  5  6  2  0  0  0  0
  5 27  1  0  0  0  0
  6 28  1  0  0  0  0
  7 19  1  6  0  0  0
  7 24  1  0  0  0  0
  7 17  1  0  0  0  0
  8 12  1  0  0  0  0
  9 26  1  6  0  0  0
 11  3  2  0  0  0  0
 12 13  2  0  0  0  0
 13 22  1  0  0  0  0
 13 11  1  0  0  0  0
 14 23  1  0  0  0  0
 14 22  2  0  0  0  0
 15  9  1  0  0  0  0
 16 19  2  0  0  0  0
 16 20  1  0  0  0  0
 17  8  1  1  0  0  0
 18  6  1  0  0  0  0
 18 15  2  0  0  0  0
 20 29  1  1  0  0  0
 20  1  1  0  0  0  0
 21  4  2  0  0  0  0
 22 21  1  0  0  0  0
 24  2  1  0  0  0  0
 25  5  1  0  0  0  0
 27 14  1  0  0  0  0
 28  9  1  0  0  0  0
 28 23  2  0  0  0  0
 29 30  1  6  0  0  0
 29 31  1  0  0  0  0
 31 32  1  0  0  0  0
M  END
>  <MODEL>
5

>  <REMARK>
 VINA RESULT:      -8.9      3.340      8.722
  Name = 
  2 active torsions:
  status: ('A' for Active; 'I' for Inactive)
    1  A    between atoms: C_1  and  C_10
    2  A    between atoms: C_10  and  C_24
                            x       y       z     vdW  Elec       q    Type
                         _______ _______ _______ _____ _____    ______ ____

>  <TORSDO>
F 2

$$$$
=
 OpenBabel10262421233D

 32 37  0  0  1  0  0  0  0  0999 V2000
  186.3840  178.2680  137.5990 C   0  0  2  0  0  3  0  0  0  0  0  0
  187.5910  177.9860  141.7960 C   0  0  0  0  0  0  0  0  0  0  0  0
  183.0830  179.0350  143.1470 C   0  0  0  0  0  3  0  0  0  0  0  0
  183.4540  178.9290  144.4860 C   0  0  0  0  0  3  0  0  0  0  0  0
  189.3050  177.5770  143.5800 C   0  0  0  0  0  0  0  0  0  0  0  0
  189.5790  177.4900  144.9440 C   0  0  0  0  0  0  0  0  0  0  0  0
  188.1850  178.2390  139.3440 C   0  0  2  0  0  3  0  0  0  0  0  0
  185.8130  178.5090  140.0320 C   0  0  0  0  0  2  0  0  0  0  0  0
  189.0870  177.5740  147.2580 C   0  0  2  0  0  3  0  0  0  0  0  0
  186.4770  179.6430  137.4540 F   0  0  0  0  0  0  0  0  0  0  0  0
  184.0120  178.8260  142.1780 N   0  0  0  0  0  0  0  0  0  0  0  0
  186.2430  178.2950  141.4650 C   0  0  0  0  0  0  0  0  0  0  0  0
  185.3020  178.5110  142.4820 C   0  0  0  0  0  0  0  0  0  0  0  0
  186.9940  178.0950  144.1800 C   0  0  0  0  0  0  0  0  0  0  0  0
  190.5830  177.2710  147.0870 C   0  0  0  0  0  3  0  0  0  0  0  0
  188.7520  177.4930  137.0310 C   0  0  0  0  0  3  0  0  0  0  0  0
  186.7450  177.8500  139.0270 C   0  0  1  0  0  3  0  0  0  0  0  0
  190.8820  177.1990  145.5800 C   0  0  0  0  0  3  0  0  0  0  0  0
  189.1410  177.7540  138.2870 C   0  0  0  0  0  3  0  0  0  0  0  0
  187.3060  177.5830  136.5800 C   0  0  1  0  0  3  0  0  0  0  0  0
  184.7390  178.6170  144.8000 N   0  0  0  0  0  0  0  0  0  0  0  0
  185.6760  178.4050  143.8340 C   0  0  0  0  0  0  0  0  0  0  0  0
  187.3330  177.9980  145.4990 N   0  0  0  0  0  0  0  0  0  0  0  0
  188.5700  177.6500  140.6910 C   0  0  0  0  0  2  0  0  0  0  0  0
  190.3440  177.3730  142.6780 O   0  0  0  0  0  1  0  0  0  0  0  0
  188.4120  176.4040  147.9490 C   0  0  0  0  0  1  0  0  0  0  0  0
  187.9770  177.8810  143.1630 C   0  0  0  0  0  0  0  0  0  0  0  0
  188.6000  177.6930  145.8670 C   0  0  0  0  0  0  0  0  0  0  0  0
  186.7350  176.2360  136.1240 C   0  0  2  0  0  3  0  0  0  0  0  0
  185.2190  176.1610  136.2650 C   0  0  0  0  0  1  0  0  0  0  0  0
  187.3990  175.0910  136.8730 C   0  0  0  0  0  2  0  0  0  0  0  0
  187.9440  174.1790  135.9680 O   0  0  0  0  0  1  0  0  0  0  0  0
  1 10  1  1  0  0  0
  1 17  1  0  0  0  0
  2 27  1  0  0  0  0
  3  4  1  0  0  0  0
  4 21  2  0  0  0  0
  5  6  1  0  0  0  0
  6 18  1  0  0  0  0
  6 28  2  0  0  0  0
  7 19  1  6  0  0  0
  7 24  1  0  0  0  0
  8 12  1  0  0  0  0
  9 26  1  6  0  0  0
 11 13  1  0  0  0  0
 11  3  2  0  0  0  0
 12  2  2  0  0  0  0
 12 13  1  0  0  0  0
 13 22  2  0  0  0  0
 14 23  2  0  0  0  0
 15  9  1  0  0  0  0
 16 19  2  0  0  0  0
 17  7  1  0  0  0  0
 17  8  1  1  0  0  0
 18 15  2  0  0  0  0
 20 29  1  1  0  0  0
 20 16  1  0  0  0  0
 20  1  1  0  0  0  0
 22 14  1  0  0  0  0
 22 21  1  0  0  0  0
 23 28  1  0  0  0  0
 24  2  1  0  0  0  0
 25  5  1  0  0  0  0
 27  5  2  0  0  0  0
 27 14  1  0  0  0  0
 28  9  1  0  0  0  0
 29 30  1  1  0  0  0
 29 31  1  0  0  0  0
 32 31  1  0  0  0  0
M  END
>  <MODEL>
6

>  <REMARK>
 VINA RESULT:      -8.6      3.082      7.500
  Name = 
  2 active torsions:
  status: ('A' for Active; 'I' for Inactive)
    1  A    between atoms: C_1  and  C_10
    2  A    between atoms: C_10  and  C_24
                            x       y       z     vdW  Elec       q    Type
                         _______ _______ _______ _____ _____    ______ ____

>  <TORSDO>
F 2

$$$$
=
 OpenBabel10262421233D

 32 37  0  0  1  0  0  0  0  0999 V2000
  189.4900  177.3800  137.2490 C   0  0  2  0  0  3  0  0  0  0  0  0
  187.9910  177.8850  141.3300 C   0  0  0  0  0  0  0  0  0  0  0  0
  183.7200  179.2710  139.5740 C   0  0  0  0  0  3  0  0  0  0  0  0
  183.2290  179.4170  140.8700 C   0  0  0  0  0  3  0  0  0  0  0  0
  188.2840  177.7920  143.8180 C   0  0  0  0  0  0  0  0  0  0  0  0
  187.7020  177.9630  145.0740 C   0  0  0  0  0  0  0  0  0  0  0  0
  189.9230  177.6490  139.7050 C   0  0  2  0  0  3  0  0  0  0  0  0
  187.6520  178.0970  138.8020 C   0  0  0  0  0  2  0  0  0  0  0  0
  185.9760  178.5010  146.6030 C   0  0  2  0  0  3  0  0  0  0  0  0
  189.8290  178.6990  136.9930 F   0  0  0  0  0  0  0  0  0  0  0  0
  185.0010  178.8600  139.3880 N   0  0  0  0  0  0  0  0  0  0  0  0
  187.1400  178.1530  140.2240 C   0  0  0  0  0  0  0  0  0  0  0  0
  185.8220  178.5820  140.4390 C   0  0  0  0  0  0  0  0  0  0  0  0
  186.1450  178.4650  142.8480 C   0  0  0  0  0  0  0  0  0  0  0  0
  187.2390  178.1390  147.3980 C   0  0  0  0  0  3  0  0  0  0  0  0
  191.6220  176.4600  138.3160 C   0  0  0  0  0  3  0  0  0  0  0  0
  188.8980  177.2370  138.6530 C   0  0  1  0  0  3  0  0  0  0  0  0
  188.3430  177.7720  146.3930 C   0  0  0  0  0  3  0  0  0  0  0  0
  191.2410  176.9490  139.5050 C   0  0  0  0  0  3  0  0  0  0  0  0
  190.7320  176.4920  137.0870 C   0  0  1  0  0  3  0  0  0  0  0  0
  184.0400  179.1440  141.9260 N   0  0  0  0  0  0  0  0  0  0  0  0
  185.3250  178.7300  141.7470 C   0  0  0  0  0  0  0  0  0  0  0  0
  185.6400  178.6160  144.1070 N   0  0  0  0  0  0  0  0  0  0  0  0
  189.3750  177.3220  141.0840 C   0  0  0  0  0  2  0  0  0  0  0  0
  189.6140  177.3960  143.7500 O   0  0  0  0  0  1  0  0  0  0  0  0
  184.8790  177.5010  146.9160 C   0  0  0  0  0  1  0  0  0  0  0  0
  187.4960  178.0380  142.6570 C   0  0  0  0  0  0  0  0  0  0  0  0
  186.4060  178.3600  145.1950 C   0  0  0  0  0  0  0  0  0  0  0  0
  190.3600  175.0950  136.5790 C   0  0  2  0  0  3  0  0  0  0  0  0
  191.2910  174.0100  137.1070 C   0  0  0  0  0  1  0  0  0  0  0  0
  190.3200  175.0710  135.0580 C   0  0  0  0  0  2  0  0  0  0  0  0
  189.0860  174.5860  134.6200 O   0  0  0  0  0  1  0  0  0  0  0  0
  1 10  1  1  0  0  0
  1 17  1  0  0  0  0
  2 27  1  0  0  0  0
  3  4  1  0  0  0  0
  4 21  2  0  0  0  0
  5  6  1  0  0  0  0
  6 28  2  0  0  0  0
  6 18  1  0  0  0  0
  7 19  1  6  0  0  0
  7 24  1  0  0  0  0
  8 12  1  0  0  0  0
  9 26  1  1  0  0  0
  9 15  1  0  0  0  0
 11  3  2  0  0  0  0
 11 13  1  0  0  0  0
 12 13  1  0  0  0  0
 12  2  2  0  0  0  0
 13 22  2  0  0  0  0
 14 23  2  0  0  0  0
 16 19  2  0  0  0  0
 17  8  1  6  0  0  0
 17  7  1  0  0  0  0
 18 15  2  0  0  0  0
 20 29  1  1  0  0  0
 20  1  1  0  0  0  0
 20 16  1  0  0  0  0
 22 21  1  0  0  0  0
 22 14  1  0  0  0  0
 23 28  1  0  0  0  0
 24  2  1  0  0  0  0
 25  5  1  0  0  0  0
 27 14  1  0  0  0  0
 27  5  2  0  0  0  0
 28  9  1  0  0  0  0
 29 30  1  6  0  0  0
 31 29  1  0  0  0  0
 32 31  1  0  0  0  0
M  END
>  <MODEL>
7

>  <REMARK>
 VINA RESULT:      -8.5      3.363      6.236
  Name = 
  2 active torsions:
  status: ('A' for Active; 'I' for Inactive)
    1  A    between atoms: C_1  and  C_10
    2  A    between atoms: C_10  and  C_24
                            x       y       z     vdW  Elec       q    Type
                         _______ _______ _______ _____ _____    ______ ____

>  <TORSDO>
F 2

$$$$
=
 OpenBabel10262421233D

 32 37  0  0  1  0  0  0  0  0999 V2000
  191.5300  177.8470  144.1440 C   0  0  2  0  0  3  0  0  0  0  0  0
  189.5710  177.5390  140.2420 C   0  0  0  0  0  0  0  0  0  0  0  0
  193.7670  176.2370  138.2550 C   0  0  0  0  0  3  0  0  0  0  0  0
  193.1470  176.1180  137.0120 C   0  0  0  0  0  3  0  0  0  0  0  0
  187.5510  177.6960  138.7650 C   0  0  0  0  0  0  0  0  0  0  0  0
  187.0210  177.5460  137.4840 C   0  0  0  0  0  0  0  0  0  0  0  0
  189.6000  178.3820  142.6330 C   0  0  2  0  0  3  0  0  0  0  0  0
  191.6930  177.4520  141.6690 C   0  0  0  0  0  2  0  0  0  0  0  0
  187.0690  177.0660  135.1670 C   0  0  2  0  0  3  0  0  0  0  0  0
  192.0570  179.1200  144.0050 F   0  0  0  0  0  0  0  0  0  0  0  0
  193.0320  176.6100  139.3350 N   0  0  0  0  0  0  0  0  0  0  0  0
  190.9580  177.2510  140.3640 C   0  0  0  0  0  0  0  0  0  0  0  0
  191.6980  176.8710  139.2350 C   0  0  0  0  0  0  0  0  0  0  0  0
  189.7100  177.0240  137.8410 C   0  0  0  0  0  0  0  0  0  0  0  0
  185.6450  177.4980  135.5470 C   0  0  0  0  0  3  0  0  0  0  0  0
  189.2050  178.3120  145.0960 C   0  0  0  0  0  3  0  0  0  0  0  0
  190.7710  177.4350  142.8790 C   0  0  1  0  0  3  0  0  0  0  0  0
  185.6250  177.7860  137.0580 C   0  0  0  0  0  3  0  0  0  0  0  0
  188.7400  178.5380  143.8590 C   0  0  0  0  0  3  0  0  0  0  0  0
  190.6080  177.8050  145.3710 C   0  0  1  0  0  3  0  0  0  0  0  0
  191.8180  176.3780  136.9020 N   0  0  0  0  0  0  0  0  0  0  0  0
  191.0740  176.7520  137.9800 C   0  0  0  0  0  0  0  0  0  0  0  0
  189.1270  176.9010  136.6130 N   0  0  0  0  0  0  0  0  0  0  0  0
  188.7630  177.8420  141.4850 C   0  0  0  0  0  2  0  0  0  0  0  0
  186.7080  178.1130  139.7890 O   0  0  0  0  0  1  0  0  0  0  0  0
  187.0450  175.6310  134.6730 C   0  0  0  0  0  1  0  0  0  0  0  0
  188.9340  177.4240  138.9730 C   0  0  0  0  0  0  0  0  0  0  0  0
  187.8060  177.1500  136.4460 C   0  0  0  0  0  0  0  0  0  0  0  0
  190.6270  176.4260  146.0400 C   0  0  2  0  0  3  0  0  0  0  0  0
  189.7860  176.3780  147.3110 C   0  0  0  0  0  1  0  0  0  0  0  0
  192.0550  175.9900  146.3280 C   0  0  0  0  0  2  0  0  0  0  0  0
  192.4230  176.3780  147.6180 O   0  0  0  0  0  1  0  0  0  0  0  0
  1 10  1  6  0  0  0
  1 20  1  0  0  0  0
  2 12  1  0  0  0  0
  2 24  1  0  0  0  0
  3 11  2  0  0  0  0
  4  3  1  0  0  0  0
  5 27  1  0  0  0  0
  5 25  1  0  0  0  0
  6  5  2  0  0  0  0
  7 24  1  6  0  0  0
  7 17  1  0  0  0  0
  7 19  1  0  0  0  0
  9 26  1  1  0  0  0
  9 15  1  0  0  0  0
  9 28  1  0  0  0  0
 12  8  1  0  0  0  0
 13 11  1  0  0  0  0
 13 12  2  0  0  0  0
 14 22  2  0  0  0  0
 14 27  1  0  0  0  0
 15 18  2  0  0  0  0
 16 20  1  0  0  0  0
 17  8  1  6  0  0  0
 17  1  1  0  0  0  0
 18  6  1  0  0  0  0
 19 16  2  0  0  0  0
 20 29  1  6  0  0  0
 21  4  2  0  0  0  0
 21 22  1  0  0  0  0
 22 13  1  0  0  0  0
 23 14  1  0  0  0  0
 27  2  2  0  0  0  0
 28 23  2  0  0  0  0
 28  6  1  0  0  0  0
 29 31  1  0  0  0  0
 29 30  1  1  0  0  0
 31 32  1  0  0  0  0
M  END
>  <MODEL>
8

>  <REMARK>
 VINA RESULT:      -8.4      3.647      5.124
  Name = 
  2 active torsions:
  status: ('A' for Active; 'I' for Inactive)
    1  A    between atoms: C_1  and  C_10
    2  A    between atoms: C_10  and  C_24
                            x       y       z     vdW  Elec       q    Type
                         _______ _______ _______ _____ _____    ______ ____

>  <TORSDO>
F 2

$$$$
=
 OpenBabel10262421233D

 32 37  0  0  1  0  0  0  0  0999 V2000
  180.5110  179.2520  139.9310 C   0  0  2  0  0  3  0  0  0  0  0  0
  184.7500  178.5460  140.7590 C   0  0  0  0  0  0  0  0  0  0  0  0
  183.8330  178.6760  145.4910 C   0  0  0  0  0  3  0  0  0  0  0  0
  185.1780  178.4330  145.7630 C   0  0  0  0  0  3  0  0  0  0  0  0
  187.1110  178.1510  140.0130 C   0  0  0  0  0  0  0  0  0  0  0  0
  188.4330  177.9080  140.3860 C   0  0  0  0  0  0  0  0  0  0  0  0
  182.9010  179.2450  139.1710 C   0  0  2  0  0  3  0  0  0  0  0  0
  182.3820  179.0420  141.5920 C   0  0  0  0  0  2  0  0  0  0  0  0
  190.2290  177.5740  141.8910 C   0  0  2  0  0  3  0  0  0  0  0  0
  180.5050  180.6300  140.0670 F   0  0  0  0  0  0  0  0  0  0  0  0
  183.4170  178.7580  144.2000 N   0  0  0  0  0  0  0  0  0  0  0  0
  183.8320  178.6880  141.8350 C   0  0  0  0  0  0  0  0  0  0  0  0
  184.2840  178.6050  143.1600 C   0  0  0  0  0  0  0  0  0  0  0  0
  186.5590  178.2120  142.3920 C   0  0  0  0  0  0  0  0  0  0  0  0
  190.7790  177.5350  140.4570 C   0  0  0  0  0  3  0  0  0  0  0  0
  181.1050  178.9440  137.4650 C   0  0  0  0  0  3  0  0  0  0  0  0
  181.9110  178.6890  140.1900 C   0  0  1  0  0  3  0  0  0  0  0  0
  189.5980  177.7320  139.4920 C   0  0  0  0  0  3  0  0  0  0  0  0
  182.4070  179.0750  137.7590 C   0  0  0  0  0  3  0  0  0  0  0  0
  180.0220  178.8740  138.5260 C   0  0  1  0  0  3  0  0  0  0  0  0
  186.0500  178.2810  144.7330 N   0  0  0  0  0  0  0  0  0  0  0  0
  185.6420  178.3610  143.4360 C   0  0  0  0  0  0  0  0  0  0  0  0
  187.8710  177.9750  142.6850 N   0  0  0  0  0  0  0  0  0  0  0  0
  184.2330  178.5320  139.3360 C   0  0  0  0  0  2  0  0  0  0  0  0
  186.8080  178.2440  138.6600 O   0  0  0  0  0  1  0  0  0  0  0  0
  190.4460  176.2250  142.5510 C   0  0  0  0  0  1  0  0  0  0  0  0
  186.1270  178.3030  141.0320 C   0  0  0  0  0  0  0  0  0  0  0  0
  188.7840  177.8190  141.6980 C   0  0  0  0  0  0  0  0  0  0  0  0
  179.2740  177.5370  138.5320 C   0  0  2  0  0  3  0  0  0  0  0  0
  179.1310  176.9490  139.9310 C   0  0  0  0  0  1  0  0  0  0  0  0
  179.9480  176.5410  137.6000 C   0  0  0  0  0  2  0  0  0  0  0  0
  179.0670  176.1650  136.5850 O   0  0  0  0  0  1  0  0  0  0  0  0
  1 10  1  6  0  0  0
  1 17  1  0  0  0  0
  2 27  2  0  0  0  0
  2 12  1  0  0  0  0
  3  4  1  0  0  0  0
  5  6  2  0  0  0  0
  5 27  1  0  0  0  0
  6 28  1  0  0  0  0
  7 19  1  6  0  0  0
  7 24  1  0  0  0  0
  7 17  1  0  0  0  0
  8 12  1  0  0  0  0
  9 26  1  6  0  0  0
 11  3  2  0  0  0  0
 12 13  2  0  0  0  0
 13 22  1  0  0  0  0
 13 11  1  0  0  0  0
 14 23  1  0  0  0  0
 14 22  2  0  0  0  0
 15  9  1  0  0  0  0
 16 19  2  0  0  0  0
 16 20  1  0  0  0  0
 17  8  1  1  0  0  0
 18  6  1  0  0  0  0
 18 15  2  0  0  0  0
 20 29  1  1  0  0  0
 20  1  1  0  0  0  0
 21  4  2  0  0  0  0
 22 21  1  0  0  0  0
 24  2  1  0  0  0  0
 25  5  1  0  0  0  0
 27 14  1  0  0  0  0
 28  9  1  0  0  0  0
 28 23  2  0  0  0  0
 29 30  1  1  0  0  0
 31 29  1  0  0  0  0
 32 31  1  0  0  0  0
M  END
>  <MODEL>
9

>  <REMARK>
 VINA RESULT:      -7.8      3.785      9.108
  Name = 
  2 active torsions:
  status: ('A' for Active; 'I' for Inactive)
    1  A    between atoms: C_1  and  C_10
    2  A    between atoms: C_10  and  C_24
                            x       y       z     vdW  Elec       q    Type
                         _______ _______ _______ _____ _____    ______ ____

>  <TORSDO>
F 2

$$$$
