=
 OpenBabel10262419373D

 31 34  0  0  1  0  0  0  0  0999 V2000
  190.7790  176.3690  145.6210 C   0  0  0  0  0  0  0  0  0  0  0  0
  188.0220  178.1260  143.5920 C   0  0  1  0  0  3  0  0  0  0  0  0
  186.8800  178.2400  144.5970 C   0  0  0  0  0  0  0  0  0  0  0  0
  186.1300  178.7070  146.8670 C   0  0  0  0  0  3  0  0  0  0  0  0
  189.2580  177.3340  143.9880 C   0  0  0  0  0  0  0  0  0  0  0  0
  191.6830  176.0570  144.6040 C   0  0  0  0  0  3  0  0  0  0  0  0
  187.1570  178.4890  145.9500 C   0  0  0  0  0  3  0  0  0  0  0  0
  188.6770  177.6810  141.2170 C   0  0  0  0  0  0  0  0  0  0  0  0
  191.0720  176.0590  146.9060 F   0  0  0  0  0  0  0  0  0  0  0  0
  185.1780  178.1160  142.7000 C   0  0  0  0  0  2  0  0  0  0  0  0
  184.8040  178.7090  146.4390 C   0  0  0  0  0  3  0  0  0  0  0  0
  189.8710  177.3220  141.5980 N   0  0  0  0  0  0  0  0  0  0  0  0
  187.5430  177.6540  142.2100 C   0  0  2  0  0  3  0  0  0  0  0  0
  188.4140  177.9410  139.8340 N   0  0  0  0  0  2  0  0  0  0  0  0
  189.5780  177.0150  145.3150 C   0  0  0  0  0  3  0  0  0  0  0  0
  182.8090  178.5480  144.6090 Cl  0  0  0  0  0  0  0  0  0  0  0  0
  190.1780  177.0130  142.9660 C   0  0  0  0  0  0  0  0  0  0  0  0
  191.3840  176.3810  143.2780 C   0  0  0  0  0  3  0  0  0  0  0  0
  186.3350  178.4660  141.7760 C   0  0  0  0  0  2  0  0  0  0  0  0
  185.5310  178.3080  144.1550 C   0  0  0  0  0  0  0  0  0  0  0  0
  184.4990  178.5120  145.0920 C   0  0  0  0  0  0  0  0  0  0  0  0
  189.1500  179.0050  137.7630 C   0  0  0  0  0  1  0  0  0  0  0  0
  189.4560  177.9530  138.8160 C   0  0  2  0  0  3  0  0  0  0  0  0
  188.5380  176.0540  137.7030 O   0  0  0  0  0  0  0  0  0  0  0  0
  190.9350  174.6070  137.5130 C   0  0  0  0  0  1  0  0  0  0  0  0
  190.8330  175.9210  138.1320 N   0  0  0  0  0  0  0  0  0  0  0  0
  189.5680  176.6000  138.1840 C   0  0  0  0  0  0  0  0  0  0  0  0
  192.0430  176.5310  138.6650 C   0  0  0  0  0  2  0  0  0  0  0  0
  193.2120  176.2160  137.7960 C   0  0  0  0  0  0  0  0  0  0  0  0
  193.2460  176.6350  136.6100 O   0  0  0  0  0  0  0  0  0  0  0  0
  194.3040  175.4670  138.3140 N   0  0  0  0  0  1  0  0  0  0  0  0
  1  9  1  0  0  0  0
  2  5  1  1  0  0  0
  2  3  1  0  0  0  0
  3  7  1  0  0  0  0
  5 15  2  0  0  0  0
  6  1  2  0  0  0  0
  7  4  2  0  0  0  0
  8 12  2  0  0  0  0
  8 13  1  0  0  0  0
 10 20  1  0  0  0  0
 11  4  1  0  0  0  0
 12 17  1  0  0  0  0
 13 19  1  6  0  0  0
 13  2  1  0  0  0  0
 14  8  1  0  0  0  0
 15  1  1  0  0  0  0
 16 21  1  0  0  0  0
 17 18  2  0  0  0  0
 17  5  1  0  0  0  0
 18  6  1  0  0  0  0
 19 10  1  0  0  0  0
 20  3  2  0  0  0  0
 20 21  1  0  0  0  0
 21 11  2  0  0  0  0
 23 22  1  6  0  0  0
 23 14  1  0  0  0  0
 24 27  2  0  0  0  0
 25 26  1  0  0  0  0
 26 27  1  0  0  0  0
 26 28  1  0  0  0  0
 27 23  1  0  0  0  0
 29 31  1  0  0  0  0
 29 28  1  0  0  0  0
 30 29  2  0  0  0  0
M  END
>  <MODEL>
1

>  <REMARK>
 VINA RESULT:      -9.7      0.000      0.000
  Name = 
  4 active torsions:
  status: ('A' for Active; 'I' for Inactive)
    1  A    between atoms: C_1  and  C_24
    2  A    between atoms: C_9  and  C_22
    3  A    between atoms: C_9  and  N_23
    4  A    between atoms: N_19  and  C_24
                            x       y       z     vdW  Elec       q    Type
                         _______ _______ _______ _____ _____    ______ ____

>  <TORSDO>
F 4

$$$$
=
 OpenBabel10262419373D

 31 34  0  0  1  0  0  0  0  0999 V2000
  186.5810  178.2510  146.9220 C   0  0  0  0  0  0  0  0  0  0  0  0
  187.3850  177.4930  143.2360 C   0  0  1  0  0  3  0  0  0  0  0  0
  188.9020  177.3400  143.2430 C   0  0  0  0  0  0  0  0  0  0  0  0
  190.9140  176.4900  144.3230 C   0  0  0  0  0  3  0  0  0  0  0  0
  186.6980  177.9560  144.5110 C   0  0  0  0  0  0  0  0  0  0  0  0
  185.2430  178.6360  146.8160 C   0  0  0  0  0  3  0  0  0  0  0  0
  189.5430  176.7420  144.3390 C   0  0  0  0  0  3  0  0  0  0  0  0
  185.3790  178.3620  142.0150 C   0  0  0  0  0  0  0  0  0  0  0  0
  187.1770  178.2010  148.1370 F   0  0  0  0  0  0  0  0  0  0  0  0
  189.0130  178.1800  140.8360 C   0  0  0  0  0  2  0  0  0  0  0  0
  191.6650  176.8060  143.1930 C   0  0  0  0  0  3  0  0  0  0  0  0
  184.7070  178.4210  143.1300 N   0  0  0  0  0  0  0  0  0  0  0  0
  186.8870  178.3460  142.0580 C   0  0  2  0  0  3  0  0  0  0  0  0
  184.6990  178.4770  140.7600 N   0  0  0  0  0  2  0  0  0  0  0  0
  187.3010  177.9010  145.7760 C   0  0  0  0  0  3  0  0  0  0  0  0
  192.0470  177.7150  140.6670 Cl  0  0  0  0  0  0  0  0  0  0  0  0
  185.3450  178.3490  144.4140 C   0  0  0  0  0  0  0  0  0  0  0  0
  184.6250  178.6830  145.5640 C   0  0  0  0  0  3  0  0  0  0  0  0
  187.5260  177.8680  140.7660 C   0  0  0  0  0  2  0  0  0  0  0  0
  189.6610  177.6000  142.0700 C   0  0  0  0  0  0  0  0  0  0  0  0
  191.0490  177.3590  142.0690 C   0  0  0  0  0  0  0  0  0  0  0  0
  182.7130  177.2050  140.1280 C   0  0  0  0  0  1  0  0  0  0  0  0
  183.2470  178.5300  140.6470 C   0  0  2  0  0  3  0  0  0  0  0  0
  183.7280  180.2340  139.0490 O   0  0  0  0  0  0  0  0  0  0  0  0
  181.0890  181.1430  138.7510 C   0  0  0  0  0  1  0  0  0  0  0  0
  181.4720  180.0580  139.6420 N   0  0  0  0  0  0  0  0  0  0  0  0
  182.8450  179.6470  139.7340 C   0  0  0  0  0  0  0  0  0  0  0  0
  180.4290  179.3900  140.4100 C   0  0  0  0  0  2  0  0  0  0  0  0
  180.0450  180.2130  141.5910 C   0  0  0  0  0  0  0  0  0  0  0  0
  180.7240  180.1510  142.6490 O   0  0  0  0  0  0  0  0  0  0  0  0
  178.9310  181.0930  141.5150 N   0  0  0  0  0  1  0  0  0  0  0  0
  1  9  1  0  0  0  0
  2  3  1  1  0  0  0
  2  5  1  0  0  0  0
  3  7  1  0  0  0  0
  4  7  2  0  0  0  0
  5 15  1  0  0  0  0
  6  1  1  0  0  0  0
  8 13  1  0  0  0  0
  8 12  2  0  0  0  0
 10 20  1  0  0  0  0
 11  4  1  0  0  0  0
 12 17  1  0  0  0  0
 13 19  1  6  0  0  0
 13  2  1  0  0  0  0
 14  8  1  0  0  0  0
 15  1  2  0  0  0  0
 16 21  1  0  0  0  0
 17  5  2  0  0  0  0
 17 18  1  0  0  0  0
 18  6  2  0  0  0  0
 19 10  1  0  0  0  0
 20  3  2  0  0  0  0
 21 20  1  0  0  0  0
 21 11  2  0  0  0  0
 23 22  1  6  0  0  0
 23 14  1  0  0  0  0
 24 27  2  0  0  0  0
 25 26  1  0  0  0  0
 26 27  1  0  0  0  0
 26 28  1  0  0  0  0
 27 23  1  0  0  0  0
 28 29  1  0  0  0  0
 29 30  2  0  0  0  0
 31 29  1  0  0  0  0
M  END
>  <MODEL>
2

>  <REMARK>
 VINA RESULT:      -9.6      4.454      7.700
  Name = 
  4 active torsions:
  status: ('A' for Active; 'I' for Inactive)
    1  A    between atoms: C_1  and  C_24
    2  A    between atoms: C_9  and  C_22
    3  A    between atoms: C_9  and  N_23
    4  A    between atoms: N_19  and  C_24
                            x       y       z     vdW  Elec       q    Type
                         _______ _______ _______ _____ _____    ______ ____

>  <TORSDO>
F 4

$$$$
=
 OpenBabel10262419373D

 31 34  0  0  1  0  0  0  0  0999 V2000
  184.7520  178.5820  146.0820 C   0  0  0  0  0  0  0  0  0  0  0  0
  186.7750  177.7020  142.9300 C   0  0  1  0  0  3  0  0  0  0  0  0
  188.2010  177.5960  143.4600 C   0  0  0  0  0  0  0  0  0  0  0  0
  189.7370  176.8510  145.1980 C   0  0  0  0  0  3  0  0  0  0  0  0
  185.6880  178.1940  143.8710 C   0  0  0  0  0  0  0  0  0  0  0  0
  183.5250  178.9210  145.5090 C   0  0  0  0  0  3  0  0  0  0  0  0
  188.4380  177.0610  144.7350 C   0  0  0  0  0  3  0  0  0  0  0  0
  185.2940  178.4590  141.0590 C   0  0  0  0  0  0  0  0  0  0  0  0
  184.8980  178.5990  147.4280 F   0  0  0  0  0  0  0  0  0  0  0  0
  189.1140  178.3410  141.1960 C   0  0  0  0  0  2  0  0  0  0  0  0
  190.8240  177.1440  144.3770 C   0  0  0  0  0  3  0  0  0  0  0  0
  184.2800  178.5420  141.8750 N   0  0  0  0  0  0  0  0  0  0  0  0
  186.6960  178.4910  141.6130 C   0  0  2  0  0  3  0  0  0  0  0  0
  185.0800  178.5030  139.6430 N   0  0  0  0  0  2  0  0  0  0  0  0
  185.8240  178.2080  145.2670 C   0  0  0  0  0  3  0  0  0  0  0  0
  192.0300  177.9630  142.0910 Cl  0  0  0  0  0  0  0  0  0  0  0  0
  184.4440  178.5410  143.3020 C   0  0  0  0  0  0  0  0  0  0  0  0
  183.3690  178.8990  144.1200 C   0  0  0  0  0  3  0  0  0  0  0  0
  187.7450  177.9810  140.6400 C   0  0  0  0  0  2  0  0  0  0  0  0
  189.3110  177.8310  142.6030 C   0  0  0  0  0  0  0  0  0  0  0  0
  190.6200  177.6320  143.0860 C   0  0  0  0  0  0  0  0  0  0  0  0
  183.7870  177.8070  137.6930 C   0  0  0  0  0  1  0  0  0  0  0  0
  183.7530  178.5070  139.0410 C   0  0  2  0  0  3  0  0  0  0  0  0
  184.1040  180.8560  138.8220 O   0  0  0  0  0  0  0  0  0  0  0  0
  181.3940  181.5680  138.6650 C   0  0  0  0  0  1  0  0  0  0  0  0
  181.8600  180.1980  138.8190 N   0  0  0  0  0  0  0  0  0  0  0  0
  183.2660  179.9150  138.8860 C   0  0  0  0  0  0  0  0  0  0  0  0
  180.8690  179.1310  138.8750 C   0  0  0  0  0  2  0  0  0  0  0  0
  180.1490  179.1580  140.1800 C   0  0  0  0  0  0  0  0  0  0  0  0
  178.9350  179.4850  140.2230 O   0  0  0  0  0  0  0  0  0  0  0  0
  180.8240  178.7830  141.3740 N   0  0  0  0  0  1  0  0  0  0  0  0
  1  9  1  0  0  0  0
  2  3  1  1  0  0  0
  2  5  1  0  0  0  0
  3  7  1  0  0  0  0
  5 15  1  0  0  0  0
  6  1  1  0  0  0  0
  7  4  2  0  0  0  0
  8 13  1  0  0  0  0
  8 12  2  0  0  0  0
 10 20  1  0  0  0  0
 11  4  1  0  0  0  0
 12 17  1  0  0  0  0
 13 19  1  6  0  0  0
 13  2  1  0  0  0  0
 14  8  1  0  0  0  0
 15  1  2  0  0  0  0
 16 21  1  0  0  0  0
 17  5  2  0  0  0  0
 17 18  1  0  0  0  0
 18  6  2  0  0  0  0
 19 10  1  0  0  0  0
 20 21  1  0  0  0  0
 20  3  2  0  0  0  0
 21 11  2  0  0  0  0
 23 22  1  6  0  0  0
 23 14  1  0  0  0  0
 24 27  2  0  0  0  0
 25 26  1  0  0  0  0
 26 28  1  0  0  0  0
 26 27  1  0  0  0  0
 27 23  1  0  0  0  0
 28 29  1  0  0  0  0
 29 30  2  0  0  0  0
 29 31  1  0  0  0  0
M  END
>  <MODEL>
3

>  <REMARK>
 VINA RESULT:      -9.3      4.464      7.500
  Name = 
  4 active torsions:
  status: ('A' for Active; 'I' for Inactive)
    1  A    between atoms: C_1  and  C_24
    2  A    between atoms: C_9  and  C_22
    3  A    between atoms: C_9  and  N_23
    4  A    between atoms: N_19  and  C_24
                            x       y       z     vdW  Elec       q    Type
                         _______ _______ _______ _____ _____    ______ ____

>  <TORSDO>
F 4

$$$$
=
 OpenBabel10262419373D

 31 34  0  0  1  0  0  0  0  0999 V2000
  189.7150  176.7620  144.8510 C   0  0  0  0  0  0  0  0  0  0  0  0
  187.0160  178.4370  142.6800 C   0  0  1  0  0  3  0  0  0  0  0  0
  185.8270  178.5330  143.6300 C   0  0  0  0  0  0  0  0  0  0  0  0
  184.9620  179.0030  145.8580 C   0  0  0  0  0  3  0  0  0  0  0  0
  188.2500  177.6770  143.1390 C   0  0  0  0  0  0  0  0  0  0  0  0
  190.6730  176.4620  143.8800 C   0  0  0  0  0  3  0  0  0  0  0  0
  186.0360  178.8010  144.9910 C   0  0  0  0  0  3  0  0  0  0  0  0
  187.7900  177.9860  140.3420 C   0  0  0  0  0  0  0  0  0  0  0  0
  189.9570  176.4710  146.1510 F   0  0  0  0  0  0  0  0  0  0  0  0
  184.2180  178.3530  141.6580 C   0  0  0  0  0  2  0  0  0  0  0  0
  183.6580  178.9710  145.3690 C   0  0  0  0  0  3  0  0  0  0  0  0
  188.9730  177.6580  140.7800 N   0  0  0  0  0  0  0  0  0  0  0  0
  186.6120  177.9410  141.2820 C   0  0  2  0  0  3  0  0  0  0  0  0
  187.5850  178.2270  138.9450 N   0  0  0  0  0  2  0  0  0  0  0  0
  188.5160  177.3780  144.4840 C   0  0  0  0  0  3  0  0  0  0  0  0
  181.7540  178.7470  143.4520 Cl  0  0  0  0  0  0  0  0  0  0  0  0
  189.2230  177.3680  142.1650 C   0  0  0  0  0  0  0  0  0  0  0  0
  190.4280  176.7670  142.5380 C   0  0  0  0  0  3  0  0  0  0  0  0
  185.4080  178.7210  140.7840 C   0  0  0  0  0  2  0  0  0  0  0  0
  184.4990  178.5660  143.1250 C   0  0  0  0  0  0  0  0  0  0  0  0
  183.4200  178.7550  144.0120 C   0  0  0  0  0  0  0  0  0  0  0  0
  188.9550  179.6820  137.5430 C   0  0  0  0  0  1  0  0  0  0  0  0
  188.6730  178.2530  137.9760 C   0  0  2  0  0  3  0  0  0  0  0  0
  187.1620  177.4820  136.2990 O   0  0  0  0  0  0  0  0  0  0  0  0
  188.9420  175.6970  135.0660 C   0  0  0  0  0  1  0  0  0  0  0  0
  189.2890  176.5130  136.2200 N   0  0  0  0  0  0  0  0  0  0  0  0
  188.3220  177.4090  136.7910 C   0  0  0  0  0  0  0  0  0  0  0  0
  190.6410  176.4160  136.7560 C   0  0  0  0  0  2  0  0  0  0  0  0
  190.7120  175.3530  137.7970 C   0  0  0  0  0  0  0  0  0  0  0  0
  190.8630  175.6650  139.0070 O   0  0  0  0  0  0  0  0  0  0  0  0
  190.5780  173.9860  137.4300 N   0  0  0  0  0  1  0  0  0  0  0  0
  1  9  1  0  0  0  0
  2  5  1  1  0  0  0
  2  3  1  0  0  0  0
  3  7  1  0  0  0  0
  5 15  2  0  0  0  0
  6  1  2  0  0  0  0
  7  4  2  0  0  0  0
  8 12  2  0  0  0  0
  8 13  1  0  0  0  0
 10 20  1  0  0  0  0
 11  4  1  0  0  0  0
 12 17  1  0  0  0  0
 13 19  1  6  0  0  0
 13  2  1  0  0  0  0
 14  8  1  0  0  0  0
 15  1  1  0  0  0  0
 16 21  1  0  0  0  0
 17 18  2  0  0  0  0
 17  5  1  0  0  0  0
 18  6  1  0  0  0  0
 19 10  1  0  0  0  0
 20  3  2  0  0  0  0
 20 21  1  0  0  0  0
 21 11  2  0  0  0  0
 23 22  1  6  0  0  0
 23 14  1  0  0  0  0
 24 27  2  0  0  0  0
 25 26  1  0  0  0  0
 26 28  1  0  0  0  0
 26 27  1  0  0  0  0
 27 23  1  0  0  0  0
 28 29  1  0  0  0  0
 29 30  2  0  0  0  0
 31 29  1  0  0  0  0
M  END
>  <MODEL>
4

>  <REMARK>
 VINA RESULT:      -9.1      1.619      1.910
  Name = 
  4 active torsions:
  status: ('A' for Active; 'I' for Inactive)
    1  A    between atoms: C_1  and  C_24
    2  A    between atoms: C_9  and  C_22
    3  A    between atoms: C_9  and  N_23
    4  A    between atoms: N_19  and  C_24
                            x       y       z     vdW  Elec       q    Type
                         _______ _______ _______ _____ _____    ______ ____

>  <TORSDO>
F 4

$$$$
=
 OpenBabel10262419373D

 31 34  0  0  1  0  0  0  0  0999 V2000
  191.4080  175.7700  146.8760 C   0  0  0  0  0  0  0  0  0  0  0  0
  188.8940  177.5740  144.5880 C   0  0  1  0  0  3  0  0  0  0  0  0
  187.7490  177.9080  145.5380 C   0  0  0  0  0  0  0  0  0  0  0  0
  187.0030  178.6870  147.7230 C   0  0  0  0  0  3  0  0  0  0  0  0
  190.0320  176.7070  145.1030 C   0  0  0  0  0  0  0  0  0  0  0  0
  192.2960  175.2630  145.9260 C   0  0  0  0  0  3  0  0  0  0  0  0
  188.0210  178.2700  146.8670 C   0  0  0  0  0  3  0  0  0  0  0  0
  189.5500  176.8160  142.2940 C   0  0  0  0  0  0  0  0  0  0  0  0
  191.6400  175.5700  148.1940 F   0  0  0  0  0  0  0  0  0  0  0  0
  186.0850  177.7580  143.6100 C   0  0  0  0  0  2  0  0  0  0  0  0
  185.6940  178.7780  147.2530 C   0  0  0  0  0  3  0  0  0  0  0  0
  190.6910  176.3800  142.7480 N   0  0  0  0  0  0  0  0  0  0  0  0
  188.3980  177.0090  143.2470 C   0  0  2  0  0  3  0  0  0  0  0  0
  189.3450  176.9540  140.8830 N   0  0  0  0  0  2  0  0  0  0  0  0
  190.2880  176.4990  146.4660 C   0  0  0  0  0  3  0  0  0  0  0  0
  183.7330  178.6280  145.3870 Cl  0  0  0  0  0  0  0  0  0  0  0  0
  190.9350  176.1880  144.1500 C   0  0  0  0  0  0  0  0  0  0  0  0
  192.0620  175.4720  144.5640 C   0  0  0  0  0  3  0  0  0  0  0  0
  187.2910  177.8890  142.6920 C   0  0  0  0  0  2  0  0  0  0  0  0
  186.4240  178.0660  145.0480 C   0  0  0  0  0  0  0  0  0  0  0  0
  185.3990  178.4720  145.9250 C   0  0  0  0  0  0  0  0  0  0  0  0
  191.6550  177.5090  140.3200 C   0  0  0  0  0  1  0  0  0  0  0  0
  190.4050  176.7520  139.9040 C   0  0  2  0  0  3  0  0  0  0  0  0
  189.0880  178.1270  138.4680 O   0  0  0  0  0  0  0  0  0  0  0  0
  190.0180  177.0440  136.0520 C   0  0  0  0  0  1  0  0  0  0  0  0
  190.4660  176.5950  137.3610 N   0  0  0  0  0  0  0  0  0  0  0  0
  189.9460  177.2060  138.5530 C   0  0  0  0  0  0  0  0  0  0  0  0
  191.4680  175.5400  137.4270 C   0  0  0  0  0  2  0  0  0  0  0  0
  192.7680  176.0220  136.8780 C   0  0  0  0  0  0  0  0  0  0  0  0
  193.5430  176.7010  137.6000 O   0  0  0  0  0  0  0  0  0  0  0  0
  193.1480  175.6890  135.5490 N   0  0  0  0  0  1  0  0  0  0  0  0
  1  9  1  0  0  0  0
  2  5  1  1  0  0  0
  2  3  1  0  0  0  0
  3  7  1  0  0  0  0
  5 15  2  0  0  0  0
  6  1  2  0  0  0  0
  7  4  2  0  0  0  0
  8 12  2  0  0  0  0
  8 13  1  0  0  0  0
 10 20  1  0  0  0  0
 11  4  1  0  0  0  0
 12 17  1  0  0  0  0
 13 19  1  6  0  0  0
 13  2  1  0  0  0  0
 14  8  1  0  0  0  0
 15  1  1  0  0  0  0
 16 21  1  0  0  0  0
 17 18  2  0  0  0  0
 17  5  1  0  0  0  0
 18  6  1  0  0  0  0
 19 10  1  0  0  0  0
 20  3  2  0  0  0  0
 20 21  1  0  0  0  0
 21 11  2  0  0  0  0
 23 22  1  1  0  0  0
 23 14  1  0  0  0  0
 24 27  2  0  0  0  0
 25 26  1  0  0  0  0
 26 28  1  0  0  0  0
 26 27  1  0  0  0  0
 27 23  1  0  0  0  0
 29 28  1  0  0  0  0
 29 30  2  0  0  0  0
 31 29  1  0  0  0  0
M  END
>  <MODEL>
5

>  <REMARK>
 VINA RESULT:      -9.0      1.348      1.736
  Name = 
  4 active torsions:
  status: ('A' for Active; 'I' for Inactive)
    1  A    between atoms: C_1  and  C_24
    2  A    between atoms: C_9  and  C_22
    3  A    between atoms: C_9  and  N_23
    4  A    between atoms: N_19  and  C_24
                            x       y       z     vdW  Elec       q    Type
                         _______ _______ _______ _____ _____    ______ ____

>  <TORSDO>
F 4

$$$$
=
 OpenBabel10262419373D

 31 34  0  0  1  0  0  0  0  0999 V2000
  190.7110  176.4070  146.0420 C   0  0  0  0  0  0  0  0  0  0  0  0
  188.0230  178.1040  143.8750 C   0  0  1  0  0  3  0  0  0  0  0  0
  186.8470  178.2400  144.8360 C   0  0  0  0  0  0  0  0  0  0  0  0
  186.0170  178.7620  147.0660 C   0  0  0  0  0  3  0  0  0  0  0  0
  189.2470  177.3260  144.3330 C   0  0  0  0  0  0  0  0  0  0  0  0
  191.6510  176.0720  145.0660 C   0  0  0  0  0  3  0  0  0  0  0  0
  187.0760  178.5240  146.1910 C   0  0  0  0  0  3  0  0  0  0  0  0
  188.7620  177.6010  141.5360 C   0  0  0  0  0  0  0  0  0  0  0  0
  190.9600  176.1310  147.3440 F   0  0  0  0  0  0  0  0  0  0  0  0
  185.2130  178.0630  142.8840 C   0  0  0  0  0  2  0  0  0  0  0  0
  184.7070  178.7500  146.5910 C   0  0  0  0  0  3  0  0  0  0  0  0
  189.9420  177.2550  141.9670 N   0  0  0  0  0  0  0  0  0  0  0  0
  187.5930  177.5960  142.4890 C   0  0  2  0  0  3  0  0  0  0  0  0
  188.5460  177.8250  140.1380 N   0  0  0  0  0  2  0  0  0  0  0  0
  189.5210  177.0420  145.6790 C   0  0  0  0  0  3  0  0  0  0  0  0
  182.7770  178.5360  144.6980 Cl  0  0  0  0  0  0  0  0  0  0  0  0
  190.2020  176.9820  143.3530 C   0  0  0  0  0  0  0  0  0  0  0  0
  191.3980  176.3610  143.7220 C   0  0  0  0  0  3  0  0  0  0  0  0
  186.4000  178.3930  141.9920 C   0  0  0  0  0  2  0  0  0  0  0  0
  185.5140  178.2930  144.3450 C   0  0  0  0  0  0  0  0  0  0  0  0
  184.4490  178.5180  145.2400 C   0  0  0  0  0  0  0  0  0  0  0  0
  189.3660  178.8570  138.0820 C   0  0  0  0  0  1  0  0  0  0  0  0
  189.6240  177.8140  139.1570 C   0  0  2  0  0  3  0  0  0  0  0  0
  190.7450  175.7360  138.8170 O   0  0  0  0  0  0  0  0  0  0  0  0
  188.8550  174.6410  137.0540 C   0  0  0  0  0  1  0  0  0  0  0  0
  188.7340  175.9660  137.6440 N   0  0  0  0  0  0  0  0  0  0  0  0
  189.7430  176.4530  138.5440 C   0  0  0  0  0  0  0  0  0  0  0  0
  187.5590  176.7640  137.3210 C   0  0  0  0  0  2  0  0  0  0  0  0
  187.3300  176.7790  135.8480 C   0  0  0  0  0  0  0  0  0  0  0  0
  186.2310  176.3870  135.3780 O   0  0  0  0  0  0  0  0  0  0  0  0
  188.3410  177.2650  134.9750 N   0  0  0  0  0  1  0  0  0  0  0  0
  1  9  1  0  0  0  0
  2  5  1  1  0  0  0
  2  3  1  0  0  0  0
  3  7  1  0  0  0  0
  5 15  2  0  0  0  0
  6  1  2  0  0  0  0
  7  4  2  0  0  0  0
  8 12  2  0  0  0  0
  8 13  1  0  0  0  0
 10 20  1  0  0  0  0
 11  4  1  0  0  0  0
 12 17  1  0  0  0  0
 13 19  1  6  0  0  0
 13  2  1  0  0  0  0
 14  8  1  0  0  0  0
 15  1  1  0  0  0  0
 16 21  1  0  0  0  0
 17 18  2  0  0  0  0
 17  5  1  0  0  0  0
 18  6  1  0  0  0  0
 19 10  1  0  0  0  0
 20  3  2  0  0  0  0
 20 21  1  0  0  0  0
 21 11  2  0  0  0  0
 23 22  1  6  0  0  0
 23 14  1  0  0  0  0
 25 26  1  0  0  0  0
 26 27  1  0  0  0  0
 27 24  2  0  0  0  0
 27 23  1  0  0  0  0
 28 26  1  0  0  0  0
 29 28  1  0  0  0  0
 30 29  2  0  0  0  0
 31 29  1  0  0  0  0
M  END
>  <MODEL>
6

>  <REMARK>
 VINA RESULT:      -8.9      1.603      2.406
  Name = 
  4 active torsions:
  status: ('A' for Active; 'I' for Inactive)
    1  A    between atoms: C_1  and  C_24
    2  A    between atoms: C_9  and  C_22
    3  A    between atoms: C_9  and  N_23
    4  A    between atoms: N_19  and  C_24
                            x       y       z     vdW  Elec       q    Type
                         _______ _______ _______ _____ _____    ______ ____

>  <TORSDO>
F 4

$$$$
=
 OpenBabel10262419373D

 31 34  0  0  1  0  0  0  0  0999 V2000
  191.1370  176.0680  146.3600 C   0  0  0  0  0  0  0  0  0  0  0  0
  188.4680  177.7910  144.1910 C   0  0  1  0  0  3  0  0  0  0  0  0
  187.3510  178.0780  145.1890 C   0  0  0  0  0  0  0  0  0  0  0  0
  186.6680  178.8180  147.4070 C   0  0  0  0  0  3  0  0  0  0  0  0
  189.6560  176.9630  144.6520 C   0  0  0  0  0  0  0  0  0  0  0  0
  192.0030  175.5980  145.3720 C   0  0  0  0  0  3  0  0  0  0  0  0
  187.6650  178.4420  146.5070 C   0  0  0  0  0  3  0  0  0  0  0  0
  189.0560  177.0690  141.8660 C   0  0  0  0  0  0  0  0  0  0  0  0
  191.4300  175.8690  147.6670 F   0  0  0  0  0  0  0  0  0  0  0  0
  185.6160  177.8780  143.3290 C   0  0  0  0  0  2  0  0  0  0  0  0
  185.3390  178.8640  146.9930 C   0  0  0  0  0  3  0  0  0  0  0  0
  190.2300  176.6720  142.2700 N   0  0  0  0  0  0  0  0  0  0  0  0
  187.9370  177.2150  142.8670 C   0  0  2  0  0  3  0  0  0  0  0  0
  188.7880  177.2060  140.4660 N   0  0  0  0  0  2  0  0  0  0  0  0
  189.9760  176.7580  146.0020 C   0  0  0  0  0  3  0  0  0  0  0  0
  183.3090  178.6520  145.2070 Cl  0  0  0  0  0  0  0  0  0  0  0  0
  190.5380  176.4820  143.6600 C   0  0  0  0  0  0  0  0  0  0  0  0
  191.7060  175.8060  144.0230 C   0  0  0  0  0  3  0  0  0  0  0  0
  186.7780  178.0570  142.3640 C   0  0  0  0  0  2  0  0  0  0  0  0
  186.0030  178.1910  144.7540 C   0  0  0  0  0  0  0  0  0  0  0  0
  185.0000  178.5540  145.6750 C   0  0  0  0  0  0  0  0  0  0  0  0
  191.1520  177.5480  139.9590 C   0  0  0  0  0  1  0  0  0  0  0  0
  189.8130  177.0480  139.4430 C   0  0  2  0  0  3  0  0  0  0  0  0
  189.0630  179.0020  138.2970 O   0  0  0  0  0  0  0  0  0  0  0  0
  189.0560  177.8780  135.7260 C   0  0  0  0  0  1  0  0  0  0  0  0
  189.4360  177.1450  136.9240 N   0  0  0  0  0  0  0  0  0  0  0  0
  189.4200  177.7950  138.2060 C   0  0  0  0  0  0  0  0  0  0  0  0
  189.8580  175.7580  136.7840 C   0  0  0  0  0  2  0  0  0  0  0  0
  188.6850  174.8860  136.4890 C   0  0  0  0  0  0  0  0  0  0  0  0
  187.6620  174.9380  137.2180 O   0  0  0  0  0  0  0  0  0  0  0  0
  188.7090  174.0180  135.3630 N   0  0  0  0  0  1  0  0  0  0  0  0
  1  9  1  0  0  0  0
  2  5  1  1  0  0  0
  2  3  1  0  0  0  0
  3  7  1  0  0  0  0
  5 15  2  0  0  0  0
  6  1  2  0  0  0  0
  7  4  2  0  0  0  0
  8 12  2  0  0  0  0
  8 13  1  0  0  0  0
 10 20  1  0  0  0  0
 11  4  1  0  0  0  0
 12 17  1  0  0  0  0
 13 19  1  6  0  0  0
 13  2  1  0  0  0  0
 14  8  1  0  0  0  0
 15  1  1  0  0  0  0
 16 21  1  0  0  0  0
 17 18  2  0  0  0  0
 17  5  1  0  0  0  0
 18  6  1  0  0  0  0
 19 10  1  0  0  0  0
 20  3  2  0  0  0  0
 20 21  1  0  0  0  0
 21 11  2  0  0  0  0
 23 22  1  1  0  0  0
 23 14  1  0  0  0  0
 25 26  1  0  0  0  0
 26 27  1  0  0  0  0
 27 24  2  0  0  0  0
 27 23  1  0  0  0  0
 28 26  1  0  0  0  0
 29 28  1  0  0  0  0
 29 30  2  0  0  0  0
 31 29  1  0  0  0  0
M  END
>  <MODEL>
7

>  <REMARK>
 VINA RESULT:      -8.9      1.771      2.346
  Name = 
  4 active torsions:
  status: ('A' for Active; 'I' for Inactive)
    1  A    between atoms: C_1  and  C_24
    2  A    between atoms: C_9  and  C_22
    3  A    between atoms: C_9  and  N_23
    4  A    between atoms: N_19  and  C_24
                            x       y       z     vdW  Elec       q    Type
                         _______ _______ _______ _____ _____    ______ ____

>  <TORSDO>
F 4

$$$$
=
 OpenBabel10262419373D

 31 34  0  0  1  0  0  0  0  0999 V2000
  184.4300  179.2000  143.6130 C   0  0  0  0  0  0  0  0  0  0  0  0
  187.7720  177.3250  143.9490 C   0  0  1  0  0  3  0  0  0  0  0  0
  188.0920  177.4630  145.4330 C   0  0  0  0  0  0  0  0  0  0  0  0
  187.3330  177.4380  147.7480 C   0  0  0  0  0  3  0  0  0  0  0  0
  186.5780  178.0830  143.3920 C   0  0  0  0  0  0  0  0  0  0  0  0
  184.3170  179.2720  142.2230 C   0  0  0  0  0  3  0  0  0  0  0  0
  187.0580  177.4260  146.3810 C   0  0  0  0  0  3  0  0  0  0  0  0
  188.6700  177.3160  141.6110 C   0  0  0  0  0  0  0  0  0  0  0  0
  183.4470  179.7010  144.3980 F   0  0  0  0  0  0  0  0  0  0  0  0
  190.5900  177.3840  144.9180 C   0  0  0  0  0  2  0  0  0  0  0  0
  188.6530  177.4570  148.1920 C   0  0  0  0  0  3  0  0  0  0  0  0
  187.5000  177.6490  141.1440 N   0  0  0  0  0  0  0  0  0  0  0  0
  188.9970  177.5900  143.0580 C   0  0  2  0  0  3  0  0  0  0  0  0
  189.6890  176.8460  140.7220 N   0  0  0  0  0  2  0  0  0  0  0  0
  185.5490  178.5980  144.1930 C   0  0  0  0  0  3  0  0  0  0  0  0
  191.3490  177.4480  147.8960 Cl  0  0  0  0  0  0  0  0  0  0  0  0
  186.4560  178.1620  141.9880 C   0  0  0  0  0  0  0  0  0  0  0  0
  185.3280  178.7520  141.4110 C   0  0  0  0  0  3  0  0  0  0  0  0
  190.1900  176.8030  143.5700 C   0  0  0  0  0  2  0  0  0  0  0  0
  189.4370  177.4160  145.8910 C   0  0  0  0  0  0  0  0  0  0  0  0
  189.7050  177.4460  147.2750 C   0  0  0  0  0  0  0  0  0  0  0  0
  190.7260  176.0980  138.6410 C   0  0  0  0  0  1  0  0  0  0  0  0
  189.4520  176.5900  139.3070 C   0  0  2  0  0  3  0  0  0  0  0  0
  189.4870  178.9450  138.9320 O   0  0  0  0  0  0  0  0  0  0  0  0
  187.4260  178.9930  137.0280 C   0  0  0  0  0  1  0  0  0  0  0  0
  187.8960  177.7780  137.6760 N   0  0  0  0  0  0  0  0  0  0  0  0
  188.9610  177.8360  138.6380 C   0  0  0  0  0  0  0  0  0  0  0  0
  187.2790  176.5110  137.3050 C   0  0  0  0  0  2  0  0  0  0  0  0
  187.6370  176.1490  135.9050 C   0  0  0  0  0  0  0  0  0  0  0  0
  188.8250  175.8550  135.6150 O   0  0  0  0  0  0  0  0  0  0  0  0
  186.6310  176.1050  134.9000 N   0  0  0  0  0  1  0  0  0  0  0  0
  1 15  1  0  0  0  0
  1  9  1  0  0  0  0
  2  5  1  6  0  0  0
  2  3  1  0  0  0  0
  3 20  2  0  0  0  0
  3  7  1  0  0  0  0
  4 11  1  0  0  0  0
  5 15  2  0  0  0  0
  6  1  2  0  0  0  0
  7  4  2  0  0  0  0
  8 13  1  0  0  0  0
 10 20  1  0  0  0  0
 12  8  2  0  0  0  0
 12 17  1  0  0  0  0
 13 19  1  1  0  0  0
 13  2  1  0  0  0  0
 14  8  1  0  0  0  0
 17  5  1  0  0  0  0
 18 17  2  0  0  0  0
 18  6  1  0  0  0  0
 19 10  1  0  0  0  0
 20 21  1  0  0  0  0
 21 16  1  0  0  0  0
 21 11  2  0  0  0  0
 23 22  1  6  0  0  0
 23 14  1  0  0  0  0
 25 26  1  0  0  0  0
 26 27  1  0  0  0  0
 27 24  2  0  0  0  0
 27 23  1  0  0  0  0
 28 26  1  0  0  0  0
 29 28  1  0  0  0  0
 30 29  2  0  0  0  0
 31 29  1  0  0  0  0
M  END
>  <MODEL>
8

>  <REMARK>
 VINA RESULT:      -8.7      2.963      4.905
  Name = 
  4 active torsions:
  status: ('A' for Active; 'I' for Inactive)
    1  A    between atoms: C_1  and  C_24
    2  A    between atoms: C_9  and  C_22
    3  A    between atoms: C_9  and  N_23
    4  A    between atoms: N_19  and  C_24
                            x       y       z     vdW  Elec       q    Type
                         _______ _______ _______ _____ _____    ______ ____

>  <TORSDO>
F 4

$$$$
=
 OpenBabel10262419373D

 31 34  0  0  1  0  0  0  0  0999 V2000
  184.2690  178.6340  145.6920 C   0  0  0  0  0  0  0  0  0  0  0  0
  186.8010  177.8060  142.9150 C   0  0  1  0  0  3  0  0  0  0  0  0
  188.1130  177.6690  143.6810 C   0  0  0  0  0  0  0  0  0  0  0  0
  189.3180  176.8630  145.6380 C   0  0  0  0  0  3  0  0  0  0  0  0
  185.5710  178.2890  143.6670 C   0  0  0  0  0  0  0  0  0  0  0  0
  183.1630  179.0020  144.9240 C   0  0  0  0  0  3  0  0  0  0  0  0
  188.1210  177.1010  144.9640 C   0  0  0  0  0  3  0  0  0  0  0  0
  185.6720  178.6280  140.8370 C   0  0  0  0  0  0  0  0  0  0  0  0
  184.1810  178.6160  147.0430 F   0  0  0  0  0  0  0  0  0  0  0  0
  189.4100  178.4590  141.6300 C   0  0  0  0  0  2  0  0  0  0  0  0
  190.5330  177.1640  145.0260 C   0  0  0  0  0  3  0  0  0  0  0  0
  184.5340  178.7030  141.4670 N   0  0  0  0  0  0  0  0  0  0  0  0
  186.9580  178.6280  141.6260 C   0  0  2  0  0  3  0  0  0  0  0  0
  185.7070  178.7090  139.4080 N   0  0  0  0  0  2  0  0  0  0  0  0
  185.4630  178.2670  145.0650 C   0  0  0  0  0  3  0  0  0  0  0  0
  192.1240  178.0230  143.0050 Cl  0  0  0  0  0  0  0  0  0  0  0  0
  184.4470  178.6650  142.9000 C   0  0  0  0  0  0  0  0  0  0  0  0
  183.2500  179.0160  143.5300 C   0  0  0  0  0  3  0  0  0  0  0  0
  188.1550  178.1290  140.8360 C   0  0  0  0  0  2  0  0  0  0  0  0
  189.3560  177.9120  143.0360 C   0  0  0  0  0  0  0  0  0  0  0  0
  190.5600  177.6850  143.7320 C   0  0  0  0  0  0  0  0  0  0  0  0
  183.4330  179.5840  139.2580 C   0  0  0  0  0  1  0  0  0  0  0  0
  184.5050  178.7440  138.5850 C   0  0  2  0  0  3  0  0  0  0  0  0
  183.1490  176.8600  139.1370 O   0  0  0  0  0  0  0  0  0  0  0  0
  184.0090  175.2220  137.0270 C   0  0  0  0  0  1  0  0  0  0  0  0
  184.5000  176.5730  137.2500 N   0  0  0  0  0  0  0  0  0  0  0  0
  184.0060  177.3510  138.3510 C   0  0  0  0  0  0  0  0  0  0  0  0
  185.4780  177.1180  136.3170 C   0  0  0  0  0  2  0  0  0  0  0  0
  186.7520  176.3480  136.3910 C   0  0  0  0  0  0  0  0  0  0  0  0
  187.1720  175.7240  135.3820 O   0  0  0  0  0  0  0  0  0  0  0  0
  187.5130  176.3440  137.5930 N   0  0  0  0  0  1  0  0  0  0  0  0
  1  9  1  0  0  0  0
  2  5  1  1  0  0  0
  2  3  1  0  0  0  0
  3  7  1  0  0  0  0
  5 15  2  0  0  0  0
  6  1  2  0  0  0  0
  7  4  2  0  0  0  0
  8 12  2  0  0  0  0
  8 13  1  0  0  0  0
 10 20  1  0  0  0  0
 11  4  1  0  0  0  0
 12 17  1  0  0  0  0
 13 19  1  6  0  0  0
 13  2  1  0  0  0  0
 14  8  1  0  0  0  0
 15  1  1  0  0  0  0
 16 21  1  0  0  0  0
 17 18  2  0  0  0  0
 17  5  1  0  0  0  0
 18  6  1  0  0  0  0
 19 10  1  0  0  0  0
 20  3  2  0  0  0  0
 20 21  1  0  0  0  0
 21 11  2  0  0  0  0
 23 22  1  1  0  0  0
 23 14  1  0  0  0  0
 25 26  1  0  0  0  0
 26 27  1  0  0  0  0
 27 23  1  0  0  0  0
 27 24  2  0  0  0  0
 28 29  1  0  0  0  0
 28 26  1  0  0  0  0
 29 31  1  0  0  0  0
 30 29  2  0  0  0  0
M  END
>  <MODEL>
9

>  <REMARK>
 VINA RESULT:      -8.7      3.623      5.672
  Name = 
  4 active torsions:
  status: ('A' for Active; 'I' for Inactive)
    1  A    between atoms: C_1  and  C_24
    2  A    between atoms: C_9  and  C_22
    3  A    between atoms: C_9  and  N_23
    4  A    between atoms: N_19  and  C_24
                            x       y       z     vdW  Elec       q    Type
                         _______ _______ _______ _____ _____    ______ ____

>  <TORSDO>
F 4

$$$$
