=
 OpenBabel10252414533D

 34 39  0  0  1  0  0  0  0  0999 V2000
  185.4580  178.3850  144.3560 C   0  0  0  0  0  0  0  0  0  0  0  0
  186.6030  177.8940  142.2780 C   0  0  0  0  0  0  0  0  0  0  0  0
  187.8860  177.9930  144.3730 C   0  0  0  0  0  0  0  0  0  0  0  0
  190.4630  178.0050  143.8070 C   0  0  2  0  0  0  0  0  0  0  0  0
  184.2530  178.2570  142.2760 C   0  0  0  0  0  3  0  0  0  0  0  0
  191.0570  176.7370  146.9410 C   0  0  1  0  0  3  0  0  0  0  0  0
  185.4140  177.9900  141.6230 N   0  0  0  0  0  0  0  0  0  0  0  0
  188.8880  176.9240  142.3270 C   0  0  1  0  0  3  0  0  0  0  0  0
  189.0060  176.3560  148.1280 O   0  0  0  0  0  1  0  0  0  0  0  0
  186.6570  178.0910  143.6720 C   0  0  0  0  0  0  0  0  0  0  0  0
  191.6560  177.4930  145.9020 O   0  0  0  0  0  0  0  0  0  0  0  0
  191.0790  177.9370  142.4210 C   0  0  0  0  0  2  0  0  0  0  0  0
  184.2540  178.4610  143.6560 C   0  0  0  0  0  3  0  0  0  0  0  0
  187.8750  178.2410  145.7750 C   0  0  0  0  0  0  0  0  0  0  0  0
  189.5280  176.7840  146.9060 C   0  0  1  0  0  3  0  0  0  0  0  0
  185.4740  178.6090  145.7280 C   0  0  0  0  0  3  0  0  0  0  0  0
  187.8550  177.6830  141.4910 C   0  0  0  0  0  2  0  0  0  0  0  0
  190.5750  179.4470  144.2890 C   0  0  0  0  0  1  0  0  0  0  0  0
  191.2300  176.9800  144.6630 C   0  0  0  0  0  2  0  0  0  0  0  0
  189.0880  178.2090  146.6350 C   0  0  0  0  0  2  0  0  0  0  0  0
  190.2700  176.8960  141.6770 C   0  0  2  0  0  3  0  0  0  0  0  0
  189.0670  177.5830  143.6210 N   0  0  0  0  0  0  0  0  0  0  0  0
  186.6750  178.5410  146.4280 C   0  0  0  0  0  3  0  0  0  0  0  0
  191.5850  175.3050  147.0100 C   0  0  0  0  0  2  0  0  0  0  0  0
  192.7770  175.2290  147.9440 C   0  0  0  0  0  1  0  0  0  0  0  0
  190.2410  177.1820  140.3090 O   0  0  0  0  0  0  0  0  0  0  0  0
  190.7080  176.0700  139.7200 O   0  0  0  0  0  0  0  0  0  0  0  0
  193.2430  177.2290  139.7390 F   0  0  0  0  0  0  0  0  0  0  0  0
  191.4980  176.1320  138.5710 C   0  0  0  0  0  0  0  0  0  0  0  0
  192.9880  176.3290  138.7210 C   0  0  1  0  0  3  0  0  0  0  0  0
  193.2530  175.8960  136.4010 C   0  0  0  0  0  2  0  0  0  0  0  0
  191.7640  176.0310  136.0990 C   0  0  0  0  0  2  0  0  0  0  0  0
  190.9530  175.9460  137.3600 C   0  0  0  0  0  3  0  0  0  0  0  0
  193.6060  176.8110  137.4820 N   0  0  0  0  0  2  0  0  0  0  0  0
  1 16  1  0  0  0  0
  2 10  1  0  0  0  0
  3 14  2  0  0  0  0
  4 18  1  1  0  0  0
  4 19  1  0  0  0  0
  5 13  2  0  0  0  0
  6 24  1  6  0  0  0
  7  5  1  0  0  0  0
  7  2  2  0  0  0  0
  8 17  1  6  0  0  0
  8 22  1  0  0  0  0
 10  1  2  0  0  0  0
 10  3  1  0  0  0  0
 11  6  1  0  0  0  0
 12  4  1  0  0  0  0
 13  1  1  0  0  0  0
 14 23  1  0  0  0  0
 14 20  1  0  0  0  0
 15  6  1  0  0  0  0
 15  9  1  1  0  0  0
 16 23  2  0  0  0  0
 17  2  1  0  0  0  0
 19 11  1  0  0  0  0
 20 15  1  0  0  0  0
 21 26  1  6  0  0  0
 21  8  1  0  0  0  0
 21 12  1  0  0  0  0
 22  4  1  0  0  0  0
 22  3  1  0  0  0  0
 24 25  1  0  0  0  0
 27 26  1  0  0  0  0
 29 30  1  0  0  0  0
 29 27  1  0  0  0  0
 30 28  1  1  0  0  0
 31 34  1  0  0  0  0
 32 31  1  0  0  0  0
 32 33  1  0  0  0  0
 33 29  2  0  0  0  0
 34 30  1  0  0  0  0
M  END
>  <MODEL>
1

>  <REMARK>
 VINA RESULT:      -9.6      0.000      0.000
  Name = 
  4 active torsions:
  status: ('A' for Active; 'I' for Inactive)
    1  A    between atoms: O_3  and  C_13
    2  A    between atoms: O_3  and  O_17
    3  A    between atoms: C_7  and  C_8
    4  A    between atoms: O_17  and  C_29
                            x       y       z     vdW  Elec       q    Type
                         _______ _______ _______ _____ _____    ______ ____

>  <TORSDO>
F 4

$$$$
=
 OpenBabel10252414533D

 34 39  0  0  1  0  0  0  0  0999 V2000
  183.1230  178.7450  144.2720 C   0  0  0  0  0  0  0  0  0  0  0  0
  185.1850  178.5680  143.0140 C   0  0  0  0  0  0  0  0  0  0  0  0
  183.0430  178.6940  141.8140 C   0  0  0  0  0  0  0  0  0  0  0  0
  183.4400  178.1040  139.2730 C   0  0  2  0  0  0  0  0  0  0  0  0
  185.2520  178.6370  145.3900 C   0  0  0  0  0  3  0  0  0  0  0  0
  180.6060  179.8870  138.5180 C   0  0  1  0  0  3  0  0  0  0  0  0
  185.8760  178.5480  144.1850 N   0  0  0  0  0  0  0  0  0  0  0  0
  185.2020  179.1050  140.5890 C   0  0  1  0  0  3  0  0  0  0  0  0
  179.6480  180.8720  140.4860 O   0  0  0  0  0  1  0  0  0  0  0  0
  183.7800  178.6690  143.0250 C   0  0  0  0  0  0  0  0  0  0  0  0
  181.4290  178.8310  138.0490 O   0  0  0  0  0  0  0  0  0  0  0  0
  184.7710  177.7620  138.6280 C   0  0  0  0  0  2  0  0  0  0  0  0
  183.8630  178.7360  145.4550 C   0  0  0  0  0  3  0  0  0  0  0  0
  181.6230  178.7580  141.9000 C   0  0  0  0  0  0  0  0  0  0  0  0
  180.7220  180.1060  140.0280 C   0  0  1  0  0  3  0  0  0  0  0  0
  181.7360  178.8220  144.3260 C   0  0  0  0  0  3  0  0  0  0  0  0
  185.9230  178.3800  141.7280 C   0  0  0  0  0  2  0  0  0  0  0  0
  182.6640  176.8020  139.4420 C   0  0  0  0  0  1  0  0  0  0  0  0
  182.7710  179.1340  138.3470 C   0  0  0  0  0  2  0  0  0  0  0  0
  180.7180  178.7580  140.7200 C   0  0  0  0  0  2  0  0  0  0  0  0
  185.7600  178.7470  139.2130 C   0  0  2  0  0  3  0  0  0  0  0  0
  183.7920  178.7170  140.5630 N   0  0  0  0  0  0  0  0  0  0  0  0
  180.9950  178.8230  143.1480 C   0  0  0  0  0  3  0  0  0  0  0  0
  180.8040  181.1830  137.7340 C   0  0  0  0  0  2  0  0  0  0  0  0
  180.2680  181.0310  136.3230 C   0  0  0  0  0  1  0  0  0  0  0  0
  187.0400  178.1840  139.2660 O   0  0  0  0  0  0  0  0  0  0  0  0
  187.7110  178.7710  138.2640 O   0  0  0  0  0  0  0  0  0  0  0  0
  190.1980  177.9860  139.2470 F   0  0  0  0  0  0  0  0  0  0  0  0
  188.6200  178.0570  137.4810 C   0  0  0  0  0  0  0  0  0  0  0  0
  189.7130  177.2720  138.1670 C   0  0  1  0  0  3  0  0  0  0  0  0
  190.2750  176.2820  136.0830 C   0  0  0  0  0  2  0  0  0  0  0  0
  189.4530  177.2770  135.2700 C   0  0  0  0  0  2  0  0  0  0  0  0
  188.4810  178.0110  136.1490 C   0  0  0  0  0  3  0  0  0  0  0  0
  190.8180  176.9570  137.2570 N   0  0  0  0  0  2  0  0  0  0  0  0
  1 16  1  0  0  0  0
  1 13  2  0  0  0  0
  2 10  2  0  0  0  0
  2  7  1  0  0  0  0
  3 14  2  0  0  0  0
  3 10  1  0  0  0  0
  4 18  1  1  0  0  0
  4 22  1  0  0  0  0
  5 13  1  0  0  0  0
  6 24  1  6  0  0  0
  6 15  1  0  0  0  0
  7  5  2  0  0  0  0
  8 17  1  1  0  0  0
 10  1  1  0  0  0  0
 11 19  1  0  0  0  0
 11  6  1  0  0  0  0
 12 21  1  0  0  0  0
 12  4  1  0  0  0  0
 14 23  1  0  0  0  0
 15  9  1  1  0  0  0
 15 20  1  0  0  0  0
 17  2  1  0  0  0  0
 19  4  1  0  0  0  0
 20 14  1  0  0  0  0
 21 26  1  1  0  0  0
 21  8  1  0  0  0  0
 22  8  1  0  0  0  0
 22  3  1  0  0  0  0
 23 16  2  0  0  0  0
 25 24  1  0  0  0  0
 27 26  1  0  0  0  0
 29 30  1  0  0  0  0
 29 27  1  0  0  0  0
 30 28  1  1  0  0  0
 31 34  1  0  0  0  0
 32 31  1  0  0  0  0
 32 33  1  0  0  0  0
 33 29  2  0  0  0  0
 34 30  1  0  0  0  0
M  END
>  <MODEL>
2

>  <REMARK>
 VINA RESULT:      -8.2      4.277      7.746
  Name = 
  4 active torsions:
  status: ('A' for Active; 'I' for Inactive)
    1  A    between atoms: O_3  and  C_13
    2  A    between atoms: O_3  and  O_17
    3  A    between atoms: C_7  and  C_8
    4  A    between atoms: O_17  and  C_29
                            x       y       z     vdW  Elec       q    Type
                         _______ _______ _______ _____ _____    ______ ____

>  <TORSDO>
F 4

$$$$
=
 OpenBabel10252414533D

 34 39  0  0  1  0  0  0  0  0999 V2000
  192.5240  175.8740  135.9460 C   0  0  0  0  0  0  0  0  0  0  0  0
  192.4940  176.2520  138.3380 C   0  0  0  0  0  0  0  0  0  0  0  0
  190.4800  176.7300  137.0120 C   0  0  0  0  0  0  0  0  0  0  0  0
  188.7660  178.0750  138.4990 C   0  0  2  0  0  0  0  0  0  0  0  0
  194.4590  175.4070  137.3000 C   0  0  0  0  0  3  0  0  0  0  0  0
  186.2490  176.9160  136.4730 C   0  0  1  0  0  3  0  0  0  0  0  0
  193.7830  175.8240  138.4040 N   0  0  0  0  0  0  0  0  0  0  0  0
  190.3260  176.5360  139.5160 C   0  0  1  0  0  3  0  0  0  0  0  0
  187.1030  175.4400  134.7840 O   0  0  0  0  0  1  0  0  0  0  0  0
  191.8240  176.2890  137.0990 C   0  0  0  0  0  0  0  0  0  0  0  0
  186.5910  177.9830  137.3420 O   0  0  0  0  0  0  0  0  0  0  0  0
  188.9580  178.4800  139.9500 C   0  0  0  0  0  2  0  0  0  0  0  0
  193.8420  175.4260  136.0500 C   0  0  0  0  0  3  0  0  0  0  0  0
  189.8770  176.7790  135.7220 C   0  0  0  0  0  0  0  0  0  0  0  0
  187.4730  176.2060  135.8900 C   0  0  1  0  0  3  0  0  0  0  0  0
  191.9060  175.9170  134.7020 C   0  0  0  0  0  3  0  0  0  0  0  0
  191.8360  176.7770  139.5730 C   0  0  0  0  0  2  0  0  0  0  0  0
  188.9800  179.3190  137.6440 C   0  0  0  0  0  1  0  0  0  0  0  0
  187.3520  177.4720  138.4100 C   0  0  0  0  0  2  0  0  0  0  0  0
  188.4900  177.2490  135.4700 C   0  0  0  0  0  2  0  0  0  0  0  0
  189.5680  177.2680  140.6220 C   0  0  2  0  0  3  0  0  0  0  0  0
  189.7850  177.0450  138.2550 N   0  0  0  0  0  0  0  0  0  0  0  0
  190.5950  176.3710  134.5940 C   0  0  0  0  0  3  0  0  0  0  0  0
  185.2630  175.9330  137.1030 C   0  0  0  0  0  2  0  0  0  0  0  0
  183.8810  176.5530  137.1830 C   0  0  0  0  0  1  0  0  0  0  0  0
  190.3860  177.6570  141.6870 O   0  0  0  0  0  0  0  0  0  0  0  0
  190.2250  176.6950  142.6080 O   0  0  0  0  0  0  0  0  0  0  0  0
  191.6900  176.5140  144.9730 F   0  0  0  0  0  0  0  0  0  0  0  0
  189.6520  176.9660  143.8510 C   0  0  0  0  0  0  0  0  0  0  0  0
  190.5570  177.3060  145.0120 C   0  0  1  0  0  3  0  0  0  0  0  0
  188.6480  177.9010  146.2940 C   0  0  0  0  0  2  0  0  0  0  0  0
  187.6650  177.2580  145.3200 C   0  0  0  0  0  2  0  0  0  0  0  0
  188.3200  176.9970  143.9940 C   0  0  0  0  0  3  0  0  0  0  0  0
  189.8860  177.1270  146.3030 N   0  0  0  0  0  2  0  0  0  0  0  0
  1 13  2  0  0  0  0
  1 10  1  0  0  0  0
  2  7  1  0  0  0  0
  2 17  1  0  0  0  0
  3 10  1  0  0  0  0
  3 22  1  0  0  0  0
  4 18  1  6  0  0  0
  4 12  1  0  0  0  0
  5  7  2  0  0  0  0
  6 24  1  1  0  0  0
  6 11  1  0  0  0  0
  8 17  1  6  0  0  0
  8 21  1  0  0  0  0
 10  2  2  0  0  0  0
 11 19  1  0  0  0  0
 12 21  1  0  0  0  0
 13  5  1  0  0  0  0
 14  3  2  0  0  0  0
 15  9  1  6  0  0  0
 15  6  1  0  0  0  0
 16  1  1  0  0  0  0
 19  4  1  0  0  0  0
 20 14  1  0  0  0  0
 20 15  1  0  0  0  0
 21 26  1  1  0  0  0
 22  4  1  0  0  0  0
 22  8  1  0  0  0  0
 23 16  2  0  0  0  0
 23 14  1  0  0  0  0
 24 25  1  0  0  0  0
 26 27  1  0  0  0  0
 27 29  1  0  0  0  0
 29 33  2  0  0  0  0
 29 30  1  0  0  0  0
 30 28  1  1  0  0  0
 30 34  1  0  0  0  0
 31 34  1  0  0  0  0
 32 31  1  0  0  0  0
 33 32  1  0  0  0  0
M  END
>  <MODEL>
3

>  <REMARK>
 VINA RESULT:      -7.9      2.959      9.124
  Name = 
  4 active torsions:
  status: ('A' for Active; 'I' for Inactive)
    1  A    between atoms: O_3  and  C_13
    2  A    between atoms: O_3  and  O_17
    3  A    between atoms: C_7  and  C_8
    4  A    between atoms: O_17  and  C_29
                            x       y       z     vdW  Elec       q    Type
                         _______ _______ _______ _____ _____    ______ ____

>  <TORSDO>
F 4

$$$$
=
 OpenBabel10252414533D

 34 39  0  0  1  0  0  0  0  0999 V2000
  183.3160  178.7120  144.3170 C   0  0  0  0  0  0  0  0  0  0  0  0
  185.2830  178.5720  142.9100 C   0  0  0  0  0  0  0  0  0  0  0  0
  183.0600  178.7230  141.8710 C   0  0  0  0  0  0  0  0  0  0  0  0
  183.2750  178.1970  139.2940 C   0  0  2  0  0  0  0  0  0  0  0  0
  185.5200  178.5810  145.2770 C   0  0  0  0  0  3  0  0  0  0  0  0
  180.3930  179.9920  138.7890 C   0  0  1  0  0  3  0  0  0  0  0  0
  186.0560  178.5240  144.0290 N   0  0  0  0  0  0  0  0  0  0  0  0
  185.1260  179.1700  140.5050 C   0  0  1  0  0  3  0  0  0  0  0  0
  179.5780  180.9250  140.8440 O   0  0  0  0  0  1  0  0  0  0  0  0
  183.8820  178.6690  143.0250 C   0  0  0  0  0  0  0  0  0  0  0  0
  181.1800  178.9510  138.2350 O   0  0  0  0  0  0  0  0  0  0  0  0
  184.5560  177.8750  138.5460 C   0  0  0  0  0  2  0  0  0  0  0  0
  184.1380  178.6750  145.4430 C   0  0  0  0  0  3  0  0  0  0  0  0
  181.6500  178.7810  142.0590 C   0  0  0  0  0  0  0  0  0  0  0  0
  180.6170  180.1740  140.2920 C   0  0  1  0  0  3  0  0  0  0  0  0
  181.9360  178.7840  144.4720 C   0  0  0  0  0  3  0  0  0  0  0  0
  185.9270  178.4180  141.5710 C   0  0  0  0  0  2  0  0  0  0  0  0
  182.5140  176.8900  139.4850 C   0  0  0  0  0  1  0  0  0  0  0  0
  182.5400  179.2490  138.4440 C   0  0  0  0  0  2  0  0  0  0  0  0
  180.6630  178.8090  140.9480 C   0  0  0  0  0  2  0  0  0  0  0  0
  185.5840  178.8470  139.0840 C   0  0  2  0  0  3  0  0  0  0  0  0
  183.7180  178.7780  140.5700 N   0  0  0  0  0  0  0  0  0  0  0  0
  181.1130  178.8140  143.3510 C   0  0  0  0  0  3  0  0  0  0  0  0
  180.5330  181.3080  138.0260 C   0  0  0  0  0  2  0  0  0  0  0  0
  180.0340  181.1470  136.6020 C   0  0  0  0  0  1  0  0  0  0  0  0
  186.8640  178.2860  139.0320 O   0  0  0  0  0  0  0  0  0  0  0  0
  187.3080  178.5670  137.7970 O   0  0  0  0  0  0  0  0  0  0  0  0
  186.4030  176.3940  136.3050 F   0  0  0  0  0  0  0  0  0  0  0  0
  188.1890  177.7150  137.1280 C   0  0  0  0  0  0  0  0  0  0  0  0
  187.6630  176.8690  135.9930 C   0  0  1  0  0  3  0  0  0  0  0  0
  189.8920  176.2530  135.4530 C   0  0  0  0  0  2  0  0  0  0  0  0
  190.4660  176.7830  136.7630 C   0  0  0  0  0  2  0  0  0  0  0  0
  189.4920  177.7030  137.4400 C   0  0  0  0  0  3  0  0  0  0  0  0
  188.5470  175.7390  135.6940 N   0  0  0  0  0  2  0  0  0  0  0  0
  1 16  1  0  0  0  0
  1 13  2  0  0  0  0
  2 10  2  0  0  0  0
  2  7  1  0  0  0  0
  3 14  2  0  0  0  0
  3 10  1  0  0  0  0
  4 18  1  1  0  0  0
  4 22  1  0  0  0  0
  5 13  1  0  0  0  0
  6 24  1  6  0  0  0
  6 15  1  0  0  0  0
  7  5  2  0  0  0  0
  8 22  1  0  0  0  0
  8 17  1  1  0  0  0
 10  1  1  0  0  0  0
 11 19  1  0  0  0  0
 11  6  1  0  0  0  0
 12 21  1  0  0  0  0
 12  4  1  0  0  0  0
 14 23  1  0  0  0  0
 15  9  1  1  0  0  0
 15 20  1  0  0  0  0
 17  2  1  0  0  0  0
 19  4  1  0  0  0  0
 20 14  1  0  0  0  0
 21 26  1  1  0  0  0
 21  8  1  0  0  0  0
 22  3  1  0  0  0  0
 23 16  2  0  0  0  0
 25 24  1  0  0  0  0
 27 26  1  0  0  0  0
 29 33  2  0  0  0  0
 29 27  1  0  0  0  0
 30 28  1  1  0  0  0
 30 29  1  0  0  0  0
 31 34  1  0  0  0  0
 31 32  1  0  0  0  0
 32 33  1  0  0  0  0
 34 30  1  0  0  0  0
M  END
>  <MODEL>
4

>  <REMARK>
 VINA RESULT:      -7.9      4.524      7.934
  Name = 
  4 active torsions:
  status: ('A' for Active; 'I' for Inactive)
    1  A    between atoms: O_3  and  C_13
    2  A    between atoms: O_3  and  O_17
    3  A    between atoms: C_7  and  C_8
    4  A    between atoms: O_17  and  C_29
                            x       y       z     vdW  Elec       q    Type
                         _______ _______ _______ _____ _____    ______ ____

>  <TORSDO>
F 4

$$$$
=
 OpenBabel10252414533D

 34 39  0  0  1  0  0  0  0  0999 V2000
  190.5520  177.0440  145.2120 C   0  0  0  0  0  0  0  0  0  0  0  0
  188.1640  177.3240  145.5040 C   0  0  0  0  0  0  0  0  0  0  0  0
  189.1510  177.6050  143.2700 C   0  0  0  0  0  0  0  0  0  0  0  0
  187.3540  178.6740  141.6610 C   0  0  2  0  0  0  0  0  0  0  0  0
  189.5250  176.7640  147.3720 C   0  0  0  0  0  3  0  0  0  0  0  0
  189.0510  177.2970  139.0130 C   0  0  1  0  0  3  0  0  0  0  0  0
  188.3130  177.0530  146.8290 N   0  0  0  0  0  0  0  0  0  0  0  0
  186.6670  177.2980  143.5230 C   0  0  1  0  0  3  0  0  0  0  0  0
  190.9280  176.0020  139.7620 O   0  0  0  0  0  1  0  0  0  0  0  0
  189.2870  177.3270  144.6540 C   0  0  0  0  0  0  0  0  0  0  0  0
  188.1830  178.3640  139.3600 O   0  0  0  0  0  0  0  0  0  0  0  0
  185.9270  179.0430  142.0250 C   0  0  0  0  0  2  0  0  0  0  0  0
  190.6680  176.7560  146.5720 C   0  0  0  0  0  3  0  0  0  0  0  0
  190.3330  177.6300  142.4760 C   0  0  0  0  0  0  0  0  0  0  0  0
  189.8460  176.7640  140.2070 C   0  0  1  0  0  3  0  0  0  0  0  0
  191.6880  177.0600  144.4110 C   0  0  0  0  0  3  0  0  0  0  0  0
  186.8180  177.7180  144.9870 C   0  0  0  0  0  2  0  0  0  0  0  0
  188.1610  179.9670  141.5990 C   0  0  0  0  0  1  0  0  0  0  0  0
  187.2680  177.9080  140.3290 C   0  0  0  0  0  2  0  0  0  0  0  0
  190.3520  177.9380  141.0220 C   0  0  0  0  0  2  0  0  0  0  0  0
  185.4220  177.8890  142.8640 C   0  0  2  0  0  3  0  0  0  0  0  0
  187.8030  177.7860  142.7420 N   0  0  0  0  0  0  0  0  0  0  0  0
  191.5760  177.3550  143.0560 C   0  0  0  0  0  3  0  0  0  0  0  0
  188.3390  176.1790  138.2540 C   0  0  0  0  0  2  0  0  0  0  0  0
  188.1260  176.5790  136.8070 C   0  0  0  0  0  1  0  0  0  0  0  0
  184.4680  178.3340  143.7860 O   0  0  0  0  0  0  0  0  0  0  0  0
  183.7290  179.2240  143.1070 O   0  0  0  0  0  0  0  0  0  0  0  0
  182.7270  179.3750  140.5100 F   0  0  0  0  0  0  0  0  0  0  0  0
  182.3830  178.9850  142.8220 C   0  0  0  0  0  0  0  0  0  0  0  0
  181.9910  178.6250  141.4080 C   0  0  1  0  0  3  0  0  0  0  0  0
  179.8020  178.1110  142.1740 C   0  0  0  0  0  2  0  0  0  0  0  0
  180.0070  178.7790  143.5300 C   0  0  0  0  0  2  0  0  0  0  0  0
  181.4670  179.0040  143.8000 C   0  0  0  0  0  3  0  0  0  0  0  0
  180.5620  178.8400  141.1630 N   0  0  0  0  0  2  0  0  0  0  0  0
  1 13  2  0  0  0  0
  2  7  1  0  0  0  0
  3 10  1  0  0  0  0
  4 18  1  6  0  0  0
  4 12  1  0  0  0  0
  4 22  1  0  0  0  0
  6 24  1  1  0  0  0
  6 11  1  0  0  0  0
  6 15  1  0  0  0  0
  7  5  2  0  0  0  0
  8 17  1  1  0  0  0
 10  1  1  0  0  0  0
 10  2  2  0  0  0  0
 11 19  1  0  0  0  0
 12 21  1  0  0  0  0
 13  5  1  0  0  0  0
 14 23  1  0  0  0  0
 14  3  2  0  0  0  0
 15  9  1  6  0  0  0
 15 20  1  0  0  0  0
 16  1  1  0  0  0  0
 17  2  1  0  0  0  0
 19  4  1  0  0  0  0
 20 14  1  0  0  0  0
 21  8  1  0  0  0  0
 21 26  1  1  0  0  0
 22  3  1  0  0  0  0
 22  8  1  0  0  0  0
 23 16  2  0  0  0  0
 25 24  1  0  0  0  0
 27 26  1  0  0  0  0
 29 27  1  0  0  0  0
 29 33  2  0  0  0  0
 30 28  1  6  0  0  0
 30 29  1  0  0  0  0
 31 32  1  0  0  0  0
 32 33  1  0  0  0  0
 34 30  1  0  0  0  0
 34 31  1  0  0  0  0
M  END
>  <MODEL>
5

>  <REMARK>
 VINA RESULT:      -7.7      3.366      7.987
  Name = 
  4 active torsions:
  status: ('A' for Active; 'I' for Inactive)
    1  A    between atoms: O_3  and  C_13
    2  A    between atoms: O_3  and  O_17
    3  A    between atoms: C_7  and  C_8
    4  A    between atoms: O_17  and  C_29
                            x       y       z     vdW  Elec       q    Type
                         _______ _______ _______ _____ _____    ______ ____

>  <TORSDO>
F 4

$$$$
=
 OpenBabel10252414533D

 34 39  0  0  1  0  0  0  0  0999 V2000
  186.8920  177.9660  137.4630 C   0  0  0  0  0  0  0  0  0  0  0  0
  186.9420  178.4620  139.8340 C   0  0  0  0  0  0  0  0  0  0  0  0
  184.7960  177.9440  138.7500 C   0  0  0  0  0  0  0  0  0  0  0  0
  182.8290  178.5330  140.4070 C   0  0  2  0  0  0  0  0  0  0  0  0
  188.9640  178.4620  138.5840 C   0  0  0  0  0  3  0  0  0  0  0  0
  180.8670  176.2750  138.7220 C   0  0  1  0  0  3  0  0  0  0  0  0
  188.2890  178.6280  139.7520 N   0  0  0  0  0  0  0  0  0  0  0  0
  184.9930  177.8780  141.2580 C   0  0  1  0  0  3  0  0  0  0  0  0
  182.0990  175.1880  136.9720 O   0  0  0  0  0  1  0  0  0  0  0  0
  186.2010  178.1240  138.6840 C   0  0  0  0  0  0  0  0  0  0  0  0
  180.8020  177.4440  139.5230 O   0  0  0  0  0  0  0  0  0  0  0  0
  182.9730  179.0810  141.8150 C   0  0  0  0  0  2  0  0  0  0  0  0
  188.2770  178.1290  137.4170 C   0  0  0  0  0  3  0  0  0  0  0  0
  184.1050  177.6410  137.5430 C   0  0  0  0  0  0  0  0  0  0  0  0
  182.2120  176.1150  138.0110 C   0  0  1  0  0  3  0  0  0  0  0  0
  186.1940  177.6550  136.3020 C   0  0  0  0  0  3  0  0  0  0  0  0
  186.2500  178.7420  141.1280 C   0  0  0  0  0  2  0  0  0  0  0  0
  182.4000  179.6870  139.5070 C   0  0  0  0  0  1  0  0  0  0  0  0
  181.8120  177.3810  140.5010 C   0  0  0  0  0  2  0  0  0  0  0  0
  182.6330  177.4580  137.4500 C   0  0  0  0  0  2  0  0  0  0  0  0
  184.1090  178.2930  142.4330 C   0  0  2  0  0  3  0  0  0  0  0  0
  184.1620  178.0200  140.0620 N   0  0  0  0  0  0  0  0  0  0  0  0
  184.8120  177.5000  136.3440 C   0  0  0  0  0  3  0  0  0  0  0  0
  180.4690  175.0130  139.4860 C   0  0  0  0  0  2  0  0  0  0  0  0
  179.2010  174.4220  138.8990 C   0  0  0  0  0  1  0  0  0  0  0  0
  184.7820  179.0670  143.3830 O   0  0  0  0  0  0  0  0  0  0  0  0
  184.8570  178.2820  144.4690 O   0  0  0  0  0  0  0  0  0  0  0  0
  185.3050  179.0880  147.0990 F   0  0  0  0  0  0  0  0  0  0  0  0
  186.0720  178.0460  145.1150 C   0  0  0  0  0  0  0  0  0  0  0  0
  186.1110  178.0710  146.6240 C   0  0  1  0  0  3  0  0  0  0  0  0
  188.3280  177.2220  146.5550 C   0  0  0  0  0  2  0  0  0  0  0  0
  188.4980  177.4960  145.0640 C   0  0  0  0  0  2  0  0  0  0  0  0
  187.1670  177.7310  144.4090 C   0  0  0  0  0  3  0  0  0  0  0  0
  187.4730  178.2530  147.1360 N   0  0  0  0  0  2  0  0  0  0  0  0
  1 10  1  0  0  0  0
  2 17  1  0  0  0  0
  3 22  1  0  0  0  0
  4 18  1  6  0  0  0
  4 19  1  0  0  0  0
  4 12  1  0  0  0  0
  5  7  2  0  0  0  0
  6 24  1  1  0  0  0
  6 11  1  0  0  0  0
  7  2  1  0  0  0  0
  8 17  1  6  0  0  0
  8 21  1  0  0  0  0
 10  3  1  0  0  0  0
 10  2  2  0  0  0  0
 11 19  1  0  0  0  0
 12 21  1  0  0  0  0
 13  1  2  0  0  0  0
 13  5  1  0  0  0  0
 14  3  2  0  0  0  0
 15  9  1  6  0  0  0
 15  6  1  0  0  0  0
 16 23  2  0  0  0  0
 16  1  1  0  0  0  0
 20 14  1  0  0  0  0
 20 15  1  0  0  0  0
 21 26  1  1  0  0  0
 22  4  1  0  0  0  0
 22  8  1  0  0  0  0
 23 14  1  0  0  0  0
 25 24  1  0  0  0  0
 26 27  1  0  0  0  0
 27 29  1  0  0  0  0
 29 30  1  0  0  0  0
 30 28  1  6  0  0  0
 30 34  1  0  0  0  0
 31 34  1  0  0  0  0
 32 31  1  0  0  0  0
 33 32  1  0  0  0  0
 33 29  2  0  0  0  0
M  END
>  <MODEL>
6

>  <REMARK>
 VINA RESULT:      -7.3      4.724      9.367
  Name = 
  4 active torsions:
  status: ('A' for Active; 'I' for Inactive)
    1  A    between atoms: O_3  and  C_13
    2  A    between atoms: O_3  and  O_17
    3  A    between atoms: C_7  and  C_8
    4  A    between atoms: O_17  and  C_29
                            x       y       z     vdW  Elec       q    Type
                         _______ _______ _______ _____ _____    ______ ____

>  <TORSDO>
F 4

$$$$
=
 OpenBabel10252414533D

 34 39  0  0  1  0  0  0  0  0999 V2000
  185.6040  178.5490  144.9130 C   0  0  0  0  0  0  0  0  0  0  0  0
  186.5020  177.5280  142.9080 C   0  0  0  0  0  0  0  0  0  0  0  0
  187.9700  177.8810  144.8480 C   0  0  0  0  0  0  0  0  0  0  0  0
  190.4740  177.4740  144.1200 C   0  0  2  0  0  0  0  0  0  0  0  0
  184.2110  178.1610  142.9890 C   0  0  0  0  0  3  0  0  0  0  0  0
  191.2110  176.7830  147.4010 C   0  0  1  0  0  3  0  0  0  0  0  0
  185.2760  177.6340  142.3280 N   0  0  0  0  0  0  0  0  0  0  0  0
  188.6690  176.3200  143.0020 C   0  0  1  0  0  3  0  0  0  0  0  0
  189.2460  176.8890  148.7750 O   0  0  0  0  0  1  0  0  0  0  0  0
  186.7010  177.9850  144.2260 C   0  0  0  0  0  0  0  0  0  0  0  0
  191.7910  177.2440  146.1910 O   0  0  0  0  0  0  0  0  0  0  0  0
  190.9530  177.0640  142.7390 C   0  0  0  0  0  2  0  0  0  0  0  0
  184.3570  178.6300  144.2940 C   0  0  0  0  0  3  0  0  0  0  0  0
  188.1110  178.3980  146.1670 C   0  0  0  0  0  0  0  0  0  0  0  0
  189.6980  177.0040  147.4590 C   0  0  1  0  0  3  0  0  0  0  0  0
  185.7660  179.0330  146.2060 C   0  0  0  0  0  3  0  0  0  0  0  0
  187.6500  177.0190  142.0990 C   0  0  0  0  0  2  0  0  0  0  0  0
  190.7770  178.9590  144.2890 C   0  0  0  0  0  1  0  0  0  0  0  0
  191.2040  176.5530  145.1140 C   0  0  0  0  0  2  0  0  0  0  0  0
  189.3850  178.3900  146.9330 C   0  0  0  0  0  2  0  0  0  0  0  0
  189.9780  176.0010  142.2800 C   0  0  2  0  0  3  0  0  0  0  0  0
  189.0310  177.1940  144.1180 N   0  0  0  0  0  0  0  0  0  0  0  0
  187.0110  178.9610  146.8230 C   0  0  0  0  0  3  0  0  0  0  0  0
  191.5920  175.3390  147.7250 C   0  0  0  0  0  2  0  0  0  0  0  0
  192.8590  175.3050  148.5590 C   0  0  0  0  0  1  0  0  0  0  0  0
  189.8560  176.0150  140.8870 O   0  0  0  0  0  0  0  0  0  0  0  0
  189.9570  177.3100  140.5510 O   0  0  0  0  0  0  0  0  0  0  0  0
  187.6610  178.8290  140.1150 F   0  0  0  0  0  0  0  0  0  0  0  0
  189.6030  177.7610  139.2780 C   0  0  0  0  0  0  0  0  0  0  0  0
  188.6530  178.9290  139.1570 C   0  0  1  0  0  3  0  0  0  0  0  0
  189.0990  179.0180  136.8260 C   0  0  0  0  0  2  0  0  0  0  0  0
  189.7810  177.6540  136.7980 C   0  0  0  0  0  2  0  0  0  0  0  0
  190.1540  177.2150  138.1850 C   0  0  0  0  0  3  0  0  0  0  0  0
  188.0380  179.0020  137.8280 N   0  0  0  0  0  2  0  0  0  0  0  0
  1 16  1  0  0  0  0
  2 10  1  0  0  0  0
  3 14  2  0  0  0  0
  4 18  1  1  0  0  0
  4 19  1  0  0  0  0
  5 13  2  0  0  0  0
  6 15  1  0  0  0  0
  6 24  1  6  0  0  0
  7  2  2  0  0  0  0
  7  5  1  0  0  0  0
  8 17  1  6  0  0  0
  8 22  1  0  0  0  0
 10  3  1  0  0  0  0
 10  1  2  0  0  0  0
 11  6  1  0  0  0  0
 12  4  1  0  0  0  0
 13  1  1  0  0  0  0
 14 23  1  0  0  0  0
 14 20  1  0  0  0  0
 15  9  1  1  0  0  0
 16 23  2  0  0  0  0
 17  2  1  0  0  0  0
 19 11  1  0  0  0  0
 20 15  1  0  0  0  0
 21 26  1  6  0  0  0
 21 12  1  0  0  0  0
 21  8  1  0  0  0  0
 22  4  1  0  0  0  0
 22  3  1  0  0  0  0
 24 25  1  0  0  0  0
 27 26  1  0  0  0  0
 29 27  1  0  0  0  0
 30 29  1  0  0  0  0
 30 28  1  1  0  0  0
 31 34  1  0  0  0  0
 32 31  1  0  0  0  0
 32 33  1  0  0  0  0
 33 29  2  0  0  0  0
 34 30  1  0  0  0  0
M  END
>  <MODEL>
7

>  <REMARK>
 VINA RESULT:      -7.2      1.886      2.144
  Name = 
  4 active torsions:
  status: ('A' for Active; 'I' for Inactive)
    1  A    between atoms: O_3  and  C_13
    2  A    between atoms: O_3  and  O_17
    3  A    between atoms: C_7  and  C_8
    4  A    between atoms: O_17  and  C_29
                            x       y       z     vdW  Elec       q    Type
                         _______ _______ _______ _____ _____    ______ ____

>  <TORSDO>
F 4

$$$$
=
 OpenBabel10252414533D

 34 39  0  0  1  0  0  0  0  0999 V2000
  190.1460  177.5530  139.8500 C   0  0  0  0  0  0  0  0  0  0  0  0
  187.8960  178.4490  139.8780 C   0  0  0  0  0  0  0  0  0  0  0  0
  188.8650  177.5470  141.9490 C   0  0  0  0  0  0  0  0  0  0  0  0
  186.9620  177.3090  143.7610 C   0  0  2  0  0  0  0  0  0  0  0  0
  189.1500  178.4670  137.8580 C   0  0  0  0  0  3  0  0  0  0  0  0
  189.3830  177.4980  146.1870 C   0  0  1  0  0  3  0  0  0  0  0  0
  188.0120  178.7330  138.5530 N   0  0  0  0  0  0  0  0  0  0  0  0
  186.8140  179.0020  142.0440 C   0  0  1  0  0  3  0  0  0  0  0  0
  191.5570  177.8240  145.2230 O   0  0  0  0  0  1  0  0  0  0  0  0
  188.9670  177.8480  140.5680 C   0  0  0  0  0  0  0  0  0  0  0  0
  188.0810  176.9960  145.9350 O   0  0  0  0  0  0  0  0  0  0  0  0
  185.5010  177.6830  143.5850 C   0  0  0  0  0  2  0  0  0  0  0  0
  190.2380  177.8700  138.4940 C   0  0  0  0  0  3  0  0  0  0  0  0
  189.9720  176.9050  142.5750 C   0  0  0  0  0  0  0  0  0  0  0  0
  190.2020  177.6980  144.9100 C   0  0  1  0  0  3  0  0  0  0  0  0
  191.2170  176.9390  140.4890 C   0  0  0  0  0  3  0  0  0  0  0  0
  186.5890  178.6880  140.5630 C   0  0  0  0  0  2  0  0  0  0  0  0
  187.0590  175.7890  143.6800 C   0  0  0  0  0  1  0  0  0  0  0  0
  187.3940  177.9080  145.1110 C   0  0  0  0  0  2  0  0  0  0  0  0
  189.9980  176.4990  144.0050 C   0  0  0  0  0  2  0  0  0  0  0  0
  185.5170  179.0070  142.8510 C   0  0  2  0  0  3  0  0  0  0  0  0
  187.6590  177.9740  142.6510 N   0  0  0  0  0  0  0  0  0  0  0  0
  191.1250  176.6140  141.8390 C   0  0  0  0  0  3  0  0  0  0  0  0
  189.3750  178.7490  147.0640 C   0  0  0  0  0  2  0  0  0  0  0  0
  188.9780  178.3930  148.4840 C   0  0  0  0  0  1  0  0  0  0  0  0
  184.3740  179.1420  142.0570 O   0  0  0  0  0  0  0  0  0  0  0  0
  183.3490  179.0020  142.9110 O   0  0  0  0  0  0  0  0  0  0  0  0
  181.2710  178.3920  144.6650 F   0  0  0  0  0  0  0  0  0  0  0  0
  182.0540  178.7470  142.4580 C   0  0  0  0  0  0  0  0  0  0  0  0
  180.9030  178.8820  143.4270 C   0  0  1  0  0  3  0  0  0  0  0  0
  179.3840  178.6430  141.6170 C   0  0  0  0  0  2  0  0  0  0  0  0
  180.4540  178.1510  140.6470 C   0  0  0  0  0  2  0  0  0  0  0  0
  181.8290  178.4580  141.1680 C   0  0  0  0  0  3  0  0  0  0  0  0
  179.7060  178.1750  142.9610 N   0  0  0  0  0  2  0  0  0  0  0  0
  1 16  2  0  0  0  0
  1 10  1  0  0  0  0
  2 17  1  0  0  0  0
  2 10  1  0  0  0  0
  3 14  1  0  0  0  0
  3 22  1  0  0  0  0
  4 18  1  6  0  0  0
  4 19  1  0  0  0  0
  5 13  2  0  0  0  0
  5  7  1  0  0  0  0
  6 24  1  6  0  0  0
  7  2  2  0  0  0  0
  8 17  1  6  0  0  0
  8 22  1  0  0  0  0
  8 21  1  0  0  0  0
 10  3  2  0  0  0  0
 11  6  1  0  0  0  0
 12  4  1  0  0  0  0
 13  1  1  0  0  0  0
 14 20  1  0  0  0  0
 15  9  1  1  0  0  0
 15  6  1  0  0  0  0
 16 23  1  0  0  0  0
 19 11  1  0  0  0  0
 20 15  1  0  0  0  0
 21 26  1  6  0  0  0
 21 12  1  0  0  0  0
 22  4  1  0  0  0  0
 23 14  2  0  0  0  0
 24 25  1  0  0  0  0
 26 27  1  0  0  0  0
 29 27  1  0  0  0  0
 29 30  1  0  0  0  0
 30 28  1  1  0  0  0
 31 34  1  0  0  0  0
 32 33  1  0  0  0  0
 32 31  1  0  0  0  0
 33 29  2  0  0  0  0
 34 30  1  0  0  0  0
M  END
>  <MODEL>
8

>  <REMARK>
 VINA RESULT:      -7.1      3.620      7.318
  Name = 
  4 active torsions:
  status: ('A' for Active; 'I' for Inactive)
    1  A    between atoms: O_3  and  C_13
    2  A    between atoms: O_3  and  O_17
    3  A    between atoms: C_7  and  C_8
    4  A    between atoms: O_17  and  C_29
                            x       y       z     vdW  Elec       q    Type
                         _______ _______ _______ _____ _____    ______ ____

>  <TORSDO>
F 4

$$$$
=
 OpenBabel10252414533D

 34 39  0  0  1  0  0  0  0  0999 V2000
  184.2180  178.7100  144.6380 C   0  0  0  0  0  0  0  0  0  0  0  0
  185.7770  178.6620  142.7840 C   0  0  0  0  0  0  0  0  0  0  0  0
  183.3620  178.7590  142.3330 C   0  0  0  0  0  0  0  0  0  0  0  0
  182.9440  178.2910  139.7700 C   0  0  2  0  0  0  0  0  0  0  0  0
  186.5940  178.6330  145.0170 C   0  0  0  0  0  3  0  0  0  0  0  0
  179.9790  180.0000  140.0420 C   0  0  1  0  0  3  0  0  0  0  0  0
  186.8040  178.6170  143.6740 N   0  0  0  0  0  0  0  0  0  0  0  0
  185.0110  179.3000  140.5100 C   0  0  1  0  0  3  0  0  0  0  0  0
  179.6750  180.8650  142.2600 O   0  0  0  0  0  1  0  0  0  0  0  0
  184.4460  178.7100  143.2450 C   0  0  0  0  0  0  0  0  0  0  0  0
  180.6320  178.9960  139.2830 O   0  0  0  0  0  0  0  0  0  0  0  0
  184.0070  178.0260  138.7190 C   0  0  0  0  0  2  0  0  0  0  0  0
  185.2950  178.6790  145.5240 C   0  0  0  0  0  3  0  0  0  0  0  0
  182.0410  178.7680  142.8660 C   0  0  0  0  0  0  0  0  0  0  0  0
  180.5640  180.1600  141.4470 C   0  0  1  0  0  3  0  0  0  0  0  0
  182.9180  178.7340  145.1310 C   0  0  0  0  0  3  0  0  0  0  0  0
  186.0720  178.5550  141.3240 C   0  0  0  0  0  2  0  0  0  0  0  0
  182.2900  176.9560  140.1080 C   0  0  0  0  0  1  0  0  0  0  0  0
  181.9930  179.3350  139.1570 C   0  0  0  0  0  2  0  0  0  0  0  0
  180.8090  178.7840  142.0350 C   0  0  0  0  0  2  0  0  0  0  0  0
  185.1100  179.0210  139.0110 C   0  0  2  0  0  3  0  0  0  0  0  0
  183.6740  178.8620  140.9110 N   0  0  0  0  0  0  0  0  0  0  0  0
  181.8420  178.7580  144.2500 C   0  0  0  0  0  3  0  0  0  0  0  0
  179.8900  181.3340  139.3040 C   0  0  0  0  0  2  0  0  0  0  0  0
  179.3170  181.1290  137.9150 C   0  0  0  0  0  1  0  0  0  0  0  0
  186.3520  178.5030  138.6280 O   0  0  0  0  0  0  0  0  0  0  0  0
  186.0930  177.7790  137.5290 O   0  0  0  0  0  0  0  0  0  0  0  0
  187.1180  178.5000  135.0390 F   0  0  0  0  0  0  0  0  0  0  0  0
  187.0900  177.0320  136.8990 C   0  0  0  0  0  0  0  0  0  0  0  0
  187.9190  177.6870  135.8190 C   0  0  1  0  0  3  0  0  0  0  0  0
  189.3590  175.7990  135.8140 C   0  0  0  0  0  2  0  0  0  0  0  0
  188.3990  174.9340  136.6250 C   0  0  0  0  0  2  0  0  0  0  0  0
  187.3540  175.7790  137.2950 C   0  0  0  0  0  3  0  0  0  0  0  0
  188.5880  176.7020  134.9650 N   0  0  0  0  0  2  0  0  0  0  0  0
  1 16  1  0  0  0  0
  1 13  2  0  0  0  0
  2 10  2  0  0  0  0
  2  7  1  0  0  0  0
  3 14  2  0  0  0  0
  3 10  1  0  0  0  0
  4 18  1  1  0  0  0
  4 22  1  0  0  0  0
  5 13  1  0  0  0  0
  6 24  1  6  0  0  0
  6 15  1  0  0  0  0
  7  5  2  0  0  0  0
  8 22  1  0  0  0  0
  8 17  1  1  0  0  0
 10  1  1  0  0  0  0
 11  6  1  0  0  0  0
 12 21  1  0  0  0  0
 12  4  1  0  0  0  0
 14 23  1  0  0  0  0
 15 20  1  0  0  0  0
 15  9  1  1  0  0  0
 17  2  1  0  0  0  0
 19 11  1  0  0  0  0
 19  4  1  0  0  0  0
 20 14  1  0  0  0  0
 21 26  1  1  0  0  0
 21  8  1  0  0  0  0
 22  3  1  0  0  0  0
 23 16  2  0  0  0  0
 25 24  1  0  0  0  0
 27 26  1  0  0  0  0
 29 33  2  0  0  0  0
 29 27  1  0  0  0  0
 30 28  1  6  0  0  0
 30 29  1  0  0  0  0
 31 32  1  0  0  0  0
 32 33  1  0  0  0  0
 34 31  1  0  0  0  0
 34 30  1  0  0  0  0
M  END
>  <MODEL>
9

>  <REMARK>
 VINA RESULT:      -7.1      4.465      7.828
  Name = 
  4 active torsions:
  status: ('A' for Active; 'I' for Inactive)
    1  A    between atoms: O_3  and  C_13
    2  A    between atoms: O_3  and  O_17
    3  A    between atoms: C_7  and  C_8
    4  A    between atoms: O_17  and  C_29
                            x       y       z     vdW  Elec       q    Type
                         _______ _______ _______ _____ _____    ______ ____

>  <TORSDO>
F 4

$$$$
