=
 OpenBabel10252414533D

 34 38  0  0  1  0  0  0  0  0999 V2000
  183.9210  179.0030  141.8040 C   0  0  0  0  0  0  0  0  0  0  0  0
  183.4190  178.7980  144.2080 C   0  0  0  0  0  0  0  0  0  0  0  0
  185.6940  178.3630  143.3830 C   0  0  0  0  0  0  0  0  0  0  0  0
  188.0180  176.5000  144.6510 C   0  0  0  0  0  2  0  0  0  0  0  0
  182.0830  179.1340  144.0180 O   0  0  0  0  0  1  0  0  0  0  0  0
  185.1600  178.1990  145.7600 C   0  0  0  0  0  3  0  0  0  0  0  0
  184.3330  178.7290  143.1280 C   0  0  0  0  0  0  0  0  0  0  0  0
  187.5580  177.8830  145.0990 C   0  0  1  0  0  3  0  0  0  0  0  0
  186.5700  178.2050  142.2650 C   0  0  0  0  0  0  0  0  0  0  0  0
  184.8440  178.8750  140.7660 C   0  0  0  0  0  3  0  0  0  0  0  0
  183.8370  178.5180  145.5020 C   0  0  0  0  0  3  0  0  0  0  0  0
  188.0130  176.3400  143.1290 C   0  0  0  0  0  2  0  0  0  0  0  0
  187.9910  177.6870  142.4050 C   0  0  1  0  0  3  0  0  0  0  0  0
  186.1100  178.1470  144.7330 C   0  0  0  0  0  0  0  0  0  0  0  0
  186.1120  178.4790  141.0140 N   0  0  0  0  0  0  0  0  0  0  0  0
  189.2630  178.4770  138.8960 C   0  0  0  0  0  0  0  0  0  0  0  0
  190.2670  177.5130  138.7550 C   0  0  0  0  0  3  0  0  0  0  0  0
  188.7670  177.6340  141.1190 C   0  0  0  0  0  0  0  0  0  0  0  0
  190.5240  176.6130  139.7940 C   0  0  0  0  0  3  0  0  0  0  0  0
  188.5150  178.5400  140.0760 C   0  0  0  0  0  3  0  0  0  0  0  0
  189.7760  176.6750  140.9740 C   0  0  0  0  0  3  0  0  0  0  0  0
  189.0160  179.3500  137.8900 F   0  0  0  0  0  0  0  0  0  0  0  0
  181.7580  178.6950  140.6250 C   0  0  0  0  0  1  0  0  0  0  0  0
  182.6060  179.3980  141.5240 O   0  0  0  0  0  0  0  0  0  0  0  0
  187.9070  178.1150  146.5660 C   0  0  0  0  0  2  0  0  0  0  0  0
  189.3260  178.3900  146.6920 N   0  0  0  0  0  2  0  0  0  0  0  0
  189.9750  177.1250  146.9860 C   0  0  0  0  0  2  0  0  0  0  0  0
  192.4400  175.5340  147.8910 O   0  0  0  0  0  0  0  0  0  0  0  0
  191.3890  177.1190  146.4260 C   0  0  1  0  0  3  0  0  0  0  0  0
  192.0650  175.8000  146.7200 C   0  0  0  0  0  0  0  0  0  0  0  0
  192.0430  175.1200  144.4300 C   0  0  0  0  0  3  0  0  0  0  0  0
  191.5990  176.4630  144.0280 C   0  0  0  0  0  3  0  0  0  0  0  0
  191.3220  177.3930  144.9470 C   0  0  0  0  0  3  0  0  0  0  0  0
  192.2630  174.8350  145.6790 N   0  0  0  0  0  0  0  0  0  0  0  0
  1  7  1  0  0  0  0
  2 11  1  0  0  0  0
  3 14  2  0  0  0  0
  4  8  1  0  0  0  0
  5  2  1  0  0  0  0
  7  3  1  0  0  0  0
  7  2  2  0  0  0  0
  8 25  1  1  0  0  0
  9 13  1  0  0  0  0
  9  3  1  0  0  0  0
 10 15  1  0  0  0  0
 10  1  2  0  0  0  0
 11  6  2  0  0  0  0
 12  4  1  0  0  0  0
 13 18  1  6  0  0  0
 13 12  1  0  0  0  0
 14  8  1  0  0  0  0
 14  6  1  0  0  0  0
 15  9  2  0  0  0  0
 16 20  1  0  0  0  0
 17 16  2  0  0  0  0
 17 19  1  0  0  0  0
 19 21  2  0  0  0  0
 20 18  2  0  0  0  0
 21 18  1  0  0  0  0
 22 16  1  0  0  0  0
 23 24  1  0  0  0  0
 24  1  1  0  0  0  0
 25 26  1  0  0  0  0
 26 27  1  0  0  0  0
 29 30  1  0  0  0  0
 29 27  1  6  0  0  0
 30 28  2  0  0  0  0
 31 34  2  0  0  0  0
 32 31  1  0  0  0  0
 32 33  2  0  0  0  0
 33 29  1  0  0  0  0
 34 30  1  0  0  0  0
M  END
>  <MODEL>
1

>  <REMARK>
 VINA RESULT:      -9.6      0.000      0.000
  Name = 
  6 active torsions:
  status: ('A' for Active; 'I' for Inactive)
    1  A    between atoms: C_1  and  O_19
    2  A    between atoms: C_3  and  C_13
    3  A    between atoms: C_3  and  N_17
    4  A    between atoms: C_12  and  C_28
    5  A    between atoms: N_17  and  C_29
    6  A    between atoms: C_18  and  C_29
                            x       y       z     vdW  Elec       q    Type
                         _______ _______ _______ _____ _____    ______ ____

>  <TORSDO>
F 6

$$$$
=
 OpenBabel10252414533D

 34 38  0  0  1  0  0  0  0  0999 V2000
  189.8300  176.9710  145.6230 C   0  0  0  0  0  0  0  0  0  0  0  0
  187.6410  177.7050  146.4850 C   0  0  0  0  0  0  0  0  0  0  0  0
  188.0160  177.5310  144.0610 C   0  0  0  0  0  0  0  0  0  0  0  0
  186.5550  179.1060  141.6380 C   0  0  0  0  0  2  0  0  0  0  0  0
  188.0620  177.6060  147.8060 O   0  0  0  0  0  1  0  0  0  0  0  0
  185.8530  178.2270  144.9570 C   0  0  0  0  0  3  0  0  0  0  0  0
  188.5000  177.3970  145.4010 C   0  0  0  0  0  0  0  0  0  0  0  0
  186.0260  177.9440  142.4720 C   0  0  1  0  0  3  0  0  0  0  0  0
  188.9320  177.3090  142.9870 C   0  0  0  0  0  0  0  0  0  0  0  0
  190.6550  176.7260  144.5260 C   0  0  0  0  0  3  0  0  0  0  0  0
  186.3400  178.1300  146.2510 C   0  0  0  0  0  3  0  0  0  0  0  0
  188.0510  178.9830  141.3360 C   0  0  0  0  0  2  0  0  0  0  0  0
  188.5660  177.5570  141.5340 C   0  0  1  0  0  3  0  0  0  0  0  0
  186.6520  177.9050  143.8530 C   0  0  0  0  0  0  0  0  0  0  0  0
  190.2010  176.9060  143.2660 N   0  0  0  0  0  0  0  0  0  0  0  0
  191.9920  177.1680  139.9000 C   0  0  0  0  0  0  0  0  0  0  0  0
  191.6430  176.5470  138.6960 C   0  0  0  0  0  3  0  0  0  0  0  0
  189.6530  177.2230  140.5500 C   0  0  0  0  0  0  0  0  0  0  0  0
  190.3030  176.2610  138.4210 C   0  0  0  0  0  3  0  0  0  0  0  0
  191.0010  177.5040  140.8270 C   0  0  0  0  0  3  0  0  0  0  0  0
  189.3100  176.5960  139.3470 C   0  0  0  0  0  3  0  0  0  0  0  0
  193.2910  177.4440  140.1680 F   0  0  0  0  0  0  0  0  0  0  0  0
  191.6050  176.2400  147.1970 C   0  0  0  0  0  1  0  0  0  0  0  0
  190.3250  176.7950  146.9220 O   0  0  0  0  0  0  0  0  0  0  0  0
  184.5020  177.9210  142.4520 C   0  0  0  0  0  2  0  0  0  0  0  0
  184.0190  178.6380  141.2850 N   0  0  0  0  0  2  0  0  0  0  0  0
  183.2920  177.6770  140.4730 C   0  0  0  0  0  2  0  0  0  0  0  0
  184.2960  180.2790  139.1900 O   0  0  0  0  0  0  0  0  0  0  0  0
  183.3540  178.0790  139.0070 C   0  0  1  0  0  3  0  0  0  0  0  0
  184.4480  179.0960  138.7870 C   0  0  0  0  0  0  0  0  0  0  0  0
  185.8180  177.5660  137.5690 C   0  0  0  0  0  3  0  0  0  0  0  0
  184.7150  176.5930  137.5370 C   0  0  0  0  0  3  0  0  0  0  0  0
  183.5700  176.8410  138.1780 C   0  0  0  0  0  3  0  0  0  0  0  0
  185.6730  178.7220  138.1430 N   0  0  0  0  0  0  0  0  0  0  0  0
  1 24  1  0  0  0  0
  2  5  1  0  0  0  0
  3  7  1  0  0  0  0
  4  8  1  0  0  0  0
  6 11  2  0  0  0  0
  7  1  1  0  0  0  0
  7  2  2  0  0  0  0
  8 25  1  1  0  0  0
  8 14  1  0  0  0  0
  9 15  2  0  0  0  0
  9  3  1  0  0  0  0
 10  1  2  0  0  0  0
 11  2  1  0  0  0  0
 12 13  1  0  0  0  0
 12  4  1  0  0  0  0
 13 18  1  6  0  0  0
 13  9  1  0  0  0  0
 14  3  2  0  0  0  0
 14  6  1  0  0  0  0
 15 10  1  0  0  0  0
 16 22  1  0  0  0  0
 16 20  1  0  0  0  0
 17 16  2  0  0  0  0
 18 20  2  0  0  0  0
 19 17  1  0  0  0  0
 19 21  2  0  0  0  0
 21 18  1  0  0  0  0
 24 23  1  0  0  0  0
 26 25  1  0  0  0  0
 27 26  1  0  0  0  0
 29 27  1  1  0  0  0
 30 29  1  0  0  0  0
 30 28  2  0  0  0  0
 31 34  2  0  0  0  0
 32 31  1  0  0  0  0
 32 33  2  0  0  0  0
 33 29  1  0  0  0  0
 34 30  1  0  0  0  0
M  END
>  <MODEL>
2

>  <REMARK>
 VINA RESULT:      -9.4      2.266      6.820
  Name = 
  6 active torsions:
  status: ('A' for Active; 'I' for Inactive)
    1  A    between atoms: C_1  and  O_19
    2  A    between atoms: C_3  and  C_13
    3  A    between atoms: C_3  and  N_17
    4  A    between atoms: C_12  and  C_28
    5  A    between atoms: N_17  and  C_29
    6  A    between atoms: C_18  and  C_29
                            x       y       z     vdW  Elec       q    Type
                         _______ _______ _______ _____ _____    ______ ____

>  <TORSDO>
F 6

$$$$
=
 OpenBabel10252414533D

 34 38  0  0  1  0  0  0  0  0999 V2000
  190.9400  176.8940  145.6910 C   0  0  0  0  0  0  0  0  0  0  0  0
  188.8140  177.5720  146.7360 C   0  0  0  0  0  0  0  0  0  0  0  0
  188.9790  177.3820  144.2900 C   0  0  0  0  0  0  0  0  0  0  0  0
  187.2640  178.8860  141.9920 C   0  0  0  0  0  2  0  0  0  0  0  0
  189.3520  177.5000  148.0160 O   0  0  0  0  0  1  0  0  0  0  0  0
  186.8830  178.0220  145.3680 C   0  0  0  0  0  3  0  0  0  0  0  0
  189.5840  177.2770  145.5840 C   0  0  0  0  0  0  0  0  0  0  0  0
  186.8460  177.7180  142.8790 C   0  0  1  0  0  3  0  0  0  0  0  0
  189.8040  177.1760  143.1420 C   0  0  0  0  0  0  0  0  0  0  0  0
  191.6730  176.6620  144.5270 C   0  0  0  0  0  3  0  0  0  0  0  0
  187.4840  177.9550  146.6140 C   0  0  0  0  0  3  0  0  0  0  0  0
  188.7300  178.8050  141.5600 C   0  0  0  0  0  2  0  0  0  0  0  0
  189.3050  177.3970  141.7250 C   0  0  1  0  0  3  0  0  0  0  0  0
  187.5920  177.7130  144.2010 C   0  0  0  0  0  0  0  0  0  0  0  0
  191.1050  176.8150  143.3110 N   0  0  0  0  0  0  0  0  0  0  0  0
  190.9010  176.1100  138.5070 C   0  0  0  0  0  0  0  0  0  0  0  0
  192.2160  176.5610  138.6650 C   0  0  0  0  0  3  0  0  0  0  0  0
  190.3110  177.0850  140.6520 C   0  0  0  0  0  0  0  0  0  0  0  0
  192.5780  177.2750  139.8110 C   0  0  0  0  0  3  0  0  0  0  0  0
  189.9490  176.3720  139.4960 C   0  0  0  0  0  3  0  0  0  0  0  0
  191.6260  177.5380  140.8010 C   0  0  0  0  0  3  0  0  0  0  0  0
  190.5500  175.4210  137.3950 F   0  0  0  0  0  0  0  0  0  0  0  0
  192.3710  175.6360  147.2820 C   0  0  0  0  0  1  0  0  0  0  0  0
  191.5530  176.7480  146.9430 O   0  0  0  0  0  0  0  0  0  0  0  0
  185.3270  177.6480  142.9940 C   0  0  0  0  0  2  0  0  0  0  0  0
  184.7430  178.8740  142.4800 N   0  0  0  0  0  2  0  0  0  0  0  0
  183.3530  178.5820  142.1770 C   0  0  0  0  0  2  0  0  0  0  0  0
  180.8970  177.5120  140.6780 O   0  0  0  0  0  0  0  0  0  0  0  0
  183.2170  178.1290  140.7310 C   0  0  1  0  0  3  0  0  0  0  0  0
  181.7900  178.2950  140.2620 C   0  0  0  0  0  0  0  0  0  0  0  0
  182.3390  180.0860  138.7800 C   0  0  0  0  0  3  0  0  0  0  0  0
  183.7730  179.8420  139.0050 C   0  0  0  0  0  3  0  0  0  0  0  0
  184.1770  178.9230  139.8850 C   0  0  0  0  0  3  0  0  0  0  0  0
  181.4380  179.3540  139.3620 N   0  0  0  0  0  0  0  0  0  0  0  0
  1 24  1  0  0  0  0
  2  5  1  0  0  0  0
  3  7  1  0  0  0  0
  4  8  1  0  0  0  0
  6 11  2  0  0  0  0
  7  1  1  0  0  0  0
  7  2  2  0  0  0  0
  8 25  1  1  0  0  0
  8 14  1  0  0  0  0
  9 15  2  0  0  0  0
  9  3  1  0  0  0  0
 10  1  2  0  0  0  0
 11  2  1  0  0  0  0
 12 13  1  0  0  0  0
 12  4  1  0  0  0  0
 13 18  1  6  0  0  0
 13  9  1  0  0  0  0
 14  3  2  0  0  0  0
 14  6  1  0  0  0  0
 15 10  1  0  0  0  0
 16 17  2  0  0  0  0
 16 20  1  0  0  0  0
 17 19  1  0  0  0  0
 18 21  1  0  0  0  0
 19 21  2  0  0  0  0
 20 18  2  0  0  0  0
 22 16  1  0  0  0  0
 24 23  1  0  0  0  0
 26 25  1  0  0  0  0
 27 26  1  0  0  0  0
 29 27  1  1  0  0  0
 30 28  2  0  0  0  0
 30 29  1  0  0  0  0
 31 32  1  0  0  0  0
 31 34  2  0  0  0  0
 32 33  2  0  0  0  0
 33 29  1  0  0  0  0
 34 30  1  0  0  0  0
M  END
>  <MODEL>
3

>  <REMARK>
 VINA RESULT:      -9.1      1.952      7.268
  Name = 
  6 active torsions:
  status: ('A' for Active; 'I' for Inactive)
    1  A    between atoms: C_1  and  O_19
    2  A    between atoms: C_3  and  C_13
    3  A    between atoms: C_3  and  N_17
    4  A    between atoms: C_12  and  C_28
    5  A    between atoms: N_17  and  C_29
    6  A    between atoms: C_18  and  C_29
                            x       y       z     vdW  Elec       q    Type
                         _______ _______ _______ _____ _____    ______ ____

>  <TORSDO>
F 6

$$$$
=
 OpenBabel10252414533D

 34 38  0  0  1  0  0  0  0  0999 V2000
  185.1000  178.7260  139.3610 C   0  0  0  0  0  0  0  0  0  0  0  0
  187.3420  178.3660  140.3190 C   0  0  0  0  0  0  0  0  0  0  0  0
  185.3670  178.3990  141.7840 C   0  0  0  0  0  0  0  0  0  0  0  0
  185.1530  179.1420  144.9280 C   0  0  0  0  0  2  0  0  0  0  0  0
  187.9540  178.4640  139.0750 O   0  0  0  0  0  1  0  0  0  0  0  0
  187.6030  178.0170  142.6880 C   0  0  0  0  0  3  0  0  0  0  0  0
  185.9400  178.4940  140.4750 C   0  0  0  0  0  0  0  0  0  0  0  0
  185.6770  177.8610  144.2870 C   0  0  1  0  0  3  0  0  0  0  0  0
  183.9640  178.6300  141.9240 C   0  0  0  0  0  0  0  0  0  0  0  0
  183.7310  178.8950  139.5680 C   0  0  0  0  0  3  0  0  0  0  0  0
  188.1540  178.1470  141.4240 C   0  0  0  0  0  3  0  0  0  0  0  0
  183.9470  179.7220  144.1850 C   0  0  0  0  0  2  0  0  0  0  0  0
  183.2750  178.6920  143.2760 C   0  0  1  0  0  3  0  0  0  0  0  0
  186.2200  178.1060  142.8910 C   0  0  0  0  0  0  0  0  0  0  0  0
  183.2100  178.8540  140.8140 N   0  0  0  0  0  0  0  0  0  0  0  0
  179.8000  179.7080  142.0750 C   0  0  0  0  0  0  0  0  0  0  0  0
  179.0070  179.2340  143.1260 C   0  0  0  0  0  3  0  0  0  0  0  0
  181.7880  178.9010  143.2120 C   0  0  0  0  0  0  0  0  0  0  0  0
  179.6010  178.5920  144.2150 C   0  0  0  0  0  3  0  0  0  0  0  0
  181.1870  179.5410  142.1150 C   0  0  0  0  0  3  0  0  0  0  0  0
  180.9890  178.4240  144.2570 C   0  0  0  0  0  3  0  0  0  0  0  0
  179.2230  180.3280  141.0170 F   0  0  0  0  0  0  0  0  0  0  0  0
  185.4520  177.7530  137.1050 C   0  0  0  0  0  1  0  0  0  0  0  0
  185.6230  178.7900  138.0630 O   0  0  0  0  0  0  0  0  0  0  0  0
  186.6300  177.1400  145.2340 C   0  0  0  0  0  2  0  0  0  0  0  0
  187.6230  178.0750  145.7320 N   0  0  0  0  0  2  0  0  0  0  0  0
  188.6030  177.2950  146.4680 C   0  0  0  0  0  2  0  0  0  0  0  0
  191.2850  176.4470  147.6960 O   0  0  0  0  0  0  0  0  0  0  0  0
  189.9950  177.8680  146.2540 C   0  0  1  0  0  3  0  0  0  0  0  0
  191.0430  176.8120  146.5160 C   0  0  0  0  0  0  0  0  0  0  0  0
  191.6580  176.6520  144.2140 C   0  0  0  0  0  3  0  0  0  0  0  0
  190.8310  177.8290  143.9040 C   0  0  0  0  0  3  0  0  0  0  0  0
  190.0850  178.4050  144.8500 C   0  0  0  0  0  3  0  0  0  0  0  0
  191.7520  176.2030  145.4300 N   0  0  0  0  0  0  0  0  0  0  0  0
  1 10  2  0  0  0  0
  1  7  1  0  0  0  0
  2  7  2  0  0  0  0
  2 11  1  0  0  0  0
  3  9  1  0  0  0  0
  3 14  2  0  0  0  0
  5  2  1  0  0  0  0
  6 14  1  0  0  0  0
  7  3  1  0  0  0  0
  8  4  1  0  0  0  0
  8 25  1  1  0  0  0
  9 13  1  0  0  0  0
 10 15  1  0  0  0  0
 11  6  2  0  0  0  0
 12  4  1  0  0  0  0
 13 18  1  6  0  0  0
 13 12  1  0  0  0  0
 14  8  1  0  0  0  0
 15  9  2  0  0  0  0
 16 20  2  0  0  0  0
 16 17  1  0  0  0  0
 17 19  2  0  0  0  0
 18 21  2  0  0  0  0
 19 21  1  0  0  0  0
 20 18  1  0  0  0  0
 22 16  1  0  0  0  0
 23 24  1  0  0  0  0
 24  1  1  0  0  0  0
 25 26  1  0  0  0  0
 26 27  1  0  0  0  0
 29 27  1  6  0  0  0
 29 30  1  0  0  0  0
 30 28  2  0  0  0  0
 31 34  2  0  0  0  0
 32 31  1  0  0  0  0
 32 33  2  0  0  0  0
 33 29  1  0  0  0  0
 34 30  1  0  0  0  0
M  END
>  <MODEL>
4

>  <REMARK>
 VINA RESULT:      -9.0      2.804      5.516
  Name = 
  6 active torsions:
  status: ('A' for Active; 'I' for Inactive)
    1  A    between atoms: C_1  and  O_19
    2  A    between atoms: C_3  and  C_13
    3  A    between atoms: C_3  and  N_17
    4  A    between atoms: C_12  and  C_28
    5  A    between atoms: N_17  and  C_29
    6  A    between atoms: C_18  and  C_29
                            x       y       z     vdW  Elec       q    Type
                         _______ _______ _______ _____ _____    ______ ____

>  <TORSDO>
F 6

$$$$
=
 OpenBabel10252414533D

 34 38  0  0  1  0  0  0  0  0999 V2000
  189.2800  177.6880  140.6070 C   0  0  0  0  0  0  0  0  0  0  0  0
  187.0300  178.3160  139.8220 C   0  0  0  0  0  0  0  0  0  0  0  0
  187.5030  178.1870  142.2320 C   0  0  0  0  0  0  0  0  0  0  0  0
  185.4800  177.6230  144.6950 C   0  0  0  0  0  2  0  0  0  0  0  0
  187.3990  178.2000  138.4870 O   0  0  0  0  0  1  0  0  0  0  0  0
  185.2960  178.8340  141.4120 C   0  0  0  0  0  3  0  0  0  0  0  0
  187.9450  178.0660  140.8750 C   0  0  0  0  0  0  0  0  0  0  0  0
  185.6640  178.9050  143.8910 C   0  0  1  0  0  3  0  0  0  0  0  0
  188.4170  177.8350  143.2720 C   0  0  0  0  0  0  0  0  0  0  0  0
  190.1310  177.4040  141.6750 C   0  0  0  0  0  3  0  0  0  0  0  0
  185.7190  178.6790  140.1020 C   0  0  0  0  0  3  0  0  0  0  0  0
  186.7990  176.8870  144.9430 C   0  0  0  0  0  2  0  0  0  0  0  0
  188.0150  177.7920  144.7360 C   0  0  1  0  0  3  0  0  0  0  0  0
  186.1680  178.6280  142.4870 C   0  0  0  0  0  0  0  0  0  0  0  0
  189.6880  177.4730  142.9490 N   0  0  0  0  0  0  0  0  0  0  0  0
  191.3130  176.4780  146.1320 C   0  0  0  0  0  0  0  0  0  0  0  0
  191.1940  176.8400  147.4780 C   0  0  0  0  0  3  0  0  0  0  0  0
  189.1300  177.4400  145.6810 C   0  0  0  0  0  0  0  0  0  0  0  0
  190.0480  177.5030  147.9250 C   0  0  0  0  0  3  0  0  0  0  0  0
  190.2850  176.7790  145.2330 C   0  0  0  0  0  3  0  0  0  0  0  0
  189.0190  177.8040  147.0280 C   0  0  0  0  0  3  0  0  0  0  0  0
  192.4250  175.8370  145.6980 F   0  0  0  0  0  0  0  0  0  0  0  0
  190.5330  176.5000  138.8230 C   0  0  0  0  0  1  0  0  0  0  0  0
  189.7540  177.5940  139.2920 O   0  0  0  0  0  0  0  0  0  0  0  0
  184.4100  179.7710  143.9680 C   0  0  0  0  0  2  0  0  0  0  0  0
  183.2850  178.9610  144.3980 N   0  0  0  0  0  2  0  0  0  0  0  0
  182.1160  179.4580  143.6950 C   0  0  0  0  0  2  0  0  0  0  0  0
  179.6810  177.7050  144.3440 O   0  0  0  0  0  0  0  0  0  0  0  0
  181.4780  178.3410  142.8840 C   0  0  1  0  0  3  0  0  0  0  0  0
  180.0160  178.2050  143.2380 C   0  0  0  0  0  0  0  0  0  0  0  0
  179.2830  179.0350  141.1220 C   0  0  0  0  0  3  0  0  0  0  0  0
  180.6630  178.9820  140.6150 C   0  0  0  0  0  3  0  0  0  0  0  0
  181.6710  178.6380  141.4210 C   0  0  0  0  0  3  0  0  0  0  0  0
  179.0020  178.6620  142.3340 N   0  0  0  0  0  0  0  0  0  0  0  0
  1  7  2  0  0  0  0
  1 10  1  0  0  0  0
  2 11  2  0  0  0  0
  2  7  1  0  0  0  0
  3 14  1  0  0  0  0
  3  9  2  0  0  0  0
  4 12  1  0  0  0  0
  5  2  1  0  0  0  0
  6 14  2  0  0  0  0
  7  3  1  0  0  0  0
  8 25  1  6  0  0  0
  8  4  1  0  0  0  0
  9 13  1  0  0  0  0
 10 15  2  0  0  0  0
 11  6  1  0  0  0  0
 13 12  1  0  0  0  0
 13 18  1  1  0  0  0
 14  8  1  0  0  0  0
 15  9  1  0  0  0  0
 16 17  1  0  0  0  0
 17 19  2  0  0  0  0
 18 21  2  0  0  0  0
 20 18  1  0  0  0  0
 20 16  2  0  0  0  0
 21 19  1  0  0  0  0
 22 16  1  0  0  0  0
 23 24  1  0  0  0  0
 24  1  1  0  0  0  0
 25 26  1  0  0  0  0
 27 26  1  0  0  0  0
 29 30  1  0  0  0  0
 29 27  1  1  0  0  0
 30 28  2  0  0  0  0
 31 34  2  0  0  0  0
 32 31  1  0  0  0  0
 32 33  2  0  0  0  0
 33 29  1  0  0  0  0
 34 30  1  0  0  0  0
M  END
>  <MODEL>
5

>  <REMARK>
 VINA RESULT:      -8.9      3.076      7.749
  Name = 
  6 active torsions:
  status: ('A' for Active; 'I' for Inactive)
    1  A    between atoms: C_1  and  O_19
    2  A    between atoms: C_3  and  C_13
    3  A    between atoms: C_3  and  N_17
    4  A    between atoms: C_12  and  C_28
    5  A    between atoms: N_17  and  C_29
    6  A    between atoms: C_18  and  C_29
                            x       y       z     vdW  Elec       q    Type
                         _______ _______ _______ _____ _____    ______ ____

>  <TORSDO>
F 6

$$$$
=
 OpenBabel10252414533D

 34 38  0  0  1  0  0  0  0  0999 V2000
  191.2320  177.3490  140.7280 C   0  0  0  0  0  0  0  0  0  0  0  0
  189.3570  177.7800  139.1890 C   0  0  0  0  0  0  0  0  0  0  0  0
  188.9960  177.8480  141.6200 C   0  0  0  0  0  0  0  0  0  0  0  0
  186.2830  177.3310  143.3100 C   0  0  0  0  0  2  0  0  0  0  0  0
  190.1570  177.5950  138.0670 O   0  0  0  0  0  1  0  0  0  0  0  0
  187.1710  178.2980  140.0600 C   0  0  0  0  0  3  0  0  0  0  0  0
  189.8720  177.6610  140.5030 C   0  0  0  0  0  0  0  0  0  0  0  0
  186.6810  178.5640  142.5050 C   0  0  1  0  0  3  0  0  0  0  0  0
  189.5180  177.6260  142.9310 C   0  0  0  0  0  0  0  0  0  0  0  0
  191.6840  177.1930  142.0380 C   0  0  0  0  0  3  0  0  0  0  0  0
  188.0160  178.0790  138.9840 C   0  0  0  0  0  3  0  0  0  0  0  0
  187.4670  176.6970  144.0440 C   0  0  0  0  0  2  0  0  0  0  0  0
  188.6490  177.6600  144.1760 C   0  0  1  0  0  3  0  0  0  0  0  0
  187.6380  178.2220  141.3780 C   0  0  0  0  0  0  0  0  0  0  0  0
  190.8360  177.3220  143.0820 N   0  0  0  0  0  0  0  0  0  0  0  0
  191.3280  176.6490  146.6970 C   0  0  0  0  0  0  0  0  0  0  0  0
  190.7520  177.0980  147.8900 C   0  0  0  0  0  3  0  0  0  0  0  0
  189.3920  177.4440  145.4640 C   0  0  0  0  0  0  0  0  0  0  0  0
  189.5020  177.7220  147.8720 C   0  0  0  0  0  3  0  0  0  0  0  0
  190.6520  176.8220  145.4860 C   0  0  0  0  0  3  0  0  0  0  0  0
  188.8250  177.8960  146.6600 C   0  0  0  0  0  3  0  0  0  0  0  0
  192.5410  176.0460  146.7150 F   0  0  0  0  0  0  0  0  0  0  0  0
  193.5370  177.2140  139.8160 C   0  0  0  0  0  1  0  0  0  0  0  0
  192.1240  177.1940  139.6580 O   0  0  0  0  0  0  0  0  0  0  0  0
  185.4450  179.3530  142.0860 C   0  0  0  0  0  2  0  0  0  0  0  0
  184.2510  178.5910  142.4020 N   0  0  0  0  0  2  0  0  0  0  0  0
  183.7540  178.0500  141.1490 C   0  0  0  0  0  2  0  0  0  0  0  0
  184.1580  180.2500  139.0480 O   0  0  0  0  0  0  0  0  0  0  0  0
  182.7420  179.0030  140.5320 C   0  0  1  0  0  3  0  0  0  0  0  0
  183.2020  179.4400  139.1610 C   0  0  0  0  0  0  0  0  0  0  0  0
  181.4870  178.2110  138.0410 C   0  0  0  0  0  3  0  0  0  0  0  0
  180.8380  177.9280  139.3310 C   0  0  0  0  0  3  0  0  0  0  0  0
  181.4040  178.3150  140.4770 C   0  0  0  0  0  3  0  0  0  0  0  0
  182.5740  178.9200  137.9820 N   0  0  0  0  0  0  0  0  0  0  0  0
  1 10  1  0  0  0  0
  2  7  1  0  0  0  0
  3  9  2  0  0  0  0
  4 12  1  0  0  0  0
  5  2  1  0  0  0  0
  6 14  2  0  0  0  0
  7  1  2  0  0  0  0
  7  3  1  0  0  0  0
  8 25  1  6  0  0  0
  8  4  1  0  0  0  0
  9 15  1  0  0  0  0
  9 13  1  0  0  0  0
 10 15  2  0  0  0  0
 11  2  2  0  0  0  0
 11  6  1  0  0  0  0
 12 13  1  0  0  0  0
 13 18  1  1  0  0  0
 14  3  1  0  0  0  0
 14  8  1  0  0  0  0
 16 22  1  0  0  0  0
 16 17  1  0  0  0  0
 18 20  1  0  0  0  0
 18 21  2  0  0  0  0
 19 17  2  0  0  0  0
 20 16  2  0  0  0  0
 21 19  1  0  0  0  0
 24 23  1  0  0  0  0
 24  1  1  0  0  0  0
 25 26  1  0  0  0  0
 27 26  1  0  0  0  0
 28 30  2  0  0  0  0
 29 27  1  6  0  0  0
 30 29  1  0  0  0  0
 31 32  1  0  0  0  0
 32 33  2  0  0  0  0
 33 29  1  0  0  0  0
 34 31  2  0  0  0  0
 34 30  1  0  0  0  0
M  END
>  <MODEL>
6

>  <REMARK>
 VINA RESULT:      -8.9      3.223      8.246
  Name = 
  6 active torsions:
  status: ('A' for Active; 'I' for Inactive)
    1  A    between atoms: C_1  and  O_19
    2  A    between atoms: C_3  and  C_13
    3  A    between atoms: C_3  and  N_17
    4  A    between atoms: C_12  and  C_28
    5  A    between atoms: N_17  and  C_29
    6  A    between atoms: C_18  and  C_29
                            x       y       z     vdW  Elec       q    Type
                         _______ _______ _______ _____ _____    ______ ____

>  <TORSDO>
F 6

$$$$
=
 OpenBabel10252414533D

 34 38  0  0  1  0  0  0  0  0999 V2000
  189.6750  177.1160  145.7360 C   0  0  0  0  0  0  0  0  0  0  0  0
  187.5010  177.8010  146.6720 C   0  0  0  0  0  0  0  0  0  0  0  0
  187.7870  177.6050  144.2370 C   0  0  0  0  0  0  0  0  0  0  0  0
  186.1930  179.1060  141.8530 C   0  0  0  0  0  2  0  0  0  0  0  0
  187.9740  177.7330  147.9770 O   0  0  0  0  0  1  0  0  0  0  0  0
  185.6420  178.2530  145.2080 C   0  0  0  0  0  3  0  0  0  0  0  0
  188.3260  177.5020  145.5600 C   0  0  0  0  0  0  0  0  0  0  0  0
  185.7280  177.9410  142.7210 C   0  0  1  0  0  3  0  0  0  0  0  0
  188.6680  177.3930  143.1320 C   0  0  0  0  0  0  0  0  0  0  0  0
  190.4640  176.8780  144.6110 C   0  0  0  0  0  3  0  0  0  0  0  0
  186.1800  178.1880  146.4820 C   0  0  0  0  0  3  0  0  0  0  0  0
  187.6780  179.0200  141.4950 C   0  0  0  0  0  2  0  0  0  0  0  0
  188.2410  177.6110  141.6910 C   0  0  1  0  0  3  0  0  0  0  0  0
  186.4070  177.9380  144.0780 C   0  0  0  0  0  0  0  0  0  0  0  0
  189.9570  177.0280  143.3670 N   0  0  0  0  0  0  0  0  0  0  0  0
  191.6240  177.1620  139.9870 C   0  0  0  0  0  0  0  0  0  0  0  0
  191.2290  176.6510  138.7450 C   0  0  0  0  0  3  0  0  0  0  0  0
  189.2970  177.2930  140.6710 C   0  0  0  0  0  0  0  0  0  0  0  0
  189.8740  176.4580  138.4670 C   0  0  0  0  0  3  0  0  0  0  0  0
  190.6620  177.4810  140.9490 C   0  0  0  0  0  3  0  0  0  0  0  0
  188.9100  176.7770  139.4290 C   0  0  0  0  0  3  0  0  0  0  0  0
  192.9390  177.3460  140.2560 F   0  0  0  0  0  0  0  0  0  0  0  0
  191.5340  176.4700  147.2490 C   0  0  0  0  0  1  0  0  0  0  0  0
  190.2240  176.9710  147.0170 O   0  0  0  0  0  0  0  0  0  0  0  0
  184.2050  177.8760  142.7600 C   0  0  0  0  0  2  0  0  0  0  0  0
  183.6530  179.1750  142.4200 N   0  0  0  0  0  2  0  0  0  0  0  0
  182.3600  179.2670  143.0750 C   0  0  0  0  0  2  0  0  0  0  0  0
  179.7340  177.9010  143.8880 O   0  0  0  0  0  0  0  0  0  0  0  0
  181.2870  178.6270  142.2070 C   0  0  1  0  0  3  0  0  0  0  0  0
  179.9510  178.6650  142.9110 C   0  0  0  0  0  0  0  0  0  0  0  0
  179.0430  180.2750  141.4000 C   0  0  0  0  0  3  0  0  0  0  0  0
  180.2190  180.1290  140.5270 C   0  0  0  0  0  3  0  0  0  0  0  0
  181.2420  179.3500  140.8870 C   0  0  0  0  0  3  0  0  0  0  0  0
  178.9330  179.5820  142.4930 N   0  0  0  0  0  0  0  0  0  0  0  0
  1 24  1  0  0  0  0
  2  5  1  0  0  0  0
  3  7  1  0  0  0  0
  4  8  1  0  0  0  0
  6 11  2  0  0  0  0
  7  1  1  0  0  0  0
  7  2  2  0  0  0  0
  8 25  1  1  0  0  0
  8 14  1  0  0  0  0
  9 15  2  0  0  0  0
  9  3  1  0  0  0  0
 10  1  2  0  0  0  0
 11  2  1  0  0  0  0
 12 13  1  0  0  0  0
 12  4  1  0  0  0  0
 13 18  1  6  0  0  0
 13  9  1  0  0  0  0
 14  3  2  0  0  0  0
 14  6  1  0  0  0  0
 15 10  1  0  0  0  0
 16 22  1  0  0  0  0
 16 20  1  0  0  0  0
 17 16  2  0  0  0  0
 18 20  2  0  0  0  0
 19 17  1  0  0  0  0
 19 21  2  0  0  0  0
 21 18  1  0  0  0  0
 24 23  1  0  0  0  0
 26 25  1  0  0  0  0
 26 27  1  0  0  0  0
 29 30  1  0  0  0  0
 29 27  1  1  0  0  0
 30 28  2  0  0  0  0
 31 34  2  0  0  0  0
 32 33  2  0  0  0  0
 32 31  1  0  0  0  0
 33 29  1  0  0  0  0
 34 30  1  0  0  0  0
M  END
>  <MODEL>
7

>  <REMARK>
 VINA RESULT:      -8.8      2.397      7.458
  Name = 
  6 active torsions:
  status: ('A' for Active; 'I' for Inactive)
    1  A    between atoms: C_1  and  O_19
    2  A    between atoms: C_3  and  C_13
    3  A    between atoms: C_3  and  N_17
    4  A    between atoms: C_12  and  C_28
    5  A    between atoms: N_17  and  C_29
    6  A    between atoms: C_18  and  C_29
                            x       y       z     vdW  Elec       q    Type
                         _______ _______ _______ _____ _____    ______ ____

>  <TORSDO>
F 6

$$$$
=
 OpenBabel10252414533D

 34 38  0  0  1  0  0  0  0  0999 V2000
  191.1100  177.2840  140.5960 C   0  0  0  0  0  0  0  0  0  0  0  0
  189.2260  177.6920  139.0610 C   0  0  0  0  0  0  0  0  0  0  0  0
  188.8860  177.8270  141.4930 C   0  0  0  0  0  0  0  0  0  0  0  0
  186.1830  177.3810  143.2180 C   0  0  0  0  0  2  0  0  0  0  0  0
  190.0150  177.4700  137.9380 O   0  0  0  0  0  1  0  0  0  0  0  0
  187.0530  178.2530  139.9360 C   0  0  0  0  0  3  0  0  0  0  0  0
  189.7510  177.6030  140.3740 C   0  0  0  0  0  0  0  0  0  0  0  0
  186.5860  178.5880  142.3770 C   0  0  1  0  0  3  0  0  0  0  0  0
  189.4170  177.6350  142.8050 C   0  0  0  0  0  0  0  0  0  0  0  0
  191.5720  177.1580  141.9060 C   0  0  0  0  0  3  0  0  0  0  0  0
  187.8860  177.9980  138.8600 C   0  0  0  0  0  3  0  0  0  0  0  0
  187.3670  176.7560  143.9590 C   0  0  0  0  0  2  0  0  0  0  0  0
  188.5590  177.7100  144.0550 C   0  0  1  0  0  3  0  0  0  0  0  0
  187.5300  178.2070  141.2520 C   0  0  0  0  0  0  0  0  0  0  0  0
  190.7330  177.3230  142.9530 N   0  0  0  0  0  0  0  0  0  0  0  0
  189.4620  177.6790  147.7620 C   0  0  0  0  0  0  0  0  0  0  0  0
  190.7420  177.1160  147.7180 C   0  0  0  0  0  3  0  0  0  0  0  0
  189.3110  177.5210  145.3430 C   0  0  0  0  0  0  0  0  0  0  0  0
  191.3050  176.7520  146.4910 C   0  0  0  0  0  3  0  0  0  0  0  0
  188.7460  177.8800  146.5780 C   0  0  0  0  0  3  0  0  0  0  0  0
  190.5890  176.9530  145.3060 C   0  0  0  0  0  3  0  0  0  0  0  0
  188.9170  178.0280  148.9510 F   0  0  0  0  0  0  0  0  0  0  0  0
  193.4060  177.1270  139.6650 C   0  0  0  0  0  1  0  0  0  0  0  0
  191.9910  177.0920  139.5240 O   0  0  0  0  0  0  0  0  0  0  0  0
  185.3530  179.3770  141.9480 C   0  0  0  0  0  2  0  0  0  0  0  0
  184.1610  178.5820  142.1770 N   0  0  0  0  0  2  0  0  0  0  0  0
  183.1810  179.0000  141.1900 C   0  0  0  0  0  2  0  0  0  0  0  0
  181.8790  178.8800  143.9680 O   0  0  0  0  0  0  0  0  0  0  0  0
  181.7940  178.5230  141.5950 C   0  0  1  0  0  3  0  0  0  0  0  0
  181.3570  179.2060  142.8700 C   0  0  0  0  0  0  0  0  0  0  0  0
  179.6830  180.5020  141.7660 C   0  0  0  0  0  3  0  0  0  0  0  0
  179.8850  179.7260  140.5320 C   0  0  0  0  0  3  0  0  0  0  0  0
  180.8420  178.7960  140.4620 C   0  0  0  0  0  3  0  0  0  0  0  0
  180.3650  180.2400  142.8390 N   0  0  0  0  0  0  0  0  0  0  0  0
  1 10  1  0  0  0  0
  2  7  1  0  0  0  0
  3  9  2  0  0  0  0
  4 12  1  0  0  0  0
  5  2  1  0  0  0  0
  6 14  2  0  0  0  0
  7  1  2  0  0  0  0
  7  3  1  0  0  0  0
  8 25  1  6  0  0  0
  8  4  1  0  0  0  0
  9 15  1  0  0  0  0
  9 13  1  0  0  0  0
 10 15  2  0  0  0  0
 11  2  2  0  0  0  0
 11  6  1  0  0  0  0
 12 13  1  0  0  0  0
 13 18  1  1  0  0  0
 14  3  1  0  0  0  0
 14  8  1  0  0  0  0
 16 22  1  0  0  0  0
 17 16  1  0  0  0  0
 18 20  1  0  0  0  0
 19 17  2  0  0  0  0
 20 16  2  0  0  0  0
 21 18  2  0  0  0  0
 21 19  1  0  0  0  0
 24 23  1  0  0  0  0
 24  1  1  0  0  0  0
 25 26  1  0  0  0  0
 27 26  1  0  0  0  0
 29 27  1  6  0  0  0
 29 30  1  0  0  0  0
 30 28  2  0  0  0  0
 31 34  2  0  0  0  0
 32 31  1  0  0  0  0
 33 32  2  0  0  0  0
 33 29  1  0  0  0  0
 34 30  1  0  0  0  0
M  END
>  <MODEL>
8

>  <REMARK>
 VINA RESULT:      -8.6      3.383      8.316
  Name = 
  6 active torsions:
  status: ('A' for Active; 'I' for Inactive)
    1  A    between atoms: C_1  and  O_19
    2  A    between atoms: C_3  and  C_13
    3  A    between atoms: C_3  and  N_17
    4  A    between atoms: C_12  and  C_28
    5  A    between atoms: N_17  and  C_29
    6  A    between atoms: C_18  and  C_29
                            x       y       z     vdW  Elec       q    Type
                         _______ _______ _______ _____ _____    ______ ____

>  <TORSDO>
F 6

$$$$
=
 OpenBabel10252414533D

 34 38  0  0  1  0  0  0  0  0999 V2000
  186.7400  178.6280  140.8130 C   0  0  0  0  0  0  0  0  0  0  0  0
  186.9200  178.3040  138.3760 C   0  0  0  0  0  0  0  0  0  0  0  0
  188.6800  177.4500  139.8660 C   0  0  0  0  0  0  0  0  0  0  0  0
  191.8080  176.8910  139.2420 C   0  0  0  0  0  2  0  0  0  0  0  0
  185.7220  178.9680  138.1400 O   0  0  0  0  0  1  0  0  0  0  0  0
  188.8060  177.1260  137.4490 C   0  0  0  0  0  3  0  0  0  0  0  0
  187.4330  178.1300  139.6850 C   0  0  0  0  0  0  0  0  0  0  0  0
  190.5950  176.0570  138.8440 C   0  0  1  0  0  3  0  0  0  0  0  0
  189.2220  177.3750  141.1860 C   0  0  0  0  0  0  0  0  0  0  0  0
  187.3070  178.4770  142.0780 C   0  0  0  0  0  3  0  0  0  0  0  0
  187.6170  177.8170  137.2780 C   0  0  0  0  0  3  0  0  0  0  0  0
  191.6700  177.5040  140.6380 C   0  0  0  0  0  2  0  0  0  0  0  0
  190.5990  176.8020  141.4750 C   0  0  1  0  0  3  0  0  0  0  0  0
  189.3400  176.9010  138.7240 C   0  0  0  0  0  0  0  0  0  0  0  0
  188.5090  177.8790  142.2300 N   0  0  0  0  0  0  0  0  0  0  0  0
  191.8750  175.6280  144.8730 C   0  0  0  0  0  0  0  0  0  0  0  0
  191.6790  176.7810  145.6430 C   0  0  0  0  0  3  0  0  0  0  0  0
  190.9710  176.7720  142.9310 C   0  0  0  0  0  0  0  0  0  0  0  0
  191.1350  177.9270  145.0580 C   0  0  0  0  0  3  0  0  0  0  0  0
  191.5240  175.6230  143.5200 C   0  0  0  0  0  3  0  0  0  0  0  0
  190.7830  177.9230  143.7050 C   0  0  0  0  0  3  0  0  0  0  0  0
  192.4050  174.5180  145.4400 F   0  0  0  0  0  0  0  0  0  0  0  0
  184.3630  178.9340  141.4590 C   0  0  0  0  0  1  0  0  0  0  0  0
  185.5010  179.2670  140.6740 O   0  0  0  0  0  0  0  0  0  0  0  0
  190.9140  175.1960  137.6260 C   0  0  0  0  0  2  0  0  0  0  0  0
  192.0760  174.3720  137.9030 N   0  0  0  0  0  2  0  0  0  0  0  0
  192.5440  173.8630  136.6250 C   0  0  0  0  0  2  0  0  0  0  0  0
  194.3100  176.3750  136.6110 O   0  0  0  0  0  0  0  0  0  0  0  0
  194.0580  173.9880  136.5350 C   0  0  1  0  0  3  0  0  0  0  0  0
  194.5180  175.2730  137.1830 C   0  0  0  0  0  0  0  0  0  0  0  0
  195.5500  174.1420  139.0160 C   0  0  0  0  0  3  0  0  0  0  0  0
  195.3450  172.8500  138.3420 C   0  0  0  0  0  3  0  0  0  0  0  0
  194.6800  172.7820  137.1860 C   0  0  0  0  0  3  0  0  0  0  0  0
  195.1700  175.2520  138.4590 N   0  0  0  0  0  0  0  0  0  0  0  0
  1 10  1  0  0  0  0
  2  7  1  0  0  0  0
  3  9  2  0  0  0  0
  4 12  1  0  0  0  0
  5  2  1  0  0  0  0
  6 14  2  0  0  0  0
  7  3  1  0  0  0  0
  7  1  2  0  0  0  0
  8 25  1  6  0  0  0
  8  4  1  0  0  0  0
  9 13  1  0  0  0  0
  9 15  1  0  0  0  0
 10 15  2  0  0  0  0
 11  6  1  0  0  0  0
 11  2  2  0  0  0  0
 12 13  1  0  0  0  0
 13 18  1  1  0  0  0
 14  8  1  0  0  0  0
 14  3  1  0  0  0  0
 16 22  1  0  0  0  0
 16 17  1  0  0  0  0
 18 20  1  0  0  0  0
 18 21  2  0  0  0  0
 19 17  2  0  0  0  0
 20 16  2  0  0  0  0
 21 19  1  0  0  0  0
 24  1  1  0  0  0  0
 24 23  1  0  0  0  0
 25 26  1  0  0  0  0
 27 26  1  0  0  0  0
 28 30  2  0  0  0  0
 29 27  1  1  0  0  0
 29 30  1  0  0  0  0
 29 33  1  0  0  0  0
 30 34  1  0  0  0  0
 32 31  1  0  0  0  0
 33 32  2  0  0  0  0
 34 31  2  0  0  0  0
M  END
>  <MODEL>
9

>  <REMARK>
 VINA RESULT:      -8.5      4.244      7.112
  Name = 
  6 active torsions:
  status: ('A' for Active; 'I' for Inactive)
    1  A    between atoms: C_1  and  O_19
    2  A    between atoms: C_3  and  C_13
    3  A    between atoms: C_3  and  N_17
    4  A    between atoms: C_12  and  C_28
    5  A    between atoms: N_17  and  C_29
    6  A    between atoms: C_18  and  C_29
                            x       y       z     vdW  Elec       q    Type
                         _______ _______ _______ _____ _____    ______ ____

>  <TORSDO>
F 6

$$$$
