=
 OpenBabel10262422403D

 43 48  0  0  1  0  0  0  0  0999 V2000
  191.2470  177.2510  143.4230 C   0  0  0  0  0  0  0  0  0  0  0  0
  190.7130  176.2630  138.4050 C   0  0  1  0  0  3  0  0  0  0  0  0
  191.5050  177.3280  141.0160 C   0  0  0  0  0  0  0  0  0  0  0  0
  189.9690  176.7060  143.2700 C   0  0  0  0  0  3  0  0  0  0  0  0
  191.7440  177.4690  144.6620 F   0  0  0  0  0  0  0  0  0  0  0  0
  190.2160  176.7880  140.8600 C   0  0  0  0  0  0  0  0  0  0  0  0
  192.0180  177.5620  142.2950 C   0  0  0  0  0  3  0  0  0  0  0  0
  189.4520  176.4810  141.9910 C   0  0  0  0  0  3  0  0  0  0  0  0
  189.6380  176.5750  139.4880 C   0  0  1  0  0  3  0  0  0  0  0  0
  192.1800  176.4850  138.8170 C   0  0  0  0  0  2  0  0  0  0  0  0
  192.3240  177.6370  139.8090 C   0  0  0  0  0  2  0  0  0  0  0  0
  190.5220  174.9030  137.7180 C   0  0  2  0  0  3  0  0  0  0  0  0
  191.6980  174.1500  137.7300 O   0  0  0  0  0  1  0  0  0  0  0  0
  189.9020  174.9510  136.3130 C   0  0  0  0  0  2  0  0  0  0  0  0
  187.1670  172.3830  136.8680 C   0  0  0  0  0  3  0  0  0  0  0  0
  186.2590  172.7600  135.8780 C   0  0  0  0  0  0  0  0  0  0  0  0
  187.7360  174.5170  135.2100 N   0  0  0  0  0  0  0  0  0  0  0  0
  188.3620  173.0900  137.0200 C   0  0  0  0  0  3  0  0  0  0  0  0
  188.6410  174.1600  136.1640 C   0  0  0  0  0  0  0  0  0  0  0  0
  186.5630  173.8460  135.0510 C   0  0  0  0  0  3  0  0  0  0  0  0
  184.9980  171.9940  135.6840 C   0  0  0  0  0  2  0  0  0  0  0  0
  184.1530  172.0520  136.9420 C   0  0  0  0  0  1  0  0  0  0  0  0
  188.8740  177.7560  139.1010 N   0  0  0  0  0  2  0  0  0  0  0  0
  187.9380  178.5730  136.9370 C   0  0  1  0  0  3  0  0  0  0  0  0
  189.0000  179.5240  137.4430 C   0  0  0  0  0  2  0  0  0  0  0  0
  189.1560  178.0380  137.6970 C   0  0  1  0  0  3  0  0  0  0  0  0
  184.5590  177.8540  138.5780 N   0  0  0  0  0  2  0  0  0  0  0  0
  186.7530  178.6780  137.7780 N   0  0  0  0  0  2  0  0  0  0  0  0
  185.7170  177.6920  137.7610 C   0  0  0  0  0  0  0  0  0  0  0  0
  185.8180  176.6760  137.0230 O   0  0  0  0  0  0  0  0  0  0  0  0
  184.4120  178.9560  139.4370 N   0  0  0  0  0  0  0  0  0  0  0  0
  183.0020  178.9440  141.4450 N   0  0  0  0  0  2  0  0  0  0  0  0
  183.2700  179.7450  138.9510 C   0  0  0  0  0  2  0  0  0  0  0  0
  181.9270  179.0640  139.2320 C   0  0  0  0  0  2  0  0  0  0  0  0
  184.2200  178.4380  140.8100 C   0  0  2  0  0  3  0  0  0  0  0  0
  181.8680  178.4900  140.6480 C   0  0  0  0  0  2  0  0  0  0  0  0
  185.4340  178.7490  141.6780 C   0  0  0  0  0  2  0  0  0  0  0  0
  185.2350  178.2630  143.0360 N   0  0  0  0  0  0  0  0  0  0  0  0
  185.8740  178.4730  145.8510 C   0  0  0  0  0  2  0  0  0  0  0  0
  184.5600  178.9910  145.2790 C   0  0  0  0  0  2  0  0  0  0  0  0
  186.4350  177.3600  144.9740 C   0  0  0  0  0  2  0  0  0  0  0  0
  184.7700  179.4050  143.8250 C   0  0  0  0  0  2  0  0  0  0  0  0
  186.5500  177.8580  143.5350 C   0  0  0  0  0  2  0  0  0  0  0  0
  1  5  1  0  0  0  0
  2 12  1  1  0  0  0
  2 10  1  0  0  0  0
  2  9  1  0  0  0  0
  3  7  1  0  0  0  0
  4  1  1  0  0  0  0
  6  3  2  0  0  0  0
  6  8  1  0  0  0  0
  7  1  2  0  0  0  0
  8  4  2  0  0  0  0
  9 23  1  6  0  0  0
  9  6  1  0  0  0  0
 10 11  1  0  0  0  0
 11  3  1  0  0  0  0
 12 13  1  6  0  0  0
 14 12  1  0  0  0  0
 15 18  1  0  0  0  0
 16 15  2  0  0  0  0
 17 19  1  0  0  0  0
 19 14  1  0  0  0  0
 19 18  2  0  0  0  0
 20 17  2  0  0  0  0
 20 16  1  0  0  0  0
 21 16  1  0  0  0  0
 21 22  1  0  0  0  0
 24 25  1  0  0  0  0
 24 26  1  0  0  0  0
 24 28  1  1  0  0  0
 25 26  1  0  0  0  0
 26 23  1  1  0  0  0
 27 31  1  0  0  0  0
 29 28  1  0  0  0  0
 29 27  1  0  0  0  0
 30 29  2  0  0  0  0
 31 35  1  0  0  0  0
 33 34  1  0  0  0  0
 33 31  1  0  0  0  0
 34 36  1  0  0  0  0
 35 32  1  0  0  0  0
 35 37  1  1  0  0  0
 36 32  1  0  0  0  0
 37 38  1  0  0  0  0
 38 43  1  0  0  0  0
 38 42  1  0  0  0  0
 40 39  1  0  0  0  0
 41 39  1  0  0  0  0
 42 40  1  0  0  0  0
 43 41  1  0  0  0  0
M  END
>  <MODEL>
1

>  <REMARK>
 VINA RESULT:      -8.3      0.000      0.000
  Name = 
  10 active torsions:
  status: ('A' for Active; 'I' for Inactive)
    1  A    between atoms: C_1  and  C_34
    2  A    between atoms: C_1  and  C_35
    3  A    between atoms: C_2  and  N_6
    4  A    between atoms: N_3  and  N_4
    5  A    between atoms: C_8  and  C_34
    6  A    between atoms: N_11  and  C_14
    7  A    between atoms: C_13  and  N_27
    8  A    between atoms: C_14  and  C_41
    9  A    between atoms: C_19  and  C_25
   10  A    between atoms: N_27  and  C_30
                            x       y       z     vdW  Elec       q    Type
                         _______ _______ _______ _____ _____    ______ ____

>  <TORSDO>
F 10

$$$$
=
 OpenBabel10262422403D

 43 48  0  0  1  0  0  0  0  0999 V2000
  179.9960  176.0390  138.6810 C   0  0  0  0  0  0  0  0  0  0  0  0
  183.0550  178.7750  141.7790 C   0  0  1  0  0  3  0  0  0  0  0  0
  181.1830  177.8830  139.7110 C   0  0  0  0  0  0  0  0  0  0  0  0
  180.9680  175.1500  139.1500 C   0  0  0  0  0  3  0  0  0  0  0  0
  178.9470  175.5770  137.9630 F   0  0  0  0  0  0  0  0  0  0  0  0
  182.1660  176.9910  140.1750 C   0  0  0  0  0  0  0  0  0  0  0  0
  180.1020  177.4080  138.9620 C   0  0  0  0  0  3  0  0  0  0  0  0
  182.0540  175.6260  139.8890 C   0  0  0  0  0  3  0  0  0  0  0  0
  183.3560  177.4970  140.9430 C   0  0  1  0  0  3  0  0  0  0  0  0
  181.7130  179.4760  141.4950 C   0  0  0  0  0  2  0  0  0  0  0  0
  181.2960  179.3340  140.0330 C   0  0  0  0  0  2  0  0  0  0  0  0
  183.2880  178.5970  143.2870 C   0  0  2  0  0  3  0  0  0  0  0  0
  182.0850  178.6010  143.9980 O   0  0  0  0  0  1  0  0  0  0  0  0
  184.3140  179.5500  143.9170 C   0  0  0  0  0  2  0  0  0  0  0  0
  187.1970  177.4490  145.2020 C   0  0  0  0  0  3  0  0  0  0  0  0
  187.1270  177.7270  146.5680 C   0  0  0  0  0  0  0  0  0  0  0  0
  185.2510  179.1540  146.1660 N   0  0  0  0  0  0  0  0  0  0  0  0
  186.2840  178.0360  144.3250 C   0  0  0  0  0  3  0  0  0  0  0  0
  185.2960  178.8880  144.8310 C   0  0  0  0  0  0  0  0  0  0  0  0
  186.1370  178.5970  147.0360 C   0  0  0  0  0  3  0  0  0  0  0  0
  188.0740  177.0810  147.5160 C   0  0  0  0  0  2  0  0  0  0  0  0
  188.7790  178.1340  148.3500 C   0  0  0  0  0  1  0  0  0  0  0  0
  184.4490  177.7610  140.0120 N   0  0  0  0  0  2  0  0  0  0  0  0
  184.9770  178.8990  137.8560 C   0  0  1  0  0  3  0  0  0  0  0  0
  183.9160  177.8420  137.6470 C   0  0  0  0  0  2  0  0  0  0  0  0
  183.9400  178.6190  138.9470 C   0  0  1  0  0  3  0  0  0  0  0  0
  188.7040  178.0420  137.8000 N   0  0  0  0  0  2  0  0  0  0  0  0
  186.2580  178.2560  138.1190 N   0  0  0  0  0  2  0  0  0  0  0  0
  187.4780  178.7240  137.5390 C   0  0  0  0  0  0  0  0  0  0  0  0
  187.4810  179.7390  136.7920 O   0  0  0  0  0  0  0  0  0  0  0  0
  188.7580  176.9220  138.6470 N   0  0  0  0  0  0  0  0  0  0  0  0
  190.8120  176.1210  139.7230 N   0  0  0  0  0  2  0  0  0  0  0  0
  189.0430  175.7490  137.8080 C   0  0  0  0  0  2  0  0  0  0  0  0
  190.4930  175.7220  137.3130 C   0  0  0  0  0  2  0  0  0  0  0  0
  189.7990  177.1760  139.6680 C   0  0  2  0  0  3  0  0  0  0  0  0
  191.4780  176.0810  138.4260 C   0  0  0  0  0  2  0  0  0  0  0  0
  189.1690  177.3720  141.0430 C   0  0  0  0  0  2  0  0  0  0  0  0
  190.1930  177.4130  142.0770 N   0  0  0  0  0  0  0  0  0  0  0  0
  190.8540  177.4310  144.8950 C   0  0  0  0  0  2  0  0  0  0  0  0
  191.0290  176.1880  144.0310 C   0  0  0  0  0  2  0  0  0  0  0  0
  190.9260  178.6890  144.0390 C   0  0  0  0  0  2  0  0  0  0  0  0
  190.0090  176.2140  142.8950 C   0  0  0  0  0  2  0  0  0  0  0  0
  189.9080  178.5880  142.9040 C   0  0  0  0  0  2  0  0  0  0  0  0
  1  7  2  0  0  0  0
  1  4  1  0  0  0  0
  2 12  1  1  0  0  0
  3 11  1  0  0  0  0
  3  6  2  0  0  0  0
  4  8  2  0  0  0  0
  5  1  1  0  0  0  0
  6  9  1  0  0  0  0
  7  3  1  0  0  0  0
  8  6  1  0  0  0  0
  9 23  1  6  0  0  0
  9  2  1  0  0  0  0
 10  2  1  0  0  0  0
 11 10  1  0  0  0  0
 12 14  1  0  0  0  0
 12 13  1  1  0  0  0
 14 19  1  0  0  0  0
 15 16  1  0  0  0  0
 16 20  2  0  0  0  0
 16 21  1  0  0  0  0
 17 20  1  0  0  0  0
 18 19  1  0  0  0  0
 18 15  2  0  0  0  0
 19 17  2  0  0  0  0
 21 22  1  0  0  0  0
 24 28  1  1  0  0  0
 24 26  1  0  0  0  0
 25 24  1  0  0  0  0
 25 26  1  0  0  0  0
 26 23  1  1  0  0  0
 27 31  1  0  0  0  0
 29 27  1  0  0  0  0
 29 28  1  0  0  0  0
 30 29  2  0  0  0  0
 31 35  1  0  0  0  0
 33 31  1  0  0  0  0
 34 33  1  0  0  0  0
 34 36  1  0  0  0  0
 35 32  1  0  0  0  0
 35 37  1  1  0  0  0
 36 32  1  0  0  0  0
 37 38  1  0  0  0  0
 38 42  1  0  0  0  0
 38 43  1  0  0  0  0
 40 39  1  0  0  0  0
 41 39  1  0  0  0  0
 42 40  1  0  0  0  0
 43 41  1  0  0  0  0
M  END
>  <MODEL>
2

>  <REMARK>
 VINA RESULT:      -8.1      3.373      8.852
  Name = 
  10 active torsions:
  status: ('A' for Active; 'I' for Inactive)
    1  A    between atoms: C_1  and  C_34
    2  A    between atoms: C_1  and  C_35
    3  A    between atoms: C_2  and  N_6
    4  A    between atoms: N_3  and  N_4
    5  A    between atoms: C_8  and  C_34
    6  A    between atoms: N_11  and  C_14
    7  A    between atoms: C_13  and  N_27
    8  A    between atoms: C_14  and  C_41
    9  A    between atoms: C_19  and  C_25
   10  A    between atoms: N_27  and  C_30
                            x       y       z     vdW  Elec       q    Type
                         _______ _______ _______ _____ _____    ______ ____

>  <TORSDO>
F 10

$$$$
=
 OpenBabel10262422403D

 43 48  0  0  1  0  0  0  0  0999 V2000
  184.0560  178.6850  141.4920 C   0  0  0  0  0  0  0  0  0  0  0  0
  182.7260  176.5630  137.0010 C   0  0  1  0  0  3  0  0  0  0  0  0
  183.2980  177.1030  139.8230 C   0  0  0  0  0  0  0  0  0  0  0  0
  184.7600  179.3870  140.5090 C   0  0  0  0  0  3  0  0  0  0  0  0
  184.0760  179.1160  142.7740 F   0  0  0  0  0  0  0  0  0  0  0  0
  184.0120  177.8030  138.8340 C   0  0  0  0  0  0  0  0  0  0  0  0
  183.3230  177.5410  141.1500 C   0  0  0  0  0  3  0  0  0  0  0  0
  184.7430  178.9430  139.1840 C   0  0  0  0  0  3  0  0  0  0  0  0
  184.0270  177.3130  137.4120 C   0  0  1  0  0  3  0  0  0  0  0  0
  181.7600  176.1970  138.1440 C   0  0  0  0  0  2  0  0  0  0  0  0
  182.5050  175.8980  139.4430 C   0  0  0  0  0  2  0  0  0  0  0  0
  181.9830  177.2130  135.8250 C   0  0  2  0  0  3  0  0  0  0  0  0
  182.8160  178.0670  135.0980 O   0  0  0  0  0  1  0  0  0  0  0  0
  180.6510  177.8930  136.1750 C   0  0  0  0  0  2  0  0  0  0  0  0
  180.3800  181.6570  135.8030 C   0  0  0  0  0  3  0  0  0  0  0  0
  180.9250  182.0730  137.0190 C   0  0  0  0  0  0  0  0  0  0  0  0
  181.2750  179.7880  137.6290 N   0  0  0  0  0  0  0  0  0  0  0  0
  180.2870  180.2940  135.5140 C   0  0  0  0  0  3  0  0  0  0  0  0
  180.7560  179.3600  136.4440 C   0  0  0  0  0  0  0  0  0  0  0  0
  181.3690  181.1110  137.9320 C   0  0  0  0  0  3  0  0  0  0  0  0
  181.0610  183.5220  137.3240 C   0  0  0  0  0  2  0  0  0  0  0  0
  181.0850  184.3270  136.0380 C   0  0  0  0  0  1  0  0  0  0  0  0
  185.1820  176.4420  137.2180 N   0  0  0  0  0  2  0  0  0  0  0  0
  187.1910  177.0430  135.8660 C   0  0  1  0  0  3  0  0  0  0  0  0
  186.7530  175.6280  135.5580 C   0  0  0  0  0  2  0  0  0  0  0  0
  185.7040  176.6750  135.8760 C   0  0  1  0  0  3  0  0  0  0  0  0
  188.7260  178.3190  139.1280 N   0  0  0  0  0  2  0  0  0  0  0  0
  187.7670  177.0920  137.2040 N   0  0  0  0  0  2  0  0  0  0  0  0
  188.1340  178.3240  137.8300 C   0  0  0  0  0  0  0  0  0  0  0  0
  187.9430  179.4200  137.2390 O   0  0  0  0  0  0  0  0  0  0  0  0
  188.9350  177.1260  139.8390 N   0  0  0  0  0  0  0  0  0  0  0  0
  190.4420  176.9280  141.7650 N   0  0  0  0  0  2  0  0  0  0  0  0
  190.0650  176.4290  139.2070 C   0  0  0  0  0  2  0  0  0  0  0  0
  191.4080  177.1030  139.5050 C   0  0  0  0  0  2  0  0  0  0  0  0
  189.1850  177.4780  141.2540 C   0  0  2  0  0  3  0  0  0  0  0  0
  191.5260  177.5020  140.9770 C   0  0  0  0  0  2  0  0  0  0  0  0
  188.0210  177.0350  142.1340 C   0  0  0  0  0  2  0  0  0  0  0  0
  188.0690  177.7040  143.4270 N   0  0  0  0  0  0  0  0  0  0  0  0
  187.6360  177.5810  146.2860 C   0  0  0  0  0  2  0  0  0  0  0  0
  189.0310  177.5180  145.6750 C   0  0  0  0  0  2  0  0  0  0  0  0
  186.6790  178.3130  145.3530 C   0  0  0  0  0  2  0  0  0  0  0  0
  188.9450  176.9010  144.2810 C   0  0  0  0  0  2  0  0  0  0  0  0
  186.7120  177.6540  143.9750 C   0  0  0  0  0  2  0  0  0  0  0  0
  1  5  1  0  0  0  0
  2 12  1  6  0  0  0
  2  9  1  0  0  0  0
  2 10  1  0  0  0  0
  3  7  2  0  0  0  0
  4  1  2  0  0  0  0
  6  8  2  0  0  0  0
  6  3  1  0  0  0  0
  7  1  1  0  0  0  0
  8  4  1  0  0  0  0
  9 23  1  1  0  0  0
  9  6  1  0  0  0  0
 10 11  1  0  0  0  0
 11  3  1  0  0  0  0
 12 13  1  1  0  0  0
 12 14  1  0  0  0  0
 14 19  1  0  0  0  0
 15 16  1  0  0  0  0
 16 21  1  0  0  0  0
 16 20  2  0  0  0  0
 17 20  1  0  0  0  0
 18 15  2  0  0  0  0
 18 19  1  0  0  0  0
 19 17  2  0  0  0  0
 22 21  1  0  0  0  0
 24 26  1  0  0  0  0
 24 28  1  1  0  0  0
 25 24  1  0  0  0  0
 25 26  1  0  0  0  0
 26 23  1  1  0  0  0
 27 31  1  0  0  0  0
 28 29  1  0  0  0  0
 29 27  1  0  0  0  0
 30 29  2  0  0  0  0
 31 35  1  0  0  0  0
 33 34  1  0  0  0  0
 33 31  1  0  0  0  0
 34 36  1  0  0  0  0
 35 32  1  0  0  0  0
 35 37  1  1  0  0  0
 36 32  1  0  0  0  0
 37 38  1  0  0  0  0
 38 43  1  0  0  0  0
 38 42  1  0  0  0  0
 40 39  1  0  0  0  0
 41 39  1  0  0  0  0
 42 40  1  0  0  0  0
 43 41  1  0  0  0  0
M  END
>  <MODEL>
3

>  <REMARK>
 VINA RESULT:      -7.9      2.911      7.534
  Name = 
  10 active torsions:
  status: ('A' for Active; 'I' for Inactive)
    1  A    between atoms: C_1  and  C_34
    2  A    between atoms: C_1  and  C_35
    3  A    between atoms: C_2  and  N_6
    4  A    between atoms: N_3  and  N_4
    5  A    between atoms: C_8  and  C_34
    6  A    between atoms: N_11  and  C_14
    7  A    between atoms: C_13  and  N_27
    8  A    between atoms: C_14  and  C_41
    9  A    between atoms: C_19  and  C_25
   10  A    between atoms: N_27  and  C_30
                            x       y       z     vdW  Elec       q    Type
                         _______ _______ _______ _____ _____    ______ ____

>  <TORSDO>
F 10

$$$$
=
 OpenBabel10262422403D

 43 48  0  0  1  0  0  0  0  0999 V2000
  184.7020  178.8560  143.8690 C   0  0  0  0  0  0  0  0  0  0  0  0
  182.7330  178.9780  139.1200 C   0  0  1  0  0  3  0  0  0  0  0  0
  183.3840  178.3390  141.9030 C   0  0  0  0  0  0  0  0  0  0  0  0
  185.6770  179.4490  143.0610 C   0  0  0  0  0  3  0  0  0  0  0  0
  184.8640  178.8260  145.2110 F   0  0  0  0  0  0  0  0  0  0  0  0
  184.3670  178.9270  141.0880 C   0  0  0  0  0  0  0  0  0  0  0  0
  183.5530  178.3000  143.2900 C   0  0  0  0  0  3  0  0  0  0  0  0
  185.5130  179.4780  141.6730 C   0  0  0  0  0  3  0  0  0  0  0  0
  184.2160  178.9330  139.5920 C   0  0  1  0  0  3  0  0  0  0  0  0
  181.6650  178.7360  140.2030 C   0  0  0  0  0  2  0  0  0  0  0  0
  182.1560  177.7690  141.2780 C   0  0  0  0  0  2  0  0  0  0  0  0
  182.3940  180.2060  138.2610 C   0  0  2  0  0  3  0  0  0  0  0  0
  182.9260  181.3770  138.8050 O   0  0  0  0  0  1  0  0  0  0  0  0
  180.9110  180.3760  137.9040 C   0  0  0  0  0  2  0  0  0  0  0  0
  179.1170  183.6510  138.5680 C   0  0  0  0  0  3  0  0  0  0  0  0
  179.6920  184.4600  137.5860 C   0  0  0  0  0  0  0  0  0  0  0  0
  181.0130  182.6070  136.8520 N   0  0  0  0  0  0  0  0  0  0  0  0
  179.5050  182.3140  138.6820 C   0  0  0  0  0  3  0  0  0  0  0  0
  180.4580  181.7980  137.7970 C   0  0  0  0  0  0  0  0  0  0  0  0
  180.6530  183.9140  136.7300 C   0  0  0  0  0  3  0  0  0  0  0  0
  179.2620  185.8760  137.4340 C   0  0  0  0  0  2  0  0  0  0  0  0
  179.0940  186.5210  138.7960 C   0  0  0  0  0  1  0  0  0  0  0  0
  184.8760  177.7550  139.0390 N   0  0  0  0  0  2  0  0  0  0  0  0
  185.8850  177.4860  136.7730 C   0  0  1  0  0  3  0  0  0  0  0  0
  184.9380  176.3430  137.0670 C   0  0  0  0  0  2  0  0  0  0  0  0
  184.6200  177.7250  137.6030 C   0  0  1  0  0  3  0  0  0  0  0  0
  189.2870  178.1380  138.3950 N   0  0  0  0  0  2  0  0  0  0  0  0
  187.0800  177.3500  137.5960 N   0  0  0  0  0  2  0  0  0  0  0  0
  188.1200  178.3310  137.5970 C   0  0  0  0  0  0  0  0  0  0  0  0
  188.0160  179.3700  136.8910 O   0  0  0  0  0  0  0  0  0  0  0  0
  189.4380  177.0100  139.2190 N   0  0  0  0  0  0  0  0  0  0  0  0
  191.0010  176.8970  141.1070 N   0  0  0  0  0  2  0  0  0  0  0  0
  190.4910  176.1710  138.6270 C   0  0  0  0  0  2  0  0  0  0  0  0
  191.8890  176.7690  138.8130 C   0  0  0  0  0  2  0  0  0  0  0  0
  189.7670  177.4850  140.5810 C   0  0  2  0  0  3  0  0  0  0  0  0
  192.0920  177.3060  140.2310 C   0  0  0  0  0  2  0  0  0  0  0  0
  188.6100  177.2220  141.5380 C   0  0  0  0  0  2  0  0  0  0  0  0
  189.0890  177.1090  142.9080 N   0  0  0  0  0  0  0  0  0  0  0  0
  188.9940  178.0550  145.6420 C   0  0  0  0  0  2  0  0  0  0  0  0
  188.3220  176.7570  145.2110 C   0  0  0  0  0  2  0  0  0  0  0  0
  190.1510  178.3910  144.7090 C   0  0  0  0  0  2  0  0  0  0  0  0
  187.9140  176.8610  143.7440 C   0  0  0  0  0  2  0  0  0  0  0  0
  189.6480  178.4140  143.2670 C   0  0  0  0  0  2  0  0  0  0  0  0
  1  5  1  0  0  0  0
  2 12  1  1  0  0  0
  2  9  1  0  0  0  0
  2 10  1  0  0  0  0
  3  7  2  0  0  0  0
  4  1  2  0  0  0  0
  6  8  2  0  0  0  0
  6  3  1  0  0  0  0
  7  1  1  0  0  0  0
  8  4  1  0  0  0  0
  9 23  1  6  0  0  0
  9  6  1  0  0  0  0
 10 11  1  0  0  0  0
 11  3  1  0  0  0  0
 12 13  1  1  0  0  0
 14 12  1  0  0  0  0
 15 18  1  0  0  0  0
 16 15  2  0  0  0  0
 17 19  1  0  0  0  0
 19 14  1  0  0  0  0
 19 18  2  0  0  0  0
 20 17  2  0  0  0  0
 20 16  1  0  0  0  0
 21 16  1  0  0  0  0
 21 22  1  0  0  0  0
 24 25  1  0  0  0  0
 24 28  1  1  0  0  0
 24 26  1  0  0  0  0
 25 26  1  0  0  0  0
 26 23  1  1  0  0  0
 27 31  1  0  0  0  0
 28 29  1  0  0  0  0
 29 27  1  0  0  0  0
 30 29  2  0  0  0  0
 31 35  1  0  0  0  0
 33 34  1  0  0  0  0
 33 31  1  0  0  0  0
 34 36  1  0  0  0  0
 35 32  1  0  0  0  0
 35 37  1  1  0  0  0
 36 32  1  0  0  0  0
 37 38  1  0  0  0  0
 38 43  1  0  0  0  0
 38 42  1  0  0  0  0
 40 39  1  0  0  0  0
 41 39  1  0  0  0  0
 42 40  1  0  0  0  0
 43 41  1  0  0  0  0
M  END
>  <MODEL>
4

>  <REMARK>
 VINA RESULT:      -7.8      3.218      8.352
  Name = 
  10 active torsions:
  status: ('A' for Active; 'I' for Inactive)
    1  A    between atoms: C_1  and  C_34
    2  A    between atoms: C_1  and  C_35
    3  A    between atoms: C_2  and  N_6
    4  A    between atoms: N_3  and  N_4
    5  A    between atoms: C_8  and  C_34
    6  A    between atoms: N_11  and  C_14
    7  A    between atoms: C_13  and  N_27
    8  A    between atoms: C_14  and  C_41
    9  A    between atoms: C_19  and  C_25
   10  A    between atoms: N_27  and  C_30
                            x       y       z     vdW  Elec       q    Type
                         _______ _______ _______ _____ _____    ______ ____

>  <TORSDO>
F 10

$$$$
=
 OpenBabel10262422403D

 43 48  0  0  1  0  0  0  0  0999 V2000
  189.3910  177.8120  147.1400 C   0  0  0  0  0  0  0  0  0  0  0  0
  187.3710  177.5030  142.4210 C   0  0  1  0  0  3  0  0  0  0  0  0
  188.0470  177.1240  145.2460 C   0  0  0  0  0  0  0  0  0  0  0  0
  190.3620  178.3160  146.2690 C   0  0  0  0  0  3  0  0  0  0  0  0
  189.5670  177.9080  148.4770 F   0  0  0  0  0  0  0  0  0  0  0  0
  189.0270  177.6230  144.3690 C   0  0  0  0  0  0  0  0  0  0  0  0
  188.2310  177.2150  146.6290 C   0  0  0  0  0  3  0  0  0  0  0  0
  190.1830  178.2160  144.8870 C   0  0  0  0  0  3  0  0  0  0  0  0
  188.8590  177.4890  142.8800 C   0  0  1  0  0  3  0  0  0  0  0  0
  186.3130  177.3740  143.5330 C   0  0  0  0  0  2  0  0  0  0  0  0
  186.8080  176.5090  144.6900 C   0  0  0  0  0  2  0  0  0  0  0  0
  187.0340  178.6470  141.4530 C   0  0  2  0  0  3  0  0  0  0  0  0
  188.0980  179.5420  141.3230 O   0  0  0  0  0  1  0  0  0  0  0  0
  185.7130  179.3810  141.7290 C   0  0  0  0  0  2  0  0  0  0  0  0
  182.6330  177.8030  140.1800 C   0  0  0  0  0  3  0  0  0  0  0  0
  182.5500  178.5240  138.9870 C   0  0  0  0  0  0  0  0  0  0  0  0
  184.5050  179.7510  139.6080 N   0  0  0  0  0  0  0  0  0  0  0  0
  183.6620  178.0720  141.0840 C   0  0  0  0  0  3  0  0  0  0  0  0
  184.6100  179.0530  140.7740 C   0  0  0  0  0  0  0  0  0  0  0  0
  183.5050  179.5080  138.7180 C   0  0  0  0  0  3  0  0  0  0  0  0
  181.4780  178.2230  138.0010 C   0  0  0  0  0  2  0  0  0  0  0  0
  181.1790  179.4500  137.1620 C   0  0  0  0  0  1  0  0  0  0  0  0
  189.5030  176.2570  142.4350 N   0  0  0  0  0  2  0  0  0  0  0  0
  191.4850  176.6000  140.9590 C   0  0  1  0  0  3  0  0  0  0  0  0
  191.2100  177.8480  141.7700 C   0  0  0  0  0  2  0  0  0  0  0  0
  190.9420  176.4900  142.3870 C   0  0  1  0  0  3  0  0  0  0  0  0
  189.6670  176.4050  137.5990 N   0  0  0  0  0  2  0  0  0  0  0  0
  190.4460  176.4390  139.9490 N   0  0  0  0  0  2  0  0  0  0  0  0
  190.7230  176.5380  138.5500 C   0  0  0  0  0  0  0  0  0  0  0  0
  191.8980  176.7460  138.1460 O   0  0  0  0  0  0  0  0  0  0  0  0
  188.3450  176.1460  137.9980 N   0  0  0  0  0  0  0  0  0  0  0  0
  186.4290  176.1520  136.4640 N   0  0  0  0  0  2  0  0  0  0  0  0
  187.7340  177.4330  138.3600 C   0  0  0  0  0  2  0  0  0  0  0  0
  187.4290  178.3020  137.1350 C   0  0  0  0  0  2  0  0  0  0  0  0
  187.6580  175.4690  136.8760 C   0  0  2  0  0  3  0  0  0  0  0  0
  186.8000  177.4860  136.0050 C   0  0  0  0  0  2  0  0  0  0  0  0
  187.3590  174.0150  137.2240 C   0  0  0  0  0  2  0  0  0  0  0  0
  186.0900  173.5970  136.6460 N   0  0  0  0  0  0  0  0  0  0  0  0
  184.2010  171.4680  136.1190 C   0  0  0  0  0  2  0  0  0  0  0  0
  183.9650  172.5070  137.2070 C   0  0  0  0  0  2  0  0  0  0  0  0
  185.1100  172.0310  135.0330 C   0  0  0  0  0  2  0  0  0  0  0  0
  185.3110  173.0030  137.7330 C   0  0  0  0  0  2  0  0  0  0  0  0
  186.3980  172.5500  135.6690 C   0  0  0  0  0  2  0  0  0  0  0  0
  1  5  1  0  0  0  0
  2 12  1  1  0  0  0
  2  9  1  0  0  0  0
  2 10  1  0  0  0  0
  3  7  2  0  0  0  0
  4  1  2  0  0  0  0
  6  8  2  0  0  0  0
  6  3  1  0  0  0  0
  7  1  1  0  0  0  0
  8  4  1  0  0  0  0
  9 23  1  1  0  0  0
  9  6  1  0  0  0  0
 10 11  1  0  0  0  0
 11  3  1  0  0  0  0
 12 13  1  1  0  0  0
 12 14  1  0  0  0  0
 15 18  1  0  0  0  0
 16 15  2  0  0  0  0
 17 19  1  0  0  0  0
 19 18  2  0  0  0  0
 19 14  1  0  0  0  0
 20 16  1  0  0  0  0
 20 17  2  0  0  0  0
 21 16  1  0  0  0  0
 22 21  1  0  0  0  0
 24 28  1  6  0  0  0
 24 25  1  0  0  0  0
 24 26  1  0  0  0  0
 25 26  1  0  0  0  0
 26 23  1  6  0  0  0
 27 31  1  0  0  0  0
 27 29  1  0  0  0  0
 29 28  1  0  0  0  0
 30 29  2  0  0  0  0
 31 33  1  0  0  0  0
 32 35  1  0  0  0  0
 34 33  1  0  0  0  0
 35 37  1  1  0  0  0
 35 31  1  0  0  0  0
 36 32  1  0  0  0  0
 36 34  1  0  0  0  0
 38 37  1  0  0  0  0
 38 42  1  0  0  0  0
 39 40  1  0  0  0  0
 40 42  1  0  0  0  0
 41 43  1  0  0  0  0
 41 39  1  0  0  0  0
 43 38  1  0  0  0  0
M  END
>  <MODEL>
5

>  <REMARK>
 VINA RESULT:      -7.4      2.025      6.857
  Name = 
  10 active torsions:
  status: ('A' for Active; 'I' for Inactive)
    1  A    between atoms: C_1  and  C_34
    2  A    between atoms: C_1  and  C_35
    3  A    between atoms: C_2  and  N_6
    4  A    between atoms: N_3  and  N_4
    5  A    between atoms: C_8  and  C_34
    6  A    between atoms: N_11  and  C_14
    7  A    between atoms: C_13  and  N_27
    8  A    between atoms: C_14  and  C_41
    9  A    between atoms: C_19  and  C_25
   10  A    between atoms: N_27  and  C_30
                            x       y       z     vdW  Elec       q    Type
                         _______ _______ _______ _____ _____    ______ ____

>  <TORSDO>
F 10

$$$$
=
 OpenBabel10262422403D

 43 48  0  0  1  0  0  0  0  0999 V2000
  194.3580  175.6060  136.0640 C   0  0  0  0  0  0  0  0  0  0  0  0
  189.4420  174.0990  135.9790 C   0  0  1  0  0  3  0  0  0  0  0  0
  191.9870  175.4940  135.5810 C   0  0  0  0  0  0  0  0  0  0  0  0
  194.1520  174.8890  137.2470 C   0  0  0  0  0  3  0  0  0  0  0  0
  195.6050  176.0000  135.7220 F   0  0  0  0  0  0  0  0  0  0  0  0
  191.7770  174.7800  136.7740 C   0  0  0  0  0  0  0  0  0  0  0  0
  193.2740  175.9090  135.2290 C   0  0  0  0  0  3  0  0  0  0  0  0
  192.8630  174.4820  137.6040 C   0  0  0  0  0  3  0  0  0  0  0  0
  190.3890  174.3680  137.1840 C   0  0  1  0  0  3  0  0  0  0  0  0
  189.9540  174.5450  134.5960 C   0  0  0  0  0  2  0  0  0  0  0  0
  190.8290  175.7930  134.6900 C   0  0  0  0  0  2  0  0  0  0  0  0
  188.8860  172.6680  135.9370 C   0  0  2  0  0  3  0  0  0  0  0  0
  188.3300  172.3680  134.6910 O   0  0  0  0  0  1  0  0  0  0  0  0
  187.9330  172.2930  137.0810 C   0  0  0  0  0  2  0  0  0  0  0  0
  184.2730  172.2600  136.0880 C   0  0  0  0  0  3  0  0  0  0  0  0
  183.8730  173.5170  136.5460 C   0  0  0  0  0  0  0  0  0  0  0  0
  186.0990  173.9290  137.3160 N   0  0  0  0  0  0  0  0  0  0  0  0
  185.5970  171.8490  136.2560 C   0  0  0  0  0  3  0  0  0  0  0  0
  186.5130  172.7110  136.8680 C   0  0  0  0  0  0  0  0  0  0  0  0
  184.8120  174.3460  137.1690 C   0  0  0  0  0  3  0  0  0  0  0  0
  182.4740  173.9800  136.3430 C   0  0  0  0  0  2  0  0  0  0  0  0
  181.9760  174.6970  137.5830 C   0  0  0  0  0  1  0  0  0  0  0  0
  189.8170  175.4010  138.0420 N   0  0  0  0  0  2  0  0  0  0  0  0
  187.9540  177.0570  138.1440 C   0  0  1  0  0  3  0  0  0  0  0  0
  189.0790  177.5830  137.2790 C   0  0  0  0  0  2  0  0  0  0  0  0
  188.7820  176.0960  137.2840 C   0  0  1  0  0  3  0  0  0  0  0  0
  189.1620  178.2220  141.5800 N   0  0  0  0  0  2  0  0  0  0  0  0
  188.3710  177.0640  139.5400 N   0  0  0  0  0  2  0  0  0  0  0  0
  188.7280  178.2690  140.2220 C   0  0  0  0  0  0  0  0  0  0  0  0
  188.6670  179.3790  139.6280 O   0  0  0  0  0  0  0  0  0  0  0  0
  189.2220  177.0130  142.2940 N   0  0  0  0  0  0  0  0  0  0  0  0
  190.1140  176.8130  144.5710 N   0  0  0  0  0  2  0  0  0  0  0  0
  190.5240  176.3940  142.0030 C   0  0  0  0  0  2  0  0  0  0  0  0
  191.6830  177.1180  142.6950 C   0  0  0  0  0  2  0  0  0  0  0  0
  189.0310  177.3230  143.7280 C   0  0  2  0  0  3  0  0  0  0  0  0
  191.3470  177.4660  144.1460 C   0  0  0  0  0  2  0  0  0  0  0  0
  187.6890  176.7940  144.2200 C   0  0  0  0  0  2  0  0  0  0  0  0
  186.8110  177.8900  144.6020 N   0  0  0  0  0  0  0  0  0  0  0  0
  184.1660  178.7810  145.3700 C   0  0  0  0  0  2  0  0  0  0  0  0
  185.2970  178.6370  146.3810 C   0  0  0  0  0  2  0  0  0  0  0  0
  184.7280  179.0230  143.9740 C   0  0  0  0  0  2  0  0  0  0  0  0
  186.2580  177.5470  145.9120 C   0  0  0  0  0  2  0  0  0  0  0  0
  185.7170  177.9120  143.6270 C   0  0  0  0  0  2  0  0  0  0  0  0
  1  4  1  0  0  0  0
  2 12  1  6  0  0  0
  2  9  1  0  0  0  0
  3  6  2  0  0  0  0
  4  8  2  0  0  0  0
  5  1  1  0  0  0  0
  6  9  1  0  0  0  0
  6  8  1  0  0  0  0
  7  3  1  0  0  0  0
  7  1  2  0  0  0  0
  9 23  1  1  0  0  0
 10 11  1  0  0  0  0
 10  2  1  0  0  0  0
 11  3  1  0  0  0  0
 12 13  1  6  0  0  0
 12 14  1  0  0  0  0
 15 18  2  0  0  0  0
 15 16  1  0  0  0  0
 16 20  2  0  0  0  0
 18 19  1  0  0  0  0
 19 14  1  0  0  0  0
 19 17  2  0  0  0  0
 20 17  1  0  0  0  0
 21 16  1  0  0  0  0
 21 22  1  0  0  0  0
 24 28  1  1  0  0  0
 25 26  1  0  0  0  0
 25 24  1  0  0  0  0
 26 23  1  1  0  0  0
 26 24  1  0  0  0  0
 27 31  1  0  0  0  0
 28 29  1  0  0  0  0
 29 27  1  0  0  0  0
 30 29  2  0  0  0  0
 31 35  1  0  0  0  0
 33 31  1  0  0  0  0
 33 34  1  0  0  0  0
 34 36  1  0  0  0  0
 35 37  1  1  0  0  0
 35 32  1  0  0  0  0
 36 32  1  0  0  0  0
 37 38  1  0  0  0  0
 38 42  1  0  0  0  0
 39 40  1  0  0  0  0
 41 39  1  0  0  0  0
 42 40  1  0  0  0  0
 43 41  1  0  0  0  0
 43 38  1  0  0  0  0
M  END
>  <MODEL>
6

>  <REMARK>
 VINA RESULT:      -7.2      2.925      5.110
  Name = 
  10 active torsions:
  status: ('A' for Active; 'I' for Inactive)
    1  A    between atoms: C_1  and  C_34
    2  A    between atoms: C_1  and  C_35
    3  A    between atoms: C_2  and  N_6
    4  A    between atoms: N_3  and  N_4
    5  A    between atoms: C_8  and  C_34
    6  A    between atoms: N_11  and  C_14
    7  A    between atoms: C_13  and  N_27
    8  A    between atoms: C_14  and  C_41
    9  A    between atoms: C_19  and  C_25
   10  A    between atoms: N_27  and  C_30
                            x       y       z     vdW  Elec       q    Type
                         _______ _______ _______ _____ _____    ______ ____

>  <TORSDO>
F 10

$$$$
=
 OpenBabel10262422403D

 43 48  0  0  1  0  0  0  0  0999 V2000
  183.8030  178.8480  143.5190 C   0  0  0  0  0  0  0  0  0  0  0  0
  180.3000  178.6730  139.7580 C   0  0  1  0  0  3  0  0  0  0  0  0
  181.6960  178.7010  142.3340 C   0  0  0  0  0  0  0  0  0  0  0  0
  184.4740  178.3800  142.3860 C   0  0  0  0  0  3  0  0  0  0  0  0
  184.4970  179.1530  144.6390 F   0  0  0  0  0  0  0  0  0  0  0  0
  182.3690  178.2220  141.1960 C   0  0  0  0  0  0  0  0  0  0  0  0
  182.4110  179.0100  143.4940 C   0  0  0  0  0  3  0  0  0  0  0  0
  183.7580  178.0610  141.2290 C   0  0  0  0  0  3  0  0  0  0  0  0
  181.6030  177.8440  139.9580 C   0  0  1  0  0  3  0  0  0  0  0  0
  179.8500  179.5330  140.9540 C   0  0  0  0  0  2  0  0  0  0  0  0
  180.2170  178.8880  142.2880 C   0  0  0  0  0  2  0  0  0  0  0  0
  180.2700  179.4730  138.4480 C   0  0  2  0  0  3  0  0  0  0  0  0
  180.2560  178.6330  137.3320 O   0  0  0  0  0  1  0  0  0  0  0  0
  181.3400  180.5660  138.3130 C   0  0  0  0  0  2  0  0  0  0  0  0
  181.0650  184.2530  137.4720 C   0  0  0  0  0  3  0  0  0  0  0  0
  179.7210  184.4830  137.7690 C   0  0  0  0  0  0  0  0  0  0  0  0
  179.4850  182.1920  138.4090 N   0  0  0  0  0  0  0  0  0  0  0  0
  181.6070  182.9780  137.6460 C   0  0  0  0  0  3  0  0  0  0  0  0
  180.7970  181.9480  138.1340 C   0  0  0  0  0  0  0  0  0  0  0  0
  178.9360  183.4260  138.2380 C   0  0  0  0  0  3  0  0  0  0  0  0
  179.1410  185.8450  137.6190 C   0  0  0  0  0  2  0  0  0  0  0  0
  179.0150  186.5120  138.9750 C   0  0  0  0  0  1  0  0  0  0  0  0
  181.2810  176.4220  140.0090 N   0  0  0  0  0  2  0  0  0  0  0  0
  179.3230  175.1530  139.1240 C   0  0  1  0  0  3  0  0  0  0  0  0
  179.4570  174.9420  140.6160 C   0  0  0  0  0  2  0  0  0  0  0  0
  179.8280  176.2860  140.0230 C   0  0  1  0  0  3  0  0  0  0  0  0
  181.6480  173.8290  136.3910 N   0  0  0  0  0  2  0  0  0  0  0  0
  180.4030  174.4560  138.4370 N   0  0  0  0  0  2  0  0  0  0  0  0
  180.5960  174.5560  137.0240 C   0  0  0  0  0  0  0  0  0  0  0  0
  179.8380  175.2810  136.3270 O   0  0  0  0  0  0  0  0  0  0  0  0
  182.5360  173.0270  137.1270 N   0  0  0  0  0  0  0  0  0  0  0  0
  184.4980  171.9160  136.1580 N   0  0  0  0  0  2  0  0  0  0  0  0
  182.0390  171.6450  137.0630 C   0  0  0  0  0  2  0  0  0  0  0  0
  182.2570  171.0090  135.6850 C   0  0  0  0  0  2  0  0  0  0  0  0
  183.8850  173.1900  136.5410 C   0  0  2  0  0  3  0  0  0  0  0  0
  183.6520  171.3110  135.1360 C   0  0  0  0  0  2  0  0  0  0  0  0
  184.8010  173.9470  137.4970 C   0  0  0  0  0  2  0  0  0  0  0  0
  185.0060  175.3140  137.0410 N   0  0  0  0  0  0  0  0  0  0  0  0
  185.9180  177.9980  137.6220 C   0  0  0  0  0  2  0  0  0  0  0  0
  186.7350  177.0330  136.7720 C   0  0  0  0  0  2  0  0  0  0  0  0
  184.4380  177.6420  137.5590 C   0  0  0  0  0  2  0  0  0  0  0  0
  186.4320  175.5990  137.2030 C   0  0  0  0  0  2  0  0  0  0  0  0
  184.2520  176.1780  137.9520 C   0  0  0  0  0  2  0  0  0  0  0  0
  1  5  1  0  0  0  0
  2 12  1  6  0  0  0
  2  9  1  0  0  0  0
  2 10  1  0  0  0  0
  3  7  2  0  0  0  0
  4  1  2  0  0  0  0
  6  8  2  0  0  0  0
  6  3  1  0  0  0  0
  7  1  1  0  0  0  0
  8  4  1  0  0  0  0
  9 23  1  1  0  0  0
  9  6  1  0  0  0  0
 10 11  1  0  0  0  0
 11  3  1  0  0  0  0
 12 13  1  6  0  0  0
 14 12  1  0  0  0  0
 15 18  2  0  0  0  0
 15 16  1  0  0  0  0
 16 20  2  0  0  0  0
 18 19  1  0  0  0  0
 19 14  1  0  0  0  0
 19 17  2  0  0  0  0
 20 17  1  0  0  0  0
 21 16  1  0  0  0  0
 21 22  1  0  0  0  0
 24 28  1  6  0  0  0
 24 26  1  0  0  0  0
 24 25  1  0  0  0  0
 26 23  1  6  0  0  0
 26 25  1  0  0  0  0
 27 29  1  0  0  0  0
 27 31  1  0  0  0  0
 29 28  1  0  0  0  0
 30 29  2  0  0  0  0
 32 35  1  0  0  0  0
 33 31  1  0  0  0  0
 34 33  1  0  0  0  0
 35 31  1  0  0  0  0
 35 37  1  1  0  0  0
 36 34  1  0  0  0  0
 36 32  1  0  0  0  0
 38 42  1  0  0  0  0
 38 37  1  0  0  0  0
 38 43  1  0  0  0  0
 40 42  1  0  0  0  0
 40 39  1  0  0  0  0
 41 39  1  0  0  0  0
 41 43  1  0  0  0  0
M  END
>  <MODEL>
7

>  <REMARK>
 VINA RESULT:      -7.1      4.418      9.715
  Name = 
  10 active torsions:
  status: ('A' for Active; 'I' for Inactive)
    1  A    between atoms: C_1  and  C_34
    2  A    between atoms: C_1  and  C_35
    3  A    between atoms: C_2  and  N_6
    4  A    between atoms: N_3  and  N_4
    5  A    between atoms: C_8  and  C_34
    6  A    between atoms: N_11  and  C_14
    7  A    between atoms: C_13  and  N_27
    8  A    between atoms: C_14  and  C_41
    9  A    between atoms: C_19  and  C_25
   10  A    between atoms: N_27  and  C_30
                            x       y       z     vdW  Elec       q    Type
                         _______ _______ _______ _____ _____    ______ ____

>  <TORSDO>
F 10

$$$$
=
 OpenBabel10262422403D

 43 48  0  0  1  0  0  0  0  0999 V2000
  184.7660  178.8370  144.4560 C   0  0  0  0  0  0  0  0  0  0  0  0
  180.4960  179.2740  141.6240 C   0  0  1  0  0  3  0  0  0  0  0  0
  182.4760  178.6470  143.6900 C   0  0  0  0  0  0  0  0  0  0  0  0
  185.1930  179.0220  143.1370 C   0  0  0  0  0  3  0  0  0  0  0  0
  185.6660  178.8460  145.4650 F   0  0  0  0  0  0  0  0  0  0  0  0
  182.9050  178.8250  142.3620 C   0  0  0  0  0  0  0  0  0  0  0  0
  183.4060  178.6490  144.7340 C   0  0  0  0  0  3  0  0  0  0  0  0
  184.2650  179.0100  142.0920 C   0  0  0  0  0  3  0  0  0  0  0  0
  181.9180  178.7790  141.2280 C   0  0  1  0  0  3  0  0  0  0  0  0
  180.2360  179.4670  143.1310 C   0  0  0  0  0  2  0  0  0  0  0  0
  181.0240  178.4680  143.9750 C   0  0  0  0  0  2  0  0  0  0  0  0
  180.0130  180.4840  140.8110 C   0  0  2  0  0  3  0  0  0  0  0  0
  179.2980  181.3840  141.6040 O   0  0  0  0  0  1  0  0  0  0  0  0
  179.2560  180.1530  139.5160 C   0  0  0  0  0  2  0  0  0  0  0  0
  179.6570  183.1130  137.1810 C   0  0  0  0  0  3  0  0  0  0  0  0
  180.4170  182.5350  136.1630 C   0  0  0  0  0  0  0  0  0  0  0  0
  180.3870  180.4550  137.3430 N   0  0  0  0  0  0  0  0  0  0  0  0
  179.2700  182.3460  138.2810 C   0  0  0  0  0  3  0  0  0  0  0  0
  179.6370  180.9980  138.3420 C   0  0  0  0  0  0  0  0  0  0  0  0
  180.7810  181.1880  136.2660 C   0  0  0  0  0  3  0  0  0  0  0  0
  180.8070  183.3330  134.9700 C   0  0  0  0  0  2  0  0  0  0  0  0
  180.7870  184.8130  135.3020 C   0  0  0  0  0  1  0  0  0  0  0  0
  181.8420  177.4160  140.7140 N   0  0  0  0  0  2  0  0  0  0  0  0
  180.2700  176.4520  139.0330 C   0  0  1  0  0  3  0  0  0  0  0  0
  180.2540  175.6280  140.3020 C   0  0  0  0  0  2  0  0  0  0  0  0
  180.4470  177.1280  140.3960 C   0  0  1  0  0  3  0  0  0  0  0  0
  182.8640  175.8440  136.2880 N   0  0  0  0  0  2  0  0  0  0  0  0
  181.5350  176.2480  138.3380 N   0  0  0  0  0  2  0  0  0  0  0  0
  181.6050  176.0740  136.9210 C   0  0  0  0  0  0  0  0  0  0  0  0
  180.5590  176.1180  136.2210 O   0  0  0  0  0  0  0  0  0  0  0  0
  184.0620  175.8130  137.0210 N   0  0  0  0  0  0  0  0  0  0  0  0
  186.2170  175.1060  136.0860 N   0  0  0  0  0  2  0  0  0  0  0  0
  184.1740  174.4770  137.6250 C   0  0  0  0  0  2  0  0  0  0  0  0
  184.5170  173.3960  136.5940 C   0  0  0  0  0  2  0  0  0  0  0  0
  185.1700  176.1280  136.0920 C   0  0  2  0  0  3  0  0  0  0  0  0
  185.6130  173.8590  135.6320 C   0  0  0  0  0  2  0  0  0  0  0  0
  185.7700  177.4930  136.4120 C   0  0  0  0  0  2  0  0  0  0  0  0
  186.9510  177.3530  137.2520 N   0  0  0  0  0  0  0  0  0  0  0  0
  189.0020  178.6160  138.8570 C   0  0  0  0  0  2  0  0  0  0  0  0
  187.8220  177.8830  139.4830 C   0  0  0  0  0  2  0  0  0  0  0  0
  189.2850  178.0750  137.4600 C   0  0  0  0  0  2  0  0  0  0  0  0
  186.6220  177.9600  138.5410 C   0  0  0  0  0  2  0  0  0  0  0  0
  188.0100  178.1440  136.6220 C   0  0  0  0  0  2  0  0  0  0  0  0
  1  7  1  0  0  0  0
  1  5  1  0  0  0  0
  2 12  1  6  0  0  0
  2 10  1  0  0  0  0
  3 11  1  0  0  0  0
  3  7  2  0  0  0  0
  4  1  2  0  0  0  0
  6  3  1  0  0  0  0
  8  6  2  0  0  0  0
  8  4  1  0  0  0  0
  9 23  1  1  0  0  0
  9  2  1  0  0  0  0
  9  6  1  0  0  0  0
 10 11  1  0  0  0  0
 12 13  1  1  0  0  0
 14 12  1  0  0  0  0
 15 18  1  0  0  0  0
 16 20  1  0  0  0  0
 16 15  2  0  0  0  0
 17 19  1  0  0  0  0
 18 19  2  0  0  0  0
 19 14  1  0  0  0  0
 20 17  2  0  0  0  0
 21 22  1  0  0  0  0
 21 16  1  0  0  0  0
 24 28  1  6  0  0  0
 24 25  1  0  0  0  0
 24 26  1  0  0  0  0
 25 26  1  0  0  0  0
 26 23  1  6  0  0  0
 27 29  1  0  0  0  0
 27 31  1  0  0  0  0
 29 28  1  0  0  0  0
 30 29  2  0  0  0  0
 31 33  1  0  0  0  0
 32 35  1  0  0  0  0
 34 33  1  0  0  0  0
 35 37  1  1  0  0  0
 35 31  1  0  0  0  0
 36 32  1  0  0  0  0
 36 34  1  0  0  0  0
 37 38  1  0  0  0  0
 38 42  1  0  0  0  0
 39 40  1  0  0  0  0
 41 39  1  0  0  0  0
 42 40  1  0  0  0  0
 43 38  1  0  0  0  0
 43 41  1  0  0  0  0
M  END
>  <MODEL>
8

>  <REMARK>
 VINA RESULT:      -7.1      3.443      8.984
  Name = 
  10 active torsions:
  status: ('A' for Active; 'I' for Inactive)
    1  A    between atoms: C_1  and  C_34
    2  A    between atoms: C_1  and  C_35
    3  A    between atoms: C_2  and  N_6
    4  A    between atoms: N_3  and  N_4
    5  A    between atoms: C_8  and  C_34
    6  A    between atoms: N_11  and  C_14
    7  A    between atoms: C_13  and  N_27
    8  A    between atoms: C_14  and  C_41
    9  A    between atoms: C_19  and  C_25
   10  A    between atoms: N_27  and  C_30
                            x       y       z     vdW  Elec       q    Type
                         _______ _______ _______ _____ _____    ______ ____

>  <TORSDO>
F 10

$$$$
=
 OpenBabel10262422403D

 43 48  0  0  1  0  0  0  0  0999 V2000
  191.1060  177.5420  144.8050 C   0  0  0  0  0  0  0  0  0  0  0  0
  186.6520  177.7660  142.2450 C   0  0  1  0  0  3  0  0  0  0  0  0
  188.9290  176.9740  143.9090 C   0  0  0  0  0  0  0  0  0  0  0  0
  191.3150  178.4250  143.7410 C   0  0  0  0  0  3  0  0  0  0  0  0
  192.0550  177.3960  145.7580 F   0  0  0  0  0  0  0  0  0  0  0  0
  189.1410  177.8550  142.8330 C   0  0  0  0  0  0  0  0  0  0  0  0
  189.9110  176.8150  144.8910 C   0  0  0  0  0  3  0  0  0  0  0  0
  190.3380  178.5760  142.7540 C   0  0  0  0  0  3  0  0  0  0  0  0
  188.1100  177.9980  141.7480 C   0  0  1  0  0  3  0  0  0  0  0  0
  186.5000  177.1710  143.6570 C   0  0  0  0  0  2  0  0  0  0  0  0
  187.6460  176.2210  144.0000 C   0  0  0  0  0  2  0  0  0  0  0  0
  185.7300  178.9780  142.0430 C   0  0  2  0  0  3  0  0  0  0  0  0
  186.4540  180.1270  141.7190 O   0  0  0  0  0  1  0  0  0  0  0  0
  184.7300  179.2460  143.1780 C   0  0  0  0  0  2  0  0  0  0  0  0
  181.6020  178.4160  141.2030 C   0  0  0  0  0  3  0  0  0  0  0  0
  180.6260  178.5890  142.1860 C   0  0  0  0  0  0  0  0  0  0  0  0
  182.3300  179.1840  143.7530 N   0  0  0  0  0  0  0  0  0  0  0  0
  182.9460  178.6280  141.5130 C   0  0  0  0  0  3  0  0  0  0  0  0
  183.2980  179.0300  142.8060 C   0  0  0  0  0  0  0  0  0  0  0  0
  181.0150  178.9750  143.4720 C   0  0  0  0  0  3  0  0  0  0  0  0
  179.1880  178.3980  141.8580 C   0  0  0  0  0  2  0  0  0  0  0  0
  179.0440  177.5490  140.6100 C   0  0  0  0  0  1  0  0  0  0  0  0
  188.4180  177.0670  140.6680 N   0  0  0  0  0  2  0  0  0  0  0  0
  189.1010  177.8350  138.3950 C   0  0  1  0  0  3  0  0  0  0  0  0
  189.0560  179.0040  139.3540 C   0  0  0  0  0  2  0  0  0  0  0  0
  189.4900  177.6450  139.8640 C   0  0  1  0  0  3  0  0  0  0  0  0
  185.7390  177.2690  136.6620 N   0  0  0  0  0  2  0  0  0  0  0  0
  187.7430  177.3890  138.1100 N   0  0  0  0  0  2  0  0  0  0  0  0
  187.0810  177.7000  136.8820 C   0  0  0  0  0  0  0  0  0  0  0  0
  187.6740  178.3600  135.9880 O   0  0  0  0  0  0  0  0  0  0  0  0
  185.0430  176.5080  137.6160 N   0  0  0  0  0  0  0  0  0  0  0  0
  182.8770  175.4360  137.1950 N   0  0  0  0  0  2  0  0  0  0  0  0
  184.1590  177.4250  138.3510 C   0  0  0  0  0  2  0  0  0  0  0  0
  182.9590  177.8780  137.5120 C   0  0  0  0  0  2  0  0  0  0  0  0
  184.3110  175.4410  136.8990 C   0  0  2  0  0  3  0  0  0  0  0  0
  182.3310  176.7120  136.7470 C   0  0  0  0  0  2  0  0  0  0  0  0
  184.9140  174.0740  137.2040 C   0  0  0  0  0  2  0  0  0  0  0  0
  186.3070  174.0190  136.7830 N   0  0  0  0  0  0  0  0  0  0  0  0
  188.3910  172.6410  135.3220 C   0  0  0  0  0  2  0  0  0  0  0  0
  187.7290  173.9050  134.7880 C   0  0  0  0  0  2  0  0  0  0  0  0
  188.3020  172.5960  136.8430 C   0  0  0  0  0  2  0  0  0  0  0  0
  186.3000  173.9910  135.3200 C   0  0  0  0  0  2  0  0  0  0  0  0
  186.8440  172.7470  137.2700 C   0  0  0  0  0  2  0  0  0  0  0  0
  1  7  1  0  0  0  0
  1  5  1  0  0  0  0
  2 12  1  1  0  0  0
  2 10  1  0  0  0  0
  3 11  1  0  0  0  0
  3  7  2  0  0  0  0
  4  1  2  0  0  0  0
  6  3  1  0  0  0  0
  8  6  2  0  0  0  0
  8  4  1  0  0  0  0
  9 23  1  6  0  0  0
  9  2  1  0  0  0  0
  9  6  1  0  0  0  0
 10 11  1  0  0  0  0
 12 13  1  1  0  0  0
 12 14  1  0  0  0  0
 15 18  2  0  0  0  0
 15 16  1  0  0  0  0
 16 20  2  0  0  0  0
 18 19  1  0  0  0  0
 19 14  1  0  0  0  0
 19 17  2  0  0  0  0
 20 17  1  0  0  0  0
 21 16  1  0  0  0  0
 22 21  1  0  0  0  0
 24 28  1  1  0  0  0
 24 25  1  0  0  0  0
 24 26  1  0  0  0  0
 25 26  1  0  0  0  0
 26 23  1  1  0  0  0
 27 29  1  0  0  0  0
 27 31  1  0  0  0  0
 29 28  1  0  0  0  0
 30 29  2  0  0  0  0
 31 33  1  0  0  0  0
 34 33  1  0  0  0  0
 35 32  1  0  0  0  0
 35 37  1  1  0  0  0
 35 31  1  0  0  0  0
 36 32  1  0  0  0  0
 36 34  1  0  0  0  0
 38 37  1  0  0  0  0
 38 43  1  0  0  0  0
 39 41  1  0  0  0  0
 40 42  1  0  0  0  0
 40 39  1  0  0  0  0
 41 43  1  0  0  0  0
 42 38  1  0  0  0  0
M  END
>  <MODEL>
9

>  <REMARK>
 VINA RESULT:      -7.0      2.131      6.835
  Name = 
  10 active torsions:
  status: ('A' for Active; 'I' for Inactive)
    1  A    between atoms: C_1  and  C_34
    2  A    between atoms: C_1  and  C_35
    3  A    between atoms: C_2  and  N_6
    4  A    between atoms: N_3  and  N_4
    5  A    between atoms: C_8  and  C_34
    6  A    between atoms: N_11  and  C_14
    7  A    between atoms: C_13  and  N_27
    8  A    between atoms: C_14  and  C_41
    9  A    between atoms: C_19  and  C_25
   10  A    between atoms: N_27  and  C_30
                            x       y       z     vdW  Elec       q    Type
                         _______ _______ _______ _____ _____    ______ ____

>  <TORSDO>
F 10

$$$$
