=
 OpenBabel10262422533D

 37 39  0  0  1  0  0  0  0  0999 V2000
  184.4850  176.0030  137.5200 C   0  0  1  0  0  3  0  0  0  0  0  0
  186.5610  175.4580  135.0040 C   0  0  0  0  0  2  0  0  0  0  0  0
  189.0260  176.5690  138.5390 C   0  0  0  0  0  3  0  0  0  0  0  0
  182.0170  177.3360  136.9300 O   0  0  0  0  0  0  0  0  0  0  0  0
  184.3990  178.9360  141.6300 C   0  0  0  0  0  2  0  0  0  0  0  0
  188.7920  177.7140  135.6900 C   0  0  0  0  0  3  0  0  0  0  0  0
  182.6630  177.8230  140.1620 C   0  0  0  0  0  2  0  0  0  0  0  0
  182.8670  179.9960  139.2580 O   0  0  0  0  0  1  0  0  0  0  0  0
  181.4520  175.1360  136.6790 O   0  0  0  0  0  1  0  0  0  0  0  0
  189.0400  175.9010  137.3860 C   0  0  0  0  0  3  0  0  0  0  0  0
  186.7020  178.1720  141.6650 C   0  0  0  0  0  0  0  0  0  0  0  0
  189.3270  178.8230  136.5050 C   0  0  0  0  0  3  0  0  0  0  0  0
  181.8370  178.4110  137.8340 C   0  0  2  0  0  3  0  0  0  0  0  0
  184.6170  175.2330  136.3600 O   0  0  0  0  0  0  0  0  0  0  0  0
  188.6950  174.0970  135.0830 C   0  0  0  0  0  1  0  0  0  0  0  0
  188.5700  178.4140  140.1330 C   0  0  0  0  0  2  0  0  0  0  0  0
  181.8780  176.1000  137.5920 C   0  0  1  0  0  3  0  0  0  0  0  0
  189.2330  178.9250  137.8300 C   0  0  0  0  0  3  0  0  0  0  0  0
  185.9730  174.9050  136.2940 C   0  0  0  0  0  2  0  0  0  0  0  0
  182.9550  178.6530  138.8920 C   0  0  2  0  0  0  0  0  0  0  0  0
  183.8500  177.6160  141.1050 C   0  0  0  0  0  2  0  0  0  0  0  0
  188.4820  177.9560  138.6830 C   0  0  1  0  0  3  0  0  0  0  0  0
  184.6170  177.4940  137.1830 C   0  0  0  0  0  2  0  0  0  0  0  0
  188.6250  176.4360  136.0640 C   0  0  0  0  0  0  0  0  0  0  0  0
  185.7070  178.7230  142.3190 C   0  0  0  0  0  0  0  0  0  0  0  0
  188.0880  175.4940  135.0210 C   0  0  2  0  0  3  0  0  0  0  0  0
  184.4030  178.4320  138.3720 C   0  0  0  0  0  2  0  0  0  0  0  0
  180.5480  178.4220  138.3820 O   0  0  0  0  0  1  0  0  0  0  0  0
  183.1880  175.6330  138.2510 C   0  0  0  0  0  2  0  0  0  0  0  0
  187.6740  177.6030  141.0090 C   0  0  0  0  0  3  0  0  0  0  0  0
  185.8410  179.1370  143.6510 O   0  0  0  0  0  0  0  0  0  0  0  0
  185.2900  178.4280  144.7600 C   0  0  1  0  0  3  0  0  0  0  0  0
  185.4370  179.4460  146.9240 O   0  0  0  0  0  1  0  0  0  0  0  0
  187.3070  178.3190  146.2230 O   0  0  0  0  0  0  0  0  0  0  0  0
  186.0100  178.7750  146.0250 C   0  0  0  0  0  0  0  0  0  0  0  0
  182.6980  179.0310  145.0040 C   0  0  0  0  0  3  0  0  0  0  0  0
  183.8680  178.7580  144.8940 C   0  0  0  0  0  0  0  0  0  0  0  0
  1 23  1  6  0  0  0
  1 29  1  0  0  0  0
  2 26  1  0  0  0  0
  2 19  1  0  0  0  0
  3 22  1  0  0  0  0
  4 17  1  0  0  0  0
  4 13  1  0  0  0  0
  5 25  1  0  0  0  0
  6 24  2  0  0  0  0
  6 12  1  0  0  0  0
  7 21  1  0  0  0  0
 10  3  2  0  0  0  0
 11 25  2  0  0  0  0
 12 18  2  0  0  0  0
 13 28  1  1  0  0  0
 13 20  1  0  0  0  0
 14  1  1  0  0  0  0
 16 30  1  0  0  0  0
 17  9  1  6  0  0  0
 17 29  1  0  0  0  0
 19 14  1  0  0  0  0
 20  8  1  1  0  0  0
 20  7  1  0  0  0  0
 21  5  1  0  0  0  0
 22 18  1  6  0  0  0
 22 16  1  0  0  0  0
 23 27  1  0  0  0  0
 24 10  1  0  0  0  0
 25 31  1  0  0  0  0
 26 15  1  1  0  0  0
 26 24  1  0  0  0  0
 27 20  1  0  0  0  0
 30 11  2  0  0  0  0
 31 32  1  0  0  0  0
 32 37  1  1  0  0  0
 32 35  1  0  0  0  0
 35 34  2  0  0  0  0
 35 33  1  0  0  0  0
 37 36  3  0  0  0  0
M  END
>  <MODEL>
1

>  <REMARK>
 VINA RESULT:      -7.1      0.000      0.000
  Name = 
  4 active torsions:
  status: ('A' for Active; 'I' for Inactive)
    1  A    between atoms: O_6  and  C_8
    2  A    between atoms: O_6  and  C_31
    3  A    between atoms: C_8  and  C_19
    4  A    between atoms: C_8  and  C_35
                            x       y       z     vdW  Elec       q    Type
                         _______ _______ _______ _____ _____    ______ ____

>  <TORSDO>
F 4

$$$$
=
 OpenBabel10262422533D

 37 39  0  0  1  0  0  0  0  0999 V2000
  184.2200  176.2750  137.6120 C   0  0  1  0  0  3  0  0  0  0  0  0
  185.9530  175.7470  134.8450 C   0  0  0  0  0  2  0  0  0  0  0  0
  188.8780  176.3980  138.1370 C   0  0  0  0  0  3  0  0  0  0  0  0
  181.8300  177.8420  137.3930 O   0  0  0  0  0  0  0  0  0  0  0  0
  184.8430  178.9020  141.8800 C   0  0  0  0  0  2  0  0  0  0  0  0
  188.4360  177.7600  135.4100 C   0  0  0  0  0  3  0  0  0  0  0  0
  182.8650  178.0420  140.5540 C   0  0  0  0  0  2  0  0  0  0  0  0
  183.1600  180.2500  139.7700 O   0  0  0  0  0  1  0  0  0  0  0  0
  181.0490  175.7190  137.0730 O   0  0  0  0  0  1  0  0  0  0  0  0
  188.7070  175.8150  136.9500 C   0  0  0  0  0  3  0  0  0  0  0  0
  187.0590  177.9540  141.6030 C   0  0  0  0  0  0  0  0  0  0  0  0
  189.1530  178.7600  136.2260 C   0  0  0  0  0  3  0  0  0  0  0  0
  181.8450  178.8600  138.3770 C   0  0  2  0  0  3  0  0  0  0  0  0
  184.1560  175.5830  136.3980 O   0  0  0  0  0  0  0  0  0  0  0  0
  187.9550  174.2150  134.5940 C   0  0  0  0  0  1  0  0  0  0  0  0
  188.7630  178.1540  139.8850 C   0  0  0  0  0  2  0  0  0  0  0  0
  181.6560  176.5770  137.9890 C   0  0  1  0  0  3  0  0  0  0  0  0
  189.2130  178.7740  137.5570 C   0  0  0  0  0  3  0  0  0  0  0  0
  185.4630  175.1520  136.1570 C   0  0  0  0  0  2  0  0  0  0  0  0
  183.0890  178.9340  139.3140 C   0  0  2  0  0  0  0  0  0  0  0  0
  184.1240  177.6720  141.3400 C   0  0  0  0  0  2  0  0  0  0  0  0
  188.4770  177.8110  138.4290 C   0  0  1  0  0  3  0  0  0  0  0  0
  184.4460  177.7710  137.3560 C   0  0  0  0  0  2  0  0  0  0  0  0
  188.1980  176.4760  135.7210 C   0  0  0  0  0  0  0  0  0  0  0  0
  186.1940  178.5350  142.4000 C   0  0  0  0  0  0  0  0  0  0  0  0
  187.4700  175.6580  134.6900 C   0  0  2  0  0  3  0  0  0  0  0  0
  184.4460  178.6350  138.6180 C   0  0  0  0  0  2  0  0  0  0  0  0
  180.6290  178.9350  139.0700 O   0  0  0  0  0  1  0  0  0  0  0  0
  182.9830  175.9590  138.4620 C   0  0  0  0  0  2  0  0  0  0  0  0
  187.8990  177.3580  140.8050 C   0  0  0  0  0  3  0  0  0  0  0  0
  186.5080  178.8400  143.7310 O   0  0  0  0  0  0  0  0  0  0  0  0
  186.6340  177.8600  144.7600 C   0  0  1  0  0  3  0  0  0  0  0  0
  188.3020  178.0000  146.4750 O   0  0  0  0  0  1  0  0  0  0  0  0
  189.0650  177.4510  144.3830 O   0  0  0  0  0  0  0  0  0  0  0  0
  188.0420  177.7900  145.2590 C   0  0  0  0  0  0  0  0  0  0  0  0
  184.9900  178.4710  146.7780 C   0  0  0  0  0  3  0  0  0  0  0  0
  185.7320  178.1940  145.8670 C   0  0  0  0  0  0  0  0  0  0  0  0
  1 23  1  6  0  0  0
  1 29  1  0  0  0  0
  2 19  1  0  0  0  0
  3 22  1  0  0  0  0
  4 17  1  0  0  0  0
  4 13  1  0  0  0  0
  5 25  1  0  0  0  0
  6 24  2  0  0  0  0
  6 12  1  0  0  0  0
  7 21  1  0  0  0  0
 10  3  2  0  0  0  0
 11 25  2  0  0  0  0
 12 18  2  0  0  0  0
 13 28  1  1  0  0  0
 13 20  1  0  0  0  0
 14  1  1  0  0  0  0
 16 30  1  0  0  0  0
 17  9  1  6  0  0  0
 17 29  1  0  0  0  0
 19 14  1  0  0  0  0
 20  8  1  1  0  0  0
 20  7  1  0  0  0  0
 21  5  1  0  0  0  0
 22 18  1  6  0  0  0
 22 16  1  0  0  0  0
 23 27  1  0  0  0  0
 24 10  1  0  0  0  0
 25 31  1  0  0  0  0
 26 15  1  1  0  0  0
 26  2  1  0  0  0  0
 26 24  1  0  0  0  0
 27 20  1  0  0  0  0
 30 11  2  0  0  0  0
 31 32  1  0  0  0  0
 32 35  1  0  0  0  0
 32 37  1  1  0  0  0
 34 35  2  0  0  0  0
 35 33  1  0  0  0  0
 37 36  3  0  0  0  0
M  END
>  <MODEL>
2

>  <REMARK>
 VINA RESULT:      -6.7      0.998      1.149
  Name = 
  4 active torsions:
  status: ('A' for Active; 'I' for Inactive)
    1  A    between atoms: O_6  and  C_8
    2  A    between atoms: O_6  and  C_31
    3  A    between atoms: C_8  and  C_19
    4  A    between atoms: C_8  and  C_35
                            x       y       z     vdW  Elec       q    Type
                         _______ _______ _______ _____ _____    ______ ____

>  <TORSDO>
F 4

$$$$
=
 OpenBabel10262422533D

 37 39  0  0  1  0  0  0  0  0999 V2000
  184.1690  177.3100  139.5780 C   0  0  1  0  0  3  0  0  0  0  0  0
  184.7480  177.6140  136.3350 C   0  0  0  0  0  2  0  0  0  0  0  0
  188.6060  176.5320  138.2730 C   0  0  0  0  0  3  0  0  0  0  0  0
  182.3580  179.1800  140.7750 O   0  0  0  0  0  0  0  0  0  0  0  0
  186.7780  178.0090  143.8450 C   0  0  0  0  0  2  0  0  0  0  0  0
  187.7370  178.8710  136.4690 C   0  0  0  0  0  3  0  0  0  0  0  0
  184.3310  178.0170  143.1950 C   0  0  0  0  0  2  0  0  0  0  0  0
  184.9670  180.2880  143.0530 O   0  0  0  0  0  1  0  0  0  0  0  0
  180.9630  177.4770  140.1660 O   0  0  0  0  0  1  0  0  0  0  0  0
  187.9230  176.4720  137.1300 C   0  0  0  0  0  3  0  0  0  0  0  0
  188.4490  176.9170  142.4650 C   0  0  0  0  0  0  0  0  0  0  0  0
  188.9170  179.3710  137.2020 C   0  0  0  0  0  3  0  0  0  0  0  0
  182.9560  179.7380  141.9320 C   0  0  2  0  0  3  0  0  0  0  0  0
  183.5460  177.1450  138.3360 O   0  0  0  0  0  0  0  0  0  0  0  0
  186.0700  176.0100  134.8880 C   0  0  0  0  0  1  0  0  0  0  0  0
  189.5240  177.4940  140.3660 C   0  0  0  0  0  2  0  0  0  0  0  0
  182.0350  177.8260  140.9870 C   0  0  1  0  0  3  0  0  0  0  0  0
  189.3870  178.8730  138.3450 C   0  0  0  0  0  3  0  0  0  0  0  0
  184.5420  176.6470  137.4930 C   0  0  0  0  0  2  0  0  0  0  0  0
  184.3980  179.2670  142.2910 C   0  0  2  0  0  0  0  0  0  0  0  0
  185.6180  177.1950  143.2850 C   0  0  0  0  0  2  0  0  0  0  0  0
  188.7210  177.7720  139.1040 C   0  0  1  0  0  3  0  0  0  0  0  0
  184.7080  178.7410  139.7120 C   0  0  0  0  0  2  0  0  0  0  0  0
  187.2630  177.6150  136.4490 C   0  0  0  0  0  0  0  0  0  0  0  0
  188.0680  177.2760  143.6680 C   0  0  0  0  0  0  0  0  0  0  0  0
  186.0560  177.3650  135.5870 C   0  0  2  0  0  3  0  0  0  0  0  0
  185.3370  179.0540  141.0710 C   0  0  0  0  0  2  0  0  0  0  0  0
  182.0840  179.7260  143.0280 O   0  0  0  0  0  1  0  0  0  0  0  0
  183.2190  176.8850  140.7030 C   0  0  0  0  0  2  0  0  0  0  0  0
  188.8030  176.5480  141.2670 C   0  0  0  0  0  3  0  0  0  0  0  0
  188.8480  177.0060  144.8000 O   0  0  0  0  0  0  0  0  0  0  0  0
  189.6240  177.9910  145.4820 C   0  0  1  0  0  3  0  0  0  0  0  0
  189.7370  177.1440  147.7200 O   0  0  0  0  0  1  0  0  0  0  0  0
  191.6900  177.0600  146.5210 O   0  0  0  0  0  0  0  0  0  0  0  0
  190.3460  177.3890  146.6440 C   0  0  0  0  0  0  0  0  0  0  0  0
  191.3850  179.0680  143.7840 C   0  0  0  0  0  3  0  0  0  0  0  0
  190.5900  178.5830  144.5510 C   0  0  0  0  0  0  0  0  0  0  0  0
  1 23  1  1  0  0  0
  1 29  1  0  0  0  0
  2 19  1  0  0  0  0
  4 17  1  0  0  0  0
  4 13  1  0  0  0  0
  6 12  1  0  0  0  0
  7 21  1  0  0  0  0
 10  3  2  0  0  0  0
 11 25  2  0  0  0  0
 12 18  2  0  0  0  0
 13 20  1  0  0  0  0
 13 28  1  1  0  0  0
 14  1  1  0  0  0  0
 16 30  1  0  0  0  0
 17  9  1  6  0  0  0
 18 22  1  0  0  0  0
 19 14  1  0  0  0  0
 20  8  1  1  0  0  0
 20  7  1  0  0  0  0
 21  5  1  0  0  0  0
 22  3  1  6  0  0  0
 22 16  1  0  0  0  0
 23 27  1  0  0  0  0
 24  6  2  0  0  0  0
 24 10  1  0  0  0  0
 25  5  1  0  0  0  0
 25 31  1  0  0  0  0
 26 15  1  1  0  0  0
 26  2  1  0  0  0  0
 26 24  1  0  0  0  0
 27 20  1  0  0  0  0
 29 17  1  0  0  0  0
 30 11  2  0  0  0  0
 31 32  1  0  0  0  0
 32 37  1  6  0  0  0
 32 35  1  0  0  0  0
 34 35  2  0  0  0  0
 35 33  1  0  0  0  0
 36 37  3  0  0  0  0
M  END
>  <MODEL>
3

>  <REMARK>
 VINA RESULT:      -5.7      2.290      3.625
  Name = 
  4 active torsions:
  status: ('A' for Active; 'I' for Inactive)
    1  A    between atoms: O_6  and  C_8
    2  A    between atoms: O_6  and  C_31
    3  A    between atoms: C_8  and  C_19
    4  A    between atoms: C_8  and  C_35
                            x       y       z     vdW  Elec       q    Type
                         _______ _______ _______ _____ _____    ______ ____

>  <TORSDO>
F 4

$$$$
=
 OpenBabel10262422533D

 37 39  0  0  1  0  0  0  0  0999 V2000
  185.0790  173.1200  136.7520 C   0  0  1  0  0  3  0  0  0  0  0  0
  188.2110  173.0320  135.6930 C   0  0  0  0  0  2  0  0  0  0  0  0
  187.6180  176.9310  137.7550 C   0  0  0  0  0  3  0  0  0  0  0  0
  183.0730  172.0090  135.0320 O   0  0  0  0  0  0  0  0  0  0  0  0
  181.5810  176.6730  137.5510 C   0  0  0  0  0  2  0  0  0  0  0  0
  188.5770  176.1650  134.9300 C   0  0  0  0  0  3  0  0  0  0  0  0
  181.5610  174.1940  137.0430 C   0  0  0  0  0  2  0  0  0  0  0  0
  181.3570  175.2120  134.9210 O   0  0  0  0  0  1  0  0  0  0  0  0
  183.6640  170.2110  136.3120 O   0  0  0  0  0  1  0  0  0  0  0  0
  188.5320  176.0200  137.4210 C   0  0  0  0  0  3  0  0  0  0  0  0
  183.5500  177.7620  138.4600 C   0  0  0  0  0  0  0  0  0  0  0  0
  188.0800  177.5500  134.8040 C   0  0  0  0  0  3  0  0  0  0  0  0
  182.0160  172.9390  134.8820 C   0  0  2  0  0  3  0  0  0  0  0  0
  186.1220  172.2230  136.5010 O   0  0  0  0  0  0  0  0  0  0  0  0
  190.2670  173.6730  137.0260 C   0  0  0  0  0  1  0  0  0  0  0  0
  185.6730  178.4500  137.5060 C   0  0  0  0  0  2  0  0  0  0  0  0
  183.0900  171.4820  136.3380 C   0  0  1  0  0  3  0  0  0  0  0  0
  187.2350  178.1500  135.6420 C   0  0  0  0  0  3  0  0  0  0  0  0
  187.2820  172.8980  136.8910 C   0  0  0  0  0  2  0  0  0  0  0  0
  182.1520  174.3050  135.6210 C   0  0  2  0  0  0  0  0  0  0  0  0
  181.9890  175.2850  138.0250 C   0  0  0  0  0  2  0  0  0  0  0  0
  186.5930  177.4620  136.8010 C   0  0  1  0  0  3  0  0  0  0  0  0
  184.7750  173.9430  135.4920 C   0  0  0  0  0  2  0  0  0  0  0  0
  188.7500  175.4630  136.0610 C   0  0  0  0  0  0  0  0  0  0  0  0
  182.2410  177.7270  138.3790 C   0  0  0  0  0  0  0  0  0  0  0  0
  189.3060  174.0740  135.9130 C   0  0  2  0  0  3  0  0  0  0  0  0
  183.5890  174.8980  135.6330 C   0  0  0  0  0  2  0  0  0  0  0  0
  180.7630  172.3400  135.0620 O   0  0  0  0  0  1  0  0  0  0  0  0
  183.8690  172.3710  137.3240 C   0  0  0  0  0  2  0  0  0  0  0  0
  184.8490  177.7700  138.5480 C   0  0  0  0  0  3  0  0  0  0  0  0
  181.4360  178.6660  139.0390 O   0  0  0  0  0  0  0  0  0  0  0  0
  181.1440  178.6180  140.4340 C   0  0  1  0  0  3  0  0  0  0  0  0
  180.0130  180.6960  140.0550 O   0  0  0  0  0  0  0  0  0  0  0  0
  180.4410  180.1790  142.2470 O   0  0  0  0  0  1  0  0  0  0  0  0
  180.5120  179.8950  140.8900 C   0  0  0  0  0  0  0  0  0  0  0  0
  179.5000  176.5700  140.9330 C   0  0  0  0  0  3  0  0  0  0  0  0
  180.2420  177.4950  140.7070 C   0  0  0  0  0  0  0  0  0  0  0  0
  1 23  1  6  0  0  0
  1 29  1  0  0  0  0
  2 26  1  0  0  0  0
  2 19  1  0  0  0  0
  4 17  1  0  0  0  0
  5 21  1  0  0  0  0
  5 25  1  0  0  0  0
  6 24  2  0  0  0  0
  7 21  1  0  0  0  0
 10  3  2  0  0  0  0
 11 30  2  0  0  0  0
 12  6  1  0  0  0  0
 12 18  2  0  0  0  0
 13  4  1  0  0  0  0
 13 28  1  1  0  0  0
 13 20  1  0  0  0  0
 14  1  1  0  0  0  0
 14 19  1  0  0  0  0
 16 30  1  0  0  0  0
 17  9  1  6  0  0  0
 17 29  1  0  0  0  0
 20  8  1  6  0  0  0
 20 27  1  0  0  0  0
 20  7  1  0  0  0  0
 22 18  1  6  0  0  0
 22 16  1  0  0  0  0
 22  3  1  0  0  0  0
 23 27  1  0  0  0  0
 24 10  1  0  0  0  0
 25 11  2  0  0  0  0
 25 31  1  0  0  0  0
 26 24  1  0  0  0  0
 26 15  1  1  0  0  0
 31 32  1  0  0  0  0
 32 37  1  6  0  0  0
 32 35  1  0  0  0  0
 33 35  2  0  0  0  0
 35 34  1  0  0  0  0
 37 36  3  0  0  0  0
M  END
>  <MODEL>
4

>  <REMARK>
 VINA RESULT:      -5.6      3.380      4.841
  Name = 
  4 active torsions:
  status: ('A' for Active; 'I' for Inactive)
    1  A    between atoms: O_6  and  C_8
    2  A    between atoms: O_6  and  C_31
    3  A    between atoms: C_8  and  C_19
    4  A    between atoms: C_8  and  C_35
                            x       y       z     vdW  Elec       q    Type
                         _______ _______ _______ _____ _____    ______ ____

>  <TORSDO>
F 4

$$$$
=
 OpenBabel10262422533D

 37 39  0  0  1  0  0  0  0  0999 V2000
  190.8930  177.7200  141.3140 C   0  0  1  0  0  3  0  0  0  0  0  0
  192.9620  176.0940  139.3100 C   0  0  0  0  0  2  0  0  0  0  0  0
  189.3490  177.1310  136.9260 C   0  0  0  0  0  3  0  0  0  0  0  0
  190.6950  176.8100  144.0240 O   0  0  0  0  0  0  0  0  0  0  0  0
  185.8920  178.2630  141.7560 C   0  0  0  0  0  2  0  0  0  0  0  0
  190.7800  174.4730  137.5350 C   0  0  0  0  0  3  0  0  0  0  0  0
  187.8790  178.4430  143.3150 C   0  0  0  0  0  2  0  0  0  0  0  0
  187.1340  176.2180  143.5930 O   0  0  0  0  0  1  0  0  0  0  0  0
  192.3620  178.3670  144.1560 O   0  0  0  0  0  1  0  0  0  0  0  0
  190.6530  176.8670  136.8420 C   0  0  0  0  0  3  0  0  0  0  0  0
  186.1560  178.4230  139.3490 C   0  0  0  0  0  0  0  0  0  0  0  0
  189.3970  174.0920  137.1870 C   0  0  0  0  0  3  0  0  0  0  0  0
  189.3310  176.6430  144.3650 C   0  0  2  0  0  3  0  0  0  0  0  0
  192.2570  177.5030  141.0950 O   0  0  0  0  0  0  0  0  0  0  0  0
  193.5940  176.7530  136.9470 C   0  0  0  0  0  1  0  0  0  0  0  0
  186.9890  176.9010  137.6510 C   0  0  0  0  0  2  0  0  0  0  0  0
  191.0090  178.1760  143.8810 C   0  0  1  0  0  3  0  0  0  0  0  0
  188.3380  174.8990  137.2280 C   0  0  0  0  0  3  0  0  0  0  0  0
  192.3990  177.4510  139.7060 C   0  0  0  0  0  2  0  0  0  0  0  0
  188.2740  176.9500  143.2620 C   0  0  2  0  0  0  0  0  0  0  0  0
  187.1950  178.9910  142.0610 C   0  0  0  0  0  2  0  0  0  0  0  0
  188.3880  176.3060  137.7250 C   0  0  1  0  0  3  0  0  0  0  0  0
  190.1680  176.3790  141.4980 C   0  0  0  0  0  2  0  0  0  0  0  0
  191.3420  175.6880  137.4260 C   0  0  0  0  0  0  0  0  0  0  0  0
  185.3920  178.6280  140.3970 C   0  0  0  0  0  0  0  0  0  0  0  0
  192.7890  175.7980  137.8210 C   0  0  2  0  0  3  0  0  0  0  0  0
  188.6800  176.5060  141.8290 C   0  0  0  0  0  2  0  0  0  0  0  0
  189.0250  177.2310  145.5990 O   0  0  0  0  0  1  0  0  0  0  0  0
  190.6970  178.7080  142.4700 C   0  0  0  0  0  2  0  0  0  0  0  0
  186.9330  178.2330  138.3220 C   0  0  0  0  0  3  0  0  0  0  0  0
  184.1050  179.1690  140.2760 O   0  0  0  0  0  0  0  0  0  0  0  0
  182.9230  178.5090  140.7250 C   0  0  1  0  0  3  0  0  0  0  0  0
  181.5720  179.9430  139.3620 O   0  0  0  0  0  0  0  0  0  0  0  0
  180.7180  179.4370  141.4290 O   0  0  0  0  0  1  0  0  0  0  0  0
  181.7120  179.3480  140.4640 C   0  0  0  0  0  0  0  0  0  0  0  0
  182.6800  176.1620  139.4680 C   0  0  0  0  0  3  0  0  0  0  0  0
  182.7910  177.2210  140.0360 C   0  0  0  0  0  0  0  0  0  0  0  0
  1 23  1  1  0  0  0
  1 29  1  0  0  0  0
  2 19  1  0  0  0  0
  4 13  1  0  0  0  0
  5 21  1  0  0  0  0
 10  3  2  0  0  0  0
 10 24  1  0  0  0  0
 11 25  2  0  0  0  0
 12 18  2  0  0  0  0
 12  6  1  0  0  0  0
 13 28  1  1  0  0  0
 14  1  1  0  0  0  0
 16 22  1  0  0  0  0
 16 30  1  0  0  0  0
 17  4  1  0  0  0  0
 17  9  1  6  0  0  0
 18 22  1  0  0  0  0
 19 14  1  0  0  0  0
 20  7  1  0  0  0  0
 20  8  1  1  0  0  0
 20 13  1  0  0  0  0
 21  7  1  0  0  0  0
 22  3  1  6  0  0  0
 23 27  1  0  0  0  0
 24  6  2  0  0  0  0
 24 26  1  0  0  0  0
 25  5  1  0  0  0  0
 26 15  1  6  0  0  0
 26  2  1  0  0  0  0
 27 20  1  0  0  0  0
 29 17  1  0  0  0  0
 30 11  2  0  0  0  0
 31 25  1  0  0  0  0
 31 32  1  0  0  0  0
 32 37  1  6  0  0  0
 33 35  2  0  0  0  0
 35 32  1  0  0  0  0
 35 34  1  0  0  0  0
 36 37  3  0  0  0  0
M  END
>  <MODEL>
5

>  <REMARK>
 VINA RESULT:      -5.4      2.896      6.813
  Name = 
  4 active torsions:
  status: ('A' for Active; 'I' for Inactive)
    1  A    between atoms: O_6  and  C_8
    2  A    between atoms: O_6  and  C_31
    3  A    between atoms: C_8  and  C_19
    4  A    between atoms: C_8  and  C_35
                            x       y       z     vdW  Elec       q    Type
                         _______ _______ _______ _____ _____    ______ ____

>  <TORSDO>
F 4

$$$$
=
 OpenBabel10262422533D

 37 39  0  0  1  0  0  0  0  0999 V2000
  180.7110  176.2920  140.0110 C   0  0  1  0  0  3  0  0  0  0  0  0
  178.9400  173.9740  138.4510 C   0  0  0  0  0  2  0  0  0  0  0  0
  183.1080  173.7180  136.9110 C   0  0  0  0  0  3  0  0  0  0  0  0
  179.4410  178.8150  140.5000 O   0  0  0  0  0  0  0  0  0  0  0  0
  184.7110  179.1830  138.9430 C   0  0  0  0  0  2  0  0  0  0  0  0
  180.3770  174.1100  135.5430 C   0  0  0  0  0  3  0  0  0  0  0  0
  182.7320  179.3370  140.5140 C   0  0  0  0  0  2  0  0  0  0  0  0
  182.0270  180.5150  138.5920 O   0  0  0  0  0  1  0  0  0  0  0  0
  178.9370  177.6430  142.3950 O   0  0  0  0  0  1  0  0  0  0  0  0
  181.9890  173.0200  137.1050 C   0  0  0  0  0  3  0  0  0  0  0  0
  185.4250  177.0580  138.0140 C   0  0  0  0  0  0  0  0  0  0  0  0
  181.3630  174.6620  134.5940 C   0  0  0  0  0  3  0  0  0  0  0  0
  180.2890  179.8600  140.0590 C   0  0  2  0  0  3  0  0  0  0  0  0
  179.6170  175.4410  140.2000 O   0  0  0  0  0  0  0  0  0  0  0  0
  179.6200  171.5640  138.0740 C   0  0  0  0  0  1  0  0  0  0  0  0
  184.5580  175.6220  136.2590 C   0  0  0  0  0  2  0  0  0  0  0  0
  179.9760  178.1900  141.6440 C   0  0  1  0  0  3  0  0  0  0  0  0
  182.5970  175.0590  134.9020 C   0  0  0  0  0  3  0  0  0  0  0  0
  179.9610  174.2560  139.5440 C   0  0  0  0  0  2  0  0  0  0  0  0
  181.6510  179.4560  139.4180 C   0  0  2  0  0  0  0  0  0  0  0  0
  183.9860  178.5530  140.1250 C   0  0  0  0  0  2  0  0  0  0  0  0
  183.1350  175.0820  136.2950 C   0  0  1  0  0  3  0  0  0  0  0  0
  180.4930  177.1620  138.7650 C   0  0  0  0  0  2  0  0  0  0  0  0
  180.6270  173.4190  136.6670 C   0  0  0  0  0  0  0  0  0  0  0  0
  185.7610  178.2610  138.4170 C   0  0  0  0  0  0  0  0  0  0  0  0
  179.4310  172.9380  137.4420 C   0  0  2  0  0  3  0  0  0  0  0  0
  181.5960  178.1920  138.5140 C   0  0  0  0  0  2  0  0  0  0  0  0
  180.4110  180.8740  141.0180 O   0  0  0  0  0  1  0  0  0  0  0  0
  180.9880  177.0840  141.2940 C   0  0  0  0  0  2  0  0  0  0  0  0
  185.0790  175.8600  137.6370 C   0  0  0  0  0  3  0  0  0  0  0  0
  187.0860  178.7160  138.3550 O   0  0  0  0  0  0  0  0  0  0  0  0
  188.2120  177.9320  138.7460 C   0  0  1  0  0  3  0  0  0  0  0  0
  189.4340  179.4040  137.3040 O   0  0  0  0  0  0  0  0  0  0  0  0
  190.6010  177.6040  138.1140 O   0  0  0  0  0  1  0  0  0  0  0  0
  189.4380  178.3540  138.0010 C   0  0  0  0  0  0  0  0  0  0  0  0
  188.6150  178.1990  141.3750 C   0  0  0  0  0  3  0  0  0  0  0  0
  188.4330  178.0790  140.1880 C   0  0  0  0  0  0  0  0  0  0  0  0
  1 23  1  6  0  0  0
  1 14  1  0  0  0  0
  1 29  1  0  0  0  0
  2 19  1  0  0  0  0
  3 10  2  0  0  0  0
  4 17  1  0  0  0  0
  5 21  1  0  0  0  0
  6 24  2  0  0  0  0
 11 25  2  0  0  0  0
 12 18  2  0  0  0  0
 12  6  1  0  0  0  0
 13  4  1  0  0  0  0
 13 28  1  1  0  0  0
 16 22  1  0  0  0  0
 16 30  1  0  0  0  0
 17  9  1  6  0  0  0
 19 14  1  0  0  0  0
 20  8  1  6  0  0  0
 20 13  1  0  0  0  0
 20  7  1  0  0  0  0
 21  7  1  0  0  0  0
 22 18  1  6  0  0  0
 22  3  1  0  0  0  0
 24 10  1  0  0  0  0
 24 26  1  0  0  0  0
 25  5  1  0  0  0  0
 26 15  1  1  0  0  0
 26  2  1  0  0  0  0
 27 23  1  0  0  0  0
 27 20  1  0  0  0  0
 29 17  1  0  0  0  0
 30 11  2  0  0  0  0
 31 25  1  0  0  0  0
 31 32  1  0  0  0  0
 32 37  1  1  0  0  0
 33 35  2  0  0  0  0
 35 34  1  0  0  0  0
 35 32  1  0  0  0  0
 37 36  3  0  0  0  0
M  END
>  <MODEL>
6

>  <REMARK>
 VINA RESULT:      -4.4      3.316      6.397
  Name = 
  4 active torsions:
  status: ('A' for Active; 'I' for Inactive)
    1  A    between atoms: O_6  and  C_8
    2  A    between atoms: O_6  and  C_31
    3  A    between atoms: C_8  and  C_19
    4  A    between atoms: C_8  and  C_35
                            x       y       z     vdW  Elec       q    Type
                         _______ _______ _______ _____ _____    ______ ____

>  <TORSDO>
F 4

$$$$
=
 OpenBabel10262422533D

 37 39  0  0  1  0  0  0  0  0999 V2000
  187.6760  177.2790  139.2410 C   0  0  1  0  0  3  0  0  0  0  0  0
  186.2820  179.3560  141.4060 C   0  0  0  0  0  2  0  0  0  0  0  0
  183.0770  176.6550  139.9090 C   0  0  0  0  0  3  0  0  0  0  0  0
  189.6810  178.3460  137.4930 O   0  0  0  0  0  0  0  0  0  0  0  0
  186.2230  174.7960  135.0910 C   0  0  0  0  0  2  0  0  0  0  0  0
  183.3920  179.7180  139.9730 C   0  0  0  0  0  3  0  0  0  0  0  0
  188.4220  175.6330  136.0250 C   0  0  0  0  0  2  0  0  0  0  0  0
  187.7100  177.3740  134.5970 O   0  0  0  0  0  1  0  0  0  0  0  0
  190.9210  177.6350  139.2750 O   0  0  0  0  0  1  0  0  0  0  0  0
  183.4470  177.4170  140.9380 C   0  0  0  0  0  3  0  0  0  0  0  0
  184.2870  174.4710  136.5170 C   0  0  0  0  0  0  0  0  0  0  0  0
  182.4250  179.4550  138.8890 C   0  0  0  0  0  3  0  0  0  0  0  0
  189.3820  177.9800  136.1580 C   0  0  2  0  0  3  0  0  0  0  0  0
  187.9670  178.0070  140.4000 O   0  0  0  0  0  0  0  0  0  0  0  0
  184.6790  178.7350  143.2660 C   0  0  0  0  0  1  0  0  0  0  0  0
  182.6960  175.9850  137.5510 C   0  0  0  0  0  2  0  0  0  0  0  0
  190.0850  177.2220  138.2390 C   0  0  1  0  0  3  0  0  0  0  0  0
  182.2760  178.2960  138.2480 C   0  0  0  0  0  3  0  0  0  0  0  0
  186.8020  177.9450  141.1690 C   0  0  0  0  0  2  0  0  0  0  0  0
  188.0930  177.1380  135.9170 C   0  0  2  0  0  0  0  0  0  0  0  0
  187.2240  174.7070  136.2360 C   0  0  0  0  0  2  0  0  0  0  0  0
  183.1440  177.1040  138.4820 C   0  0  1  0  0  3  0  0  0  0  0  0
  187.1500  178.2180  138.1460 C   0  0  0  0  0  2  0  0  0  0  0  0
  183.8800  178.8350  140.8600 C   0  0  0  0  0  0  0  0  0  0  0  0
  184.9520  174.0990  135.4480 C   0  0  0  0  0  0  0  0  0  0  0  0
  184.8340  179.3740  141.8910 C   0  0  2  0  0  3  0  0  0  0  0  0
  186.8810  177.5340  136.8050 C   0  0  0  0  0  2  0  0  0  0  0  0
  190.5050  177.4710  135.4920 O   0  0  0  0  0  1  0  0  0  0  0  0
  188.8930  176.4440  138.8260 C   0  0  0  0  0  2  0  0  0  0  0  0
  183.6490  174.8370  137.5910 C   0  0  0  0  0  3  0  0  0  0  0  0
  184.4930  173.0680  134.6160 O   0  0  0  0  0  0  0  0  0  0  0  0
  184.5790  171.6840  134.9480 C   0  0  1  0  0  3  0  0  0  0  0  0
  186.7890  170.8230  134.6040 O   0  0  0  0  0  0  0  0  0  0  0  0
  186.3390  171.6040  136.7130 O   0  0  0  0  0  1  0  0  0  0  0  0
  185.9590  171.3310  135.4060 C   0  0  0  0  0  0  0  0  0  0  0  0
  182.8190  171.1190  136.8780 C   0  0  0  0  0  3  0  0  0  0  0  0
  183.6130  171.3740  136.0060 C   0  0  0  0  0  0  0  0  0  0  0  0
  1 23  1  6  0  0  0
  1 14  1  0  0  0  0
  2 26  1  0  0  0  0
  3 10  2  0  0  0  0
  4 17  1  0  0  0  0
  5 25  1  0  0  0  0
  5 21  1  0  0  0  0
  6 24  2  0  0  0  0
  7 21  1  0  0  0  0
 11 30  2  0  0  0  0
 12  6  1  0  0  0  0
 13 28  1  1  0  0  0
 13  4  1  0  0  0  0
 14 19  1  0  0  0  0
 16 30  1  0  0  0  0
 17 29  1  0  0  0  0
 17  9  1  1  0  0  0
 18 22  1  0  0  0  0
 18 12  2  0  0  0  0
 19  2  1  0  0  0  0
 20  8  1  6  0  0  0
 20  7  1  0  0  0  0
 20 13  1  0  0  0  0
 20 27  1  0  0  0  0
 22 16  1  6  0  0  0
 22  3  1  0  0  0  0
 24 10  1  0  0  0  0
 24 26  1  0  0  0  0
 25 11  2  0  0  0  0
 26 15  1  1  0  0  0
 27 23  1  0  0  0  0
 29  1  1  0  0  0  0
 31 32  1  0  0  0  0
 31 25  1  0  0  0  0
 32 35  1  0  0  0  0
 32 37  1  1  0  0  0
 33 35  2  0  0  0  0
 35 34  1  0  0  0  0
 37 36  3  0  0  0  0
M  END
>  <MODEL>
7

>  <REMARK>
 VINA RESULT:      -4.4      2.905      8.372
  Name = 
  4 active torsions:
  status: ('A' for Active; 'I' for Inactive)
    1  A    between atoms: O_6  and  C_8
    2  A    between atoms: O_6  and  C_31
    3  A    between atoms: C_8  and  C_19
    4  A    between atoms: C_8  and  C_35
                            x       y       z     vdW  Elec       q    Type
                         _______ _______ _______ _____ _____    ______ ____

>  <TORSDO>
F 4

$$$$
