=
 OpenBabel10262419563D

 25 28  0  0  1  0  0  0  0  0999 V2000
  189.7850  177.5240  145.1960 C   0  0  2  0  0  0  0  0  0  0  0  0
  188.7890  177.1830  144.0730 C   0  0  1  0  0  3  0  0  0  0  0  0
  191.6190  176.7060  143.4090 C   0  0  0  0  0  2  0  0  0  0  0  0
  189.3120  177.2470  146.6270 C   0  0  0  0  0  2  0  0  0  0  0  0
  192.0400  175.4710  148.2070 N   0  0  0  0  0  1  0  0  0  0  0  0
  190.4390  176.2190  142.5610 C   0  0  0  0  0  2  0  0  0  0  0  0
  191.3870  176.4280  147.3330 C   0  0  2  0  0  3  0  0  0  0  0  0
  189.9810  176.0820  147.1940 N   0  0  0  0  0  2  0  0  0  0  0  0
  188.1130  177.0200  141.8370 C   0  0  2  0  0  3  0  0  0  0  0  0
  188.3370  177.4570  140.3950 C   0  0  0  0  0  1  0  0  0  0  0  0
  187.5000  177.9690  144.0220 C   0  0  0  0  0  2  0  0  0  0  0  0
  190.9140  178.5660  145.1190 C   0  0  1  0  0  3  0  0  0  0  0  0
  191.2290  177.0790  144.8630 C   0  0  1  0  0  0  0  0  0  0  0  0
  192.0630  176.4100  145.9660 C   0  0  0  0  0  2  0  0  0  0  0  0
  190.8370  179.4540  143.8820 C   0  0  0  0  0  1  0  0  0  0  0  0
  186.9900  177.7750  142.5870 C   0  0  1  0  0  3  0  0  0  0  0  0
  189.3380  177.2480  142.6810 C   0  0  1  0  0  3  0  0  0  0  0  0
  186.6560  179.1400  141.9840 C   0  0  0  0  0  2  0  0  0  0  0  0
  185.2370  179.1700  141.4370 C   0  0  0  0  0  2  0  0  0  0  0  0
  184.3520  178.1910  142.1900 C   0  0  0  0  0  2  0  0  0  0  0  0
  183.2250  178.9280  142.8940 C   0  0  0  0  0  2  0  0  0  0  0  0
  183.2010  178.6250  144.3880 C   0  0  0  0  0  2  0  0  0  0  0  0
  184.3890  179.2550  145.1040 C   0  0  0  0  0  2  0  0  0  0  0  0
  184.7010  178.5320  146.4040 C   0  0  0  0  0  2  0  0  0  0  0  0
  185.5980  179.2820  147.1640 O   0  0  0  0  0  1  0  0  0  0  0  0
  1  4  1  1  0  0  0
  2 11  1  6  0  0  0
  2  1  1  0  0  0  0
  4  8  1  0  0  0  0
  6  3  1  0  0  0  0
  7  5  1  1  0  0  0
  8  7  1  0  0  0  0
  9 10  1  6  0  0  0
  9 16  1  0  0  0  0
  9 17  1  0  0  0  0
 12 15  1  6  0  0  0
 12  1  1  0  0  0  0
 13  3  1  6  0  0  0
 13 12  1  0  0  0  0
 13  1  1  0  0  0  0
 13 14  1  0  0  0  0
 14  7  1  0  0  0  0
 16 18  1  6  0  0  0
 16 11  1  0  0  0  0
 17  6  1  1  0  0  0
 17  2  1  0  0  0  0
 19 18  1  0  0  0  0
 19 20  1  0  0  0  0
 20 21  1  0  0  0  0
 21 22  1  0  0  0  0
 22 23  1  0  0  0  0
 23 24  1  0  0  0  0
 24 25  1  0  0  0  0
M  END
>  <MODEL>
1

>  <REMARK>
 VINA RESULT:      -7.4      0.000      0.000
  Name = 
  7 active torsions:
  status: ('A' for Active; 'I' for Inactive)
    1  A    between atoms: C_2  and  C_7
    2  A    between atoms: C_2  and  C_25
    3  A    between atoms: C_6  and  C_15
    4  A    between atoms: C_6  and  C_21
    5  A    between atoms: C_15  and  C_20
    6  A    between atoms: C_20  and  C_23
    7  A    between atoms: C_21  and  C_25
                            x       y       z     vdW  Elec       q    Type
                         _______ _______ _______ _____ _____    ______ ____

>  <TORSDO>
F 7

$$$$
=
 OpenBabel10262419563D

 25 28  0  0  1  0  0  0  0  0999 V2000
  189.5330  177.6040  145.6600 C   0  0  2  0  0  0  0  0  0  0  0  0
  188.0670  177.4500  145.2160 C   0  0  1  0  0  3  0  0  0  0  0  0
  190.0570  176.4360  143.2960 C   0  0  0  0  0  2  0  0  0  0  0  0
  189.8080  177.4330  147.1580 C   0  0  0  0  0  2  0  0  0  0  0  0
  192.6330  175.1810  147.3610 N   0  0  0  0  0  1  0  0  0  0  0  0
  188.5510  176.1770  143.1960 C   0  0  0  0  0  2  0  0  0  0  0  0
  191.7930  176.2380  146.8290 C   0  0  2  0  0  3  0  0  0  0  0  0
  190.4730  176.1660  147.4380 N   0  0  0  0  0  2  0  0  0  0  0  0
  186.3410  177.4010  143.6350 C   0  0  2  0  0  3  0  0  0  0  0  0
  185.8750  177.7760  142.2340 C   0  0  0  0  0  1  0  0  0  0  0  0
  187.0740  178.4680  145.7270 C   0  0  0  0  0  2  0  0  0  0  0  0
  190.6200  178.4090  144.9300 C   0  0  1  0  0  3  0  0  0  0  0  0
  190.5190  176.8870  144.7060 C   0  0  1  0  0  0  0  0  0  0  0  0
  191.6740  176.0810  145.3170 C   0  0  0  0  0  2  0  0  0  0  0  0
  190.0760  179.2870  143.8080 C   0  0  0  0  0  1  0  0  0  0  0  0
  185.8880  178.3640  144.7590 C   0  0  1  0  0  3  0  0  0  0  0  0
  187.8420  177.3980  143.7360 C   0  0  1  0  0  3  0  0  0  0  0  0
  185.5200  179.7630  144.2620 C   0  0  0  0  0  2  0  0  0  0  0  0
  184.0120  179.9430  144.1860 C   0  0  0  0  0  2  0  0  0  0  0  0
  183.2990  178.7810  144.8550 C   0  0  0  0  0  2  0  0  0  0  0  0
  181.9400  178.5500  144.2140 C   0  0  0  0  0  2  0  0  0  0  0  0
  181.9480  178.9140  142.7340 C   0  0  0  0  0  2  0  0  0  0  0  0
  180.5850  178.6810  142.0950 C   0  0  0  0  0  2  0  0  0  0  0  0
  179.5220  179.5760  142.7120 C   0  0  0  0  0  2  0  0  0  0  0  0
  179.8300  180.9160  142.4770 O   0  0  0  0  0  1  0  0  0  0  0  0
  1  4  1  1  0  0  0
  2  1  1  0  0  0  0
  2 11  1  6  0  0  0
  4  8  1  0  0  0  0
  6  3  1  0  0  0  0
  7  5  1  1  0  0  0
  7  8  1  0  0  0  0
  9 10  1  6  0  0  0
  9 17  1  0  0  0  0
  9 16  1  0  0  0  0
 12 15  1  6  0  0  0
 12  1  1  0  0  0  0
 13  3  1  6  0  0  0
 13 12  1  0  0  0  0
 13 14  1  0  0  0  0
 13  1  1  0  0  0  0
 14  7  1  0  0  0  0
 16 18  1  6  0  0  0
 16 11  1  0  0  0  0
 17  6  1  1  0  0  0
 17  2  1  0  0  0  0
 19 18  1  0  0  0  0
 19 20  1  0  0  0  0
 21 20  1  0  0  0  0
 22 21  1  0  0  0  0
 23 24  1  0  0  0  0
 23 22  1  0  0  0  0
 25 24  1  0  0  0  0
M  END
>  <MODEL>
2

>  <REMARK>
 VINA RESULT:      -7.0      2.062      2.818
  Name = 
  7 active torsions:
  status: ('A' for Active; 'I' for Inactive)
    1  A    between atoms: C_2  and  C_7
    2  A    between atoms: C_2  and  C_25
    3  A    between atoms: C_6  and  C_15
    4  A    between atoms: C_6  and  C_21
    5  A    between atoms: C_15  and  C_20
    6  A    between atoms: C_20  and  C_23
    7  A    between atoms: C_21  and  C_25
                            x       y       z     vdW  Elec       q    Type
                         _______ _______ _______ _____ _____    ______ ____

>  <TORSDO>
F 7

$$$$
=
 OpenBabel10262419563D

 25 28  0  0  1  0  0  0  0  0999 V2000
  189.5890  177.5520  145.7120 C   0  0  2  0  0  0  0  0  0  0  0  0
  188.1640  177.3510  145.1650 C   0  0  1  0  0  3  0  0  0  0  0  0
  190.3210  176.4960  143.3510 C   0  0  0  0  0  2  0  0  0  0  0  0
  189.7720  177.3400  147.2190 C   0  0  0  0  0  2  0  0  0  0  0  0
  192.6800  175.2100  147.5360 N   0  0  0  0  0  1  0  0  0  0  0  0
  188.8380  176.1740  143.1410 C   0  0  0  0  0  2  0  0  0  0  0  0
  191.8290  176.2470  146.9840 C   0  0  2  0  0  3  0  0  0  0  0  0
  190.4760  176.0940  147.5000 N   0  0  0  0  0  2  0  0  0  0  0  0
  186.5500  177.2830  143.4710 C   0  0  2  0  0  3  0  0  0  0  0  0
  186.1600  177.6870  142.0550 C   0  0  0  0  0  1  0  0  0  0  0  0
  187.0940  178.3040  145.6420 C   0  0  0  0  0  2  0  0  0  0  0  0
  190.6830  178.4320  145.0840 C   0  0  1  0  0  3  0  0  0  0  0  0
  190.6680  176.9160  144.8030 C   0  0  1  0  0  0  0  0  0  0  0  0
  191.8170  176.1400  145.4630 C   0  0  0  0  0  2  0  0  0  0  0  0
  190.1730  179.3240  143.9570 C   0  0  0  0  0  1  0  0  0  0  0  0
  185.9790  178.1830  144.5940 C   0  0  1  0  0  3  0  0  0  0  0  0
  188.0400  177.3420  143.6730 C   0  0  1  0  0  3  0  0  0  0  0  0
  185.5800  179.5810  144.1200 C   0  0  0  0  0  2  0  0  0  0  0  0
  184.1220  179.8760  144.4350 C   0  0  0  0  0  2  0  0  0  0  0  0
  183.2500  178.6760  144.1070 C   0  0  0  0  0  2  0  0  0  0  0  0
  182.3170  178.9970  142.9510 C   0  0  0  0  0  2  0  0  0  0  0  0
  182.7360  178.2800  141.6730 C   0  0  0  0  0  2  0  0  0  0  0  0
  182.6590  179.2030  140.4640 C   0  0  0  0  0  2  0  0  0  0  0  0
  183.8510  179.0110  139.5410 C   0  0  0  0  0  2  0  0  0  0  0  0
  184.3190  180.2490  139.1010 O   0  0  0  0  0  1  0  0  0  0  0  0
  1  4  1  1  0  0  0
  2 11  1  1  0  0  0
  2  1  1  0  0  0  0
  4  8  1  0  0  0  0
  6  3  1  0  0  0  0
  7  8  1  0  0  0  0
  7  5  1  1  0  0  0
  9 10  1  6  0  0  0
  9 17  1  0  0  0  0
  9 16  1  0  0  0  0
 12 15  1  6  0  0  0
 12  1  1  0  0  0  0
 13  3  1  6  0  0  0
 13 12  1  0  0  0  0
 13 14  1  0  0  0  0
 13  1  1  0  0  0  0
 14  7  1  0  0  0  0
 16 18  1  6  0  0  0
 16 11  1  0  0  0  0
 17  6  1  1  0  0  0
 17  2  1  0  0  0  0
 18 19  1  0  0  0  0
 20 19  1  0  0  0  0
 21 20  1  0  0  0  0
 22 21  1  0  0  0  0
 23 22  1  0  0  0  0
 24 23  1  0  0  0  0
 25 24  1  0  0  0  0
M  END
>  <MODEL>
3

>  <REMARK>
 VINA RESULT:      -7.0      2.039      2.857
  Name = 
  7 active torsions:
  status: ('A' for Active; 'I' for Inactive)
    1  A    between atoms: C_2  and  C_7
    2  A    between atoms: C_2  and  C_25
    3  A    between atoms: C_6  and  C_15
    4  A    between atoms: C_6  and  C_21
    5  A    between atoms: C_15  and  C_20
    6  A    between atoms: C_20  and  C_23
    7  A    between atoms: C_21  and  C_25
                            x       y       z     vdW  Elec       q    Type
                         _______ _______ _______ _____ _____    ______ ____

>  <TORSDO>
F 7

$$$$
=
 OpenBabel10262419563D

 25 28  0  0  1  0  0  0  0  0999 V2000
  189.0260  177.8860  144.2100 C   0  0  2  0  0  0  0  0  0  0  0  0
  188.9300  177.2710  142.8020 C   0  0  1  0  0  3  0  0  0  0  0  0
  191.3110  176.4770  144.3430 C   0  0  0  0  0  2  0  0  0  0  0  0
  187.7010  178.0780  144.9560 C   0  0  0  0  0  2  0  0  0  0  0  0
  188.2660  176.7310  148.2670 N   0  0  0  0  0  1  0  0  0  0  0  0
  190.8690  175.8150  143.0340 C   0  0  0  0  0  2  0  0  0  0  0  0
  188.5750  177.4100  147.0220 C   0  0  2  0  0  3  0  0  0  0  0  0
  187.5500  177.1070  146.0340 N   0  0  0  0  0  2  0  0  0  0  0  0
  189.8190  176.4730  140.7890 C   0  0  2  0  0  3  0  0  0  0  0  0
  191.0070  176.4420  139.8350 C   0  0  0  0  0  1  0  0  0  0  0  0
  188.2070  178.0670  141.7410 C   0  0  0  0  0  2  0  0  0  0  0  0
  190.1520  178.7990  144.7240 C   0  0  1  0  0  3  0  0  0  0  0  0
  190.1890  177.2900  145.0390 C   0  0  1  0  0  0  0  0  0  0  0  0
  189.9360  176.9460  146.5140 C   0  0  0  0  0  2  0  0  0  0  0  0
  191.0970  179.2740  143.6260 C   0  0  0  0  0  1  0  0  0  0  0  0
  188.7000  177.4750  140.4150 C   0  0  1  0  0  3  0  0  0  0  0  0
  190.2340  176.8850  142.1750 C   0  0  1  0  0  3  0  0  0  0  0  0
  189.1680  178.6080  139.5000 C   0  0  0  0  0  2  0  0  0  0  0  0
  188.4630  178.5580  138.1540 C   0  0  0  0  0  2  0  0  0  0  0  0
  187.9270  177.1630  137.8820 C   0  0  0  0  0  2  0  0  0  0  0  0
  186.4720  177.2290  137.4470 C   0  0  0  0  0  2  0  0  0  0  0  0
  185.7580  178.4320  138.0500 C   0  0  0  0  0  2  0  0  0  0  0  0
  184.4150  178.0400  138.6530 C   0  0  0  0  0  2  0  0  0  0  0  0
  184.2360  178.6310  140.0420 C   0  0  0  0  0  2  0  0  0  0  0  0
  185.2740  179.5190  140.3210 O   0  0  0  0  0  1  0  0  0  0  0  0
  1 12  1  0  0  0  0
  1  4  1  1  0  0  0
  1 13  1  0  0  0  0
  2 11  1  6  0  0  0
  2  1  1  0  0  0  0
  4  8  1  0  0  0  0
  6  3  1  0  0  0  0
  7  5  1  1  0  0  0
  8  7  1  0  0  0  0
  9 10  1  6  0  0  0
  9 17  1  0  0  0  0
 12 15  1  6  0  0  0
 12 13  1  0  0  0  0
 13  3  1  6  0  0  0
 13 14  1  0  0  0  0
 14  7  1  0  0  0  0
 16 18  1  6  0  0  0
 16  9  1  0  0  0  0
 16 11  1  0  0  0  0
 17  2  1  0  0  0  0
 17  6  1  1  0  0  0
 19 18  1  0  0  0  0
 20 19  1  0  0  0  0
 21 20  1  0  0  0  0
 21 22  1  0  0  0  0
 22 23  1  0  0  0  0
 23 24  1  0  0  0  0
 24 25  1  0  0  0  0
M  END
>  <MODEL>
4

>  <REMARK>
 VINA RESULT:      -6.6      2.427      3.827
  Name = 
  7 active torsions:
  status: ('A' for Active; 'I' for Inactive)
    1  A    between atoms: C_2  and  C_7
    2  A    between atoms: C_2  and  C_25
    3  A    between atoms: C_6  and  C_15
    4  A    between atoms: C_6  and  C_21
    5  A    between atoms: C_15  and  C_20
    6  A    between atoms: C_20  and  C_23
    7  A    between atoms: C_21  and  C_25
                            x       y       z     vdW  Elec       q    Type
                         _______ _______ _______ _____ _____    ______ ____

>  <TORSDO>
F 7

$$$$
=
 OpenBabel10262419563D

 25 28  0  0  1  0  0  0  0  0999 V2000
  189.0270  177.5300  142.3500 C   0  0  2  0  0  0  0  0  0  0  0  0
  189.3620  178.0450  143.7610 C   0  0  1  0  0  3  0  0  0  0  0  0
  191.6940  177.2840  142.1310 C   0  0  0  0  0  2  0  0  0  0  0  0
  187.8310  178.1920  141.6540 C   0  0  0  0  0  2  0  0  0  0  0  0
  188.9950  179.0080  138.3260 N   0  0  0  0  0  1  0  0  0  0  0  0
  191.7790  178.0470  143.4570 C   0  0  0  0  0  2  0  0  0  0  0  0
  188.8700  178.2500  139.5580 C   0  0  2  0  0  3  0  0  0  0  0  0
  188.2630  179.0840  140.5850 N   0  0  0  0  0  2  0  0  0  0  0  0
  190.6120  178.0990  145.7400 C   0  0  2  0  0  3  0  0  0  0  0  0
  191.6060  177.3860  146.6480 C   0  0  0  0  0  1  0  0  0  0  0  0
  188.3370  177.8190  144.8470 C   0  0  0  0  0  2  0  0  0  0  0  0
  189.3600  176.1370  141.7920 C   0  0  1  0  0  3  0  0  0  0  0  0
  190.2890  177.3270  141.4770 C   0  0  1  0  0  0  0  0  0  0  0  0
  190.2500  177.7890  140.0140 C   0  0  0  0  0  2  0  0  0  0  0  0
  189.8610  175.1620  142.8520 C   0  0  0  0  0  1  0  0  0  0  0  0
  189.1270  177.9630  146.1550 C   0  0  1  0  0  3  0  0  0  0  0  0
  190.6540  177.5540  144.3380 C   0  0  1  0  0  3  0  0  0  0  0  0
  188.8450  176.7550  147.0490 C   0  0  0  0  0  2  0  0  0  0  0  0
  187.9280  177.1240  148.2040 C   0  0  0  0  0  2  0  0  0  0  0  0
  187.3950  178.5370  148.0340 C   0  0  0  0  0  2  0  0  0  0  0  0
  185.9290  178.5060  147.6320 C   0  0  0  0  0  2  0  0  0  0  0  0
  185.6810  179.2890  146.3480 C   0  0  0  0  0  2  0  0  0  0  0  0
  184.6090  178.6280  145.4910 C   0  0  0  0  0  2  0  0  0  0  0  0
  184.5230  179.2700  144.1160 C   0  0  0  0  0  2  0  0  0  0  0  0
  184.5080  178.2860  143.1280 O   0  0  0  0  0  1  0  0  0  0  0  0
  1  4  1  6  0  0  0
  1  2  1  0  0  0  0
  2 17  1  0  0  0  0
  2 11  1  1  0  0  0
  3  6  1  0  0  0  0
  7  5  1  6  0  0  0
  7 14  1  0  0  0  0
  7  8  1  0  0  0  0
  8  4  1  0  0  0  0
  9 16  1  0  0  0  0
  9 10  1  1  0  0  0
 11 16  1  0  0  0  0
 12  1  1  0  0  0  0
 12 15  1  1  0  0  0
 13 14  1  6  0  0  0
 13 12  1  0  0  0  0
 13  3  1  0  0  0  0
 13  1  1  0  0  0  0
 16 18  1  1  0  0  0
 17  6  1  6  0  0  0
 17  9  1  0  0  0  0
 18 19  1  0  0  0  0
 20 19  1  0  0  0  0
 21 20  1  0  0  0  0
 22 21  1  0  0  0  0
 23 22  1  0  0  0  0
 24 23  1  0  0  0  0
 25 24  1  0  0  0  0
M  END
>  <MODEL>
5

>  <REMARK>
 VINA RESULT:      -6.5      2.854      5.221
  Name = 
  7 active torsions:
  status: ('A' for Active; 'I' for Inactive)
    1  A    between atoms: C_2  and  C_7
    2  A    between atoms: C_2  and  C_25
    3  A    between atoms: C_6  and  C_15
    4  A    between atoms: C_6  and  C_21
    5  A    between atoms: C_15  and  C_20
    6  A    between atoms: C_20  and  C_23
    7  A    between atoms: C_21  and  C_25
                            x       y       z     vdW  Elec       q    Type
                         _______ _______ _______ _____ _____    ______ ____

>  <TORSDO>
F 7

$$$$
=
 OpenBabel10262419563D

 25 28  0  0  1  0  0  0  0  0999 V2000
  189.0290  177.8900  144.1870 C   0  0  2  0  0  0  0  0  0  0  0  0
  188.9080  177.2860  142.7770 C   0  0  1  0  0  3  0  0  0  0  0  0
  191.2540  176.3870  144.3140 C   0  0  0  0  0  2  0  0  0  0  0  0
  187.7130  178.1340  144.9340 C   0  0  0  0  0  2  0  0  0  0  0  0
  188.2210  176.7490  148.2390 N   0  0  0  0  0  1  0  0  0  0  0  0
  190.7860  175.7500  143.0010 C   0  0  0  0  0  2  0  0  0  0  0  0
  188.5580  177.4200  146.9970 C   0  0  2  0  0  3  0  0  0  0  0  0
  187.5220  177.1650  146.0070 N   0  0  0  0  0  2  0  0  0  0  0  0
  189.7640  176.4610  140.7600 C   0  0  2  0  0  3  0  0  0  0  0  0
  190.9500  176.3860  139.8050 C   0  0  0  0  0  1  0  0  0  0  0  0
  188.2190  178.1160  141.7190 C   0  0  0  0  0  2  0  0  0  0  0  0
  190.1920  178.7530  144.7050 C   0  0  1  0  0  3  0  0  0  0  0  0
  190.1660  177.2420  145.0140 C   0  0  1  0  0  0  0  0  0  0  0  0
  189.8990  176.9020  146.4870 C   0  0  0  0  0  2  0  0  0  0  0  0
  191.1560  179.1940  143.6100 C   0  0  0  0  0  1  0  0  0  0  0  0
  188.6880  177.5100  140.3900 C   0  0  1  0  0  3  0  0  0  0  0  0
  190.1950  176.8490  142.1480 C   0  0  1  0  0  3  0  0  0  0  0  0
  189.2020  178.6270  139.4810 C   0  0  0  0  0  2  0  0  0  0  0  0
  188.6790  178.4700  138.0620 C   0  0  0  0  0  2  0  0  0  0  0  0
  187.2780  177.8800  138.0700 C   0  0  0  0  0  2  0  0  0  0  0  0
  187.0540  177.0270  136.8320 C   0  0  0  0  0  2  0  0  0  0  0  0
  187.0220  175.5420  137.1710 C   0  0  0  0  0  2  0  0  0  0  0  0
  188.0670  174.7660  136.3790 C   0  0  0  0  0  2  0  0  0  0  0  0
  189.4250  174.8070  137.0620 C   0  0  0  0  0  2  0  0  0  0  0  0
  189.9130  173.5120  137.2330 O   0  0  0  0  0  1  0  0  0  0  0  0
  1 12  1  0  0  0  0
  1  4  1  1  0  0  0
  1 13  1  0  0  0  0
  2 11  1  6  0  0  0
  2  1  1  0  0  0  0
  4  8  1  0  0  0  0
  6  3  1  0  0  0  0
  7  5  1  1  0  0  0
  8  7  1  0  0  0  0
  9 10  1  6  0  0  0
  9 17  1  0  0  0  0
 12 15  1  6  0  0  0
 12 13  1  0  0  0  0
 13  3  1  6  0  0  0
 13 14  1  0  0  0  0
 14  7  1  0  0  0  0
 16 18  1  6  0  0  0
 16  9  1  0  0  0  0
 16 11  1  0  0  0  0
 17  2  1  0  0  0  0
 17  6  1  1  0  0  0
 19 20  1  0  0  0  0
 19 18  1  0  0  0  0
 21 22  1  0  0  0  0
 21 20  1  0  0  0  0
 23 24  1  0  0  0  0
 23 22  1  0  0  0  0
 24 25  1  0  0  0  0
M  END
>  <MODEL>
6

>  <REMARK>
 VINA RESULT:      -6.2      3.381      5.127
  Name = 
  7 active torsions:
  status: ('A' for Active; 'I' for Inactive)
    1  A    between atoms: C_2  and  C_7
    2  A    between atoms: C_2  and  C_25
    3  A    between atoms: C_6  and  C_15
    4  A    between atoms: C_6  and  C_21
    5  A    between atoms: C_15  and  C_20
    6  A    between atoms: C_20  and  C_23
    7  A    between atoms: C_21  and  C_25
                            x       y       z     vdW  Elec       q    Type
                         _______ _______ _______ _____ _____    ______ ____

>  <TORSDO>
F 7

$$$$
=
 OpenBabel10262419563D

 25 28  0  0  1  0  0  0  0  0999 V2000
  189.8050  177.4540  145.3050 C   0  0  2  0  0  0  0  0  0  0  0  0
  188.7850  177.1100  144.2050 C   0  0  1  0  0  3  0  0  0  0  0  0
  191.6030  176.6970  143.4560 C   0  0  0  0  0  2  0  0  0  0  0  0
  189.3770  177.1480  146.7440 C   0  0  0  0  0  2  0  0  0  0  0  0
  192.1810  175.4010  148.2220 N   0  0  0  0  0  1  0  0  0  0  0  0
  190.4100  176.2000  142.6340 C   0  0  0  0  0  2  0  0  0  0  0  0
  191.4870  176.3580  147.3810 C   0  0  2  0  0  3  0  0  0  0  0  0
  190.0830  175.9870  147.2750 N   0  0  0  0  0  2  0  0  0  0  0  0
  188.0500  176.9660  141.9870 C   0  0  2  0  0  3  0  0  0  0  0  0
  188.2250  177.4280  140.5450 C   0  0  0  0  0  1  0  0  0  0  0  0
  187.4810  177.8720  144.2010 C   0  0  0  0  0  2  0  0  0  0  0  0
  190.9120  178.5180  145.2120 C   0  0  1  0  0  3  0  0  0  0  0  0
  191.2480  177.0410  144.9250 C   0  0  1  0  0  0  0  0  0  0  0  0
  192.1240  176.3730  145.9950 C   0  0  0  0  0  2  0  0  0  0  0  0
  190.7840  179.4230  143.9910 C   0  0  0  0  0  1  0  0  0  0  0  0
  186.9340  177.6900  142.7790 C   0  0  1  0  0  3  0  0  0  0  0  0
  189.2930  177.2060  142.7990 C   0  0  1  0  0  3  0  0  0  0  0  0
  186.5580  179.0570  142.2050 C   0  0  0  0  0  2  0  0  0  0  0  0
  185.0970  179.3830  142.4690 C   0  0  0  0  0  2  0  0  0  0  0  0
  184.1970  178.6350  141.5000 C   0  0  0  0  0  2  0  0  0  0  0  0
  184.6740  178.8350  140.0700 C   0  0  0  0  0  2  0  0  0  0  0  0
  183.6630  178.3040  139.0610 C   0  0  0  0  0  2  0  0  0  0  0  0
  184.3520  177.7550  137.8180 C   0  0  0  0  0  2  0  0  0  0  0  0
  185.8350  178.0840  137.8140 C   0  0  0  0  0  2  0  0  0  0  0  0
  186.4250  177.6180  136.6390 O   0  0  0  0  0  1  0  0  0  0  0  0
  1  4  1  1  0  0  0
  2 11  1  6  0  0  0
  2  1  1  0  0  0  0
  4  8  1  0  0  0  0
  6  3  1  0  0  0  0
  7  5  1  1  0  0  0
  8  7  1  0  0  0  0
  9 10  1  6  0  0  0
  9 16  1  0  0  0  0
  9 17  1  0  0  0  0
 12 15  1  6  0  0  0
 12  1  1  0  0  0  0
 13  3  1  6  0  0  0
 13 12  1  0  0  0  0
 13  1  1  0  0  0  0
 13 14  1  0  0  0  0
 14  7  1  0  0  0  0
 16 18  1  6  0  0  0
 16 11  1  0  0  0  0
 17  6  1  1  0  0  0
 17  2  1  0  0  0  0
 18 19  1  0  0  0  0
 20 19  1  0  0  0  0
 21 20  1  0  0  0  0
 22 21  1  0  0  0  0
 23 22  1  0  0  0  0
 24 23  1  0  0  0  0
 25 24  1  0  0  0  0
M  END
>  <MODEL>
7

>  <REMARK>
 VINA RESULT:      -6.0      2.505      3.382
  Name = 
  7 active torsions:
  status: ('A' for Active; 'I' for Inactive)
    1  A    between atoms: C_2  and  C_7
    2  A    between atoms: C_2  and  C_25
    3  A    between atoms: C_6  and  C_15
    4  A    between atoms: C_6  and  C_21
    5  A    between atoms: C_15  and  C_20
    6  A    between atoms: C_20  and  C_23
    7  A    between atoms: C_21  and  C_25
                            x       y       z     vdW  Elec       q    Type
                         _______ _______ _______ _____ _____    ______ ____

>  <TORSDO>
F 7

$$$$
=
 OpenBabel10262419563D

 25 28  0  0  1  0  0  0  0  0999 V2000
  185.0170  178.6390  143.1860 C   0  0  2  0  0  0  0  0  0  0  0  0
  186.0350  177.7650  143.9400 C   0  0  1  0  0  3  0  0  0  0  0  0
  183.8070  178.7700  145.5820 C   0  0  0  0  0  2  0  0  0  0  0  0
  184.7360  178.2470  141.7310 C   0  0  0  0  0  2  0  0  0  0  0  0
  181.1300  178.2290  141.4260 N   0  0  0  0  0  1  0  0  0  0  0  0
  184.7980  177.6940  146.0370 C   0  0  0  0  0  2  0  0  0  0  0  0
  182.4370  178.6580  141.8880 C   0  0  2  0  0  3  0  0  0  0  0  0
  183.4230  177.6300  141.5880 N   0  0  0  0  0  2  0  0  0  0  0  0
  187.2910  177.1390  145.8140 C   0  0  2  0  0  3  0  0  0  0  0  0
  187.8520  177.5380  147.1730 C   0  0  0  0  0  1  0  0  0  0  0  0
  187.4620  177.7720  143.4440 C   0  0  0  0  0  2  0  0  0  0  0  0
  184.6760  180.1050  143.4980 C   0  0  1  0  0  3  0  0  0  0  0  0
  183.7760  178.9790  144.0460 C   0  0  1  0  0  0  0  0  0  0  0  0
  182.3890  178.9040  143.3920 C   0  0  0  0  0  2  0  0  0  0  0  0
  185.6250  180.7490  144.5030 C   0  0  0  0  0  1  0  0  0  0  0  0
  188.2830  177.2550  144.6320 C   0  0  1  0  0  3  0  0  0  0  0  0
  186.1360  178.0160  145.4130 C   0  0  1  0  0  3  0  0  0  0  0  0
  189.4460  178.2130  144.8950 C   0  0  0  0  0  2  0  0  0  0  0  0
  190.1230  178.6300  143.5990 C   0  0  0  0  0  2  0  0  0  0  0  0
  191.4850  177.9690  143.4700 C   0  0  0  0  0  2  0  0  0  0  0  0
  191.6770  177.4190  142.0650 C   0  0  0  0  0  2  0  0  0  0  0  0
  190.3620  176.9350  141.4660 C   0  0  0  0  0  2  0  0  0  0  0  0
  190.1600  177.4740  140.0560 C   0  0  0  0  0  2  0  0  0  0  0  0
  188.7310  177.9430  139.8400 C   0  0  0  0  0  2  0  0  0  0  0  0
  188.7080  179.0060  138.9380 O   0  0  0  0  0  1  0  0  0  0  0  0
  1  4  1  6  0  0  0
  1 12  1  0  0  0  0
  1  2  1  0  0  0  0
  1 13  1  0  0  0  0
  2 11  1  6  0  0  0
  2 17  1  0  0  0  0
  3  6  1  0  0  0  0
  7  5  1  1  0  0  0
  7 14  1  0  0  0  0
  8  4  1  0  0  0  0
  8  7  1  0  0  0  0
  9 10  1  1  0  0  0
 11 16  1  0  0  0  0
 12 13  1  0  0  0  0
 12 15  1  1  0  0  0
 13 14  1  6  0  0  0
 13  3  1  0  0  0  0
 16 18  1  1  0  0  0
 16  9  1  0  0  0  0
 17  9  1  0  0  0  0
 17  6  1  1  0  0  0
 19 18  1  0  0  0  0
 20 19  1  0  0  0  0
 21 20  1  0  0  0  0
 22 21  1  0  0  0  0
 23 22  1  0  0  0  0
 24 23  1  0  0  0  0
 25 24  1  0  0  0  0
M  END
>  <MODEL>
8

>  <REMARK>
 VINA RESULT:      -5.9      3.631      7.277
  Name = 
  7 active torsions:
  status: ('A' for Active; 'I' for Inactive)
    1  A    between atoms: C_2  and  C_7
    2  A    between atoms: C_2  and  C_25
    3  A    between atoms: C_6  and  C_15
    4  A    between atoms: C_6  and  C_21
    5  A    between atoms: C_15  and  C_20
    6  A    between atoms: C_20  and  C_23
    7  A    between atoms: C_21  and  C_25
                            x       y       z     vdW  Elec       q    Type
                         _______ _______ _______ _____ _____    ______ ____

>  <TORSDO>
F 7

$$$$
=
 OpenBabel10262419563D

 25 28  0  0  1  0  0  0  0  0999 V2000
  184.6420  178.7000  143.1010 C   0  0  2  0  0  0  0  0  0  0  0  0
  185.7750  177.8320  143.6780 C   0  0  1  0  0  3  0  0  0  0  0  0
  183.7110  178.6280  145.6210 C   0  0  0  0  0  2  0  0  0  0  0  0
  184.2130  178.3840  141.6640 C   0  0  0  0  0  2  0  0  0  0  0  0
  180.5990  178.2110  141.7640 N   0  0  0  0  0  1  0  0  0  0  0  0
  184.7900  177.5760  145.8910 C   0  0  0  0  0  2  0  0  0  0  0  0
  181.9320  178.6730  142.1050 C   0  0  2  0  0  3  0  0  0  0  0  0
  182.9180  177.7140  141.6300 N   0  0  0  0  0  2  0  0  0  0  0  0
  187.2620  177.1540  145.3550 C   0  0  2  0  0  3  0  0  0  0  0  0
  187.9590  177.4970  146.6660 C   0  0  0  0  0  1  0  0  0  0  0  0
  187.1340  177.9360  143.0260 C   0  0  0  0  0  2  0  0  0  0  0  0
  184.2800  180.1260  143.5450 C   0  0  1  0  0  3  0  0  0  0  0  0
  183.4950  178.9280  144.1150 C   0  0  1  0  0  0  0  0  0  0  0  0
  182.0460  178.8260  143.6180 C   0  0  0  0  0  2  0  0  0  0  0  0
  185.3110  180.7530  144.4770 C   0  0  0  0  0  1  0  0  0  0  0  0
  188.1070  177.3890  144.0790 C   0  0  1  0  0  3  0  0  0  0  0  0
  186.0340  177.9980  145.1440 C   0  0  1  0  0  3  0  0  0  0  0  0
  189.2520  178.3840  144.2720 C   0  0  0  0  0  2  0  0  0  0  0  0
  190.2660  178.2850  143.1440 C   0  0  0  0  0  2  0  0  0  0  0  0
  191.5970  177.7680  143.6640 C   0  0  0  0  0  2  0  0  0  0  0  0
  191.6760  176.2580  143.5120 C   0  0  0  0  0  2  0  0  0  0  0  0
  191.8030  175.5630  144.8620 C   0  0  0  0  0  2  0  0  0  0  0  0
  191.6800  176.5530  146.0130 C   0  0  0  0  0  2  0  0  0  0  0  0
  191.6700  175.8440  147.3580 C   0  0  0  0  0  2  0  0  0  0  0  0
  192.8010  176.1990  148.0930 O   0  0  0  0  0  1  0  0  0  0  0  0
  1  4  1  6  0  0  0
  1 12  1  0  0  0  0
  1  2  1  0  0  0  0
  1 13  1  0  0  0  0
  2 11  1  6  0  0  0
  2 17  1  0  0  0  0
  3  6  1  0  0  0  0
  7  5  1  1  0  0  0
  7 14  1  0  0  0  0
  8  4  1  0  0  0  0
  8  7  1  0  0  0  0
  9 10  1  1  0  0  0
 11 16  1  0  0  0  0
 12 13  1  0  0  0  0
 12 15  1  1  0  0  0
 13 14  1  6  0  0  0
 13  3  1  0  0  0  0
 16 18  1  1  0  0  0
 16  9  1  0  0  0  0
 17  9  1  0  0  0  0
 17  6  1  1  0  0  0
 19 20  1  0  0  0  0
 19 18  1  0  0  0  0
 21 20  1  0  0  0  0
 21 22  1  0  0  0  0
 22 23  1  0  0  0  0
 23 24  1  0  0  0  0
 24 25  1  0  0  0  0
M  END
>  <MODEL>
9

>  <REMARK>
 VINA RESULT:      -5.9      3.555      7.392
  Name = 
  7 active torsions:
  status: ('A' for Active; 'I' for Inactive)
    1  A    between atoms: C_2  and  C_7
    2  A    between atoms: C_2  and  C_25
    3  A    between atoms: C_6  and  C_15
    4  A    between atoms: C_6  and  C_21
    5  A    between atoms: C_15  and  C_20
    6  A    between atoms: C_20  and  C_23
    7  A    between atoms: C_21  and  C_25
                            x       y       z     vdW  Elec       q    Type
                         _______ _______ _______ _____ _____    ______ ____

>  <TORSDO>
F 7

$$$$
