=
 OpenBabel10262422373D

 43 47  0  0  1  0  0  0  0  0999 V2000
  191.2370  176.9260  146.8720 C   0  0  0  0  0  0  0  0  0  0  0  0
  188.9180  177.8900  142.7360 C   0  0  1  0  0  3  0  0  0  0  0  0
  186.0940  178.0220  143.1780 C   0  0  0  0  0  0  0  0  0  0  0  0
  190.5810  176.2550  144.5340 C   0  0  2  0  0  3  0  0  0  0  0  0
  189.9070  177.5510  147.1740 C   0  0  0  0  0  2  0  0  0  0  0  0
  191.9580  176.5640  147.7880 O   0  0  0  0  0  0  0  0  0  0  0  0
  189.1430  176.7130  144.9450 C   0  0  1  0  0  3  0  0  0  0  0  0
  191.7000  176.7690  145.4530 C   0  0  0  0  0  2  0  0  0  0  0  0
  189.1680  177.9200  145.8900 C   0  0  0  0  0  2  0  0  0  0  0  0
  186.8560  177.3980  144.0860 C   0  0  0  0  0  3  0  0  0  0  0  0
  188.2400  176.9390  143.7280 C   0  0  1  0  0  3  0  0  0  0  0  0
  190.2000  177.2610  142.2620 C   0  0  0  0  0  3  0  0  0  0  0  0
  187.9750  178.2480  141.6050 C   0  0  0  0  0  0  0  0  0  0  0  0
  186.6620  178.3630  141.8510 C   0  0  0  0  0  3  0  0  0  0  0  0
  190.9570  176.5300  143.0930 C   0  0  0  0  0  3  0  0  0  0  0  0
  184.7170  178.4200  143.5200 C   0  0  0  0  0  0  0  0  0  0  0  0
  183.7450  178.5750  142.4840 N   0  0  0  0  0  2  0  0  0  0  0  0
  184.3930  178.6120  144.7230 O   0  0  0  0  0  0  0  0  0  0  0  0
  182.3620  178.9330  142.7490 C   0  0  0  0  0  2  0  0  0  0  0  0
  180.4910  179.5820  141.3180 C   0  0  0  0  0  3  0  0  0  0  0  0
  182.0590  177.8960  140.3990 C   0  0  0  0  0  2  0  0  0  0  0  0
  181.3900  179.5970  138.2070 C   0  0  0  0  0  2  0  0  0  0  0  0
  181.5710  178.8070  141.4910 C   0  0  0  0  0  0  0  0  0  0  0  0
  179.6650  179.5670  140.0610 C   0  0  0  0  0  2  0  0  0  0  0  0
  183.1540  178.5110  139.6420 N   0  0  0  0  0  0  0  0  0  0  0  0
  182.7320  179.7310  138.9310 C   0  0  0  0  0  2  0  0  0  0  0  0
  180.3120  180.3820  138.9420 C   0  0  0  0  0  2  0  0  0  0  0  0
  183.6150  177.5400  138.6600 C   0  0  0  0  0  2  0  0  0  0  0  0
  182.9370  176.1980  138.8950 C   0  0  0  0  0  2  0  0  0  0  0  0
  182.8690  175.3760  137.6140 C   0  0  0  0  0  2  0  0  0  0  0  0
  185.6090  175.2270  136.7690 O   0  0  0  0  0  0  0  0  0  0  0  0
  185.9360  172.9980  137.5240 C   0  0  0  0  0  1  0  0  0  0  0  0
  185.1020  174.2120  137.3140 C   0  0  0  0  0  0  0  0  0  0  0  0
  183.7290  174.2050  137.7160 N   0  0  0  0  0  2  0  0  0  0  0  0
  188.4980  178.7130  140.2840 C   0  0  0  0  0  2  0  0  0  0  0  0
  189.8760  176.9410  137.3700 C   0  0  0  0  0  2  0  0  0  0  0  0
  189.1160  177.8590  136.4090 C   0  0  2  0  0  3  0  0  0  0  0  0
  187.4610  177.8760  138.3270 C   0  0  0  0  0  2  0  0  0  0  0  0
  189.8690  177.5280  138.7800 C   0  0  0  0  0  2  0  0  0  0  0  0
  188.5080  177.6090  139.3340 N   0  0  0  0  0  0  0  0  0  0  0  0
  187.9870  178.6370  137.1040 C   0  0  0  0  0  2  0  0  0  0  0  0
  188.9460  175.2730  135.5040 S   0  0  0  0  0  1  0  0  0  0  0  0
  188.5680  177.0340  135.2550 C   0  0  0  0  0  2  0  0  0  0  0  0
  1  5  1  0  0  0  0
  1  6  2  0  0  0  0
  2 12  1  6  0  0  0
  2 11  1  0  0  0  0
  3 16  1  0  0  0  0
  3 10  2  0  0  0  0
  4 15  1  6  0  0  0
  4  7  1  0  0  0  0
  4  8  1  0  0  0  0
  7  9  1  6  0  0  0
  8  1  1  0  0  0  0
  9  5  1  0  0  0  0
 11 10  1  1  0  0  0
 11  7  1  0  0  0  0
 12 15  2  0  0  0  0
 13 14  2  0  0  0  0
 13  2  1  0  0  0  0
 14  3  1  0  0  0  0
 16 18  2  0  0  0  0
 17 19  1  0  0  0  0
 17 16  1  0  0  0  0
 20 23  2  0  0  0  0
 21 23  1  0  0  0  0
 22 26  1  0  0  0  0
 22 27  1  0  0  0  0
 23 19  1  0  0  0  0
 24 20  1  0  0  0  0
 25 21  1  0  0  0  0
 26 25  1  0  0  0  0
 27 24  1  0  0  0  0
 28 29  1  0  0  0  0
 28 25  1  0  0  0  0
 30 34  1  0  0  0  0
 30 29  1  0  0  0  0
 31 33  2  0  0  0  0
 33 32  1  0  0  0  0
 33 34  1  0  0  0  0
 35 13  1  0  0  0  0
 36 39  1  0  0  0  0
 37 43  1  6  0  0  0
 37 41  1  0  0  0  0
 37 36  1  0  0  0  0
 38 40  1  0  0  0  0
 39 40  1  0  0  0  0
 40 35  1  0  0  0  0
 41 38  1  0  0  0  0
 43 42  1  0  0  0  0
M  END
>  <MODEL>
1

>  <REMARK>
 VINA RESULT:      -9.1      0.000      0.000
  Name = 
  10 active torsions:
  status: ('A' for Active; 'I' for Inactive)
    1  A    between atoms: C_1  and  C_34
    2  A    between atoms: C_1  and  N_35
    3  A    between atoms: C_2  and  C_13
    4  A    between atoms: N_6  and  C_17
    5  A    between atoms: C_11  and  C_14
    6  A    between atoms: C_11  and  C_36
    7  A    between atoms: C_12  and  C_17
    8  A    between atoms: C_14  and  N_22
    9  A    between atoms: C_19  and  C_37
   10  A    between atoms: C_36  and  N_40
                            x       y       z     vdW  Elec       q    Type
                         _______ _______ _______ _____ _____    ______ ____

>  <TORSDO>
F 10

$$$$
=
 OpenBabel10262422373D

 43 47  0  0  1  0  0  0  0  0999 V2000
  186.2910  178.0170  146.1270 C   0  0  0  0  0  0  0  0  0  0  0  0
  183.4960  178.4510  142.2010 C   0  0  1  0  0  3  0  0  0  0  0  0
  185.1050  178.6140  139.8390 C   0  0  0  0  0  0  0  0  0  0  0  0
  184.6250  179.3340  144.7740 C   0  0  2  0  0  3  0  0  0  0  0  0
  187.0390  177.5310  144.9210 C   0  0  0  0  0  2  0  0  0  0  0  0
  186.8430  178.0340  147.2160 O   0  0  0  0  0  0  0  0  0  0  0  0
  185.5430  178.9970  143.5540 C   0  0  1  0  0  3  0  0  0  0  0  0
  184.8600  178.4550  146.0110 C   0  0  0  0  0  2  0  0  0  0  0  0
  186.1680  177.6020  143.6690 C   0  0  0  0  0  2  0  0  0  0  0  0
  185.6760  178.8780  141.0230 C   0  0  0  0  0  3  0  0  0  0  0  0
  184.8270  179.2110  142.2160 C   0  0  1  0  0  3  0  0  0  0  0  0
  182.6190  178.9900  143.2970 C   0  0  0  0  0  3  0  0  0  0  0  0
  182.8530  178.5230  140.8320 C   0  0  0  0  0  0  0  0  0  0  0  0
  183.6280  178.5370  139.7370 C   0  0  0  0  0  3  0  0  0  0  0  0
  183.1410  179.3770  144.4710 C   0  0  0  0  0  3  0  0  0  0  0  0
  185.9460  178.3430  138.6610 C   0  0  0  0  0  0  0  0  0  0  0  0
  187.3520  178.5880  138.7200 N   0  0  0  0  0  2  0  0  0  0  0  0
  185.4290  177.8850  137.6050 O   0  0  0  0  0  0  0  0  0  0  0  0
  188.2470  178.3130  137.6090 C   0  0  0  0  0  2  0  0  0  0  0  0
  188.8870  176.1070  136.7740 C   0  0  0  0  0  3  0  0  0  0  0  0
  189.5660  176.6570  139.0940 C   0  0  0  0  0  2  0  0  0  0  0  0
  191.7660  175.2300  137.9680 C   0  0  0  0  0  2  0  0  0  0  0  0
  188.8710  176.9720  137.7980 C   0  0  0  0  0  0  0  0  0  0  0  0
  189.5430  174.7560  136.8530 C   0  0  0  0  0  2  0  0  0  0  0  0
  190.8930  177.2770  139.1520 N   0  0  0  0  0  0  0  0  0  0  0  0
  191.8050  176.7530  138.1200 C   0  0  0  0  0  2  0  0  0  0  0  0
  191.0580  174.8460  136.6770 C   0  0  0  0  0  2  0  0  0  0  0  0
  191.4620  176.9860  140.4610 C   0  0  0  0  0  2  0  0  0  0  0  0
  190.4530  177.3120  141.5530 C   0  0  0  0  0  2  0  0  0  0  0  0
  191.0770  178.1630  142.6520 C   0  0  0  0  0  2  0  0  0  0  0  0
  190.2400  178.1530  145.3980 O   0  0  0  0  0  0  0  0  0  0  0  0
  191.6800  176.3780  146.0450 C   0  0  0  0  0  1  0  0  0  0  0  0
  191.1260  177.3310  145.0460 C   0  0  0  0  0  0  0  0  0  0  0  0
  191.6200  177.3150  143.7040 N   0  0  0  0  0  2  0  0  0  0  0  0
  181.3800  178.3320  140.6610 C   0  0  0  0  0  2  0  0  0  0  0  0
  179.0970  176.6760  138.3000 C   0  0  0  0  0  2  0  0  0  0  0  0
  178.9370  175.4790  139.2410 C   0  0  2  0  0  3  0  0  0  0  0  0
  181.3150  176.1110  139.8440 C   0  0  0  0  0  2  0  0  0  0  0  0
  179.7450  177.8460  139.0380 C   0  0  0  0  0  2  0  0  0  0  0  0
  181.1140  177.5280  139.4770 N   0  0  0  0  0  0  0  0  0  0  0  0
  180.0290  175.4280  140.3220 C   0  0  0  0  0  2  0  0  0  0  0  0
  179.1400  174.5730  136.6570 S   0  0  0  0  0  1  0  0  0  0  0  0
  178.9310  174.1970  138.4240 C   0  0  0  0  0  2  0  0  0  0  0  0
  1  6  2  0  0  0  0
  2 11  1  0  0  0  0
  2 12  1  1  0  0  0
  3 10  2  0  0  0  0
  4 15  1  6  0  0  0
  4  8  1  0  0  0  0
  5  1  1  0  0  0  0
  7  9  1  1  0  0  0
  7  4  1  0  0  0  0
  8  1  1  0  0  0  0
  9  5  1  0  0  0  0
 11 10  1  6  0  0  0
 11  7  1  0  0  0  0
 12 15  2  0  0  0  0
 13  2  1  0  0  0  0
 14  3  1  0  0  0  0
 14 13  2  0  0  0  0
 16 17  1  0  0  0  0
 16  3  1  0  0  0  0
 18 16  2  0  0  0  0
 19 23  1  0  0  0  0
 19 17  1  0  0  0  0
 20 24  1  0  0  0  0
 20 23  2  0  0  0  0
 21 25  1  0  0  0  0
 22 26  1  0  0  0  0
 23 21  1  0  0  0  0
 25 28  1  0  0  0  0
 26 25  1  0  0  0  0
 27 24  1  0  0  0  0
 27 22  1  0  0  0  0
 28 29  1  0  0  0  0
 29 30  1  0  0  0  0
 30 34  1  0  0  0  0
 33 31  2  0  0  0  0
 33 32  1  0  0  0  0
 34 33  1  0  0  0  0
 35 13  1  0  0  0  0
 36 39  1  0  0  0  0
 36 37  1  0  0  0  0
 37 43  1  6  0  0  0
 37 41  1  0  0  0  0
 38 41  1  0  0  0  0
 39 40  1  0  0  0  0
 40 38  1  0  0  0  0
 40 35  1  0  0  0  0
 42 43  1  0  0  0  0
M  END
>  <MODEL>
2

>  <REMARK>
 VINA RESULT:      -8.9      2.680      8.143
  Name = 
  10 active torsions:
  status: ('A' for Active; 'I' for Inactive)
    1  A    between atoms: C_1  and  C_34
    2  A    between atoms: C_1  and  N_35
    3  A    between atoms: C_2  and  C_13
    4  A    between atoms: N_6  and  C_17
    5  A    between atoms: C_11  and  C_14
    6  A    between atoms: C_11  and  C_36
    7  A    between atoms: C_12  and  C_17
    8  A    between atoms: C_14  and  N_22
    9  A    between atoms: C_19  and  C_37
   10  A    between atoms: C_36  and  N_40
                            x       y       z     vdW  Elec       q    Type
                         _______ _______ _______ _____ _____    ______ ____

>  <TORSDO>
F 10

$$$$
=
 OpenBabel10262422373D

 43 47  0  0  1  0  0  0  0  0999 V2000
  191.5000  176.4110  146.9190 C   0  0  0  0  0  0  0  0  0  0  0  0
  187.6110  177.5010  144.2540 C   0  0  1  0  0  3  0  0  0  0  0  0
  188.3860  178.1870  141.5850 C   0  0  0  0  0  0  0  0  0  0  0  0
  189.5250  177.9040  146.4550 C   0  0  2  0  0  3  0  0  0  0  0  0
  191.8100  176.2010  145.4660 C   0  0  0  0  0  2  0  0  0  0  0  0
  192.3710  176.2340  147.7560 O   0  0  0  0  0  0  0  0  0  0  0  0
  189.9960  177.8490  144.9660 C   0  0  1  0  0  3  0  0  0  0  0  0
  190.1190  176.8080  147.3540 C   0  0  0  0  0  2  0  0  0  0  0  0
  190.5880  176.4830  144.5960 C   0  0  0  0  0  2  0  0  0  0  0  0
  189.3110  178.2350  142.5530 C   0  0  0  0  0  3  0  0  0  0  0  0
  188.8970  178.2940  143.9960 C   0  0  1  0  0  3  0  0  0  0  0  0
  187.1450  177.7800  145.6560 C   0  0  0  0  0  3  0  0  0  0  0  0
  186.5670  177.8160  143.2030 C   0  0  0  0  0  0  0  0  0  0  0  0
  186.9520  178.0750  141.9440 C   0  0  0  0  0  3  0  0  0  0  0  0
  188.0240  177.9480  146.6550 C   0  0  0  0  0  3  0  0  0  0  0  0
  188.7980  178.1860  140.1710 C   0  0  0  0  0  0  0  0  0  0  0  0
  189.9110  177.3910  139.7580 N   0  0  0  0  0  2  0  0  0  0  0  0
  188.1660  178.8740  139.3250 O   0  0  0  0  0  0  0  0  0  0  0  0
  190.3540  177.3150  138.3760 C   0  0  0  0  0  2  0  0  0  0  0  0
  188.9260  175.7040  137.2180 C   0  0  0  0  0  3  0  0  0  0  0  0
  191.1600  174.8980  137.9290 C   0  0  0  0  0  2  0  0  0  0  0  0
  190.7040  173.7340  135.3630 C   0  0  0  0  0  2  0  0  0  0  0  0
  190.0850  175.9460  137.8460 C   0  0  0  0  0  0  0  0  0  0  0  0
  188.5910  174.3750  136.6020 C   0  0  0  0  0  2  0  0  0  0  0  0
  192.1770  175.0940  136.8910 N   0  0  0  0  0  0  0  0  0  0  0  0
  191.6300  174.9420  135.5310 C   0  0  0  0  0  2  0  0  0  0  0  0
  189.2580  174.1910  135.2400 C   0  0  0  0  0  2  0  0  0  0  0  0
  193.2120  174.0880  137.0880 C   0  0  0  0  0  2  0  0  0  0  0  0
  194.3770  174.6830  137.8660 C   0  0  0  0  0  2  0  0  0  0  0  0
  195.4150  173.6240  138.2110 C   0  0  0  0  0  2  0  0  0  0  0  0
  197.7430  175.3010  138.3200 O   0  0  0  0  0  0  0  0  0  0  0  0
  197.9080  175.2690  140.6900 C   0  0  0  0  0  1  0  0  0  0  0  0
  197.2700  174.8730  139.4060 C   0  0  0  0  0  0  0  0  0  0  0  0
  196.1400  173.9970  139.4180 N   0  0  0  0  0  2  0  0  0  0  0  0
  185.1110  177.6070  143.4760 C   0  0  0  0  0  2  0  0  0  0  0  0
  181.9920  179.5420  143.2430 C   0  0  0  0  0  2  0  0  0  0  0  0
  181.5530  178.7510  142.0070 C   0  0  2  0  0  3  0  0  0  0  0  0
  184.0580  178.6600  141.6370 C   0  0  0  0  0  2  0  0  0  0  0  0
  183.1580  178.8390  143.9350 C   0  0  0  0  0  2  0  0  0  0  0  0
  184.3540  178.7850  143.0790 N   0  0  0  0  0  0  0  0  0  0  0  0
  182.7130  177.9790  141.3580 C   0  0  0  0  0  2  0  0  0  0  0  0
  180.9600  178.9800  139.3370 S   0  0  0  0  0  1  0  0  0  0  0  0
  180.9120  179.6990  141.0070 C   0  0  0  0  0  2  0  0  0  0  0  0
  1  8  1  0  0  0  0
  1  6  2  0  0  0  0
  2 12  1  1  0  0  0
  3 14  1  0  0  0  0
  3 10  2  0  0  0  0
  4 15  1  6  0  0  0
  4  8  1  0  0  0  0
  5  1  1  0  0  0  0
  7  9  1  6  0  0  0
  7  4  1  0  0  0  0
  9  5  1  0  0  0  0
 11 10  1  6  0  0  0
 11  2  1  0  0  0  0
 11  7  1  0  0  0  0
 12 15  2  0  0  0  0
 13 35  1  0  0  0  0
 13  2  1  0  0  0  0
 14 13  2  0  0  0  0
 16  3  1  0  0  0  0
 17 16  1  0  0  0  0
 18 16  2  0  0  0  0
 19 17  1  0  0  0  0
 20 23  2  0  0  0  0
 22 26  1  0  0  0  0
 23 21  1  0  0  0  0
 23 19  1  0  0  0  0
 24 20  1  0  0  0  0
 25 28  1  0  0  0  0
 25 21  1  0  0  0  0
 26 25  1  0  0  0  0
 27 22  1  0  0  0  0
 27 24  1  0  0  0  0
 28 29  1  0  0  0  0
 29 30  1  0  0  0  0
 30 34  1  0  0  0  0
 31 33  2  0  0  0  0
 33 34  1  0  0  0  0
 33 32  1  0  0  0  0
 36 39  1  0  0  0  0
 37 43  1  6  0  0  0
 37 36  1  0  0  0  0
 38 40  1  0  0  0  0
 40 35  1  0  0  0  0
 40 39  1  0  0  0  0
 41 38  1  0  0  0  0
 41 37  1  0  0  0  0
 42 43  1  0  0  0  0
M  END
>  <MODEL>
3

>  <REMARK>
 VINA RESULT:      -8.6      3.788      8.066
  Name = 
  10 active torsions:
  status: ('A' for Active; 'I' for Inactive)
    1  A    between atoms: C_1  and  C_34
    2  A    between atoms: C_1  and  N_35
    3  A    between atoms: C_2  and  C_13
    4  A    between atoms: N_6  and  C_17
    5  A    between atoms: C_11  and  C_14
    6  A    between atoms: C_11  and  C_36
    7  A    between atoms: C_12  and  C_17
    8  A    between atoms: C_14  and  N_22
    9  A    between atoms: C_19  and  C_37
   10  A    between atoms: C_36  and  N_40
                            x       y       z     vdW  Elec       q    Type
                         _______ _______ _______ _____ _____    ______ ____

>  <TORSDO>
F 10

$$$$
=
 OpenBabel10262422373D

 43 47  0  0  1  0  0  0  0  0999 V2000
  192.5570  173.5430  136.5730 C   0  0  0  0  0  0  0  0  0  0  0  0
  190.0360  176.8410  139.0600 C   0  0  1  0  0  3  0  0  0  0  0  0
  187.5040  177.3160  137.8120 C   0  0  0  0  0  0  0  0  0  0  0  0
  192.2930  175.9010  137.4190 C   0  0  2  0  0  3  0  0  0  0  0  0
  191.0920  173.3730  136.2950 C   0  0  0  0  0  2  0  0  0  0  0  0
  193.3690  172.8340  136.0020 O   0  0  0  0  0  0  0  0  0  0  0  0
  190.8170  175.7780  136.9200 C   0  0  1  0  0  3  0  0  0  0  0  0
  193.0290  174.5610  137.5700 C   0  0  0  0  0  2  0  0  0  0  0  0
  190.2590  174.3620  137.1060 C   0  0  0  0  0  2  0  0  0  0  0  0
  188.4780  176.7500  137.0880 C   0  0  0  0  0  3  0  0  0  0  0  0
  189.9100  176.8510  137.5330 C   0  0  1  0  0  3  0  0  0  0  0  0
  191.4580  177.1590  139.4290 C   0  0  0  0  0  3  0  0  0  0  0  0
  189.0300  177.7850  139.6870 C   0  0  0  0  0  0  0  0  0  0  0  0
  187.8270  177.9440  139.1160 C   0  0  0  0  0  3  0  0  0  0  0  0
  192.4800  176.7150  138.6840 C   0  0  0  0  0  3  0  0  0  0  0  0
  186.1090  177.2610  137.3410 C   0  0  0  0  0  0  0  0  0  0  0  0
  185.0540  177.7090  138.1930 N   0  0  0  0  0  2  0  0  0  0  0  0
  185.8470  176.8290  136.1850 O   0  0  0  0  0  0  0  0  0  0  0  0
  183.6600  177.7140  137.7830 C   0  0  0  0  0  2  0  0  0  0  0  0
  182.0060  179.5140  137.8300 C   0  0  0  0  0  3  0  0  0  0  0  0
  183.2050  179.0520  139.9500 C   0  0  0  0  0  2  0  0  0  0  0  0
  180.5080  179.6090  140.6990 C   0  0  0  0  0  2  0  0  0  0  0  0
  182.9430  178.8170  138.4880 C   0  0  0  0  0  0  0  0  0  0  0  0
  181.1930  180.6030  138.4720 C   0  0  0  0  0  2  0  0  0  0  0  0
  182.5020  178.0710  140.7830 N   0  0  0  0  0  0  0  0  0  0  0  0
  181.0380  178.1730  140.6590 C   0  0  0  0  0  2  0  0  0  0  0  0
  180.0470  180.0400  139.3130 C   0  0  0  0  0  2  0  0  0  0  0  0
  182.8680  178.3230  142.1700 C   0  0  0  0  0  2  0  0  0  0  0  0
  184.3740  178.5080  142.2870 C   0  0  0  0  0  2  0  0  0  0  0  0
  184.7220  179.6870  143.1870 C   0  0  0  0  0  2  0  0  0  0  0  0
  183.4220  179.0560  145.6670 O   0  0  0  0  0  0  0  0  0  0  0  0
  185.4070  178.3440  146.7630 C   0  0  0  0  0  1  0  0  0  0  0  0
  184.6670  178.8860  145.5920 C   0  0  0  0  0  0  0  0  0  0  0  0
  185.3810  179.2240  144.3990 N   0  0  0  0  0  2  0  0  0  0  0  0
  189.2540  178.3520  141.0520 C   0  0  0  0  0  2  0  0  0  0  0  0
  187.9740  176.9230  144.1910 C   0  0  0  0  0  2  0  0  0  0  0  0
  188.9830  177.7310  145.0100 C   0  0  2  0  0  3  0  0  0  0  0  0
  190.3730  177.4160  142.9160 C   0  0  0  0  0  2  0  0  0  0  0  0
  187.9040  177.4580  142.7610 C   0  0  0  0  0  2  0  0  0  0  0  0
  189.1820  177.2950  142.0510 N   0  0  0  0  0  0  0  0  0  0  0  0
  190.1300  178.2900  144.1510 C   0  0  0  0  0  2  0  0  0  0  0  0
  188.9570  177.4840  147.7440 S   0  0  0  0  0  1  0  0  0  0  0  0
  189.5270  176.8630  146.1330 C   0  0  0  0  0  2  0  0  0  0  0  0
  1  8  1  0  0  0  0
  2 12  1  6  0  0  0
  2 13  1  0  0  0  0
  3 14  1  0  0  0  0
  4  8  1  1  0  0  0
  4 15  1  0  0  0  0
  5  1  1  0  0  0  0
  5  9  1  0  0  0  0
  6  1  2  0  0  0  0
  7  9  1  1  0  0  0
  7  4  1  0  0  0  0
  7 11  1  0  0  0  0
 10  3  2  0  0  0  0
 11 10  1  1  0  0  0
 11  2  1  0  0  0  0
 13 35  1  0  0  0  0
 14 13  2  0  0  0  0
 15 12  2  0  0  0  0
 16  3  1  0  0  0  0
 16 17  1  0  0  0  0
 18 16  2  0  0  0  0
 19 17  1  0  0  0  0
 19 23  1  0  0  0  0
 20 24  1  0  0  0  0
 20 23  2  0  0  0  0
 21 25  1  0  0  0  0
 23 21  1  0  0  0  0
 24 27  1  0  0  0  0
 25 28  1  0  0  0  0
 26 22  1  0  0  0  0
 26 25  1  0  0  0  0
 27 22  1  0  0  0  0
 28 29  1  0  0  0  0
 29 30  1  0  0  0  0
 30 34  1  0  0  0  0
 33 31  2  0  0  0  0
 33 32  1  0  0  0  0
 34 33  1  0  0  0  0
 35 40  1  0  0  0  0
 36 37  1  0  0  0  0
 37 43  1  1  0  0  0
 38 41  1  0  0  0  0
 39 36  1  0  0  0  0
 40 39  1  0  0  0  0
 40 38  1  0  0  0  0
 41 37  1  0  0  0  0
 43 42  1  0  0  0  0
M  END
>  <MODEL>
4

>  <REMARK>
 VINA RESULT:      -8.6      2.934      6.940
  Name = 
  10 active torsions:
  status: ('A' for Active; 'I' for Inactive)
    1  A    between atoms: C_1  and  C_34
    2  A    between atoms: C_1  and  N_35
    3  A    between atoms: C_2  and  C_13
    4  A    between atoms: N_6  and  C_17
    5  A    between atoms: C_11  and  C_14
    6  A    between atoms: C_11  and  C_36
    7  A    between atoms: C_12  and  C_17
    8  A    between atoms: C_14  and  N_22
    9  A    between atoms: C_19  and  C_37
   10  A    between atoms: C_36  and  N_40
                            x       y       z     vdW  Elec       q    Type
                         _______ _______ _______ _____ _____    ______ ____

>  <TORSDO>
F 10

$$$$
=
 OpenBabel10262422373D

 43 47  0  0  1  0  0  0  0  0999 V2000
  191.0570  177.1560  147.0020 C   0  0  0  0  0  0  0  0  0  0  0  0
  189.0490  177.8780  142.6590 C   0  0  1  0  0  3  0  0  0  0  0  0
  186.1950  177.9140  142.8690 C   0  0  0  0  0  0  0  0  0  0  0  0
  190.6190  176.3770  144.6480 C   0  0  2  0  0  3  0  0  0  0  0  0
  189.6850  177.7380  147.1720 C   0  0  0  0  0  2  0  0  0  0  0  0
  191.7150  176.8560  147.9860 O   0  0  0  0  0  0  0  0  0  0  0  0
  189.1370  176.7910  144.9240 C   0  0  1  0  0  3  0  0  0  0  0  0
  191.6400  176.9660  145.6320 C   0  0  0  0  0  2  0  0  0  0  0  0
  189.0400  178.0310  145.8200 C   0  0  0  0  0  2  0  0  0  0  0  0
  186.9030  177.3530  143.8590 C   0  0  0  0  0  3  0  0  0  0  0  0
  188.3280  176.9380  143.6300 C   0  0  1  0  0  3  0  0  0  0  0  0
  190.3870  177.2840  142.3150 C   0  0  0  0  0  3  0  0  0  0  0  0
  188.1890  178.1580  141.4440 C   0  0  0  0  0  0  0  0  0  0  0  0
  186.8560  178.2300  141.5800 C   0  0  0  0  0  3  0  0  0  0  0  0
  191.1010  176.6140  143.2310 C   0  0  0  0  0  3  0  0  0  0  0  0
  184.7820  178.2680  143.0840 C   0  0  0  0  0  0  0  0  0  0  0  0
  183.8950  178.3580  141.9670 N   0  0  0  0  0  2  0  0  0  0  0  0
  184.3520  178.4810  144.2500 O   0  0  0  0  0  0  0  0  0  0  0  0
  182.4830  178.6710  142.1070 C   0  0  0  0  0  2  0  0  0  0  0  0
  182.5580  179.5150  139.8140 C   0  0  0  0  0  3  0  0  0  0  0  0
  180.5760  178.1620  140.4340 C   0  0  0  0  0  2  0  0  0  0  0  0
  181.2370  177.3800  137.7710 C   0  0  0  0  0  2  0  0  0  0  0  0
  181.8800  178.8410  140.7530 C   0  0  0  0  0  0  0  0  0  0  0  0
  182.0580  179.6890  138.4070 C   0  0  0  0  0  2  0  0  0  0  0  0
  180.7710  176.7340  140.1620 N   0  0  0  0  0  0  0  0  0  0  0  0
  181.6010  176.4980  138.9670 C   0  0  0  0  0  2  0  0  0  0  0  0
  182.3030  178.4440  137.5550 C   0  0  0  0  0  2  0  0  0  0  0  0
  179.4600  176.1420  139.9380 C   0  0  0  0  0  2  0  0  0  0  0  0
  179.3960  174.7600  140.5720 C   0  0  0  0  0  2  0  0  0  0  0  0
  178.9310  173.7090  139.5720 C   0  0  0  0  0  2  0  0  0  0  0  0
  180.8370  172.8500  137.6050 O   0  0  0  0  0  0  0  0  0  0  0  0
  179.9820  174.2340  135.8730 C   0  0  0  0  0  1  0  0  0  0  0  0
  179.9870  173.7160  137.2670 C   0  0  0  0  0  0  0  0  0  0  0  0
  179.0390  174.2190  138.2120 N   0  0  0  0  0  2  0  0  0  0  0  0
  188.8000  178.5950  140.1520 C   0  0  0  0  0  2  0  0  0  0  0  0
  189.8530  176.5870  137.2550 C   0  0  0  0  0  2  0  0  0  0  0  0
  189.5670  177.7500  136.3010 C   0  0  2  0  0  3  0  0  0  0  0  0
  187.7910  178.2480  138.0390 C   0  0  0  0  0  2  0  0  0  0  0  0
  189.8700  177.0800  138.7010 C   0  0  0  0  0  2  0  0  0  0  0  0
  188.5570  177.5960  139.1210 N   0  0  0  0  0  0  0  0  0  0  0  0
  188.6860  178.8360  136.9410 C   0  0  0  0  0  2  0  0  0  0  0  0
  188.8710  175.3950  135.0750 S   0  0  0  0  0  1  0  0  0  0  0  0
  188.9210  177.2120  135.0350 C   0  0  0  0  0  2  0  0  0  0  0  0
  1  5  1  0  0  0  0
  1  6  2  0  0  0  0
  2 12  1  6  0  0  0
  2 11  1  0  0  0  0
  3 16  1  0  0  0  0
  3 10  2  0  0  0  0
  4 15  1  6  0  0  0
  4  7  1  0  0  0  0
  4  8  1  0  0  0  0
  7  9  1  6  0  0  0
  8  1  1  0  0  0  0
  9  5  1  0  0  0  0
 11 10  1  1  0  0  0
 11  7  1  0  0  0  0
 12 15  2  0  0  0  0
 13 14  2  0  0  0  0
 13  2  1  0  0  0  0
 14  3  1  0  0  0  0
 16 18  2  0  0  0  0
 17 19  1  0  0  0  0
 17 16  1  0  0  0  0
 20 23  2  0  0  0  0
 21 23  1  0  0  0  0
 22 26  1  0  0  0  0
 23 19  1  0  0  0  0
 24 20  1  0  0  0  0
 25 21  1  0  0  0  0
 26 25  1  0  0  0  0
 27 22  1  0  0  0  0
 27 24  1  0  0  0  0
 28 25  1  0  0  0  0
 28 29  1  0  0  0  0
 30 29  1  0  0  0  0
 32 33  1  0  0  0  0
 33 31  2  0  0  0  0
 33 34  1  0  0  0  0
 34 30  1  0  0  0  0
 35 13  1  0  0  0  0
 36 39  1  0  0  0  0
 37 43  1  6  0  0  0
 37 41  1  0  0  0  0
 37 36  1  0  0  0  0
 38 40  1  0  0  0  0
 39 40  1  0  0  0  0
 40 35  1  0  0  0  0
 41 38  1  0  0  0  0
 43 42  1  0  0  0  0
M  END
>  <MODEL>
5

>  <REMARK>
 VINA RESULT:      -8.4      1.878      2.342
  Name = 
  10 active torsions:
  status: ('A' for Active; 'I' for Inactive)
    1  A    between atoms: C_1  and  C_34
    2  A    between atoms: C_1  and  N_35
    3  A    between atoms: C_2  and  C_13
    4  A    between atoms: N_6  and  C_17
    5  A    between atoms: C_11  and  C_14
    6  A    between atoms: C_11  and  C_36
    7  A    between atoms: C_12  and  C_17
    8  A    between atoms: C_14  and  N_22
    9  A    between atoms: C_19  and  C_37
   10  A    between atoms: C_36  and  N_40
                            x       y       z     vdW  Elec       q    Type
                         _______ _______ _______ _____ _____    ______ ____

>  <TORSDO>
F 10

$$$$
=
 OpenBabel10262422373D

 43 47  0  0  1  0  0  0  0  0999 V2000
  186.0460  178.3310  145.7650 C   0  0  0  0  0  0  0  0  0  0  0  0
  183.8850  178.1300  141.4400 C   0  0  1  0  0  3  0  0  0  0  0  0
  185.8210  178.3350  139.3430 C   0  0  0  0  0  0  0  0  0  0  0  0
  184.4760  179.3270  144.0650 C   0  0  2  0  0  3  0  0  0  0  0  0
  187.0280  177.8640  144.7330 C   0  0  0  0  0  2  0  0  0  0  0  0
  186.4100  178.4940  146.9190 O   0  0  0  0  0  0  0  0  0  0  0  0
  185.6110  179.0270  143.0320 C   0  0  1  0  0  3  0  0  0  0  0  0
  184.6110  178.5730  145.3970 C   0  0  0  0  0  2  0  0  0  0  0  0
  186.3680  177.7350  143.3630 C   0  0  0  0  0  2  0  0  0  0  0  0
  186.1610  178.7510  140.5700 C   0  0  0  0  0  3  0  0  0  0  0  0
  185.0990  179.0540  141.5880 C   0  0  1  0  0  3  0  0  0  0  0  0
  182.7870  178.6270  142.3400 C   0  0  0  0  0  3  0  0  0  0  0  0
  183.4660  178.0240  139.9890 C   0  0  0  0  0  0  0  0  0  0  0  0
  184.3990  178.0610  139.0260 C   0  0  0  0  0  3  0  0  0  0  0  0
  183.0660  179.1580  143.5400 C   0  0  0  0  0  3  0  0  0  0  0  0
  186.8660  178.0930  138.3330 C   0  0  0  0  0  0  0  0  0  0  0  0
  186.9360  176.8270  137.6740 N   0  0  0  0  0  2  0  0  0  0  0  0
  187.6890  179.0030  138.0420 O   0  0  0  0  0  0  0  0  0  0  0  0
  187.9180  176.5290  136.6450 C   0  0  0  0  0  2  0  0  0  0  0  0
  189.4580  174.6370  136.4960 C   0  0  0  0  0  3  0  0  0  0  0  0
  189.5910  176.0180  138.5510 C   0  0  0  0  0  2  0  0  0  0  0  0
  192.2890  175.3610  137.8920 C   0  0  0  0  0  2  0  0  0  0  0  0
  188.9870  175.6620  137.2200 C   0  0  0  0  0  0  0  0  0  0  0  0
  190.5730  173.7440  136.9680 C   0  0  0  0  0  2  0  0  0  0  0  0
  190.5570  177.1130  138.4220 N   0  0  0  0  0  0  0  0  0  0  0  0
  191.7150  176.7480  137.5880 C   0  0  0  0  0  2  0  0  0  0  0  0
  191.9440  174.3900  136.7720 C   0  0  0  0  0  2  0  0  0  0  0  0
  191.0340  177.4430  139.7580 C   0  0  0  0  0  2  0  0  0  0  0  0
  190.1970  176.7220  140.8040 C   0  0  0  0  0  2  0  0  0  0  0  0
  189.7760  177.6640  141.9250 C   0  0  0  0  0  2  0  0  0  0  0  0
  191.6840  178.7540  143.7720 O   0  0  0  0  0  0  0  0  0  0  0  0
  191.3000  177.1190  145.4530 C   0  0  0  0  0  1  0  0  0  0  0  0
  191.0560  177.7170  144.1130 C   0  0  0  0  0  0  0  0  0  0  0  0
  190.1250  177.0990  143.2210 N   0  0  0  0  0  2  0  0  0  0  0  0
  182.0710  177.6350  139.6160 C   0  0  0  0  0  2  0  0  0  0  0  0
  181.3950  181.1410  138.7360 C   0  0  0  0  0  2  0  0  0  0  0  0
  180.2480  181.2100  139.7480 C   0  0  2  0  0  3  0  0  0  0  0  0
  180.0480  178.7630  139.1270 C   0  0  0  0  0  2  0  0  0  0  0  0
  182.2430  179.8950  138.9810 C   0  0  0  0  0  2  0  0  0  0  0  0
  181.4770  178.6570  138.7670 N   0  0  0  0  0  0  0  0  0  0  0  0
  179.7780  179.8190  140.2040 C   0  0  0  0  0  2  0  0  0  0  0  0
  179.2810  182.1100  137.3420 S   0  0  0  0  0  1  0  0  0  0  0  0
  179.0950  181.9970  139.1470 C   0  0  0  0  0  2  0  0  0  0  0  0
  1  6  2  0  0  0  0
  2 11  1  0  0  0  0
  2 12  1  1  0  0  0
  3 10  2  0  0  0  0
  4 15  1  6  0  0  0
  4  8  1  0  0  0  0
  5  1  1  0  0  0  0
  7  9  1  1  0  0  0
  7  4  1  0  0  0  0
  8  1  1  0  0  0  0
  9  5  1  0  0  0  0
 11 10  1  6  0  0  0
 11  7  1  0  0  0  0
 12 15  2  0  0  0  0
 13  2  1  0  0  0  0
 14  3  1  0  0  0  0
 14 13  2  0  0  0  0
 16  3  1  0  0  0  0
 17 16  1  0  0  0  0
 18 16  2  0  0  0  0
 19 23  1  0  0  0  0
 19 17  1  0  0  0  0
 20 24  1  0  0  0  0
 20 23  2  0  0  0  0
 23 21  1  0  0  0  0
 25 21  1  0  0  0  0
 25 28  1  0  0  0  0
 26 22  1  0  0  0  0
 26 25  1  0  0  0  0
 27 24  1  0  0  0  0
 27 22  1  0  0  0  0
 28 29  1  0  0  0  0
 29 30  1  0  0  0  0
 30 34  1  0  0  0  0
 31 33  2  0  0  0  0
 33 32  1  0  0  0  0
 34 33  1  0  0  0  0
 35 13  1  0  0  0  0
 36 39  1  0  0  0  0
 36 37  1  0  0  0  0
 37 43  1  6  0  0  0
 37 41  1  0  0  0  0
 38 41  1  0  0  0  0
 40 39  1  0  0  0  0
 40 38  1  0  0  0  0
 40 35  1  0  0  0  0
 42 43  1  0  0  0  0
M  END
>  <MODEL>
6

>  <REMARK>
 VINA RESULT:      -8.4      2.836      8.175
  Name = 
  10 active torsions:
  status: ('A' for Active; 'I' for Inactive)
    1  A    between atoms: C_1  and  C_34
    2  A    between atoms: C_1  and  N_35
    3  A    between atoms: C_2  and  C_13
    4  A    between atoms: N_6  and  C_17
    5  A    between atoms: C_11  and  C_14
    6  A    between atoms: C_11  and  C_36
    7  A    between atoms: C_12  and  C_17
    8  A    between atoms: C_14  and  N_22
    9  A    between atoms: C_19  and  C_37
   10  A    between atoms: C_36  and  N_40
                            x       y       z     vdW  Elec       q    Type
                         _______ _______ _______ _____ _____    ______ ____

>  <TORSDO>
F 10

$$$$
=
 OpenBabel10262422373D

 43 47  0  0  1  0  0  0  0  0999 V2000
  181.7920  173.7140  135.5320 C   0  0  0  0  0  0  0  0  0  0  0  0
  184.7120  177.0910  137.4000 C   0  0  1  0  0  3  0  0  0  0  0  0
  183.5820  178.1790  139.7940 C   0  0  0  0  0  0  0  0  0  0  0  0
  182.9250  175.9570  135.3530 C   0  0  2  0  0  3  0  0  0  0  0  0
  181.5250  173.8550  137.0010 C   0  0  0  0  0  2  0  0  0  0  0  0
  181.1230  172.9420  134.8650 O   0  0  0  0  0  0  0  0  0  0  0  0
  182.4440  176.1740  136.8240 C   0  0  1  0  0  3  0  0  0  0  0  0
  182.8970  174.4950  134.8810 C   0  0  0  0  0  2  0  0  0  0  0  0
  182.4660  174.8740  137.6370 C   0  0  0  0  0  2  0  0  0  0  0  0
  182.7750  177.5350  138.9400 C   0  0  0  0  0  3  0  0  0  0  0  0
  183.2000  177.3120  137.5170 C   0  0  1  0  0  3  0  0  0  0  0  0
  185.0890  177.0910  135.9440 C   0  0  0  0  0  3  0  0  0  0  0  0
  185.4690  178.1200  138.2130 C   0  0  0  0  0  0  0  0  0  0  0  0
  184.9460  178.5700  139.3640 C   0  0  0  0  0  3  0  0  0  0  0  0
  184.2750  176.5590  135.0210 C   0  0  0  0  0  3  0  0  0  0  0  0
  183.1350  178.4420  141.1730 C   0  0  0  0  0  0  0  0  0  0  0  0
  184.0630  178.3280  142.2530 N   0  0  0  0  0  2  0  0  0  0  0  0
  181.9410  178.7780  141.3990 O   0  0  0  0  0  0  0  0  0  0  0  0
  183.7010  178.6040  143.6330 C   0  0  0  0  0  2  0  0  0  0  0  0
  184.8560  178.9630  145.7580 C   0  0  0  0  0  3  0  0  0  0  0  0
  186.2660  178.9270  143.7190 C   0  0  0  0  0  2  0  0  0  0  0  0
  187.7730  177.5580  145.7180 C   0  0  0  0  0  2  0  0  0  0  0  0
  184.9390  178.8730  144.4230 C   0  0  0  0  0  0  0  0  0  0  0  0
  186.0550  179.1750  146.6390 C   0  0  0  0  0  2  0  0  0  0  0  0
  186.7620  177.5820  143.4100 N   0  0  0  0  0  0  0  0  0  0  0  0
  187.0300  176.7890  144.6220 C   0  0  0  0  0  2  0  0  0  0  0  0
  186.8310  177.8780  146.8700 C   0  0  0  0  0  2  0  0  0  0  0  0
  188.0070  177.7280  142.6680 C   0  0  0  0  0  2  0  0  0  0  0  0
  188.6970  176.3780  142.5360 C   0  0  0  0  0  2  0  0  0  0  0  0
  190.2130  176.5250  142.5350 C   0  0  0  0  0  2  0  0  0  0  0  0
  191.1790  178.1870  144.6670 O   0  0  0  0  0  0  0  0  0  0  0  0
  191.6810  176.3780  146.1250 C   0  0  0  0  0  1  0  0  0  0  0  0
  191.1950  176.9390  144.8350 C   0  0  0  0  0  0  0  0  0  0  0  0
  190.7710  176.0540  143.7950 N   0  0  0  0  0  2  0  0  0  0  0  0
  186.8890  178.4630  137.8920 C   0  0  0  0  0  2  0  0  0  0  0  0
  190.2030  177.5300  139.1870 C   0  0  0  0  0  2  0  0  0  0  0  0
  190.6380  177.0270  137.8070 C   0  0  2  0  0  3  0  0  0  0  0  0
  188.1690  176.4880  137.6380 C   0  0  0  0  0  2  0  0  0  0  0  0
  188.9260  178.3590  139.0690 C   0  0  0  0  0  2  0  0  0  0  0  0
  187.7910  177.5550  138.5870 N   0  0  0  0  0  0  0  0  0  0  0  0
  189.4500  176.8050  136.8580 C   0  0  0  0  0  2  0  0  0  0  0  0
  193.1590  176.0070  137.4340 S   0  0  0  0  0  1  0  0  0  0  0  0
  191.4410  175.7470  137.9710 C   0  0  0  0  0  2  0  0  0  0  0  0
  1  5  1  0  0  0  0
  2 12  1  6  0  0  0
  2 11  1  0  0  0  0
  2 13  1  0  0  0  0
  3 16  1  0  0  0  0
  4  8  1  1  0  0  0
  4  7  1  0  0  0  0
  5  9  1  0  0  0  0
  6  1  2  0  0  0  0
  7 11  1  0  0  0  0
  7  9  1  1  0  0  0
  8  1  1  0  0  0  0
 10  3  2  0  0  0  0
 11 10  1  1  0  0  0
 13 14  2  0  0  0  0
 14  3  1  0  0  0  0
 15  4  1  0  0  0  0
 15 12  2  0  0  0  0
 16 18  2  0  0  0  0
 16 17  1  0  0  0  0
 17 19  1  0  0  0  0
 19 23  1  0  0  0  0
 20 24  1  0  0  0  0
 21 23  1  0  0  0  0
 22 27  1  0  0  0  0
 23 20  2  0  0  0  0
 24 27  1  0  0  0  0
 25 21  1  0  0  0  0
 25 26  1  0  0  0  0
 26 22  1  0  0  0  0
 28 25  1  0  0  0  0
 29 28  1  0  0  0  0
 30 29  1  0  0  0  0
 30 34  1  0  0  0  0
 31 33  2  0  0  0  0
 33 32  1  0  0  0  0
 34 33  1  0  0  0  0
 35 13  1  0  0  0  0
 35 40  1  0  0  0  0
 37 43  1  1  0  0  0
 37 36  1  0  0  0  0
 38 40  1  0  0  0  0
 39 36  1  0  0  0  0
 40 39  1  0  0  0  0
 41 38  1  0  0  0  0
 41 37  1  0  0  0  0
 42 43  1  0  0  0  0
M  END
>  <MODEL>
7

>  <REMARK>
 VINA RESULT:      -8.2      2.335      8.071
  Name = 
  10 active torsions:
  status: ('A' for Active; 'I' for Inactive)
    1  A    between atoms: C_1  and  C_34
    2  A    between atoms: C_1  and  N_35
    3  A    between atoms: C_2  and  C_13
    4  A    between atoms: N_6  and  C_17
    5  A    between atoms: C_11  and  C_14
    6  A    between atoms: C_11  and  C_36
    7  A    between atoms: C_12  and  C_17
    8  A    between atoms: C_14  and  N_22
    9  A    between atoms: C_19  and  C_37
   10  A    between atoms: C_36  and  N_40
                            x       y       z     vdW  Elec       q    Type
                         _______ _______ _______ _____ _____    ______ ____

>  <TORSDO>
F 10

$$$$
=
 OpenBabel10262422373D

 43 47  0  0  1  0  0  0  0  0999 V2000
  193.3360  175.3310  136.0030 C   0  0  0  0  0  0  0  0  0  0  0  0
  188.9410  176.9560  137.2090 C   0  0  1  0  0  3  0  0  0  0  0  0
  188.8340  177.5780  140.0000 C   0  0  0  0  0  0  0  0  0  0  0  0
  190.8610  174.9370  136.2570 C   0  0  2  0  0  3  0  0  0  0  0  0
  193.4320  176.1690  137.2430 C   0  0  0  0  0  2  0  0  0  0  0  0
  194.3350  174.7870  135.5600 O   0  0  0  0  0  0  0  0  0  0  0  0
  191.0260  175.6250  137.6520 C   0  0  1  0  0  3  0  0  0  0  0  0
  192.0260  175.1790  135.2850 C   0  0  0  0  0  2  0  0  0  0  0  0
  192.0710  176.7460  137.6240 C   0  0  0  0  0  2  0  0  0  0  0  0
  189.8080  176.7700  139.5610 C   0  0  0  0  0  3  0  0  0  0  0  0
  189.6840  176.0870  138.2290 C   0  0  1  0  0  3  0  0  0  0  0  0
  188.6680  176.1330  135.9800 C   0  0  0  0  0  3  0  0  0  0  0  0
  187.6890  177.5500  137.8210 C   0  0  0  0  0  0  0  0  0  0  0  0
  187.6840  177.8900  139.1180 C   0  0  0  0  0  3  0  0  0  0  0  0
  189.5550  175.2260  135.5470 C   0  0  0  0  0  3  0  0  0  0  0  0
  188.9370  178.1990  141.3320 C   0  0  0  0  0  0  0  0  0  0  0  0
  190.1170  178.0080  142.1150 N   0  0  0  0  0  2  0  0  0  0  0  0
  187.9930  178.9080  141.7760 O   0  0  0  0  0  0  0  0  0  0  0  0
  190.3020  178.6160  143.4210 C   0  0  0  0  0  2  0  0  0  0  0  0
  191.3710  177.1350  145.0460 C   0  0  0  0  0  3  0  0  0  0  0  0
  188.8950  177.0670  144.9420 C   0  0  0  0  0  2  0  0  0  0  0  0
  189.5530  176.8700  147.7120 C   0  0  0  0  0  2  0  0  0  0  0  0
  190.2360  177.5580  144.4710 C   0  0  0  0  0  0  0  0  0  0  0  0
  191.3990  176.1160  146.1510 C   0  0  0  0  0  2  0  0  0  0  0  0
  188.2750  178.0190  145.8700 N   0  0  0  0  0  0  0  0  0  0  0  0
  189.0520  178.1850  147.1100 C   0  0  0  0  0  2  0  0  0  0  0  0
  191.0560  176.7330  147.5060 C   0  0  0  0  0  2  0  0  0  0  0  0
  186.9560  177.5060  146.2160 C   0  0  0  0  0  2  0  0  0  0  0  0
  186.0940  178.6230  146.7840 C   0  0  0  0  0  2  0  0  0  0  0  0
  184.8860  178.9000  145.8980 C   0  0  0  0  0  2  0  0  0  0  0  0
  182.9730  178.6250  143.7750 O   0  0  0  0  0  0  0  0  0  0  0  0
  184.5990  178.2710  142.0780 C   0  0  0  0  0  1  0  0  0  0  0  0
  184.1940  178.5110  143.4900 C   0  0  0  0  0  0  0  0  0  0  0  0
  185.1950  178.5930  144.5080 N   0  0  0  0  0  2  0  0  0  0  0  0
  186.5470  177.9920  136.9620 C   0  0  0  0  0  2  0  0  0  0  0  0
  183.5450  176.4710  135.4780 C   0  0  0  0  0  2  0  0  0  0  0  0
  182.6320  177.3450  136.3430 C   0  0  2  0  0  3  0  0  0  0  0  0
  184.5760  177.1310  137.9530 C   0  0  0  0  0  2  0  0  0  0  0  0
  184.9760  177.0020  135.5140 C   0  0  0  0  0  2  0  0  0  0  0  0
  185.5560  176.9300  136.8650 N   0  0  0  0  0  0  0  0  0  0  0  0
  183.3750  177.9840  137.5270 C   0  0  0  0  0  2  0  0  0  0  0  0
  181.8540  174.7420  136.7350 S   0  0  0  0  0  1  0  0  0  0  0  0
  181.4570  176.5140  136.8310 C   0  0  0  0  0  2  0  0  0  0  0  0
  1  5  1  0  0  0  0
  2 12  1  6  0  0  0
  2 13  1  0  0  0  0
  2 11  1  0  0  0  0
  3 16  1  0  0  0  0
  4  8  1  6  0  0  0
  4  7  1  0  0  0  0
  5  9  1  0  0  0  0
  6  1  2  0  0  0  0
  7  9  1  6  0  0  0
  7 11  1  0  0  0  0
  8  1  1  0  0  0  0
 10  3  2  0  0  0  0
 11 10  1  1  0  0  0
 13 14  2  0  0  0  0
 14  3  1  0  0  0  0
 15 12  2  0  0  0  0
 15  4  1  0  0  0  0
 16 18  2  0  0  0  0
 16 17  1  0  0  0  0
 17 19  1  0  0  0  0
 19 23  1  0  0  0  0
 20 24  1  0  0  0  0
 21 25  1  0  0  0  0
 23 21  1  0  0  0  0
 23 20  2  0  0  0  0
 24 27  1  0  0  0  0
 25 28  1  0  0  0  0
 25 26  1  0  0  0  0
 26 22  1  0  0  0  0
 27 22  1  0  0  0  0
 28 29  1  0  0  0  0
 30 29  1  0  0  0  0
 32 33  1  0  0  0  0
 33 31  2  0  0  0  0
 33 34  1  0  0  0  0
 34 30  1  0  0  0  0
 35 13  1  0  0  0  0
 36 39  1  0  0  0  0
 36 37  1  0  0  0  0
 37 43  1  1  0  0  0
 37 41  1  0  0  0  0
 39 40  1  0  0  0  0
 40 35  1  0  0  0  0
 40 38  1  0  0  0  0
 41 38  1  0  0  0  0
 42 43  1  0  0  0  0
M  END
>  <MODEL>
8

>  <REMARK>
 VINA RESULT:      -8.1      2.941      8.182
  Name = 
  10 active torsions:
  status: ('A' for Active; 'I' for Inactive)
    1  A    between atoms: C_1  and  C_34
    2  A    between atoms: C_1  and  N_35
    3  A    between atoms: C_2  and  C_13
    4  A    between atoms: N_6  and  C_17
    5  A    between atoms: C_11  and  C_14
    6  A    between atoms: C_11  and  C_36
    7  A    between atoms: C_12  and  C_17
    8  A    between atoms: C_14  and  N_22
    9  A    between atoms: C_19  and  C_37
   10  A    between atoms: C_36  and  N_40
                            x       y       z     vdW  Elec       q    Type
                         _______ _______ _______ _____ _____    ______ ____

>  <TORSDO>
F 10

$$$$
=
 OpenBabel10262422373D

 43 47  0  0  1  0  0  0  0  0999 V2000
  180.2110  175.0950  137.7280 C   0  0  0  0  0  0  0  0  0  0  0  0
  184.7000  176.6740  136.8550 C   0  0  1  0  0  3  0  0  0  0  0  0
  185.6500  178.2540  139.0440 C   0  0  0  0  0  0  0  0  0  0  0  0
  181.8030  176.4900  136.3640 C   0  0  2  0  0  3  0  0  0  0  0  0
  180.9000  175.3970  139.0260 C   0  0  0  0  0  2  0  0  0  0  0  0
  179.0470  174.7260  137.7310 O   0  0  0  0  0  0  0  0  0  0  0  0
  182.3670  176.9630  137.7430 C   0  0  1  0  0  3  0  0  0  0  0  0
  180.9500  175.2140  136.4270 C   0  0  0  0  0  2  0  0  0  0  0  0
  182.3390  175.8470  138.7930 C   0  0  0  0  0  2  0  0  0  0  0  0
  184.3300  178.0590  138.9200 C   0  0  0  0  0  3  0  0  0  0  0  0
  183.7500  177.6090  137.6100 C   0  0  1  0  0  3  0  0  0  0  0  0
  184.1530  176.4400  135.4740 C   0  0  0  0  0  3  0  0  0  0  0  0
  186.1100  177.2280  136.8540 C   0  0  0  0  0  0  0  0  0  0  0  0
  186.5530  177.9140  137.9180 C   0  0  0  0  0  3  0  0  0  0  0  0
  182.8330  176.3440  135.2620 C   0  0  0  0  0  3  0  0  0  0  0  0
  186.2050  178.7480  140.3160 C   0  0  0  0  0  0  0  0  0  0  0  0
  187.4530  178.2410  140.7900 N   0  0  0  0  0  2  0  0  0  0  0  0
  185.5860  179.6240  140.9800 O   0  0  0  0  0  0  0  0  0  0  0  0
  188.0760  178.7050  142.0180 C   0  0  0  0  0  2  0  0  0  0  0  0
  189.7410  176.9220  142.1760 C   0  0  0  0  0  3  0  0  0  0  0  0
  188.1930  177.1690  144.0960 C   0  0  0  0  0  2  0  0  0  0  0  0
  190.7380  176.5640  145.2360 C   0  0  0  0  0  2  0  0  0  0  0  0
  188.6910  177.5460  142.7280 C   0  0  0  0  0  0  0  0  0  0  0  0
  190.4600  175.7830  142.8430 C   0  0  0  0  0  2  0  0  0  0  0  0
  188.7220  178.0720  145.1240 N   0  0  0  0  0  0  0  0  0  0  0  0
  190.1880  177.9930  145.2410 C   0  0  0  0  0  2  0  0  0  0  0  0
  191.4350  176.2710  143.9140 C   0  0  0  0  0  2  0  0  0  0  0  0
  188.1340  177.6850  146.3990 C   0  0  0  0  0  2  0  0  0  0  0  0
  186.6320  177.4950  146.2460 C   0  0  0  0  0  2  0  0  0  0  0  0
  185.8610  178.6840  146.8040 C   0  0  0  0  0  2  0  0  0  0  0  0
  185.2020  179.3320  144.0860 O   0  0  0  0  0  0  0  0  0  0  0  0
  182.8690  178.9670  144.3480 C   0  0  0  0  0  1  0  0  0  0  0  0
  184.2630  179.0180  144.8640 C   0  0  0  0  0  0  0  0  0  0  0  0
  184.5190  178.7290  146.2410 N   0  0  0  0  0  2  0  0  0  0  0  0
  187.0970  176.8220  135.8050 C   0  0  0  0  0  2  0  0  0  0  0  0
  190.6920  176.0640  135.6440 C   0  0  0  0  0  2  0  0  0  0  0  0
  190.4040  174.6140  135.2470 C   0  0  2  0  0  3  0  0  0  0  0  0
  188.3560  175.0210  136.6830 C   0  0  0  0  0  2  0  0  0  0  0  0
  189.4300  176.9120  135.5040 C   0  0  0  0  0  2  0  0  0  0  0  0
  188.3680  176.4750  136.4240 N   0  0  0  0  0  0  0  0  0  0  0  0
  188.9500  174.2020  135.5310 C   0  0  0  0  0  2  0  0  0  0  0  0
  192.1510  174.5660  137.3640 S   0  0  0  0  0  1  0  0  0  0  0  0
  191.3730  173.6930  135.9710 C   0  0  0  0  0  2  0  0  0  0  0  0
  1  6  2  0  0  0  0
  1  5  1  0  0  0  0
  2 12  1  6  0  0  0
  2 11  1  0  0  0  0
  3 16  1  0  0  0  0
  4 15  1  6  0  0  0
  4  8  1  0  0  0  0
  4  7  1  0  0  0  0
  7  9  1  1  0  0  0
  8  1  1  0  0  0  0
  9  5  1  0  0  0  0
 10  3  2  0  0  0  0
 11  7  1  0  0  0  0
 11 10  1  1  0  0  0
 13  2  1  0  0  0  0
 13 14  2  0  0  0  0
 14  3  1  0  0  0  0
 15 12  2  0  0  0  0
 16 17  1  0  0  0  0
 16 18  2  0  0  0  0
 17 19  1  0  0  0  0
 19 23  1  0  0  0  0
 20 23  2  0  0  0  0
 20 24  1  0  0  0  0
 21 25  1  0  0  0  0
 22 26  1  0  0  0  0
 23 21  1  0  0  0  0
 24 27  1  0  0  0  0
 25 26  1  0  0  0  0
 25 28  1  0  0  0  0
 27 22  1  0  0  0  0
 29 28  1  0  0  0  0
 29 30  1  0  0  0  0
 31 33  2  0  0  0  0
 32 33  1  0  0  0  0
 33 34  1  0  0  0  0
 34 30  1  0  0  0  0
 35 40  1  0  0  0  0
 35 13  1  0  0  0  0
 37 41  1  0  0  0  0
 37 36  1  0  0  0  0
 37 43  1  1  0  0  0
 39 36  1  0  0  0  0
 39 40  1  0  0  0  0
 40 38  1  0  0  0  0
 41 38  1  0  0  0  0
 43 42  1  0  0  0  0
M  END
>  <MODEL>
9

>  <REMARK>
 VINA RESULT:      -8.1      2.823      8.629
  Name = 
  10 active torsions:
  status: ('A' for Active; 'I' for Inactive)
    1  A    between atoms: C_1  and  C_34
    2  A    between atoms: C_1  and  N_35
    3  A    between atoms: C_2  and  C_13
    4  A    between atoms: N_6  and  C_17
    5  A    between atoms: C_11  and  C_14
    6  A    between atoms: C_11  and  C_36
    7  A    between atoms: C_12  and  C_17
    8  A    between atoms: C_14  and  N_22
    9  A    between atoms: C_19  and  C_37
   10  A    between atoms: C_36  and  N_40
                            x       y       z     vdW  Elec       q    Type
                         _______ _______ _______ _____ _____    ______ ____

>  <TORSDO>
F 10

$$$$
