=
 OpenBabel10262420063D

 27 30  0  0  1  0  0  0  0  0999 V2000
  187.2950  178.0090  142.4200 C   0  0  0  0  0  0  0  0  0  0  0  0
  190.5950  175.9270  144.2100 C   0  0  0  0  0  2  0  0  0  0  0  0
  191.1640  176.7870  145.3020 C   0  0  0  0  0  3  0  0  0  0  0  0
  187.1810  177.2460  143.4670 N   0  0  0  0  0  0  0  0  0  0  0  0
  190.3530  178.9390  143.1720 C   0  0  0  0  0  2  0  0  0  0  0  0
  191.7430  178.6710  143.7440 C   0  0  0  0  0  2  0  0  0  0  0  0
  189.7930  177.6860  142.5060 C   0  0  1  0  0  3  0  0  0  0  0  0
  186.1740  178.7520  141.9200 N   0  0  0  0  0  2  0  0  0  0  0  0
  191.6750  178.0110  145.0940 C   0  0  0  0  0  3  0  0  0  0  0  0
  189.4700  176.6340  143.5310 C   0  0  0  0  0  0  0  0  0  0  0  0
  188.5810  178.0320  141.6380 C   0  0  1  0  0  3  0  0  0  0  0  0
  188.2590  176.5020  143.9840 N   0  0  0  0  0  0  0  0  0  0  0  0
  182.2650  179.0320  143.5370 C   0  0  0  0  0  3  0  0  0  0  0  0
  184.8630  178.8510  142.4920 C   0  0  0  0  0  0  0  0  0  0  0  0
  184.6590  179.2480  143.8230 C   0  0  0  0  0  3  0  0  0  0  0  0
  183.3640  179.3370  144.3430 C   0  0  0  0  0  3  0  0  0  0  0  0
  182.4610  178.6380  142.2090 C   0  0  0  0  0  3  0  0  0  0  0  0
  183.7570  178.5490  141.6910 C   0  0  0  0  0  3  0  0  0  0  0  0
  188.4980  177.0950  140.5260 N   0  0  0  0  0  2  0  0  0  0  0  0
  191.4740  176.7970  139.4340 Cl  0  0  0  0  0  0  0  0  0  0  0  0
  187.8700  178.0920  137.0050 C   0  0  0  0  0  0  0  0  0  0  0  0
  186.7170  178.4850  136.1560 C   0  0  0  0  0  1  0  0  0  0  0  0
  190.0500  177.3530  138.5660 C   0  0  0  0  0  0  0  0  0  0  0  0
  187.6780  177.7650  138.3460 C   0  0  0  0  0  3  0  0  0  0  0  0
  189.1560  178.0480  136.4710 C   0  0  0  0  0  3  0  0  0  0  0  0
  190.2040  177.6780  137.2530 N   0  0  0  0  0  0  0  0  0  0  0  0
  188.7610  177.4070  139.1520 C   0  0  0  0  0  0  0  0  0  0  0  0
  1  4  2  0  0  0  0
  2  3  1  0  0  0  0
  4 12  1  0  0  0  0
  5  6  1  0  0  0  0
  6  9  1  0  0  0  0
  7  5  1  1  0  0  0
  7 10  1  0  0  0  0
  8  1  1  0  0  0  0
  8 14  1  0  0  0  0
  9  3  2  0  0  0  0
 10 12  2  0  0  0  0
 10  2  1  0  0  0  0
 11 19  1  6  0  0  0
 11  1  1  0  0  0  0
 11  7  1  0  0  0  0
 13 16  1  0  0  0  0
 14 15  1  0  0  0  0
 15 16  2  0  0  0  0
 17 13  2  0  0  0  0
 18 17  1  0  0  0  0
 18 14  2  0  0  0  0
 21 24  1  0  0  0  0
 22 21  1  0  0  0  0
 23 27  1  0  0  0  0
 23 20  1  0  0  0  0
 24 27  2  0  0  0  0
 25 21  2  0  0  0  0
 25 26  1  0  0  0  0
 26 23  2  0  0  0  0
 27 19  1  0  0  0  0
M  END
>  <MODEL>
1

>  <REMARK>
 VINA RESULT:      -8.0      0.000      0.000
  Name = 
  3 active torsions:
  status: ('A' for Active; 'I' for Inactive)
    1  A    between atoms: N_3  and  C_19
    2  A    between atoms: N_3  and  C_26
    3  A    between atoms: C_9  and  N_15
                            x       y       z     vdW  Elec       q    Type
                         _______ _______ _______ _____ _____    ______ ____

>  <TORSDO>
F 3

$$$$
=
 OpenBabel10262420063D

 27 30  0  0  1  0  0  0  0  0999 V2000
  187.2000  178.1750  142.2980 C   0  0  0  0  0  0  0  0  0  0  0  0
  190.4870  175.6140  143.3280 C   0  0  0  0  0  2  0  0  0  0  0  0
  191.0770  176.0940  144.6220 C   0  0  0  0  0  3  0  0  0  0  0  0
  187.0850  177.1300  143.0640 N   0  0  0  0  0  0  0  0  0  0  0  0
  190.2760  178.8010  143.2600 C   0  0  0  0  0  2  0  0  0  0  0  0
  191.6680  178.3580  143.7060 C   0  0  0  0  0  2  0  0  0  0  0  0
  189.6940  177.8160  142.2500 C   0  0  1  0  0  3  0  0  0  0  0  0
  186.0840  179.0460  142.0620 N   0  0  0  0  0  2  0  0  0  0  0  0
  191.6020  177.3180  144.7910 C   0  0  0  0  0  3  0  0  0  0  0  0
  189.3660  176.5050  142.9110 C   0  0  0  0  0  0  0  0  0  0  0  0
  188.4790  178.4230  141.5450 C   0  0  1  0  0  3  0  0  0  0  0  0
  188.1570  176.2530  143.3160 N   0  0  0  0  0  0  0  0  0  0  0  0
  182.2630  178.8550  143.8880 C   0  0  0  0  0  3  0  0  0  0  0  0
  184.7800  178.9790  142.6540 C   0  0  0  0  0  0  0  0  0  0  0  0
  183.6340  178.6760  141.9020 C   0  0  0  0  0  3  0  0  0  0  0  0
  182.3800  178.6160  142.5170 C   0  0  0  0  0  3  0  0  0  0  0  0
  183.4010  179.1550  144.6440 C   0  0  0  0  0  3  0  0  0  0  0  0
  184.6540  179.2150  144.0270 C   0  0  0  0  0  3  0  0  0  0  0  0
  188.3740  177.8700  140.2010 N   0  0  0  0  0  2  0  0  0  0  0  0
  187.6640  176.1510  137.6170 Cl  0  0  0  0  0  0  0  0  0  0  0  0
  191.8310  176.9290  139.2270 C   0  0  0  0  0  0  0  0  0  0  0  0
  193.2190  177.1850  139.6900 C   0  0  0  0  0  1  0  0  0  0  0  0
  189.2450  176.4380  138.3290 C   0  0  0  0  0  0  0  0  0  0  0  0
  190.7500  177.5050  139.8910 C   0  0  0  0  0  3  0  0  0  0  0  0
  191.5950  176.1110  138.1250 C   0  0  0  0  0  3  0  0  0  0  0  0
  190.3230  175.8900  137.7020 N   0  0  0  0  0  0  0  0  0  0  0  0
  189.4430  177.2590  139.4660 C   0  0  0  0  0  0  0  0  0  0  0  0
  1  4  2  0  0  0  0
  2  3  1  0  0  0  0
  3  9  2  0  0  0  0
  4 12  1  0  0  0  0
  5  6  1  0  0  0  0
  6  9  1  0  0  0  0
  7 10  1  0  0  0  0
  7  5  1  1  0  0  0
  8  1  1  0  0  0  0
  8 14  1  0  0  0  0
 10 12  2  0  0  0  0
 10  2  1  0  0  0  0
 11 19  1  6  0  0  0
 11  7  1  0  0  0  0
 11  1  1  0  0  0  0
 13 17  1  0  0  0  0
 14 18  1  0  0  0  0
 15 16  1  0  0  0  0
 15 14  2  0  0  0  0
 16 13  2  0  0  0  0
 18 17  2  0  0  0  0
 20 23  1  0  0  0  0
 21 22  1  0  0  0  0
 21 24  1  0  0  0  0
 23 27  1  0  0  0  0
 25 21  2  0  0  0  0
 26 25  1  0  0  0  0
 26 23  2  0  0  0  0
 27 24  2  0  0  0  0
 27 19  1  0  0  0  0
M  END
>  <MODEL>
2

>  <REMARK>
 VINA RESULT:      -7.9      1.492      2.398
  Name = 
  3 active torsions:
  status: ('A' for Active; 'I' for Inactive)
    1  A    between atoms: N_3  and  C_19
    2  A    between atoms: N_3  and  C_26
    3  A    between atoms: C_9  and  N_15
                            x       y       z     vdW  Elec       q    Type
                         _______ _______ _______ _____ _____    ______ ____

>  <TORSDO>
F 3

$$$$
=
 OpenBabel10262420063D

 27 30  0  0  1  0  0  0  0  0999 V2000
  185.2560  178.4560  139.4020 C   0  0  0  0  0  0  0  0  0  0  0  0
  181.2510  178.0320  137.9160 C   0  0  0  0  0  2  0  0  0  0  0  0
  181.0170  179.0860  136.8720 C   0  0  0  0  0  3  0  0  0  0  0  0
  184.9490  177.7500  138.3530 N   0  0  0  0  0  0  0  0  0  0  0  0
  182.8370  180.6210  138.9100 C   0  0  0  0  0  2  0  0  0  0  0  0
  181.4240  180.9880  138.4620 C   0  0  0  0  0  2  0  0  0  0  0  0
  182.8610  179.2290  139.5340 C   0  0  1  0  0  3  0  0  0  0  0  0
  186.6240  178.6360  139.7980 N   0  0  0  0  0  2  0  0  0  0  0  0
  181.0960  180.4040  137.1150 C   0  0  0  0  0  3  0  0  0  0  0  0
  182.6210  178.1720  138.4910 C   0  0  0  0  0  0  0  0  0  0  0  0
  184.1710  179.0000  140.2910 C   0  0  1  0  0  3  0  0  0  0  0  0
  183.6190  177.5520  137.9360 N   0  0  0  0  0  0  0  0  0  0  0  0
  190.1360  177.2810  137.8490 C   0  0  0  0  0  3  0  0  0  0  0  0
  187.8000  178.1870  139.1140 C   0  0  0  0  0  0  0  0  0  0  0  0
  188.0190  178.4510  137.7530 C   0  0  0  0  0  3  0  0  0  0  0  0
  189.1820  177.9990  137.1230 C   0  0  0  0  0  3  0  0  0  0  0  0
  189.9260  177.0170  139.2060 C   0  0  0  0  0  3  0  0  0  0  0  0
  188.7620  177.4700  139.8340 C   0  0  0  0  0  3  0  0  0  0  0  0
  183.9350  178.0830  141.3980 N   0  0  0  0  0  2  0  0  0  0  0  0
  181.5870  179.2870  143.1780 Cl  0  0  0  0  0  0  0  0  0  0  0  0
  185.7660  178.2850  144.6220 C   0  0  0  0  0  0  0  0  0  0  0  0
  187.1090  177.9380  145.1550 C   0  0  0  0  0  1  0  0  0  0  0  0
  183.2410  178.9370  143.6570 C   0  0  0  0  0  0  0  0  0  0  0  0
  185.4500  178.0270  143.2890 C   0  0  0  0  0  3  0  0  0  0  0  0
  184.8100  178.8700  145.4470 C   0  0  0  0  0  3  0  0  0  0  0  0
  183.5820  179.1750  144.9540 N   0  0  0  0  0  0  0  0  0  0  0  0
  184.1930  178.3610  142.7810 C   0  0  0  0  0  0  0  0  0  0  0  0
  1  8  1  0  0  0  0
  1 11  1  0  0  0  0
  2 10  1  0  0  0  0
  3  9  2  0  0  0  0
  3  2  1  0  0  0  0
  4  1  2  0  0  0  0
  6  5  1  0  0  0  0
  7  5  1  6  0  0  0
  7 11  1  0  0  0  0
  9  6  1  0  0  0  0
 10  7  1  0  0  0  0
 11 19  1  1  0  0  0
 12  4  1  0  0  0  0
 12 10  2  0  0  0  0
 13 17  1  0  0  0  0
 14  8  1  0  0  0  0
 14 18  1  0  0  0  0
 15 14  2  0  0  0  0
 16 15  1  0  0  0  0
 16 13  2  0  0  0  0
 17 18  2  0  0  0  0
 19 27  1  0  0  0  0
 20 23  1  0  0  0  0
 21 22  1  0  0  0  0
 21 25  1  0  0  0  0
 23 26  1  0  0  0  0
 24 21  2  0  0  0  0
 26 25  2  0  0  0  0
 27 24  1  0  0  0  0
 27 23  2  0  0  0  0
M  END
>  <MODEL>
3

>  <REMARK>
 VINA RESULT:      -7.8      3.580      8.509
  Name = 
  3 active torsions:
  status: ('A' for Active; 'I' for Inactive)
    1  A    between atoms: N_3  and  C_19
    2  A    between atoms: N_3  and  C_26
    3  A    between atoms: C_9  and  N_15
                            x       y       z     vdW  Elec       q    Type
                         _______ _______ _______ _____ _____    ______ ____

>  <TORSDO>
F 3

$$$$
=
 OpenBabel10262420063D

 27 30  0  0  1  0  0  0  0  0999 V2000
  188.3150  177.6020  141.7560 C   0  0  0  0  0  0  0  0  0  0  0  0
  189.4310  179.0550  137.8750 C   0  0  0  0  0  2  0  0  0  0  0  0
  188.4620  178.5100  136.8650 C   0  0  0  0  0  3  0  0  0  0  0  0
  187.8250  178.6830  141.2250 N   0  0  0  0  0  0  0  0  0  0  0  0
  188.7050  176.1050  138.8600 C   0  0  0  0  0  2  0  0  0  0  0  0
  189.0290  176.1140  137.3680 C   0  0  0  0  0  2  0  0  0  0  0  0
  189.5390  177.1450  139.6010 C   0  0  1  0  0  3  0  0  0  0  0  0
  187.8370  177.1150  143.0190 N   0  0  0  0  0  2  0  0  0  0  0  0
  188.2820  177.1990  136.6410 C   0  0  0  0  0  3  0  0  0  0  0  0
  189.1040  178.5380  139.2350 C   0  0  0  0  0  0  0  0  0  0  0  0
  189.4830  176.9050  141.1120 C   0  0  1  0  0  3  0  0  0  0  0  0
  188.2710  179.1900  139.9890 N   0  0  0  0  0  0  0  0  0  0  0  0
  184.6910  178.6340  145.4200 C   0  0  0  0  0  3  0  0  0  0  0  0
  186.7590  177.6370  143.8070 C   0  0  0  0  0  0  0  0  0  0  0  0
  185.5620  178.0890  143.2290 C   0  0  0  0  0  3  0  0  0  0  0  0
  184.5330  178.5870  144.0330 C   0  0  0  0  0  3  0  0  0  0  0  0
  185.8800  178.1840  146.0030 C   0  0  0  0  0  3  0  0  0  0  0  0
  186.9080  177.6860  145.1970 C   0  0  0  0  0  3  0  0  0  0  0  0
  190.7250  177.3610  141.7200 N   0  0  0  0  0  2  0  0  0  0  0  0
  190.7270  179.7590  143.8140 Cl  0  0  0  0  0  0  0  0  0  0  0  0
  191.8830  175.4640  144.6940 C   0  0  0  0  0  0  0  0  0  0  0  0
  192.2360  174.0640  145.0450 C   0  0  0  0  0  1  0  0  0  0  0  0
  191.2220  178.0930  144.0720 C   0  0  0  0  0  0  0  0  0  0  0  0
  191.4610  175.7810  143.4050 C   0  0  0  0  0  3  0  0  0  0  0  0
  191.9710  176.4740  145.6500 C   0  0  0  0  0  3  0  0  0  0  0  0
  191.6380  177.7490  145.3230 N   0  0  0  0  0  0  0  0  0  0  0  0
  191.1400  177.0980  143.0670 C   0  0  0  0  0  0  0  0  0  0  0  0
  1  8  1  0  0  0  0
  2 10  1  0  0  0  0
  3  2  1  0  0  0  0
  4  1  2  0  0  0  0
  6  5  1  0  0  0  0
  7  5  1  6  0  0  0
  7 11  1  0  0  0  0
  8 14  1  0  0  0  0
  9  3  2  0  0  0  0
  9  6  1  0  0  0  0
 10  7  1  0  0  0  0
 10 12  2  0  0  0  0
 11 19  1  1  0  0  0
 11  1  1  0  0  0  0
 12  4  1  0  0  0  0
 13 17  1  0  0  0  0
 14 18  1  0  0  0  0
 15 14  2  0  0  0  0
 15 16  1  0  0  0  0
 16 13  2  0  0  0  0
 18 17  2  0  0  0  0
 19 27  1  0  0  0  0
 20 23  1  0  0  0  0
 21 22  1  0  0  0  0
 21 25  1  0  0  0  0
 23 26  1  0  0  0  0
 24 21  2  0  0  0  0
 26 25  2  0  0  0  0
 27 24  1  0  0  0  0
 27 23  2  0  0  0  0
M  END
>  <MODEL>
4

>  <REMARK>
 VINA RESULT:      -7.7      2.027      5.925
  Name = 
  3 active torsions:
  status: ('A' for Active; 'I' for Inactive)
    1  A    between atoms: N_3  and  C_19
    2  A    between atoms: N_3  and  C_26
    3  A    between atoms: C_9  and  N_15
                            x       y       z     vdW  Elec       q    Type
                         _______ _______ _______ _____ _____    ______ ____

>  <TORSDO>
F 3

$$$$
=
 OpenBabel10262420063D

 27 30  0  0  1  0  0  0  0  0999 V2000
  189.2770  177.0350  139.7000 C   0  0  0  0  0  0  0  0  0  0  0  0
  187.0020  178.3420  136.3020 C   0  0  0  0  0  2  0  0  0  0  0  0
  185.6830  177.6240  136.3070 C   0  0  0  0  0  3  0  0  0  0  0  0
  188.4230  178.0160  139.7400 N   0  0  0  0  0  0  0  0  0  0  0  0
  187.6090  175.4010  137.3930 C   0  0  0  0  0  2  0  0  0  0  0  0
  186.7330  175.3470  136.1420 C   0  0  0  0  0  2  0  0  0  0  0  0
  188.5780  176.5760  137.3220 C   0  0  1  0  0  3  0  0  0  0  0  0
  189.9410  176.5840  140.8890 N   0  0  0  0  0  2  0  0  0  0  0  0
  185.5640  176.2880  136.2380 C   0  0  0  0  0  3  0  0  0  0  0  0
  187.8430  177.8830  137.4460 C   0  0  0  0  0  0  0  0  0  0  0  0
  189.6760  176.4330  138.3800 C   0  0  1  0  0  3  0  0  0  0  0  0
  187.7540  178.4860  138.5930 N   0  0  0  0  0  0  0  0  0  0  0  0
  189.2450  177.8630  144.8700 C   0  0  0  0  0  3  0  0  0  0  0  0
  189.7300  177.0310  142.2340 C   0  0  0  0  0  0  0  0  0  0  0  0
  190.5340  178.0180  142.8270 C   0  0  0  0  0  3  0  0  0  0  0  0
  190.2930  178.4310  144.1410 C   0  0  0  0  0  3  0  0  0  0  0  0
  188.4390  176.8810  144.2850 C   0  0  0  0  0  3  0  0  0  0  0  0
  188.6820  176.4700  142.9720 C   0  0  0  0  0  3  0  0  0  0  0  0
  190.8960  177.0670  137.8980 N   0  0  0  0  0  2  0  0  0  0  0  0
  193.2900  177.2650  139.9880 Cl  0  0  0  0  0  0  0  0  0  0  0  0
  193.3550  174.9550  136.0870 C   0  0  0  0  0  0  0  0  0  0  0  0
  193.4160  174.1510  134.8390 C   0  0  0  0  0  1  0  0  0  0  0  0
  193.2710  176.4430  138.4350 C   0  0  0  0  0  0  0  0  0  0  0  0
  192.1840  175.6250  136.4360 C   0  0  0  0  0  3  0  0  0  0  0  0
  194.4660  175.0480  136.9210 C   0  0  0  0  0  3  0  0  0  0  0  0
  194.3990  175.7770  138.0650 N   0  0  0  0  0  0  0  0  0  0  0  0
  192.1250  176.3910  137.6030 C   0  0  0  0  0  0  0  0  0  0  0  0
  1  4  2  0  0  0  0
  1  8  1  0  0  0  0
  2  3  1  0  0  0  0
  2 10  1  0  0  0  0
  6  9  1  0  0  0  0
  6  5  1  0  0  0  0
  7  5  1  1  0  0  0
  7 10  1  0  0  0  0
  7 11  1  0  0  0  0
  8 14  1  0  0  0  0
  9  3  2  0  0  0  0
 10 12  2  0  0  0  0
 11 19  1  6  0  0  0
 11  1  1  0  0  0  0
 12  4  1  0  0  0  0
 14 15  2  0  0  0  0
 14 18  1  0  0  0  0
 15 16  1  0  0  0  0
 16 13  2  0  0  0  0
 17 13  1  0  0  0  0
 18 17  2  0  0  0  0
 21 24  2  0  0  0  0
 21 25  1  0  0  0  0
 22 21  1  0  0  0  0
 23 20  1  0  0  0  0
 24 27  1  0  0  0  0
 25 26  2  0  0  0  0
 26 23  1  0  0  0  0
 27 19  1  0  0  0  0
 27 23  2  0  0  0  0
M  END
>  <MODEL>
5

>  <REMARK>
 VINA RESULT:      -7.6      3.124      6.384
  Name = 
  3 active torsions:
  status: ('A' for Active; 'I' for Inactive)
    1  A    between atoms: N_3  and  C_19
    2  A    between atoms: N_3  and  C_26
    3  A    between atoms: C_9  and  N_15
                            x       y       z     vdW  Elec       q    Type
                         _______ _______ _______ _____ _____    ______ ____

>  <TORSDO>
F 3

$$$$
=
 OpenBabel10262420063D

 27 30  0  0  1  0  0  0  0  0999 V2000
  190.5730  176.7580  140.1520 C   0  0  0  0  0  0  0  0  0  0  0  0
  191.2430  178.8060  143.8640 C   0  0  0  0  0  2  0  0  0  0  0  0
  191.6810  177.8010  144.8900 C   0  0  0  0  0  3  0  0  0  0  0  0
  191.7330  177.2180  140.5200 N   0  0  0  0  0  0  0  0  0  0  0  0
  189.6100  176.1350  143.2280 C   0  0  0  0  0  2  0  0  0  0  0  0
  189.5640  176.4580  144.7200 C   0  0  0  0  0  2  0  0  0  0  0  0
  189.6420  177.4160  142.4000 C   0  0  1  0  0  3  0  0  0  0  0  0
  190.4280  176.0020  138.9410 N   0  0  0  0  0  2  0  0  0  0  0  0
  190.9320  176.7530  145.2700 C   0  0  0  0  0  3  0  0  0  0  0  0
  190.9570  178.1270  142.5670 C   0  0  0  0  0  0  0  0  0  0  0  0
  189.3360  177.1150  140.9300 C   0  0  1  0  0  3  0  0  0  0  0  0
  191.9120  177.9650  141.7000 N   0  0  0  0  0  0  0  0  0  0  0  0
  193.4520  174.6600  136.2910 C   0  0  0  0  0  3  0  0  0  0  0  0
  191.4620  175.5740  138.0460 C   0  0  0  0  0  0  0  0  0  0  0  0
  192.5750  176.3780  137.7530 C   0  0  0  0  0  3  0  0  0  0  0  0
  193.5660  175.9230  136.8780 C   0  0  0  0  0  3  0  0  0  0  0  0
  192.3480  173.8520  136.5800 C   0  0  0  0  0  3  0  0  0  0  0  0
  191.3580  174.3100  137.4560 C   0  0  0  0  0  3  0  0  0  0  0  0
  188.6900  178.2720  140.3250 N   0  0  0  0  0  2  0  0  0  0  0  0
  187.2090  178.2640  137.5070 Cl  0  0  0  0  0  0  0  0  0  0  0  0
  185.2420  178.9280  141.5380 C   0  0  0  0  0  0  0  0  0  0  0  0
  184.5420  179.1130  142.8350 C   0  0  0  0  0  1  0  0  0  0  0  0
  186.5200  178.5760  139.0930 C   0  0  0  0  0  0  0  0  0  0  0  0
  186.6120  178.6770  141.5070 C   0  0  0  0  0  3  0  0  0  0  0  0
  184.5370  179.0030  140.3400 C   0  0  0  0  0  3  0  0  0  0  0  0
  185.1820  178.8220  139.1580 N   0  0  0  0  0  0  0  0  0  0  0  0
  187.2770  178.5130  140.2890 C   0  0  0  0  0  0  0  0  0  0  0  0
  1  4  2  0  0  0  0
  1 11  1  0  0  0  0
  2  3  1  0  0  0  0
  3  9  2  0  0  0  0
  4 12  1  0  0  0  0
  5  6  1  0  0  0  0
  6  9  1  0  0  0  0
  7 10  1  0  0  0  0
  7  5  1  1  0  0  0
  8  1  1  0  0  0  0
 10  2  1  0  0  0  0
 11 19  1  6  0  0  0
 11  7  1  0  0  0  0
 12 10  2  0  0  0  0
 13 17  2  0  0  0  0
 13 16  1  0  0  0  0
 14  8  1  0  0  0  0
 15 14  1  0  0  0  0
 16 15  2  0  0  0  0
 17 18  1  0  0  0  0
 18 14  2  0  0  0  0
 20 23  1  0  0  0  0
 21 22  1  0  0  0  0
 23 26  2  0  0  0  0
 23 27  1  0  0  0  0
 24 21  1  0  0  0  0
 25 21  2  0  0  0  0
 26 25  1  0  0  0  0
 27 19  1  0  0  0  0
 27 24  2  0  0  0  0
M  END
>  <MODEL>
6

>  <REMARK>
 VINA RESULT:      -7.4      2.533      6.494
  Name = 
  3 active torsions:
  status: ('A' for Active; 'I' for Inactive)
    1  A    between atoms: N_3  and  C_19
    2  A    between atoms: N_3  and  C_26
    3  A    between atoms: C_9  and  N_15
                            x       y       z     vdW  Elec       q    Type
                         _______ _______ _______ _____ _____    ______ ____

>  <TORSDO>
F 3

$$$$
=
 OpenBabel10262420063D

 27 30  0  0  1  0  0  0  0  0999 V2000
  190.5550  176.7590  140.1510 C   0  0  0  0  0  0  0  0  0  0  0  0
  190.9900  178.8420  143.8790 C   0  0  0  0  0  2  0  0  0  0  0  0
  191.3590  177.8460  144.9410 C   0  0  0  0  0  3  0  0  0  0  0  0
  191.6890  177.2220  140.5890 N   0  0  0  0  0  0  0  0  0  0  0  0
  189.3960  176.1670  143.1650 C   0  0  0  0  0  2  0  0  0  0  0  0
  189.2550  176.5040  144.6480 C   0  0  0  0  0  2  0  0  0  0  0  0
  189.4830  177.4390  142.3290 C   0  0  1  0  0  3  0  0  0  0  0  0
  190.4860  175.9910  138.9410 N   0  0  0  0  0  2  0  0  0  0  0  0
  190.5860  176.8030  145.2820 C   0  0  0  0  0  3  0  0  0  0  0  0
  190.7860  178.1510  142.5730 C   0  0  0  0  0  0  0  0  0  0  0  0
  189.2700  177.1250  140.8460 C   0  0  1  0  0  3  0  0  0  0  0  0
  191.7930  177.9790  141.7710 N   0  0  0  0  0  0  0  0  0  0  0  0
  193.6740  174.6200  136.5070 C   0  0  0  0  0  3  0  0  0  0  0  0
  191.5750  175.5530  138.1180 C   0  0  0  0  0  0  0  0  0  0  0  0
  192.6760  176.3780  137.8380 C   0  0  0  0  0  3  0  0  0  0  0  0
  193.7210  175.9120  137.0340 C   0  0  0  0  0  3  0  0  0  0  0  0
  192.5810  173.7920  136.7830 C   0  0  0  0  0  3  0  0  0  0  0  0
  191.5370  174.2600  137.5880 C   0  0  0  0  0  3  0  0  0  0  0  0
  188.6660  178.2760  140.1900 N   0  0  0  0  0  2  0  0  0  0  0  0
  186.0360  179.2150  141.7180 Cl  0  0  0  0  0  0  0  0  0  0  0  0
  186.2600  177.8800  137.3900 C   0  0  0  0  0  0  0  0  0  0  0  0
  186.2840  177.4880  135.9580 C   0  0  0  0  0  1  0  0  0  0  0  0
  186.1810  178.6270  140.0680 C   0  0  0  0  0  0  0  0  0  0  0  0
  187.4400  177.9160  138.1300 C   0  0  0  0  0  3  0  0  0  0  0  0
  185.0580  178.2160  138.0080 C   0  0  0  0  0  3  0  0  0  0  0  0
  185.0460  178.5820  139.3160 N   0  0  0  0  0  0  0  0  0  0  0  0
  187.4200  178.2730  139.4810 C   0  0  0  0  0  0  0  0  0  0  0  0
  1  4  2  0  0  0  0
  1 11  1  0  0  0  0
  2  3  1  0  0  0  0
  3  9  2  0  0  0  0
  4 12  1  0  0  0  0
  5  6  1  0  0  0  0
  6  9  1  0  0  0  0
  7 10  1  0  0  0  0
  7  5  1  1  0  0  0
  8  1  1  0  0  0  0
 10  2  1  0  0  0  0
 11 19  1  6  0  0  0
 11  7  1  0  0  0  0
 12 10  2  0  0  0  0
 13 17  2  0  0  0  0
 13 16  1  0  0  0  0
 14  8  1  0  0  0  0
 15 14  1  0  0  0  0
 16 15  2  0  0  0  0
 17 18  1  0  0  0  0
 18 14  2  0  0  0  0
 21 25  2  0  0  0  0
 21 24  1  0  0  0  0
 22 21  1  0  0  0  0
 23 20  1  0  0  0  0
 24 27  2  0  0  0  0
 25 26  1  0  0  0  0
 26 23  2  0  0  0  0
 27 23  1  0  0  0  0
 27 19  1  0  0  0  0
M  END
>  <MODEL>
7

>  <REMARK>
 VINA RESULT:      -7.3      2.848      6.281
  Name = 
  3 active torsions:
  status: ('A' for Active; 'I' for Inactive)
    1  A    between atoms: N_3  and  C_19
    2  A    between atoms: N_3  and  C_26
    3  A    between atoms: C_9  and  N_15
                            x       y       z     vdW  Elec       q    Type
                         _______ _______ _______ _____ _____    ______ ____

>  <TORSDO>
F 3

$$$$
=
 OpenBabel10262420063D

 27 30  0  0  1  0  0  0  0  0999 V2000
  187.2680  178.0130  141.5730 C   0  0  0  0  0  0  0  0  0  0  0  0
  189.5250  178.9340  138.0400 C   0  0  0  0  0  2  0  0  0  0  0  0
  189.0380  178.0580  136.9220 C   0  0  0  0  0  3  0  0  0  0  0  0
  186.8860  178.8800  140.6820 N   0  0  0  0  0  0  0  0  0  0  0  0
  188.8100  176.1220  139.3760 C   0  0  0  0  0  2  0  0  0  0  0  0
  189.6370  175.9250  138.1080 C   0  0  0  0  0  2  0  0  0  0  0  0
  189.2150  177.4060  140.0920 C   0  0  1  0  0  3  0  0  0  0  0  0
  186.4280  177.6790  142.6880 N   0  0  0  0  0  2  0  0  0  0  0  0
  189.0870  176.7170  136.9530 C   0  0  0  0  0  3  0  0  0  0  0  0
  188.7940  178.6140  139.3010 C   0  0  0  0  0  0  0  0  0  0  0  0
  188.6540  177.4290  141.5160 C   0  0  1  0  0  3  0  0  0  0  0  0
  187.6850  179.2320  139.5770 N   0  0  0  0  0  0  0  0  0  0  0  0
  182.4980  179.0270  143.5320 C   0  0  0  0  0  3  0  0  0  0  0  0
  185.0930  178.1330  142.9450 C   0  0  0  0  0  0  0  0  0  0  0  0
  184.1060  178.1560  141.9460 C   0  0  0  0  0  3  0  0  0  0  0  0
  182.8140  178.6020  142.2390 C   0  0  0  0  0  3  0  0  0  0  0  0
  183.4750  179.0060  144.5320 C   0  0  0  0  0  3  0  0  0  0  0  0
  184.7670  178.5590  144.2380 C   0  0  0  0  0  3  0  0  0  0  0  0
  189.5460  178.1960  142.3750 N   0  0  0  0  0  2  0  0  0  0  0  0
  192.4460  176.8820  142.4100 Cl  0  0  0  0  0  0  0  0  0  0  0  0
  189.7920  177.5580  146.0240 C   0  0  0  0  0  0  0  0  0  0  0  0
  188.9790  177.7910  147.2450 C   0  0  0  0  0  1  0  0  0  0  0  0
  191.3430  177.1140  143.7590 C   0  0  0  0  0  0  0  0  0  0  0  0
  189.3290  177.9790  144.7790 C   0  0  0  0  0  3  0  0  0  0  0  0
  191.0250  176.9160  146.1100 C   0  0  0  0  0  3  0  0  0  0  0  0
  191.7670  176.7160  144.9900 N   0  0  0  0  0  0  0  0  0  0  0  0
  190.0850  177.7510  143.6270 C   0  0  0  0  0  0  0  0  0  0  0  0
  1  8  1  0  0  0  0
  2 10  1  0  0  0  0
  3  9  2  0  0  0  0
  3  2  1  0  0  0  0
  4  1  2  0  0  0  0
  6  5  1  0  0  0  0
  7  5  1  6  0  0  0
  7 11  1  0  0  0  0
  8 14  1  0  0  0  0
  9  6  1  0  0  0  0
 10 12  2  0  0  0  0
 10  7  1  0  0  0  0
 11  1  1  0  0  0  0
 11 19  1  1  0  0  0
 12  4  1  0  0  0  0
 13 17  1  0  0  0  0
 14 18  1  0  0  0  0
 15 16  1  0  0  0  0
 15 14  2  0  0  0  0
 16 13  2  0  0  0  0
 18 17  2  0  0  0  0
 19 27  1  0  0  0  0
 20 23  1  0  0  0  0
 21 25  1  0  0  0  0
 21 22  1  0  0  0  0
 23 26  1  0  0  0  0
 24 21  2  0  0  0  0
 26 25  2  0  0  0  0
 27 23  2  0  0  0  0
 27 24  1  0  0  0  0
M  END
>  <MODEL>
8

>  <REMARK>
 VINA RESULT:      -6.9      1.653      5.601
  Name = 
  3 active torsions:
  status: ('A' for Active; 'I' for Inactive)
    1  A    between atoms: N_3  and  C_19
    2  A    between atoms: N_3  and  C_26
    3  A    between atoms: C_9  and  N_15
                            x       y       z     vdW  Elec       q    Type
                         _______ _______ _______ _____ _____    ______ ____

>  <TORSDO>
F 3

$$$$
=
 OpenBabel10262420063D

 27 30  0  0  1  0  0  0  0  0999 V2000
  191.1780  176.1970  137.8220 C   0  0  0  0  0  0  0  0  0  0  0  0
  187.0130  175.6460  136.9410 C   0  0  0  0  0  2  0  0  0  0  0  0
  186.6610  176.4920  135.7510 C   0  0  0  0  0  3  0  0  0  0  0  0
  190.7320  175.3180  136.9730 N   0  0  0  0  0  0  0  0  0  0  0  0
  188.7430  178.3170  137.2210 C   0  0  0  0  0  2  0  0  0  0  0  0
  187.2900  178.6440  136.8850 C   0  0  0  0  0  2  0  0  0  0  0  0
  188.8280  177.0680  138.0930 C   0  0  1  0  0  3  0  0  0  0  0  0
  192.5860  176.3990  138.0080 N   0  0  0  0  0  2  0  0  0  0  0  0
  186.7870  177.8280  135.7260 C   0  0  0  0  0  3  0  0  0  0  0  0
  188.4450  175.8430  137.3080 C   0  0  0  0  0  0  0  0  0  0  0  0
  190.2200  176.9390  138.7150 C   0  0  1  0  0  3  0  0  0  0  0  0
  189.3580  175.0930  136.7660 N   0  0  0  0  0  0  0  0  0  0  0  0
  195.7830  174.5380  135.9370 C   0  0  0  0  0  3  0  0  0  0  0  0
  193.6620  175.7860  137.2850 C   0  0  0  0  0  0  0  0  0  0  0  0
  194.0900  176.2650  136.0360 C   0  0  0  0  0  3  0  0  0  0  0  0
  195.1460  175.6420  135.3650 C   0  0  0  0  0  3  0  0  0  0  0  0
  195.3620  174.0570  137.1810 C   0  0  0  0  0  3  0  0  0  0  0  0
  194.3060  174.6810  137.8510 C   0  0  0  0  0  3  0  0  0  0  0  0
  190.1140  176.2560  139.9970 N   0  0  0  0  0  2  0  0  0  0  0  0
  192.8100  177.6210  140.9990 Cl  0  0  0  0  0  0  0  0  0  0  0  0
  188.8840  177.5190  143.2650 C   0  0  0  0  0  0  0  0  0  0  0  0
  187.6120  177.5480  144.0320 C   0  0  0  0  0  1  0  0  0  0  0  0
  191.2790  177.4910  141.8510 C   0  0  0  0  0  0  0  0  0  0  0  0
  188.9320  176.9290  142.0030 C   0  0  0  0  0  3  0  0  0  0  0  0
  190.0410  178.0810  143.7980 C   0  0  0  0  0  3  0  0  0  0  0  0
  191.1980  178.0600  143.0860 N   0  0  0  0  0  0  0  0  0  0  0  0
  190.1280  176.8900  141.2830 C   0  0  0  0  0  0  0  0  0  0  0  0
  1  8  1  0  0  0  0
  1 11  1  0  0  0  0
  2 10  1  0  0  0  0
  3  2  1  0  0  0  0
  4  1  2  0  0  0  0
  6  5  1  0  0  0  0
  7  5  1  6  0  0  0
  7 11  1  0  0  0  0
  9  3  2  0  0  0  0
  9  6  1  0  0  0  0
 10  7  1  0  0  0  0
 11 19  1  1  0  0  0
 12  4  1  0  0  0  0
 12 10  2  0  0  0  0
 13 17  1  0  0  0  0
 14 18  1  0  0  0  0
 14  8  1  0  0  0  0
 15 14  2  0  0  0  0
 16 13  2  0  0  0  0
 16 15  1  0  0  0  0
 17 18  2  0  0  0  0
 19 27  1  0  0  0  0
 20 23  1  0  0  0  0
 21 25  1  0  0  0  0
 21 22  1  0  0  0  0
 23 26  1  0  0  0  0
 24 21  2  0  0  0  0
 26 25  2  0  0  0  0
 27 23  2  0  0  0  0
 27 24  1  0  0  0  0
M  END
>  <MODEL>
9

>  <REMARK>
 VINA RESULT:      -6.8      3.169      8.692
  Name = 
  3 active torsions:
  status: ('A' for Active; 'I' for Inactive)
    1  A    between atoms: N_3  and  C_19
    2  A    between atoms: N_3  and  C_26
    3  A    between atoms: C_9  and  N_15
                            x       y       z     vdW  Elec       q    Type
                         _______ _______ _______ _____ _____    ______ ____

>  <TORSDO>
F 3

$$$$
