=
 OpenBabel10262419173D

 34 38  0  0  1  0  0  0  0  0999 V2000
  189.7880  177.2100  146.3910 C   0  0  0  0  0  0  0  0  0  0  0  0
  191.1700  175.9990  144.8070 C   0  0  0  0  0  0  0  0  0  0  0  0
  189.1360  177.2770  144.0240 C   0  0  0  0  0  0  0  0  0  0  0  0
  188.4620  177.6350  141.6940 C   0  0  0  0  0  0  0  0  0  0  0  0
  190.7130  176.9390  147.4010 C   0  0  0  0  0  3  0  0  0  0  0  0
  192.0890  175.7420  145.8290 C   0  0  0  0  0  3  0  0  0  0  0  0
  190.9100  177.5410  142.2100 C   0  0  0  0  0  2  0  0  0  0  0  0
  190.0540  176.8510  145.0410 C   0  0  0  0  0  0  0  0  0  0  0  0
  191.1450  177.1120  140.7690 C   0  0  0  0  0  2  0  0  0  0  0  0
  188.7190  177.5820  140.2140 C   0  0  0  0  0  2  0  0  0  0  0  0
  191.8770  176.2330  147.1140 C   0  0  0  0  0  3  0  0  0  0  0  0
  187.8420  177.7300  144.4270 C   0  0  0  0  0  0  0  0  0  0  0  0
  188.5730  177.7840  146.7440 C   0  0  0  0  0  3  0  0  0  0  0  0
  191.3360  175.3130  143.6090 O   0  0  0  0  0  1  0  0  0  0  0  0
  187.1640  177.9000  142.1090 C   0  0  0  0  0  3  0  0  0  0  0  0
  186.8340  177.9790  143.4630 C   0  0  0  0  0  0  0  0  0  0  0  0
  190.1820  177.8770  139.8630 C   0  0  2  0  0  3  0  0  0  0  0  0
  189.4720  177.3640  142.6420 C   0  0  0  0  0  0  0  0  0  0  0  0
  187.6010  178.0050  145.7790 C   0  0  0  0  0  3  0  0  0  0  0  0
  183.1140  178.6490  143.1370 C   0  0  0  0  0  0  0  0  0  0  0  0
  182.7560  178.9040  144.4630 C   0  0  0  0  0  3  0  0  0  0  0  0
  185.4300  178.3230  143.8150 C   0  0  0  0  0  0  0  0  0  0  0  0
  183.7250  178.8640  145.4670 C   0  0  0  0  0  3  0  0  0  0  0  0
  184.4420  178.3560  142.8160 C   0  0  0  0  0  3  0  0  0  0  0  0
  185.0540  178.5710  145.1450 C   0  0  0  0  0  3  0  0  0  0  0  0
  182.1730  178.6830  142.1630 F   0  0  0  0  0  0  0  0  0  0  0  0
  190.4660  177.7160  138.4890 O   0  0  0  0  0  0  0  0  0  0  0  0
  189.2830  177.3760  137.8090 C   0  0  0  0  0  2  0  0  0  0  0  0
  189.0640  179.7150  137.3730 O   0  0  0  0  0  1  0  0  0  0  0  0
  188.9420  178.4530  136.7900 C   0  0  2  0  0  3  0  0  0  0  0  0
  187.5420  178.2650  136.2030 C   0  0  0  0  0  2  0  0  0  0  0  0
  186.0940  176.5590  137.3120 O   0  0  0  0  0  0  0  0  0  0  0  0
  186.5320  177.8740  137.2320 C   0  0  0  0  0  0  0  0  0  0  0  0
  186.0950  178.7300  138.0440 O   0  0  0  0  0  1  0  0  0  0  0  0
  1 13  1  0  0  0  0
  1  5  2  0  0  0  0
  2  8  2  0  0  0  0
  2  6  1  0  0  0  0
  3 12  1  0  0  0  0
  3  8  1  0  0  0  0
  4 15  2  0  0  0  0
  4 18  1  0  0  0  0
  6 11  2  0  0  0  0
  7 18  1  0  0  0  0
  8  1  1  0  0  0  0
  9  7  1  0  0  0  0
 10  4  1  0  0  0  0
 11  5  1  0  0  0  0
 12 19  1  0  0  0  0
 14  2  1  0  0  0  0
 15 16  1  0  0  0  0
 16 22  1  0  0  0  0
 16 12  2  0  0  0  0
 17 27  1  6  0  0  0
 17 10  1  0  0  0  0
 17  9  1  0  0  0  0
 18  3  2  0  0  0  0
 19 13  2  0  0  0  0
 20 21  1  0  0  0  0
 21 23  2  0  0  0  0
 22 25  2  0  0  0  0
 24 20  2  0  0  0  0
 24 22  1  0  0  0  0
 25 23  1  0  0  0  0
 26 20  1  0  0  0  0
 28 27  1  0  0  0  0
 30 29  1  1  0  0  0
 30 28  1  0  0  0  0
 31 30  1  0  0  0  0
 31 33  1  0  0  0  0
 33 32  2  0  0  0  0
 33 34  1  0  0  0  0
M  END
>  <MODEL>
1

>  <REMARK>
 VINA RESULT:     -11.2      0.000      0.000
  Name = 
  6 active torsions:
  status: ('A' for Active; 'I' for Inactive)
    1  A    between atoms: O_3  and  C_13
    2  A    between atoms: O_3  and  C_29
    3  A    between atoms: C_12  and  C_28
    4  A    between atoms: C_13  and  C_33
    5  A    between atoms: C_20  and  C_22
    6  A    between atoms: C_22  and  C_33
                            x       y       z     vdW  Elec       q    Type
                         _______ _______ _______ _____ _____    ______ ____

>  <TORSDO>
F 6

$$$$
=
 OpenBabel10262419173D

 34 38  0  0  1  0  0  0  0  0999 V2000
  189.7380  177.3200  146.5910 C   0  0  0  0  0  0  0  0  0  0  0  0
  191.2130  176.0590  145.1360 C   0  0  0  0  0  0  0  0  0  0  0  0
  189.2120  177.2780  144.1930 C   0  0  0  0  0  0  0  0  0  0  0  0
  188.6590  177.5280  141.8170 C   0  0  0  0  0  0  0  0  0  0  0  0
  190.6100  177.1030  147.6590 C   0  0  0  0  0  3  0  0  0  0  0  0
  192.0790  175.8560  146.2150 C   0  0  0  0  0  3  0  0  0  0  0  0
  191.0770  177.4850  142.4650 C   0  0  0  0  0  2  0  0  0  0  0  0
  190.0790  176.9070  145.2740 C   0  0  0  0  0  0  0  0  0  0  0  0
  191.3920  176.9970  141.0590 C   0  0  0  0  0  2  0  0  0  0  0  0
  188.9950  177.4160  140.3560 C   0  0  0  0  0  2  0  0  0  0  0  0
  191.7940  176.3990  147.4650 C   0  0  0  0  0  3  0  0  0  0  0  0
  187.8940  177.7330  144.5070 C   0  0  0  0  0  0  0  0  0  0  0  0
  188.5000  177.8950  146.8550 C   0  0  0  0  0  3  0  0  0  0  0  0
  191.4480  175.3240  143.9800 O   0  0  0  0  0  1  0  0  0  0  0  0
  187.3390  177.7970  142.1510 C   0  0  0  0  0  3  0  0  0  0  0  0
  186.9370  177.9290  143.4810 C   0  0  0  0  0  0  0  0  0  0  0  0
  190.4710  177.7120  140.0700 C   0  0  2  0  0  3  0  0  0  0  0  0
  189.6200  177.3100  142.8280 C   0  0  0  0  0  0  0  0  0  0  0  0
  187.5790  178.0630  145.8310 C   0  0  0  0  0  3  0  0  0  0  0  0
  183.2330  178.5420  142.9310 C   0  0  0  0  0  0  0  0  0  0  0  0
  182.8020  178.8490  144.2240 C   0  0  0  0  0  3  0  0  0  0  0  0
  185.5120  178.2720  143.7430 C   0  0  0  0  0  0  0  0  0  0  0  0
  183.7180  178.8630  145.2780 C   0  0  0  0  0  3  0  0  0  0  0  0
  184.5790  178.2500  142.6940 C   0  0  0  0  0  3  0  0  0  0  0  0
  185.0640  178.5720  145.0400 C   0  0  0  0  0  3  0  0  0  0  0  0
  182.3450  178.5230  141.9080 F   0  0  0  0  0  0  0  0  0  0  0  0
  190.8300  177.4950  138.7220 O   0  0  0  0  0  0  0  0  0  0  0  0
  191.9390  176.6320  138.6700 C   0  0  0  0  0  2  0  0  0  0  0  0
  190.5110  174.8400  137.9940 O   0  0  0  0  0  1  0  0  0  0  0  0
  191.6850  175.5190  137.6660 C   0  0  2  0  0  3  0  0  0  0  0  0
  192.8620  174.5460  137.5760 C   0  0  0  0  0  2  0  0  0  0  0  0
  194.5080  176.0980  136.5160 O   0  0  0  0  0  0  0  0  0  0  0  0
  194.1850  175.2420  137.5610 C   0  0  0  0  0  0  0  0  0  0  0  0
  194.9970  175.0730  138.5060 O   0  0  0  0  0  1  0  0  0  0  0  0
  1 13  1  0  0  0  0
  1  5  2  0  0  0  0
  2  8  2  0  0  0  0
  2  6  1  0  0  0  0
  3 12  1  0  0  0  0
  3  8  1  0  0  0  0
  4 15  2  0  0  0  0
  4 18  1  0  0  0  0
  6 11  2  0  0  0  0
  7 18  1  0  0  0  0
  8  1  1  0  0  0  0
  9  7  1  0  0  0  0
 10  4  1  0  0  0  0
 11  5  1  0  0  0  0
 12 19  1  0  0  0  0
 14  2  1  0  0  0  0
 15 16  1  0  0  0  0
 16 22  1  0  0  0  0
 16 12  2  0  0  0  0
 17 27  1  6  0  0  0
 17 10  1  0  0  0  0
 17  9  1  0  0  0  0
 18  3  2  0  0  0  0
 19 13  2  0  0  0  0
 20 21  1  0  0  0  0
 21 23  2  0  0  0  0
 22 25  2  0  0  0  0
 24 20  2  0  0  0  0
 24 22  1  0  0  0  0
 25 23  1  0  0  0  0
 26 20  1  0  0  0  0
 28 27  1  0  0  0  0
 30 29  1  1  0  0  0
 30 28  1  0  0  0  0
 31 30  1  0  0  0  0
 32 33  2  0  0  0  0
 33 31  1  0  0  0  0
 33 34  1  0  0  0  0
M  END
>  <MODEL>
2

>  <REMARK>
 VINA RESULT:     -10.9      1.865      3.105
  Name = 
  6 active torsions:
  status: ('A' for Active; 'I' for Inactive)
    1  A    between atoms: O_3  and  C_13
    2  A    between atoms: O_3  and  C_29
    3  A    between atoms: C_12  and  C_28
    4  A    between atoms: C_13  and  C_33
    5  A    between atoms: C_20  and  C_22
    6  A    between atoms: C_22  and  C_33
                            x       y       z     vdW  Elec       q    Type
                         _______ _______ _______ _____ _____    ______ ____

>  <TORSDO>
F 6

$$$$
=
 OpenBabel10262419173D

 34 38  0  0  1  0  0  0  0  0999 V2000
  189.7720  177.2270  146.4070 C   0  0  0  0  0  0  0  0  0  0  0  0
  191.2050  176.0080  144.8750 C   0  0  0  0  0  0  0  0  0  0  0  0
  189.1930  177.2750  144.0210 C   0  0  0  0  0  0  0  0  0  0  0  0
  188.5900  177.6140  141.6680 C   0  0  0  0  0  0  0  0  0  0  0  0
  190.6660  176.9660  147.4470 C   0  0  0  0  0  3  0  0  0  0  0  0
  192.0920  175.7610  145.9270 C   0  0  0  0  0  3  0  0  0  0  0  0
  191.0210  177.5300  142.2610 C   0  0  0  0  0  2  0  0  0  0  0  0
  190.0800  176.8590  145.0690 C   0  0  0  0  0  0  0  0  0  0  0  0
  191.3010  177.0900  140.8310 C   0  0  0  0  0  2  0  0  0  0  0  0
  188.8930  177.5510  140.1970 C   0  0  0  0  0  2  0  0  0  0  0  0
  191.8400  176.2610  147.2020 C   0  0  0  0  0  3  0  0  0  0  0  0
  187.8860  177.7270  144.3810 C   0  0  0  0  0  0  0  0  0  0  0  0
  188.5450  177.8010  146.7180 C   0  0  0  0  0  3  0  0  0  0  0  0
  191.4080  175.3140  143.6890 O   0  0  0  0  0  1  0  0  0  0  0  0
  187.2790  177.8790  142.0420 C   0  0  0  0  0  3  0  0  0  0  0  0
  186.9080  177.9670  143.3840 C   0  0  0  0  0  0  0  0  0  0  0  0
  190.3650  177.8460  139.8900 C   0  0  2  0  0  3  0  0  0  0  0  0
  189.5710  177.3530  142.6490 C   0  0  0  0  0  0  0  0  0  0  0  0
  187.6030  178.0120  145.7220 C   0  0  0  0  0  3  0  0  0  0  0  0
  183.1930  178.6030  142.9440 C   0  0  0  0  0  0  0  0  0  0  0  0
  182.7980  178.8890  144.2520 C   0  0  0  0  0  3  0  0  0  0  0  0
  185.4920  178.3110  143.6900 C   0  0  0  0  0  0  0  0  0  0  0  0
  183.7410  178.8810  145.2820 C   0  0  0  0  0  3  0  0  0  0  0  0
  184.5310  178.3110  142.6650 C   0  0  0  0  0  3  0  0  0  0  0  0
  185.0790  178.5890  145.0030 C   0  0  0  0  0  3  0  0  0  0  0  0
  182.2790  178.6060  141.9440 F   0  0  0  0  0  0  0  0  0  0  0  0
  190.6910  177.6760  138.5260 O   0  0  0  0  0  0  0  0  0  0  0  0
  189.5190  177.7640  137.7550 C   0  0  0  0  0  2  0  0  0  0  0  0
  189.0220  177.3090  135.4620 O   0  0  0  0  0  1  0  0  0  0  0  0
  189.5660  176.7520  136.6200 C   0  0  2  0  0  3  0  0  0  0  0  0
  188.8480  175.4510  136.9810 C   0  0  0  0  0  2  0  0  0  0  0  0
  190.9300  174.4650  137.9490 O   0  0  0  0  0  1  0  0  0  0  0  0
  189.7900  174.3060  137.1710 C   0  0  0  0  0  0  0  0  0  0  0  0
  189.5410  173.1900  136.6460 O   0  0  0  0  0  0  0  0  0  0  0  0
  1 13  1  0  0  0  0
  1  5  2  0  0  0  0
  2  8  2  0  0  0  0
  2  6  1  0  0  0  0
  3 12  1  0  0  0  0
  3  8  1  0  0  0  0
  4 15  2  0  0  0  0
  4 18  1  0  0  0  0
  6 11  2  0  0  0  0
  7 18  1  0  0  0  0
  8  1  1  0  0  0  0
  9  7  1  0  0  0  0
 10  4  1  0  0  0  0
 11  5  1  0  0  0  0
 12 19  1  0  0  0  0
 14  2  1  0  0  0  0
 15 16  1  0  0  0  0
 16 22  1  0  0  0  0
 16 12  2  0  0  0  0
 17 27  1  6  0  0  0
 17 10  1  0  0  0  0
 17  9  1  0  0  0  0
 18  3  2  0  0  0  0
 19 13  2  0  0  0  0
 20 21  1  0  0  0  0
 21 23  2  0  0  0  0
 22 25  2  0  0  0  0
 24 20  2  0  0  0  0
 24 22  1  0  0  0  0
 25 23  1  0  0  0  0
 26 20  1  0  0  0  0
 28 27  1  0  0  0  0
 30 29  1  6  0  0  0
 30 31  1  0  0  0  0
 30 28  1  0  0  0  0
 31 33  1  0  0  0  0
 33 32  1  0  0  0  0
 34 33  2  0  0  0  0
M  END
>  <MODEL>
3

>  <REMARK>
 VINA RESULT:     -10.7      1.345      1.877
  Name = 
  6 active torsions:
  status: ('A' for Active; 'I' for Inactive)
    1  A    between atoms: O_3  and  C_13
    2  A    between atoms: O_3  and  C_29
    3  A    between atoms: C_12  and  C_28
    4  A    between atoms: C_13  and  C_33
    5  A    between atoms: C_20  and  C_22
    6  A    between atoms: C_22  and  C_33
                            x       y       z     vdW  Elec       q    Type
                         _______ _______ _______ _____ _____    ______ ____

>  <TORSDO>
F 6

$$$$
=
 OpenBabel10262419173D

 34 38  0  0  1  0  0  0  0  0999 V2000
  188.6140  177.2680  146.3690 C   0  0  0  0  0  0  0  0  0  0  0  0
  186.7890  178.6780  147.1220 C   0  0  0  0  0  0  0  0  0  0  0  0
  187.0140  178.0600  144.6830 C   0  0  0  0  0  0  0  0  0  0  0  0
  185.4010  178.5720  142.9080 C   0  0  0  0  0  0  0  0  0  0  0  0
  188.9910  177.0530  147.6960 C   0  0  0  0  0  3  0  0  0  0  0  0
  187.1770  178.4470  148.4450 C   0  0  0  0  0  3  0  0  0  0  0  0
  184.5160  178.1010  145.2010 C   0  0  0  0  0  2  0  0  0  0  0  0
  187.4290  177.9880  146.0550 C   0  0  0  0  0  0  0  0  0  0  0  0
  183.2860  178.9210  144.8390 C   0  0  0  0  0  2  0  0  0  0  0  0
  184.0580  179.0480  142.4300 C   0  0  0  0  0  2  0  0  0  0  0  0
  188.2550  177.6160  148.7340 C   0  0  0  0  0  3  0  0  0  0  0  0
  187.9620  177.7180  143.6700 C   0  0  0  0  0  0  0  0  0  0  0  0
  189.4560  176.8160  145.3610 C   0  0  0  0  0  3  0  0  0  0  0  0
  185.8440  179.6720  146.8960 O   0  0  0  0  0  1  0  0  0  0  0  0
  186.3960  178.4020  141.9540 C   0  0  0  0  0  3  0  0  0  0  0  0
  187.6700  177.9530  142.3030 C   0  0  0  0  0  0  0  0  0  0  0  0
  182.9240  178.6480  143.3800 C   0  0  2  0  0  3  0  0  0  0  0  0
  185.6820  178.3620  144.2750 C   0  0  0  0  0  0  0  0  0  0  0  0
  189.1500  177.0720  144.0320 C   0  0  0  0  0  3  0  0  0  0  0  0
  189.3790  178.1780  138.9230 C   0  0  0  0  0  0  0  0  0  0  0  0
  190.5380  177.4290  139.1410 C   0  0  0  0  0  3  0  0  0  0  0  0
  188.6570  177.7460  141.2080 C   0  0  0  0  0  0  0  0  0  0  0  0
  190.7640  176.8430  140.3890 C   0  0  0  0  0  3  0  0  0  0  0  0
  188.4470  178.3390  139.9510 C   0  0  0  0  0  3  0  0  0  0  0  0
  189.8310  177.0050  141.4170 C   0  0  0  0  0  3  0  0  0  0  0  0
  189.1600  178.7500  137.7150 F   0  0  0  0  0  0  0  0  0  0  0  0
  181.6730  179.1870  143.0090 O   0  0  0  0  0  0  0  0  0  0  0  0
  181.1760  178.4820  141.8980 C   0  0  0  0  0  2  0  0  0  0  0  0
  179.7200  179.4140  140.2480 O   0  0  0  0  0  1  0  0  0  0  0  0
  181.0380  179.4180  140.7070 C   0  0  2  0  0  3  0  0  0  0  0  0
  182.0030  179.0560  139.5770 C   0  0  0  0  0  2  0  0  0  0  0  0
  184.1970  180.1590  139.1220 O   0  0  0  0  0  1  0  0  0  0  0  0
  182.8100  180.2240  139.1120 C   0  0  0  0  0  0  0  0  0  0  0  0
  182.2350  181.2600  138.6890 O   0  0  0  0  0  0  0  0  0  0  0  0
  1  5  2  0  0  0  0
  2  6  1  0  0  0  0
  3  8  1  0  0  0  0
  4 18  2  0  0  0  0
  5 11  1  0  0  0  0
  6 11  2  0  0  0  0
  8  1  1  0  0  0  0
  8  2  2  0  0  0  0
  9  7  1  0  0  0  0
 10  4  1  0  0  0  0
 10 17  1  0  0  0  0
 12 19  1  0  0  0  0
 12  3  2  0  0  0  0
 13  1  1  0  0  0  0
 14  2  1  0  0  0  0
 15 16  2  0  0  0  0
 15  4  1  0  0  0  0
 16 12  1  0  0  0  0
 17 27  1  6  0  0  0
 17  9  1  0  0  0  0
 18  3  1  0  0  0  0
 18  7  1  0  0  0  0
 19 13  2  0  0  0  0
 20 21  2  0  0  0  0
 20 24  1  0  0  0  0
 21 23  1  0  0  0  0
 22 25  1  0  0  0  0
 22 16  1  0  0  0  0
 23 25  2  0  0  0  0
 24 22  2  0  0  0  0
 26 20  1  0  0  0  0
 28 27  1  0  0  0  0
 30 29  1  6  0  0  0
 30 28  1  0  0  0  0
 31 30  1  0  0  0  0
 33 32  1  0  0  0  0
 33 31  1  0  0  0  0
 34 33  2  0  0  0  0
M  END
>  <MODEL>
4

>  <REMARK>
 VINA RESULT:     -10.7      3.080      6.133
  Name = 
  6 active torsions:
  status: ('A' for Active; 'I' for Inactive)
    1  A    between atoms: O_3  and  C_13
    2  A    between atoms: O_3  and  C_29
    3  A    between atoms: C_12  and  C_28
    4  A    between atoms: C_13  and  C_33
    5  A    between atoms: C_20  and  C_22
    6  A    between atoms: C_22  and  C_33
                            x       y       z     vdW  Elec       q    Type
                         _______ _______ _______ _____ _____    ______ ____

>  <TORSDO>
F 6

$$$$
=
 OpenBabel10262419173D

 34 38  0  0  1  0  0  0  0  0999 V2000
  187.0030  178.3490  146.9840 C   0  0  0  0  0  0  0  0  0  0  0  0
  188.9030  177.1390  146.0810 C   0  0  0  0  0  0  0  0  0  0  0  0
  187.1160  178.0560  144.5490 C   0  0  0  0  0  0  0  0  0  0  0  0
  187.1720  178.0510  142.0970 C   0  0  0  0  0  0  0  0  0  0  0  0
  187.5880  178.3150  148.2510 C   0  0  0  0  0  3  0  0  0  0  0  0
  189.4760  177.1190  147.3560 C   0  0  0  0  0  3  0  0  0  0  0  0
  189.3370  178.3210  143.3240 C   0  0  0  0  0  2  0  0  0  0  0  0
  187.7040  177.8690  145.8440 C   0  0  0  0  0  0  0  0  0  0  0  0
  190.0430  177.7560  142.0990 C   0  0  0  0  0  2  0  0  0  0  0  0
  187.8790  177.8570  140.7850 C   0  0  0  0  0  2  0  0  0  0  0  0
  188.8370  177.7290  148.4320 C   0  0  0  0  0  3  0  0  0  0  0  0
  185.7280  178.3910  144.4770 C   0  0  0  0  0  0  0  0  0  0  0  0
  185.6970  178.8080  146.8710 C   0  0  0  0  0  3  0  0  0  0  0  0
  189.4860  176.3420  145.1030 O   0  0  0  0  0  1  0  0  0  0  0  0
  185.7920  178.2030  142.0640 C   0  0  0  0  0  3  0  0  0  0  0  0
  185.0530  178.3990  143.2310 C   0  0  0  0  0  0  0  0  0  0  0  0
  189.3500  178.2850  140.8440 C   0  0  2  0  0  3  0  0  0  0  0  0
  187.8560  178.0210  143.3320 C   0  0  0  0  0  0  0  0  0  0  0  0
  185.0580  178.7920  145.6400 C   0  0  0  0  0  3  0  0  0  0  0  0
  181.6120  178.7890  141.6820 C   0  0  0  0  0  0  0  0  0  0  0  0
  180.8060  178.9310  142.8140 C   0  0  0  0  0  3  0  0  0  0  0  0
  183.5860  178.6080  143.0960 C   0  0  0  0  0  0  0  0  0  0  0  0
  181.3820  178.9060  144.0860 C   0  0  0  0  0  3  0  0  0  0  0  0
  182.9920  178.6230  141.8220 C   0  0  0  0  0  3  0  0  0  0  0  0
  182.7630  178.7410  144.2250 C   0  0  0  0  0  3  0  0  0  0  0  0
  181.0550  178.8080  140.4470 F   0  0  0  0  0  0  0  0  0  0  0  0
  190.0580  177.9990  139.6560 O   0  0  0  0  0  0  0  0  0  0  0  0
  189.1730  177.4580  138.7080 C   0  0  0  0  0  2  0  0  0  0  0  0
  189.0570  179.6160  137.6880 O   0  0  0  0  0  1  0  0  0  0  0  0
  189.2400  178.2590  137.4170 C   0  0  2  0  0  3  0  0  0  0  0  0
  188.2200  177.7740  136.3850 C   0  0  0  0  0  2  0  0  0  0  0  0
  186.6020  176.0250  137.1350 O   0  0  0  0  0  0  0  0  0  0  0  0
  186.9210  177.3700  137.0050 C   0  0  0  0  0  0  0  0  0  0  0  0
  186.1260  178.2470  137.4310 O   0  0  0  0  0  1  0  0  0  0  0  0
  1  5  2  0  0  0  0
  2  6  1  0  0  0  0
  3  8  1  0  0  0  0
  4 18  1  0  0  0  0
  5 11  1  0  0  0  0
  6 11  2  0  0  0  0
  7 18  1  0  0  0  0
  8  2  2  0  0  0  0
  8  1  1  0  0  0  0
  9  7  1  0  0  0  0
 10 17  1  0  0  0  0
 10  4  1  0  0  0  0
 12  3  1  0  0  0  0
 12 19  1  0  0  0  0
 13  1  1  0  0  0  0
 14  2  1  0  0  0  0
 15  4  2  0  0  0  0
 15 16  1  0  0  0  0
 16 12  2  0  0  0  0
 17 27  1  6  0  0  0
 17  9  1  0  0  0  0
 18  3  2  0  0  0  0
 19 13  2  0  0  0  0
 20 24  2  0  0  0  0
 20 21  1  0  0  0  0
 21 23  2  0  0  0  0
 22 16  1  0  0  0  0
 22 25  2  0  0  0  0
 23 25  1  0  0  0  0
 24 22  1  0  0  0  0
 26 20  1  0  0  0  0
 28 27  1  0  0  0  0
 30 29  1  1  0  0  0
 30 28  1  0  0  0  0
 31 33  1  0  0  0  0
 31 30  1  0  0  0  0
 33 32  2  0  0  0  0
 33 34  1  0  0  0  0
M  END
>  <MODEL>
5

>  <REMARK>
 VINA RESULT:     -10.6      1.372      2.150
  Name = 
  6 active torsions:
  status: ('A' for Active; 'I' for Inactive)
    1  A    between atoms: O_3  and  C_13
    2  A    between atoms: O_3  and  C_29
    3  A    between atoms: C_12  and  C_28
    4  A    between atoms: C_13  and  C_33
    5  A    between atoms: C_20  and  C_22
    6  A    between atoms: C_22  and  C_33
                            x       y       z     vdW  Elec       q    Type
                         _______ _______ _______ _____ _____    ______ ____

>  <TORSDO>
F 6

$$$$
=
 OpenBabel10262419173D

 34 38  0  0  1  0  0  0  0  0999 V2000
  187.0470  178.4360  147.1100 C   0  0  0  0  0  0  0  0  0  0  0  0
  189.0370  177.1710  146.5390 C   0  0  0  0  0  0  0  0  0  0  0  0
  187.4600  177.9690  144.7350 C   0  0  0  0  0  0  0  0  0  0  0  0
  187.8210  177.7880  142.3160 C   0  0  0  0  0  0  0  0  0  0  0  0
  187.4690  178.4940  148.4390 C   0  0  0  0  0  3  0  0  0  0  0  0
  189.4480  177.2440  147.8740 C   0  0  0  0  0  3  0  0  0  0  0  0
  189.8180  178.1520  143.7800 C   0  0  0  0  0  2  0  0  0  0  0  0
  187.8820  177.8770  146.1030 C   0  0  0  0  0  0  0  0  0  0  0  0
  190.6670  177.5040  142.6960 C   0  0  0  0  0  2  0  0  0  0  0  0
  188.6850  177.5020  141.1190 C   0  0  0  0  0  2  0  0  0  0  0  0
  188.6830  177.9270  148.8160 C   0  0  0  0  0  3  0  0  0  0  0  0
  186.0940  178.2930  144.4680 C   0  0  0  0  0  0  0  0  0  0  0  0
  185.7680  178.8800  146.8030 C   0  0  0  0  0  3  0  0  0  0  0  0
  189.7340  176.3070  145.7020 O   0  0  0  0  0  1  0  0  0  0  0  0
  186.4570  177.9320  142.1010 C   0  0  0  0  0  3  0  0  0  0  0  0
  185.5790  178.2090  143.1500 C   0  0  0  0  0  0  0  0  0  0  0  0
  190.1390  177.9390  141.3300 C   0  0  2  0  0  3  0  0  0  0  0  0
  188.3460  177.8480  143.6250 C   0  0  0  0  0  0  0  0  0  0  0  0
  185.2860  178.7740  145.5050 C   0  0  0  0  0  3  0  0  0  0  0  0
  181.8580  178.8390  143.5420 C   0  0  0  0  0  0  0  0  0  0  0  0
  181.4300  178.8380  142.2130 C   0  0  0  0  0  3  0  0  0  0  0  0
  184.1410  178.4020  142.8180 C   0  0  0  0  0  0  0  0  0  0  0  0
  182.3500  178.6270  141.1840 C   0  0  0  0  0  3  0  0  0  0  0  0
  183.2070  178.6280  143.8420 C   0  0  0  0  0  3  0  0  0  0  0  0
  183.6980  178.4150  141.4850 C   0  0  0  0  0  3  0  0  0  0  0  0
  180.9680  179.0490  144.5420 F   0  0  0  0  0  0  0  0  0  0  0  0
  190.9880  177.5710  140.2640 O   0  0  0  0  0  0  0  0  0  0  0  0
  190.2340  176.9090  139.2780 C   0  0  0  0  0  2  0  0  0  0  0  0
  190.9730  174.8770  138.2620 O   0  0  0  0  0  1  0  0  0  0  0  0
  191.1610  176.2590  138.2630 C   0  0  2  0  0  3  0  0  0  0  0  0
  192.6290  176.6030  138.5230 C   0  0  0  0  0  2  0  0  0  0  0  0
  193.2440  176.0910  136.1570 O   0  0  0  0  0  0  0  0  0  0  0  0
  193.5500  176.0050  137.5090 C   0  0  0  0  0  0  0  0  0  0  0  0
  194.6140  175.4450  137.8760 O   0  0  0  0  0  1  0  0  0  0  0  0
  1  5  2  0  0  0  0
  2  6  1  0  0  0  0
  3  8  1  0  0  0  0
  4 18  1  0  0  0  0
  5 11  1  0  0  0  0
  6 11  2  0  0  0  0
  8  2  2  0  0  0  0
  8  1  1  0  0  0  0
  9  7  1  0  0  0  0
 10 17  1  0  0  0  0
 10  4  1  0  0  0  0
 12  3  1  0  0  0  0
 12 19  1  0  0  0  0
 13  1  1  0  0  0  0
 14  2  1  0  0  0  0
 15  4  2  0  0  0  0
 15 16  1  0  0  0  0
 16 12  2  0  0  0  0
 17 27  1  6  0  0  0
 17  9  1  0  0  0  0
 18  7  1  0  0  0  0
 18  3  2  0  0  0  0
 19 13  2  0  0  0  0
 20 24  1  0  0  0  0
 20 26  1  0  0  0  0
 21 20  2  0  0  0  0
 22 16  1  0  0  0  0
 22 24  2  0  0  0  0
 23 25  2  0  0  0  0
 23 21  1  0  0  0  0
 25 22  1  0  0  0  0
 28 27  1  0  0  0  0
 30 29  1  1  0  0  0
 30 31  1  0  0  0  0
 30 28  1  0  0  0  0
 32 33  2  0  0  0  0
 33 34  1  0  0  0  0
 33 31  1  0  0  0  0
M  END
>  <MODEL>
6

>  <REMARK>
 VINA RESULT:     -10.6      2.371      3.604
  Name = 
  6 active torsions:
  status: ('A' for Active; 'I' for Inactive)
    1  A    between atoms: O_3  and  C_13
    2  A    between atoms: O_3  and  C_29
    3  A    between atoms: C_12  and  C_28
    4  A    between atoms: C_13  and  C_33
    5  A    between atoms: C_20  and  C_22
    6  A    between atoms: C_22  and  C_33
                            x       y       z     vdW  Elec       q    Type
                         _______ _______ _______ _____ _____    ______ ____

>  <TORSDO>
F 6

$$$$
=
 OpenBabel10262419173D

 34 38  0  0  1  0  0  0  0  0999 V2000
  187.0230  178.3250  146.9380 C   0  0  0  0  0  0  0  0  0  0  0  0
  188.9420  177.1250  146.0640 C   0  0  0  0  0  0  0  0  0  0  0  0
  187.1830  178.0490  144.5030 C   0  0  0  0  0  0  0  0  0  0  0  0
  187.2880  178.0620  142.0530 C   0  0  0  0  0  0  0  0  0  0  0  0
  187.5820  178.2820  148.2160 C   0  0  0  0  0  3  0  0  0  0  0  0
  189.4900  177.0970  147.3490 C   0  0  0  0  0  3  0  0  0  0  0  0
  189.4280  178.3270  143.3240 C   0  0  0  0  0  2  0  0  0  0  0  0
  187.7460  177.8540  145.8080 C   0  0  0  0  0  0  0  0  0  0  0  0
  190.1580  177.7730  142.1090 C   0  0  0  0  0  2  0  0  0  0  0  0
  188.0210  177.8780  140.7540 C   0  0  0  0  0  2  0  0  0  0  0  0
  188.8290  177.6970  148.4170 C   0  0  0  0  0  3  0  0  0  0  0  0
  185.7970  178.3820  144.4070 C   0  0  0  0  0  0  0  0  0  0  0  0
  185.7180  178.7810  146.8020 C   0  0  0  0  0  3  0  0  0  0  0  0
  189.5460  176.3360  145.0920 O   0  0  0  0  0  1  0  0  0  0  0  0
  185.9080  178.2110  141.9940 C   0  0  0  0  0  3  0  0  0  0  0  0
  185.1460  178.3980  143.1480 C   0  0  0  0  0  0  0  0  0  0  0  0
  189.4890  178.3090  140.8450 C   0  0  2  0  0  3  0  0  0  0  0  0
  187.9480  178.0240  143.3010 C   0  0  0  0  0  0  0  0  0  0  0  0
  185.1030  178.7730  145.5590 C   0  0  0  0  0  3  0  0  0  0  0  0
  181.7170  178.6760  141.5470 C   0  0  0  0  0  0  0  0  0  0  0  0
  180.9060  178.9220  142.6570 C   0  0  0  0  0  3  0  0  0  0  0  0
  183.6810  178.6040  142.9850 C   0  0  0  0  0  0  0  0  0  0  0  0
  181.4740  179.0020  143.9310 C   0  0  0  0  0  3  0  0  0  0  0  0
  183.0960  178.5130  141.7110 C   0  0  0  0  0  3  0  0  0  0  0  0
  182.8530  178.8400  144.0930 C   0  0  0  0  0  3  0  0  0  0  0  0
  181.1680  178.5930  140.3120 F   0  0  0  0  0  0  0  0  0  0  0  0
  190.2210  178.0330  139.6690 O   0  0  0  0  0  0  0  0  0  0  0  0
  189.8780  176.7530  139.1990 C   0  0  0  0  0  2  0  0  0  0  0  0
  189.9090  175.6880  137.0600 O   0  0  0  0  0  1  0  0  0  0  0  0
  190.6890  176.4210  137.9560 C   0  0  2  0  0  3  0  0  0  0  0  0
  191.9750  175.6650  138.2930 C   0  0  0  0  0  2  0  0  0  0  0  0
  193.8890  176.7510  137.1120 O   0  0  0  0  0  0  0  0  0  0  0  0
  193.1810  176.5480  138.2880 C   0  0  0  0  0  0  0  0  0  0  0  0
  193.5420  177.1280  139.3450 O   0  0  0  0  0  1  0  0  0  0  0  0
  1  5  2  0  0  0  0
  2  6  1  0  0  0  0
  3  8  1  0  0  0  0
  4 18  1  0  0  0  0
  5 11  1  0  0  0  0
  6 11  2  0  0  0  0
  8  2  2  0  0  0  0
  8  1  1  0  0  0  0
  9  7  1  0  0  0  0
 10 17  1  0  0  0  0
 10  4  1  0  0  0  0
 12  3  1  0  0  0  0
 12 19  1  0  0  0  0
 13  1  1  0  0  0  0
 14  2  1  0  0  0  0
 15  4  2  0  0  0  0
 15 16  1  0  0  0  0
 16 12  2  0  0  0  0
 17 27  1  6  0  0  0
 17  9  1  0  0  0  0
 18  7  1  0  0  0  0
 18  3  2  0  0  0  0
 19 13  2  0  0  0  0
 20 24  2  0  0  0  0
 20 21  1  0  0  0  0
 21 23  2  0  0  0  0
 22 16  1  0  0  0  0
 22 25  2  0  0  0  0
 23 25  1  0  0  0  0
 24 22  1  0  0  0  0
 26 20  1  0  0  0  0
 28 27  1  0  0  0  0
 30 29  1  6  0  0  0
 30 31  1  0  0  0  0
 30 28  1  0  0  0  0
 32 33  2  0  0  0  0
 33 31  1  0  0  0  0
 33 34  1  0  0  0  0
M  END
>  <MODEL>
7

>  <REMARK>
 VINA RESULT:     -10.5      2.074      3.324
  Name = 
  6 active torsions:
  status: ('A' for Active; 'I' for Inactive)
    1  A    between atoms: O_3  and  C_13
    2  A    between atoms: O_3  and  C_29
    3  A    between atoms: C_12  and  C_28
    4  A    between atoms: C_13  and  C_33
    5  A    between atoms: C_20  and  C_22
    6  A    between atoms: C_22  and  C_33
                            x       y       z     vdW  Elec       q    Type
                         _______ _______ _______ _____ _____    ______ ____

>  <TORSDO>
F 6

$$$$
=
 OpenBabel10262419173D

 34 38  0  0  1  0  0  0  0  0999 V2000
  188.6170  177.3640  146.4170 C   0  0  0  0  0  0  0  0  0  0  0  0
  186.7980  178.7700  147.1930 C   0  0  0  0  0  0  0  0  0  0  0  0
  186.9630  178.1070  144.7610 C   0  0  0  0  0  0  0  0  0  0  0  0
  185.2970  178.5680  143.0210 C   0  0  0  0  0  0  0  0  0  0  0  0
  189.0320  177.1790  147.7370 C   0  0  0  0  0  3  0  0  0  0  0  0
  187.2240  178.5690  148.5090 C   0  0  0  0  0  3  0  0  0  0  0  0
  184.4800  178.1320  145.3470 C   0  0  0  0  0  2  0  0  0  0  0  0
  187.4160  178.0660  146.1220 C   0  0  0  0  0  0  0  0  0  0  0  0
  183.2320  178.9320  145.0030 C   0  0  0  0  0  2  0  0  0  0  0  0
  183.9360  179.0210  142.5720 C   0  0  0  0  0  2  0  0  0  0  0  0
  188.3190  177.7540  148.7840 C   0  0  0  0  0  3  0  0  0  0  0  0
  187.8860  177.7550  143.7290 C   0  0  0  0  0  0  0  0  0  0  0  0
  189.4360  176.9010  145.3950 C   0  0  0  0  0  3  0  0  0  0  0  0
  185.8360  179.7500  146.9740 O   0  0  0  0  0  1  0  0  0  0  0  0
  186.2670  178.3890  142.0440 C   0  0  0  0  0  3  0  0  0  0  0  0
  187.5550  177.9600  142.3660 C   0  0  0  0  0  0  0  0  0  0  0  0
  182.8330  178.6280  143.5600 C   0  0  2  0  0  3  0  0  0  0  0  0
  185.6170  178.3870  144.3840 C   0  0  0  0  0  0  0  0  0  0  0  0
  189.0910  177.1280  144.0700 C   0  0  0  0  0  3  0  0  0  0  0  0
  189.2290  178.2240  138.9720 C   0  0  0  0  0  0  0  0  0  0  0  0
  190.3450  177.4020  139.1420 C   0  0  0  0  0  3  0  0  0  0  0  0
  188.5130  177.7420  141.2480 C   0  0  0  0  0  0  0  0  0  0  0  0
  190.5540  176.7550  140.3620 C   0  0  0  0  0  3  0  0  0  0  0  0
  188.3210  178.3970  140.0200 C   0  0  0  0  0  3  0  0  0  0  0  0
  189.6460  176.9280  141.4100 C   0  0  0  0  0  3  0  0  0  0  0  0
  189.0280  178.8570  137.7910 F   0  0  0  0  0  0  0  0  0  0  0  0
  181.5660  179.1470  143.2130 O   0  0  0  0  0  0  0  0  0  0  0  0
  181.3720  179.0050  141.8280 C   0  0  0  0  0  2  0  0  0  0  0  0
  179.3030  178.2440  142.7480 O   0  0  0  0  0  1  0  0  0  0  0  0
  180.0130  178.3800  141.5550 C   0  0  2  0  0  3  0  0  0  0  0  0
  180.1340  177.0310  140.8430 C   0  0  0  0  0  2  0  0  0  0  0  0
  180.9710  177.8650  138.6420 O   0  0  0  0  0  0  0  0  0  0  0  0
  181.1510  177.0460  139.7490 C   0  0  0  0  0  0  0  0  0  0  0  0
  182.1840  176.3340  139.8390 O   0  0  0  0  0  1  0  0  0  0  0  0
  1  5  2  0  0  0  0
  2  6  1  0  0  0  0
  3  8  1  0  0  0  0
  4 18  2  0  0  0  0
  5 11  1  0  0  0  0
  6 11  2  0  0  0  0
  8  1  1  0  0  0  0
  8  2  2  0  0  0  0
  9  7  1  0  0  0  0
 10  4  1  0  0  0  0
 10 17  1  0  0  0  0
 12 19  1  0  0  0  0
 12  3  2  0  0  0  0
 13  1  1  0  0  0  0
 14  2  1  0  0  0  0
 15 16  2  0  0  0  0
 15  4  1  0  0  0  0
 16 12  1  0  0  0  0
 17 27  1  6  0  0  0
 17  9  1  0  0  0  0
 18  3  1  0  0  0  0
 18  7  1  0  0  0  0
 19 13  2  0  0  0  0
 20 21  2  0  0  0  0
 20 24  1  0  0  0  0
 21 23  1  0  0  0  0
 22 25  1  0  0  0  0
 22 16  1  0  0  0  0
 23 25  2  0  0  0  0
 24 22  2  0  0  0  0
 26 20  1  0  0  0  0
 28 27  1  0  0  0  0
 30 28  1  0  0  0  0
 30 29  1  1  0  0  0
 31 30  1  0  0  0  0
 32 33  2  0  0  0  0
 33 34  1  0  0  0  0
 33 31  1  0  0  0  0
M  END
>  <MODEL>
8

>  <REMARK>
 VINA RESULT:     -10.4      3.332      6.402
  Name = 
  6 active torsions:
  status: ('A' for Active; 'I' for Inactive)
    1  A    between atoms: O_3  and  C_13
    2  A    between atoms: O_3  and  C_29
    3  A    between atoms: C_12  and  C_28
    4  A    between atoms: C_13  and  C_33
    5  A    between atoms: C_20  and  C_22
    6  A    between atoms: C_22  and  C_33
                            x       y       z     vdW  Elec       q    Type
                         _______ _______ _______ _____ _____    ______ ____

>  <TORSDO>
F 6

$$$$
=
 OpenBabel10262419173D

 34 38  0  0  1  0  0  0  0  0999 V2000
  190.8470  176.3850  144.9620 C   0  0  0  0  0  0  0  0  0  0  0  0
  189.4570  177.6870  146.4650 C   0  0  0  0  0  0  0  0  0  0  0  0
  188.8130  177.4050  144.0390 C   0  0  0  0  0  0  0  0  0  0  0  0
  186.7220  178.1590  143.0010 C   0  0  0  0  0  0  0  0  0  0  0  0
  191.6390  175.9910  146.0410 C   0  0  0  0  0  3  0  0  0  0  0  0
  190.2580  177.2780  147.5350 C   0  0  0  0  0  3  0  0  0  0  0  0
  186.6430  177.3840  145.3810 C   0  0  0  0  0  2  0  0  0  0  0  0
  189.6630  177.1460  145.1650 C   0  0  0  0  0  0  0  0  0  0  0  0
  185.4060  178.2510  145.5670 C   0  0  0  0  0  2  0  0  0  0  0  0
  185.3220  178.7000  143.0760 C   0  0  0  0  0  2  0  0  0  0  0  0
  191.3280  176.4100  147.3310 C   0  0  0  0  0  3  0  0  0  0  0  0
  189.3440  177.1990  142.7280 C   0  0  0  0  0  0  0  0  0  0  0  0
  191.2740  176.0710  143.6780 C   0  0  0  0  0  3  0  0  0  0  0  0
  188.5420  178.7060  146.7030 O   0  0  0  0  0  1  0  0  0  0  0  0
  187.3260  178.1150  141.7520 C   0  0  0  0  0  3  0  0  0  0  0  0
  188.6190  177.6180  141.5840 C   0  0  0  0  0  0  0  0  0  0  0  0
  184.5580  178.1800  144.2980 C   0  0  2  0  0  3  0  0  0  0  0  0
  187.4380  177.7640  144.1520 C   0  0  0  0  0  0  0  0  0  0  0  0
  190.5510  176.5060  142.5770 C   0  0  0  0  0  3  0  0  0  0  0  0
  189.3790  178.5390  137.9830 C   0  0  0  0  0  0  0  0  0  0  0  0
  190.2370  177.5050  137.6020 C   0  0  0  0  0  3  0  0  0  0  0  0
  189.1650  177.5580  140.2010 C   0  0  0  0  0  0  0  0  0  0  0  0
  190.5680  176.5020  138.5150 C   0  0  0  0  0  3  0  0  0  0  0  0
  188.8500  178.5680  139.2760 C   0  0  0  0  0  3  0  0  0  0  0  0
  190.0380  176.5310  139.8080 C   0  0  0  0  0  3  0  0  0  0  0  0
  189.0610  179.5160  137.1000 F   0  0  0  0  0  0  0  0  0  0  0  0
  183.2840  178.7690  144.4480 O   0  0  0  0  0  0  0  0  0  0  0  0
  182.7450  179.0370  143.1770 C   0  0  0  0  0  2  0  0  0  0  0  0
  180.7280  178.5070  144.3440 O   0  0  0  0  0  1  0  0  0  0  0  0
  181.2430  179.2540  143.2840 C   0  0  2  0  0  3  0  0  0  0  0  0
  180.5190  178.9100  141.9810 C   0  0  0  0  0  2  0  0  0  0  0  0
  179.6740  181.2180  141.5360 O   0  0  0  0  0  1  0  0  0  0  0  0
  180.3530  180.0940  141.0840 C   0  0  0  0  0  0  0  0  0  0  0  0
  180.8470  180.0830  139.9280 O   0  0  0  0  0  0  0  0  0  0  0  0
  1  8  1  0  0  0  0
  1  5  2  0  0  0  0
  2 14  1  0  0  0  0
  2  6  1  0  0  0  0
  3 18  1  0  0  0  0
  3  8  1  0  0  0  0
  4 10  1  0  0  0  0
  4 18  2  0  0  0  0
  5 11  1  0  0  0  0
  7  9  1  0  0  0  0
  8  2  2  0  0  0  0
 10 17  1  0  0  0  0
 11  6  2  0  0  0  0
 12  3  2  0  0  0  0
 13  1  1  0  0  0  0
 15  4  1  0  0  0  0
 16 15  2  0  0  0  0
 16 12  1  0  0  0  0
 17 27  1  1  0  0  0
 17  9  1  0  0  0  0
 18  7  1  0  0  0  0
 19 12  1  0  0  0  0
 19 13  2  0  0  0  0
 20 24  1  0  0  0  0
 21 20  2  0  0  0  0
 21 23  1  0  0  0  0
 22 16  1  0  0  0  0
 23 25  2  0  0  0  0
 24 22  2  0  0  0  0
 25 22  1  0  0  0  0
 26 20  1  0  0  0  0
 28 30  1  0  0  0  0
 28 27  1  0  0  0  0
 30 29  1  1  0  0  0
 31 30  1  0  0  0  0
 33 32  1  0  0  0  0
 33 31  1  0  0  0  0
 34 33  2  0  0  0  0
M  END
>  <MODEL>
9

>  <REMARK>
 VINA RESULT:     -10.1      3.272      6.367
  Name = 
  6 active torsions:
  status: ('A' for Active; 'I' for Inactive)
    1  A    between atoms: O_3  and  C_13
    2  A    between atoms: O_3  and  C_29
    3  A    between atoms: C_12  and  C_28
    4  A    between atoms: C_13  and  C_33
    5  A    between atoms: C_20  and  C_22
    6  A    between atoms: C_22  and  C_33
                            x       y       z     vdW  Elec       q    Type
                         _______ _______ _______ _____ _____    ______ ____

>  <TORSDO>
F 6

$$$$
