=
 OpenBabel10262419483D

 25 28  0  0  1  0  0  0  0  0999 V2000
  188.3010  177.6370  144.5250 C   0  0  0  0  0  0  0  0  0  0  0  0
  186.9900  177.9290  145.1100 N   0  0  0  0  0  0  0  0  0  0  0  0
  187.8170  177.8530  147.4100 C   0  0  0  0  0  3  0  0  0  0  0  0
  185.8410  178.2590  144.5010 C   0  0  0  0  0  0  0  0  0  0  0  0
  183.3030  179.0190  143.6980 C   0  0  0  0  0  3  0  0  0  0  0  0
  189.0010  177.5090  147.0010 N   0  0  0  0  0  0  0  0  0  0  0  0
  184.8850  178.5630  145.4390 C   0  0  0  0  0  0  0  0  0  0  0  0
  183.5970  178.9480  145.0710 C   0  0  0  0  0  3  0  0  0  0  0  0
  190.5370  176.8580  145.2550 C   0  0  2  0  0  3  0  0  0  0  0  0
  191.7870  176.5930  146.4600 Cl  0  0  0  0  0  0  0  0  0  0  0  0
  188.2060  176.2250  143.3800 S   0  0  0  0  0  0  0  0  0  0  0  0
  184.2900  178.7150  142.7350 C   0  0  0  0  0  3  0  0  0  0  0  0
  186.7520  178.0580  146.4310 C   0  0  0  0  0  0  0  0  0  0  0  0
  185.4410  178.4470  146.7020 C   0  0  0  0  0  3  0  0  0  0  0  0
  190.8730  176.5870  143.8420 C   0  0  0  0  0  3  0  0  0  0  0  0
  185.5820  178.3320  143.1320 C   0  0  0  0  0  3  0  0  0  0  0  0
  189.9430  176.3910  142.9030 C   0  0  0  0  0  0  0  0  0  0  0  0
  189.3230  177.3150  145.6070 C   0  0  0  0  0  0  0  0  0  0  0  0
  190.3700  176.2700  141.5410 N   0  0  0  0  0  2  0  0  0  0  0  0
  189.9500  177.0700  140.4280 C   0  0  0  0  0  0  0  0  0  0  0  0
  189.1810  178.0550  140.5810 O   0  0  0  0  0  0  0  0  0  0  0  0
  190.4250  176.7200  139.0610 C   0  0  0  0  0  2  0  0  0  0  0  0
  189.3810  177.0580  138.0530 C   0  0  0  0  0  0  0  0  0  0  0  0
  189.5130  178.1960  137.2690 O   0  0  0  0  0  0  0  0  0  0  0  0
  188.3940  176.2940  137.8890 O   0  0  0  0  0  1  0  0  0  0  0  0
  1  2  1  0  0  0  0
  1 18  2  0  0  0  0
  2 13  1  0  0  0  0
  4  2  1  0  0  0  0
  4  7  1  0  0  0  0
  5  8  1  0  0  0  0
  6  3  2  0  0  0  0
  7 14  1  0  0  0  0
  8  7  2  0  0  0  0
  9 18  1  0  0  0  0
  9 10  1  6  0  0  0
 11  1  1  0  0  0  0
 12 16  1  0  0  0  0
 12  5  2  0  0  0  0
 13 14  2  0  0  0  0
 13  3  1  0  0  0  0
 15  9  1  0  0  0  0
 16  4  2  0  0  0  0
 17 11  1  0  0  0  0
 17 15  2  0  0  0  0
 18  6  1  0  0  0  0
 19 17  1  0  0  0  0
 20 21  2  0  0  0  0
 20 19  1  0  0  0  0
 22 20  1  0  0  0  0
 23 22  1  0  0  0  0
 24 23  2  0  0  0  0
 25 23  1  0  0  0  0
M  END
>  <MODEL>
1

>  <REMARK>
 VINA RESULT:     -10.0      0.000      0.000
  Name = 
  3 active torsions:
  status: ('A' for Active; 'I' for Inactive)
    1  A    between atoms: C_2  and  C_21
    2  A    between atoms: N_6  and  C_23
    3  A    between atoms: C_15  and  C_21
                            x       y       z     vdW  Elec       q    Type
                         _______ _______ _______ _____ _____    ______ ____

>  <TORSDO>
F 3

$$$$
=
 OpenBabel10262419483D

 25 28  0  0  1  0  0  0  0  0999 V2000
  188.2970  177.6470  144.3910 C   0  0  0  0  0  0  0  0  0  0  0  0
  187.0300  177.9110  145.0770 N   0  0  0  0  0  0  0  0  0  0  0  0
  188.0130  177.7300  147.3080 C   0  0  0  0  0  3  0  0  0  0  0  0
  185.8430  178.2690  144.5650 C   0  0  0  0  0  0  0  0  0  0  0  0
  183.2580  179.0650  143.9750 C   0  0  0  0  0  3  0  0  0  0  0  0
  189.1660  177.4050  146.8030 N   0  0  0  0  0  0  0  0  0  0  0  0
  184.9550  178.5300  145.5800 C   0  0  0  0  0  0  0  0  0  0  0  0
  183.6460  178.9310  145.3200 C   0  0  0  0  0  3  0  0  0  0  0  0
  190.5760  176.8350  144.9270 C   0  0  2  0  0  3  0  0  0  0  0  0
  191.9050  176.5150  146.0300 Cl  0  0  0  0  0  0  0  0  0  0  0  0
  188.1180  176.2880  143.1920 S   0  0  0  0  0  0  0  0  0  0  0  0
  184.1750  178.8050  142.9330 C   0  0  0  0  0  3  0  0  0  0  0  0
  186.8840  177.9800  146.4160 C   0  0  0  0  0  0  0  0  0  0  0  0
  185.5960  178.3560  146.7950 C   0  0  0  0  0  3  0  0  0  0  0  0
  190.8120  176.6290  143.4840 C   0  0  0  0  0  3  0  0  0  0  0  0
  185.4900  178.4040  143.2220 C   0  0  0  0  0  3  0  0  0  0  0  0
  189.8190  176.4750  142.6040 C   0  0  0  0  0  0  0  0  0  0  0  0
  189.3900  177.2750  145.3830 C   0  0  0  0  0  0  0  0  0  0  0  0
  190.1500  176.4170  141.2110 N   0  0  0  0  0  2  0  0  0  0  0  0
  189.6750  177.2820  140.1720 C   0  0  0  0  0  0  0  0  0  0  0  0
  188.9420  178.2730  140.4260 O   0  0  0  0  0  0  0  0  0  0  0  0
  190.0480  176.9940  138.7590 C   0  0  0  0  0  2  0  0  0  0  0  0
  191.3160  176.2120  138.7120 C   0  0  0  0  0  0  0  0  0  0  0  0
  191.2910  174.8680  138.3640 O   0  0  0  0  0  0  0  0  0  0  0  0
  192.4130  176.7780  138.9560 O   0  0  0  0  0  1  0  0  0  0  0  0
  1  2  1  0  0  0  0
  1 18  2  0  0  0  0
  2 13  1  0  0  0  0
  4  2  1  0  0  0  0
  4  7  1  0  0  0  0
  5  8  1  0  0  0  0
  6  3  2  0  0  0  0
  7 14  1  0  0  0  0
  8  7  2  0  0  0  0
  9 18  1  0  0  0  0
  9 10  1  6  0  0  0
 11  1  1  0  0  0  0
 12 16  1  0  0  0  0
 12  5  2  0  0  0  0
 13 14  2  0  0  0  0
 13  3  1  0  0  0  0
 15  9  1  0  0  0  0
 16  4  2  0  0  0  0
 17 11  1  0  0  0  0
 17 15  2  0  0  0  0
 18  6  1  0  0  0  0
 19 17  1  0  0  0  0
 20 21  2  0  0  0  0
 20 19  1  0  0  0  0
 22 20  1  0  0  0  0
 23 22  1  0  0  0  0
 23 25  1  0  0  0  0
 24 23  2  0  0  0  0
M  END
>  <MODEL>
2

>  <REMARK>
 VINA RESULT:      -9.9      1.040      1.262
  Name = 
  3 active torsions:
  status: ('A' for Active; 'I' for Inactive)
    1  A    between atoms: C_2  and  C_21
    2  A    between atoms: N_6  and  C_23
    3  A    between atoms: C_15  and  C_21
                            x       y       z     vdW  Elec       q    Type
                         _______ _______ _______ _____ _____    ______ ____

>  <TORSDO>
F 3

$$$$
=
 OpenBabel10262419483D

 25 28  0  0  1  0  0  0  0  0999 V2000
  185.7030  177.9470  143.9720 C   0  0  0  0  0  0  0  0  0  0  0  0
  186.6900  177.9820  145.0530 N   0  0  0  0  0  0  0  0  0  0  0  0
  185.0610  178.6770  146.7390 C   0  0  0  0  0  3  0  0  0  0  0  0
  187.9760  177.5980  145.0450 C   0  0  0  0  0  0  0  0  0  0  0  0
  190.6110  176.8880  145.5100 C   0  0  0  0  0  3  0  0  0  0  0  0
  184.1260  178.7580  145.8400 N   0  0  0  0  0  0  0  0  0  0  0  0
  188.5010  177.6950  146.3100 C   0  0  0  0  0  0  0  0  0  0  0  0
  189.8230  177.3470  146.5800 C   0  0  0  0  0  3  0  0  0  0  0  0
  183.3760  178.6830  143.5460 C   0  0  2  0  0  3  0  0  0  0  0  0
  181.7710  179.1790  144.0600 Cl  0  0  0  0  0  0  0  0  0  0  0  0
  186.2560  178.9420  142.5510 S   0  0  0  0  0  0  0  0  0  0  0  0
  190.0670  176.7800  144.2120 C   0  0  0  0  0  3  0  0  0  0  0  0
  186.4110  178.2900  146.3360 C   0  0  0  0  0  0  0  0  0  0  0  0
  187.5140  178.1370  147.1750 C   0  0  0  0  0  3  0  0  0  0  0  0
  183.6030  178.4720  142.1020 C   0  0  0  0  0  3  0  0  0  0  0  0
  188.7290  177.1350  143.9660 C   0  0  0  0  0  3  0  0  0  0  0  0
  184.8220  178.4630  141.5550 C   0  0  0  0  0  0  0  0  0  0  0  0
  184.3570  178.4810  144.4420 C   0  0  0  0  0  0  0  0  0  0  0  0
  184.9420  178.1160  140.1710 N   0  0  0  0  0  2  0  0  0  0  0  0
  184.6890  178.9610  139.0420 C   0  0  0  0  0  0  0  0  0  0  0  0
  184.3970  180.1780  139.1840 O   0  0  0  0  0  0  0  0  0  0  0  0
  184.7620  178.3850  137.6700 C   0  0  0  0  0  2  0  0  0  0  0  0
  186.1620  177.9830  137.3570 C   0  0  0  0  0  0  0  0  0  0  0  0
  187.1440  178.9520  137.1970 O   0  0  0  0  0  0  0  0  0  0  0  0
  186.4620  176.7640  137.2680 O   0  0  0  0  0  1  0  0  0  0  0  0
  1 18  2  0  0  0  0
  1  2  1  0  0  0  0
  2 13  1  0  0  0  0
  4  2  1  0  0  0  0
  4  7  1  0  0  0  0
  5  8  1  0  0  0  0
  6  3  2  0  0  0  0
  7  8  2  0  0  0  0
  7 14  1  0  0  0  0
  9 10  1  1  0  0  0
  9 18  1  0  0  0  0
 11  1  1  0  0  0  0
 12  5  2  0  0  0  0
 13  3  1  0  0  0  0
 13 14  2  0  0  0  0
 15  9  1  0  0  0  0
 16 12  1  0  0  0  0
 16  4  2  0  0  0  0
 17 15  2  0  0  0  0
 17 11  1  0  0  0  0
 18  6  1  0  0  0  0
 19 17  1  0  0  0  0
 20 21  2  0  0  0  0
 20 19  1  0  0  0  0
 22 20  1  0  0  0  0
 23 22  1  0  0  0  0
 24 23  2  0  0  0  0
 25 23  1  0  0  0  0
M  END
>  <MODEL>
3

>  <REMARK>
 VINA RESULT:      -8.6      3.231      5.220
  Name = 
  3 active torsions:
  status: ('A' for Active; 'I' for Inactive)
    1  A    between atoms: C_2  and  C_21
    2  A    between atoms: N_6  and  C_23
    3  A    between atoms: C_15  and  C_21
                            x       y       z     vdW  Elec       q    Type
                         _______ _______ _______ _____ _____    ______ ____

>  <TORSDO>
F 3

$$$$
=
 OpenBabel10262419483D

 25 28  0  0  1  0  0  0  0  0999 V2000
  187.8660  177.6120  143.3500 C   0  0  0  0  0  0  0  0  0  0  0  0
  188.2740  177.5770  144.7560 N   0  0  0  0  0  0  0  0  0  0  0  0
  186.0610  178.2030  145.5840 C   0  0  0  0  0  3  0  0  0  0  0  0
  189.4350  177.1760  145.2950 C   0  0  0  0  0  0  0  0  0  0  0  0
  191.6020  176.4060  146.8370 C   0  0  0  0  0  3  0  0  0  0  0  0
  185.6180  178.3440  144.3700 N   0  0  0  0  0  0  0  0  0  0  0  0
  189.3470  177.1980  146.6650 C   0  0  0  0  0  0  0  0  0  0  0  0
  190.4180  176.8190  147.4730 C   0  0  0  0  0  3  0  0  0  0  0  0
  185.9580  178.4020  141.9800 C   0  0  2  0  0  3  0  0  0  0  0  0
  184.2860  178.8910  141.7590 Cl  0  0  0  0  0  0  0  0  0  0  0  0
  188.9780  178.6740  142.3740 S   0  0  0  0  0  0  0  0  0  0  0  0
  191.6880  176.3750  145.4290 C   0  0  0  0  0  3  0  0  0  0  0  0
  187.4540  177.8190  145.7980 C   0  0  0  0  0  0  0  0  0  0  0  0
  188.0740  177.6070  147.0280 C   0  0  0  0  0  3  0  0  0  0  0  0
  186.8020  178.2650  140.7760 C   0  0  0  0  0  3  0  0  0  0  0  0
  190.5930  176.7610  144.6370 C   0  0  0  0  0  3  0  0  0  0  0  0
  188.1370  178.2680  140.8240 C   0  0  0  0  0  0  0  0  0  0  0  0
  186.4450  178.1390  143.2050 C   0  0  0  0  0  0  0  0  0  0  0  0
  188.8600  177.9940  139.6180 N   0  0  0  0  0  2  0  0  0  0  0  0
  189.9240  177.0510  139.4430 C   0  0  0  0  0  0  0  0  0  0  0  0
  190.2810  176.2830  140.3750 O   0  0  0  0  0  0  0  0  0  0  0  0
  190.6300  176.9850  138.1330 C   0  0  0  0  0  2  0  0  0  0  0  0
  191.7210  175.9720  138.1880 C   0  0  0  0  0  0  0  0  0  0  0  0
  191.4330  174.6290  137.9890 O   0  0  0  0  0  0  0  0  0  0  0  0
  192.9090  176.3370  138.3840 O   0  0  0  0  0  1  0  0  0  0  0  0
  1  2  1  0  0  0  0
  2  4  1  0  0  0  0
  2 13  1  0  0  0  0
  3 13  1  0  0  0  0
  4  7  1  0  0  0  0
  5  8  1  0  0  0  0
  6  3  2  0  0  0  0
  7 14  1  0  0  0  0
  7  8  2  0  0  0  0
  9 10  1  6  0  0  0
  9 18  1  0  0  0  0
 11  1  1  0  0  0  0
 12  5  2  0  0  0  0
 13 14  2  0  0  0  0
 15 17  2  0  0  0  0
 15  9  1  0  0  0  0
 16  4  2  0  0  0  0
 16 12  1  0  0  0  0
 17 11  1  0  0  0  0
 18  1  2  0  0  0  0
 18  6  1  0  0  0  0
 19 17  1  0  0  0  0
 20 19  1  0  0  0  0
 20 21  2  0  0  0  0
 22 23  1  0  0  0  0
 22 20  1  0  0  0  0
 23 25  1  0  0  0  0
 24 23  2  0  0  0  0
M  END
>  <MODEL>
4

>  <REMARK>
 VINA RESULT:      -8.6      2.626      4.711
  Name = 
  3 active torsions:
  status: ('A' for Active; 'I' for Inactive)
    1  A    between atoms: C_2  and  C_21
    2  A    between atoms: N_6  and  C_23
    3  A    between atoms: C_15  and  C_21
                            x       y       z     vdW  Elec       q    Type
                         _______ _______ _______ _____ _____    ______ ____

>  <TORSDO>
F 3

$$$$
=
 OpenBabel10262419483D

 25 28  0  0  1  0  0  0  0  0999 V2000
  185.2020  178.1850  142.6890 C   0  0  0  0  0  0  0  0  0  0  0  0
  185.4030  178.2960  144.1360 N   0  0  0  0  0  0  0  0  0  0  0  0
  183.0700  178.8760  144.5810 C   0  0  0  0  0  3  0  0  0  0  0  0
  186.4880  178.0050  144.8690 C   0  0  0  0  0  0  0  0  0  0  0  0
  188.4370  177.4880  146.7660 C   0  0  0  0  0  3  0  0  0  0  0  0
  182.8020  178.8860  143.3090 N   0  0  0  0  0  0  0  0  0  0  0  0
  186.2020  178.1440  146.2040 C   0  0  0  0  0  0  0  0  0  0  0  0
  187.1580  177.8930  147.1870 C   0  0  0  0  0  3  0  0  0  0  0  0
  183.4830  178.7500  140.9960 C   0  0  2  0  0  3  0  0  0  0  0  0
  181.8420  179.1300  140.4960 Cl  0  0  0  0  0  0  0  0  0  0  0  0
  186.4010  179.2130  141.7840 S   0  0  0  0  0  0  0  0  0  0  0  0
  188.7270  177.3380  145.3930 C   0  0  0  0  0  3  0  0  0  0  0  0
  184.4310  178.5860  145.0240 C   0  0  0  0  0  0  0  0  0  0  0  0
  184.8750  178.5160  146.3440 C   0  0  0  0  0  3  0  0  0  0  0  0
  184.4970  178.5520  139.9410 C   0  0  0  0  0  3  0  0  0  0  0  0
  187.7440  177.5940  144.4220 C   0  0  0  0  0  3  0  0  0  0  0  0
  185.8100  178.6290  140.1760 C   0  0  0  0  0  0  0  0  0  0  0  0
  183.7970  178.6230  142.2970 C   0  0  0  0  0  0  0  0  0  0  0  0
  186.7100  178.2870  139.1150 N   0  0  0  0  0  2  0  0  0  0  0  0
  188.0310  177.7470  139.2420 C   0  0  0  0  0  0  0  0  0  0  0  0
  188.5090  177.4370  140.3650 O   0  0  0  0  0  0  0  0  0  0  0  0
  188.8600  177.5580  138.0190 C   0  0  0  0  0  2  0  0  0  0  0  0
  188.5950  178.6540  137.0450 C   0  0  0  0  0  0  0  0  0  0  0  0
  187.8760  178.3940  135.8860 O   0  0  0  0  0  0  0  0  0  0  0  0
  188.9950  179.8220  137.2880 O   0  0  0  0  0  1  0  0  0  0  0  0
  1  2  1  0  0  0  0
  2  4  1  0  0  0  0
  2 13  1  0  0  0  0
  3 13  1  0  0  0  0
  4  7  1  0  0  0  0
  5  8  1  0  0  0  0
  6  3  2  0  0  0  0
  7 14  1  0  0  0  0
  7  8  2  0  0  0  0
  9 10  1  6  0  0  0
  9 18  1  0  0  0  0
 11  1  1  0  0  0  0
 12  5  2  0  0  0  0
 13 14  2  0  0  0  0
 15 17  2  0  0  0  0
 15  9  1  0  0  0  0
 16  4  2  0  0  0  0
 16 12  1  0  0  0  0
 17 11  1  0  0  0  0
 18  1  2  0  0  0  0
 18  6  1  0  0  0  0
 19 20  1  0  0  0  0
 19 17  1  0  0  0  0
 20 21  2  0  0  0  0
 22 20  1  0  0  0  0
 23 25  1  0  0  0  0
 23 22  1  0  0  0  0
 24 23  2  0  0  0  0
M  END
>  <MODEL>
5

>  <REMARK>
 VINA RESULT:      -8.6      3.167      4.984
  Name = 
  3 active torsions:
  status: ('A' for Active; 'I' for Inactive)
    1  A    between atoms: C_2  and  C_21
    2  A    between atoms: N_6  and  C_23
    3  A    between atoms: C_15  and  C_21
                            x       y       z     vdW  Elec       q    Type
                         _______ _______ _______ _____ _____    ______ ____

>  <TORSDO>
F 3

$$$$
=
 OpenBabel10262419483D

 25 28  0  0  1  0  0  0  0  0999 V2000
  187.4850  177.6040  144.2050 C   0  0  0  0  0  0  0  0  0  0  0  0
  188.2340  177.5310  145.4610 N   0  0  0  0  0  0  0  0  0  0  0  0
  186.3150  178.1700  146.8330 C   0  0  0  0  0  3  0  0  0  0  0  0
  189.4860  177.1020  145.6810 C   0  0  0  0  0  0  0  0  0  0  0  0
  191.9570  176.2660  146.6100 C   0  0  0  0  0  3  0  0  0  0  0  0
  185.5820  178.3450  145.7740 N   0  0  0  0  0  0  0  0  0  0  0  0
  189.7480  177.0940  147.0290 C   0  0  0  0  0  0  0  0  0  0  0  0
  190.9800  176.6810  147.5320 C   0  0  0  0  0  3  0  0  0  0  0  0
  185.3080  178.4520  143.3770 C   0  0  2  0  0  3  0  0  0  0  0  0
  183.6440  178.9700  143.5950 Cl  0  0  0  0  0  0  0  0  0  0  0  0
  188.3350  178.6720  142.9990 S   0  0  0  0  0  0  0  0  0  0  0  0
  191.6830  176.2660  145.2250 C   0  0  0  0  0  3  0  0  0  0  0  0
  187.7090  177.7620  146.6810 C   0  0  0  0  0  0  0  0  0  0  0  0
  188.6160  177.5130  147.7100 C   0  0  0  0  0  3  0  0  0  0  0  0
  185.8170  178.3300  141.9960 C   0  0  0  0  0  3  0  0  0  0  0  0
  190.4310  176.6850  144.7440 C   0  0  0  0  0  3  0  0  0  0  0  0
  187.1210  178.3130  141.7050 C   0  0  0  0  0  0  0  0  0  0  0  0
  186.0840  178.1550  144.4340 C   0  0  0  0  0  0  0  0  0  0  0  0
  187.5100  178.0560  140.3510 N   0  0  0  0  0  2  0  0  0  0  0  0
  188.7800  177.5750  139.8910 C   0  0  0  0  0  0  0  0  0  0  0  0
  189.6880  177.2450  140.6980 O   0  0  0  0  0  0  0  0  0  0  0  0
  189.0330  177.4730  138.4270 C   0  0  0  0  0  2  0  0  0  0  0  0
  188.4470  178.6470  137.7220 C   0  0  0  0  0  0  0  0  0  0  0  0
  187.2150  178.5360  137.0910 O   0  0  0  0  0  0  0  0  0  0  0  0
  189.0530  179.7500  137.7260 O   0  0  0  0  0  1  0  0  0  0  0  0
  1 18  2  0  0  0  0
  1  2  1  0  0  0  0
  2  4  1  0  0  0  0
  2 13  1  0  0  0  0
  4  7  1  0  0  0  0
  5  8  1  0  0  0  0
  6  3  2  0  0  0  0
  7  8  2  0  0  0  0
  7 14  1  0  0  0  0
  9 10  1  6  0  0  0
  9 18  1  0  0  0  0
 11  1  1  0  0  0  0
 12  5  2  0  0  0  0
 13  3  1  0  0  0  0
 13 14  2  0  0  0  0
 15  9  1  0  0  0  0
 16 12  1  0  0  0  0
 16  4  2  0  0  0  0
 17 15  2  0  0  0  0
 17 11  1  0  0  0  0
 18  6  1  0  0  0  0
 19 17  1  0  0  0  0
 20 19  1  0  0  0  0
 20 21  2  0  0  0  0
 22 20  1  0  0  0  0
 23 25  1  0  0  0  0
 23 22  1  0  0  0  0
 24 23  2  0  0  0  0
M  END
>  <MODEL>
6

>  <REMARK>
 VINA RESULT:      -8.3      2.387      4.674
  Name = 
  3 active torsions:
  status: ('A' for Active; 'I' for Inactive)
    1  A    between atoms: C_2  and  C_21
    2  A    between atoms: N_6  and  C_23
    3  A    between atoms: C_15  and  C_21
                            x       y       z     vdW  Elec       q    Type
                         _______ _______ _______ _____ _____    ______ ____

>  <TORSDO>
F 3

$$$$
=
 OpenBabel10262419483D

 25 28  0  0  1  0  0  0  0  0999 V2000
  186.4160  177.6560  143.8240 C   0  0  0  0  0  0  0  0  0  0  0  0
  187.6640  177.5860  144.5870 N   0  0  0  0  0  0  0  0  0  0  0  0
  186.6360  178.3840  146.6570 C   0  0  0  0  0  3  0  0  0  0  0  0
  188.8570  177.0930  144.2230 C   0  0  0  0  0  0  0  0  0  0  0  0
  191.4450  176.1500  143.9380 C   0  0  0  0  0  3  0  0  0  0  0  0
  185.4980  178.5630  146.0540 N   0  0  0  0  0  0  0  0  0  0  0  0
  189.7200  177.1190  145.2910 C   0  0  0  0  0  0  0  0  0  0  0  0
  191.0300  176.6540  145.1840 C   0  0  0  0  0  3  0  0  0  0  0  0
  184.1360  178.5980  144.0600 C   0  0  2  0  0  3  0  0  0  0  0  0
  182.7870  179.2190  144.9990 Cl  0  0  0  0  0  0  0  0  0  0  0  0
  186.6360  178.6280  142.3000 S   0  0  0  0  0  0  0  0  0  0  0  0
  190.5540  176.1160  142.8440 C   0  0  0  0  0  3  0  0  0  0  0  0
  187.7810  177.8900  145.8950 C   0  0  0  0  0  0  0  0  0  0  0  0
  189.0560  177.6270  146.3950 C   0  0  0  0  0  3  0  0  0  0  0  0
  183.9330  178.3970  142.6120 C   0  0  0  0  0  3  0  0  0  0  0  0
  189.2370  176.5880  142.9790 C   0  0  0  0  0  3  0  0  0  0  0  0
  184.9460  178.2940  141.7470 C   0  0  0  0  0  0  0  0  0  0  0  0
  185.3060  178.2950  144.6480 C   0  0  0  0  0  0  0  0  0  0  0  0
  184.6450  177.9650  140.3850 N   0  0  0  0  0  2  0  0  0  0  0  0
  184.4210  178.8780  139.3040 C   0  0  0  0  0  0  0  0  0  0  0  0
  184.5550  180.1200  139.4550 O   0  0  0  0  0  0  0  0  0  0  0  0
  184.0090  178.3450  137.9750 C   0  0  0  0  0  2  0  0  0  0  0  0
  185.1380  177.6020  137.3490 C   0  0  0  0  0  0  0  0  0  0  0  0
  184.8990  176.4080  136.6810 O   0  0  0  0  0  0  0  0  0  0  0  0
  186.3050  178.0710  137.3970 O   0  0  0  0  0  1  0  0  0  0  0  0
  1  2  1  0  0  0  0
  1 18  2  0  0  0  0
  2 13  1  0  0  0  0
  4  2  1  0  0  0  0
  4  7  1  0  0  0  0
  5  8  1  0  0  0  0
  6  3  2  0  0  0  0
  7 14  1  0  0  0  0
  8  7  2  0  0  0  0
  9 18  1  0  0  0  0
  9 10  1  1  0  0  0
 11  1  1  0  0  0  0
 12 16  1  0  0  0  0
 12  5  2  0  0  0  0
 13 14  2  0  0  0  0
 13  3  1  0  0  0  0
 15  9  1  0  0  0  0
 16  4  2  0  0  0  0
 17 11  1  0  0  0  0
 17 15  2  0  0  0  0
 18  6  1  0  0  0  0
 19 17  1  0  0  0  0
 20 21  2  0  0  0  0
 20 19  1  0  0  0  0
 22 20  1  0  0  0  0
 23 25  1  0  0  0  0
 23 22  1  0  0  0  0
 24 23  2  0  0  0  0
M  END
>  <MODEL>
7

>  <REMARK>
 VINA RESULT:      -8.3      3.117      5.334
  Name = 
  3 active torsions:
  status: ('A' for Active; 'I' for Inactive)
    1  A    between atoms: C_2  and  C_21
    2  A    between atoms: N_6  and  C_23
    3  A    between atoms: C_15  and  C_21
                            x       y       z     vdW  Elec       q    Type
                         _______ _______ _______ _____ _____    ______ ____

>  <TORSDO>
F 3

$$$$
=
 OpenBabel10262419483D

 25 28  0  0  1  0  0  0  0  0999 V2000
  187.0160  178.1650  144.7690 C   0  0  0  0  0  0  0  0  0  0  0  0
  185.5690  178.3170  144.6100 N   0  0  0  0  0  0  0  0  0  0  0  0
  185.1610  178.5210  147.0120 C   0  0  0  0  0  3  0  0  0  0  0  0
  184.8440  178.4430  143.4880 C   0  0  0  0  0  0  0  0  0  0  0  0
  182.9750  178.7910  141.4750 C   0  0  0  0  0  3  0  0  0  0  0  0
  186.4180  178.3120  147.2700 N   0  0  0  0  0  0  0  0  0  0  0  0
  183.5290  178.6810  143.8040 C   0  0  0  0  0  0  0  0  0  0  0  0
  182.5620  178.8600  142.8170 C   0  0  0  0  0  3  0  0  0  0  0  0
  188.6620  177.7510  146.5750 C   0  0  2  0  0  3  0  0  0  0  0  0
  189.1750  177.7460  148.2550 Cl  0  0  0  0  0  0  0  0  0  0  0  0
  187.6140  176.6730  143.9130 S   0  0  0  0  0  0  0  0  0  0  0  0
  184.3290  178.5550  141.1520 C   0  0  0  0  0  3  0  0  0  0  0  0
  184.7020  178.5080  145.6250 C   0  0  0  0  0  0  0  0  0  0  0  0
  183.4000  178.7340  145.1820 C   0  0  0  0  0  3  0  0  0  0  0  0
  189.6690  177.4270  145.5460 C   0  0  0  0  0  3  0  0  0  0  0  0
  185.2860  178.3800  142.1660 C   0  0  0  0  0  3  0  0  0  0  0  0
  189.3410  177.0380  144.3100 C   0  0  0  0  0  0  0  0  0  0  0  0
  187.3980  178.0630  146.2390 C   0  0  0  0  0  0  0  0  0  0  0  0
  190.3910  176.8780  143.3480 N   0  0  0  0  0  2  0  0  0  0  0  0
  190.5280  177.5610  142.0960 C   0  0  0  0  0  0  0  0  0  0  0  0
  189.7290  178.4710  141.7530 O   0  0  0  0  0  0  0  0  0  0  0  0
  191.6350  177.1790  141.1760 C   0  0  0  0  0  2  0  0  0  0  0  0
  191.0830  176.7240  139.8700 C   0  0  0  0  0  0  0  0  0  0  0  0
  191.7700  176.9910  138.6930 O   0  0  0  0  0  0  0  0  0  0  0  0
  190.0100  176.0680  139.8340 O   0  0  0  0  0  1  0  0  0  0  0  0
  1 18  2  0  0  0  0
  2  1  1  0  0  0  0
  2 13  1  0  0  0  0
  3  6  2  0  0  0  0
  4  7  1  0  0  0  0
  4  2  1  0  0  0  0
  5  8  1  0  0  0  0
  7 14  1  0  0  0  0
  8  7  2  0  0  0  0
  9 10  1  6  0  0  0
 11 17  1  0  0  0  0
 11  1  1  0  0  0  0
 12  5  2  0  0  0  0
 12 16  1  0  0  0  0
 13  3  1  0  0  0  0
 14 13  2  0  0  0  0
 15  9  1  0  0  0  0
 16  4  2  0  0  0  0
 17 15  2  0  0  0  0
 18  9  1  0  0  0  0
 18  6  1  0  0  0  0
 19 17  1  0  0  0  0
 20 19  1  0  0  0  0
 21 20  2  0  0  0  0
 22 20  1  0  0  0  0
 23 22  1  0  0  0  0
 24 23  2  0  0  0  0
 25 23  1  0  0  0  0
M  END
>  <MODEL>
8

>  <REMARK>
 VINA RESULT:      -8.3      1.613      2.187
  Name = 
  3 active torsions:
  status: ('A' for Active; 'I' for Inactive)
    1  A    between atoms: C_2  and  C_21
    2  A    between atoms: N_6  and  C_23
    3  A    between atoms: C_15  and  C_21
                            x       y       z     vdW  Elec       q    Type
                         _______ _______ _______ _____ _____    ______ ____

>  <TORSDO>
F 3

$$$$
=
 OpenBabel10262419483D

 25 28  0  0  1  0  0  0  0  0999 V2000
  187.5330  178.1020  142.3660 C   0  0  0  0  0  0  0  0  0  0  0  0
  187.8320  177.9580  140.9400 N   0  0  0  0  0  0  0  0  0  0  0  0
  185.6160  178.7110  140.2330 C   0  0  0  0  0  3  0  0  0  0  0  0
  188.9940  177.6600  140.3390 C   0  0  0  0  0  0  0  0  0  0  0  0
  191.1530  177.1450  138.6840 C   0  0  0  0  0  3  0  0  0  0  0  0
  185.2210  178.7950  141.4680 N   0  0  0  0  0  0  0  0  0  0  0  0
  188.8510  177.7450  138.9760 C   0  0  0  0  0  0  0  0  0  0  0  0
  189.9160  177.4920  138.1130 C   0  0  0  0  0  3  0  0  0  0  0  0
  185.5700  178.4630  143.8350 C   0  0  2  0  0  3  0  0  0  0  0  0
  183.9220  178.9860  144.1460 Cl  0  0  0  0  0  0  0  0  0  0  0  0
  187.8980  176.5620  143.2680 S   0  0  0  0  0  0  0  0  0  0  0  0
  191.3000  177.0670  140.0860 C   0  0  0  0  0  3  0  0  0  0  0  0
  186.9740  178.2570  139.9430 C   0  0  0  0  0  0  0  0  0  0  0  0
  187.5540  178.1340  138.6820 C   0  0  0  0  0  3  0  0  0  0  0  0
  186.3940  178.0570  144.9900 C   0  0  0  0  0  3  0  0  0  0  0  0
  190.2110  177.3300  140.9350 C   0  0  0  0  0  3  0  0  0  0  0  0
  187.4940  177.3080  144.8670 C   0  0  0  0  0  0  0  0  0  0  0  0
  186.0690  178.4550  142.5860 C   0  0  0  0  0  0  0  0  0  0  0  0
  188.2960  177.0840  146.0320 N   0  0  0  0  0  2  0  0  0  0  0  0
  189.6440  177.5190  146.2530 C   0  0  0  0  0  0  0  0  0  0  0  0
  190.2430  178.2480  145.4190 O   0  0  0  0  0  0  0  0  0  0  0  0
  190.3530  177.0920  147.4910 C   0  0  0  0  0  2  0  0  0  0  0  0
  191.6360  176.4210  147.1410 C   0  0  0  0  0  0  0  0  0  0  0  0
  191.8240  175.9010  145.8680 O   0  0  0  0  0  0  0  0  0  0  0  0
  192.5620  176.3530  147.9900 O   0  0  0  0  0  1  0  0  0  0  0  0
  1 18  2  0  0  0  0
  1 11  1  0  0  0  0
  2  1  1  0  0  0  0
  3  6  2  0  0  0  0
  4 16  1  0  0  0  0
  4  2  1  0  0  0  0
  5 12  1  0  0  0  0
  6 18  1  0  0  0  0
  7  4  2  0  0  0  0
  8  5  2  0  0  0  0
  8  7  1  0  0  0  0
  9 10  1  1  0  0  0
  9 15  1  0  0  0  0
 11 17  1  0  0  0  0
 12 16  2  0  0  0  0
 13  3  1  0  0  0  0
 13  2  1  0  0  0  0
 14  7  1  0  0  0  0
 14 13  2  0  0  0  0
 17 15  2  0  0  0  0
 17 19  1  0  0  0  0
 18  9  1  0  0  0  0
 19 20  1  0  0  0  0
 20 22  1  0  0  0  0
 21 20  2  0  0  0  0
 23 22  1  0  0  0  0
 23 25  1  0  0  0  0
 24 23  2  0  0  0  0
M  END
>  <MODEL>
9

>  <REMARK>
 VINA RESULT:      -8.2      3.408      6.916
  Name = 
  3 active torsions:
  status: ('A' for Active; 'I' for Inactive)
    1  A    between atoms: C_2  and  C_21
    2  A    between atoms: N_6  and  C_23
    3  A    between atoms: C_15  and  C_21
                            x       y       z     vdW  Elec       q    Type
                         _______ _______ _______ _____ _____    ______ ____

>  <TORSDO>
F 3

$$$$
