=
 OpenBabel10262419513D

 25 28  0  0  1  0  0  0  0  0999 V2000
  187.4910  177.8190  145.7810 C   0  0  0  0  0  0  0  0  0  0  0  0
  186.5320  177.8860  144.7550 C   0  0  0  0  0  0  0  0  0  0  0  0
  185.8570  178.6440  147.3730 C   0  0  0  0  0  3  0  0  0  0  0  0
  188.8310  177.3970  145.7070 C   0  0  0  0  0  0  0  0  0  0  0  0
  186.4600  178.3500  141.0350 N   0  0  0  0  0  2  0  0  0  0  0  0
  191.5110  176.6420  145.9520 C   0  0  0  0  0  3  0  0  0  0  0  0
  184.9360  178.6990  146.3710 N   0  0  0  0  0  0  0  0  0  0  0  0
  189.4850  177.4650  146.9360 C   0  0  0  0  0  0  0  0  0  0  0  0
  190.8190  177.0950  147.0850 C   0  0  0  0  0  3  0  0  0  0  0  0
  184.1800  178.3730  144.0080 C   0  0  1  0  0  3  0  0  0  0  0  0
  183.1380  179.4500  144.2600 C   0  0  0  0  0  1  0  0  0  0  0  0
  186.8150  177.4210  143.3520 C   0  0  0  0  0  2  0  0  0  0  0  0
  190.8650  176.5690  144.7050 C   0  0  0  0  0  3  0  0  0  0  0  0
  187.1400  178.2050  147.0720 C   0  0  0  0  0  0  0  0  0  0  0  0
  188.4420  178.0390  148.1290 S   0  0  0  0  0  0  0  0  0  0  0  0
  184.7740  178.5810  142.6860 N   0  0  0  0  0  0  0  0  0  0  0  0
  189.5190  176.9460  144.5750 C   0  0  0  0  0  3  0  0  0  0  0  0
  185.9580  178.1470  142.3560 C   0  0  0  0  0  0  0  0  0  0  0  0
  185.2390  178.3520  145.0820 C   0  0  0  0  0  0  0  0  0  0  0  0
  185.6960  179.0430  140.0090 C   0  0  0  0  0  2  0  0  0  0  0  0
  185.9050  178.3560  138.6770 C   0  0  0  0  0  2  0  0  0  0  0  0
  187.3510  177.9150  138.5580 C   0  0  0  0  0  2  0  0  0  0  0  0
  188.1280  178.9460  137.8920 N   0  0  0  0  0  0  0  0  0  0  0  0
  189.2960  178.2900  137.3330 C   0  0  0  0  0  1  0  0  0  0  0  0
  187.3900  179.3810  136.8440 O   0  0  0  0  0  1  0  0  0  0  0  0
  1 14  2  0  0  0  0
  2 19  2  0  0  0  0
  2  1  1  0  0  0  0
  4  1  1  0  0  0  0
  4  8  1  0  0  0  0
  5 18  1  0  0  0  0
  6  9  1  0  0  0  0
  7  3  2  0  0  0  0
  8  9  2  0  0  0  0
  8 15  1  0  0  0  0
 10 11  1  1  0  0  0
 10 19  1  0  0  0  0
 12  2  1  0  0  0  0
 13  6  2  0  0  0  0
 14  3  1  0  0  0  0
 14 15  1  0  0  0  0
 16 10  1  0  0  0  0
 17 13  1  0  0  0  0
 17  4  2  0  0  0  0
 18 16  2  0  0  0  0
 18 12  1  0  0  0  0
 19  7  1  0  0  0  0
 20  5  1  0  0  0  0
 21 20  1  0  0  0  0
 22 21  1  0  0  0  0
 23 22  1  0  0  0  0
 24 23  1  0  0  0  0
 25 23  1  0  0  0  0
M  END
>  <MODEL>
1

>  <REMARK>
 VINA RESULT:      -9.0      0.000      0.000
  Name = 
  4 active torsions:
  status: ('A' for Active; 'I' for Inactive)
    1  A    between atoms: N_2  and  C_25
    2  A    between atoms: N_6  and  C_15
    3  A    between atoms: C_15  and  C_21
    4  A    between atoms: C_21  and  C_25
                            x       y       z     vdW  Elec       q    Type
                         _______ _______ _______ _____ _____    ______ ____

>  <TORSDO>
F 4

$$$$
=
 OpenBabel10262419513D

 25 28  0  0  1  0  0  0  0  0999 V2000
  188.1580  177.5660  145.8390 C   0  0  0  0  0  0  0  0  0  0  0  0
  187.4690  177.5850  144.6130 C   0  0  0  0  0  0  0  0  0  0  0  0
  186.2070  178.4730  146.9590 C   0  0  0  0  0  3  0  0  0  0  0  0
  189.4720  177.1380  146.1030 C   0  0  0  0  0  0  0  0  0  0  0  0
  188.2820  177.8630  140.9650 N   0  0  0  0  0  2  0  0  0  0  0  0
  192.0080  176.3900  147.0100 C   0  0  0  0  0  3  0  0  0  0  0  0
  185.5490  178.4810  145.7670 N   0  0  0  0  0  0  0  0  0  0  0  0
  189.8190  177.2650  147.4470 C   0  0  0  0  0  0  0  0  0  0  0  0
  191.0750  176.9000  147.9250 C   0  0  0  0  0  3  0  0  0  0  0  0
  185.3660  178.0400  143.3100 C   0  0  1  0  0  3  0  0  0  0  0  0
  184.3100  179.1300  143.2580 C   0  0  0  0  0  1  0  0  0  0  0  0
  188.0680  177.0490  143.3420 C   0  0  0  0  0  2  0  0  0  0  0  0
  191.6730  176.2560  145.6510 C   0  0  0  0  0  3  0  0  0  0  0  0
  187.5190  178.0170  146.9900 C   0  0  0  0  0  0  0  0  0  0  0  0
  188.5320  177.9000  148.3320 S   0  0  0  0  0  0  0  0  0  0  0  0
  186.2580  178.1800  142.1570 N   0  0  0  0  0  0  0  0  0  0  0  0
  190.4010  176.6300  145.1890 C   0  0  0  0  0  3  0  0  0  0  0  0
  187.4800  177.7280  142.1370 C   0  0  0  0  0  0  0  0  0  0  0  0
  186.1420  178.0690  144.6040 C   0  0  0  0  0  0  0  0  0  0  0  0
  187.7910  178.5060  139.7550 C   0  0  0  0  0  2  0  0  0  0  0  0
  188.7960  178.3140  138.6400 C   0  0  0  0  0  2  0  0  0  0  0  0
  189.8780  177.3540  139.0970 C   0  0  0  0  0  2  0  0  0  0  0  0
  189.9080  176.1940  138.2230 N   0  0  0  0  0  0  0  0  0  0  0  0
  190.2530  176.6800  136.8990 C   0  0  0  0  0  1  0  0  0  0  0  0
  190.9420  175.4200  138.6310 O   0  0  0  0  0  1  0  0  0  0  0  0
  1  4  1  0  0  0  0
  1 14  2  0  0  0  0
  2  1  1  0  0  0  0
  3 14  1  0  0  0  0
  4  8  1  0  0  0  0
  5 18  1  0  0  0  0
  6  9  1  0  0  0  0
  7  3  2  0  0  0  0
  8  9  2  0  0  0  0
  8 15  1  0  0  0  0
 10 11  1  1  0  0  0
 10 19  1  0  0  0  0
 12  2  1  0  0  0  0
 13  6  2  0  0  0  0
 14 15  1  0  0  0  0
 16 10  1  0  0  0  0
 17 13  1  0  0  0  0
 17  4  2  0  0  0  0
 18 16  2  0  0  0  0
 18 12  1  0  0  0  0
 19  2  2  0  0  0  0
 19  7  1  0  0  0  0
 20  5  1  0  0  0  0
 21 22  1  0  0  0  0
 21 20  1  0  0  0  0
 23 25  1  0  0  0  0
 23 22  1  0  0  0  0
 24 23  1  0  0  0  0
M  END
>  <MODEL>
2

>  <REMARK>
 VINA RESULT:      -8.8      1.709      1.911
  Name = 
  4 active torsions:
  status: ('A' for Active; 'I' for Inactive)
    1  A    between atoms: N_2  and  C_25
    2  A    between atoms: N_6  and  C_15
    3  A    between atoms: C_15  and  C_21
    4  A    between atoms: C_21  and  C_25
                            x       y       z     vdW  Elec       q    Type
                         _______ _______ _______ _____ _____    ______ ____

>  <TORSDO>
F 4

$$$$
=
 OpenBabel10262419513D

 25 28  0  0  1  0  0  0  0  0999 V2000
  186.3080  178.1640  144.3870 C   0  0  0  0  0  0  0  0  0  0  0  0
  186.3570  178.0930  142.9840 C   0  0  0  0  0  0  0  0  0  0  0  0
  184.0350  179.0050  144.2740 C   0  0  0  0  0  3  0  0  0  0  0  0
  187.3040  177.8210  145.3210 C   0  0  0  0  0  0  0  0  0  0  0  0
  188.9410  178.2660  140.2740 N   0  0  0  0  0  2  0  0  0  0  0  0
  189.0170  177.2560  147.4550 C   0  0  0  0  0  3  0  0  0  0  0  0
  184.0940  178.9260  142.9160 N   0  0  0  0  0  0  0  0  0  0  0  0
  186.8980  178.0240  146.6390 C   0  0  0  0  0  0  0  0  0  0  0  0
  187.7310  177.7500  147.7190 C   0  0  0  0  0  3  0  0  0  0  0  0
  185.2280  178.3740  140.7540 C   0  0  1  0  0  3  0  0  0  0  0  0
  184.3240  179.4000  140.0920 C   0  0  0  0  0  1  0  0  0  0  0  0
  187.5440  177.5400  142.2430 C   0  0  0  0  0  2  0  0  0  0  0  0
  189.4420  177.0480  146.1310 C   0  0  0  0  0  3  0  0  0  0  0  0
  185.1510  178.6250  145.0090 C   0  0  0  0  0  0  0  0  0  0  0  0
  185.3220  178.6210  146.6860 S   0  0  0  0  0  0  0  0  0  0  0  0
  186.5850  178.5170  140.2230 N   0  0  0  0  0  0  0  0  0  0  0  0
  188.5860  177.3300  145.0540 C   0  0  0  0  0  3  0  0  0  0  0  0
  187.6510  178.1340  140.8670 C   0  0  0  0  0  0  0  0  0  0  0  0
  185.2160  178.5010  142.2580 C   0  0  0  0  0  0  0  0  0  0  0  0
  189.1350  178.8300  138.9470 C   0  0  0  0  0  2  0  0  0  0  0  0
  189.3380  177.7100  137.9490 C   0  0  0  0  0  2  0  0  0  0  0  0
  190.5900  176.9350  138.3100 C   0  0  0  0  0  2  0  0  0  0  0  0
  190.2910  175.5150  138.3670 N   0  0  0  0  0  0  0  0  0  0  0  0
  189.5140  175.2050  137.1810 C   0  0  0  0  0  1  0  0  0  0  0  0
  191.4680  174.8580  138.2400 O   0  0  0  0  0  1  0  0  0  0  0  0
  1 14  2  0  0  0  0
  1  4  1  0  0  0  0
  2  1  1  0  0  0  0
  3 14  1  0  0  0  0
  4  8  1  0  0  0  0
  5 18  1  0  0  0  0
  6  9  1  0  0  0  0
  7  3  2  0  0  0  0
  8 15  1  0  0  0  0
  8  9  2  0  0  0  0
 10 11  1  6  0  0  0
 10 19  1  0  0  0  0
 12  2  1  0  0  0  0
 13  6  2  0  0  0  0
 14 15  1  0  0  0  0
 16 10  1  0  0  0  0
 16 18  2  0  0  0  0
 17  4  2  0  0  0  0
 17 13  1  0  0  0  0
 18 12  1  0  0  0  0
 19  7  1  0  0  0  0
 19  2  2  0  0  0  0
 20  5  1  0  0  0  0
 21 22  1  0  0  0  0
 21 20  1  0  0  0  0
 22 23  1  0  0  0  0
 24 23  1  0  0  0  0
 25 23  1  0  0  0  0
M  END
>  <MODEL>
3

>  <REMARK>
 VINA RESULT:      -8.7      2.088      3.171
  Name = 
  4 active torsions:
  status: ('A' for Active; 'I' for Inactive)
    1  A    between atoms: N_2  and  C_25
    2  A    between atoms: N_6  and  C_15
    3  A    between atoms: C_15  and  C_21
    4  A    between atoms: C_21  and  C_25
                            x       y       z     vdW  Elec       q    Type
                         _______ _______ _______ _____ _____    ______ ____

>  <TORSDO>
F 4

$$$$
=
 OpenBabel10262419513D

 25 28  0  0  1  0  0  0  0  0999 V2000
  187.2640  177.8490  145.6470 C   0  0  0  0  0  0  0  0  0  0  0  0
  186.2750  177.9550  144.6530 C   0  0  0  0  0  0  0  0  0  0  0  0
  185.6590  178.5360  147.3300 C   0  0  0  0  0  3  0  0  0  0  0  0
  188.6110  177.4640  145.5090 C   0  0  0  0  0  0  0  0  0  0  0  0
  186.0850  178.6420  140.9720 N   0  0  0  0  0  2  0  0  0  0  0  0
  191.3120  176.7610  145.6340 C   0  0  0  0  0  3  0  0  0  0  0  0
  184.7080  178.6300  146.3590 N   0  0  0  0  0  0  0  0  0  0  0  0
  189.2980  177.4730  146.7220 C   0  0  0  0  0  0  0  0  0  0  0  0
  190.6440  177.1270  146.8110 C   0  0  0  0  0  3  0  0  0  0  0  0
  183.8920  178.4310  144.0020 C   0  0  1  0  0  3  0  0  0  0  0  0
  182.8340  179.4650  144.3490 C   0  0  0  0  0  1  0  0  0  0  0  0
  186.5270  177.5830  143.2170 C   0  0  0  0  0  2  0  0  0  0  0  0
  190.6320  176.7470  144.4030 C   0  0  0  0  0  3  0  0  0  0  0  0
  186.9420  178.1480  146.9670 C   0  0  0  0  0  0  0  0  0  0  0  0
  188.2780  177.9480  147.9760 S   0  0  0  0  0  0  0  0  0  0  0  0
  184.4430  178.7320  142.6790 N   0  0  0  0  0  0  0  0  0  0  0  0
  189.2750  177.1000  144.3340 C   0  0  0  0  0  3  0  0  0  0  0  0
  185.6250  178.3480  142.2910 C   0  0  0  0  0  0  0  0  0  0  0  0
  184.9820  178.3690  145.0440 C   0  0  0  0  0  0  0  0  0  0  0  0
  185.2770  179.3780  140.0120 C   0  0  0  0  0  2  0  0  0  0  0  0
  184.9000  178.4630  138.8660 C   0  0  0  0  0  2  0  0  0  0  0  0
  183.3970  178.2650  138.8530 C   0  0  0  0  0  2  0  0  0  0  0  0
  182.7440  179.4070  139.4700 N   0  0  0  0  0  0  0  0  0  0  0  0
  181.9600  180.0490  138.4310 C   0  0  0  0  0  1  0  0  0  0  0  0
  181.8600  178.9160  140.3720 O   0  0  0  0  0  1  0  0  0  0  0  0
  1 14  2  0  0  0  0
  2 19  2  0  0  0  0
  2  1  1  0  0  0  0
  4  1  1  0  0  0  0
  4  8  1  0  0  0  0
  5 18  1  0  0  0  0
  6  9  1  0  0  0  0
  7  3  2  0  0  0  0
  8  9  2  0  0  0  0
  8 15  1  0  0  0  0
 10 11  1  1  0  0  0
 10 19  1  0  0  0  0
 12  2  1  0  0  0  0
 13  6  2  0  0  0  0
 14  3  1  0  0  0  0
 14 15  1  0  0  0  0
 16 10  1  0  0  0  0
 17 13  1  0  0  0  0
 17  4  2  0  0  0  0
 18 16  2  0  0  0  0
 18 12  1  0  0  0  0
 19  7  1  0  0  0  0
 20  5  1  0  0  0  0
 21 20  1  0  0  0  0
 22 21  1  0  0  0  0
 22 23  1  0  0  0  0
 23 25  1  0  0  0  0
 24 23  1  0  0  0  0
M  END
>  <MODEL>
4

>  <REMARK>
 VINA RESULT:      -8.4      1.881      2.468
  Name = 
  4 active torsions:
  status: ('A' for Active; 'I' for Inactive)
    1  A    between atoms: N_2  and  C_25
    2  A    between atoms: N_6  and  C_15
    3  A    between atoms: C_15  and  C_21
    4  A    between atoms: C_21  and  C_25
                            x       y       z     vdW  Elec       q    Type
                         _______ _______ _______ _____ _____    ______ ____

>  <TORSDO>
F 4

$$$$
=
 OpenBabel10262419513D

 25 28  0  0  1  0  0  0  0  0999 V2000
  187.2540  177.9860  144.4150 C   0  0  0  0  0  0  0  0  0  0  0  0
  188.2950  177.9000  143.4730 C   0  0  0  0  0  0  0  0  0  0  0  0
  188.7620  177.2430  146.1630 C   0  0  0  0  0  3  0  0  0  0  0  0
  185.9190  178.3830  144.2150 C   0  0  0  0  0  0  0  0  0  0  0  0
  188.6810  177.3120  139.7910 N   0  0  0  0  0  2  0  0  0  0  0  0
  183.2180  179.1000  144.2130 C   0  0  0  0  0  3  0  0  0  0  0  0
  189.7630  177.1690  145.2430 N   0  0  0  0  0  0  0  0  0  0  0  0
  185.1660  178.3450  145.3880 C   0  0  0  0  0  0  0  0  0  0  0  0
  183.8200  178.6970  145.4140 C   0  0  0  0  0  3  0  0  0  0  0  0
  190.7080  177.4270  142.9390 C   0  0  1  0  0  3  0  0  0  0  0  0
  191.7390  176.3780  143.3140 C   0  0  0  0  0  1  0  0  0  0  0  0
  188.1220  178.3130  142.0370 C   0  0  0  0  0  2  0  0  0  0  0  0
  183.9630  179.1420  143.0210 C   0  0  0  0  0  3  0  0  0  0  0  0
  187.5020  177.6490  145.7420 C   0  0  0  0  0  0  0  0  0  0  0  0
  186.1150  177.8300  146.6820 S   0  0  0  0  0  0  0  0  0  0  0  0
  190.2280  177.1650  141.5810 N   0  0  0  0  0  0  0  0  0  0  0  0
  185.3210  178.7830  143.0160 C   0  0  0  0  0  3  0  0  0  0  0  0
  189.0690  177.5670  141.1400 C   0  0  0  0  0  0  0  0  0  0  0  0
  189.5630  177.4670  143.9220 C   0  0  0  0  0  0  0  0  0  0  0  0
  189.5360  176.5970  138.8560 C   0  0  0  0  0  2  0  0  0  0  0  0
  189.4920  177.2840  137.5080 C   0  0  0  0  0  2  0  0  0  0  0  0
  189.0590  178.7260  137.6910 C   0  0  0  0  0  2  0  0  0  0  0  0
  187.9470  179.0230  136.8040 N   0  0  0  0  0  0  0  0  0  0  0  0
  187.8610  177.9220  135.8630 C   0  0  0  0  0  1  0  0  0  0  0  0
  186.8210  178.9780  137.5550 O   0  0  0  0  0  1  0  0  0  0  0  0
  1 14  2  0  0  0  0
  2 19  2  0  0  0  0
  2  1  1  0  0  0  0
  4  1  1  0  0  0  0
  4  8  1  0  0  0  0
  5 18  1  0  0  0  0
  6  9  1  0  0  0  0
  7  3  2  0  0  0  0
  8  9  2  0  0  0  0
  8 15  1  0  0  0  0
 10 11  1  1  0  0  0
 10 19  1  0  0  0  0
 12  2  1  0  0  0  0
 13  6  2  0  0  0  0
 14  3  1  0  0  0  0
 14 15  1  0  0  0  0
 16 10  1  0  0  0  0
 17 13  1  0  0  0  0
 17  4  2  0  0  0  0
 18 16  2  0  0  0  0
 18 12  1  0  0  0  0
 19  7  1  0  0  0  0
 20  5  1  0  0  0  0
 21 22  1  0  0  0  0
 21 20  1  0  0  0  0
 23 25  1  0  0  0  0
 23 22  1  0  0  0  0
 24 23  1  0  0  0  0
M  END
>  <MODEL>
5

>  <REMARK>
 VINA RESULT:      -8.4      2.223      4.715
  Name = 
  4 active torsions:
  status: ('A' for Active; 'I' for Inactive)
    1  A    between atoms: N_2  and  C_25
    2  A    between atoms: N_6  and  C_15
    3  A    between atoms: C_15  and  C_21
    4  A    between atoms: C_21  and  C_25
                            x       y       z     vdW  Elec       q    Type
                         _______ _______ _______ _____ _____    ______ ____

>  <TORSDO>
F 4

$$$$
=
 OpenBabel10262419513D

 25 28  0  0  1  0  0  0  0  0999 V2000
  189.1530  177.5380  143.5250 C   0  0  0  0  0  0  0  0  0  0  0  0
  187.8850  177.5930  144.1310 C   0  0  0  0  0  0  0  0  0  0  0  0
  190.2060  177.5100  145.7100 C   0  0  0  0  0  3  0  0  0  0  0  0
  189.4720  177.5090  142.1550 C   0  0  0  0  0  0  0  0  0  0  0  0
  184.4610  178.8850  143.3180 N   0  0  0  0  0  2  0  0  0  0  0  0
  190.4900  177.4440  139.5530 C   0  0  0  0  0  3  0  0  0  0  0  0
  188.9730  177.5570  146.2850 N   0  0  0  0  0  0  0  0  0  0  0  0
  190.8460  177.4540  141.9240 C   0  0  0  0  0  0  0  0  0  0  0  0
  191.3780  177.4200  140.6380 C   0  0  0  0  0  3  0  0  0  0  0  0
  186.4710  177.6120  146.2120 C   0  0  1  0  0  3  0  0  0  0  0  0
  186.5110  178.2890  147.5710 C   0  0  0  0  0  1  0  0  0  0  0  0
  186.6080  177.5610  143.3370 C   0  0  0  0  0  2  0  0  0  0  0  0
  189.1020  177.5000  139.7690 C   0  0  0  0  0  3  0  0  0  0  0  0
  190.2920  177.5040  144.3230 C   0  0  0  0  0  0  0  0  0  0  0  0
  191.6900  177.4380  143.3820 S   0  0  0  0  0  0  0  0  0  0  0  0
  185.4680  178.2730  145.3750 N   0  0  0  0  0  0  0  0  0  0  0  0
  188.5840  177.5340  141.0740 C   0  0  0  0  0  3  0  0  0  0  0  0
  185.4950  178.2530  144.0720 C   0  0  0  0  0  0  0  0  0  0  0  0
  187.8240  177.6150  145.5420 C   0  0  0  0  0  0  0  0  0  0  0  0
  183.3480  179.5770  143.9480 C   0  0  0  0  0  2  0  0  0  0  0  0
  182.1700  178.6330  144.0640 C   0  0  0  0  0  2  0  0  0  0  0  0
  181.0300  179.1440  143.2040 C   0  0  0  0  0  2  0  0  0  0  0  0
  181.0270  178.4500  141.9270 N   0  0  0  0  0  0  0  0  0  0  0  0
  179.6830  177.9370  141.7370 C   0  0  0  0  0  1  0  0  0  0  0  0
  181.2220  179.3860  140.9690 O   0  0  0  0  0  1  0  0  0  0  0  0
  1  2  2  0  0  0  0
  1 14  1  0  0  0  0
  2 19  1  0  0  0  0
  3  7  1  0  0  0  0
  4  1  1  0  0  0  0
  5 20  1  0  0  0  0
  5 18  1  0  0  0  0
  6 13  2  0  0  0  0
  6  9  1  0  0  0  0
  8  4  1  0  0  0  0
  8 15  1  0  0  0  0
  9  8  2  0  0  0  0
 10 11  1  1  0  0  0
 12 18  1  0  0  0  0
 12  2  1  0  0  0  0
 13 17  1  0  0  0  0
 14  3  2  0  0  0  0
 15 14  1  0  0  0  0
 16 10  1  0  0  0  0
 17  4  2  0  0  0  0
 18 16  2  0  0  0  0
 19 10  1  0  0  0  0
 19  7  2  0  0  0  0
 20 21  1  0  0  0  0
 22 21  1  0  0  0  0
 23 22  1  0  0  0  0
 24 23  1  0  0  0  0
 25 23  1  0  0  0  0
M  END
>  <MODEL>
6

>  <REMARK>
 VINA RESULT:      -8.0      2.904      5.263
  Name = 
  4 active torsions:
  status: ('A' for Active; 'I' for Inactive)
    1  A    between atoms: N_2  and  C_25
    2  A    between atoms: N_6  and  C_15
    3  A    between atoms: C_15  and  C_21
    4  A    between atoms: C_21  and  C_25
                            x       y       z     vdW  Elec       q    Type
                         _______ _______ _______ _____ _____    ______ ____

>  <TORSDO>
F 4

$$$$
=
 OpenBabel10262419513D

 25 28  0  0  1  0  0  0  0  0999 V2000
  187.2120  177.9460  144.4730 C   0  0  0  0  0  0  0  0  0  0  0  0
  188.3370  177.8380  143.6360 C   0  0  0  0  0  0  0  0  0  0  0  0
  188.5540  177.2780  146.3790 C   0  0  0  0  0  3  0  0  0  0  0  0
  185.8980  178.3230  144.1360 C   0  0  0  0  0  0  0  0  0  0  0  0
  189.0680  177.1270  140.0290 N   0  0  0  0  0  2  0  0  0  0  0  0
  183.2050  179.0130  143.8570 C   0  0  0  0  0  3  0  0  0  0  0  0
  189.6380  177.1820  145.5590 N   0  0  0  0  0  0  0  0  0  0  0  0
  185.0400  178.3180  145.2340 C   0  0  0  0  0  0  0  0  0  0  0  0
  183.6950  178.6580  145.1220 C   0  0  0  0  0  3  0  0  0  0  0  0
  190.7910  177.3700  143.3460 C   0  0  1  0  0  3  0  0  0  0  0  0
  191.7900  176.3440  143.8520 C   0  0  0  0  0  1  0  0  0  0  0  0
  188.2960  178.1990  142.1760 C   0  0  0  0  0  2  0  0  0  0  0  0
  184.0580  179.0210  142.7390 C   0  0  0  0  0  3  0  0  0  0  0  0
  187.3370  177.6570  145.8280 C   0  0  0  0  0  0  0  0  0  0  0  0
  185.8670  177.8570  146.6290 S   0  0  0  0  0  0  0  0  0  0  0  0
  190.4420  177.0570  141.9590 N   0  0  0  0  0  0  0  0  0  0  0  0
  185.4120  178.6750  142.8730 C   0  0  0  0  0  3  0  0  0  0  0  0
  189.3270  177.4320  141.3980 C   0  0  0  0  0  0  0  0  0  0  0  0
  189.5590  177.4330  144.2160 C   0  0  0  0  0  0  0  0  0  0  0  0
  190.0120  176.3890  139.2030 C   0  0  0  0  0  2  0  0  0  0  0  0
  190.1780  177.0960  137.8750 C   0  0  0  0  0  2  0  0  0  0  0  0
  191.3070  176.4470  137.0970 C   0  0  0  0  0  2  0  0  0  0  0  0
  192.2370  175.8120  138.0150 N   0  0  0  0  0  0  0  0  0  0  0  0
  192.6480  174.5660  137.3940 C   0  0  0  0  0  1  0  0  0  0  0  0
  193.3370  176.5990  138.0700 O   0  0  0  0  0  1  0  0  0  0  0  0
  1 14  2  0  0  0  0
  2 19  2  0  0  0  0
  2  1  1  0  0  0  0
  4  1  1  0  0  0  0
  4  8  1  0  0  0  0
  5 18  1  0  0  0  0
  6  9  1  0  0  0  0
  7  3  2  0  0  0  0
  8 15  1  0  0  0  0
  9  8  2  0  0  0  0
 10 11  1  1  0  0  0
 10 19  1  0  0  0  0
 12  2  1  0  0  0  0
 13 17  1  0  0  0  0
 13  6  2  0  0  0  0
 14  3  1  0  0  0  0
 14 15  1  0  0  0  0
 16 10  1  0  0  0  0
 17  4  2  0  0  0  0
 18 16  2  0  0  0  0
 18 12  1  0  0  0  0
 19  7  1  0  0  0  0
 20  5  1  0  0  0  0
 21 20  1  0  0  0  0
 22 21  1  0  0  0  0
 22 23  1  0  0  0  0
 23 25  1  0  0  0  0
 24 23  1  0  0  0  0
M  END
>  <MODEL>
7

>  <REMARK>
 VINA RESULT:      -8.0      2.853      5.204
  Name = 
  4 active torsions:
  status: ('A' for Active; 'I' for Inactive)
    1  A    between atoms: N_2  and  C_25
    2  A    between atoms: N_6  and  C_15
    3  A    between atoms: C_15  and  C_21
    4  A    between atoms: C_21  and  C_25
                            x       y       z     vdW  Elec       q    Type
                         _______ _______ _______ _____ _____    ______ ____

>  <TORSDO>
F 4

$$$$
=
 OpenBabel10262419513D

 25 28  0  0  1  0  0  0  0  0999 V2000
  188.8390  177.6020  143.8110 C   0  0  0  0  0  0  0  0  0  0  0  0
  188.9350  177.8680  142.4330 C   0  0  0  0  0  0  0  0  0  0  0  0
  191.0520  176.6090  143.7830 C   0  0  0  0  0  3  0  0  0  0  0  0
  187.7790  177.8900  144.6900 C   0  0  0  0  0  0  0  0  0  0  0  0
  186.6300  178.2690  139.5050 N   0  0  0  0  0  2  0  0  0  0  0  0
  185.9010  178.2910  146.7200 C   0  0  0  0  0  3  0  0  0  0  0  0
  191.1350  176.8770  142.4500 N   0  0  0  0  0  0  0  0  0  0  0  0
  188.0370  177.4790  145.9960 C   0  0  0  0  0  0  0  0  0  0  0  0
  187.1190  177.6660  147.0260 C   0  0  0  0  0  3  0  0  0  0  0  0
  190.2620  177.8060  140.2970 C   0  0  1  0  0  3  0  0  0  0  0  0
  191.1590  176.8130  139.5790 C   0  0  0  0  0  1  0  0  0  0  0  0
  187.8660  178.6080  141.6760 C   0  0  0  0  0  2  0  0  0  0  0  0
  185.6250  178.7110  145.4070 C   0  0  0  0  0  3  0  0  0  0  0  0
  189.8950  176.9710  144.4620 C   0  0  0  0  0  0  0  0  0  0  0  0
  189.5570  176.7590  146.1000 S   0  0  0  0  0  0  0  0  0  0  0  0
  188.9580  177.8440  139.6310 N   0  0  0  0  0  0  0  0  0  0  0  0
  186.5640  178.5130  144.3830 C   0  0  0  0  0  3  0  0  0  0  0  0
  187.8600  178.2170  140.2250 C   0  0  0  0  0  0  0  0  0  0  0  0
  190.1140  177.4740  141.7620 C   0  0  0  0  0  0  0  0  0  0  0  0
  186.5340  177.9090  138.0990 C   0  0  0  0  0  2  0  0  0  0  0  0
  185.0790  177.8780  137.6840 C   0  0  0  0  0  2  0  0  0  0  0  0
  184.2090  178.2350  138.8740 C   0  0  0  0  0  2  0  0  0  0  0  0
  183.4620  179.4490  138.5910 N   0  0  0  0  0  0  0  0  0  0  0  0
  182.2410  179.3760  139.3730 C   0  0  0  0  0  1  0  0  0  0  0  0
  184.1810  180.4810  139.0930 O   0  0  0  0  0  1  0  0  0  0  0  0
  1 14  2  0  0  0  0
  1  4  1  0  0  0  0
  2  1  1  0  0  0  0
  3 14  1  0  0  0  0
  4  8  1  0  0  0  0
  5 18  1  0  0  0  0
  6  9  1  0  0  0  0
  7  3  2  0  0  0  0
  8 15  1  0  0  0  0
  8  9  2  0  0  0  0
 10 11  1  6  0  0  0
 10 19  1  0  0  0  0
 12  2  1  0  0  0  0
 13  6  2  0  0  0  0
 14 15  1  0  0  0  0
 16 18  2  0  0  0  0
 16 10  1  0  0  0  0
 17  4  2  0  0  0  0
 17 13  1  0  0  0  0
 18 12  1  0  0  0  0
 19  2  2  0  0  0  0
 19  7  1  0  0  0  0
 20  5  1  0  0  0  0
 21 20  1  0  0  0  0
 21 22  1  0  0  0  0
 23 22  1  0  0  0  0
 23 25  1  0  0  0  0
 23 24  1  0  0  0  0
M  END
>  <MODEL>
8

>  <REMARK>
 VINA RESULT:      -7.9      2.429      4.791
  Name = 
  4 active torsions:
  status: ('A' for Active; 'I' for Inactive)
    1  A    between atoms: N_2  and  C_25
    2  A    between atoms: N_6  and  C_15
    3  A    between atoms: C_15  and  C_21
    4  A    between atoms: C_21  and  C_25
                            x       y       z     vdW  Elec       q    Type
                         _______ _______ _______ _____ _____    ______ ____

>  <TORSDO>
F 4

$$$$
=
 OpenBabel10262419513D

 25 28  0  0  1  0  0  0  0  0999 V2000
  187.2610  178.0020  143.0920 C   0  0  0  0  0  0  0  0  0  0  0  0
  186.2550  178.4430  142.2130 C   0  0  0  0  0  0  0  0  0  0  0  0
  188.7570  177.6490  141.2160 C   0  0  0  0  0  3  0  0  0  0  0  0
  187.2170  177.8920  144.4940 C   0  0  0  0  0  0  0  0  0  0  0  0
  182.5100  178.5500  142.0950 N   0  0  0  0  0  2  0  0  0  0  0  0
  187.5080  177.5350  147.2510 C   0  0  0  0  0  3  0  0  0  0  0  0
  187.7770  178.0830  140.3760 N   0  0  0  0  0  0  0  0  0  0  0  0
  188.4110  177.4150  145.0330 C   0  0  0  0  0  0  0  0  0  0  0  0
  188.5820  177.2290  146.4020 C   0  0  0  0  0  3  0  0  0  0  0  0
  185.4970  178.9880  139.8770 C   0  0  1  0  0  3  0  0  0  0  0  0
  185.6210  178.3620  138.4990 C   0  0  0  0  0  1  0  0  0  0  0  0
  184.9250  178.9520  142.6980 C   0  0  0  0  0  2  0  0  0  0  0  0
  186.2970  178.0160  146.7220 C   0  0  0  0  0  3  0  0  0  0  0  0
  188.4930  177.6060  142.5790 C   0  0  0  0  0  0  0  0  0  0  0  0
  189.5350  177.1230  143.8120 S   0  0  0  0  0  0  0  0  0  0  0  0
  184.1470  178.7520  140.3930 N   0  0  0  0  0  0  0  0  0  0  0  0
  186.1450  178.1970  145.3380 C   0  0  0  0  0  3  0  0  0  0  0  0
  183.8550  178.7460  141.6630 C   0  0  0  0  0  0  0  0  0  0  0  0
  186.5420  178.4610  140.8300 C   0  0  0  0  0  0  0  0  0  0  0  0
  181.4140  178.3430  141.1600 C   0  0  0  0  0  2  0  0  0  0  0  0
  180.1450  178.0470  141.9310 C   0  0  0  0  0  2  0  0  0  0  0  0
  179.1430  179.1600  141.6960 C   0  0  0  0  0  2  0  0  0  0  0  0
  179.0350  179.9870  142.8860 N   0  0  0  0  0  0  0  0  0  0  0  0
  179.2910  179.1170  144.0200 C   0  0  0  0  0  1  0  0  0  0  0  0
  180.0560  180.8750  142.8430 O   0  0  0  0  0  1  0  0  0  0  0  0
  1  4  1  0  0  0  0
  2 12  1  0  0  0  0
  2  1  1  0  0  0  0
  3 14  1  0  0  0  0
  4  8  2  0  0  0  0
  4 17  1  0  0  0  0
  7 19  1  0  0  0  0
  7  3  2  0  0  0  0
  8  9  1  0  0  0  0
  9  6  2  0  0  0  0
 10 11  1  6  0  0  0
 10 16  1  0  0  0  0
 10 19  1  0  0  0  0
 13  6  1  0  0  0  0
 14  1  2  0  0  0  0
 14 15  1  0  0  0  0
 15  8  1  0  0  0  0
 16 18  2  0  0  0  0
 17 13  2  0  0  0  0
 18  5  1  0  0  0  0
 18 12  1  0  0  0  0
 19  2  2  0  0  0  0
 20 21  1  0  0  0  0
 20  5  1  0  0  0  0
 22 21  1  0  0  0  0
 22 23  1  0  0  0  0
 23 24  1  0  0  0  0
 25 23  1  0  0  0  0
M  END
>  <MODEL>
9

>  <REMARK>
 VINA RESULT:      -7.8      3.189      5.745
  Name = 
  4 active torsions:
  status: ('A' for Active; 'I' for Inactive)
    1  A    between atoms: N_2  and  C_25
    2  A    between atoms: N_6  and  C_15
    3  A    between atoms: C_15  and  C_21
    4  A    between atoms: C_21  and  C_25
                            x       y       z     vdW  Elec       q    Type
                         _______ _______ _______ _____ _____    ______ ____

>  <TORSDO>
F 4

$$$$
