=
 OpenBabel10262421113D

 32 37  0  0  1  0  0  0  0  0999 V2000
  189.8960  177.1160  142.8220 C   0  0  0  0  0  0  0  0  0  0  0  0
  188.0830  177.8680  144.3040 C   0  0  0  0  0  0  0  0  0  0  0  0
  191.1390  176.2560  142.6960 C   0  0  0  0  0  2  0  0  0  0  0  0
  189.4970  177.5960  144.1480 N   0  0  0  0  0  0  0  0  0  0  0  0
  187.4470  177.8230  145.5680 C   0  0  0  0  0  0  0  0  0  0  0  0
  183.6640  178.4890  142.2670 C   0  0  0  0  0  2  0  0  0  0  0  0
  187.3120  178.1890  143.1550 C   0  0  0  0  0  0  0  0  0  0  0  0
  183.9430  178.7570  144.6790 N   0  0  0  0  0  0  0  0  0  0  0  0
  185.3380  178.4530  144.5500 C   0  0  0  0  0  0  0  0  0  0  0  0
  186.0850  178.1190  145.6770 C   0  0  0  0  0  3  0  0  0  0  0  0
  187.9170  178.1860  141.8510 N   0  0  0  0  0  2  0  0  0  0  0  0
  189.3420  177.9350  141.6480 C   0  0  2  0  0  3  0  0  0  0  0  0
  185.9460  178.4770  143.2850 C   0  0  0  0  0  0  0  0  0  0  0  0
  189.7590  175.6090  142.7110 C   0  0  0  0  0  2  0  0  0  0  0  0
  183.1580  178.8230  143.6430 C   0  0  0  0  0  3  0  0  0  0  0  0
  185.1240  178.9140  142.1010 C   0  0  0  0  0  2  0  0  0  0  0  0
  189.0230  178.2460  138.0610 C   0  0  0  0  0  0  0  0  0  0  0  0
  191.4570  175.9530  136.3250 C   0  0  0  0  0  1  0  0  0  0  0  0
  188.5010  179.3660  137.8120 O   0  0  0  0  0  0  0  0  0  0  0  0
  191.2230  176.2520  138.7110 C   0  0  0  0  0  3  0  0  0  0  0  0
  189.6220  177.3920  140.2690 C   0  0  0  0  0  0  0  0  0  0  0  0
  190.0290  177.7620  137.2230 O   0  0  0  0  0  0  0  0  0  0  0  0
  190.7920  176.7970  140.0130 C   0  0  0  0  0  3  0  0  0  0  0  0
  188.5510  177.4470  139.2280 C   0  0  1  0  0  3  0  0  0  0  0  0
  187.3690  177.9650  139.7370 F   0  0  0  0  0  0  0  0  0  0  0  0
  190.8610  176.6620  137.4860 C   0  0  0  0  0  0  0  0  0  0  0  0
  190.4390  178.4090  144.9270 C   0  0  0  0  0  3  0  0  0  0  0  0
  190.7620  179.5740  144.2630 O   0  0  0  0  0  0  0  0  0  0  0  0
  191.6230  178.5500  144.2350 O   0  0  0  0  0  0  0  0  0  0  0  0
  188.1570  177.3810  146.8040 C   0  0  0  0  0  2  0  0  0  0  0  0
  187.7340  178.2160  147.9660 C   0  0  0  0  0  3  0  0  0  0  0  0
  188.1280  177.9440  149.0870 O   0  0  0  0  0  0  0  0  0  0  0  0
  1  4  1  0  0  0  0
  2  5  1  0  0  0  0
  3 14  1  0  0  0  0
  3  1  1  0  0  0  0
  4  2  1  0  0  0  0
  4 27  1  0  0  0  0
  5 10  2  0  0  0  0
  5 30  1  0  0  0  0
  6 15  1  0  0  0  0
  7 13  1  0  0  0  0
  7  2  2  0  0  0  0
  9  8  1  0  0  0  0
  9 10  1  0  0  0  0
 11  7  1  0  0  0  0
 12 21  1  6  0  0  0
 12 11  1  0  0  0  0
 12  1  1  0  0  0  0
 13  9  2  0  0  0  0
 14  1  1  0  0  0  0
 15  8  2  0  0  0  0
 16  6  1  0  0  0  0
 16 13  1  0  0  0  0
 17 24  1  0  0  0  0
 18 26  1  0  0  0  0
 19 17  2  0  0  0  0
 20 23  1  0  0  0  0
 22 26  1  0  0  0  0
 22 17  1  0  0  0  0
 23 21  2  0  0  0  0
 24 25  1  1  0  0  0
 24 21  1  0  0  0  0
 26 20  2  0  0  0  0
 28 27  1  0  0  0  0
 29 28  1  0  0  0  0
 29 27  1  0  0  0  0
 30 31  1  0  0  0  0
 31 32  2  0  0  0  0
M  END
>  <MODEL>
1

>  <REMARK>
 VINA RESULT:     -10.2      0.000      0.000
  Name = 
  4 active torsions:
  status: ('A' for Active; 'I' for Inactive)
    1  A    between atoms: N_5  and  C_14
    2  A    between atoms: C_6  and  C_29
    3  A    between atoms: C_13  and  C_29
    4  A    between atoms: C_16  and  C_27
                            x       y       z     vdW  Elec       q    Type
                         _______ _______ _______ _____ _____    ______ ____

>  <TORSDO>
F 4

$$$$
=
 OpenBabel10262421113D

 32 37  0  0  1  0  0  0  0  0999 V2000
  189.5590  177.1460  142.6380 C   0  0  0  0  0  0  0  0  0  0  0  0
  188.1080  177.7970  144.5140 C   0  0  0  0  0  0  0  0  0  0  0  0
  190.6960  176.2510  142.1840 C   0  0  0  0  0  2  0  0  0  0  0  0
  189.4460  177.4820  144.0600 N   0  0  0  0  0  0  0  0  0  0  0  0
  187.7150  177.6300  145.8640 C   0  0  0  0  0  0  0  0  0  0  0  0
  183.4390  178.8580  143.4430 C   0  0  0  0  0  2  0  0  0  0  0  0
  187.1600  178.2890  143.5770 C   0  0  0  0  0  0  0  0  0  0  0  0
  184.1780  178.8240  145.7710 N   0  0  0  0  0  0  0  0  0  0  0  0
  185.5010  178.4730  145.3440 C   0  0  0  0  0  0  0  0  0  0  0  0
  186.4200  177.9730  146.2640 C   0  0  0  0  0  3  0  0  0  0  0  0
  187.5110  178.4130  142.1880 N   0  0  0  0  0  2  0  0  0  0  0  0
  188.8530  178.1230  141.6890 C   0  0  2  0  0  3  0  0  0  0  0  0
  185.8640  178.6210  143.9960 C   0  0  0  0  0  0  0  0  0  0  0  0
  189.3020  175.6710  142.3930 C   0  0  0  0  0  2  0  0  0  0  0  0
  183.2210  179.0480  144.9190 C   0  0  0  0  0  3  0  0  0  0  0  0
  184.8690  179.2330  143.0470 C   0  0  0  0  0  2  0  0  0  0  0  0
  190.3870  176.3870  138.9140 C   0  0  0  0  0  0  0  0  0  0  0  0
  187.9340  176.0280  136.0760 C   0  0  0  0  0  1  0  0  0  0  0  0
  191.3560  175.7170  139.3600 O   0  0  0  0  0  0  0  0  0  0  0  0
  187.4980  177.0380  138.2280 C   0  0  0  0  0  3  0  0  0  0  0  0
  188.8350  177.7370  140.2320 C   0  0  0  0  0  0  0  0  0  0  0  0
  189.5930  175.8440  137.9020 O   0  0  0  0  0  0  0  0  0  0  0  0
  187.6720  177.4630  139.6300 C   0  0  0  0  0  3  0  0  0  0  0  0
  190.1110  177.7500  139.4530 C   0  0  1  0  0  3  0  0  0  0  0  0
  191.1740  178.2020  140.2210 F   0  0  0  0  0  0  0  0  0  0  0  0
  188.3590  176.3500  137.4630 C   0  0  0  0  0  0  0  0  0  0  0  0
  190.5690  178.1510  144.7280 C   0  0  0  0  0  3  0  0  0  0  0  0
  190.7520  179.4280  144.2380 O   0  0  0  0  0  0  0  0  0  0  0  0
  191.5540  178.4460  143.8090 O   0  0  0  0  0  0  0  0  0  0  0  0
  188.6110  177.0130  146.8850 C   0  0  0  0  0  2  0  0  0  0  0  0
  188.3240  177.5830  148.2330 C   0  0  0  0  0  3  0  0  0  0  0  0
  189.0740  178.4140  148.7160 O   0  0  0  0  0  0  0  0  0  0  0  0
  1  4  1  0  0  0  0
  2  5  1  0  0  0  0
  3 14  1  0  0  0  0
  3  1  1  0  0  0  0
  4  2  1  0  0  0  0
  4 27  1  0  0  0  0
  5 10  2  0  0  0  0
  5 30  1  0  0  0  0
  6 15  1  0  0  0  0
  7 13  1  0  0  0  0
  7  2  2  0  0  0  0
  9  8  1  0  0  0  0
  9 10  1  0  0  0  0
 11  7  1  0  0  0  0
 12 21  1  6  0  0  0
 12 11  1  0  0  0  0
 12  1  1  0  0  0  0
 13  9  2  0  0  0  0
 14  1  1  0  0  0  0
 15  8  2  0  0  0  0
 16  6  1  0  0  0  0
 16 13  1  0  0  0  0
 17 19  2  0  0  0  0
 17 24  1  0  0  0  0
 18 26  1  0  0  0  0
 20 23  1  0  0  0  0
 22 17  1  0  0  0  0
 23 21  2  0  0  0  0
 24 25  1  1  0  0  0
 24 21  1  0  0  0  0
 26 22  1  0  0  0  0
 26 20  2  0  0  0  0
 28 27  1  0  0  0  0
 29 28  1  0  0  0  0
 29 27  1  0  0  0  0
 30 31  1  0  0  0  0
 31 32  2  0  0  0  0
M  END
>  <MODEL>
2

>  <REMARK>
 VINA RESULT:      -9.9      1.379      1.839
  Name = 
  4 active torsions:
  status: ('A' for Active; 'I' for Inactive)
    1  A    between atoms: N_5  and  C_14
    2  A    between atoms: C_6  and  C_29
    3  A    between atoms: C_13  and  C_29
    4  A    between atoms: C_16  and  C_27
                            x       y       z     vdW  Elec       q    Type
                         _______ _______ _______ _____ _____    ______ ____

>  <TORSDO>
F 4

$$$$
=
 OpenBabel10262421113D

 32 37  0  0  1  0  0  0  0  0999 V2000
  186.6290  177.8780  144.4650 C   0  0  0  0  0  0  0  0  0  0  0  0
  185.9220  178.5230  142.2000 C   0  0  0  0  0  0  0  0  0  0  0  0
  186.1880  177.3220  145.8060 C   0  0  0  0  0  2  0  0  0  0  0  0
  185.6410  178.5540  143.6200 N   0  0  0  0  0  0  0  0  0  0  0  0
  184.8960  178.6360  141.2310 C   0  0  0  0  0  0  0  0  0  0  0  0
  189.0670  177.6080  138.5480 C   0  0  0  0  0  2  0  0  0  0  0  0
  187.2660  178.3760  141.7660 C   0  0  0  0  0  0  0  0  0  0  0  0
  186.8480  178.5000  138.0500 N   0  0  0  0  0  0  0  0  0  0  0  0
  186.5370  178.5030  139.4500 C   0  0  0  0  0  0  0  0  0  0  0  0
  185.2150  178.6280  139.8690 C   0  0  0  0  0  3  0  0  0  0  0  0
  188.3230  178.2010  142.7250 N   0  0  0  0  0  2  0  0  0  0  0  0
  188.0880  178.2430  144.1660 C   0  0  2  0  0  3  0  0  0  0  0  0
  187.5650  178.3640  140.3960 C   0  0  0  0  0  0  0  0  0  0  0  0
  186.3230  176.3980  144.6010 C   0  0  0  0  0  2  0  0  0  0  0  0
  188.0160  178.1340  137.6090 C   0  0  0  0  0  3  0  0  0  0  0  0
  188.9880  178.3050  139.9070 C   0  0  0  0  0  2  0  0  0  0  0  0
  191.2800  176.5470  144.2040 C   0  0  0  0  0  0  0  0  0  0  0  0
  192.4300  175.9960  147.7500 C   0  0  0  0  0  1  0  0  0  0  0  0
  191.8410  176.7450  143.0930 O   0  0  0  0  0  0  0  0  0  0  0  0
  190.4110  177.1280  147.0580 C   0  0  0  0  0  3  0  0  0  0  0  0
  189.1350  177.4660  144.9250 C   0  0  0  0  0  0  0  0  0  0  0  0
  192.0560  176.5370  145.3650 O   0  0  0  0  0  0  0  0  0  0  0  0
  189.3950  177.7700  146.2010 C   0  0  0  0  0  3  0  0  0  0  0  0
  189.8090  176.3070  144.2650 C   0  0  1  0  0  3  0  0  0  0  0  0
  189.2950  176.0680  142.9990 F   0  0  0  0  0  0  0  0  0  0  0  0
  191.5660  176.5610  146.6810 C   0  0  0  0  0  0  0  0  0  0  0  0
  184.9290  179.7230  144.1500 C   0  0  0  0  0  3  0  0  0  0  0  0
  184.5260  179.5150  145.4520 O   0  0  0  0  0  0  0  0  0  0  0  0
  183.6310  179.3810  144.4660 O   0  0  0  0  0  0  0  0  0  0  0  0
  183.4500  178.6770  141.5990 C   0  0  0  0  0  2  0  0  0  0  0  0
  182.6420  177.9290  140.5930 C   0  0  0  0  0  3  0  0  0  0  0  0
  181.4280  177.8840  140.6980 O   0  0  0  0  0  0  0  0  0  0  0  0
  1 14  1  0  0  0  0
  1  3  1  0  0  0  0
  2  4  1  0  0  0  0
  4 27  1  0  0  0  0
  4  1  1  0  0  0  0
  5 30  1  0  0  0  0
  5  2  2  0  0  0  0
  6 16  1  0  0  0  0
  7  2  1  0  0  0  0
  7 11  1  0  0  0  0
  8  9  1  0  0  0  0
  9 10  2  0  0  0  0
  9 13  1  0  0  0  0
 10  5  1  0  0  0  0
 11 12  1  0  0  0  0
 12  1  1  0  0  0  0
 12 21  1  1  0  0  0
 13  7  2  0  0  0  0
 14  3  1  0  0  0  0
 15  8  2  0  0  0  0
 15  6  1  0  0  0  0
 16 13  1  0  0  0  0
 17 24  1  0  0  0  0
 17 22  1  0  0  0  0
 19 17  2  0  0  0  0
 21 23  2  0  0  0  0
 22 26  1  0  0  0  0
 23 20  1  0  0  0  0
 24 25  1  6  0  0  0
 24 21  1  0  0  0  0
 26 20  2  0  0  0  0
 26 18  1  0  0  0  0
 27 29  1  0  0  0  0
 27 28  1  0  0  0  0
 29 28  1  0  0  0  0
 31 32  2  0  0  0  0
 31 30  1  0  0  0  0
M  END
>  <MODEL>
3

>  <REMARK>
 VINA RESULT:      -9.2      2.823      6.428
  Name = 
  4 active torsions:
  status: ('A' for Active; 'I' for Inactive)
    1  A    between atoms: N_5  and  C_14
    2  A    between atoms: C_6  and  C_29
    3  A    between atoms: C_13  and  C_29
    4  A    between atoms: C_16  and  C_27
                            x       y       z     vdW  Elec       q    Type
                         _______ _______ _______ _____ _____    ______ ____

>  <TORSDO>
F 4

$$$$
=
 OpenBabel10262421113D

 32 37  0  0  1  0  0  0  0  0999 V2000
  188.9950  177.4370  142.0950 C   0  0  0  0  0  0  0  0  0  0  0  0
  189.4050  177.2830  139.6750 C   0  0  0  0  0  0  0  0  0  0  0  0
  187.9750  177.2780  143.2070 C   0  0  0  0  0  2  0  0  0  0  0  0
  188.5230  177.7200  140.7360 N   0  0  0  0  0  0  0  0  0  0  0  0
  188.9260  176.9900  138.3760 C   0  0  0  0  0  0  0  0  0  0  0  0
  193.7980  175.6070  138.2710 C   0  0  0  0  0  2  0  0  0  0  0  0
  190.7930  177.1430  139.9450 C   0  0  0  0  0  0  0  0  0  0  0  0
  192.0810  176.0790  136.5980 N   0  0  0  0  0  0  0  0  0  0  0  0
  191.1800  176.4810  137.6380 C   0  0  0  0  0  0  0  0  0  0  0  0
  189.8170  176.5970  137.3730 C   0  0  0  0  0  3  0  0  0  0  0  0
  191.3010  177.3770  141.2690 N   0  0  0  0  0  2  0  0  0  0  0  0
  190.4510  177.8360  142.3660 C   0  0  2  0  0  3  0  0  0  0  0  0
  191.6700  176.7410  138.9280 C   0  0  0  0  0  0  0  0  0  0  0  0
  188.5860  176.0480  142.5470 C   0  0  0  0  0  2  0  0  0  0  0  0
  193.3030  175.7140  136.8550 C   0  0  0  0  0  3  0  0  0  0  0  0
  193.1560  176.6770  139.1580 C   0  0  0  0  0  2  0  0  0  0  0  0
  190.2020  177.8740  145.9720 C   0  0  0  0  0  0  0  0  0  0  0  0
  192.4730  175.2670  147.4710 C   0  0  0  0  0  1  0  0  0  0  0  0
  189.0970  178.3950  146.2810 O   0  0  0  0  0  0  0  0  0  0  0  0
  192.1410  175.6960  145.1160 C   0  0  0  0  0  3  0  0  0  0  0  0
  191.0100  177.4370  143.7090 C   0  0  0  0  0  0  0  0  0  0  0  0
  190.6780  176.7950  146.7190 O   0  0  0  0  0  0  0  0  0  0  0  0
  191.5840  176.2390  143.8620 C   0  0  0  0  0  3  0  0  0  0  0  0
  190.9920  178.4230  144.8320 C   0  0  1  0  0  3  0  0  0  0  0  0
  190.4900  179.6510  144.4280 F   0  0  0  0  0  0  0  0  0  0  0  0
  191.7570  175.9660  146.3720 C   0  0  0  0  0  0  0  0  0  0  0  0
  187.7100  178.9190  140.4980 C   0  0  0  0  0  3  0  0  0  0  0  0
  186.7250  179.0530  141.4550 O   0  0  0  0  0  0  0  0  0  0  0  0
  186.4010  178.5590  140.2540 O   0  0  0  0  0  0  0  0  0  0  0  0
  187.4720  176.9990  138.0400 C   0  0  0  0  0  2  0  0  0  0  0  0
  187.2160  177.9100  136.8870 C   0  0  0  0  0  3  0  0  0  0  0  0
  187.3880  179.1100  137.0090 O   0  0  0  0  0  0  0  0  0  0  0  0
  1 12  1  0  0  0  0
  1 14  1  0  0  0  0
  1  3  1  0  0  0  0
  2  7  1  0  0  0  0
  2  4  1  0  0  0  0
  4  1  1  0  0  0  0
  5  2  2  0  0  0  0
  6 16  1  0  0  0  0
  7 11  1  0  0  0  0
  8 15  2  0  0  0  0
  8  9  1  0  0  0  0
  9 13  1  0  0  0  0
 10  9  2  0  0  0  0
 10  5  1  0  0  0  0
 11 12  1  0  0  0  0
 12 21  1  1  0  0  0
 13 16  1  0  0  0  0
 13  7  2  0  0  0  0
 14  3  1  0  0  0  0
 15  6  1  0  0  0  0
 17 19  2  0  0  0  0
 17 22  1  0  0  0  0
 20 26  2  0  0  0  0
 21 23  2  0  0  0  0
 21 24  1  0  0  0  0
 23 20  1  0  0  0  0
 24 25  1  6  0  0  0
 24 17  1  0  0  0  0
 26 22  1  0  0  0  0
 26 18  1  0  0  0  0
 27  4  1  0  0  0  0
 27 28  1  0  0  0  0
 29 27  1  0  0  0  0
 29 28  1  0  0  0  0
 30  5  1  0  0  0  0
 31 32  2  0  0  0  0
 31 30  1  0  0  0  0
M  END
>  <MODEL>
4

>  <REMARK>
 VINA RESULT:      -9.2      2.738      7.692
  Name = 
  4 active torsions:
  status: ('A' for Active; 'I' for Inactive)
    1  A    between atoms: N_5  and  C_14
    2  A    between atoms: C_6  and  C_29
    3  A    between atoms: C_13  and  C_29
    4  A    between atoms: C_16  and  C_27
                            x       y       z     vdW  Elec       q    Type
                         _______ _______ _______ _____ _____    ______ ____

>  <TORSDO>
F 4

$$$$
=
 OpenBabel10262421113D

 32 37  0  0  1  0  0  0  0  0999 V2000
  190.5500  177.2880  142.5020 C   0  0  0  0  0  0  0  0  0  0  0  0
  188.3590  177.7670  141.4920 C   0  0  0  0  0  0  0  0  0  0  0  0
  192.0530  177.4510  142.3740 C   0  0  0  0  0  2  0  0  0  0  0  0
  189.7270  177.3360  141.2900 N   0  0  0  0  0  0  0  0  0  0  0  0
  187.6010  178.3630  140.4560 C   0  0  0  0  0  0  0  0  0  0  0  0
  184.6700  178.7680  144.5660 C   0  0  0  0  0  2  0  0  0  0  0  0
  187.7600  177.5860  142.7670 C   0  0  0  0  0  0  0  0  0  0  0  0
  184.3240  178.9290  142.1530 N   0  0  0  0  0  0  0  0  0  0  0  0
  185.6860  178.5410  141.9330 C   0  0  0  0  0  0  0  0  0  0  0  0
  186.2750  178.7390  140.6860 C   0  0  0  0  0  3  0  0  0  0  0  0
  188.5230  177.0370  143.8550 N   0  0  0  0  0  2  0  0  0  0  0  0
  189.8990  176.5730  143.6930 C   0  0  2  0  0  3  0  0  0  0  0  0
  186.4310  177.9760  142.9810 C   0  0  0  0  0  0  0  0  0  0  0  0
  191.1870  178.6340  142.7940 C   0  0  0  0  0  2  0  0  0  0  0  0
  183.8170  179.0010  143.3500 C   0  0  0  0  0  3  0  0  0  0  0  0
  185.7390  177.7100  144.2910 C   0  0  0  0  0  2  0  0  0  0  0  0
  189.9250  177.1540  147.2610 C   0  0  0  0  0  0  0  0  0  0  0  0
  193.0670  175.7490  148.7950 C   0  0  0  0  0  1  0  0  0  0  0  0
  188.7350  177.3250  147.6370 O   0  0  0  0  0  0  0  0  0  0  0  0
  192.4310  175.6270  146.4670 C   0  0  0  0  0  3  0  0  0  0  0  0
  190.6610  176.6220  144.9940 C   0  0  0  0  0  0  0  0  0  0  0  0
  190.8020  176.4410  148.0810 O   0  0  0  0  0  0  0  0  0  0  0  0
  191.6270  175.7280  145.2340 C   0  0  0  0  0  3  0  0  0  0  0  0
  190.3870  177.7260  145.9630 C   0  0  1  0  0  3  0  0  0  0  0  0
  189.4600  178.6280  145.4630 F   0  0  0  0  0  0  0  0  0  0  0  0
  192.0730  175.9700  147.7130 C   0  0  0  0  0  0  0  0  0  0  0  0
  189.9890  176.3770  140.2100 C   0  0  0  0  0  3  0  0  0  0  0  0
  191.3370  176.2970  139.9280 O   0  0  0  0  0  0  0  0  0  0  0  0
  190.5480  177.0250  139.1300 O   0  0  0  0  0  0  0  0  0  0  0  0
  188.1890  178.6940  139.1250 C   0  0  0  0  0  2  0  0  0  0  0  0
  187.3010  178.2010  138.0330 C   0  0  0  0  0  3  0  0  0  0  0  0
  186.8730  178.9790  137.1970 O   0  0  0  0  0  0  0  0  0  0  0  0
  1 14  1  0  0  0  0
  1 12  1  0  0  0  0
  2  7  1  0  0  0  0
  3  1  1  0  0  0  0
  3 14  1  0  0  0  0
  4  2  1  0  0  0  0
  4  1  1  0  0  0  0
  5 10  1  0  0  0  0
  5  2  2  0  0  0  0
  7 13  2  0  0  0  0
  7 11  1  0  0  0  0
  8 15  2  0  0  0  0
  9  8  1  0  0  0  0
  9 13  1  0  0  0  0
 10  9  2  0  0  0  0
 12 11  1  0  0  0  0
 12 21  1  1  0  0  0
 13 16  1  0  0  0  0
 15  6  1  0  0  0  0
 16  6  1  0  0  0  0
 17 19  2  0  0  0  0
 17 22  1  0  0  0  0
 20 26  2  0  0  0  0
 21 23  2  0  0  0  0
 21 24  1  0  0  0  0
 23 20  1  0  0  0  0
 24 25  1  6  0  0  0
 24 17  1  0  0  0  0
 26 22  1  0  0  0  0
 26 18  1  0  0  0  0
 27  4  1  0  0  0  0
 28 27  1  0  0  0  0
 29 28  1  0  0  0  0
 29 27  1  0  0  0  0
 30  5  1  0  0  0  0
 31 30  1  0  0  0  0
 32 31  2  0  0  0  0
M  END
>  <MODEL>
5

>  <REMARK>
 VINA RESULT:      -9.2      2.379      6.339
  Name = 
  4 active torsions:
  status: ('A' for Active; 'I' for Inactive)
    1  A    between atoms: N_5  and  C_14
    2  A    between atoms: C_6  and  C_29
    3  A    between atoms: C_13  and  C_29
    4  A    between atoms: C_16  and  C_27
                            x       y       z     vdW  Elec       q    Type
                         _______ _______ _______ _____ _____    ______ ____

>  <TORSDO>
F 4

$$$$
=
 OpenBabel10262421113D

 32 37  0  0  1  0  0  0  0  0999 V2000
  185.1240  178.8040  144.1780 C   0  0  0  0  0  0  0  0  0  0  0  0
  187.2590  178.0190  145.1120 C   0  0  0  0  0  0  0  0  0  0  0  0
  183.9530  179.7530  144.3490 C   0  0  0  0  0  2  0  0  0  0  0  0
  185.8830  178.3960  145.3630 N   0  0  0  0  0  0  0  0  0  0  0  0
  188.2540  178.1080  146.1150 C   0  0  0  0  0  0  0  0  0  0  0  0
  190.7960  176.8760  141.9100 C   0  0  0  0  0  2  0  0  0  0  0  0
  187.6200  177.5470  143.8220 C   0  0  0  0  0  0  0  0  0  0  0  0
  191.2570  176.8170  144.3090 N   0  0  0  0  0  0  0  0  0  0  0  0
  189.9090  177.2270  144.5760 C   0  0  0  0  0  0  0  0  0  0  0  0
  189.5650  177.7080  145.8370 C   0  0  0  0  0  3  0  0  0  0  0  0
  186.6450  177.5010  142.7670 N   0  0  0  0  0  2  0  0  0  0  0  0
  185.2430  177.8550  142.9790 C   0  0  2  0  0  3  0  0  0  0  0  0
  188.9410  177.1570  143.5620 C   0  0  0  0  0  0  0  0  0  0  0  0
  185.3050  180.2810  143.8830 C   0  0  0  0  0  2  0  0  0  0  0  0
  191.6800  176.6070  143.0960 C   0  0  0  0  0  3  0  0  0  0  0  0
  189.3340  176.5630  142.2350 C   0  0  0  0  0  2  0  0  0  0  0  0
  185.4910  178.6260  139.4560 C   0  0  0  0  0  0  0  0  0  0  0  0
  182.0600  178.8080  137.9090 C   0  0  0  0  0  1  0  0  0  0  0  0
  186.6420  178.2940  139.0640 O   0  0  0  0  0  0  0  0  0  0  0  0
  182.5680  178.2710  140.2090 C   0  0  0  0  0  3  0  0  0  0  0  0
  184.5840  178.3120  141.7020 C   0  0  0  0  0  0  0  0  0  0  0  0
  184.3990  178.4140  138.6130 O   0  0  0  0  0  0  0  0  0  0  0  0
  183.3300  177.9360  141.4280 C   0  0  0  0  0  3  0  0  0  0  0  0
  185.3120  179.2530  140.7970 C   0  0  1  0  0  3  0  0  0  0  0  0
  186.5330  179.6350  141.3320 F   0  0  0  0  0  0  0  0  0  0  0  0
  183.0460  178.5090  138.9790 C   0  0  0  0  0  0  0  0  0  0  0  0
  185.1820  177.7270  146.4650 C   0  0  0  0  0  3  0  0  0  0  0  0
  183.9300  178.2710  146.6650 O   0  0  0  0  0  0  0  0  0  0  0  0
  184.9310  178.6280  147.4790 O   0  0  0  0  0  0  0  0  0  0  0  0
  187.9850  178.7000  147.4570 C   0  0  0  0  0  2  0  0  0  0  0  0
  188.5240  177.8140  148.5290 C   0  0  0  0  0  3  0  0  0  0  0  0
  187.9310  176.7920  148.8300 O   0  0  0  0  0  0  0  0  0  0  0  0
  1  3  1  0  0  0  0
  1  4  1  0  0  0  0
  2  4  1  0  0  0  0
  2  5  1  0  0  0  0
  4 27  1  0  0  0  0
  5 30  1  0  0  0  0
  6 16  1  0  0  0  0
  6 15  1  0  0  0  0
  7  2  2  0  0  0  0
  8  9  1  0  0  0  0
  9 10  1  0  0  0  0
 10  5  2  0  0  0  0
 11 12  1  0  0  0  0
 11  7  1  0  0  0  0
 12 21  1  6  0  0  0
 12  1  1  0  0  0  0
 13  7  1  0  0  0  0
 13  9  2  0  0  0  0
 14  1  1  0  0  0  0
 14  3  1  0  0  0  0
 15  8  2  0  0  0  0
 16 13  1  0  0  0  0
 17 24  1  0  0  0  0
 18 26  1  0  0  0  0
 19 17  2  0  0  0  0
 20 23  1  0  0  0  0
 22 26  1  0  0  0  0
 22 17  1  0  0  0  0
 23 21  2  0  0  0  0
 24 25  1  1  0  0  0
 24 21  1  0  0  0  0
 26 20  2  0  0  0  0
 27 28  1  0  0  0  0
 27 29  1  0  0  0  0
 28 29  1  0  0  0  0
 30 31  1  0  0  0  0
 31 32  2  0  0  0  0
M  END
>  <MODEL>
6

>  <REMARK>
 VINA RESULT:      -8.9      2.664      5.564
  Name = 
  4 active torsions:
  status: ('A' for Active; 'I' for Inactive)
    1  A    between atoms: N_5  and  C_14
    2  A    between atoms: C_6  and  C_29
    3  A    between atoms: C_13  and  C_29
    4  A    between atoms: C_16  and  C_27
                            x       y       z     vdW  Elec       q    Type
                         _______ _______ _______ _____ _____    ______ ____

>  <TORSDO>
F 4

$$$$
=
 OpenBabel10262421113D

 32 37  0  0  1  0  0  0  0  0999 V2000
  189.5010  177.3010  139.6910 C   0  0  0  0  0  0  0  0  0  0  0  0
  189.1910  177.4780  142.1240 C   0  0  0  0  0  0  0  0  0  0  0  0
  190.2390  176.5960  138.5680 C   0  0  0  0  0  2  0  0  0  0  0  0
  190.1180  177.3560  141.0190 N   0  0  0  0  0  0  0  0  0  0  0  0
  189.5160  177.0330  143.4280 C   0  0  0  0  0  0  0  0  0  0  0  0
  184.6370  178.3600  143.7220 C   0  0  0  0  0  2  0  0  0  0  0  0
  187.9160  178.0620  141.8930 C   0  0  0  0  0  0  0  0  0  0  0  0
  186.4330  177.9480  145.3260 N   0  0  0  0  0  0  0  0  0  0  0  0
  187.3600  177.7860  144.2440 C   0  0  0  0  0  0  0  0  0  0  0  0
  188.6010  177.1950  144.4720 C   0  0  0  0  0  3  0  0  0  0  0  0
  187.5350  178.4690  140.5690 N   0  0  0  0  0  2  0  0  0  0  0  0
  188.4440  178.3810  139.4280 C   0  0  2  0  0  3  0  0  0  0  0  0
  187.0090  178.2100  142.9520 C   0  0  0  0  0  0  0  0  0  0  0  0
  189.1170  175.8820  139.3150 C   0  0  0  0  0  2  0  0  0  0  0  0
  185.1850  178.2540  145.1180 C   0  0  0  0  0  3  0  0  0  0  0  0
  185.6910  178.9100  142.7590 C   0  0  0  0  0  2  0  0  0  0  0  0
  188.4890  177.8760  135.8490 C   0  0  0  0  0  0  0  0  0  0  0  0
  185.0250  177.0850  134.5940 C   0  0  0  0  0  1  0  0  0  0  0  0
  189.6630  177.5690  135.5130 O   0  0  0  0  0  0  0  0  0  0  0  0
  185.6640  177.4640  136.8930 C   0  0  0  0  0  3  0  0  0  0  0  0
  187.6940  178.2730  138.1240 C   0  0  0  0  0  0  0  0  0  0  0  0
  187.4140  177.2500  135.2160 O   0  0  0  0  0  0  0  0  0  0  0  0
  186.4970  177.6770  138.0920 C   0  0  0  0  0  3  0  0  0  0  0  0
  188.2600  178.9120  136.8980 C   0  0  1  0  0  3  0  0  0  0  0  0
  189.4300  179.6030  137.1740 F   0  0  0  0  0  0  0  0  0  0  0  0
  186.0710  177.3060  135.6250 C   0  0  0  0  0  0  0  0  0  0  0  0
  191.4420  177.9730  141.1670 C   0  0  0  0  0  3  0  0  0  0  0  0
  192.3220  177.5030  140.2150 O   0  0  0  0  0  0  0  0  0  0  0  0
  192.3820  177.0080  141.4570 O   0  0  0  0  0  0  0  0  0  0  0  0
  190.7840  176.3060  143.7310 C   0  0  0  0  0  2  0  0  0  0  0  0
  191.4630  176.9240  144.9060 C   0  0  0  0  0  3  0  0  0  0  0  0
  191.7570  176.2380  145.8700 O   0  0  0  0  0  0  0  0  0  0  0  0
  1  4  1  0  0  0  0
  2  5  1  0  0  0  0
  3 14  1  0  0  0  0
  3  1  1  0  0  0  0
  4 27  1  0  0  0  0
  4  2  1  0  0  0  0
  5 30  1  0  0  0  0
  5 10  2  0  0  0  0
  6 15  1  0  0  0  0
  7  2  2  0  0  0  0
  7 13  1  0  0  0  0
  9 10  1  0  0  0  0
  9  8  1  0  0  0  0
 11  7  1  0  0  0  0
 12 21  1  6  0  0  0
 12  1  1  0  0  0  0
 12 11  1  0  0  0  0
 13  9  2  0  0  0  0
 14  1  1  0  0  0  0
 15  8  2  0  0  0  0
 16 13  1  0  0  0  0
 16  6  1  0  0  0  0
 17 24  1  0  0  0  0
 18 26  1  0  0  0  0
 19 17  2  0  0  0  0
 20 23  1  0  0  0  0
 22 26  1  0  0  0  0
 22 17  1  0  0  0  0
 23 21  2  0  0  0  0
 24 25  1  1  0  0  0
 24 21  1  0  0  0  0
 26 20  2  0  0  0  0
 27 29  1  0  0  0  0
 28 27  1  0  0  0  0
 28 29  1  0  0  0  0
 30 31  1  0  0  0  0
 31 32  2  0  0  0  0
M  END
>  <MODEL>
7

>  <REMARK>
 VINA RESULT:      -8.8      2.295      3.595
  Name = 
  4 active torsions:
  status: ('A' for Active; 'I' for Inactive)
    1  A    between atoms: N_5  and  C_14
    2  A    between atoms: C_6  and  C_29
    3  A    between atoms: C_13  and  C_29
    4  A    between atoms: C_16  and  C_27
                            x       y       z     vdW  Elec       q    Type
                         _______ _______ _______ _____ _____    ______ ____

>  <TORSDO>
F 4

$$$$
=
 OpenBabel10262421113D

 32 37  0  0  1  0  0  0  0  0999 V2000
  181.9150  178.4060  139.0280 C   0  0  0  0  0  0  0  0  0  0  0  0
  181.5960  178.5090  141.4640 C   0  0  0  0  0  0  0  0  0  0  0  0
  181.3680  178.8110  137.6720 C   0  0  0  0  0  2  0  0  0  0  0  0
  180.9940  178.3060  140.1630 N   0  0  0  0  0  0  0  0  0  0  0  0
  180.8440  178.9630  142.5750 C   0  0  0  0  0  0  0  0  0  0  0  0
  185.6350  178.9250  144.2170 C   0  0  0  0  0  2  0  0  0  0  0  0
  182.9810  178.2460  141.6320 C   0  0  0  0  0  0  0  0  0  0  0  0
  183.4310  179.0030  145.2670 N   0  0  0  0  0  0  0  0  0  0  0  0
  182.8150  178.8410  143.9830 C   0  0  0  0  0  0  0  0  0  0  0  0
  181.4600  179.1190  143.8200 C   0  0  0  0  0  3  0  0  0  0  0  0
  183.7830  177.8400  140.5100 N   0  0  0  0  0  2  0  0  0  0  0  0
  183.2150  177.6060  139.1830 C   0  0  2  0  0  3  0  0  0  0  0  0
  183.5820  178.4150  142.8870 C   0  0  0  0  0  0  0  0  0  0  0  0
  182.0630  179.8400  138.5570 C   0  0  0  0  0  2  0  0  0  0  0  0
  184.7240  179.0030  145.4110 C   0  0  0  0  0  3  0  0  0  0  0  0
  185.0250  178.0530  143.1180 C   0  0  0  0  0  2  0  0  0  0  0  0
  186.6390  178.2530  138.2200 C   0  0  0  0  0  0  0  0  0  0  0  0
  187.1720  177.3580  134.5980 C   0  0  0  0  0  1  0  0  0  0  0  0
  187.3450  178.2530  139.2630 O   0  0  0  0  0  0  0  0  0  0  0  0
  185.1230  177.0990  135.8510 C   0  0  0  0  0  3  0  0  0  0  0  0
  184.2430  177.7930  138.0960 C   0  0  0  0  0  0  0  0  0  0  0  0
  187.1550  177.6940  137.0490 O   0  0  0  0  0  0  0  0  0  0  0  0
  184.1740  177.0560  136.9810 C   0  0  0  0  0  3  0  0  0  0  0  0
  185.2780  178.8620  138.2400 C   0  0  1  0  0  3  0  0  0  0  0  0
  185.0860  179.6070  139.3940 F   0  0  0  0  0  0  0  0  0  0  0  0
  186.4270  177.4080  135.8830 C   0  0  0  0  0  0  0  0  0  0  0  0
  179.8490  177.3920  140.0750 C   0  0  0  0  0  3  0  0  0  0  0  0
  180.1570  176.1530  140.5990 O   0  0  0  0  0  0  0  0  0  0  0  0
  180.1650  176.3180  139.2710 O   0  0  0  0  0  0  0  0  0  0  0  0
  179.4140  179.3720  142.4570 C   0  0  0  0  0  2  0  0  0  0  0  0
  179.3190  180.8320  142.1660 C   0  0  0  0  0  3  0  0  0  0  0  0
  179.6610  181.2600  141.0770 O   0  0  0  0  0  0  0  0  0  0  0  0
  1 12  1  0  0  0  0
  1  4  1  0  0  0  0
  2  7  2  0  0  0  0
  2  5  1  0  0  0  0
  3 14  1  0  0  0  0
  3  1  1  0  0  0  0
  4  2  1  0  0  0  0
  5 10  2  0  0  0  0
  6 15  1  0  0  0  0
  7 13  1  0  0  0  0
  8 15  2  0  0  0  0
  9  8  1  0  0  0  0
 10  9  1  0  0  0  0
 11  7  1  0  0  0  0
 12 21  1  6  0  0  0
 12 11  1  0  0  0  0
 13 16  1  0  0  0  0
 13  9  2  0  0  0  0
 14  1  1  0  0  0  0
 16  6  1  0  0  0  0
 17 24  1  0  0  0  0
 17 19  2  0  0  0  0
 18 26  1  0  0  0  0
 20 26  2  0  0  0  0
 20 23  1  0  0  0  0
 21 24  1  0  0  0  0
 22 17  1  0  0  0  0
 23 21  2  0  0  0  0
 24 25  1  1  0  0  0
 26 22  1  0  0  0  0
 27  4  1  0  0  0  0
 27 28  1  0  0  0  0
 29 27  1  0  0  0  0
 29 28  1  0  0  0  0
 30  5  1  0  0  0  0
 31 30  1  0  0  0  0
 32 31  2  0  0  0  0
M  END
>  <MODEL>
8

>  <REMARK>
 VINA RESULT:      -8.6      4.269      7.169
  Name = 
  4 active torsions:
  status: ('A' for Active; 'I' for Inactive)
    1  A    between atoms: N_5  and  C_14
    2  A    between atoms: C_6  and  C_29
    3  A    between atoms: C_13  and  C_29
    4  A    between atoms: C_16  and  C_27
                            x       y       z     vdW  Elec       q    Type
                         _______ _______ _______ _____ _____    ______ ____

>  <TORSDO>
F 4

$$$$
=
 OpenBabel10262421113D

 32 37  0  0  1  0  0  0  0  0999 V2000
  186.0870  177.8710  138.0430 C   0  0  0  0  0  0  0  0  0  0  0  0
  188.3640  177.5540  138.9170 C   0  0  0  0  0  0  0  0  0  0  0  0
  185.1140  177.5390  136.9270 C   0  0  0  0  0  2  0  0  0  0  0  0
  187.5260  177.8210  137.7670 N   0  0  0  0  0  0  0  0  0  0  0  0
  189.6460  176.9670  138.7890 C   0  0  0  0  0  0  0  0  0  0  0  0
  188.8410  177.1820  143.7850 C   0  0  0  0  0  2  0  0  0  0  0  0
  187.8870  177.8920  140.2110 C   0  0  0  0  0  0  0  0  0  0  0  0
  190.7900  176.8800  142.3430 N   0  0  0  0  0  0  0  0  0  0  0  0
  189.9680  177.1040  141.1890 C   0  0  0  0  0  0  0  0  0  0  0  0
  190.4340  176.7520  139.9240 C   0  0  0  0  0  3  0  0  0  0  0  0
  186.5660  178.4350  140.3780 N   0  0  0  0  0  2  0  0  0  0  0  0
  185.6930  178.7370  139.2460 C   0  0  2  0  0  3  0  0  0  0  0  0
  188.6890  177.6630  141.3380 C   0  0  0  0  0  0  0  0  0  0  0  0
  185.4610  176.4900  137.9770 C   0  0  0  0  0  2  0  0  0  0  0  0
  190.3080  176.9520  143.5500 C   0  0  0  0  0  3  0  0  0  0  0  0
  188.2510  178.0970  142.7110 C   0  0  0  0  0  2  0  0  0  0  0  0
  182.2160  179.1120  138.3320 C   0  0  0  0  0  0  0  0  0  0  0  0
  179.9960  177.5890  140.9690 C   0  0  0  0  0  1  0  0  0  0  0  0
  182.1560  179.2740  137.0840 O   0  0  0  0  0  0  0  0  0  0  0  0
  182.4120  177.6070  140.9660 C   0  0  0  0  0  3  0  0  0  0  0  0
  184.2380  178.7030  139.6400 C   0  0  0  0  0  0  0  0  0  0  0  0
  181.2370  178.3440  138.9670 O   0  0  0  0  0  0  0  0  0  0  0  0
  183.8050  177.7870  140.5130 C   0  0  0  0  0  3  0  0  0  0  0  0
  183.3120  179.7530  139.1150 C   0  0  1  0  0  3  0  0  0  0  0  0
  183.9840  180.6920  138.3480 F   0  0  0  0  0  0  0  0  0  0  0  0
  181.2860  177.8810  140.2920 C   0  0  0  0  0  0  0  0  0  0  0  0
  188.0780  178.6640  136.7000 C   0  0  0  0  0  3  0  0  0  0  0  0
  188.7470  179.7530  137.2190 O   0  0  0  0  0  0  0  0  0  0  0  0
  187.5060  179.9180  136.7470 O   0  0  0  0  0  0  0  0  0  0  0  0
  190.1740  176.4770  137.4820 C   0  0  0  0  0  2  0  0  0  0  0  0
  189.7520  175.0650  137.2540 C   0  0  0  0  0  3  0  0  0  0  0  0
  190.4820  174.1490  137.5940 O   0  0  0  0  0  0  0  0  0  0  0  0
  1 12  1  0  0  0  0
  2  7  1  0  0  0  0
  3 14  1  0  0  0  0
  3  1  1  0  0  0  0
  4  1  1  0  0  0  0
  4  2  1  0  0  0  0
  5  2  2  0  0  0  0
  5 10  1  0  0  0  0
  7 11  1  0  0  0  0
  7 13  2  0  0  0  0
  8 15  2  0  0  0  0
  9 13  1  0  0  0  0
  9  8  1  0  0  0  0
 10  9  2  0  0  0  0
 12 21  1  1  0  0  0
 12 11  1  0  0  0  0
 13 16  1  0  0  0  0
 14  1  1  0  0  0  0
 15  6  1  0  0  0  0
 16  6  1  0  0  0  0
 17 22  1  0  0  0  0
 17 24  1  0  0  0  0
 19 17  2  0  0  0  0
 21 23  2  0  0  0  0
 22 26  1  0  0  0  0
 23 20  1  0  0  0  0
 24 25  1  6  0  0  0
 24 21  1  0  0  0  0
 26 20  2  0  0  0  0
 26 18  1  0  0  0  0
 27 29  1  0  0  0  0
 27 28  1  0  0  0  0
 27  4  1  0  0  0  0
 29 28  1  0  0  0  0
 30  5  1  0  0  0  0
 31 30  1  0  0  0  0
 31 32  2  0  0  0  0
M  END
>  <MODEL>
9

>  <REMARK>
 VINA RESULT:      -8.5      3.639      7.460
  Name = 
  4 active torsions:
  status: ('A' for Active; 'I' for Inactive)
    1  A    between atoms: N_5  and  C_14
    2  A    between atoms: C_6  and  C_29
    3  A    between atoms: C_13  and  C_29
    4  A    between atoms: C_16  and  C_27
                            x       y       z     vdW  Elec       q    Type
                         _______ _______ _______ _____ _____    ______ ____

>  <TORSDO>
F 4

$$$$
