=
 OpenBabel10262421553D

 30 32  0  0  1  0  0  0  0  0999 V2000
  186.8730  177.9440  143.0530 N   0  0  0  0  0  0  0  0  0  0  0  0
  184.6580  178.7240  142.2660 C   0  0  0  0  0  0  0  0  0  0  0  0
  185.9090  178.5210  147.0720 C   0  0  0  0  0  3  0  0  0  0  0  0
  187.8170  177.6760  143.9970 C   0  0  0  0  0  0  0  0  0  0  0  0
  186.8610  178.2640  148.0610 C   0  0  0  0  0  3  0  0  0  0  0  0
  183.3160  178.8850  142.7370 O   0  0  0  0  0  0  0  0  0  0  0  0
  184.6850  177.7510  141.2650 O   0  0  0  0  0  0  0  0  0  0  0  0
  186.2180  178.3260  145.7160 C   0  0  0  0  0  0  0  0  0  0  0  0
  182.9990  179.1780  144.0690 C   0  0  0  0  0  3  0  0  0  0  0  0
  185.6210  178.3680  143.3680 C   0  0  0  0  0  0  0  0  0  0  0  0
  187.5090  177.8650  145.3580 C   0  0  0  0  0  0  0  0  0  0  0  0
  188.1320  177.8080  147.7060 C   0  0  0  0  0  3  0  0  0  0  0  0
  188.4550  177.6100  146.3630 C   0  0  0  0  0  3  0  0  0  0  0  0
  183.9090  179.0530  145.0320 C   0  0  0  0  0  3  0  0  0  0  0  0
  185.2680  178.5810  144.7100 C   0  0  0  0  0  0  0  0  0  0  0  0
  189.1890  177.2200  143.5710 C   0  0  2  0  0  3  0  0  0  0  0  0
  190.2270  179.3590  143.5230 O   0  0  0  0  0  0  0  0  0  0  0  0
  190.3020  178.1680  143.9240 C   0  0  0  0  0  0  0  0  0  0  0  0
  191.4010  177.7880  144.7600 N   0  0  0  0  0  2  0  0  0  0  0  0
  191.7250  176.4890  145.0000 O   0  0  0  0  0  0  0  0  0  0  0  0
  191.7560  177.4550  147.1080 O   0  0  0  0  0  1  0  0  0  0  0  0
  191.5810  176.2700  146.3870 C   0  0  2  0  0  3  0  0  0  0  0  0
  192.4970  175.1770  146.9180 C   0  0  0  0  0  1  0  0  0  0  0  0
  189.2660  176.6970  142.1620 C   0  0  0  0  0  3  0  0  0  0  0  0
  190.0060  177.2840  141.2190 C   0  0  0  0  0  3  0  0  0  0  0  0
  190.0440  176.7390  139.8320 C   0  0  0  0  0  2  0  0  0  0  0  0
  190.0870  177.8300  138.8710 N   0  0  0  0  0  2  0  0  0  0  0  0
  187.6650  178.2840  139.1260 N   0  0  0  0  0  1  0  0  0  0  0  0
  188.9240  178.5820  138.5290 C   0  0  0  0  0  0  0  0  0  0  0  0
  189.0110  179.5170  137.6920 O   0  0  0  0  0  0  0  0  0  0  0  0
  1 10  2  0  0  0  0
  1  4  1  0  0  0  0
  2  6  1  0  0  0  0
  2 10  1  0  0  0  0
  3  5  2  0  0  0  0
  4 11  2  0  0  0  0
  6  9  1  0  0  0  0
  7  2  2  0  0  0  0
  8  3  1  0  0  0  0
  9 14  2  0  0  0  0
 10 15  1  0  0  0  0
 11  8  1  0  0  0  0
 11 13  1  0  0  0  0
 12  5  1  0  0  0  0
 13 12  2  0  0  0  0
 15 14  1  0  0  0  0
 15  8  2  0  0  0  0
 16 24  1  6  0  0  0
 16 18  1  0  0  0  0
 16  4  1  0  0  0  0
 17 18  2  0  0  0  0
 18 19  1  0  0  0  0
 19 20  1  0  0  0  0
 20 22  1  0  0  0  0
 22 23  1  1  0  0  0
 22 21  1  0  0  0  0
 25 24  2  0  0  0  0
 26 25  1  0  0  0  0
 27 26  1  0  0  0  0
 29 27  1  0  0  0  0
 29 28  1  0  0  0  0
 30 29  2  0  0  0  0
M  END
>  <MODEL>
1

>  <REMARK>
 VINA RESULT:      -9.4      0.000      0.000
  Name = 
  7 active torsions:
  status: ('A' for Active; 'I' for Inactive)
    1  A    between atoms: C_4  and  C_13
    2  A    between atoms: N_7  and  C_16
    3  A    between atoms: C_8  and  C_13
    4  A    between atoms: O_9  and  N_12
    5  A    between atoms: O_9  and  C_17
    6  A    between atoms: C_13  and  C_27
    7  A    between atoms: C_16  and  C_30
                            x       y       z     vdW  Elec       q    Type
                         _______ _______ _______ _____ _____    ______ ____

>  <TORSDO>
F 7

$$$$
=
 OpenBabel10262421553D

 30 32  0  0  1  0  0  0  0  0999 V2000
  188.9190  176.9650  144.9950 N   0  0  0  0  0  0  0  0  0  0  0  0
  189.3120  177.0480  147.4390 C   0  0  0  0  0  0  0  0  0  0  0  0
  185.1290  178.6830  145.3100 C   0  0  0  0  0  3  0  0  0  0  0  0
  188.1850  177.1410  143.8620 C   0  0  0  0  0  0  0  0  0  0  0  0
  184.3500  178.8650  144.1660 C   0  0  0  0  0  3  0  0  0  0  0  0
  188.8590  177.7450  148.6040 O   0  0  0  0  0  0  0  0  0  0  0  0
  190.6510  177.3610  147.2010 O   0  0  0  0  0  0  0  0  0  0  0  0
  186.4090  178.1110  145.2180 C   0  0  0  0  0  0  0  0  0  0  0  0
  187.5550  178.2340  148.7490 C   0  0  0  0  0  3  0  0  0  0  0  0
  188.4790  177.3500  146.2220 C   0  0  0  0  0  0  0  0  0  0  0  0
  186.9040  177.7190  143.9500 C   0  0  0  0  0  0  0  0  0  0  0  0
  184.8400  178.4790  142.9160 C   0  0  0  0  0  3  0  0  0  0  0  0
  186.1100  177.9090  142.8090 C   0  0  0  0  0  3  0  0  0  0  0  0
  186.7380  178.3220  147.7030 C   0  0  0  0  0  3  0  0  0  0  0  0
  187.2040  177.9220  146.3630 C   0  0  0  0  0  0  0  0  0  0  0  0
  188.7350  176.6770  142.5370 C   0  0  2  0  0  3  0  0  0  0  0  0
  190.1720  174.8140  142.8790 O   0  0  0  0  0  0  0  0  0  0  0  0
  190.0960  176.0410  142.6120 C   0  0  0  0  0  0  0  0  0  0  0  0
  191.2980  176.7600  142.3160 N   0  0  0  0  0  2  0  0  0  0  0  0
  191.3570  178.1190  142.3020 O   0  0  0  0  0  0  0  0  0  0  0  0
  191.9990  177.4450  144.4260 O   0  0  0  0  0  1  0  0  0  0  0  0
  191.8540  178.5310  143.5570 C   0  0  2  0  0  3  0  0  0  0  0  0
  191.0180  179.6270  144.2010 C   0  0  0  0  0  1  0  0  0  0  0  0
  188.5960  177.6730  141.4180 C   0  0  0  0  0  3  0  0  0  0  0  0
  188.7730  177.3420  140.1380 C   0  0  0  0  0  3  0  0  0  0  0  0
  188.6360  178.3640  139.0610 C   0  0  0  0  0  2  0  0  0  0  0  0
  187.7260  177.8820  138.0330 N   0  0  0  0  0  2  0  0  0  0  0  0
  185.7500  178.8110  139.2030 N   0  0  0  0  0  1  0  0  0  0  0  0
  186.3180  178.1020  138.1060 C   0  0  0  0  0  0  0  0  0  0  0  0
  185.5720  177.6660  137.1930 O   0  0  0  0  0  0  0  0  0  0  0  0
  1 10  1  0  0  0  0
  2  6  1  0  0  0  0
  4 11  1  0  0  0  0
  4  1  2  0  0  0  0
  5  3  2  0  0  0  0
  6  9  1  0  0  0  0
  7  2  2  0  0  0  0
  8  3  1  0  0  0  0
  8 15  1  0  0  0  0
 10 15  2  0  0  0  0
 10  2  1  0  0  0  0
 11  8  2  0  0  0  0
 12  5  1  0  0  0  0
 13 12  2  0  0  0  0
 13 11  1  0  0  0  0
 14  9  2  0  0  0  0
 15 14  1  0  0  0  0
 16 24  1  6  0  0  0
 16 18  1  0  0  0  0
 16  4  1  0  0  0  0
 18 17  2  0  0  0  0
 19 18  1  0  0  0  0
 20 19  1  0  0  0  0
 20 22  1  0  0  0  0
 22 23  1  1  0  0  0
 22 21  1  0  0  0  0
 25 24  2  0  0  0  0
 26 25  1  0  0  0  0
 27 29  1  0  0  0  0
 27 26  1  0  0  0  0
 29 28  1  0  0  0  0
 30 29  2  0  0  0  0
M  END
>  <MODEL>
2

>  <REMARK>
 VINA RESULT:      -9.0      2.157      4.086
  Name = 
  7 active torsions:
  status: ('A' for Active; 'I' for Inactive)
    1  A    between atoms: C_4  and  C_13
    2  A    between atoms: N_7  and  C_16
    3  A    between atoms: C_8  and  C_13
    4  A    between atoms: O_9  and  N_12
    5  A    between atoms: O_9  and  C_17
    6  A    between atoms: C_13  and  C_27
    7  A    between atoms: C_16  and  C_30
                            x       y       z     vdW  Elec       q    Type
                         _______ _______ _______ _____ _____    ______ ____

>  <TORSDO>
F 7

$$$$
=
 OpenBabel10262421553D

 30 32  0  0  1  0  0  0  0  0999 V2000
  188.1230  177.1770  142.8750 N   0  0  0  0  0  0  0  0  0  0  0  0
  190.3850  176.1680  142.8000 C   0  0  0  0  0  0  0  0  0  0  0  0
  188.2610  177.7510  147.0060 C   0  0  0  0  0  3  0  0  0  0  0  0
  187.0400  177.7180  143.4960 C   0  0  0  0  0  0  0  0  0  0  0  0
  187.1600  178.2950  147.6700 C   0  0  0  0  0  3  0  0  0  0  0  0
  191.5970  176.1260  143.5600 O   0  0  0  0  0  0  0  0  0  0  0  0
  190.6190  176.8160  141.5850 O   0  0  0  0  0  0  0  0  0  0  0  0
  188.2310  177.5570  145.6150 C   0  0  0  0  0  0  0  0  0  0  0  0
  191.6320  176.2190  144.9560 C   0  0  0  0  0  3  0  0  0  0  0  0
  189.2590  176.8390  143.5420 C   0  0  0  0  0  0  0  0  0  0  0  0
  187.0690  177.9190  144.8890 C   0  0  0  0  0  0  0  0  0  0  0  0
  186.0160  178.6520  146.9530 C   0  0  0  0  0  3  0  0  0  0  0  0
  185.9700  178.4650  145.5710 C   0  0  0  0  0  3  0  0  0  0  0  0
  190.5680  176.6280  145.6410 C   0  0  0  0  0  3  0  0  0  0  0  0
  189.3330  177.0110  144.9330 C   0  0  0  0  0  0  0  0  0  0  0  0
  185.8100  178.0560  142.6910 C   0  0  2  0  0  3  0  0  0  0  0  0
  186.6100  180.2270  142.1390 O   0  0  0  0  0  0  0  0  0  0  0  0
  185.9810  179.2110  141.7430 C   0  0  0  0  0  0  0  0  0  0  0  0
  185.5240  179.1670  140.3870 N   0  0  0  0  0  2  0  0  0  0  0  0
  184.6040  178.2650  139.9510 O   0  0  0  0  0  0  0  0  0  0  0  0
  184.0620  180.2990  138.9790 O   0  0  0  0  0  1  0  0  0  0  0  0
  183.6910  178.9600  139.1290 C   0  0  2  0  0  3  0  0  0  0  0  0
  182.2510  178.8520  139.6100 C   0  0  0  0  0  1  0  0  0  0  0  0
  184.5360  178.1140  143.4890 C   0  0  0  0  0  3  0  0  0  0  0  0
  183.5250  178.9240  143.1670 C   0  0  0  0  0  3  0  0  0  0  0  0
  182.2840  178.9570  143.9920 C   0  0  0  0  0  2  0  0  0  0  0  0
  181.1550  179.3700  143.1730 N   0  0  0  0  0  2  0  0  0  0  0  0
  179.6640  177.6770  144.1960 N   0  0  0  0  0  1  0  0  0  0  0  0
  179.8780  178.7420  143.2750 C   0  0  0  0  0  0  0  0  0  0  0  0
  178.9320  179.1340  142.5450 O   0  0  0  0  0  0  0  0  0  0  0  0
  1  4  2  0  0  0  0
  1 10  1  0  0  0  0
  2 10  1  0  0  0  0
  2  6  1  0  0  0  0
  3  5  1  0  0  0  0
  4 11  1  0  0  0  0
  6  9  1  0  0  0  0
  7  2  2  0  0  0  0
  8  3  2  0  0  0  0
  9 14  2  0  0  0  0
 10 15  2  0  0  0  0
 11 13  2  0  0  0  0
 11  8  1  0  0  0  0
 12  5  2  0  0  0  0
 13 12  1  0  0  0  0
 15  8  1  0  0  0  0
 15 14  1  0  0  0  0
 16 24  1  1  0  0  0
 16  4  1  0  0  0  0
 18 17  2  0  0  0  0
 18 16  1  0  0  0  0
 19 18  1  0  0  0  0
 20 19  1  0  0  0  0
 21 22  1  0  0  0  0
 22 23  1  1  0  0  0
 22 20  1  0  0  0  0
 25 24  2  0  0  0  0
 25 26  1  0  0  0  0
 27 29  1  0  0  0  0
 27 26  1  0  0  0  0
 29 28  1  0  0  0  0
 30 29  2  0  0  0  0
M  END
>  <MODEL>
3

>  <REMARK>
 VINA RESULT:      -8.5      2.611      7.171
  Name = 
  7 active torsions:
  status: ('A' for Active; 'I' for Inactive)
    1  A    between atoms: C_4  and  C_13
    2  A    between atoms: N_7  and  C_16
    3  A    between atoms: C_8  and  C_13
    4  A    between atoms: O_9  and  N_12
    5  A    between atoms: O_9  and  C_17
    6  A    between atoms: C_13  and  C_27
    7  A    between atoms: C_16  and  C_30
                            x       y       z     vdW  Elec       q    Type
                         _______ _______ _______ _____ _____    ______ ____

>  <TORSDO>
F 7

$$$$
=
 OpenBabel10262421553D

 30 32  0  0  1  0  0  0  0  0999 V2000
  187.8120  177.7440  145.0210 N   0  0  0  0  0  0  0  0  0  0  0  0
  185.9150  177.9870  146.5960 C   0  0  0  0  0  0  0  0  0  0  0  0
  185.4700  178.6640  141.6920 C   0  0  0  0  0  3  0  0  0  0  0  0
  188.3910  177.7280  143.7890 C   0  0  0  0  0  0  0  0  0  0  0  0
  186.0360  178.6460  140.4150 C   0  0  0  0  0  3  0  0  0  0  0  0
  184.6320  178.6170  146.6860 O   0  0  0  0  0  0  0  0  0  0  0  0
  186.7800  178.5580  147.5300 O   0  0  0  0  0  0  0  0  0  0  0  0
  186.2470  178.3620  142.8220 C   0  0  0  0  0  0  0  0  0  0  0  0
  183.8030  178.8350  145.5790 C   0  0  0  0  0  3  0  0  0  0  0  0
  186.5060  178.0730  145.2130 C   0  0  0  0  0  0  0  0  0  0  0  0
  187.6160  178.0360  142.6550 C   0  0  0  0  0  0  0  0  0  0  0  0
  187.3860  178.3250  140.2530 C   0  0  0  0  0  3  0  0  0  0  0  0
  188.1710  178.0220  141.3660 C   0  0  0  0  0  3  0  0  0  0  0  0
  184.2740  178.7200  144.3390 C   0  0  0  0  0  3  0  0  0  0  0  0
  185.6900  178.3770  144.1130 C   0  0  0  0  0  0  0  0  0  0  0  0
  189.8420  177.3420  143.6530 C   0  0  2  0  0  3  0  0  0  0  0  0
  190.8490  179.4350  144.1620 O   0  0  0  0  0  0  0  0  0  0  0  0
  190.7960  178.2070  144.4310 C   0  0  0  0  0  0  0  0  0  0  0  0
  191.5860  177.7000  145.5130 N   0  0  0  0  0  2  0  0  0  0  0  0
  191.8190  176.3730  145.6930 O   0  0  0  0  0  0  0  0  0  0  0  0
  190.6510  177.0690  147.5720 O   0  0  0  0  0  1  0  0  0  0  0  0
  191.4360  176.0550  147.0140 C   0  0  2  0  0  3  0  0  0  0  0  0
  192.6180  175.7310  147.9170 C   0  0  0  0  0  1  0  0  0  0  0  0
  190.2880  177.0690  142.2420 C   0  0  0  0  0  3  0  0  0  0  0  0
  191.4790  177.4550  141.7800 C   0  0  0  0  0  3  0  0  0  0  0  0
  191.8760  177.1740  140.3700 C   0  0  0  0  0  2  0  0  0  0  0  0
  190.7540  177.4260  139.4800 N   0  0  0  0  0  2  0  0  0  0  0  0
  190.9560  175.1920  138.4290 N   0  0  0  0  0  1  0  0  0  0  0  0
  190.3080  176.4570  138.5330 C   0  0  0  0  0  0  0  0  0  0  0  0
  189.3340  176.7210  137.7830 O   0  0  0  0  0  0  0  0  0  0  0  0
  1 10  1  0  0  0  0
  2  6  1  0  0  0  0
  2  7  2  0  0  0  0
  3  8  1  0  0  0  0
  4  1  2  0  0  0  0
  5  3  2  0  0  0  0
  8 15  1  0  0  0  0
  9  6  1  0  0  0  0
 10  2  1  0  0  0  0
 11  8  2  0  0  0  0
 11  4  1  0  0  0  0
 12  5  1  0  0  0  0
 12 13  2  0  0  0  0
 13 11  1  0  0  0  0
 14  9  2  0  0  0  0
 15 14  1  0  0  0  0
 15 10  2  0  0  0  0
 16 24  1  6  0  0  0
 16  4  1  0  0  0  0
 16 18  1  0  0  0  0
 17 18  2  0  0  0  0
 18 19  1  0  0  0  0
 19 20  1  0  0  0  0
 20 22  1  0  0  0  0
 22 21  1  0  0  0  0
 22 23  1  1  0  0  0
 25 24  2  0  0  0  0
 26 25  1  0  0  0  0
 27 26  1  0  0  0  0
 28 29  1  0  0  0  0
 29 27  1  0  0  0  0
 30 29  2  0  0  0  0
M  END
>  <MODEL>
4

>  <REMARK>
 VINA RESULT:      -8.5      1.905      3.327
  Name = 
  7 active torsions:
  status: ('A' for Active; 'I' for Inactive)
    1  A    between atoms: C_4  and  C_13
    2  A    between atoms: N_7  and  C_16
    3  A    between atoms: C_8  and  C_13
    4  A    between atoms: O_9  and  N_12
    5  A    between atoms: O_9  and  C_17
    6  A    between atoms: C_13  and  C_27
    7  A    between atoms: C_16  and  C_30
                            x       y       z     vdW  Elec       q    Type
                         _______ _______ _______ _____ _____    ______ ____

>  <TORSDO>
F 7

$$$$
=
 OpenBabel10262421553D

 30 32  0  0  1  0  0  0  0  0999 V2000
  186.3470  178.3850  142.0510 N   0  0  0  0  0  0  0  0  0  0  0  0
  184.2060  178.9390  140.9340 C   0  0  0  0  0  0  0  0  0  0  0  0
  184.6520  178.4740  145.8630 C   0  0  0  0  0  3  0  0  0  0  0  0
  187.1480  178.1580  143.1280 C   0  0  0  0  0  0  0  0  0  0  0  0
  185.4520  178.2540  146.9860 C   0  0  0  0  0  3  0  0  0  0  0  0
  182.7950  178.8830  141.1690 O   0  0  0  0  0  0  0  0  0  0  0  0
  184.5390  178.0710  139.8930 O   0  0  0  0  0  0  0  0  0  0  0  0
  185.2080  178.4420  144.5730 C   0  0  0  0  0  0  0  0  0  0  0  0
  182.2220  179.0140  142.4390 C   0  0  0  0  0  3  0  0  0  0  0  0
  185.0120  178.6140  142.1640 C   0  0  0  0  0  0  0  0  0  0  0  0
  186.5930  178.1840  144.4210 C   0  0  0  0  0  0  0  0  0  0  0  0
  186.8160  178.0000  146.8340 C   0  0  0  0  0  3  0  0  0  0  0  0
  187.3840  177.9650  145.5590 C   0  0  0  0  0  3  0  0  0  0  0  0
  182.9660  178.9220  143.5380 C   0  0  0  0  0  3  0  0  0  0  0  0
  184.4130  178.6600  143.4330 C   0  0  0  0  0  0  0  0  0  0  0  0
  188.6230  177.9230  142.9240 C   0  0  2  0  0  3  0  0  0  0  0  0
  188.6870  175.5540  142.7280 O   0  0  0  0  0  0  0  0  0  0  0  0
  188.9590  176.6560  142.1850 C   0  0  0  0  0  0  0  0  0  0  0  0
  189.5030  176.6590  140.8610 N   0  0  0  0  0  2  0  0  0  0  0  0
  190.0900  177.7560  140.3110 O   0  0  0  0  0  0  0  0  0  0  0  0
  188.3990  178.9350  139.2490 O   0  0  0  0  0  1  0  0  0  0  0  0
  189.4370  178.0120  139.0860 C   0  0  2  0  0  3  0  0  0  0  0  0
  188.9320  176.7500  138.4020 C   0  0  0  0  0  1  0  0  0  0  0  0
  189.4690  178.1500  144.1470 C   0  0  0  0  0  3  0  0  0  0  0  0
  190.7950  178.0060  144.1380 C   0  0  0  0  0  3  0  0  0  0  0  0
  191.5940  178.2300  145.3770 C   0  0  0  0  0  2  0  0  0  0  0  0
  191.9740  176.9530  145.9610 N   0  0  0  0  0  2  0  0  0  0  0  0
  190.2370  177.1250  147.7190 N   0  0  0  0  0  1  0  0  0  0  0  0
  191.3090  176.4170  147.1040 C   0  0  0  0  0  0  0  0  0  0  0  0
  191.6740  175.3090  147.5730 O   0  0  0  0  0  0  0  0  0  0  0  0
  1 10  2  0  0  0  0
  1  4  1  0  0  0  0
  2  6  1  0  0  0  0
  2 10  1  0  0  0  0
  3  5  2  0  0  0  0
  4 11  2  0  0  0  0
  6  9  1  0  0  0  0
  7  2  2  0  0  0  0
  8  3  1  0  0  0  0
  9 14  2  0  0  0  0
 10 15  1  0  0  0  0
 11  8  1  0  0  0  0
 11 13  1  0  0  0  0
 12  5  1  0  0  0  0
 13 12  2  0  0  0  0
 15 14  1  0  0  0  0
 15  8  2  0  0  0  0
 16  4  1  0  0  0  0
 16 24  1  1  0  0  0
 18 17  2  0  0  0  0
 18 16  1  0  0  0  0
 19 18  1  0  0  0  0
 20 19  1  0  0  0  0
 22 23  1  1  0  0  0
 22 21  1  0  0  0  0
 22 20  1  0  0  0  0
 25 24  2  0  0  0  0
 25 26  1  0  0  0  0
 26 27  1  0  0  0  0
 27 29  1  0  0  0  0
 29 30  2  0  0  0  0
 29 28  1  0  0  0  0
M  END
>  <MODEL>
5

>  <REMARK>
 VINA RESULT:      -8.4      1.672      4.916
  Name = 
  7 active torsions:
  status: ('A' for Active; 'I' for Inactive)
    1  A    between atoms: C_4  and  C_13
    2  A    between atoms: N_7  and  C_16
    3  A    between atoms: C_8  and  C_13
    4  A    between atoms: O_9  and  N_12
    5  A    between atoms: O_9  and  C_17
    6  A    between atoms: C_13  and  C_27
    7  A    between atoms: C_16  and  C_30
                            x       y       z     vdW  Elec       q    Type
                         _______ _______ _______ _____ _____    ______ ____

>  <TORSDO>
F 7

$$$$
=
 OpenBabel10262421553D

 30 32  0  0  1  0  0  0  0  0999 V2000
  188.0750  178.0420  141.3160 N   0  0  0  0  0  0  0  0  0  0  0  0
  186.0970  178.4020  139.8690 C   0  0  0  0  0  0  0  0  0  0  0  0
  190.5960  177.2770  138.0800 C   0  0  0  0  0  3  0  0  0  0  0  0
  189.3780  177.7320  141.5610 C   0  0  0  0  0  0  0  0  0  0  0  0
  191.9340  176.9470  138.3020 C   0  0  0  0  0  3  0  0  0  0  0  0
  185.7690  178.7450  138.5180 O   0  0  0  0  0  0  0  0  0  0  0  0
  185.6740  179.4220  140.7230 O   0  0  0  0  0  0  0  0  0  0  0  0
  189.7370  177.5420  139.1590 C   0  0  0  0  0  0  0  0  0  0  0  0
  186.5680  178.3990  137.4220 C   0  0  0  0  0  3  0  0  0  0  0  0
  187.5680  178.1380  140.0590 C   0  0  0  0  0  0  0  0  0  0  0  0
  190.2420  177.4710  140.4810 C   0  0  0  0  0  0  0  0  0  0  0  0
  192.4310  176.8780  139.6060 C   0  0  0  0  0  3  0  0  0  0  0  0
  191.5900  177.1380  140.6890 C   0  0  0  0  0  3  0  0  0  0  0  0
  187.8170  177.9730  137.5930 C   0  0  0  0  0  3  0  0  0  0  0  0
  188.3870  177.8760  138.9490 C   0  0  0  0  0  0  0  0  0  0  0  0
  189.8660  177.6330  142.9840 C   0  0  2  0  0  3  0  0  0  0  0  0
  189.9750  175.2660  142.7820 O   0  0  0  0  0  0  0  0  0  0  0  0
  190.4240  176.2880  143.3630 C   0  0  0  0  0  0  0  0  0  0  0  0
  191.4960  176.1370  144.3000 N   0  0  0  0  0  2  0  0  0  0  0  0
  191.8480  177.1140  145.1770 O   0  0  0  0  0  0  0  0  0  0  0  0
  192.2740  175.2100  146.4290 O   0  0  0  0  0  1  0  0  0  0  0  0
  191.8480  176.5410  146.4670 C   0  0  2  0  0  3  0  0  0  0  0  0
  190.5050  176.6560  147.1730 C   0  0  0  0  0  1  0  0  0  0  0  0
  188.9260  178.2070  144.0100 C   0  0  0  0  0  3  0  0  0  0  0  0
  188.0600  177.4530  144.6900 C   0  0  0  0  0  3  0  0  0  0  0  0
  187.1380  178.0650  145.6900 C   0  0  0  0  0  2  0  0  0  0  0  0
  185.9310  178.5350  145.0280 N   0  0  0  0  0  2  0  0  0  0  0  0
  184.6600  178.5750  147.1540 N   0  0  0  0  0  1  0  0  0  0  0  0
  184.7240  178.7830  145.7460 C   0  0  0  0  0  0  0  0  0  0  0  0
  183.7050  179.1880  145.1300 O   0  0  0  0  0  0  0  0  0  0  0  0
  1  4  1  0  0  0  0
  2 10  1  0  0  0  0
  2  7  2  0  0  0  0
  3  5  2  0  0  0  0
  3  8  1  0  0  0  0
  4 16  1  0  0  0  0
  5 12  1  0  0  0  0
  6  2  1  0  0  0  0
  8 11  1  0  0  0  0
  9 14  2  0  0  0  0
  9  6  1  0  0  0  0
 10  1  2  0  0  0  0
 11 13  1  0  0  0  0
 11  4  2  0  0  0  0
 12 13  2  0  0  0  0
 14 15  1  0  0  0  0
 15  8  2  0  0  0  0
 15 10  1  0  0  0  0
 16 18  1  0  0  0  0
 16 24  1  1  0  0  0
 17 18  2  0  0  0  0
 18 19  1  0  0  0  0
 19 20  1  0  0  0  0
 20 22  1  0  0  0  0
 21 22  1  0  0  0  0
 22 23  1  6  0  0  0
 24 25  2  0  0  0  0
 25 26  1  0  0  0  0
 27 26  1  0  0  0  0
 27 29  1  0  0  0  0
 29 28  1  0  0  0  0
 30 29  2  0  0  0  0
M  END
>  <MODEL>
6

>  <REMARK>
 VINA RESULT:      -8.4      2.003      5.956
  Name = 
  7 active torsions:
  status: ('A' for Active; 'I' for Inactive)
    1  A    between atoms: C_4  and  C_13
    2  A    between atoms: N_7  and  C_16
    3  A    between atoms: C_8  and  C_13
    4  A    between atoms: O_9  and  N_12
    5  A    between atoms: O_9  and  C_17
    6  A    between atoms: C_13  and  C_27
    7  A    between atoms: C_16  and  C_30
                            x       y       z     vdW  Elec       q    Type
                         _______ _______ _______ _____ _____    ______ ____

>  <TORSDO>
F 7

$$$$
=
 OpenBabel10262421553D

 30 32  0  0  1  0  0  0  0  0999 V2000
  186.0300  178.3060  144.7660 N   0  0  0  0  0  0  0  0  0  0  0  0
  186.2360  178.7820  147.1880 C   0  0  0  0  0  0  0  0  0  0  0  0
  189.9010  176.7690  144.5000 C   0  0  0  0  0  3  0  0  0  0  0  0
  186.4850  177.8860  143.5530 C   0  0  0  0  0  0  0  0  0  0  0  0
  190.3970  176.3400  143.2670 C   0  0  0  0  0  3  0  0  0  0  0  0
  187.0030  178.3780  148.3280 O   0  0  0  0  0  0  0  0  0  0  0  0
  184.9050  178.4000  147.3640 O   0  0  0  0  0  0  0  0  0  0  0  0
  188.5980  177.2830  144.6050 C   0  0  0  0  0  0  0  0  0  0  0  0
  188.3360  177.9580  148.2490 C   0  0  0  0  0  3  0  0  0  0  0  0
  186.7760  178.2200  145.8990 C   0  0  0  0  0  0  0  0  0  0  0  0
  187.7880  177.3650  143.4460 C   0  0  0  0  0  0  0  0  0  0  0  0
  189.5970  176.4200  142.1250 C   0  0  0  0  0  3  0  0  0  0  0  0
  188.3010  176.9300  142.2130 C   0  0  0  0  0  3  0  0  0  0  0  0
  188.8850  177.6440  147.0780 C   0  0  0  0  0  3  0  0  0  0  0  0
  188.0860  177.7180  145.8410 C   0  0  0  0  0  0  0  0  0  0  0  0
  185.6030  178.0230  142.3380 C   0  0  2  0  0  3  0  0  0  0  0  0
  186.6630  180.0900  141.8280 O   0  0  0  0  0  0  0  0  0  0  0  0
  186.0210  179.1040  141.3790 C   0  0  0  0  0  0  0  0  0  0  0  0
  185.7850  179.0160  139.9700 N   0  0  0  0  0  2  0  0  0  0  0  0
  184.8730  178.1640  139.4310 O   0  0  0  0  0  0  0  0  0  0  0  0
  184.1070  180.3010  138.9620 O   0  0  0  0  0  1  0  0  0  0  0  0
  183.9660  178.9400  138.6780 C   0  0  2  0  0  3  0  0  0  0  0  0
  182.5190  178.5030  138.8480 C   0  0  0  0  0  1  0  0  0  0  0  0
  184.1280  178.0140  142.6310 C   0  0  0  0  0  3  0  0  0  0  0  0
  183.4860  179.0820  143.1100 C   0  0  0  0  0  3  0  0  0  0  0  0
  182.0230  179.0250  143.3970 C   0  0  0  0  0  2  0  0  0  0  0  0
  181.2830  178.8140  142.1630 N   0  0  0  0  0  2  0  0  0  0  0  0
  179.8210  180.7680  142.5860 N   0  0  0  0  0  1  0  0  0  0  0  0
  180.2090  179.6660  141.7700 C   0  0  0  0  0  0  0  0  0  0  0  0
  179.5980  179.4420  140.6940 O   0  0  0  0  0  0  0  0  0  0  0  0
  1 10  1  0  0  0  0
  2  7  2  0  0  0  0
  2  6  1  0  0  0  0
  3  8  1  0  0  0  0
  4  1  2  0  0  0  0
  5  3  2  0  0  0  0
  8 15  1  0  0  0  0
  9  6  1  0  0  0  0
 10  2  1  0  0  0  0
 11  4  1  0  0  0  0
 11  8  2  0  0  0  0
 12 13  2  0  0  0  0
 12  5  1  0  0  0  0
 13 11  1  0  0  0  0
 14  9  2  0  0  0  0
 15 10  2  0  0  0  0
 15 14  1  0  0  0  0
 16 24  1  1  0  0  0
 16  4  1  0  0  0  0
 18 17  2  0  0  0  0
 18 16  1  0  0  0  0
 19 18  1  0  0  0  0
 20 19  1  0  0  0  0
 22 23  1  1  0  0  0
 22 21  1  0  0  0  0
 22 20  1  0  0  0  0
 24 25  2  0  0  0  0
 25 26  1  0  0  0  0
 27 26  1  0  0  0  0
 29 27  1  0  0  0  0
 29 28  1  0  0  0  0
 30 29  2  0  0  0  0
M  END
>  <MODEL>
7

>  <REMARK>
 VINA RESULT:      -8.3      2.900      7.029
  Name = 
  7 active torsions:
  status: ('A' for Active; 'I' for Inactive)
    1  A    between atoms: C_4  and  C_13
    2  A    between atoms: N_7  and  C_16
    3  A    between atoms: C_8  and  C_13
    4  A    between atoms: O_9  and  N_12
    5  A    between atoms: O_9  and  C_17
    6  A    between atoms: C_13  and  C_27
    7  A    between atoms: C_16  and  C_30
                            x       y       z     vdW  Elec       q    Type
                         _______ _______ _______ _____ _____    ______ ____

>  <TORSDO>
F 7

$$$$
=
 OpenBabel10262421553D

 30 32  0  0  1  0  0  0  0  0999 V2000
  188.3710  177.1420  143.2400 N   0  0  0  0  0  0  0  0  0  0  0  0
  190.6490  176.1910  143.4550 C   0  0  0  0  0  0  0  0  0  0  0  0
  188.0760  177.9630  147.3210 C   0  0  0  0  0  3  0  0  0  0  0  0
  187.2190  177.6890  143.7150 C   0  0  0  0  0  0  0  0  0  0  0  0
  186.9020  178.5160  147.8370 C   0  0  0  0  0  3  0  0  0  0  0  0
  191.7790  176.2270  144.3340 O   0  0  0  0  0  0  0  0  0  0  0  0
  190.9930  176.7720  142.2320 O   0  0  0  0  0  0  0  0  0  0  0  0
  188.1920  177.6860  145.9480 C   0  0  0  0  0  0  0  0  0  0  0  0
  191.6700  176.4030  145.7180 C   0  0  0  0  0  3  0  0  0  0  0  0
  189.4400  176.8750  144.0370 C   0  0  0  0  0  0  0  0  0  0  0  0
  187.1020  177.9730  145.0890 C   0  0  0  0  0  0  0  0  0  0  0  0
  185.8300  178.7990  146.9880 C   0  0  0  0  0  3  0  0  0  0  0  0
  185.9290  178.5290  145.6220 C   0  0  0  0  0  3  0  0  0  0  0  0
  190.5330  176.8240  146.2670 C   0  0  0  0  0  3  0  0  0  0  0  0
  189.3680  177.1300  145.4160 C   0  0  0  0  0  0  0  0  0  0  0  0
  186.0710  177.9460  142.7710 C   0  0  2  0  0  3  0  0  0  0  0  0
  185.7340  180.0890  141.7980 O   0  0  0  0  0  0  0  0  0  0  0  0
  186.3440  178.9910  141.7240 C   0  0  0  0  0  0  0  0  0  0  0  0
  187.3230  178.8110  140.6950 N   0  0  0  0  0  2  0  0  0  0  0  0
  187.8160  177.5900  140.3560 O   0  0  0  0  0  0  0  0  0  0  0  0
  188.8960  179.0190  138.8830 O   0  0  0  0  0  1  0  0  0  0  0  0
  188.4220  177.7200  139.0880 C   0  0  2  0  0  3  0  0  0  0  0  0
  187.5130  177.2930  137.9440 C   0  0  0  0  0  1  0  0  0  0  0  0
  184.7320  178.0970  143.4410 C   0  0  0  0  0  3  0  0  0  0  0  0
  183.6610  178.5700  142.8010 C   0  0  0  0  0  3  0  0  0  0  0  0
  182.3550  178.7140  143.5060 C   0  0  0  0  0  2  0  0  0  0  0  0
  181.2640  178.6570  142.5460 N   0  0  0  0  0  2  0  0  0  0  0  0
  179.6210  178.0480  144.2970 N   0  0  0  0  0  1  0  0  0  0  0  0
  179.9310  178.3310  142.9360 C   0  0  0  0  0  0  0  0  0  0  0  0
  179.0210  178.2930  142.0680 O   0  0  0  0  0  0  0  0  0  0  0  0
  1  4  2  0  0  0  0
  1 10  1  0  0  0  0
  2 10  1  0  0  0  0
  2  6  1  0  0  0  0
  3  5  1  0  0  0  0
  4 11  1  0  0  0  0
  6  9  1  0  0  0  0
  7  2  2  0  0  0  0
  8  3  2  0  0  0  0
  9 14  2  0  0  0  0
 10 15  2  0  0  0  0
 11 13  2  0  0  0  0
 11  8  1  0  0  0  0
 12  5  2  0  0  0  0
 13 12  1  0  0  0  0
 15  8  1  0  0  0  0
 15 14  1  0  0  0  0
 16 24  1  1  0  0  0
 16  4  1  0  0  0  0
 18 17  2  0  0  0  0
 18 16  1  0  0  0  0
 19 18  1  0  0  0  0
 20 19  1  0  0  0  0
 21 22  1  0  0  0  0
 22 23  1  6  0  0  0
 22 20  1  0  0  0  0
 25 24  2  0  0  0  0
 25 26  1  0  0  0  0
 27 29  1  0  0  0  0
 27 26  1  0  0  0  0
 29 28  1  0  0  0  0
 30 29  2  0  0  0  0
M  END
>  <MODEL>
8

>  <REMARK>
 VINA RESULT:      -8.3      2.395      6.578
  Name = 
  7 active torsions:
  status: ('A' for Active; 'I' for Inactive)
    1  A    between atoms: C_4  and  C_13
    2  A    between atoms: N_7  and  C_16
    3  A    between atoms: C_8  and  C_13
    4  A    between atoms: O_9  and  N_12
    5  A    between atoms: O_9  and  C_17
    6  A    between atoms: C_13  and  C_27
    7  A    between atoms: C_16  and  C_30
                            x       y       z     vdW  Elec       q    Type
                         _______ _______ _______ _____ _____    ______ ____

>  <TORSDO>
F 7

$$$$
=
 OpenBabel10262421553D

 30 32  0  0  1  0  0  0  0  0999 V2000
  187.7890  177.8980  144.1280 N   0  0  0  0  0  0  0  0  0  0  0  0
  185.8860  178.8150  145.4210 C   0  0  0  0  0  0  0  0  0  0  0  0
  190.0280  177.0820  147.5530 C   0  0  0  0  0  3  0  0  0  0  0  0
  189.0350  177.3680  143.9840 C   0  0  0  0  0  0  0  0  0  0  0  0
  191.3130  176.5470  147.4350 C   0  0  0  0  0  3  0  0  0  0  0  0
  185.3220  178.7630  146.7360 O   0  0  0  0  0  0  0  0  0  0  0  0
  185.0030  178.2290  144.5130 O   0  0  0  0  0  0  0  0  0  0  0  0
  189.2610  177.3570  146.4090 C   0  0  0  0  0  0  0  0  0  0  0  0
  186.0880  178.5890  147.8950 C   0  0  0  0  0  3  0  0  0  0  0  0
  187.2350  178.1490  145.3430 C   0  0  0  0  0  0  0  0  0  0  0  0
  189.8040  177.0860  145.1290 C   0  0  0  0  0  0  0  0  0  0  0  0
  191.8450  176.2800  146.1720 C   0  0  0  0  0  3  0  0  0  0  0  0
  191.0960  176.5480  145.0260 C   0  0  0  0  0  3  0  0  0  0  0  0
  187.3530  178.1860  147.8240 C   0  0  0  0  0  3  0  0  0  0  0  0
  187.9660  177.8960  146.5140 C   0  0  0  0  0  0  0  0  0  0  0  0
  189.5870  177.1270  142.6020 C   0  0  2  0  0  3  0  0  0  0  0  0
  191.0690  178.9560  142.9370 O   0  0  0  0  0  0  0  0  0  0  0  0
  190.8300  177.9100  142.2790 C   0  0  0  0  0  0  0  0  0  0  0  0
  191.7870  177.4690  141.3100 N   0  0  0  0  0  2  0  0  0  0  0  0
  191.4970  176.5370  140.3630 O   0  0  0  0  0  0  0  0  0  0  0  0
  190.5770  177.2480  138.3570 O   0  0  0  0  0  1  0  0  0  0  0  0
  191.7520  177.1230  139.1040 C   0  0  2  0  0  3  0  0  0  0  0  0
  192.8200  176.3880  138.3080 C   0  0  0  0  0  1  0  0  0  0  0  0
  188.5590  177.1480  141.5040 C   0  0  0  0  0  3  0  0  0  0  0  0
  188.3300  178.2300  140.7570 C   0  0  0  0  0  3  0  0  0  0  0  0
  187.2930  178.2110  139.6860 C   0  0  0  0  0  2  0  0  0  0  0  0
  186.1040  178.9170  140.1350 N   0  0  0  0  0  2  0  0  0  0  0  0
  184.8130  178.2220  138.1380 N   0  0  0  0  0  1  0  0  0  0  0  0
  184.8950  178.9210  139.3770 C   0  0  0  0  0  0  0  0  0  0  0  0
  183.8930  179.5470  139.8060 O   0  0  0  0  0  0  0  0  0  0  0  0
  1 10  1  0  0  0  0
  2  6  1  0  0  0  0
  4  1  2  0  0  0  0
  4 11  1  0  0  0  0
  5  3  1  0  0  0  0
  6  9  1  0  0  0  0
  7  2  2  0  0  0  0
  8 15  1  0  0  0  0
  8  3  2  0  0  0  0
 10  2  1  0  0  0  0
 10 15  2  0  0  0  0
 11  8  1  0  0  0  0
 12  5  2  0  0  0  0
 13 11  2  0  0  0  0
 13 12  1  0  0  0  0
 14  9  2  0  0  0  0
 15 14  1  0  0  0  0
 16 24  1  6  0  0  0
 16  4  1  0  0  0  0
 18 16  1  0  0  0  0
 18 17  2  0  0  0  0
 19 18  1  0  0  0  0
 20 19  1  0  0  0  0
 21 22  1  0  0  0  0
 22 23  1  6  0  0  0
 22 20  1  0  0  0  0
 25 24  2  0  0  0  0
 26 27  1  0  0  0  0
 26 25  1  0  0  0  0
 28 29  1  0  0  0  0
 29 30  2  0  0  0  0
 29 27  1  0  0  0  0
M  END
>  <MODEL>
9

>  <REMARK>
 VINA RESULT:      -7.9      2.102      4.214
  Name = 
  7 active torsions:
  status: ('A' for Active; 'I' for Inactive)
    1  A    between atoms: C_4  and  C_13
    2  A    between atoms: N_7  and  C_16
    3  A    between atoms: C_8  and  C_13
    4  A    between atoms: O_9  and  N_12
    5  A    between atoms: O_9  and  C_17
    6  A    between atoms: C_13  and  C_27
    7  A    between atoms: C_16  and  C_30
                            x       y       z     vdW  Elec       q    Type
                         _______ _______ _______ _____ _____    ______ ____

>  <TORSDO>
F 7

$$$$
