=
 OpenBabel10262419523D

 25 28  0  0  0  0  0  0  0  0999 V2000
  187.4490  177.8640  145.6900 C   0  0  0  0  0  0  0  0  0  0  0  0
  188.7210  177.4340  145.2540 C   0  0  0  0  0  0  0  0  0  0  0  0
  188.2130  177.9220  148.0080 C   0  0  0  0  0  3  0  0  0  0  0  0
  186.2960  178.1120  144.9200 C   0  0  0  0  0  0  0  0  0  0  0  0
  183.8290  178.6970  143.7380 C   0  0  0  0  0  3  0  0  0  0  0  0
  189.4760  177.4960  147.5850 C   0  0  0  0  0  3  0  0  0  0  0  0
  185.2110  178.5280  145.6900 C   0  0  0  0  0  0  0  0  0  0  0  0
  183.9720  178.8260  145.1270 C   0  0  0  0  0  3  0  0  0  0  0  0
  191.0620  176.8040  145.7840 C   0  0  0  0  0  0  0  0  0  0  0  0
  191.9900  176.6320  146.6180 O   0  0  0  0  0  0  0  0  0  0  0  0
  188.9990  177.1740  143.7940 C   0  0  0  0  0  2  0  0  0  0  0  0
  184.9140  178.2790  142.9460 C   0  0  0  0  0  3  0  0  0  0  0  0
  187.2230  178.0980  147.0480 C   0  0  0  0  0  0  0  0  0  0  0  0
  185.6370  178.6010  147.3170 S   0  0  0  0  0  0  0  0  0  0  0  0
  191.3060  176.5580  144.3990 N   0  0  0  0  0  0  0  0  0  0  0  0
  186.1530  177.9830  143.5340 C   0  0  0  0  0  3  0  0  0  0  0  0
  190.4000  176.7140  143.4760 C   0  0  0  0  0  0  0  0  0  0  0  0
  189.7340  177.2530  146.2220 C   0  0  0  0  0  0  0  0  0  0  0  0
  190.7200  176.4420  142.0700 C   0  0  0  0  0  3  0  0  0  0  0  0
  191.2750  177.3530  141.2770 C   0  0  0  0  0  3  0  0  0  0  0  0
  191.6410  176.9540  139.5750 S   0  0  0  0  0  0  0  0  0  0  0  0
  189.8780  176.8800  139.1340 C   0  0  0  0  0  2  0  0  0  0  0  0
  189.2760  178.2730  139.1230 C   0  0  0  0  0  3  0  0  0  0  0  0
  188.9520  178.6650  137.6980 C   0  0  0  0  0  1  0  0  0  0  0  0
  188.0030  178.2980  139.9470 C   0  0  0  0  0  1  0  0  0  0  0  0
  1 13  1  0  0  0  0
  2  1  2  0  0  0  0
  2 18  1  0  0  0  0
  4  7  1  0  0  0  0
  4  1  1  0  0  0  0
  5  8  1  0  0  0  0
  6  3  1  0  0  0  0
  7 14  1  0  0  0  0
  8  7  2  0  0  0  0
  9 18  1  0  0  0  0
  9 10  2  0  0  0  0
 11  2  1  0  0  0  0
 12 16  1  0  0  0  0
 12  5  2  0  0  0  0
 13 14  1  0  0  0  0
 13  3  2  0  0  0  0
 15  9  1  0  0  0  0
 16  4  2  0  0  0  0
 17 11  1  0  0  0  0
 17 15  2  0  0  0  0
 18  6  2  0  0  0  0
 19 17  1  0  0  0  0
 20 19  2  0  0  0  0
 21 20  1  0  0  0  0
 22 21  1  0  0  0  0
 23 22  1  0  0  0  0
 23 25  1  0  0  0  0
 24 23  1  0  0  0  0
M  END
>  <MODEL>
1

>  <REMARK>
 VINA RESULT:     -10.2      0.000      0.000
  Name = 
  4 active torsions:
  status: ('A' for Active; 'I' for Inactive)
    1  A    between atoms: C_2  and  C_25
    2  A    between atoms: C_6  and  C_23
    3  A    between atoms: C_15  and  S_21
    4  A    between atoms: S_21  and  C_25
                            x       y       z     vdW  Elec       q    Type
                         _______ _______ _______ _____ _____    ______ ____

>  <TORSDO>
F 4

$$$$
=
 OpenBabel10262419523D

 25 28  0  0  0  0  0  0  0  0999 V2000
  187.2680  177.8870  145.3510 C   0  0  0  0  0  0  0  0  0  0  0  0
  188.5060  177.4700  144.8160 C   0  0  0  0  0  0  0  0  0  0  0  0
  188.1740  177.8200  147.6170 C   0  0  0  0  0  3  0  0  0  0  0  0
  186.0730  178.1840  144.6680 C   0  0  0  0  0  0  0  0  0  0  0  0
  183.5450  178.8510  143.6730 C   0  0  0  0  0  3  0  0  0  0  0  0
  189.4030  177.4060  147.0950 C   0  0  0  0  0  3  0  0  0  0  0  0
  185.0420  178.5690  145.5240 C   0  0  0  0  0  0  0  0  0  0  0  0
  183.7750  178.9070  145.0550 C   0  0  0  0  0  3  0  0  0  0  0  0
  190.8670  176.7930  145.1670 C   0  0  0  0  0  0  0  0  0  0  0  0
  191.8430  176.5700  145.9320 O   0  0  0  0  0  0  0  0  0  0  0  0
  188.6900  177.2820  143.3300 C   0  0  0  0  0  2  0  0  0  0  0  0
  184.5740  178.4640  142.7950 C   0  0  0  0  0  3  0  0  0  0  0  0
  187.1290  178.0540  146.7310 C   0  0  0  0  0  0  0  0  0  0  0  0
  185.5680  178.5560  147.1230 S   0  0  0  0  0  0  0  0  0  0  0  0
  191.0220  176.6160  143.7590 N   0  0  0  0  0  0  0  0  0  0  0  0
  185.8430  178.1280  143.2890 C   0  0  0  0  0  3  0  0  0  0  0  0
  190.0630  176.8270  142.9030 C   0  0  0  0  0  0  0  0  0  0  0  0
  189.5740  177.2300  145.7080 C   0  0  0  0  0  0  0  0  0  0  0  0
  190.2930  176.6240  141.4680 C   0  0  0  0  0  3  0  0  0  0  0  0
  189.8050  177.4460  140.5450 C   0  0  0  0  0  3  0  0  0  0  0  0
  190.1260  177.1410  138.8150 S   0  0  0  0  0  0  0  0  0  0  0  0
  189.2380  178.6450  138.3080 C   0  0  0  0  0  2  0  0  0  0  0  0
  188.9020  178.5890  136.8300 C   0  0  0  0  0  3  0  0  0  0  0  0
  189.4450  177.3050  136.2430 C   0  0  0  0  0  1  0  0  0  0  0  0
  187.3980  178.6260  136.6350 C   0  0  0  0  0  1  0  0  0  0  0  0
  1 13  1  0  0  0  0
  2  1  2  0  0  0  0
  2 18  1  0  0  0  0
  4  1  1  0  0  0  0
  4  7  1  0  0  0  0
  5  8  1  0  0  0  0
  6  3  1  0  0  0  0
  7 14  1  0  0  0  0
  8  7  2  0  0  0  0
  9 18  1  0  0  0  0
  9 10  2  0  0  0  0
 11  2  1  0  0  0  0
 12 16  1  0  0  0  0
 12  5  2  0  0  0  0
 13 14  1  0  0  0  0
 13  3  2  0  0  0  0
 15  9  1  0  0  0  0
 16  4  2  0  0  0  0
 17 11  1  0  0  0  0
 17 15  2  0  0  0  0
 18  6  2  0  0  0  0
 19 17  1  0  0  0  0
 20 19  2  0  0  0  0
 21 20  1  0  0  0  0
 22 21  1  0  0  0  0
 23 22  1  0  0  0  0
 24 23  1  0  0  0  0
 25 23  1  0  0  0  0
M  END
>  <MODEL>
2

>  <REMARK>
 VINA RESULT:      -9.7      0.869      1.194
  Name = 
  4 active torsions:
  status: ('A' for Active; 'I' for Inactive)
    1  A    between atoms: C_2  and  C_25
    2  A    between atoms: C_6  and  C_23
    3  A    between atoms: C_15  and  S_21
    4  A    between atoms: S_21  and  C_25
                            x       y       z     vdW  Elec       q    Type
                         _______ _______ _______ _____ _____    ______ ____

>  <TORSDO>
F 4

$$$$
=
 OpenBabel10262419523D

 25 28  0  0  0  0  0  0  0  0999 V2000
  185.9490  178.3740  144.6210 C   0  0  0  0  0  0  0  0  0  0  0  0
  186.0440  178.4700  143.2160 C   0  0  0  0  0  0  0  0  0  0  0  0
  183.5700  178.9110  144.5450 C   0  0  0  0  0  3  0  0  0  0  0  0
  186.9650  178.0690  145.5500 C   0  0  0  0  0  0  0  0  0  0  0  0
  188.6970  177.5050  147.6720 C   0  0  0  0  0  3  0  0  0  0  0  0
  183.6540  179.0090  143.1520 C   0  0  0  0  0  3  0  0  0  0  0  0
  186.5080  178.0600  146.8670 C   0  0  0  0  0  0  0  0  0  0  0  0
  187.3490  177.7820  147.9410 C   0  0  0  0  0  3  0  0  0  0  0  0
  184.9590  178.8980  141.0260 C   0  0  0  0  0  0  0  0  0  0  0  0
  183.9390  179.1820  140.3430 O   0  0  0  0  0  0  0  0  0  0  0  0
  187.3530  178.2370  142.5040 C   0  0  0  0  0  2  0  0  0  0  0  0
  189.1740  177.5090  146.3490 C   0  0  0  0  0  3  0  0  0  0  0  0
  184.7230  178.5930  145.2520 C   0  0  0  0  0  0  0  0  0  0  0  0
  184.8650  178.4210  146.9230 S   0  0  0  0  0  0  0  0  0  0  0  0
  186.2080  178.6780  140.3690 N   0  0  0  0  0  0  0  0  0  0  0  0
  188.3100  177.7920  145.2800 C   0  0  0  0  0  3  0  0  0  0  0  0
  187.3060  178.3790  141.0030 C   0  0  0  0  0  0  0  0  0  0  0  0
  184.8770  178.7920  142.4880 C   0  0  0  0  0  0  0  0  0  0  0  0
  188.5540  178.1680  140.2630 C   0  0  0  0  0  3  0  0  0  0  0  0
  189.5160  177.3640  140.7040 C   0  0  0  0  0  3  0  0  0  0  0  0
  191.0120  177.1510  139.7510 S   0  0  0  0  0  0  0  0  0  0  0  0
  192.0670  177.4090  141.2090 C   0  0  0  0  0  2  0  0  0  0  0  0
  191.2380  177.3660  142.4780 C   0  0  0  0  0  3  0  0  0  0  0  0
  191.5800  176.1150  143.2570 C   0  0  0  0  0  1  0  0  0  0  0  0
  191.5320  178.5820  143.3350 C   0  0  0  0  0  1  0  0  0  0  0  0
  1 13  2  0  0  0  0
  1  4  1  0  0  0  0
  2  1  1  0  0  0  0
  3 13  1  0  0  0  0
  4  7  1  0  0  0  0
  5  8  1  0  0  0  0
  6  3  2  0  0  0  0
  7 14  1  0  0  0  0
  7  8  2  0  0  0  0
  9 18  1  0  0  0  0
 10  9  2  0  0  0  0
 11  2  1  0  0  0  0
 12  5  2  0  0  0  0
 13 14  1  0  0  0  0
 15 17  2  0  0  0  0
 15  9  1  0  0  0  0
 16  4  2  0  0  0  0
 16 12  1  0  0  0  0
 17 11  1  0  0  0  0
 18  6  1  0  0  0  0
 18  2  2  0  0  0  0
 19 20  2  0  0  0  0
 19 17  1  0  0  0  0
 21 20  1  0  0  0  0
 21 22  1  0  0  0  0
 22 23  1  0  0  0  0
 23 24  1  0  0  0  0
 23 25  1  0  0  0  0
M  END
>  <MODEL>
3

>  <REMARK>
 VINA RESULT:      -9.6      2.736      4.956
  Name = 
  4 active torsions:
  status: ('A' for Active; 'I' for Inactive)
    1  A    between atoms: C_2  and  C_25
    2  A    between atoms: C_6  and  C_23
    3  A    between atoms: C_15  and  S_21
    4  A    between atoms: S_21  and  C_25
                            x       y       z     vdW  Elec       q    Type
                         _______ _______ _______ _____ _____    ______ ____

>  <TORSDO>
F 4

$$$$
=
 OpenBabel10262419523D

 25 28  0  0  0  0  0  0  0  0999 V2000
  187.1600  177.9050  145.1660 C   0  0  0  0  0  0  0  0  0  0  0  0
  188.3850  177.5180  144.5810 C   0  0  0  0  0  0  0  0  0  0  0  0
  188.1270  177.7530  147.4020 C   0  0  0  0  0  3  0  0  0  0  0  0
  185.9450  178.2220  144.5270 C   0  0  0  0  0  0  0  0  0  0  0  0
  183.3870  178.9100  143.6280 C   0  0  0  0  0  3  0  0  0  0  0  0
  189.3440  177.3680  146.8320 C   0  0  0  0  0  3  0  0  0  0  0  0
  184.9350  178.5650  145.4260 C   0  0  0  0  0  0  0  0  0  0  0  0
  183.6540  178.9120  145.0050 C   0  0  0  0  0  3  0  0  0  0  0  0
  190.7590  176.8440  144.8420 C   0  0  0  0  0  0  0  0  0  0  0  0
  191.7570  176.5970  145.5710 O   0  0  0  0  0  0  0  0  0  0  0  0
  188.5310  177.3920  143.0840 C   0  0  0  0  0  2  0  0  0  0  0  0
  184.3940  178.5670  142.7080 C   0  0  0  0  0  3  0  0  0  0  0  0
  187.0570  178.0150  146.5540 C   0  0  0  0  0  0  0  0  0  0  0  0
  185.5050  178.4900  147.0080 S   0  0  0  0  0  0  0  0  0  0  0  0
  190.8770  176.7250  143.4230 N   0  0  0  0  0  0  0  0  0  0  0  0
  185.6790  178.2200  143.1540 C   0  0  0  0  0  3  0  0  0  0  0  0
  189.8940  176.9640  142.6030 C   0  0  0  0  0  0  0  0  0  0  0  0
  189.4780  177.2500  145.4350 C   0  0  0  0  0  0  0  0  0  0  0  0
  190.0870  176.8210  141.1560 C   0  0  0  0  0  3  0  0  0  0  0  0
  189.2440  177.3420  140.2700 C   0  0  0  0  0  3  0  0  0  0  0  0
  189.5400  177.1320  138.5210 S   0  0  0  0  0  0  0  0  0  0  0  0
  191.2620  176.6180  138.7980 C   0  0  0  0  0  2  0  0  0  0  0  0
  191.8590  176.0570  137.5210 C   0  0  0  0  0  3  0  0  0  0  0  0
  193.3310  176.4050  137.4620 C   0  0  0  0  0  1  0  0  0  0  0  0
  191.7030  174.5490  137.4910 C   0  0  0  0  0  1  0  0  0  0  0  0
  1 13  1  0  0  0  0
  2  1  2  0  0  0  0
  2 18  1  0  0  0  0
  4  1  1  0  0  0  0
  4  7  1  0  0  0  0
  5  8  1  0  0  0  0
  6  3  1  0  0  0  0
  7 14  1  0  0  0  0
  8  7  2  0  0  0  0
  9 18  1  0  0  0  0
  9 10  2  0  0  0  0
 11  2  1  0  0  0  0
 12 16  1  0  0  0  0
 12  5  2  0  0  0  0
 13 14  1  0  0  0  0
 13  3  2  0  0  0  0
 15  9  1  0  0  0  0
 16  4  2  0  0  0  0
 17 11  1  0  0  0  0
 17 15  2  0  0  0  0
 18  6  2  0  0  0  0
 19 17  1  0  0  0  0
 20 19  2  0  0  0  0
 21 22  1  0  0  0  0
 21 20  1  0  0  0  0
 23 22  1  0  0  0  0
 24 23  1  0  0  0  0
 25 23  1  0  0  0  0
M  END
>  <MODEL>
4

>  <REMARK>
 VINA RESULT:      -9.5      1.473      1.962
  Name = 
  4 active torsions:
  status: ('A' for Active; 'I' for Inactive)
    1  A    between atoms: C_2  and  C_25
    2  A    between atoms: C_6  and  C_23
    3  A    between atoms: C_15  and  S_21
    4  A    between atoms: S_21  and  C_25
                            x       y       z     vdW  Elec       q    Type
                         _______ _______ _______ _____ _____    ______ ____

>  <TORSDO>
F 4

$$$$
=
 OpenBabel10262419523D

 25 28  0  0  0  0  0  0  0  0999 V2000
  187.7060  177.7770  145.6260 C   0  0  0  0  0  0  0  0  0  0  0  0
  186.9580  178.0930  144.4710 C   0  0  0  0  0  0  0  0  0  0  0  0
  185.7870  178.2570  147.0560 C   0  0  0  0  0  3  0  0  0  0  0  0
  189.0490  177.3580  145.7130 C   0  0  0  0  0  0  0  0  0  0  0  0
  191.6540  176.5170  146.2830 C   0  0  0  0  0  3  0  0  0  0  0  0
  185.0390  178.5720  145.9180 C   0  0  0  0  0  3  0  0  0  0  0  0
  189.4600  177.1330  147.0260 C   0  0  0  0  0  0  0  0  0  0  0  0
  190.7500  176.7130  147.3370 C   0  0  0  0  0  3  0  0  0  0  0  0
  184.8230  178.8280  143.4430 C   0  0  0  0  0  0  0  0  0  0  0  0
  183.6190  179.1880  143.5490 O   0  0  0  0  0  0  0  0  0  0  0  0
  187.5720  178.0080  143.0950 C   0  0  0  0  0  2  0  0  0  0  0  0
  191.2560  176.7400  144.9530 C   0  0  0  0  0  3  0  0  0  0  0  0
  187.1090  177.8630  146.8850 C   0  0  0  0  0  0  0  0  0  0  0  0
  188.1990  177.4370  148.0990 S   0  0  0  0  0  0  0  0  0  0  0  0
  185.4210  178.7460  142.1490 N   0  0  0  0  0  0  0  0  0  0  0  0
  189.9500  177.1630  144.6610 C   0  0  0  0  0  3  0  0  0  0  0  0
  186.6570  178.3820  141.9560 C   0  0  0  0  0  0  0  0  0  0  0  0
  185.6130  178.4940  144.6340 C   0  0  0  0  0  0  0  0  0  0  0  0
  187.2070  178.3210  140.5980 C   0  0  0  0  0  3  0  0  0  0  0  0
  188.5060  178.4490  140.3490 C   0  0  0  0  0  3  0  0  0  0  0  0
  189.1100  178.3630  138.6700 S   0  0  0  0  0  0  0  0  0  0  0  0
  187.9550  177.0250  138.2440 C   0  0  0  0  0  2  0  0  0  0  0  0
  187.1430  177.3960  137.0180 C   0  0  0  0  0  3  0  0  0  0  0  0
  185.6700  177.3460  137.3600 C   0  0  0  0  0  1  0  0  0  0  0  0
  187.5000  178.7970  136.5600 C   0  0  0  0  0  1  0  0  0  0  0  0
  1  4  1  0  0  0  0
  1 13  2  0  0  0  0
  2 18  2  0  0  0  0
  2  1  1  0  0  0  0
  4  7  1  0  0  0  0
  5  8  1  0  0  0  0
  6  3  2  0  0  0  0
  7  8  2  0  0  0  0
  7 14  1  0  0  0  0
  9 10  2  0  0  0  0
  9 18  1  0  0  0  0
 11  2  1  0  0  0  0
 12  5  2  0  0  0  0
 13  3  1  0  0  0  0
 13 14  1  0  0  0  0
 15  9  1  0  0  0  0
 16 12  1  0  0  0  0
 16  4  2  0  0  0  0
 17 15  2  0  0  0  0
 17 11  1  0  0  0  0
 18  6  1  0  0  0  0
 19 17  1  0  0  0  0
 20 19  2  0  0  0  0
 21 20  1  0  0  0  0
 22 21  1  0  0  0  0
 23 24  1  0  0  0  0
 23 22  1  0  0  0  0
 25 23  1  0  0  0  0
M  END
>  <MODEL>
5

>  <REMARK>
 VINA RESULT:      -9.4      2.761      4.745
  Name = 
  4 active torsions:
  status: ('A' for Active; 'I' for Inactive)
    1  A    between atoms: C_2  and  C_25
    2  A    between atoms: C_6  and  C_23
    3  A    between atoms: C_15  and  S_21
    4  A    between atoms: S_21  and  C_25
                            x       y       z     vdW  Elec       q    Type
                         _______ _______ _______ _____ _____    ______ ____

>  <TORSDO>
F 4

$$$$
=
 OpenBabel10262419523D

 25 28  0  0  0  0  0  0  0  0999 V2000
  187.8270  177.7030  145.3270 C   0  0  0  0  0  0  0  0  0  0  0  0
  186.6150  178.0170  144.6750 C   0  0  0  0  0  0  0  0  0  0  0  0
  186.8570  178.2550  147.4970 C   0  0  0  0  0  3  0  0  0  0  0  0
  189.0360  177.2530  144.7600 C   0  0  0  0  0  0  0  0  0  0  0  0
  191.5780  176.3580  144.0100 C   0  0  0  0  0  3  0  0  0  0  0  0
  185.6520  178.5680  146.8600 C   0  0  0  0  0  3  0  0  0  0  0  0
  190.0330  177.0410  145.7110 C   0  0  0  0  0  0  0  0  0  0  0  0
  191.3060  176.5950  145.3650 C   0  0  0  0  0  3  0  0  0  0  0  0
  184.2590  178.7850  144.7990 C   0  0  0  0  0  0  0  0  0  0  0  0
  183.2650  179.1760  145.4690 O   0  0  0  0  0  0  0  0  0  0  0  0
  186.4780  177.8920  143.1770 C   0  0  0  0  0  2  0  0  0  0  0  0
  190.5830  176.5670  143.0370 C   0  0  0  0  0  3  0  0  0  0  0  0
  187.9220  177.8260  146.7140 C   0  0  0  0  0  0  0  0  0  0  0  0
  189.4600  177.3950  147.2540 S   0  0  0  0  0  0  0  0  0  0  0  0
  184.1490  178.6660  143.3800 N   0  0  0  0  0  0  0  0  0  0  0  0
  189.3070  177.0170  143.4080 C   0  0  0  0  0  3  0  0  0  0  0  0
  185.1280  178.2670  142.6200 C   0  0  0  0  0  0  0  0  0  0  0  0
  185.5260  178.4530  145.4620 C   0  0  0  0  0  0  0  0  0  0  0  0
  184.9440  178.1690  141.1670 C   0  0  0  0  0  3  0  0  0  0  0  0
  185.8440  178.6270  140.3030 C   0  0  0  0  0  3  0  0  0  0  0  0
  185.5580  178.4730  138.5470 S   0  0  0  0  0  0  0  0  0  0  0  0
  187.0720  177.4940  138.3100 C   0  0  0  0  0  2  0  0  0  0  0  0
  188.2800  178.2540  138.8260 C   0  0  0  0  0  3  0  0  0  0  0  0
  189.1790  177.3040  139.5870 C   0  0  0  0  0  1  0  0  0  0  0  0
  189.0550  178.8500  137.6670 C   0  0  0  0  0  1  0  0  0  0  0  0
  1 13  1  0  0  0  0
  2  1  2  0  0  0  0
  2 18  1  0  0  0  0
  4  1  1  0  0  0  0
  4  7  1  0  0  0  0
  5  8  1  0  0  0  0
  6  3  1  0  0  0  0
  7 14  1  0  0  0  0
  8  7  2  0  0  0  0
  9 18  1  0  0  0  0
  9 10  2  0  0  0  0
 11  2  1  0  0  0  0
 12 16  1  0  0  0  0
 12  5  2  0  0  0  0
 13 14  1  0  0  0  0
 13  3  2  0  0  0  0
 15  9  1  0  0  0  0
 16  4  2  0  0  0  0
 17 11  1  0  0  0  0
 17 15  2  0  0  0  0
 18  6  2  0  0  0  0
 19 17  1  0  0  0  0
 20 19  2  0  0  0  0
 21 20  1  0  0  0  0
 22 21  1  0  0  0  0
 22 23  1  0  0  0  0
 23 24  1  0  0  0  0
 25 23  1  0  0  0  0
M  END
>  <MODEL>
6

>  <REMARK>
 VINA RESULT:      -9.3      2.956      5.005
  Name = 
  4 active torsions:
  status: ('A' for Active; 'I' for Inactive)
    1  A    between atoms: C_2  and  C_25
    2  A    between atoms: C_6  and  C_23
    3  A    between atoms: C_15  and  S_21
    4  A    between atoms: S_21  and  C_25
                            x       y       z     vdW  Elec       q    Type
                         _______ _______ _______ _____ _____    ______ ____

>  <TORSDO>
F 4

$$$$
=
 OpenBabel10262419523D

 25 28  0  0  0  0  0  0  0  0999 V2000
  187.8700  177.6830  145.3860 C   0  0  0  0  0  0  0  0  0  0  0  0
  187.2280  178.0140  144.1730 C   0  0  0  0  0  0  0  0  0  0  0  0
  185.8260  178.1270  146.6440 C   0  0  0  0  0  3  0  0  0  0  0  0
  189.2020  177.2700  145.5880 C   0  0  0  0  0  0  0  0  0  0  0  0
  191.7510  176.4340  146.3790 C   0  0  0  0  0  3  0  0  0  0  0  0
  185.1820  178.4570  145.4470 C   0  0  0  0  0  3  0  0  0  0  0  0
  189.4940  177.0240  146.9290 C   0  0  0  0  0  0  0  0  0  0  0  0
  190.7540  176.6070  147.3500 C   0  0  0  0  0  3  0  0  0  0  0  0
  185.1900  178.7540  142.9670 C   0  0  0  0  0  0  0  0  0  0  0  0
  183.9790  179.1050  142.9700 O   0  0  0  0  0  0  0  0  0  0  0  0
  187.9650  177.9560  142.8580 C   0  0  0  0  0  2  0  0  0  0  0  0
  191.4740  176.6770  145.0220 C   0  0  0  0  0  3  0  0  0  0  0  0
  187.1610  177.7440  146.5870 C   0  0  0  0  0  0  0  0  0  0  0  0
  188.1390  177.3030  147.8880 S   0  0  0  0  0  0  0  0  0  0  0  0
  185.9040  178.6980  141.7320 N   0  0  0  0  0  0  0  0  0  0  0  0
  190.1970  177.0980  144.6200 C   0  0  0  0  0  3  0  0  0  0  0  0
  187.1550  178.3440  141.6470 C   0  0  0  0  0  0  0  0  0  0  0  0
  185.8710  178.4040  144.2200 C   0  0  0  0  0  0  0  0  0  0  0  0
  187.8270  178.3100  140.3430 C   0  0  0  0  0  3  0  0  0  0  0  0
  188.9620  177.6480  140.1440 C   0  0  0  0  0  3  0  0  0  0  0  0
  189.7260  177.6460  138.5300 S   0  0  0  0  0  0  0  0  0  0  0  0
  190.7060  176.1630  138.9120 C   0  0  0  0  0  2  0  0  0  0  0  0
  191.5890  175.7940  137.7360 C   0  0  0  0  0  3  0  0  0  0  0  0
  190.9000  176.1920  136.4490 C   0  0  0  0  0  1  0  0  0  0  0  0
  192.9180  176.5200  137.8330 C   0  0  0  0  0  1  0  0  0  0  0  0
  1  4  1  0  0  0  0
  1 13  2  0  0  0  0
  2 18  2  0  0  0  0
  2  1  1  0  0  0  0
  4  7  1  0  0  0  0
  5  8  1  0  0  0  0
  6  3  2  0  0  0  0
  7  8  2  0  0  0  0
  7 14  1  0  0  0  0
  9 10  2  0  0  0  0
  9 18  1  0  0  0  0
 11  2  1  0  0  0  0
 12  5  2  0  0  0  0
 13  3  1  0  0  0  0
 13 14  1  0  0  0  0
 15  9  1  0  0  0  0
 16 12  1  0  0  0  0
 16  4  2  0  0  0  0
 17 15  2  0  0  0  0
 17 11  1  0  0  0  0
 18  6  1  0  0  0  0
 19 17  1  0  0  0  0
 20 19  2  0  0  0  0
 21 22  1  0  0  0  0
 21 20  1  0  0  0  0
 23 25  1  0  0  0  0
 23 22  1  0  0  0  0
 24 23  1  0  0  0  0
M  END
>  <MODEL>
7

>  <REMARK>
 VINA RESULT:      -9.1      2.714      4.773
  Name = 
  4 active torsions:
  status: ('A' for Active; 'I' for Inactive)
    1  A    between atoms: C_2  and  C_25
    2  A    between atoms: C_6  and  C_23
    3  A    between atoms: C_15  and  S_21
    4  A    between atoms: S_21  and  C_25
                            x       y       z     vdW  Elec       q    Type
                         _______ _______ _______ _____ _____    ______ ____

>  <TORSDO>
F 4

$$$$
=
 OpenBabel10262419523D

 25 28  0  0  0  0  0  0  0  0999 V2000
  187.9590  177.6200  145.1950 C   0  0  0  0  0  0  0  0  0  0  0  0
  186.6830  177.9710  144.7030 C   0  0  0  0  0  0  0  0  0  0  0  0
  187.2550  178.0850  147.4850 C   0  0  0  0  0  3  0  0  0  0  0  0
  189.0880  177.1860  144.4720 C   0  0  0  0  0  0  0  0  0  0  0  0
  191.5140  176.3050  143.3940 C   0  0  0  0  0  3  0  0  0  0  0  0
  185.9890  178.4350  147.0070 C   0  0  0  0  0  3  0  0  0  0  0  0
  190.1860  176.9250  145.2910 C   0  0  0  0  0  0  0  0  0  0  0  0
  191.4040  176.4850  144.7800 C   0  0  0  0  0  3  0  0  0  0  0  0
  184.3680  178.7510  145.1340 C   0  0  0  0  0  0  0  0  0  0  0  0
  183.4640  179.1210  145.9300 O   0  0  0  0  0  0  0  0  0  0  0  0
  186.3720  177.9130  143.2270 C   0  0  0  0  0  2  0  0  0  0  0  0
  190.4160  176.5630  142.5530 C   0  0  0  0  0  3  0  0  0  0  0  0
  188.2170  177.6820  146.5660 C   0  0  0  0  0  0  0  0  0  0  0  0
  189.8010  177.2170  146.9030 S   0  0  0  0  0  0  0  0  0  0  0  0
  184.0920  178.6950  143.7340 N   0  0  0  0  0  0  0  0  0  0  0  0
  189.1970  177.0060  143.0890 C   0  0  0  0  0  3  0  0  0  0  0  0
  184.9710  178.3220  142.8480 C   0  0  0  0  0  0  0  0  0  0  0  0
  185.6990  178.3810  145.6300 C   0  0  0  0  0  0  0  0  0  0  0  0
  184.6180  178.2880  141.4240 C   0  0  0  0  0  3  0  0  0  0  0  0
  185.4370  178.7340  140.4770 C   0  0  0  0  0  3  0  0  0  0  0  0
  184.9450  178.6620  138.7610 S   0  0  0  0  0  0  0  0  0  0  0  0
  183.4620  179.6690  139.0650 C   0  0  0  0  0  2  0  0  0  0  0  0
  182.2340  178.9930  138.4840 C   0  0  0  0  0  3  0  0  0  0  0  0
  181.3880  178.4410  139.6110 C   0  0  0  0  0  1  0  0  0  0  0  0
  181.4140  179.9930  137.6910 C   0  0  0  0  0  1  0  0  0  0  0  0
  1 13  1  0  0  0  0
  2  1  2  0  0  0  0
  2 18  1  0  0  0  0
  4  1  1  0  0  0  0
  4  7  1  0  0  0  0
  5  8  1  0  0  0  0
  6  3  1  0  0  0  0
  7 14  1  0  0  0  0
  8  7  2  0  0  0  0
  9 18  1  0  0  0  0
  9 10  2  0  0  0  0
 11  2  1  0  0  0  0
 12 16  1  0  0  0  0
 12  5  2  0  0  0  0
 13 14  1  0  0  0  0
 13  3  2  0  0  0  0
 15  9  1  0  0  0  0
 16  4  2  0  0  0  0
 17 11  1  0  0  0  0
 17 15  2  0  0  0  0
 18  6  2  0  0  0  0
 19 17  1  0  0  0  0
 20 19  2  0  0  0  0
 21 22  1  0  0  0  0
 21 20  1  0  0  0  0
 23 22  1  0  0  0  0
 23 24  1  0  0  0  0
 25 23  1  0  0  0  0
M  END
>  <MODEL>
8

>  <REMARK>
 VINA RESULT:      -9.1      3.663      5.755
  Name = 
  4 active torsions:
  status: ('A' for Active; 'I' for Inactive)
    1  A    between atoms: C_2  and  C_25
    2  A    between atoms: C_6  and  C_23
    3  A    between atoms: C_15  and  S_21
    4  A    between atoms: S_21  and  C_25
                            x       y       z     vdW  Elec       q    Type
                         _______ _______ _______ _____ _____    ______ ____

>  <TORSDO>
F 4

$$$$
=
 OpenBabel10262419523D

 25 28  0  0  0  0  0  0  0  0999 V2000
  188.0090  177.5370  145.2640 C   0  0  0  0  0  0  0  0  0  0  0  0
  186.7530  177.8960  144.7300 C   0  0  0  0  0  0  0  0  0  0  0  0
  187.2120  177.9390  147.5350 C   0  0  0  0  0  3  0  0  0  0  0  0
  189.1690  177.1260  144.5760 C   0  0  0  0  0  0  0  0  0  0  0  0
  191.6400  176.2820  143.5740 C   0  0  0  0  0  3  0  0  0  0  0  0
  185.9640  178.2970  147.0150 C   0  0  0  0  0  3  0  0  0  0  0  0
  190.2340  176.8470  145.4310 C   0  0  0  0  0  0  0  0  0  0  0  0
  191.4740  176.4250  144.9590 C   0  0  0  0  0  3  0  0  0  0  0  0
  184.4180  178.6570  145.0870 C   0  0  0  0  0  0  0  0  0  0  0  0
  183.4810  179.0020  145.8560 O   0  0  0  0  0  0  0  0  0  0  0  0
  186.5010  177.8760  143.2420 C   0  0  0  0  0  2  0  0  0  0  0  0
  190.5750  176.5590  142.6970 C   0  0  0  0  0  3  0  0  0  0  0  0
  188.2110  177.5640  146.6450 C   0  0  0  0  0  0  0  0  0  0  0  0
  189.7830  177.0950  147.0340 S   0  0  0  0  0  0  0  0  0  0  0  0
  184.1990  178.6360  143.6760 N   0  0  0  0  0  0  0  0  0  0  0  0
  189.3340  176.9830  143.1940 C   0  0  0  0  0  3  0  0  0  0  0  0
  185.1150  178.2900  142.8170 C   0  0  0  0  0  0  0  0  0  0  0  0
  185.7300  178.2780  145.6270 C   0  0  0  0  0  0  0  0  0  0  0  0
  184.8200  178.2920  141.3800 C   0  0  0  0  0  3  0  0  0  0  0  0
  183.6280  178.6260  140.8980 C   0  0  0  0  0  3  0  0  0  0  0  0
  183.3380  178.6100  139.1350 S   0  0  0  0  0  0  0  0  0  0  0  0
  185.1060  178.3900  138.7710 C   0  0  0  0  0  2  0  0  0  0  0  0
  185.2880  177.7040  137.4300 C   0  0  0  0  0  3  0  0  0  0  0  0
  186.6950  177.1540  137.3380 C   0  0  0  0  0  1  0  0  0  0  0  0
  184.2980  176.5630  137.2880 C   0  0  0  0  0  1  0  0  0  0  0  0
  1 13  1  0  0  0  0
  2  1  2  0  0  0  0
  2 18  1  0  0  0  0
  4  1  1  0  0  0  0
  4  7  1  0  0  0  0
  5  8  1  0  0  0  0
  6  3  1  0  0  0  0
  7 14  1  0  0  0  0
  8  7  2  0  0  0  0
  9 18  1  0  0  0  0
  9 10  2  0  0  0  0
 11  2  1  0  0  0  0
 12 16  1  0  0  0  0
 12  5  2  0  0  0  0
 13 14  1  0  0  0  0
 13  3  2  0  0  0  0
 15  9  1  0  0  0  0
 16  4  2  0  0  0  0
 17 11  1  0  0  0  0
 17 15  2  0  0  0  0
 18  6  2  0  0  0  0
 19 17  1  0  0  0  0
 20 19  2  0  0  0  0
 21 20  1  0  0  0  0
 22 21  1  0  0  0  0
 23 22  1  0  0  0  0
 24 23  1  0  0  0  0
 25 23  1  0  0  0  0
M  END
>  <MODEL>
9

>  <REMARK>
 VINA RESULT:      -8.9      3.459      5.429
  Name = 
  4 active torsions:
  status: ('A' for Active; 'I' for Inactive)
    1  A    between atoms: C_2  and  C_25
    2  A    between atoms: C_6  and  C_23
    3  A    between atoms: C_15  and  S_21
    4  A    between atoms: S_21  and  C_25
                            x       y       z     vdW  Elec       q    Type
                         _______ _______ _______ _____ _____    ______ ____

>  <TORSDO>
F 4

$$$$
