=
 OpenBabel10262421323D

 32 36  0  0  1  0  0  0  0  0999 V2000
  187.9530  177.9600  137.3840 C   0  0  1  0  0  3  0  0  0  0  0  0
  188.0250  177.8690  142.4870 C   0  0  0  0  0  0  0  0  0  0  0  0
  183.4140  179.0140  143.8420 C   0  0  0  0  0  3  0  0  0  0  0  0
  183.7960  178.8280  145.1070 C   0  0  0  0  0  3  0  0  0  0  0  0
  188.6510  177.8850  140.1960 C   0  0  0  0  0  0  0  0  0  0  0  0
  186.4070  178.4100  140.8120 N   0  0  0  0  0  0  0  0  0  0  0  0
  186.9420  178.4870  138.4070 C   0  0  0  0  0  2  0  0  0  0  0  0
  184.3460  178.8330  142.6710 C   0  0  0  0  0  2  0  0  0  0  0  0
  186.7040  178.2450  142.1320 C   0  0  0  0  0  0  0  0  0  0  0  0
  185.7510  178.4400  143.0680 C   0  0  0  0  0  0  0  0  0  0  0  0
  187.4440  177.8680  144.8280 N   0  0  0  0  0  0  0  0  0  0  0  0
  189.3820  178.2840  137.8230 C   0  0  0  0  0  2  0  0  0  0  0  0
  187.3340  178.2250  139.8360 C   0  0  0  0  0  0  0  0  0  0  0  0
  189.7120  177.6320  139.1660 C   0  0  0  0  0  2  0  0  0  0  0  0
  185.1720  178.4320  145.4460 C   0  0  0  0  0  3  0  0  0  0  0  0
  186.0970  178.2480  144.4980 C   0  0  0  0  0  0  0  0  0  0  0  0
  188.9530  177.7010  141.5080 N   0  0  0  0  0  0  0  0  0  0  0  0
  188.3840  177.6820  143.7630 C   0  0  0  0  0  3  0  0  0  0  0  0
  186.6090  175.9510  137.1680 N   0  0  0  0  0  0  0  0  0  0  0  0
  187.7830  176.4950  137.1390 C   0  0  0  0  0  3  0  0  0  0  0  0
  186.4130  174.5550  136.9330 C   0  0  0  0  0  0  0  0  0  0  0  0
  187.2740  173.8770  136.3080 O   0  0  0  0  0  0  0  0  0  0  0  0
  185.1730  173.8970  137.4240 C   0  0  0  0  0  1  0  0  0  0  0  0
  187.8790  177.6910  146.2110 C   0  0  0  0  0  2  0  0  0  0  0  0
  192.0250  175.5780  144.8350 F   0  0  0  0  0  0  0  0  0  0  0  0
  189.9540  176.5860  145.4290 C   0  0  0  0  0  2  0  0  0  0  0  0
  189.8710  177.4190  147.7400 C   0  0  1  0  0  3  0  0  0  0  0  0
  191.2970  177.1470  147.8010 N   0  0  0  0  0  0  0  0  0  0  0  0
  191.9840  176.7790  146.8180 N   0  0  0  0  0  0  0  0  0  0  0  0
  191.4710  176.6760  145.4630 C   0  0  1  0  0  3  0  0  0  0  0  0
  189.5760  178.4920  148.5600 F   0  0  0  0  0  0  0  0  0  0  0  0
  189.4010  177.6840  146.3110 C   0  0  2  0  0  3  0  0  0  0  0  0
  1 20  1  1  0  0  0
  1 12  1  0  0  0  0
  1  7  1  0  0  0  0
  2 18  2  0  0  0  0
  3  4  2  0  0  0  0
  4 15  1  0  0  0  0
  5 17  2  0  0  0  0
  6  9  1  0  0  0  0
  7 13  1  0  0  0  0
  8 10  1  0  0  0  0
  8  3  1  0  0  0  0
  9  2  1  0  0  0  0
  9 10  2  0  0  0  0
 10 16  1  0  0  0  0
 11 24  1  0  0  0  0
 12 14  1  0  0  0  0
 13  5  1  0  0  0  0
 13  6  2  0  0  0  0
 14  5  1  0  0  0  0
 16 11  1  0  0  0  0
 16 15  2  0  0  0  0
 17  2  1  0  0  0  0
 18 11  1  0  0  0  0
 20 19  2  0  0  0  0
 21 19  1  0  0  0  0
 21 23  1  0  0  0  0
 22 21  2  0  0  0  0
 26 30  1  0  0  0  0
 26 32  1  0  0  0  0
 27 28  1  0  0  0  0
 27 31  1  1  0  0  0
 29 28  2  0  0  0  0
 30 25  1  1  0  0  0
 30 29  1  0  0  0  0
 32 24  1  1  0  0  0
 32 27  1  0  0  0  0
M  END
>  <MODEL>
1

>  <REMARK>
 VINA RESULT:     -10.4      0.000      0.000
  Name = 
  4 active torsions:
  status: ('A' for Active; 'I' for Inactive)
    1  A    between atoms: C_1  and  N_10
    2  A    between atoms: C_2  and  C_24
    3  A    between atoms: N_16  and  C_27
    4  A    between atoms: C_27  and  C_32
                            x       y       z     vdW  Elec       q    Type
                         _______ _______ _______ _____ _____    ______ ____

>  <TORSDO>
F 4

$$$$
=
 OpenBabel10262421323D

 32 36  0  0  1  0  0  0  0  0999 V2000
  182.5970  178.4360  140.0330 C   0  0  1  0  0  3  0  0  0  0  0  0
  187.1190  178.3050  142.3960 C   0  0  0  0  0  0  0  0  0  0  0  0
  186.0310  177.9250  147.2000 C   0  0  0  0  0  3  0  0  0  0  0  0
  187.3420  177.8520  147.4380 C   0  0  0  0  0  3  0  0  0  0  0  0
  185.3960  178.5470  140.7810 C   0  0  0  0  0  0  0  0  0  0  0  0
  184.8320  178.3330  143.0890 N   0  0  0  0  0  0  0  0  0  0  0  0
  182.9560  178.6050  141.5120 C   0  0  0  0  0  2  0  0  0  0  0  0
  185.4570  178.0620  145.8130 C   0  0  0  0  0  3  0  0  0  0  0  0
  186.1490  178.2510  143.4290 C   0  0  0  0  0  0  0  0  0  0  0  0
  186.5060  178.1250  144.7250 C   0  0  0  0  0  0  0  0  0  0  0  0
  188.9070  178.0910  144.0030 N   0  0  0  0  0  0  0  0  0  0  0  0
  183.5940  179.1870  139.1480 C   0  0  0  0  0  2  0  0  0  0  0  0
  184.4270  178.4610  141.7990 C   0  0  0  0  0  0  0  0  0  0  0  0
  185.0150  178.6540  139.3340 C   0  0  0  0  0  2  0  0  0  0  0  0
  188.3270  177.9050  146.3460 C   0  0  0  0  0  3  0  0  0  0  0  0
  187.9450  178.0330  145.0700 C   0  0  1  0  0  3  0  0  0  0  0  0
  186.7110  178.4500  141.1090 N   0  0  0  0  0  0  0  0  0  0  0  0
  188.4300  178.2240  142.6580 C   0  0  0  0  0  3  0  0  0  0  0  0
  182.2310  176.6550  138.4260 N   0  0  0  0  0  0  0  0  0  0  0  0
  182.5090  176.9950  139.6440 C   0  0  0  0  0  3  0  0  0  0  0  0
  182.1450  175.2870  138.0210 C   0  0  0  0  0  0  0  0  0  0  0  0
  181.0390  174.6810  138.0180 O   0  0  0  0  0  0  0  0  0  0  0  0
  183.3790  174.5670  137.6060 C   0  0  0  0  0  1  0  0  0  0  0  0
  190.3450  178.0410  144.2550 C   0  0  0  0  0  2  0  0  0  0  0  0
  193.0690  175.5530  147.4060 F   0  0  0  0  0  0  0  0  0  0  0  0
  191.7300  176.8430  145.9220 C   0  0  0  0  0  2  0  0  0  0  0  0
  191.4690  175.8520  143.6890 C   0  0  1  0  0  3  0  0  0  0  0  0
  192.1040  174.6640  144.2330 N   0  0  0  0  0  0  0  0  0  0  0  0
  192.3960  174.5170  145.4450 N   0  0  0  0  0  0  0  0  0  0  0  0
  192.0440  175.4670  146.4850 C   0  0  1  0  0  3  0  0  0  0  0  0
  190.5790  175.4790  142.6990 F   0  0  0  0  0  0  0  0  0  0  0  0
  190.7650  176.6700  144.7710 C   0  0  2  0  0  3  0  0  0  0  0  0
  1 20  1  6  0  0  0
  1  7  1  0  0  0  0
  2 18  2  0  0  0  0
  2  9  1  0  0  0  0
  3  4  1  0  0  0  0
  5 17  2  0  0  0  0
  5 13  1  0  0  0  0
  6  9  1  0  0  0  0
  7 13  1  0  0  0  0
  8  3  2  0  0  0  0
  9 10  2  0  0  0  0
 10 16  1  0  0  0  0
 10  8  1  0  0  0  0
 11 24  1  0  0  0  0
 11 16  1  0  0  0  0
 12 14  1  0  0  0  0
 12  1  1  0  0  0  0
 13  6  2  0  0  0  0
 14  5  1  0  0  0  0
 15  4  2  0  0  0  0
 16 15  1  1  0  0  0
 17  2  1  0  0  0  0
 18 11  1  0  0  0  0
 19 20  2  0  0  0  0
 21 19  1  0  0  0  0
 22 21  2  0  0  0  0
 23 21  1  0  0  0  0
 26 30  1  0  0  0  0
 27 31  1  6  0  0  0
 27 28  1  0  0  0  0
 27 32  1  0  0  0  0
 28 29  2  0  0  0  0
 29 30  1  0  0  0  0
 30 25  1  1  0  0  0
 32 24  1  6  0  0  0
 32 26  1  0  0  0  0
M  END
>  <MODEL>
2

>  <REMARK>
 VINA RESULT:      -9.8      2.725      3.861
  Name = 
  4 active torsions:
  status: ('A' for Active; 'I' for Inactive)
    1  A    between atoms: C_1  and  N_10
    2  A    between atoms: C_2  and  C_24
    3  A    between atoms: N_16  and  C_27
    4  A    between atoms: C_27  and  C_32
                            x       y       z     vdW  Elec       q    Type
                         _______ _______ _______ _____ _____    ______ ____

>  <TORSDO>
F 4

$$$$
=
 OpenBabel10262421323D

 32 36  0  0  1  0  0  0  0  0999 V2000
  181.0180  179.0480  141.7020 C   0  0  1  0  0  3  0  0  0  0  0  0
  185.8470  177.9090  142.8970 C   0  0  0  0  0  0  0  0  0  0  0  0
  186.1510  178.6270  147.7750 C   0  0  0  0  0  3  0  0  0  0  0  0
  187.4110  178.1950  147.7080 C   0  0  0  0  0  3  0  0  0  0  0  0
  183.8460  178.4130  141.7230 C   0  0  0  0  0  0  0  0  0  0  0  0
  183.9460  178.7410  144.0830 N   0  0  0  0  0  0  0  0  0  0  0  0
  181.8240  179.3260  142.9740 C   0  0  0  0  0  2  0  0  0  0  0  0
  185.2500  178.7160  146.5690 C   0  0  0  0  0  3  0  0  0  0  0  0
  185.2400  178.3140  144.1130 C   0  0  0  0  0  0  0  0  0  0  0  0
  185.9160  178.2870  145.2810 C   0  0  0  0  0  0  0  0  0  0  0  0
  187.9110  177.4090  144.0420 N   0  0  0  0  0  0  0  0  0  0  0  0
  181.8670  179.3120  140.4570 C   0  0  0  0  0  2  0  0  0  0  0  0
  183.2270  178.7850  142.9310 C   0  0  0  0  0  0  0  0  0  0  0  0
  183.0980  178.4060  140.4220 C   0  0  0  0  0  2  0  0  0  0  0  0
  188.0140  177.7750  146.4330 C   0  0  0  0  0  3  0  0  0  0  0  0
  187.3220  177.8140  145.2890 C   0  0  1  0  0  3  0  0  0  0  0  0
  185.1300  177.9710  141.7440 N   0  0  0  0  0  0  0  0  0  0  0  0
  187.1120  177.4720  142.8540 C   0  0  0  0  0  3  0  0  0  0  0  0
  179.8770  177.1910  140.6320 N   0  0  0  0  0  0  0  0  0  0  0  0
  180.4600  177.6610  141.6890 C   0  0  0  0  0  3  0  0  0  0  0  0
  179.3380  175.8690  140.5870 C   0  0  0  0  0  0  0  0  0  0  0  0
  178.9310  175.2990  141.6360 O   0  0  0  0  0  0  0  0  0  0  0  0
  179.2670  175.1510  139.2860 C   0  0  0  0  0  1  0  0  0  0  0  0
  189.2990  176.9630  143.9520 C   0  0  0  0  0  2  0  0  0  0  0  0
  190.4420  175.8810  139.3610 F   0  0  0  0  0  0  0  0  0  0  0  0
  189.8090  176.3530  141.6060 C   0  0  0  0  0  2  0  0  0  0  0  0
  191.4340  177.7250  142.8370 C   0  0  1  0  0  3  0  0  0  0  0  0
  192.1110  177.9160  141.5670 N   0  0  0  0  0  0  0  0  0  0  0  0
  191.6640  177.5120  140.4660 N   0  0  0  0  0  0  0  0  0  0  0  0
  190.3610  176.8940  140.2970 C   0  0  1  0  0  3  0  0  0  0  0  0
  191.6210  178.8440  143.6260 F   0  0  0  0  0  0  0  0  0  0  0  0
  189.9450  177.4350  142.6540 C   0  0  2  0  0  3  0  0  0  0  0  0
  1 20  1  1  0  0  0
  1  7  1  0  0  0  0
  2  9  1  0  0  0  0
  4  3  1  0  0  0  0
  5 17  2  0  0  0  0
  5 13  1  0  0  0  0
  6  9  1  0  0  0  0
  8  3  2  0  0  0  0
  9 10  2  0  0  0  0
 10 16  1  0  0  0  0
 10  8  1  0  0  0  0
 11 16  1  0  0  0  0
 12  1  1  0  0  0  0
 13  7  1  0  0  0  0
 13  6  2  0  0  0  0
 14 12  1  0  0  0  0
 14  5  1  0  0  0  0
 15  4  2  0  0  0  0
 16 15  1  6  0  0  0
 17  2  1  0  0  0  0
 18  2  2  0  0  0  0
 18 11  1  0  0  0  0
 19 20  2  0  0  0  0
 21 19  1  0  0  0  0
 21 22  2  0  0  0  0
 23 21  1  0  0  0  0
 24 11  1  0  0  0  0
 26 32  1  0  0  0  0
 27 31  1  1  0  0  0
 28 27  1  0  0  0  0
 29 28  2  0  0  0  0
 30 25  1  6  0  0  0
 30 29  1  0  0  0  0
 30 26  1  0  0  0  0
 32 27  1  0  0  0  0
 32 24  1  1  0  0  0
M  END
>  <MODEL>
3

>  <REMARK>
 VINA RESULT:      -9.7      3.530      5.515
  Name = 
  4 active torsions:
  status: ('A' for Active; 'I' for Inactive)
    1  A    between atoms: C_1  and  N_10
    2  A    between atoms: C_2  and  C_24
    3  A    between atoms: N_16  and  C_27
    4  A    between atoms: C_27  and  C_32
                            x       y       z     vdW  Elec       q    Type
                         _______ _______ _______ _____ _____    ______ ____

>  <TORSDO>
F 4

$$$$
=
 OpenBabel10262421323D

 32 36  0  0  1  0  0  0  0  0999 V2000
  190.2710  177.3620  137.5480 C   0  0  1  0  0  3  0  0  0  0  0  0
  188.5550  177.1330  142.3490 C   0  0  0  0  0  0  0  0  0  0  0  0
  184.1890  179.4440  142.2490 C   0  0  0  0  0  3  0  0  0  0  0  0
  184.0540  179.1310  143.5400 C   0  0  0  0  0  3  0  0  0  0  0  0
  189.9160  177.0340  140.4060 C   0  0  0  0  0  0  0  0  0  0  0  0
  187.7990  178.1300  140.3120 N   0  0  0  0  0  0  0  0  0  0  0  0
  189.1310  178.1170  138.2380 C   0  0  0  0  0  2  0  0  0  0  0  0
  185.3930  179.0460  141.4340 C   0  0  0  0  0  2  0  0  0  0  0  0
  187.5720  177.8580  141.6290 C   0  0  0  0  0  0  0  0  0  0  0  0
  186.4330  178.2800  142.2190 C   0  0  0  0  0  0  0  0  0  0  0  0
  187.2210  177.2320  144.3570 N   0  0  0  0  0  0  0  0  0  0  0  0
  191.4930  177.2790  138.4630 C   0  0  0  0  0  2  0  0  0  0  0  0
  188.9290  177.7250  139.6770 C   0  0  0  0  0  0  0  0  0  0  0  0
  191.1700  176.5300  139.7560 C   0  0  0  0  0  2  0  0  0  0  0  0
  185.0870  178.3720  144.2610 C   0  0  0  0  0  3  0  0  0  0  0  0
  186.2070  177.9680  143.6520 C   0  0  0  0  0  0  0  0  0  0  0  0
  189.6920  176.7450  141.7150 N   0  0  0  0  0  0  0  0  0  0  0  0
  188.3950  176.8250  143.6430 C   0  0  0  0  0  3  0  0  0  0  0  0
  189.2320  175.8440  135.9650 N   0  0  0  0  0  0  0  0  0  0  0  0
  189.8430  176.0030  137.0950 C   0  0  0  0  0  3  0  0  0  0  0  0
  188.8150  174.5590  135.5010 C   0  0  0  0  0  0  0  0  0  0  0  0
  189.6600  173.6950  135.1410 O   0  0  0  0  0  0  0  0  0  0  0  0
  187.3630  174.2390  135.4340 C   0  0  0  0  0  1  0  0  0  0  0  0
  187.0960  176.9110  145.7770 C   0  0  0  0  0  2  0  0  0  0  0  0
  191.4380  176.5290  147.9090 F   0  0  0  0  0  0  0  0  0  0  0  0
  189.3360  176.6520  146.8020 C   0  0  0  0  0  2  0  0  0  0  0  0
  187.6670  178.0250  147.9700 C   0  0  1  0  0  3  0  0  0  0  0  0
  188.7460  178.4420  148.8490 N   0  0  0  0  0  0  0  0  0  0  0  0
  189.9500  178.1320  148.6770 N   0  0  0  0  0  0  0  0  0  0  0  0
  190.4430  177.4050  147.5210 C   0  0  1  0  0  3  0  0  0  0  0  0
  186.7490  179.0530  147.8580 F   0  0  0  0  0  0  0  0  0  0  0  0
  188.1800  177.6050  146.5940 C   0  0  2  0  0  3  0  0  0  0  0  0
  1 20  1  1  0  0  0
  1  7  1  0  0  0  0
  1 12  1  0  0  0  0
  2 18  2  0  0  0  0
  3  4  2  0  0  0  0
  4 15  1  0  0  0  0
  5 17  2  0  0  0  0
  6  9  1  0  0  0  0
  7 13  1  0  0  0  0
  8 10  1  0  0  0  0
  8  3  1  0  0  0  0
  9 10  2  0  0  0  0
  9  2  1  0  0  0  0
 10 16  1  0  0  0  0
 11 24  1  0  0  0  0
 12 14  1  0  0  0  0
 13  6  2  0  0  0  0
 13  5  1  0  0  0  0
 14  5  1  0  0  0  0
 16 15  2  0  0  0  0
 16 11  1  0  0  0  0
 17  2  1  0  0  0  0
 18 11  1  0  0  0  0
 19 20  2  0  0  0  0
 21 19  1  0  0  0  0
 22 21  2  0  0  0  0
 23 21  1  0  0  0  0
 26 30  1  0  0  0  0
 27 31  1  6  0  0  0
 27 28  1  0  0  0  0
 29 28  2  0  0  0  0
 30 25  1  1  0  0  0
 30 29  1  0  0  0  0
 32 24  1  6  0  0  0
 32 26  1  0  0  0  0
 32 27  1  0  0  0  0
M  END
>  <MODEL>
4

>  <REMARK>
 VINA RESULT:      -9.0      1.747      2.061
  Name = 
  4 active torsions:
  status: ('A' for Active; 'I' for Inactive)
    1  A    between atoms: C_1  and  N_10
    2  A    between atoms: C_2  and  C_24
    3  A    between atoms: N_16  and  C_27
    4  A    between atoms: C_27  and  C_32
                            x       y       z     vdW  Elec       q    Type
                         _______ _______ _______ _____ _____    ______ ____

>  <TORSDO>
F 4

$$$$
=
 OpenBabel10262421323D

 32 36  0  0  1  0  0  0  0  0999 V2000
  180.2420  178.6340  141.0610 C   0  0  1  0  0  3  0  0  0  0  0  0
  185.3290  178.6280  140.6580 C   0  0  0  0  0  0  0  0  0  0  0  0
  186.9610  177.5380  145.1920 C   0  0  0  0  0  3  0  0  0  0  0  0
  188.2000  177.5580  144.6940 C   0  0  0  0  0  3  0  0  0  0  0  0
  183.0090  178.9100  140.2430 C   0  0  0  0  0  0  0  0  0  0  0  0
  183.7580  178.3520  142.4380 N   0  0  0  0  0  0  0  0  0  0  0  0
  181.3290  178.6460  142.1400 C   0  0  0  0  0  2  0  0  0  0  0  0
  185.7370  177.7950  144.3500 C   0  0  0  0  0  3  0  0  0  0  0  0
  185.0560  178.3520  142.0220 C   0  0  0  0  0  0  0  0  0  0  0  0
  186.0480  178.0950  142.9010 C   0  0  0  0  0  0  0  0  0  0  0  0
  187.7000  178.3790  141.0360 N   0  0  0  0  0  0  0  0  0  0  0  0
  180.6070  179.5810  139.9170 C   0  0  0  0  0  2  0  0  0  0  0  0
  182.7290  178.6050  141.5890 C   0  0  0  0  0  0  0  0  0  0  0  0
  181.9160  179.1640  139.2470 C   0  0  0  0  0  2  0  0  0  0  0  0
  188.4540  177.8420  143.2730 C   0  0  0  0  0  3  0  0  0  0  0  0
  187.4520  178.0950  142.4230 C   0  0  1  0  0  3  0  0  0  0  0  0
  184.2980  178.8970  139.8150 N   0  0  0  0  0  0  0  0  0  0  0  0
  186.5800  178.6370  140.1790 C   0  0  0  0  0  3  0  0  0  0  0  0
  179.6390  176.3020  141.3650 N   0  0  0  0  0  0  0  0  0  0  0  0
  179.9780  177.2520  140.5540 C   0  0  0  0  0  3  0  0  0  0  0  0
  179.3750  174.9730  140.9110 C   0  0  0  0  0  0  0  0  0  0  0  0
  179.1930  174.7320  139.6860 O   0  0  0  0  0  0  0  0  0  0  0  0
  179.3060  173.8620  141.8970 C   0  0  0  0  0  1  0  0  0  0  0  0
  189.0520  178.4330  140.4880 C   0  0  0  0  0  2  0  0  0  0  0  0
  191.6090  174.9080  138.3460 F   0  0  0  0  0  0  0  0  0  0  0  0
  190.3840  176.6040  139.4790 C   0  0  0  0  0  2  0  0  0  0  0  0
  189.4190  178.3060  137.9920 C   0  0  1  0  0  3  0  0  0  0  0  0
  189.8150  177.4480  136.8890 N   0  0  0  0  0  0  0  0  0  0  0  0
  190.2990  176.2990  137.0320 N   0  0  0  0  0  0  0  0  0  0  0  0
  190.4310  175.6290  138.3140 C   0  0  1  0  0  3  0  0  0  0  0  0
  188.2790  179.0040  137.6390 F   0  0  0  0  0  0  0  0  0  0  0  0
  189.1920  177.5140  139.2790 C   0  0  2  0  0  3  0  0  0  0  0  0
  1 20  1  6  0  0  0
  1  7  1  0  0  0  0
  2  9  1  0  0  0  0
  4  3  1  0  0  0  0
  5 13  1  0  0  0  0
  8  3  2  0  0  0  0
  9  6  1  0  0  0  0
  9 10  2  0  0  0  0
 10  8  1  0  0  0  0
 11 16  1  0  0  0  0
 12  1  1  0  0  0  0
 13  7  1  0  0  0  0
 13  6  2  0  0  0  0
 14 12  1  0  0  0  0
 14  5  1  0  0  0  0
 15  4  2  0  0  0  0
 16 10  1  0  0  0  0
 16 15  1  1  0  0  0
 17  5  2  0  0  0  0
 17  2  1  0  0  0  0
 18  2  2  0  0  0  0
 18 11  1  0  0  0  0
 20 19  2  0  0  0  0
 21 19  1  0  0  0  0
 21 23  1  0  0  0  0
 22 21  2  0  0  0  0
 24 11  1  0  0  0  0
 27 31  1  6  0  0  0
 27 32  1  0  0  0  0
 28 29  2  0  0  0  0
 28 27  1  0  0  0  0
 29 30  1  0  0  0  0
 30 25  1  6  0  0  0
 30 26  1  0  0  0  0
 32 26  1  0  0  0  0
 32 24  1  1  0  0  0
M  END
>  <MODEL>
5

>  <REMARK>
 VINA RESULT:      -9.0      3.965      6.754
  Name = 
  4 active torsions:
  status: ('A' for Active; 'I' for Inactive)
    1  A    between atoms: C_1  and  N_10
    2  A    between atoms: C_2  and  C_24
    3  A    between atoms: N_16  and  C_27
    4  A    between atoms: C_27  and  C_32
                            x       y       z     vdW  Elec       q    Type
                         _______ _______ _______ _____ _____    ______ ____

>  <TORSDO>
F 4

$$$$
=
 OpenBabel10262421323D

 32 36  0  0  1  0  0  0  0  0999 V2000
  179.3920  177.8550  138.9050 C   0  0  1  0  0  3  0  0  0  0  0  0
  184.1650  178.6370  140.5330 C   0  0  0  0  0  0  0  0  0  0  0  0
  183.8040  178.8800  145.4540 C   0  0  0  0  0  3  0  0  0  0  0  0
  185.1330  179.0020  145.4930 C   0  0  0  0  0  3  0  0  0  0  0  0
  182.2220  178.4160  139.1870 C   0  0  0  0  0  0  0  0  0  0  0  0
  182.0120  178.4970  141.5620 N   0  0  0  0  0  0  0  0  0  0  0  0
  179.9210  178.2940  140.2740 C   0  0  0  0  0  2  0  0  0  0  0  0
  183.0340  178.7300  144.1670 C   0  0  0  0  0  3  0  0  0  0  0  0
  183.3620  178.6280  141.7020 C   0  0  0  0  0  0  0  0  0  0  0  0
  183.9060  178.7480  142.9320 C   0  0  0  0  0  0  0  0  0  0  0  0
  186.1670  178.8910  141.8570 N   0  0  0  0  0  0  0  0  0  0  0  0
  180.1420  178.5730  137.7820 C   0  0  0  0  0  2  0  0  0  0  0  0
  181.4220  178.3730  140.3450 C   0  0  0  0  0  0  0  0  0  0  0  0
  181.6360  178.2500  137.8160 C   0  0  0  0  0  2  0  0  0  0  0  0
  185.9430  179.0030  144.2650 C   0  0  0  0  0  3  0  0  0  0  0  0
  185.3770  178.8840  143.0580 C   0  0  1  0  0  3  0  0  0  0  0  0
  183.5690  178.5300  139.3170 N   0  0  0  0  0  0  0  0  0  0  0  0
  185.4980  178.7550  140.5960 C   0  0  0  0  0  3  0  0  0  0  0  0
  179.5100  175.5880  139.7630 N   0  0  0  0  0  0  0  0  0  0  0  0
  179.4570  176.3710  138.7340 C   0  0  0  0  0  3  0  0  0  0  0  0
  179.5680  174.1660  139.6330 C   0  0  0  0  0  0  0  0  0  0  0  0
  179.6350  173.4250  140.6520 O   0  0  0  0  0  0  0  0  0  0  0  0
  179.5570  173.5530  138.2780 C   0  0  0  0  0  1  0  0  0  0  0  0
  187.6180  179.0540  141.8870 C   0  0  0  0  0  2  0  0  0  0  0  0
  190.5130  176.3770  144.7160 F   0  0  0  0  0  0  0  0  0  0  0  0
  189.0650  177.7360  143.4050 C   0  0  0  0  0  2  0  0  0  0  0  0
  189.3290  177.4320  140.9810 C   0  0  1  0  0  3  0  0  0  0  0  0
  190.1830  176.3010  141.2990 N   0  0  0  0  0  0  0  0  0  0  0  0
  190.3620  175.8620  142.4600 N   0  0  0  0  0  0  0  0  0  0  0  0
  189.6580  176.3550  143.6310 C   0  0  1  0  0  3  0  0  0  0  0  0
  188.6860  177.1930  139.7800 F   0  0  0  0  0  0  0  0  0  0  0  0
  188.3170  177.7140  142.0900 C   0  0  2  0  0  3  0  0  0  0  0  0
  1 20  1  6  0  0  0
  1  7  1  0  0  0  0
  2 18  2  0  0  0  0
  2  9  1  0  0  0  0
  3  4  1  0  0  0  0
  5 17  2  0  0  0  0
  5 13  1  0  0  0  0
  6  9  1  0  0  0  0
  7 13  1  0  0  0  0
  8  3  2  0  0  0  0
  9 10  2  0  0  0  0
 10 16  1  0  0  0  0
 10  8  1  0  0  0  0
 11 24  1  0  0  0  0
 11 16  1  0  0  0  0
 12 14  1  0  0  0  0
 12  1  1  0  0  0  0
 13  6  2  0  0  0  0
 14  5  1  0  0  0  0
 15  4  2  0  0  0  0
 16 15  1  6  0  0  0
 17  2  1  0  0  0  0
 18 11  1  0  0  0  0
 20 19  2  0  0  0  0
 21 19  1  0  0  0  0
 21 22  2  0  0  0  0
 23 21  1  0  0  0  0
 26 30  1  0  0  0  0
 27 31  1  6  0  0  0
 27 28  1  0  0  0  0
 27 32  1  0  0  0  0
 28 29  2  0  0  0  0
 29 30  1  0  0  0  0
 30 25  1  1  0  0  0
 32 24  1  6  0  0  0
 32 26  1  0  0  0  0
M  END
>  <MODEL>
6

>  <REMARK>
 VINA RESULT:      -8.9      4.004      5.684
  Name = 
  4 active torsions:
  status: ('A' for Active; 'I' for Inactive)
    1  A    between atoms: C_1  and  N_10
    2  A    between atoms: C_2  and  C_24
    3  A    between atoms: N_16  and  C_27
    4  A    between atoms: C_27  and  C_32
                            x       y       z     vdW  Elec       q    Type
                         _______ _______ _______ _____ _____    ______ ____

>  <TORSDO>
F 4

$$$$
=
 OpenBabel10262421323D

 32 36  0  0  1  0  0  0  0  0999 V2000
  192.4600  175.0880  136.3540 C   0  0  1  0  0  3  0  0  0  0  0  0
  189.1050  177.5480  139.3090 C   0  0  0  0  0  0  0  0  0  0  0  0
  190.3580  176.3370  143.9320 C   0  0  0  0  0  3  0  0  0  0  0  0
  189.3910  177.1550  144.3530 C   0  0  0  0  0  3  0  0  0  0  0  0
  190.2390  176.5870  137.4580 C   0  0  0  0  0  0  0  0  0  0  0  0
  190.8930  176.0040  139.6760 N   0  0  0  0  0  0  0  0  0  0  0  0
  192.1270  174.9190  137.8390 C   0  0  0  0  0  2  0  0  0  0  0  0
  190.6700  176.1220  142.4730 C   0  0  0  0  0  3  0  0  0  0  0  0
  189.9300  176.8150  140.2000 C   0  0  0  0  0  0  0  0  0  0  0  0
  189.7770  176.9050  141.5380 C   0  0  0  0  0  0  0  0  0  0  0  0
  187.9040  178.5290  141.1580 N   0  0  0  0  0  0  0  0  0  0  0  0
  191.1840  175.2740  135.5320 C   0  0  0  0  0  2  0  0  0  0  0  0
  191.0830  175.8820  138.3370 C   0  0  0  0  0  0  0  0  0  0  0  0
  190.4180  176.5230  135.9690 C   0  0  0  0  0  2  0  0  0  0  0  0
  188.5540  177.9080  143.4060 C   0  0  0  0  0  3  0  0  0  0  0  0
  188.7260  177.7980  142.0840 C   0  0  1  0  0  3  0  0  0  0  0  0
  189.2870  177.4100  137.9700 N   0  0  0  0  0  0  0  0  0  0  0  0
  188.1450  178.3690  139.7540 C   0  0  0  0  0  3  0  0  0  0  0  0
  194.5700  175.9980  135.5710 N   0  0  0  0  0  0  0  0  0  0  0  0
  193.4180  176.2120  136.1230 C   0  0  0  0  0  3  0  0  0  0  0  0
  195.5050  177.0520  135.3320 C   0  0  0  0  0  0  0  0  0  0  0  0
  195.2650  178.2300  135.7150 O   0  0  0  0  0  0  0  0  0  0  0  0
  196.7740  176.7560  134.6150 C   0  0  0  0  0  1  0  0  0  0  0  0
  186.8240  179.4040  141.6070 C   0  0  0  0  0  2  0  0  0  0  0  0
  182.6030  178.6320  139.3410 F   0  0  0  0  0  0  0  0  0  0  0  0
  184.7110  179.0290  140.3690 C   0  0  0  0  0  2  0  0  0  0  0  0
  184.6390  179.0550  142.8250 C   0  0  1  0  0  3  0  0  0  0  0  0
  183.2740  178.5720  142.7080 N   0  0  0  0  0  0  0  0  0  0  0  0
  182.7380  178.2430  141.6230 N   0  0  0  0  0  0  0  0  0  0  0  0
  183.4390  178.1980  140.3520 C   0  0  1  0  0  3  0  0  0  0  0  0
  185.1970  178.5650  143.9920 F   0  0  0  0  0  0  0  0  0  0  0  0
  185.4890  178.6680  141.6160 C   0  0  2  0  0  3  0  0  0  0  0  0
  1 20  1  1  0  0  0
  1  7  1  0  0  0  0
  2 18  2  0  0  0  0
  2  9  1  0  0  0  0
  3  4  1  0  0  0  0
  5 17  2  0  0  0  0
  5 13  1  0  0  0  0
  6  9  1  0  0  0  0
  7 13  1  0  0  0  0
  8  3  2  0  0  0  0
  9 10  2  0  0  0  0
 10 16  1  0  0  0  0
 10  8  1  0  0  0  0
 11 24  1  0  0  0  0
 11 16  1  0  0  0  0
 12 14  1  0  0  0  0
 12  1  1  0  0  0  0
 13  6  2  0  0  0  0
 14  5  1  0  0  0  0
 15  4  2  0  0  0  0
 16 15  1  6  0  0  0
 17  2  1  0  0  0  0
 18 11  1  0  0  0  0
 19 20  2  0  0  0  0
 21 19  1  0  0  0  0
 21 22  2  0  0  0  0
 23 21  1  0  0  0  0
 26 32  1  0  0  0  0
 27 31  1  1  0  0  0
 28 27  1  0  0  0  0
 29 28  2  0  0  0  0
 30 25  1  6  0  0  0
 30 26  1  0  0  0  0
 30 29  1  0  0  0  0
 32 24  1  1  0  0  0
 32 27  1  0  0  0  0
M  END
>  <MODEL>
7

>  <REMARK>
 VINA RESULT:      -8.6      4.363      6.817
  Name = 
  4 active torsions:
  status: ('A' for Active; 'I' for Inactive)
    1  A    between atoms: C_1  and  N_10
    2  A    between atoms: C_2  and  C_24
    3  A    between atoms: N_16  and  C_27
    4  A    between atoms: C_27  and  C_32
                            x       y       z     vdW  Elec       q    Type
                         _______ _______ _______ _____ _____    ______ ____

>  <TORSDO>
F 4

$$$$
=
 OpenBabel10262421323D

 32 36  0  0  1  0  0  0  0  0999 V2000
  182.9040  178.8510  138.9320 C   0  0  1  0  0  3  0  0  0  0  0  0
  187.3260  178.3860  141.4380 C   0  0  0  0  0  0  0  0  0  0  0  0
  190.5980  177.0250  137.9960 C   0  0  0  0  0  3  0  0  0  0  0  0
  191.5370  177.0780  138.9430 C   0  0  0  0  0  3  0  0  0  0  0  0
  185.0280  178.6310  140.8920 C   0  0  0  0  0  0  0  0  0  0  0  0
  186.5850  178.0050  139.1970 N   0  0  0  0  0  0  0  0  0  0  0  0
  184.2250  178.1990  138.5140 C   0  0  0  0  0  2  0  0  0  0  0  0
  189.1500  177.3480  138.2610 C   0  0  0  0  0  2  0  0  0  0  0  0
  187.6110  178.0300  140.0950 C   0  0  0  0  0  0  0  0  0  0  0  0
  188.8630  177.7180  139.6990 C   0  0  0  0  0  0  0  0  0  0  0  0
  189.6460  178.1220  142.0470 N   0  0  0  0  0  0  0  0  0  0  0  0
  182.5680  178.5050  140.3840 C   0  0  0  0  0  2  0  0  0  0  0  0
  185.3100  178.3100  139.5510 C   0  0  0  0  0  0  0  0  0  0  0  0
  183.6480  179.0120  141.3410 C   0  0  0  0  0  2  0  0  0  0  0  0
  191.2140  177.4560  140.3270 C   0  0  0  0  0  3  0  0  0  0  0  0
  189.9630  177.7590  140.6930 C   0  0  0  0  0  0  0  0  0  0  0  0
  186.0460  178.6750  141.7910 N   0  0  0  0  0  0  0  0  0  0  0  0
  188.2860  178.4390  142.3700 C   0  0  0  0  0  3  0  0  0  0  0  0
  181.8520  180.9630  138.3640 N   0  0  0  0  0  0  0  0  0  0  0  0
  182.9230  180.3320  138.7220 C   0  0  0  0  0  3  0  0  0  0  0  0
  181.8360  182.3780  138.1600 C   0  0  0  0  0  0  0  0  0  0  0  0
  182.7810  183.1020  138.5770 O   0  0  0  0  0  0  0  0  0  0  0  0
  180.6860  183.0030  137.4540 C   0  0  0  0  0  1  0  0  0  0  0  0
  190.6610  178.1540  143.0970 C   0  0  0  0  0  2  0  0  0  0  0  0
  188.3590  178.2140  147.3690 F   0  0  0  0  0  0  0  0  0  0  0  0
  189.4330  178.2550  145.2460 C   0  0  0  0  0  2  0  0  0  0  0  0
  191.4070  176.7990  145.0940 C   0  0  1  0  0  3  0  0  0  0  0  0
  191.0130  176.2680  146.3870 N   0  0  0  0  0  0  0  0  0  0  0  0
  189.9450  176.5700  146.9730 N   0  0  0  0  0  0  0  0  0  0  0  0
  188.9090  177.4060  146.3930 C   0  0  1  0  0  3  0  0  0  0  0  0
  192.0460  175.8100  144.3700 F   0  0  0  0  0  0  0  0  0  0  0  0
  190.2150  177.3540  144.3160 C   0  0  2  0  0  3  0  0  0  0  0  0
  1 20  1  1  0  0  0
  1 12  1  0  0  0  0
  2 17  1  0  0  0  0
  2 18  2  0  0  0  0
  3  8  1  0  0  0  0
  3  4  2  0  0  0  0
  4 15  1  0  0  0  0
  5 14  1  0  0  0  0
  5 17  2  0  0  0  0
  6 13  2  0  0  0  0
  6  9  1  0  0  0  0
  7  1  1  0  0  0  0
  7 13  1  0  0  0  0
  8 10  1  0  0  0  0
  9  2  1  0  0  0  0
 10  9  2  0  0  0  0
 10 16  1  0  0  0  0
 11 18  1  0  0  0  0
 11 24  1  0  0  0  0
 12 14  1  0  0  0  0
 13  5  1  0  0  0  0
 15 16  2  0  0  0  0
 16 11  1  0  0  0  0
 19 20  2  0  0  0  0
 21 19  1  0  0  0  0
 21 22  2  0  0  0  0
 23 21  1  0  0  0  0
 26 30  1  0  0  0  0
 27 31  1  6  0  0  0
 27 28  1  0  0  0  0
 28 29  2  0  0  0  0
 30 29  1  0  0  0  0
 30 25  1  1  0  0  0
 32 24  1  6  0  0  0
 32 27  1  0  0  0  0
 32 26  1  0  0  0  0
M  END
>  <MODEL>
8

>  <REMARK>
 VINA RESULT:      -8.4      3.257      5.675
  Name = 
  4 active torsions:
  status: ('A' for Active; 'I' for Inactive)
    1  A    between atoms: C_1  and  N_10
    2  A    between atoms: C_2  and  C_24
    3  A    between atoms: N_16  and  C_27
    4  A    between atoms: C_27  and  C_32
                            x       y       z     vdW  Elec       q    Type
                         _______ _______ _______ _____ _____    ______ ____

>  <TORSDO>
F 4

$$$$
=
 OpenBabel10262421323D

 32 36  0  0  1  0  0  0  0  0999 V2000
  179.7950  179.1560  140.6760 C   0  0  1  0  0  3  0  0  0  0  0  0
  184.8510  178.7350  141.2300 C   0  0  0  0  0  0  0  0  0  0  0  0
  185.5410  177.9940  146.0650 C   0  0  0  0  0  3  0  0  0  0  0  0
  186.8450  177.8720  145.8070 C   0  0  0  0  0  3  0  0  0  0  0  0
  182.6770  179.1440  140.3670 C   0  0  0  0  0  0  0  0  0  0  0  0
  182.9680  178.7570  142.7030 N   0  0  0  0  0  0  0  0  0  0  0  0
  180.6680  179.1970  141.9330 C   0  0  0  0  0  2  0  0  0  0  0  0
  184.5150  178.2540  144.9920 C   0  0  0  0  0  3  0  0  0  0  0  0
  184.3140  178.6190  142.5380 C   0  0  0  0  0  0  0  0  0  0  0  0
  185.1060  178.3810  143.6060 C   0  0  0  0  0  0  0  0  0  0  0  0
  187.0830  178.3520  142.0630 N   0  0  0  0  0  0  0  0  0  0  0  0
  180.4430  179.9520  139.5430 C   0  0  0  0  0  2  0  0  0  0  0  0
  182.1350  178.9980  141.6580 C   0  0  0  0  0  0  0  0  0  0  0  0
  181.8080  179.3750  139.1670 C   0  0  0  0  0  2  0  0  0  0  0  0
  187.3730  177.9910  144.4390 C   0  0  0  0  0  3  0  0  0  0  0  0
  186.5670  178.2300  143.3990 C   0  0  1  0  0  3  0  0  0  0  0  0
  184.0150  178.9920  140.1900 N   0  0  0  0  0  0  0  0  0  0  0  0
  186.1630  178.6030  140.9930 C   0  0  0  0  0  3  0  0  0  0  0  0
  179.8630  176.7490  140.9820 N   0  0  0  0  0  0  0  0  0  0  0  0
  179.5010  177.7530  140.2490 C   0  0  0  0  0  3  0  0  0  0  0  0
  179.5930  175.3970  140.6050 C   0  0  0  0  0  0  0  0  0  0  0  0
  179.5890  175.0520  139.3920 O   0  0  0  0  0  0  0  0  0  0  0  0
  179.3020  174.3870  141.6570 C   0  0  0  0  0  1  0  0  0  0  0  0
  188.5110  178.2510  141.7740 C   0  0  0  0  0  2  0  0  0  0  0  0
  192.3800  178.9250  144.6240 F   0  0  0  0  0  0  0  0  0  0  0  0
  190.4850  178.6850  143.2060 C   0  0  0  0  0  2  0  0  0  0  0  0
  189.8010  176.3550  142.8320 C   0  0  1  0  0  3  0  0  0  0  0  0
  190.7570  175.9960  143.8660 N   0  0  0  0  0  0  0  0  0  0  0  0
  191.3880  176.8310  144.5580 N   0  0  0  0  0  0  0  0  0  0  0  0
  191.1730  178.2650  144.4940 C   0  0  1  0  0  3  0  0  0  0  0  0
  188.7540  175.4530  142.8470 F   0  0  0  0  0  0  0  0  0  0  0  0
  189.2870  177.7840  143.0000 C   0  0  2  0  0  3  0  0  0  0  0  0
  1 20  1  6  0  0  0
  1  7  1  0  0  0  0
  2  9  1  0  0  0  0
  4  3  1  0  0  0  0
  5 13  1  0  0  0  0
  8  3  2  0  0  0  0
  9  6  1  0  0  0  0
  9 10  2  0  0  0  0
 10  8  1  0  0  0  0
 11 16  1  0  0  0  0
 12  1  1  0  0  0  0
 13  7  1  0  0  0  0
 13  6  2  0  0  0  0
 14 12  1  0  0  0  0
 14  5  1  0  0  0  0
 15  4  2  0  0  0  0
 16 10  1  0  0  0  0
 16 15  1  1  0  0  0
 17  5  2  0  0  0  0
 17  2  1  0  0  0  0
 18  2  2  0  0  0  0
 18 11  1  0  0  0  0
 20 19  2  0  0  0  0
 21 19  1  0  0  0  0
 21 23  1  0  0  0  0
 22 21  2  0  0  0  0
 24 11  1  0  0  0  0
 26 30  1  0  0  0  0
 27 31  1  1  0  0  0
 27 32  1  0  0  0  0
 27 28  1  0  0  0  0
 28 29  2  0  0  0  0
 30 29  1  0  0  0  0
 30 25  1  6  0  0  0
 32 24  1  6  0  0  0
 32 26  1  0  0  0  0
M  END
>  <MODEL>
9

>  <REMARK>
 VINA RESULT:      -8.3      3.592      5.417
  Name = 
  4 active torsions:
  status: ('A' for Active; 'I' for Inactive)
    1  A    between atoms: C_1  and  N_10
    2  A    between atoms: C_2  and  C_24
    3  A    between atoms: N_16  and  C_27
    4  A    between atoms: C_27  and  C_32
                            x       y       z     vdW  Elec       q    Type
                         _______ _______ _______ _____ _____    ______ ____

>  <TORSDO>
F 4

$$$$
