=
 OpenBabel10262419273D

 31 34  0  0  1  0  0  0  0  0999 V2000
  193.6310  175.8410  135.9480 C   0  0  1  0  0  3  0  0  0  0  0  0
  190.1230  177.2180  136.7080 C   0  0  2  0  0  3  0  0  0  0  0  0
  188.9060  176.5580  136.0630 C   0  0  0  0  0  0  0  0  0  0  0  0
  190.1650  174.1110  135.4320 Cl  0  0  0  0  0  0  0  0  0  0  0  0
  191.4230  176.4700  136.8030 C   0  0  0  0  0  0  0  0  0  0  0  0
  193.4570  174.4680  136.6010 C   0  0  0  0  0  2  0  0  0  0  0  0
  188.8430  175.2640  135.4750 C   0  0  0  0  0  0  0  0  0  0  0  0
  189.7890  176.8450  139.2380 C   0  0  2  0  0  3  0  0  0  0  0  0
  194.2910  175.6880  134.5950 C   0  0  0  0  0  1  0  0  0  0  0  0
  187.7660  178.7090  136.6990 C   0  0  0  0  0  2  0  0  0  0  0  0
  187.6490  174.8280  134.8920 C   0  0  0  0  0  3  0  0  0  0  0  0
  190.6190  175.5730  139.0000 C   0  0  0  0  0  2  0  0  0  0  0  0
  189.7670  177.8550  138.0710 C   0  0  2  0  0  3  0  0  0  0  0  0
  192.2970  176.5100  135.7920 C   0  0  0  0  0  3  0  0  0  0  0  0
  186.5160  175.6400  134.8810 C   0  0  0  0  0  3  0  0  0  0  0  0
  191.8310  175.8150  138.1050 C   0  0  1  0  0  3  0  0  0  0  0  0
  192.6080  174.5060  137.8890 C   0  0  0  0  0  2  0  0  0  0  0  0
  188.4280  178.6190  138.0760 C   0  0  0  0  0  2  0  0  0  0  0  0
  187.7410  177.3560  136.0550 C   0  0  0  0  0  0  0  0  0  0  0  0
  186.5620  176.9020  135.4640 C   0  0  0  0  0  3  0  0  0  0  0  0
  188.2400  176.9070  141.7040 O   0  0  0  0  0  0  0  0  0  0  0  0
  189.3440  177.5110  141.6750 C   0  0  0  0  0  0  0  0  0  0  0  0
  190.1580  177.4910  140.4940 N   0  0  0  0  0  2  0  0  0  0  0  0
  188.8960  177.9420  144.0650 C   0  0  0  0  0  1  0  0  0  0  0  0
  189.8020  178.2480  142.8870 C   0  0  1  0  0  3  0  0  0  0  0  0
  191.5200  177.7990  143.2840 S   0  0  0  0  0  0  0  0  0  0  0  0
  191.0170  176.5960  144.5480 C   0  0  0  0  0  2  0  0  0  0  0  0
  191.3150  176.8400  147.0450 C   0  0  0  0  0  0  0  0  0  0  0  0
  189.8450  176.7930  147.2840 C   0  0  0  0  0  1  0  0  0  0  0  0
  192.0940  176.9680  148.0250 O   0  0  0  0  0  0  0  0  0  0  0  0
  191.8560  176.7440  145.7260 N   0  0  0  0  0  2  0  0  0  0  0  0
  1  9  1  6  0  0  0
  1  6  1  0  0  0  0
  2  3  1  1  0  0  0
  2  5  1  0  0  0  0
  2 13  1  0  0  0  0
  4  7  1  0  0  0  0
  5 16  1  0  0  0  0
  6 17  1  0  0  0  0
  7  3  2  0  0  0  0
  8 23  1  1  0  0  0
 10 18  1  0  0  0  0
 11  7  1  0  0  0  0
 12  8  1  0  0  0  0
 13 18  1  6  0  0  0
 13  8  1  0  0  0  0
 14  1  1  0  0  0  0
 14  5  2  0  0  0  0
 15 11  2  0  0  0  0
 15 20  1  0  0  0  0
 16 17  1  6  0  0  0
 16 12  1  0  0  0  0
 19  3  1  0  0  0  0
 19 10  1  0  0  0  0
 20 19  2  0  0  0  0
 22 21  2  0  0  0  0
 22 25  1  0  0  0  0
 23 22  1  0  0  0  0
 25 26  1  0  0  0  0
 25 24  1  1  0  0  0
 26 27  1  0  0  0  0
 27 31  1  0  0  0  0
 28 29  1  0  0  0  0
 28 30  2  0  0  0  0
 31 28  1  0  0  0  0
M  END
>  <MODEL>
1

>  <REMARK>
 VINA RESULT:      -6.2      0.000      0.000
  Name = 
  5 active torsions:
  status: ('A' for Active; 'I' for Inactive)
    1  A    between atoms: S_6  and  C_19
    2  A    between atoms: S_6  and  C_22
    3  A    between atoms: C_9  and  C_22
    4  A    between atoms: C_15  and  N_23
    5  A    between atoms: C_19  and  N_24
                            x       y       z     vdW  Elec       q    Type
                         _______ _______ _______ _____ _____    ______ ____

>  <TORSDO>
F 5

$$$$
=
 OpenBabel10262419273D

 31 34  0  0  1  0  0  0  0  0999 V2000
  180.9710  177.6960  141.4460 C   0  0  1  0  0  3  0  0  0  0  0  0
  181.9780  177.8760  137.7390 C   0  0  2  0  0  3  0  0  0  0  0  0
  181.4880  179.0470  136.8890 C   0  0  0  0  0  0  0  0  0  0  0  0
  180.8820  180.7740  139.0380 Cl  0  0  0  0  0  0  0  0  0  0  0  0
  181.9930  177.9890  139.2380 C   0  0  0  0  0  0  0  0  0  0  0  0
  181.7150  178.9470  141.9200 C   0  0  0  0  0  2  0  0  0  0  0  0
  180.9830  180.2930  137.3540 C   0  0  0  0  0  0  0  0  0  0  0  0
  184.5440  178.1220  137.7520 C   0  0  2  0  0  3  0  0  0  0  0  0
  179.5730  177.6790  142.0240 C   0  0  0  0  0  1  0  0  0  0  0  0
  182.1050  177.5350  134.9740 C   0  0  0  0  0  2  0  0  0  0  0  0
  180.5410  181.2460  136.4310 C   0  0  0  0  0  3  0  0  0  0  0  0
  184.3030  178.9370  139.0340 C   0  0  0  0  0  2  0  0  0  0  0  0
  183.3300  177.3280  137.2270 C   0  0  2  0  0  3  0  0  0  0  0  0
  180.9030  177.6740  139.9470 C   0  0  0  0  0  3  0  0  0  0  0  0
  180.5900  180.9970  135.0610 C   0  0  0  0  0  3  0  0  0  0  0  0
  183.2850  178.2860  139.9660 C   0  0  1  0  0  3  0  0  0  0  0  0
  183.0720  179.1550  141.2170 C   0  0  0  0  0  2  0  0  0  0  0  0
  183.4160  177.2090  135.6930 C   0  0  0  0  0  2  0  0  0  0  0  0
  181.5450  178.8230  135.4960 C   0  0  0  0  0  0  0  0  0  0  0  0
  181.0930  179.7870  134.5940 C   0  0  0  0  0  3  0  0  0  0  0  0
  187.3260  178.8890  137.3470 O   0  0  0  0  0  0  0  0  0  0  0  0
  187.0710  177.6930  137.6470 C   0  0  0  0  0  0  0  0  0  0  0  0
  185.7210  177.2680  137.8820 N   0  0  0  0  0  2  0  0  0  0  0  0
  188.5290  176.1380  136.3990 C   0  0  0  0  0  1  0  0  0  0  0  0
  188.1930  176.7180  137.7610 C   0  0  1  0  0  3  0  0  0  0  0  0
  189.6580  177.5240  138.4770 S   0  0  0  0  0  0  0  0  0  0  0  0
  189.0250  177.3860  140.1740 C   0  0  0  0  0  2  0  0  0  0  0  0
  189.7610  176.3570  142.3610 C   0  0  0  0  0  0  0  0  0  0  0  0
  188.4030  176.5070  142.9560 C   0  0  0  0  0  1  0  0  0  0  0  0
  190.6810  175.8430  143.0500 O   0  0  0  0  0  0  0  0  0  0  0  0
  190.0380  176.7840  141.0270 N   0  0  0  0  0  2  0  0  0  0  0  0
  1  6  1  0  0  0  0
  1  9  1  1  0  0  0
  2  3  1  6  0  0  0
  2  5  1  0  0  0  0
  3  7  1  0  0  0  0
  5 14  2  0  0  0  0
  5 16  1  0  0  0  0
  7  4  1  0  0  0  0
  8 23  1  1  0  0  0
  8 12  1  0  0  0  0
 10 19  1  0  0  0  0
 10 18  1  0  0  0  0
 11  7  2  0  0  0  0
 13 18  1  6  0  0  0
 13  2  1  0  0  0  0
 13  8  1  0  0  0  0
 14  1  1  0  0  0  0
 15 11  1  0  0  0  0
 16 12  1  6  0  0  0
 16 17  1  0  0  0  0
 17  6  1  0  0  0  0
 19  3  2  0  0  0  0
 20 15  2  0  0  0  0
 20 19  1  0  0  0  0
 21 22  2  0  0  0  0
 22 25  1  0  0  0  0
 22 23  1  0  0  0  0
 25 24  1  6  0  0  0
 25 26  1  0  0  0  0
 26 27  1  0  0  0  0
 27 31  1  0  0  0  0
 28 29  1  0  0  0  0
 28 30  2  0  0  0  0
 31 28  1  0  0  0  0
M  END
>  <MODEL>
2

>  <REMARK>
 VINA RESULT:      -5.9      5.601      8.459
  Name = 
  5 active torsions:
  status: ('A' for Active; 'I' for Inactive)
    1  A    between atoms: S_6  and  C_19
    2  A    between atoms: S_6  and  C_22
    3  A    between atoms: C_9  and  C_22
    4  A    between atoms: C_15  and  N_23
    5  A    between atoms: C_19  and  N_24
                            x       y       z     vdW  Elec       q    Type
                         _______ _______ _______ _____ _____    ______ ____

>  <TORSDO>
F 5

$$$$
=
 OpenBabel10262419273D

 31 34  0  0  1  0  0  0  0  0999 V2000
  191.1480  175.3710  143.4070 C   0  0  1  0  0  3  0  0  0  0  0  0
  187.6790  177.0280  143.4660 C   0  0  2  0  0  3  0  0  0  0  0  0
  187.2170  177.7490  144.7300 C   0  0  0  0  0  0  0  0  0  0  0  0
  189.7820  178.0910  145.8600 Cl  0  0  0  0  0  0  0  0  0  0  0  0
  189.1420  176.7680  143.2390 C   0  0  0  0  0  0  0  0  0  0  0  0
  191.9850  176.6470  143.5370 C   0  0  0  0  0  2  0  0  0  0  0  0
  188.0320  178.2060  145.8030 C   0  0  0  0  0  0  0  0  0  0  0  0
  187.7890  178.8800  141.6750 C   0  0  2  0  0  3  0  0  0  0  0  0
  191.6810  174.3080  144.3440 C   0  0  0  0  0  1  0  0  0  0  0  0
  184.9420  177.5140  143.6830 C   0  0  0  0  0  2  0  0  0  0  0  0
  187.4360  178.8180  146.9110 C   0  0  0  0  0  3  0  0  0  0  0  0
  189.2550  179.0080  142.1240 C   0  0  0  0  0  2  0  0  0  0  0  0
  187.0380  177.6380  142.1980 C   0  0  2  0  0  3  0  0  0  0  0  0
  189.7120  175.6620  143.7310 C   0  0  0  0  0  3  0  0  0  0  0  0
  186.0560  178.9920  146.9790 C   0  0  0  0  0  3  0  0  0  0  0  0
  189.9380  177.6560  142.3080 C   0  0  1  0  0  3  0  0  0  0  0  0
  191.3910  177.8490  142.7750 C   0  0  0  0  0  2  0  0  0  0  0  0
  185.5400  177.9680  142.3500 C   0  0  0  0  0  2  0  0  0  0  0  0
  185.8220  177.9510  144.8140 C   0  0  0  0  0  0  0  0  0  0  0  0
  185.2490  178.5610  145.9300 C   0  0  0  0  0  3  0  0  0  0  0  0
  188.4520  176.8690  139.6750 O   0  0  0  0  0  0  0  0  0  0  0  0
  188.0320  177.9890  139.2820 C   0  0  0  0  0  0  0  0  0  0  0  0
  187.6670  179.0060  140.2260 N   0  0  0  0  0  2  0  0  0  0  0  0
  189.0560  179.1270  137.3440 C   0  0  0  0  0  1  0  0  0  0  0  0
  187.9130  178.2490  137.8190 C   0  0  1  0  0  3  0  0  0  0  0  0
  187.9050  176.6790  136.9010 S   0  0  0  0  0  0  0  0  0  0  0  0
  189.6330  176.8650  136.3730 C   0  0  0  0  0  2  0  0  0  0  0  0
  191.3110  175.5760  137.7540 C   0  0  0  0  0  0  0  0  0  0  0  0
  191.5830  176.7530  138.6270 C   0  0  0  0  0  1  0  0  0  0  0  0
  191.9200  174.4970  137.9690 O   0  0  0  0  0  0  0  0  0  0  0  0
  190.3730  175.6520  136.6800 N   0  0  0  0  0  2  0  0  0  0  0  0
  1  6  1  0  0  0  0
  1 14  1  0  0  0  0
  1  9  1  1  0  0  0
  2  5  1  6  0  0  0
  2  3  1  0  0  0  0
  3 19  2  0  0  0  0
  3  7  1  0  0  0  0
  5 14  2  0  0  0  0
  7  4  1  0  0  0  0
  7 11  2  0  0  0  0
  8 23  1  6  0  0  0
  8 12  1  0  0  0  0
  8 13  1  0  0  0  0
 10 19  1  0  0  0  0
 11 15  1  0  0  0  0
 13 18  1  1  0  0  0
 13  2  1  0  0  0  0
 16 12  1  1  0  0  0
 16 17  1  0  0  0  0
 16  5  1  0  0  0  0
 17  6  1  0  0  0  0
 18 10  1  0  0  0  0
 19 20  1  0  0  0  0
 20 15  2  0  0  0  0
 22 21  2  0  0  0  0
 22 23  1  0  0  0  0
 25 24  1  6  0  0  0
 25 22  1  0  0  0  0
 26 25  1  0  0  0  0
 27 31  1  0  0  0  0
 27 26  1  0  0  0  0
 28 30  2  0  0  0  0
 28 29  1  0  0  0  0
 31 28  1  0  0  0  0
M  END
>  <MODEL>
3

>  <REMARK>
 VINA RESULT:      -5.8      3.819      8.052
  Name = 
  5 active torsions:
  status: ('A' for Active; 'I' for Inactive)
    1  A    between atoms: S_6  and  C_19
    2  A    between atoms: S_6  and  C_22
    3  A    between atoms: C_9  and  C_22
    4  A    between atoms: C_15  and  N_23
    5  A    between atoms: C_19  and  N_24
                            x       y       z     vdW  Elec       q    Type
                         _______ _______ _______ _____ _____    ______ ____

>  <TORSDO>
F 5

$$$$
=
 OpenBabel10262419273D

 31 34  0  0  1  0  0  0  0  0999 V2000
  191.2050  175.3320  143.4590 C   0  0  1  0  0  3  0  0  0  0  0  0
  187.7540  177.0060  143.7200 C   0  0  2  0  0  3  0  0  0  0  0  0
  187.3600  177.7070  145.0180 C   0  0  0  0  0  0  0  0  0  0  0  0
  189.9810  178.0160  146.0230 Cl  0  0  0  0  0  0  0  0  0  0  0  0
  189.2020  176.7420  143.4160 C   0  0  0  0  0  0  0  0  0  0  0  0
  192.0560  176.6000  143.5690 C   0  0  0  0  0  2  0  0  0  0  0  0
  188.2310  178.1410  146.0570 C   0  0  0  0  0  0  0  0  0  0  0  0
  187.7860  178.8890  141.9580 C   0  0  2  0  0  3  0  0  0  0  0  0
  191.7770  174.2500  144.3490 C   0  0  0  0  0  1  0  0  0  0  0  0
  185.0340  177.5030  144.0830 C   0  0  0  0  0  2  0  0  0  0  0  0
  187.6950  178.7370  147.2030 C   0  0  0  0  0  3  0  0  0  0  0  0
  189.2730  179.0010  142.3350 C   0  0  0  0  0  2  0  0  0  0  0  0
  187.0540  177.6410  142.4970 C   0  0  2  0  0  3  0  0  0  0  0  0
  189.7890  175.6250  143.8600 C   0  0  0  0  0  3  0  0  0  0  0  0
  186.3210  178.9170  147.3440 C   0  0  0  0  0  3  0  0  0  0  0  0
  189.9560  177.6420  142.4620 C   0  0  1  0  0  3  0  0  0  0  0  0
  191.4310  177.8180  142.8580 C   0  0  0  0  0  2  0  0  0  0  0  0
  185.5680  177.9770  142.7290 C   0  0  0  0  0  2  0  0  0  0  0  0
  185.9730  177.9160  145.1750 C   0  0  0  0  0  0  0  0  0  0  0  0
  185.4600  178.5090  146.3290 C   0  0  0  0  0  3  0  0  0  0  0  0
  188.6790  177.0710  139.8640 O   0  0  0  0  0  0  0  0  0  0  0  0
  188.0760  178.1240  139.5270 C   0  0  0  0  0  0  0  0  0  0  0  0
  187.5920  179.0400  140.5200 N   0  0  0  0  0  2  0  0  0  0  0  0
  189.1190  179.0040  137.4680 C   0  0  0  0  0  1  0  0  0  0  0  0
  187.8630  178.4090  138.0790 C   0  0  1  0  0  3  0  0  0  0  0  0
  187.4000  176.8850  137.2000 S   0  0  0  0  0  0  0  0  0  0  0  0
  185.6240  177.1520  137.4720 C   0  0  0  0  0  2  0  0  0  0  0  0
  184.4280  178.9110  138.8360 C   0  0  0  0  0  0  0  0  0  0  0  0
  183.6080  177.8880  139.5440 C   0  0  0  0  0  1  0  0  0  0  0  0
  184.2700  180.1280  139.1160 O   0  0  0  0  0  0  0  0  0  0  0  0
  185.3890  178.5370  137.8470 N   0  0  0  0  0  2  0  0  0  0  0  0
  1  6  1  0  0  0  0
  1 14  1  0  0  0  0
  1  9  1  1  0  0  0
  2  5  1  6  0  0  0
  2  3  1  0  0  0  0
  3 19  2  0  0  0  0
  3  7  1  0  0  0  0
  4  7  1  0  0  0  0
  5 14  2  0  0  0  0
  7 11  2  0  0  0  0
  8 23  1  6  0  0  0
  8 12  1  0  0  0  0
  8 13  1  0  0  0  0
 10 19  1  0  0  0  0
 11 15  1  0  0  0  0
 13 18  1  1  0  0  0
 13  2  1  0  0  0  0
 16 12  1  1  0  0  0
 16 17  1  0  0  0  0
 16  5  1  0  0  0  0
 17  6  1  0  0  0  0
 18 10  1  0  0  0  0
 19 20  1  0  0  0  0
 20 15  2  0  0  0  0
 22 21  2  0  0  0  0
 22 23  1  0  0  0  0
 25 24  1  6  0  0  0
 25 22  1  0  0  0  0
 26 27  1  0  0  0  0
 26 25  1  0  0  0  0
 27 31  1  0  0  0  0
 28 30  2  0  0  0  0
 28 29  1  0  0  0  0
 31 28  1  0  0  0  0
M  END
>  <MODEL>
4

>  <REMARK>
 VINA RESULT:      -5.8      4.533      8.417
  Name = 
  5 active torsions:
  status: ('A' for Active; 'I' for Inactive)
    1  A    between atoms: S_6  and  C_19
    2  A    between atoms: S_6  and  C_22
    3  A    between atoms: C_9  and  C_22
    4  A    between atoms: C_15  and  N_23
    5  A    between atoms: C_19  and  N_24
                            x       y       z     vdW  Elec       q    Type
                         _______ _______ _______ _____ _____    ______ ____

>  <TORSDO>
F 5

$$$$
=
 OpenBabel10262419273D

 31 34  0  0  1  0  0  0  0  0999 V2000
  187.8470  173.2160  136.8870 C   0  0  1  0  0  3  0  0  0  0  0  0
  190.7960  175.4670  137.8950 C   0  0  2  0  0  3  0  0  0  0  0  0
  191.8170  175.8790  136.8370 C   0  0  0  0  0  0  0  0  0  0  0  0
  190.1840  175.3510  134.5940 Cl  0  0  0  0  0  0  0  0  0  0  0  0
  189.4340  174.9850  137.4810 C   0  0  0  0  0  0  0  0  0  0  0  0
  187.1520  174.2000  135.9420 C   0  0  0  0  0  2  0  0  0  0  0  0
  191.6530  175.8350  135.4240 C   0  0  0  0  0  0  0  0  0  0  0  0
  189.7210  177.6850  138.6480 C   0  0  2  0  0  3  0  0  0  0  0  0
  187.9070  171.8450  136.2470 C   0  0  0  0  0  1  0  0  0  0  0  0
  193.2400  176.4250  138.8380 C   0  0  0  0  0  2  0  0  0  0  0  0
  192.7110  176.2180  134.5940 C   0  0  0  0  0  3  0  0  0  0  0  0
  188.6890  177.3760  137.5500 C   0  0  0  0  0  2  0  0  0  0  0  0
  190.6750  176.5290  139.0120 C   0  0  2  0  0  3  0  0  0  0  0  0
  189.2350  173.6930  137.1990 C   0  0  0  0  0  3  0  0  0  0  0  0
  193.9250  176.6470  135.1280 C   0  0  0  0  0  3  0  0  0  0  0  0
  188.2440  175.9160  137.5500 C   0  0  1  0  0  3  0  0  0  0  0  0
  187.2310  175.6650  136.4210 C   0  0  0  0  0  2  0  0  0  0  0  0
  192.0270  177.1040  139.4790 C   0  0  0  0  0  2  0  0  0  0  0  0
  193.0490  176.3330  137.3550 C   0  0  0  0  0  0  0  0  0  0  0  0
  194.0930  176.7060  136.5080 C   0  0  0  0  0  3  0  0  0  0  0  0
  189.3060  176.3510  141.2050 O   0  0  0  0  0  0  0  0  0  0  0  0
  188.8770  177.5260  141.0650 C   0  0  0  0  0  0  0  0  0  0  0  0
  189.0780  178.2380  139.8360 N   0  0  0  0  0  2  0  0  0  0  0  0
  186.6920  178.3590  141.8590 C   0  0  0  0  0  1  0  0  0  0  0  0
  188.1590  178.1770  142.1990 C   0  0  1  0  0  3  0  0  0  0  0  0
  188.3340  177.1790  143.7090 S   0  0  0  0  0  0  0  0  0  0  0  0
  186.6840  177.6330  144.3170 C   0  0  0  0  0  2  0  0  0  0  0  0
  185.6490  178.5880  146.4150 C   0  0  0  0  0  0  0  0  0  0  0  0
  184.2960  178.6440  145.7920 C   0  0  0  0  0  1  0  0  0  0  0  0
  185.7960  178.9790  147.6020 O   0  0  0  0  0  0  0  0  0  0  0  0
  186.7790  178.1000  145.6910 N   0  0  0  0  0  2  0  0  0  0  0  0
  1  9  1  6  0  0  0
  1 14  1  0  0  0  0
  2  3  1  6  0  0  0
  2 13  1  0  0  0  0
  3 19  1  0  0  0  0
  4  7  1  0  0  0  0
  5 16  1  0  0  0  0
  5  2  1  0  0  0  0
  6 17  1  0  0  0  0
  6  1  1  0  0  0  0
  7  3  2  0  0  0  0
  8 13  1  0  0  0  0
  8 23  1  1  0  0  0
 10 18  1  0  0  0  0
 11 15  2  0  0  0  0
 11  7  1  0  0  0  0
 12 16  1  0  0  0  0
 12  8  1  0  0  0  0
 13 18  1  6  0  0  0
 14  5  2  0  0  0  0
 15 20  1  0  0  0  0
 16 17  1  6  0  0  0
 19 10  1  0  0  0  0
 20 19  2  0  0  0  0
 22 21  2  0  0  0  0
 22 25  1  0  0  0  0
 23 22  1  0  0  0  0
 25 24  1  6  0  0  0
 25 26  1  0  0  0  0
 26 27  1  0  0  0  0
 27 31  1  0  0  0  0
 28 30  2  0  0  0  0
 29 28  1  0  0  0  0
 31 28  1  0  0  0  0
M  END
>  <MODEL>
5

>  <REMARK>
 VINA RESULT:      -5.8      2.553      4.652
  Name = 
  5 active torsions:
  status: ('A' for Active; 'I' for Inactive)
    1  A    between atoms: S_6  and  C_19
    2  A    between atoms: S_6  and  C_22
    3  A    between atoms: C_9  and  C_22
    4  A    between atoms: C_15  and  N_23
    5  A    between atoms: C_19  and  N_24
                            x       y       z     vdW  Elec       q    Type
                         _______ _______ _______ _____ _____    ______ ____

>  <TORSDO>
F 5

$$$$
=
 OpenBabel10262419273D

 31 34  0  0  1  0  0  0  0  0999 V2000
  185.9050  173.6710  135.9630 C   0  0  1  0  0  3  0  0  0  0  0  0
  188.3870  175.8310  137.9520 C   0  0  2  0  0  3  0  0  0  0  0  0
  189.8080  176.0140  137.4230 C   0  0  0  0  0  0  0  0  0  0  0  0
  189.2530  175.2850  134.7520 Cl  0  0  0  0  0  0  0  0  0  0  0  0
  187.2890  175.3910  137.0240 C   0  0  0  0  0  0  0  0  0  0  0  0
  185.8180  174.5560  134.7170 C   0  0  0  0  0  2  0  0  0  0  0  0
  190.2670  175.7790  136.0970 C   0  0  0  0  0  0  0  0  0  0  0  0
  187.3810  178.2050  137.9260 C   0  0  2  0  0  3  0  0  0  0  0  0
  186.0620  172.2220  135.5540 C   0  0  0  0  0  1  0  0  0  0  0  0
  190.2820  176.7410  139.7840 C   0  0  0  0  0  2  0  0  0  0  0  0
  191.6190  175.9640  135.7910 C   0  0  0  0  0  3  0  0  0  0  0  0
  186.8960  177.8140  136.5200 C   0  0  0  0  0  2  0  0  0  0  0  0
  187.9310  177.0480  138.7880 C   0  0  2  0  0  3  0  0  0  0  0  0
  187.0700  174.0890  136.8110 C   0  0  0  0  0  3  0  0  0  0  0  0
  192.5260  176.3790  136.7640 C   0  0  0  0  0  3  0  0  0  0  0  0
  186.3140  176.4040  136.4650 C   0  0  1  0  0  3  0  0  0  0  0  0
  185.8660  176.0650  135.0340 C   0  0  0  0  0  2  0  0  0  0  0  0
  189.0080  177.5890  139.7480 C   0  0  0  0  0  2  0  0  0  0  0  0
  190.7410  176.4510  138.3890 C   0  0  0  0  0  0  0  0  0  0  0  0
  192.0870  176.6240  138.0620 C   0  0  0  0  0  3  0  0  0  0  0  0
  184.7480  177.2730  138.7560 O   0  0  0  0  0  0  0  0  0  0  0  0
  185.0700  178.4640  139.0070 C   0  0  0  0  0  0  0  0  0  0  0  0
  186.3640  178.9660  138.6440 N   0  0  0  0  0  2  0  0  0  0  0  0
  183.2040  180.0490  138.6780 C   0  0  0  0  0  1  0  0  0  0  0  0
  184.0890  179.3520  139.6950 C   0  0  1  0  0  3  0  0  0  0  0  0
  183.0720  178.3870  140.8540 S   0  0  0  0  0  0  0  0  0  0  0  0
  184.3310  178.4450  142.1610 C   0  0  0  0  0  2  0  0  0  0  0  0
  184.4000  178.6970  144.6750 C   0  0  0  0  0  0  0  0  0  0  0  0
  185.8210  178.2520  144.7380 C   0  0  0  0  0  1  0  0  0  0  0  0
  183.8030  179.0020  145.7390 O   0  0  0  0  0  0  0  0  0  0  0  0
  183.7050  178.7820  143.4290 N   0  0  0  0  0  2  0  0  0  0  0  0
  1  9  1  6  0  0  0
  1 14  1  0  0  0  0
  2  5  1  6  0  0  0
  2 13  1  0  0  0  0
  3  2  1  0  0  0  0
  3 19  1  0  0  0  0
  4  7  1  0  0  0  0
  6 17  1  0  0  0  0
  6  1  1  0  0  0  0
  7  3  2  0  0  0  0
  8 23  1  1  0  0  0
  8 13  1  0  0  0  0
 11  7  1  0  0  0  0
 11 15  2  0  0  0  0
 12  8  1  0  0  0  0
 13 18  1  6  0  0  0
 14  5  2  0  0  0  0
 15 20  1  0  0  0  0
 16 17  1  6  0  0  0
 16 12  1  0  0  0  0
 16  5  1  0  0  0  0
 18 10  1  0  0  0  0
 19 10  1  0  0  0  0
 20 19  2  0  0  0  0
 21 22  2  0  0  0  0
 22 25  1  0  0  0  0
 23 22  1  0  0  0  0
 25 24  1  6  0  0  0
 25 26  1  0  0  0  0
 26 27  1  0  0  0  0
 27 31  1  0  0  0  0
 28 29  1  0  0  0  0
 28 30  2  0  0  0  0
 31 28  1  0  0  0  0
M  END
>  <MODEL>
6

>  <REMARK>
 VINA RESULT:      -5.5      3.722      5.907
  Name = 
  5 active torsions:
  status: ('A' for Active; 'I' for Inactive)
    1  A    between atoms: S_6  and  C_19
    2  A    between atoms: S_6  and  C_22
    3  A    between atoms: C_9  and  C_22
    4  A    between atoms: C_15  and  N_23
    5  A    between atoms: C_19  and  N_24
                            x       y       z     vdW  Elec       q    Type
                         _______ _______ _______ _____ _____    ______ ____

>  <TORSDO>
F 5

$$$$
=
 OpenBabel10262419273D

 31 34  0  0  1  0  0  0  0  0999 V2000
  187.8570  177.9400  135.7350 C   0  0  1  0  0  3  0  0  0  0  0  0
  184.3240  176.4910  136.1870 C   0  0  2  0  0  3  0  0  0  0  0  0
  184.1620  175.0120  136.5310 C   0  0  0  0  0  0  0  0  0  0  0  0
  186.7880  174.6170  137.4930 Cl  0  0  0  0  0  0  0  0  0  0  0  0
  185.6350  177.1830  136.4370 C   0  0  0  0  0  0  0  0  0  0  0  0
  188.3410  177.7500  137.1750 C   0  0  0  0  0  2  0  0  0  0  0  0
  185.1560  174.1400  137.0570 C   0  0  0  0  0  0  0  0  0  0  0  0
  183.3440  177.7330  138.2230 C   0  0  2  0  0  3  0  0  0  0  0  0
  188.9270  177.4820  134.7680 C   0  0  0  0  0  1  0  0  0  0  0  0
  181.8010  175.3870  135.7480 C   0  0  0  0  0  2  0  0  0  0  0  0
  184.8460  172.7940  137.2810 C   0  0  0  0  0  3  0  0  0  0  0  0
  184.7930  177.7060  138.7380 C   0  0  0  0  0  2  0  0  0  0  0  0
  183.1550  177.3350  136.7440 C   0  0  2  0  0  3  0  0  0  0  0  0
  186.5970  177.1580  135.5080 C   0  0  0  0  0  3  0  0  0  0  0  0
  183.5770  172.2930  136.9990 C   0  0  0  0  0  3  0  0  0  0  0  0
  185.8130  178.0590  137.6580 C   0  0  1  0  0  3  0  0  0  0  0  0
  187.2390  177.9960  138.2270 C   0  0  0  0  0  2  0  0  0  0  0  0
  181.7700  176.6850  136.5600 C   0  0  0  0  0  2  0  0  0  0  0  0
  182.8790  174.4860  136.2690 C   0  0  0  0  0  0  0  0  0  0  0  0
  182.5930  173.1390  136.4950 C   0  0  0  0  0  3  0  0  0  0  0  0
  180.8360  178.1560  139.6430 O   0  0  0  0  0  0  0  0  0  0  0  0
  181.4510  179.1610  139.2000 C   0  0  0  0  0  0  0  0  0  0  0  0
  182.7030  179.0110  138.5160 N   0  0  0  0  0  2  0  0  0  0  0  0
  180.9500  181.3230  138.1140 C   0  0  0  0  0  1  0  0  0  0  0  0
  180.8640  180.5180  139.3980 C   0  0  1  0  0  3  0  0  0  0  0  0
  179.1330  180.3810  139.9380 S   0  0  0  0  0  0  0  0  0  0  0  0
  179.5320  180.8140  141.6560 C   0  0  0  0  0  2  0  0  0  0  0  0
  179.9520  178.9340  143.2910 C   0  0  0  0  0  0  0  0  0  0  0  0
  181.4300  179.1000  143.1900 C   0  0  0  0  0  1  0  0  0  0  0  0
  179.4830  178.0430  144.0460 O   0  0  0  0  0  0  0  0  0  0  0  0
  179.0610  179.7660  142.5470 N   0  0  0  0  0  2  0  0  0  0  0  0
  1  9  1  6  0  0  0
  1  6  1  0  0  0  0
  2  5  1  1  0  0  0
  2  3  1  0  0  0  0
  2 13  1  0  0  0  0
  3  7  1  0  0  0  0
  5 16  1  0  0  0  0
  6 17  1  0  0  0  0
  7 11  2  0  0  0  0
  7  4  1  0  0  0  0
  8 23  1  6  0  0  0
  8 12  1  0  0  0  0
 10 19  1  0  0  0  0
 10 18  1  0  0  0  0
 13 18  1  1  0  0  0
 13  8  1  0  0  0  0
 14  1  1  0  0  0  0
 14  5  2  0  0  0  0
 15 11  1  0  0  0  0
 16 17  1  1  0  0  0
 16 12  1  0  0  0  0
 19 20  1  0  0  0  0
 19  3  2  0  0  0  0
 20 15  2  0  0  0  0
 22 25  1  0  0  0  0
 22 21  2  0  0  0  0
 23 22  1  0  0  0  0
 25 24  1  6  0  0  0
 25 26  1  0  0  0  0
 26 27  1  0  0  0  0
 27 31  1  0  0  0  0
 28 30  2  0  0  0  0
 29 28  1  0  0  0  0
 31 28  1  0  0  0  0
M  END
>  <MODEL>
7

>  <REMARK>
 VINA RESULT:      -5.4      6.118      8.052
  Name = 
  5 active torsions:
  status: ('A' for Active; 'I' for Inactive)
    1  A    between atoms: S_6  and  C_19
    2  A    between atoms: S_6  and  C_22
    3  A    between atoms: C_9  and  C_22
    4  A    between atoms: C_15  and  N_23
    5  A    between atoms: C_19  and  N_24
                            x       y       z     vdW  Elec       q    Type
                         _______ _______ _______ _____ _____    ______ ____

>  <TORSDO>
F 5

$$$$
=
 OpenBabel10262419273D

 31 34  0  0  1  0  0  0  0  0999 V2000
  183.8960  178.2240  141.9810 C   0  0  1  0  0  3  0  0  0  0  0  0
  182.8460  177.3010  138.3990 C   0  0  2  0  0  3  0  0  0  0  0  0
  182.0460  178.3060  137.5730 C   0  0  0  0  0  0  0  0  0  0  0  0
  182.7270  180.5860  139.0940 Cl  0  0  0  0  0  0  0  0  0  0  0  0
  183.6410  177.7660  139.5880 C   0  0  0  0  0  0  0  0  0  0  0  0
  184.8390  179.3770  141.6260 C   0  0  0  0  0  2  0  0  0  0  0  0
  181.9170  179.7030  137.8120 C   0  0  0  0  0  0  0  0  0  0  0  0
  185.0570  177.0210  137.1030 C   0  0  2  0  0  3  0  0  0  0  0  0
  183.0000  178.6280  143.1320 C   0  0  0  0  0  1  0  0  0  0  0  0
  181.5070  176.2860  136.1740 C   0  0  0  0  0  2  0  0  0  0  0  0
  181.1090  180.4750  136.9710 C   0  0  0  0  0  3  0  0  0  0  0  0
  185.5550  178.1520  138.0180 C   0  0  0  0  0  2  0  0  0  0  0  0
  183.7080  176.3850  137.5000 C   0  0  2  0  0  3  0  0  0  0  0  0
  183.0610  177.8570  140.7900 C   0  0  0  0  0  3  0  0  0  0  0  0
  180.4290  179.8990  135.9000 C   0  0  0  0  0  3  0  0  0  0  0  0
  185.1360  177.9630  139.4740 C   0  0  1  0  0  3  0  0  0  0  0  0
  185.6450  179.1320  140.3340 C   0  0  0  0  0  2  0  0  0  0  0  0
  182.9820  175.8850  136.2360 C   0  0  0  0  0  2  0  0  0  0  0  0
  181.3620  177.7470  136.4720 C   0  0  0  0  0  0  0  0  0  0  0  0
  180.5570  178.5360  135.6490 C   0  0  0  0  0  3  0  0  0  0  0  0
  187.0480  176.9180  134.9780 O   0  0  0  0  0  0  0  0  0  0  0  0
  187.0300  175.9900  135.8280 C   0  0  0  0  0  0  0  0  0  0  0  0
  186.0880  176.0050  136.9100 N   0  0  0  0  0  2  0  0  0  0  0  0
  187.5720  173.9100  134.6120 C   0  0  0  0  0  1  0  0  0  0  0  0
  188.0070  174.8700  135.7030 C   0  0  1  0  0  3  0  0  0  0  0  0
  189.6660  175.5220  135.3400 S   0  0  0  0  0  0  0  0  0  0  0  0
  189.9330  176.0680  137.0520 C   0  0  0  0  0  2  0  0  0  0  0  0
  189.2130  178.1300  138.3230 C   0  0  0  0  0  0  0  0  0  0  0  0
  188.8600  177.3320  139.5310 C   0  0  0  0  0  1  0  0  0  0  0  0
  189.0560  179.3780  138.3420 O   0  0  0  0  0  0  0  0  0  0  0  0
  189.7260  177.5040  137.1460 N   0  0  0  0  0  2  0  0  0  0  0  0
  1  9  1  1  0  0  0
  2  3  1  6  0  0  0
  2  5  1  0  0  0  0
  3  7  1  0  0  0  0
  5 14  2  0  0  0  0
  6  1  1  0  0  0  0
  7  4  1  0  0  0  0
  8 23  1  1  0  0  0
  8 13  1  0  0  0  0
  8 12  1  0  0  0  0
 10 18  1  0  0  0  0
 10 19  1  0  0  0  0
 11  7  2  0  0  0  0
 13 18  1  6  0  0  0
 13  2  1  0  0  0  0
 14  1  1  0  0  0  0
 15 11  1  0  0  0  0
 16 12  1  6  0  0  0
 16  5  1  0  0  0  0
 16 17  1  0  0  0  0
 17  6  1  0  0  0  0
 19  3  2  0  0  0  0
 20 15  2  0  0  0  0
 20 19  1  0  0  0  0
 21 22  2  0  0  0  0
 22 23  1  0  0  0  0
 25 24  1  6  0  0  0
 25 22  1  0  0  0  0
 26 25  1  0  0  0  0
 26 27  1  0  0  0  0
 27 31  1  0  0  0  0
 28 30  2  0  0  0  0
 28 29  1  0  0  0  0
 31 28  1  0  0  0  0
M  END
>  <MODEL>
8

>  <REMARK>
 VINA RESULT:      -5.4      5.026      8.472
  Name = 
  5 active torsions:
  status: ('A' for Active; 'I' for Inactive)
    1  A    between atoms: S_6  and  C_19
    2  A    between atoms: S_6  and  C_22
    3  A    between atoms: C_9  and  C_22
    4  A    between atoms: C_15  and  N_23
    5  A    between atoms: C_19  and  N_24
                            x       y       z     vdW  Elec       q    Type
                         _______ _______ _______ _____ _____    ______ ____

>  <TORSDO>
F 5

$$$$
=
 OpenBabel10262419273D

 31 34  0  0  1  0  0  0  0  0999 V2000
  182.3370  177.8110  139.7530 C   0  0  1  0  0  3  0  0  0  0  0  0
  183.7980  174.7870  137.8810 C   0  0  2  0  0  3  0  0  0  0  0  0
  182.8530  173.8280  137.1600 C   0  0  0  0  0  0  0  0  0  0  0  0
  180.6570  175.5960  137.0050 Cl  0  0  0  0  0  0  0  0  0  0  0  0
  183.3400  176.1760  138.2290 C   0  0  0  0  0  0  0  0  0  0  0  0
  181.7750  178.5520  138.5370 C   0  0  0  0  0  2  0  0  0  0  0  0
  181.5050  174.0770  136.7790 C   0  0  0  0  0  0  0  0  0  0  0  0
  185.2460  175.7960  136.0010 C   0  0  2  0  0  3  0  0  0  0  0  0
  181.3130  177.8010  140.8680 C   0  0  0  0  0  1  0  0  0  0  0  0
  184.8380  172.2840  137.2270 C   0  0  0  0  0  2  0  0  0  0  0  0
  180.7670  173.0660  136.1530 C   0  0  0  0  0  3  0  0  0  0  0  0
  184.1680  176.8940  135.9770 C   0  0  0  0  0  2  0  0  0  0  0  0
  185.1870  174.8320  137.2040 C   0  0  2  0  0  3  0  0  0  0  0  0
  182.6950  176.4020  139.3790 C   0  0  0  0  0  3  0  0  0  0  0  0
  181.3320  171.8190  135.8940 C   0  0  0  0  0  3  0  0  0  0  0  0
  183.7570  177.3520  137.3730 C   0  0  1  0  0  3  0  0  0  0  0  0
  182.6670  178.4320  137.2830 C   0  0  0  0  0  2  0  0  0  0  0  0
  185.7240  173.4500  136.7830 C   0  0  0  0  0  2  0  0  0  0  0  0
  183.4100  172.5630  136.8710 C   0  0  0  0  0  0  0  0  0  0  0  0
  182.6530  171.5690  136.2500 C   0  0  0  0  0  3  0  0  0  0  0  0
  186.8600  177.1120  138.0390 O   0  0  0  0  0  0  0  0  0  0  0  0
  187.3230  177.0230  136.8720 C   0  0  0  0  0  0  0  0  0  0  0  0
  186.5810  176.3620  135.8370 N   0  0  0  0  0  2  0  0  0  0  0  0
  188.7920  178.9780  137.2190 C   0  0  0  0  0  1  0  0  0  0  0  0
  188.6610  177.6100  136.5750 C   0  0  1  0  0  3  0  0  0  0  0  0
  189.9790  176.5070  137.1710 S   0  0  0  0  0  0  0  0  0  0  0  0
  190.2740  177.5030  138.6600 C   0  0  0  0  0  2  0  0  0  0  0  0
  189.9070  176.7920  141.0570 C   0  0  0  0  0  0  0  0  0  0  0  0
  188.9180  177.8820  141.2900 C   0  0  0  0  0  1  0  0  0  0  0  0
  190.1850  176.0010  141.9960 O   0  0  0  0  0  0  0  0  0  0  0  0
  190.5450  176.6280  139.7890 N   0  0  0  0  0  2  0  0  0  0  0  0
  1  9  1  1  0  0  0
  2  3  1  6  0  0  0
  2  5  1  0  0  0  0
  5 14  2  0  0  0  0
  6  1  1  0  0  0  0
  7  4  1  0  0  0  0
  7  3  2  0  0  0  0
  8 23  1  1  0  0  0
  8 13  1  0  0  0  0
 11  7  1  0  0  0  0
 12  8  1  0  0  0  0
 13 18  1  6  0  0  0
 13  2  1  0  0  0  0
 14  1  1  0  0  0  0
 15 11  2  0  0  0  0
 15 20  1  0  0  0  0
 16 12  1  6  0  0  0
 16  5  1  0  0  0  0
 17 16  1  0  0  0  0
 17  6  1  0  0  0  0
 18 10  1  0  0  0  0
 19  3  1  0  0  0  0
 19 10  1  0  0  0  0
 20 19  2  0  0  0  0
 22 21  2  0  0  0  0
 23 22  1  0  0  0  0
 25 22  1  0  0  0  0
 25 26  1  0  0  0  0
 25 24  1  1  0  0  0
 26 27  1  0  0  0  0
 27 31  1  0  0  0  0
 28 29  1  0  0  0  0
 28 30  2  0  0  0  0
 31 28  1  0  0  0  0
M  END
>  <MODEL>
9

>  <REMARK>
 VINA RESULT:      -5.3      4.636      7.822
  Name = 
  5 active torsions:
  status: ('A' for Active; 'I' for Inactive)
    1  A    between atoms: S_6  and  C_19
    2  A    between atoms: S_6  and  C_22
    3  A    between atoms: C_9  and  C_22
    4  A    between atoms: C_15  and  N_23
    5  A    between atoms: C_19  and  N_24
                            x       y       z     vdW  Elec       q    Type
                         _______ _______ _______ _____ _____    ______ ____

>  <TORSDO>
F 5

$$$$
