=
 OpenBabel10262422043D

 43 48  0  0  1  0  0  0  0  0999 V2000
  191.1680  176.5220  146.9530 C   0  0  0  0  0  0  0  0  0  0  0  0
  188.9520  178.0010  142.6530 C   0  0  0  0  0  0  0  0  0  0  0  0
  186.1260  177.8310  143.0890 C   0  0  2  0  0  3  0  0  0  0  0  0
  190.7270  177.1500  144.6560 C   0  0  0  0  0  0  0  0  0  0  0  0
  189.8240  176.7390  147.2760 C   0  0  0  0  0  3  0  0  0  0  0  0
  192.0560  176.1010  147.9330 O   0  0  0  0  0  1  0  0  0  0  0  0
  189.3640  177.3700  144.9730 C   0  0  0  0  0  0  0  0  0  0  0  0
  191.6180  176.7280  145.6460 C   0  0  0  0  0  3  0  0  0  0  0  0
  188.9270  177.1610  146.2920 C   0  0  0  0  0  3  0  0  0  0  0  0
  187.0410  178.1330  144.2820 C   0  0  0  0  0  2  0  0  0  0  0  0
  188.4760  177.7940  143.9650 C   0  0  0  0  0  0  0  0  0  0  0  0
  190.3040  177.7840  142.3590 C   0  0  0  0  0  3  0  0  0  0  0  0
  188.0190  178.4470  141.5910 C   0  0  0  0  0  0  0  0  0  0  0  0
  186.7000  178.4190  141.8250 C   0  0  0  0  0  3  0  0  0  0  0  0
  191.1870  177.3610  143.3550 C   0  0  0  0  0  3  0  0  0  0  0  0
  184.7120  178.3570  143.3440 C   0  0  1  0  0  3  0  0  0  0  0  0
  184.7480  179.8160  143.7730 C   0  0  0  0  0  1  0  0  0  0  0  0
  183.9010  178.2340  142.1390 N   0  0  0  0  0  2  0  0  0  0  0  0
  182.4980  178.5000  142.1330 C   0  0  0  0  0  0  0  0  0  0  0  0
  181.9050  178.8320  143.1970 O   0  0  0  0  0  0  0  0  0  0  0  0
  181.7300  178.3590  140.8610 C   0  0  0  0  0  2  0  0  0  0  0  0
  182.2270  179.2870  139.8530 N   0  0  0  0  0  0  0  0  0  0  0  0
  181.6970  179.3390  137.5030 C   0  0  0  0  0  2  0  0  0  0  0  0
  181.1800  180.2820  139.6350 C   0  0  0  0  0  2  0  0  0  0  0  0
  182.3790  178.5510  138.5970 C   0  0  1  0  0  3  0  0  0  0  0  0
  180.6390  180.1180  138.2290 C   0  0  0  0  0  2  0  0  0  0  0  0
  184.2620  177.1710  137.5780 N   0  0  0  0  0  0  0  0  0  0  0  0
  183.8300  178.3470  138.2770 C   0  0  0  0  0  0  0  0  0  0  0  0
  185.8150  175.4610  136.9330 C   0  0  0  0  0  2  0  0  0  0  0  0
  184.2460  174.8860  136.2180 S   0  0  0  0  0  0  0  0  0  0  0  0
  185.6670  176.9220  137.3000 C   0  0  1  0  0  3  0  0  0  0  0  0
  183.3260  176.1430  137.1500 C   0  0  0  0  0  2  0  0  0  0  0  0
  186.0810  177.7170  136.2300 O   0  0  0  0  0  1  0  0  0  0  0  0
  184.6710  179.2210  138.6260 O   0  0  0  0  0  0  0  0  0  0  0  0
  188.5550  178.9530  140.3560 N   0  0  0  0  0  2  0  0  0  0  0  0
  189.3060  176.1830  137.9240 C   0  0  0  0  0  3  0  0  0  0  0  0
  189.4440  176.9110  136.7390 C   0  0  0  0  0  0  0  0  0  0  0  0
  189.0000  178.9610  137.9610 C   0  0  0  0  0  3  0  0  0  0  0  0
  189.0110  176.8430  139.1210 C   0  0  0  0  0  3  0  0  0  0  0  0
  188.8500  178.2370  139.1470 C   0  0  0  0  0  0  0  0  0  0  0  0
  189.2930  178.3050  136.7620 C   0  0  0  0  0  3  0  0  0  0  0  0
  189.3830  174.8740  135.3470 N   0  0  0  0  0  1  0  0  0  0  0  0
  189.7260  176.2220  135.5190 N   0  0  0  0  0  2  0  0  0  0  0  0
  1  5  1  0  0  0  0
  1  6  1  0  0  0  0
  2 11  1  0  0  0  0
  3 16  1  1  0  0  0
  3 10  1  0  0  0  0
  4  7  1  0  0  0  0
  4  8  1  0  0  0  0
  7  9  1  0  0  0  0
  8  1  2  0  0  0  0
  9  5  2  0  0  0  0
 11 10  1  0  0  0  0
 11  7  2  0  0  0  0
 12  2  2  0  0  0  0
 12 15  1  0  0  0  0
 13 14  2  0  0  0  0
 13  2  1  0  0  0  0
 14  3  1  0  0  0  0
 15  4  2  0  0  0  0
 16 17  1  6  0  0  0
 18 16  1  0  0  0  0
 19 18  1  0  0  0  0
 19 20  2  0  0  0  0
 21 19  1  0  0  0  0
 22 21  1  0  0  0  0
 23 26  1  0  0  0  0
 23 25  1  0  0  0  0
 24 22  1  0  0  0  0
 25 28  1  6  0  0  0
 25 22  1  0  0  0  0
 26 24  1  0  0  0  0
 27 28  1  0  0  0  0
 28 34  2  0  0  0  0
 29 31  1  0  0  0  0
 30 29  1  0  0  0  0
 30 32  1  0  0  0  0
 31 33  1  6  0  0  0
 31 27  1  0  0  0  0
 32 27  1  0  0  0  0
 35 13  1  0  0  0  0
 36 39  1  0  0  0  0
 37 41  1  0  0  0  0
 37 36  2  0  0  0  0
 38 40  1  0  0  0  0
 39 40  2  0  0  0  0
 40 35  1  0  0  0  0
 41 38  2  0  0  0  0
 42 43  1  0  0  0  0
 43 37  1  0  0  0  0
M  END
>  <MODEL>
1

>  <REMARK>
 VINA RESULT:      -9.8      0.000      0.000
  Name = 
  8 active torsions:
  status: ('A' for Active; 'I' for Inactive)
    1  A    between atoms: N_1  and  C_34
    2  A    between atoms: N_1  and  C_35
    3  A    between atoms: C_2  and  N_6
    4  A    between atoms: C_2  and  C_13
    5  A    between atoms: C_3  and  N_4
    6  A    between atoms: C_3  and  C_12
    7  A    between atoms: C_14  and  C_22
    8  A    between atoms: C_19  and  N_37
                            x       y       z     vdW  Elec       q    Type
                         _______ _______ _______ _____ _____    ______ ____

>  <TORSDO>
F 8

$$$$
=
 OpenBabel10262422043D

 43 48  0  0  1  0  0  0  0  0999 V2000
  191.3280  176.5320  146.9920 C   0  0  0  0  0  0  0  0  0  0  0  0
  187.2600  177.8320  144.2790 C   0  0  0  0  0  0  0  0  0  0  0  0
  188.2100  178.5370  141.6690 C   0  0  2  0  0  3  0  0  0  0  0  0
  189.0950  177.1640  146.2980 C   0  0  0  0  0  0  0  0  0  0  0  0
  191.7560  176.5620  145.6600 C   0  0  0  0  0  3  0  0  0  0  0  0
  192.2230  176.2040  147.9990 O   0  0  0  0  0  1  0  0  0  0  0  0
  189.5200  177.1990  144.9470 C   0  0  0  0  0  0  0  0  0  0  0  0
  189.9990  176.8320  147.3090 C   0  0  0  0  0  3  0  0  0  0  0  0
  190.8570  176.8930  144.6430 C   0  0  0  0  0  3  0  0  0  0  0  0
  188.9850  177.4910  142.4800 C   0  0  0  0  0  2  0  0  0  0  0  0
  188.5980  177.5380  143.9370 C   0  0  0  0  0  0  0  0  0  0  0  0
  186.8570  177.7870  145.6200 C   0  0  0  0  0  3  0  0  0  0  0  0
  186.2890  178.1880  143.2180 C   0  0  0  0  0  0  0  0  0  0  0  0
  186.7370  178.4600  141.9850 C   0  0  0  0  0  3  0  0  0  0  0  0
  187.7700  177.4550  146.6230 C   0  0  0  0  0  3  0  0  0  0  0  0
  188.4590  178.3550  140.1710 C   0  0  1  0  0  3  0  0  0  0  0  0
  189.4800  177.2540  139.9240 C   0  0  0  0  0  1  0  0  0  0  0  0
  187.2170  178.0140  139.4890 N   0  0  0  0  0  2  0  0  0  0  0  0
  186.9710  178.3700  138.1280 C   0  0  0  0  0  0  0  0  0  0  0  0
  187.8300  179.0210  137.4720 O   0  0  0  0  0  0  0  0  0  0  0  0
  185.6770  177.9840  137.4910 C   0  0  0  0  0  2  0  0  0  0  0  0
  185.6750  176.5680  137.1460 N   0  0  0  0  0  0  0  0  0  0  0  0
  184.7260  175.5250  135.1910 C   0  0  0  0  0  2  0  0  0  0  0  0
  186.7380  176.3650  136.1650 C   0  0  0  0  0  2  0  0  0  0  0  0
  184.4120  176.2700  136.4680 C   0  0  1  0  0  3  0  0  0  0  0  0
  186.1100  175.9860  134.8390 C   0  0  0  0  0  2  0  0  0  0  0  0
  182.1300  175.7880  137.4930 N   0  0  0  0  0  0  0  0  0  0  0  0
  183.5180  175.4530  137.3520 C   0  0  0  0  0  0  0  0  0  0  0  0
  180.0070  175.8770  138.6040 C   0  0  0  0  0  2  0  0  0  0  0  0
  179.7580  176.9380  137.1500 S   0  0  0  0  0  0  0  0  0  0  0  0
  181.2530  175.0450  138.3820 C   0  0  1  0  0  3  0  0  0  0  0  0
  181.5370  176.9150  136.7900 C   0  0  0  0  0  2  0  0  0  0  0  0
  180.9050  173.8310  137.7900 O   0  0  0  0  0  1  0  0  0  0  0  0
  183.9960  174.4630  137.9720 O   0  0  0  0  0  0  0  0  0  0  0  0
  184.8840  178.1780  143.5230 N   0  0  0  0  0  2  0  0  0  0  0  0
  182.7520  178.3840  140.4310 C   0  0  0  0  0  3  0  0  0  0  0  0
  181.5540  178.8560  140.9750 C   0  0  0  0  0  0  0  0  0  0  0  0
  182.5750  178.8760  143.1770 C   0  0  0  0  0  3  0  0  0  0  0  0
  183.8560  178.1550  141.2590 C   0  0  0  0  0  3  0  0  0  0  0  0
  183.7730  178.3930  142.6400 C   0  0  0  0  0  0  0  0  0  0  0  0
  181.4700  179.1030  142.3520 C   0  0  0  0  0  3  0  0  0  0  0  0
  179.1180  178.9040  140.5850 N   0  0  0  0  0  1  0  0  0  0  0  0
  180.4290  179.0660  140.1190 N   0  0  0  0  0  2  0  0  0  0  0  0
  1  8  1  0  0  0  0
  1  6  1  0  0  0  0
  2 12  1  0  0  0  0
  3 16  1  6  0  0  0
  3 14  1  0  0  0  0
  3 10  1  0  0  0  0
  4 15  1  0  0  0  0
  4  8  2  0  0  0  0
  5  1  2  0  0  0  0
  7  4  1  0  0  0  0
  9  7  2  0  0  0  0
  9  5  1  0  0  0  0
 10 11  1  0  0  0  0
 11  2  2  0  0  0  0
 11  7  1  0  0  0  0
 12 15  2  0  0  0  0
 13 35  1  0  0  0  0
 13  2  1  0  0  0  0
 14 13  2  0  0  0  0
 16 17  1  1  0  0  0
 18 16  1  0  0  0  0
 19 18  1  0  0  0  0
 20 19  2  0  0  0  0
 21 19  1  0  0  0  0
 22 21  1  0  0  0  0
 23 25  1  0  0  0  0
 24 22  1  0  0  0  0
 25 22  1  0  0  0  0
 25 28  1  1  0  0  0
 26 23  1  0  0  0  0
 26 24  1  0  0  0  0
 27 31  1  0  0  0  0
 28 27  1  0  0  0  0
 28 34  2  0  0  0  0
 30 29  1  0  0  0  0
 31 33  1  6  0  0  0
 31 29  1  0  0  0  0
 32 30  1  0  0  0  0
 32 27  1  0  0  0  0
 36 37  2  0  0  0  0
 36 39  1  0  0  0  0
 37 41  1  0  0  0  0
 39 40  2  0  0  0  0
 40 38  1  0  0  0  0
 40 35  1  0  0  0  0
 41 38  2  0  0  0  0
 43 42  1  0  0  0  0
 43 37  1  0  0  0  0
M  END
>  <MODEL>
2

>  <REMARK>
 VINA RESULT:      -9.6      2.242      5.563
  Name = 
  8 active torsions:
  status: ('A' for Active; 'I' for Inactive)
    1  A    between atoms: N_1  and  C_34
    2  A    between atoms: N_1  and  C_35
    3  A    between atoms: C_2  and  N_6
    4  A    between atoms: C_2  and  C_13
    5  A    between atoms: C_3  and  N_4
    6  A    between atoms: C_3  and  C_12
    7  A    between atoms: C_14  and  C_22
    8  A    between atoms: C_19  and  N_37
                            x       y       z     vdW  Elec       q    Type
                         _______ _______ _______ _____ _____    ______ ____

>  <TORSDO>
F 8

$$$$
=
 OpenBabel10262422043D

 43 48  0  0  1  0  0  0  0  0999 V2000
  181.3600  179.0850  142.4940 C   0  0  0  0  0  0  0  0  0  0  0  0
  186.1030  178.3160  144.0790 C   0  0  0  0  0  0  0  0  0  0  0  0
  187.6520  177.6910  141.7510 C   0  0  2  0  0  3  0  0  0  0  0  0
  183.3290  178.6940  143.8500 C   0  0  0  0  0  0  0  0  0  0  0  0
  182.1510  179.0990  141.3400 C   0  0  0  0  0  3  0  0  0  0  0  0
  179.9890  179.2700  142.3950 O   0  0  0  0  0  1  0  0  0  0  0  0
  184.1380  178.7050  142.6860 C   0  0  0  0  0  0  0  0  0  0  0  0
  181.9490  178.8840  143.7460 C   0  0  0  0  0  3  0  0  0  0  0  0
  183.5320  178.9110  141.4350 C   0  0  0  0  0  3  0  0  0  0  0  0
  186.4340  178.6130  141.6040 C   0  0  0  0  0  2  0  0  0  0  0  0
  185.5280  178.5110  142.8040 C   0  0  0  0  0  0  0  0  0  0  0  0
  185.2880  178.3140  145.2180 C   0  0  0  0  0  3  0  0  0  0  0  0
  187.5650  178.1120  144.2050 C   0  0  0  0  0  0  0  0  0  0  0  0
  188.2910  177.8780  143.1040 C   0  0  0  0  0  3  0  0  0  0  0  0
  183.9090  178.5020  145.1040 C   0  0  0  0  0  3  0  0  0  0  0  0
  188.6600  177.9420  140.6290 C   0  0  1  0  0  3  0  0  0  0  0  0
  189.9390  177.1500  140.8640 C   0  0  0  0  0  1  0  0  0  0  0  0
  188.0920  177.5600  139.3430 N   0  0  0  0  0  2  0  0  0  0  0  0
  188.3140  178.3200  138.1540 C   0  0  0  0  0  0  0  0  0  0  0  0
  189.0010  179.3780  138.1900 O   0  0  0  0  0  0  0  0  0  0  0  0
  187.7040  177.8670  136.8690 C   0  0  0  0  0  2  0  0  0  0  0  0
  187.8090  176.4200  136.7320 N   0  0  0  0  0  0  0  0  0  0  0  0
  187.1590  175.0630  134.8480 C   0  0  0  0  0  2  0  0  0  0  0  0
  188.9930  176.1520  135.9200 C   0  0  0  0  0  2  0  0  0  0  0  0
  186.6550  175.9540  135.9600 C   0  0  1  0  0  3  0  0  0  0  0  0
  188.5530  175.5580  134.5970 C   0  0  0  0  0  2  0  0  0  0  0  0
  184.4500  175.8070  137.2270 N   0  0  0  0  0  0  0  0  0  0  0  0
  185.6970  175.2100  136.8420 C   0  0  0  0  0  0  0  0  0  0  0  0
  182.5410  176.1590  138.6340 C   0  0  0  0  0  2  0  0  0  0  0  0
  182.3900  177.4790  137.3940 S   0  0  0  0  0  0  0  0  0  0  0  0
  183.5260  175.1300  138.1210 C   0  0  1  0  0  3  0  0  0  0  0  0
  184.0630  177.1360  136.7810 C   0  0  0  0  0  2  0  0  0  0  0  0
  182.8410  174.1360  137.4220 O   0  0  0  0  0  1  0  0  0  0  0  0
  185.9950  174.0510  137.2420 O   0  0  0  0  0  0  0  0  0  0  0  0
  188.1780  178.2260  145.5010 N   0  0  0  0  0  2  0  0  0  0  0  0
  191.6230  176.7230  145.6570 C   0  0  0  0  0  3  0  0  0  0  0  0
  191.6840  176.3580  147.0050 C   0  0  0  0  0  0  0  0  0  0  0  0
  189.4400  177.2240  147.3290 C   0  0  0  0  0  3  0  0  0  0  0  0
  190.4750  177.3410  145.1490 C   0  0  0  0  0  3  0  0  0  0  0  0
  189.3770  177.6010  145.9840 C   0  0  0  0  0  0  0  0  0  0  0  0
  190.5860  176.6100  147.8400 C   0  0  0  0  0  3  0  0  0  0  0  0
  193.3120  175.9850  148.8220 N   0  0  0  0  0  1  0  0  0  0  0  0
  192.8710  175.7470  147.5140 N   0  0  0  0  0  2  0  0  0  0  0  0
  1  8  1  0  0  0  0
  2 13  1  0  0  0  0
  2 12  1  0  0  0  0
  3 16  1  6  0  0  0
  3 14  1  0  0  0  0
  4 15  1  0  0  0  0
  5  9  1  0  0  0  0
  5  1  2  0  0  0  0
  6  1  1  0  0  0  0
  7 11  1  0  0  0  0
  7  4  1  0  0  0  0
  8  4  2  0  0  0  0
  9  7  2  0  0  0  0
 10  3  1  0  0  0  0
 10 11  1  0  0  0  0
 11  2  2  0  0  0  0
 13 35  1  0  0  0  0
 14 13  2  0  0  0  0
 15 12  2  0  0  0  0
 16 17  1  1  0  0  0
 18 16  1  0  0  0  0
 19 20  2  0  0  0  0
 19 18  1  0  0  0  0
 21 19  1  0  0  0  0
 22 21  1  0  0  0  0
 23 25  1  0  0  0  0
 24 22  1  0  0  0  0
 25 22  1  0  0  0  0
 25 28  1  1  0  0  0
 26 23  1  0  0  0  0
 26 24  1  0  0  0  0
 27 31  1  0  0  0  0
 28 27  1  0  0  0  0
 28 34  2  0  0  0  0
 30 29  1  0  0  0  0
 31 33  1  6  0  0  0
 31 29  1  0  0  0  0
 32 27  1  0  0  0  0
 32 30  1  0  0  0  0
 35 40  1  0  0  0  0
 36 37  1  0  0  0  0
 37 43  1  0  0  0  0
 37 41  2  0  0  0  0
 38 41  1  0  0  0  0
 39 36  2  0  0  0  0
 39 40  1  0  0  0  0
 40 38  2  0  0  0  0
 43 42  1  0  0  0  0
M  END
>  <MODEL>
3

>  <REMARK>
 VINA RESULT:      -9.4      2.841      7.401
  Name = 
  8 active torsions:
  status: ('A' for Active; 'I' for Inactive)
    1  A    between atoms: N_1  and  C_34
    2  A    between atoms: N_1  and  C_35
    3  A    between atoms: C_2  and  N_6
    4  A    between atoms: C_2  and  C_13
    5  A    between atoms: C_3  and  N_4
    6  A    between atoms: C_3  and  C_12
    7  A    between atoms: C_14  and  C_22
    8  A    between atoms: C_19  and  N_37
                            x       y       z     vdW  Elec       q    Type
                         _______ _______ _______ _____ _____    ______ ____

>  <TORSDO>
F 8

$$$$
=
 OpenBabel10262422043D

 43 48  0  0  1  0  0  0  0  0999 V2000
  187.8810  177.7410  147.7160 C   0  0  0  0  0  0  0  0  0  0  0  0
  185.6050  178.4460  143.2530 C   0  0  0  0  0  0  0  0  0  0  0  0
  187.6880  178.6720  141.2990 C   0  0  2  0  0  3  0  0  0  0  0  0
  186.2620  178.1960  145.9720 C   0  0  0  0  0  0  0  0  0  0  0  0
  188.8700  177.5310  146.7500 C   0  0  0  0  0  3  0  0  0  0  0  0
  188.1920  177.6210  149.0630 O   0  0  0  0  0  1  0  0  0  0  0  0
  187.2590  177.9870  144.9870 C   0  0  0  0  0  0  0  0  0  0  0  0
  186.5790  178.0720  147.3270 C   0  0  0  0  0  3  0  0  0  0  0  0
  188.5620  177.6530  145.3930 C   0  0  0  0  0  3  0  0  0  0  0  0
  187.9320  177.8080  142.5430 C   0  0  0  0  0  2  0  0  0  0  0  0
  186.9270  178.1170  143.6240 C   0  0  0  0  0  0  0  0  0  0  0  0
  184.6320  178.6430  144.2410 C   0  0  0  0  0  3  0  0  0  0  0  0
  185.2530  178.5830  141.8200 C   0  0  0  0  0  0  0  0  0  0  0  0
  186.2330  178.6290  140.9070 C   0  0  0  0  0  3  0  0  0  0  0  0
  184.9590  178.5180  145.5930 C   0  0  0  0  0  3  0  0  0  0  0  0
  188.5810  178.2200  140.1430 C   0  0  1  0  0  3  0  0  0  0  0  0
  189.6620  177.2690  140.6350 C   0  0  0  0  0  1  0  0  0  0  0  0
  187.7850  177.5500  139.1220 N   0  0  0  0  0  2  0  0  0  0  0  0
  187.6590  178.0620  137.7940 C   0  0  0  0  0  0  0  0  0  0  0  0
  188.2250  179.1420  137.4690 O   0  0  0  0  0  0  0  0  0  0  0  0
  186.8320  177.3200  136.7970 C   0  0  0  0  0  2  0  0  0  0  0  0
  187.2850  175.9410  136.6760 N   0  0  0  0  0  0  0  0  0  0  0  0
  187.1560  174.5080  134.7420 C   0  0  0  0  0  2  0  0  0  0  0  0
  188.5720  175.9730  135.9860 C   0  0  0  0  0  2  0  0  0  0  0  0
  186.3530  175.2350  135.7950 C   0  0  1  0  0  3  0  0  0  0  0  0
  188.4140  175.3190  134.6290 C   0  0  0  0  0  2  0  0  0  0  0  0
  184.1180  174.1130  136.2850 N   0  0  0  0  0  0  0  0  0  0  0  0
  185.5130  174.2700  136.5800 C   0  0  0  0  0  0  0  0  0  0  0  0
  181.8300  173.5870  136.7700 C   0  0  0  0  0  2  0  0  0  0  0  0
  181.7440  174.3070  135.1040 S   0  0  0  0  0  0  0  0  0  0  0  0
  183.2700  173.2240  137.0620 C   0  0  1  0  0  3  0  0  0  0  0  0
  183.4670  174.8650  135.2240 C   0  0  0  0  0  2  0  0  0  0  0  0
  183.5060  171.9020  136.6840 O   0  0  0  0  0  1  0  0  0  0  0  0
  186.0450  173.5950  137.5040 O   0  0  0  0  0  0  0  0  0  0  0  0
  183.8670  178.6050  141.4380 N   0  0  0  0  0  2  0  0  0  0  0  0
  182.5770  176.9110  138.3370 C   0  0  0  0  0  3  0  0  0  0  0  0
  182.1640  178.0180  137.5920 C   0  0  0  0  0  0  0  0  0  0  0  0
  182.8840  179.4830  139.3890 C   0  0  0  0  0  3  0  0  0  0  0  0
  183.1380  177.0900  139.6060 C   0  0  0  0  0  3  0  0  0  0  0  0
  183.2900  178.3780  140.1440 C   0  0  0  0  0  0  0  0  0  0  0  0
  182.3210  179.3070  138.1210 C   0  0  0  0  0  3  0  0  0  0  0  0
  181.0140  178.8820  135.5860 N   0  0  0  0  0  1  0  0  0  0  0  0
  181.5740  177.8190  136.3050 N   0  0  0  0  0  2  0  0  0  0  0  0
  1  6  1  0  0  0  0
  2 11  2  0  0  0  0
  2 12  1  0  0  0  0
  3 16  1  6  0  0  0
  3 10  1  0  0  0  0
  4  8  2  0  0  0  0
  5  1  2  0  0  0  0
  7  9  2  0  0  0  0
  7  4  1  0  0  0  0
  8  1  1  0  0  0  0
  9  5  1  0  0  0  0
 10 11  1  0  0  0  0
 11  7  1  0  0  0  0
 12 15  2  0  0  0  0
 13  2  1  0  0  0  0
 14  3  1  0  0  0  0
 14 13  2  0  0  0  0
 15  4  1  0  0  0  0
 16 17  1  1  0  0  0
 18 16  1  0  0  0  0
 19 18  1  0  0  0  0
 20 19  2  0  0  0  0
 21 19  1  0  0  0  0
 22 21  1  0  0  0  0
 23 25  1  0  0  0  0
 24 22  1  0  0  0  0
 25 28  1  1  0  0  0
 25 22  1  0  0  0  0
 26 23  1  0  0  0  0
 26 24  1  0  0  0  0
 27 28  1  0  0  0  0
 27 31  1  0  0  0  0
 28 34  2  0  0  0  0
 29 31  1  0  0  0  0
 30 32  1  0  0  0  0
 30 29  1  0  0  0  0
 31 33  1  6  0  0  0
 32 27  1  0  0  0  0
 35 13  1  0  0  0  0
 36 39  1  0  0  0  0
 37 41  1  0  0  0  0
 37 36  2  0  0  0  0
 38 40  1  0  0  0  0
 39 40  2  0  0  0  0
 40 35  1  0  0  0  0
 41 38  2  0  0  0  0
 42 43  1  0  0  0  0
 43 37  1  0  0  0  0
M  END
>  <MODEL>
4

>  <REMARK>
 VINA RESULT:      -9.2      2.381      5.672
  Name = 
  8 active torsions:
  status: ('A' for Active; 'I' for Inactive)
    1  A    between atoms: N_1  and  C_34
    2  A    between atoms: N_1  and  C_35
    3  A    between atoms: C_2  and  N_6
    4  A    between atoms: C_2  and  C_13
    5  A    between atoms: C_3  and  N_4
    6  A    between atoms: C_3  and  C_12
    7  A    between atoms: C_14  and  C_22
    8  A    between atoms: C_19  and  N_37
                            x       y       z     vdW  Elec       q    Type
                         _______ _______ _______ _____ _____    ______ ____

>  <TORSDO>
F 8

$$$$
=
 OpenBabel10262422043D

 43 48  0  0  1  0  0  0  0  0999 V2000
  190.8880  176.7470  146.8810 C   0  0  0  0  0  0  0  0  0  0  0  0
  188.5430  177.9350  142.5580 C   0  0  0  0  0  0  0  0  0  0  0  0
  185.7320  177.8540  143.1040 C   0  0  2  0  0  3  0  0  0  0  0  0
  190.3750  177.2050  144.5580 C   0  0  0  0  0  0  0  0  0  0  0  0
  189.5610  177.0150  147.2320 C   0  0  0  0  0  3  0  0  0  0  0  0
  191.8040  176.3850  147.8580 O   0  0  0  0  0  1  0  0  0  0  0  0
  189.0280  177.4760  144.9050 C   0  0  0  0  0  0  0  0  0  0  0  0
  191.2940  176.8430  145.5460 C   0  0  0  0  0  3  0  0  0  0  0  0
  188.6360  177.3780  146.2500 C   0  0  0  0  0  3  0  0  0  0  0  0
  186.6950  178.2290  144.2390 C   0  0  0  0  0  2  0  0  0  0  0  0
  188.1110  177.8380  143.8990 C   0  0  0  0  0  0  0  0  0  0  0  0
  189.8800  177.6690  142.2360 C   0  0  0  0  0  3  0  0  0  0  0  0
  187.5800  178.3160  141.4990 C   0  0  0  0  0  0  0  0  0  0  0  0
  186.2700  178.3320  141.7790 C   0  0  0  0  0  3  0  0  0  0  0  0
  190.7900  177.3060  143.2300 C   0  0  0  0  0  3  0  0  0  0  0  0
  184.3380  178.4260  143.3670 C   0  0  1  0  0  3  0  0  0  0  0  0
  184.4300  179.8330  143.9400 C   0  0  0  0  0  1  0  0  0  0  0  0
  183.5650  178.4640  142.1320 N   0  0  0  0  0  2  0  0  0  0  0  0
  182.1440  178.6090  142.1250 C   0  0  0  0  0  0  0  0  0  0  0  0
  181.5030  178.6860  143.2090 O   0  0  0  0  0  0  0  0  0  0  0  0
  181.4170  178.6460  140.8210 C   0  0  0  0  0  2  0  0  0  0  0  0
  182.3200  179.0140  139.7390 N   0  0  0  0  0  0  0  0  0  0  0  0
  181.8510  179.0560  137.3740 C   0  0  0  0  0  2  0  0  0  0  0  0
  181.9880  180.3840  139.3540 C   0  0  0  0  0  2  0  0  0  0  0  0
  182.0110  178.1670  138.5850 C   0  0  1  0  0  3  0  0  0  0  0  0
  181.4140  180.3700  137.9520 C   0  0  0  0  0  2  0  0  0  0  0  0
  182.8190  175.9090  137.7220 N   0  0  0  0  0  0  0  0  0  0  0  0
  183.1030  177.1610  138.3630 C   0  0  0  0  0  0  0  0  0  0  0  0
  183.1530  173.5890  137.2190 C   0  0  0  0  0  2  0  0  0  0  0  0
  181.5640  173.9610  136.4200 S   0  0  0  0  0  0  0  0  0  0  0  0
  183.8450  174.8970  137.5400 C   0  0  1  0  0  3  0  0  0  0  0  0
  181.4830  175.5670  137.2610 C   0  0  0  0  0  2  0  0  0  0  0  0
  184.6770  175.2580  136.4800 O   0  0  0  0  0  1  0  0  0  0  0  0
  184.2770  177.4260  138.7440 O   0  0  0  0  0  0  0  0  0  0  0  0
  188.0790  178.7140  140.2100 N   0  0  0  0  0  2  0  0  0  0  0  0
  189.1710  176.1770  137.6560 C   0  0  0  0  0  3  0  0  0  0  0  0
  188.2980  176.4760  136.6060 C   0  0  0  0  0  0  0  0  0  0  0  0
  187.3080  178.2400  137.9470 C   0  0  0  0  0  3  0  0  0  0  0  0
  189.1080  176.9050  138.8490 C   0  0  0  0  0  3  0  0  0  0  0  0
  188.1710  177.9390  139.0060 C   0  0  0  0  0  0  0  0  0  0  0  0
  187.3670  177.5130  136.7550 C   0  0  0  0  0  3  0  0  0  0  0  0
  187.8240  174.4180  135.3290 N   0  0  0  0  0  1  0  0  0  0  0  0
  188.3610  175.7110  135.4010 N   0  0  0  0  0  2  0  0  0  0  0  0
  1  5  1  0  0  0  0
  1  6  1  0  0  0  0
  2 11  1  0  0  0  0
  3 16  1  1  0  0  0
  3 10  1  0  0  0  0
  4  7  1  0  0  0  0
  4  8  1  0  0  0  0
  7  9  1  0  0  0  0
  8  1  2  0  0  0  0
  9  5  2  0  0  0  0
 11 10  1  0  0  0  0
 11  7  2  0  0  0  0
 12  2  2  0  0  0  0
 12 15  1  0  0  0  0
 13 14  2  0  0  0  0
 13  2  1  0  0  0  0
 14  3  1  0  0  0  0
 15  4  2  0  0  0  0
 16 17  1  6  0  0  0
 18 16  1  0  0  0  0
 19 18  1  0  0  0  0
 19 20  2  0  0  0  0
 21 19  1  0  0  0  0
 22 21  1  0  0  0  0
 23 26  1  0  0  0  0
 23 25  1  0  0  0  0
 24 22  1  0  0  0  0
 25 28  1  6  0  0  0
 25 22  1  0  0  0  0
 26 24  1  0  0  0  0
 27 28  1  0  0  0  0
 28 34  2  0  0  0  0
 29 31  1  0  0  0  0
 30 29  1  0  0  0  0
 30 32  1  0  0  0  0
 31 33  1  6  0  0  0
 31 27  1  0  0  0  0
 32 27  1  0  0  0  0
 35 13  1  0  0  0  0
 36 39  1  0  0  0  0
 37 41  1  0  0  0  0
 37 36  2  0  0  0  0
 38 40  1  0  0  0  0
 39 40  2  0  0  0  0
 40 35  1  0  0  0  0
 41 38  2  0  0  0  0
 42 43  1  0  0  0  0
 43 37  1  0  0  0  0
M  END
>  <MODEL>
5

>  <REMARK>
 VINA RESULT:      -9.1      1.148      1.252
  Name = 
  8 active torsions:
  status: ('A' for Active; 'I' for Inactive)
    1  A    between atoms: N_1  and  C_34
    2  A    between atoms: N_1  and  C_35
    3  A    between atoms: C_2  and  N_6
    4  A    between atoms: C_2  and  C_13
    5  A    between atoms: C_3  and  N_4
    6  A    between atoms: C_3  and  C_12
    7  A    between atoms: C_14  and  C_22
    8  A    between atoms: C_19  and  N_37
                            x       y       z     vdW  Elec       q    Type
                         _______ _______ _______ _____ _____    ______ ____

>  <TORSDO>
F 8

$$$$
=
 OpenBabel10262422043D

 43 48  0  0  1  0  0  0  0  0999 V2000
  188.0640  177.8690  147.5540 C   0  0  0  0  0  0  0  0  0  0  0  0
  185.5650  178.2390  143.1710 C   0  0  0  0  0  0  0  0  0  0  0  0
  187.5370  178.6840  141.1410 C   0  0  2  0  0  3  0  0  0  0  0  0
  186.3420  178.1050  145.8670 C   0  0  0  0  0  0  0  0  0  0  0  0
  189.0370  177.7650  146.5550 C   0  0  0  0  0  3  0  0  0  0  0  0
  188.4340  177.8050  148.8900 O   0  0  0  0  0  1  0  0  0  0  0  0
  187.3220  178.0030  144.8480 C   0  0  0  0  0  0  0  0  0  0  0  0
  186.7190  178.0380  147.2100 C   0  0  0  0  0  3  0  0  0  0  0  0
  188.6680  177.8310  145.2090 C   0  0  0  0  0  3  0  0  0  0  0  0
  187.9250  177.8710  142.3830 C   0  0  0  0  0  2  0  0  0  0  0  0
  186.9290  178.0740  143.4970 C   0  0  0  0  0  0  0  0  0  0  0  0
  184.6110  178.3320  144.1920 C   0  0  0  0  0  3  0  0  0  0  0  0
  185.1490  178.3130  141.7510 C   0  0  0  0  0  0  0  0  0  0  0  0
  186.0840  178.4630  140.8020 C   0  0  0  0  0  3  0  0  0  0  0  0
  184.9980  178.2660  145.5320 C   0  0  0  0  0  3  0  0  0  0  0  0
  188.4360  178.3240  139.9570 C   0  0  1  0  0  3  0  0  0  0  0  0
  189.3400  177.1500  140.3020 C   0  0  0  0  0  1  0  0  0  0  0  0
  187.6270  177.9780  138.7940 N   0  0  0  0  0  2  0  0  0  0  0  0
  187.8710  178.5340  137.5010 C   0  0  0  0  0  0  0  0  0  0  0  0
  188.7960  179.3750  137.3320 O   0  0  0  0  0  0  0  0  0  0  0  0
  187.0060  178.1300  136.3540 C   0  0  0  0  0  2  0  0  0  0  0  0
  186.4800  176.7860  136.5540 N   0  0  0  0  0  0  0  0  0  0  0  0
  185.3320  175.3960  134.9540 C   0  0  0  0  0  2  0  0  0  0  0  0
  187.4440  175.8590  135.9660 C   0  0  0  0  0  2  0  0  0  0  0  0
  185.2470  176.6620  135.7740 C   0  0  1  0  0  3  0  0  0  0  0  0
  186.8060  175.1900  134.7650 C   0  0  0  0  0  2  0  0  0  0  0  0
  182.7730  177.0830  136.2140 N   0  0  0  0  0  0  0  0  0  0  0  0
  184.0520  176.6280  136.6790 C   0  0  0  0  0  0  0  0  0  0  0  0
  180.5660  177.9920  136.4360 C   0  0  0  0  0  2  0  0  0  0  0  0
  180.8190  177.9550  134.6370 S   0  0  0  0  0  0  0  0  0  0  0  0
  181.6100  177.1090  137.0850 C   0  0  1  0  0  3  0  0  0  0  0  0
  182.5810  177.5830  134.8620 C   0  0  0  0  0  2  0  0  0  0  0  0
  181.1040  175.8170  137.2300 O   0  0  0  0  0  1  0  0  0  0  0  0
  184.1790  176.1930  137.8580 O   0  0  0  0  0  0  0  0  0  0  0  0
  183.7580  178.1660  141.4200 N   0  0  0  0  0  2  0  0  0  0  0  0
  182.6820  180.4550  138.6350 C   0  0  0  0  0  3  0  0  0  0  0  0
  181.3120  180.5460  138.8910 C   0  0  0  0  0  0  0  0  0  0  0  0
  181.5830  179.0770  140.8040 C   0  0  0  0  0  3  0  0  0  0  0  0
  183.4990  179.6730  139.4590 C   0  0  0  0  0  3  0  0  0  0  0  0
  182.9540  178.9730  140.5460 C   0  0  0  0  0  0  0  0  0  0  0  0
  180.7640  179.8550  139.9810 C   0  0  0  0  0  3  0  0  0  0  0  0
  180.2200  182.6810  138.3030 N   0  0  0  0  0  1  0  0  0  0  0  0
  180.4870  181.3330  138.0290 N   0  0  0  0  0  2  0  0  0  0  0  0
  1  6  1  0  0  0  0
  2 11  2  0  0  0  0
  2 12  1  0  0  0  0
  3 16  1  6  0  0  0
  3 10  1  0  0  0  0
  4  8  2  0  0  0  0
  5  1  2  0  0  0  0
  7  9  2  0  0  0  0
  7  4  1  0  0  0  0
  8  1  1  0  0  0  0
  9  5  1  0  0  0  0
 10 11  1  0  0  0  0
 11  7  1  0  0  0  0
 12 15  2  0  0  0  0
 13  2  1  0  0  0  0
 14  3  1  0  0  0  0
 14 13  2  0  0  0  0
 15  4  1  0  0  0  0
 16 17  1  1  0  0  0
 18 16  1  0  0  0  0
 19 18  1  0  0  0  0
 20 19  2  0  0  0  0
 21 22  1  0  0  0  0
 21 19  1  0  0  0  0
 23 25  1  0  0  0  0
 24 22  1  0  0  0  0
 25 22  1  0  0  0  0
 25 28  1  1  0  0  0
 26 23  1  0  0  0  0
 26 24  1  0  0  0  0
 27 28  1  0  0  0  0
 27 31  1  0  0  0  0
 28 34  2  0  0  0  0
 29 31  1  0  0  0  0
 30 32  1  0  0  0  0
 30 29  1  0  0  0  0
 31 33  1  6  0  0  0
 32 27  1  0  0  0  0
 35 13  1  0  0  0  0
 36 37  2  0  0  0  0
 36 39  1  0  0  0  0
 37 41  1  0  0  0  0
 39 40  2  0  0  0  0
 40 38  1  0  0  0  0
 40 35  1  0  0  0  0
 41 38  2  0  0  0  0
 43 42  1  0  0  0  0
 43 37  1  0  0  0  0
M  END
>  <MODEL>
6

>  <REMARK>
 VINA RESULT:      -8.8      2.304      5.924
  Name = 
  8 active torsions:
  status: ('A' for Active; 'I' for Inactive)
    1  A    between atoms: N_1  and  C_34
    2  A    between atoms: N_1  and  C_35
    3  A    between atoms: C_2  and  N_6
    4  A    between atoms: C_2  and  C_13
    5  A    between atoms: C_3  and  N_4
    6  A    between atoms: C_3  and  C_12
    7  A    between atoms: C_14  and  C_22
    8  A    between atoms: C_19  and  N_37
                            x       y       z     vdW  Elec       q    Type
                         _______ _______ _______ _____ _____    ______ ____

>  <TORSDO>
F 8

$$$$
=
 OpenBabel10262422043D

 43 48  0  0  1  0  0  0  0  0999 V2000
  191.8800  176.1370  147.4970 C   0  0  0  0  0  0  0  0  0  0  0  0
  187.9110  177.6130  144.7300 C   0  0  0  0  0  0  0  0  0  0  0  0
  188.9170  178.2230  142.1180 C   0  0  2  0  0  3  0  0  0  0  0  0
  189.6910  176.8800  146.7750 C   0  0  0  0  0  0  0  0  0  0  0  0
  192.3190  176.1220  146.1690 C   0  0  0  0  0  3  0  0  0  0  0  0
  192.7490  175.7770  148.5170 O   0  0  0  0  0  1  0  0  0  0  0  0
  190.1280  176.8690  145.4270 C   0  0  0  0  0  0  0  0  0  0  0  0
  190.5680  176.5150  147.7990 C   0  0  0  0  0  3  0  0  0  0  0  0
  191.4480  176.4850  145.1390 C   0  0  0  0  0  3  0  0  0  0  0  0
  189.6280  177.1490  142.9520 C   0  0  0  0  0  2  0  0  0  0  0  0
  189.2330  177.2410  144.4040 C   0  0  0  0  0  0  0  0  0  0  0  0
  187.4960  177.6120  146.0680 C   0  0  0  0  0  3  0  0  0  0  0  0
  186.9690  178.0050  143.6560 C   0  0  0  0  0  0  0  0  0  0  0  0
  187.4400  178.2320  142.4220 C   0  0  0  0  0  3  0  0  0  0  0  0
  188.3810  177.2480  147.0840 C   0  0  0  0  0  3  0  0  0  0  0  0
  189.1670  178.0020  140.6250 C   0  0  1  0  0  3  0  0  0  0  0  0
  190.1530  176.8640  140.4050 C   0  0  0  0  0  1  0  0  0  0  0  0
  187.9180  177.6900  139.9430 N   0  0  0  0  0  2  0  0  0  0  0  0
  187.5990  178.2150  138.6530 C   0  0  0  0  0  0  0  0  0  0  0  0
  188.3970  178.9980  138.0680 O   0  0  0  0  0  0  0  0  0  0  0  0
  186.3030  177.8480  138.0110 C   0  0  0  0  0  2  0  0  0  0  0  0
  186.4580  177.7270  136.5680 N   0  0  0  0  0  0  0  0  0  0  0  0
  186.4940  175.7090  135.2500 C   0  0  0  0  0  2  0  0  0  0  0  0
  185.1250  177.5110  136.0110 C   0  0  0  0  0  2  0  0  0  0  0  0
  187.2290  176.5120  136.2970 C   0  0  1  0  0  3  0  0  0  0  0  0
  185.0600  176.1130  135.4320 C   0  0  0  0  0  2  0  0  0  0  0  0
  189.7470  176.1190  136.2940 N   0  0  0  0  0  0  0  0  0  0  0  0
  188.6100  176.8590  135.8250 C   0  0  0  0  0  0  0  0  0  0  0  0
  192.0550  175.7820  136.8490 C   0  0  0  0  0  2  0  0  0  0  0  0
  191.2520  174.2830  137.4900 S   0  0  0  0  0  0  0  0  0  0  0  0
  191.1000  176.4660  135.8930 C   0  0  1  0  0  3  0  0  0  0  0  0
  189.6120  175.0140  137.2300 C   0  0  0  0  0  2  0  0  0  0  0  0
  191.3350  176.0130  134.5950 O   0  0  0  0  0  1  0  0  0  0  0  0
  188.7660  177.8070  135.0070 O   0  0  0  0  0  0  0  0  0  0  0  0
  185.5630  178.0770  143.9490 N   0  0  0  0  0  2  0  0  0  0  0  0
  183.5110  178.4560  140.8190 C   0  0  0  0  0  3  0  0  0  0  0  0
  182.2880  178.8600  141.3600 C   0  0  0  0  0  0  0  0  0  0  0  0
  183.2480  178.7450  143.5870 C   0  0  0  0  0  3  0  0  0  0  0  0
  184.5980  178.1930  141.6610 C   0  0  0  0  0  3  0  0  0  0  0  0
  184.4720  178.3300  143.0520 C   0  0  0  0  0  0  0  0  0  0  0  0
  182.1600  179.0060  142.7490 C   0  0  0  0  0  3  0  0  0  0  0  0
  180.0820  179.8700  140.9040 N   0  0  0  0  0  1  0  0  0  0  0  0
  181.1820  179.1060  140.4900 N   0  0  0  0  0  2  0  0  0  0  0  0
  1  8  1  0  0  0  0
  1  6  1  0  0  0  0
  2 12  1  0  0  0  0
  3 16  1  6  0  0  0
  3 14  1  0  0  0  0
  3 10  1  0  0  0  0
  4 15  1  0  0  0  0
  4  8  2  0  0  0  0
  5  1  2  0  0  0  0
  7  4  1  0  0  0  0
  9  7  2  0  0  0  0
  9  5  1  0  0  0  0
 10 11  1  0  0  0  0
 11  2  2  0  0  0  0
 11  7  1  0  0  0  0
 12 15  2  0  0  0  0
 13 35  1  0  0  0  0
 13  2  1  0  0  0  0
 14 13  2  0  0  0  0
 16 17  1  1  0  0  0
 18 16  1  0  0  0  0
 19 18  1  0  0  0  0
 20 19  2  0  0  0  0
 21 19  1  0  0  0  0
 22 21  1  0  0  0  0
 23 26  1  0  0  0  0
 23 25  1  0  0  0  0
 24 22  1  0  0  0  0
 25 28  1  6  0  0  0
 25 22  1  0  0  0  0
 26 24  1  0  0  0  0
 27 32  1  0  0  0  0
 28 27  1  0  0  0  0
 29 30  1  0  0  0  0
 31 33  1  6  0  0  0
 31 27  1  0  0  0  0
 31 29  1  0  0  0  0
 32 30  1  0  0  0  0
 34 28  2  0  0  0  0
 36 37  2  0  0  0  0
 36 39  1  0  0  0  0
 37 41  1  0  0  0  0
 39 40  2  0  0  0  0
 40 38  1  0  0  0  0
 40 35  1  0  0  0  0
 41 38  2  0  0  0  0
 43 42  1  0  0  0  0
 43 37  1  0  0  0  0
M  END
>  <MODEL>
7

>  <REMARK>
 VINA RESULT:      -8.8      2.427      5.756
  Name = 
  8 active torsions:
  status: ('A' for Active; 'I' for Inactive)
    1  A    between atoms: N_1  and  C_34
    2  A    between atoms: N_1  and  C_35
    3  A    between atoms: C_2  and  N_6
    4  A    between atoms: C_2  and  C_13
    5  A    between atoms: C_3  and  N_4
    6  A    between atoms: C_3  and  C_12
    7  A    between atoms: C_14  and  C_22
    8  A    between atoms: C_19  and  N_37
                            x       y       z     vdW  Elec       q    Type
                         _______ _______ _______ _____ _____    ______ ____

>  <TORSDO>
F 8

$$$$
=
 OpenBabel10262422043D

 43 48  0  0  1  0  0  0  0  0999 V2000
  190.5880  176.9110  146.7940 C   0  0  0  0  0  0  0  0  0  0  0  0
  188.0610  178.0090  142.5510 C   0  0  0  0  0  0  0  0  0  0  0  0
  185.2740  177.8230  143.1880 C   0  0  2  0  0  3  0  0  0  0  0  0
  189.9830  177.3490  144.4900 C   0  0  0  0  0  0  0  0  0  0  0  0
  189.2640  177.1290  147.1890 C   0  0  0  0  0  3  0  0  0  0  0  0
  191.5480  176.5840  147.7420 O   0  0  0  0  0  1  0  0  0  0  0  0
  188.6390  177.5690  144.8810 C   0  0  0  0  0  0  0  0  0  0  0  0
  190.9470  177.0220  145.4470 C   0  0  0  0  0  3  0  0  0  0  0  0
  188.2940  177.4570  146.2380 C   0  0  0  0  0  3  0  0  0  0  0  0
  186.2590  178.2340  144.2910 C   0  0  0  0  0  2  0  0  0  0  0  0
  187.6770  177.8960  143.9050 C   0  0  0  0  0  0  0  0  0  0  0  0
  189.3960  177.7930  142.1850 C   0  0  0  0  0  3  0  0  0  0  0  0
  187.0510  178.3530  141.5240 C   0  0  0  0  0  0  0  0  0  0  0  0
  185.7510  178.3200  141.8470 C   0  0  0  0  0  3  0  0  0  0  0  0
  190.3510  177.4650  143.1500 C   0  0  0  0  0  3  0  0  0  0  0  0
  183.8690  178.3420  143.4970 C   0  0  1  0  0  3  0  0  0  0  0  0
  183.9120  179.4010  144.5890 C   0  0  0  0  0  1  0  0  0  0  0  0
  183.2670  178.9160  142.3000 N   0  0  0  0  0  2  0  0  0  0  0  0
  181.8530  178.9730  142.1090 C   0  0  0  0  0  0  0  0  0  0  0  0
  181.0700  178.4980  142.9770 O   0  0  0  0  0  0  0  0  0  0  0  0
  181.3050  179.5800  140.8590 C   0  0  0  0  0  2  0  0  0  0  0  0
  181.2290  178.5880  139.7950 N   0  0  0  0  0  0  0  0  0  0  0  0
  182.9460  177.9820  138.2150 C   0  0  0  0  0  2  0  0  0  0  0  0
  181.9070  177.3880  140.2810 C   0  0  0  0  0  2  0  0  0  0  0  0
  182.0110  179.0820  138.6600 C   0  0  1  0  0  3  0  0  0  0  0  0
  183.1610  177.1710  139.4600 C   0  0  0  0  0  2  0  0  0  0  0  0
  180.8520  180.8820  137.2780 N   0  0  0  0  0  0  0  0  0  0  0  0
  181.1060  179.4930  137.5370 C   0  0  0  0  0  0  0  0  0  0  0  0
  179.5940  182.7600  136.4800 C   0  0  0  0  0  2  0  0  0  0  0  0
  180.9750  183.5360  137.3700 S   0  0  0  0  0  0  0  0  0  0  0  0
  179.9400  181.3080  136.2290 C   0  0  1  0  0  3  0  0  0  0  0  0
  181.4580  181.9360  138.0770 C   0  0  0  0  0  2  0  0  0  0  0  0
  180.5640  181.1840  134.9870 O   0  0  0  0  0  1  0  0  0  0  0  0
  180.5670  178.6070  136.8170 O   0  0  0  0  0  0  0  0  0  0  0  0
  187.4920  178.7690  140.2200 N   0  0  0  0  0  2  0  0  0  0  0  0
  188.8660  176.3840  137.6560 C   0  0  0  0  0  3  0  0  0  0  0  0
  187.8850  176.4770  136.6660 C   0  0  0  0  0  0  0  0  0  0  0  0
  186.6740  178.0760  138.0320 C   0  0  0  0  0  3  0  0  0  0  0  0
  188.7480  177.1320  138.8330 C   0  0  0  0  0  3  0  0  0  0  0  0
  187.6470  177.9800  139.0320 C   0  0  0  0  0  0  0  0  0  0  0  0
  186.7870  177.3280  136.8570 C   0  0  0  0  0  3  0  0  0  0  0  0
  186.8810  175.2070  134.8020 N   0  0  0  0  0  1  0  0  0  0  0  0
  188.0080  175.6910  135.4790 N   0  0  0  0  0  2  0  0  0  0  0  0
  1  5  1  0  0  0  0
  1  6  1  0  0  0  0
  2 11  1  0  0  0  0
  3 16  1  1  0  0  0
  3 10  1  0  0  0  0
  4  7  1  0  0  0  0
  4  8  1  0  0  0  0
  7  9  1  0  0  0  0
  8  1  2  0  0  0  0
  9  5  2  0  0  0  0
 11 10  1  0  0  0  0
 11  7  2  0  0  0  0
 12  2  2  0  0  0  0
 12 15  1  0  0  0  0
 13 14  2  0  0  0  0
 13  2  1  0  0  0  0
 14  3  1  0  0  0  0
 15  4  2  0  0  0  0
 16 17  1  1  0  0  0
 18 16  1  0  0  0  0
 19 18  1  0  0  0  0
 19 20  2  0  0  0  0
 21 19  1  0  0  0  0
 22 24  1  0  0  0  0
 22 21  1  0  0  0  0
 23 25  1  0  0  0  0
 23 26  1  0  0  0  0
 25 28  1  6  0  0  0
 25 22  1  0  0  0  0
 26 24  1  0  0  0  0
 27 28  1  0  0  0  0
 27 32  1  0  0  0  0
 29 30  1  0  0  0  0
 30 32  1  0  0  0  0
 31 33  1  6  0  0  0
 31 29  1  0  0  0  0
 31 27  1  0  0  0  0
 34 28  2  0  0  0  0
 35 13  1  0  0  0  0
 36 39  1  0  0  0  0
 37 41  1  0  0  0  0
 37 36  2  0  0  0  0
 38 40  1  0  0  0  0
 39 40  2  0  0  0  0
 40 35  1  0  0  0  0
 41 38  2  0  0  0  0
 42 43  1  0  0  0  0
 43 37  1  0  0  0  0
M  END
>  <MODEL>
8

>  <REMARK>
 VINA RESULT:      -8.7      2.240      3.223
  Name = 
  8 active torsions:
  status: ('A' for Active; 'I' for Inactive)
    1  A    between atoms: N_1  and  C_34
    2  A    between atoms: N_1  and  C_35
    3  A    between atoms: C_2  and  N_6
    4  A    between atoms: C_2  and  C_13
    5  A    between atoms: C_3  and  N_4
    6  A    between atoms: C_3  and  C_12
    7  A    between atoms: C_14  and  C_22
    8  A    between atoms: C_19  and  N_37
                            x       y       z     vdW  Elec       q    Type
                         _______ _______ _______ _____ _____    ______ ____

>  <TORSDO>
F 8

$$$$
=
 OpenBabel10262422043D

 43 48  0  0  1  0  0  0  0  0999 V2000
  190.9790  176.7490  146.8430 C   0  0  0  0  0  0  0  0  0  0  0  0
  186.5800  178.0270  144.6960 C   0  0  0  0  0  0  0  0  0  0  0  0
  187.0910  178.3120  141.8910 C   0  0  2  0  0  3  0  0  0  0  0  0
  188.7000  177.4720  146.4520 C   0  0  0  0  0  0  0  0  0  0  0  0
  191.1650  176.5730  145.4680 C   0  0  0  0  0  3  0  0  0  0  0  0
  192.0180  176.4790  147.7220 O   0  0  0  0  0  1  0  0  0  0  0  0
  188.8800  177.2990  145.0570 C   0  0  0  0  0  0  0  0  0  0  0  0
  189.7480  177.1970  147.3340 C   0  0  0  0  0  3  0  0  0  0  0  0
  190.1210  176.8460  144.5790 C   0  0  0  0  0  3  0  0  0  0  0  0
  187.9350  177.3170  142.6990 C   0  0  0  0  0  2  0  0  0  0  0  0
  187.8160  177.5820  144.1790 C   0  0  0  0  0  0  0  0  0  0  0  0
  186.4190  178.1870  146.0780 C   0  0  0  0  0  3  0  0  0  0  0  0
  185.4590  178.3250  143.7740 C   0  0  0  0  0  0  0  0  0  0  0  0
  185.6960  178.3990  142.4570 C   0  0  0  0  0  3  0  0  0  0  0  0
  187.4740  177.9120  146.9510 C   0  0  0  0  0  3  0  0  0  0  0  0
  187.0600  177.9200  140.4130 C   0  0  1  0  0  3  0  0  0  0  0  0
  186.0930  178.8050  139.6400 C   0  0  0  0  0  1  0  0  0  0  0  0
  188.3890  178.0410  139.8290 N   0  0  0  0  0  2  0  0  0  0  0  0
  188.8220  177.2230  138.7400 C   0  0  0  0  0  0  0  0  0  0  0  0
  188.0590  176.3400  138.2620 O   0  0  0  0  0  0  0  0  0  0  0  0
  190.1970  177.4060  138.1870 C   0  0  0  0  0  2  0  0  0  0  0  0
  191.1380  176.5050  138.8400 N   0  0  0  0  0  0  0  0  0  0  0  0
  193.5460  176.6150  138.8160 C   0  0  0  0  0  2  0  0  0  0  0  0
  191.5850  177.1670  140.0620 C   0  0  0  0  0  2  0  0  0  0  0  0
  192.3130  176.3770  137.9760 C   0  0  1  0  0  3  0  0  0  0  0  0
  193.0570  177.5010  139.9250 C   0  0  0  0  0  2  0  0  0  0  0  0
  193.4090  174.6730  136.4310 N   0  0  0  0  0  0  0  0  0  0  0  0
  192.3580  175.0170  137.3450 C   0  0  0  0  0  0  0  0  0  0  0  0
  194.4150  173.4880  134.6050 C   0  0  0  0  0  2  0  0  0  0  0  0
  195.6460  174.7660  134.9970 S   0  0  0  0  0  0  0  0  0  0  0  0
  193.4490  173.3810  135.7660 C   0  0  1  0  0  3  0  0  0  0  0  0
  194.4670  175.6110  136.0870 C   0  0  0  0  0  2  0  0  0  0  0  0
  193.8980  172.4080  136.6590 O   0  0  0  0  0  1  0  0  0  0  0  0
  191.4610  174.1730  137.6250 O   0  0  0  0  0  0  0  0  0  0  0  0
  184.1320  178.4720  144.3090 N   0  0  0  0  0  2  0  0  0  0  0  0
  181.5870  178.7280  141.5510 C   0  0  0  0  0  3  0  0  0  0  0  0
  180.4050  178.7760  142.2950 C   0  0  0  0  0  0  0  0  0  0  0  0
  181.7010  178.6290  144.3420 C   0  0  0  0  0  3  0  0  0  0  0  0
  182.8210  178.6260  142.2020 C   0  0  0  0  0  3  0  0  0  0  0  0
  182.8870  178.5690  143.6020 C   0  0  0  0  0  0  0  0  0  0  0  0
  180.4660  178.7280  143.6950 C   0  0  0  0  0  3  0  0  0  0  0  0
  179.0050  178.4180  140.2940 N   0  0  0  0  0  1  0  0  0  0  0  0
  179.1510  178.8600  141.6160 N   0  0  0  0  0  2  0  0  0  0  0  0
  1  8  1  0  0  0  0
  1  6  1  0  0  0  0
  2 12  1  0  0  0  0
  3 16  1  6  0  0  0
  3 14  1  0  0  0  0
  3 10  1  0  0  0  0
  4 15  1  0  0  0  0
  4  8  2  0  0  0  0
  5  1  2  0  0  0  0
  7  4  1  0  0  0  0
  9  7  2  0  0  0  0
  9  5  1  0  0  0  0
 10 11  1  0  0  0  0
 11  2  2  0  0  0  0
 11  7  1  0  0  0  0
 12 15  2  0  0  0  0
 13 35  1  0  0  0  0
 13  2  1  0  0  0  0
 14 13  2  0  0  0  0
 16 17  1  6  0  0  0
 18 16  1  0  0  0  0
 19 18  1  0  0  0  0
 20 19  2  0  0  0  0
 21 19  1  0  0  0  0
 21 22  1  0  0  0  0
 22 24  1  0  0  0  0
 23 26  1  0  0  0  0
 25 28  1  1  0  0  0
 25 23  1  0  0  0  0
 25 22  1  0  0  0  0
 26 24  1  0  0  0  0
 27 28  1  0  0  0  0
 28 34  2  0  0  0  0
 29 30  1  0  0  0  0
 29 31  1  0  0  0  0
 30 32  1  0  0  0  0
 31 27  1  0  0  0  0
 31 33  1  1  0  0  0
 32 27  1  0  0  0  0
 36 39  2  0  0  0  0
 36 37  1  0  0  0  0
 37 41  2  0  0  0  0
 39 40  1  0  0  0  0
 40 35  1  0  0  0  0
 40 38  2  0  0  0  0
 41 38  1  0  0  0  0
 42 43  1  0  0  0  0
 43 37  1  0  0  0  0
M  END
>  <MODEL>
9

>  <REMARK>
 VINA RESULT:      -8.6      3.525      7.785
  Name = 
  8 active torsions:
  status: ('A' for Active; 'I' for Inactive)
    1  A    between atoms: N_1  and  C_34
    2  A    between atoms: N_1  and  C_35
    3  A    between atoms: C_2  and  N_6
    4  A    between atoms: C_2  and  C_13
    5  A    between atoms: C_3  and  N_4
    6  A    between atoms: C_3  and  C_12
    7  A    between atoms: C_14  and  C_22
    8  A    between atoms: C_19  and  N_37
                            x       y       z     vdW  Elec       q    Type
                         _______ _______ _______ _____ _____    ______ ____

>  <TORSDO>
F 8

$$$$
