=
 OpenBabel10262419143D

 34 40  0  0  1  0  0  0  0  0999 V2000
  188.8900  177.6860  146.2010 N   0  0  0  0  0  0  0  0  0  0  0  0
  186.8060  178.2660  147.1930 C   0  0  2  0  0  3  0  0  0  0  0  0
  187.0940  178.0980  144.6480 C   0  0  0  0  0  0  0  0  0  0  0  0
  185.3680  178.4930  142.9120 C   0  0  0  0  0  0  0  0  0  0  0  0
  189.1480  177.5710  147.6220 C   0  0  1  0  0  3  0  0  0  0  0  0
  187.8210  177.9230  148.3040 C   0  0  2  0  0  3  0  0  0  0  0  0
  184.6350  178.4370  145.2150 C   0  0  0  0  0  3  0  0  0  0  0  0
  187.5530  178.0530  145.9220 C   0  0  0  0  0  0  0  0  0  0  0  0
  183.3230  178.6830  144.8060 C   0  0  0  0  0  3  0  0  0  0  0  0
  184.0540  178.7450  142.5040 C   0  0  0  0  0  3  0  0  0  0  0  0
  188.2830  176.4780  148.2310 C   0  0  0  0  0  2  0  0  0  0  0  0
  188.0820  177.8730  143.5430 C   0  0  0  0  0  0  0  0  0  0  0  0
  189.8600  177.4630  145.1780 C   0  0  0  0  0  3  0  0  0  0  0  0
  186.4420  179.7330  147.3430 C   0  0  0  0  0  1  0  0  0  0  0  0
  186.3690  178.3590  141.9470 O   0  0  0  0  0  0  0  0  0  0  0  0
  187.6940  178.0080  142.2490 C   0  0  0  0  0  0  0  0  0  0  0  0
  183.0290  178.8460  143.4470 C   0  0  0  0  0  0  0  0  0  0  0  0
  185.6750  178.3560  144.2760 C   0  0  0  0  0  0  0  0  0  0  0  0
  189.4890  177.5580  143.9030 C   0  0  0  0  0  3  0  0  0  0  0  0
  189.2140  178.4040  138.8110 C   0  0  0  0  0  0  0  0  0  0  0  0
  190.2150  177.4320  138.8190 C   0  0  0  0  0  3  0  0  0  0  0  0
  188.6040  177.8130  141.0910 C   0  0  0  0  0  0  0  0  0  0  0  0
  190.4090  176.6400  139.9540 C   0  0  0  0  0  3  0  0  0  0  0  0
  188.4080  178.5890  139.9380 C   0  0  0  0  0  3  0  0  0  0  0  0
  189.6040  176.8260  141.0810 C   0  0  0  0  0  3  0  0  0  0  0  0
  189.0160  179.1870  137.6810 O   0  0  0  0  0  1  0  0  0  0  0  0
  181.6960  179.1000  143.0080 N   0  0  0  0  0  2  0  0  0  0  0  0
  181.2480  178.6880  141.7460 N   0  0  0  0  0  2  0  0  0  0  0  0
  179.5780  179.2320  140.0800 C   0  0  0  0  0  2  0  0  0  0  0  0
  180.7600  180.1330  139.7700 C   0  0  1  0  0  3  0  0  0  0  0  0
  180.4190  179.7620  141.2220 C   0  0  2  0  0  3  0  0  0  0  0  0
  183.1890  179.8360  139.2350 O   0  0  0  0  0  1  0  0  0  0  0  0
  181.8900  179.3460  139.1670 C   0  0  0  0  0  0  0  0  0  0  0  0
  181.6620  178.2690  138.5540 O   0  0  0  0  0  0  0  0  0  0  0  0
  1  5  1  0  0  0  0
  2 14  1  1  0  0  0
  2  6  1  0  0  0  0
  3  8  2  0  0  0  0
  4 18  1  0  0  0  0
  5 11  1  6  0  0  0
  5  6  1  0  0  0  0
  6 11  1  6  0  0  0
  8  1  1  0  0  0  0
  8  2  1  0  0  0  0
  9  7  1  0  0  0  0
 10  4  2  0  0  0  0
 10 17  1  0  0  0  0
 12 19  1  0  0  0  0
 12  3  1  0  0  0  0
 13  1  1  0  0  0  0
 15 16  1  0  0  0  0
 15  4  1  0  0  0  0
 16 12  2  0  0  0  0
 17  9  2  0  0  0  0
 18  3  1  0  0  0  0
 18  7  2  0  0  0  0
 19 13  2  0  0  0  0
 20 21  2  0  0  0  0
 20 24  1  0  0  0  0
 21 23  1  0  0  0  0
 22 16  1  0  0  0  0
 23 25  2  0  0  0  0
 24 22  2  0  0  0  0
 25 22  1  0  0  0  0
 26 20  1  0  0  0  0
 27 17  1  0  0  0  0
 28 27  1  0  0  0  0
 29 31  1  0  0  0  0
 30 33  1  6  0  0  0
 30 29  1  0  0  0  0
 30 31  1  0  0  0  0
 31 28  1  6  0  0  0
 33 32  1  0  0  0  0
 34 33  2  0  0  0  0
M  END
>  <MODEL>
1

>  <REMARK>
 VINA RESULT:     -10.0      0.000      0.000
  Name = 
  5 active torsions:
  status: ('A' for Active; 'I' for Inactive)
    1  A    between atoms: N_3  and  N_13
    2  A    between atoms: N_3  and  C_29
    3  A    between atoms: C_12  and  C_28
    4  A    between atoms: N_13  and  C_33
    5  A    between atoms: C_20  and  C_22
                            x       y       z     vdW  Elec       q    Type
                         _______ _______ _______ _____ _____    ______ ____

>  <TORSDO>
F 5

$$$$
=
 OpenBabel10262419143D

 34 40  0  0  1  0  0  0  0  0999 V2000
  191.0420  176.8020  145.1910 N   0  0  0  0  0  0  0  0  0  0  0  0
  189.3780  177.2620  146.8290 C   0  0  2  0  0  3  0  0  0  0  0  0
  188.8880  177.4360  144.3150 C   0  0  0  0  0  0  0  0  0  0  0  0
  186.7460  178.0770  143.2440 C   0  0  0  0  0  0  0  0  0  0  0  0
  191.7050  176.4950  146.4430 C   0  0  1  0  0  3  0  0  0  0  0  0
  190.6590  176.7640  147.5310 C   0  0  2  0  0  3  0  0  0  0  0  0
  186.7290  177.7180  145.6340 C   0  0  0  0  0  3  0  0  0  0  0  0
  189.7020  177.2160  145.3760 C   0  0  0  0  0  0  0  0  0  0  0  0
  185.3680  178.0300  145.6740 C   0  0  0  0  0  3  0  0  0  0  0  0
  185.3850  178.3940  143.2850 C   0  0  0  0  0  3  0  0  0  0  0  0
  191.0060  175.3370  147.1410 C   0  0  0  0  0  2  0  0  0  0  0  0
  189.4910  177.3530  142.9450 C   0  0  0  0  0  0  0  0  0  0  0  0
  191.6530  176.7100  143.9040 C   0  0  0  0  0  3  0  0  0  0  0  0
  189.1470  178.7000  147.2640 C   0  0  0  0  0  1  0  0  0  0  0  0
  187.4070  178.0650  142.0140 O   0  0  0  0  0  0  0  0  0  0  0  0
  188.7440  177.6640  141.8560 C   0  0  0  0  0  0  0  0  0  0  0  0
  184.6920  178.3770  144.4980 C   0  0  0  0  0  0  0  0  0  0  0  0
  187.4370  177.7550  144.4230 C   0  0  0  0  0  0  0  0  0  0  0  0
  190.9250  176.9790  142.8230 C   0  0  0  0  0  3  0  0  0  0  0  0
  189.2510  178.5590  138.2180 C   0  0  0  0  0  0  0  0  0  0  0  0
  190.1000  177.5410  137.7810 C   0  0  0  0  0  3  0  0  0  0  0  0
  189.2580  177.6190  140.4630 C   0  0  0  0  0  0  0  0  0  0  0  0
  190.5230  176.5540  138.6760 C   0  0  0  0  0  3  0  0  0  0  0  0
  188.8270  178.5940  139.5490 C   0  0  0  0  0  3  0  0  0  0  0  0
  190.0990  176.5890  140.0070 C   0  0  0  0  0  3  0  0  0  0  0  0
  188.8260  179.5370  137.3290 O   0  0  0  0  0  1  0  0  0  0  0  0
  183.3030  178.7000  144.5160 N   0  0  0  0  0  2  0  0  0  0  0  0
  182.5310  178.6820  143.3460 N   0  0  0  0  0  2  0  0  0  0  0  0
  180.1550  178.3340  143.6500 C   0  0  0  0  0  2  0  0  0  0  0  0
  180.2700  179.3180  142.5000 C   0  0  1  0  0  3  0  0  0  0  0  0
  181.2770  179.3500  143.6610 C   0  0  2  0  0  3  0  0  0  0  0  0
  181.5110  179.3430  140.3250 O   0  0  0  0  0  0  0  0  0  0  0  0
  180.7630  178.6330  141.2560 C   0  0  0  0  0  0  0  0  0  0  0  0
  180.4590  177.4320  141.0260 O   0  0  0  0  0  1  0  0  0  0  0  0
  1  8  1  0  0  0  0
  1  5  1  0  0  0  0
  2 14  1  1  0  0  0
  2  6  1  0  0  0  0
  3 18  1  0  0  0  0
  3  8  2  0  0  0  0
  4 10  2  0  0  0  0
  4 18  1  0  0  0  0
  5 11  1  6  0  0  0
  5  6  1  0  0  0  0
  6 11  1  6  0  0  0
  7  9  1  0  0  0  0
  8  2  1  0  0  0  0
 10 17  1  0  0  0  0
 12  3  1  0  0  0  0
 13  1  1  0  0  0  0
 15  4  1  0  0  0  0
 16 15  1  0  0  0  0
 16 12  2  0  0  0  0
 17 27  1  0  0  0  0
 17  9  2  0  0  0  0
 18  7  2  0  0  0  0
 19 12  1  0  0  0  0
 19 13  2  0  0  0  0
 20 24  1  0  0  0  0
 21 20  2  0  0  0  0
 21 23  1  0  0  0  0
 22 16  1  0  0  0  0
 23 25  2  0  0  0  0
 24 22  2  0  0  0  0
 25 22  1  0  0  0  0
 26 20  1  0  0  0  0
 28 27  1  0  0  0  0
 29 31  1  0  0  0  0
 30 33  1  6  0  0  0
 30 29  1  0  0  0  0
 30 31  1  0  0  0  0
 31 28  1  6  0  0  0
 32 33  2  0  0  0  0
 34 33  1  0  0  0  0
M  END
>  <MODEL>
2

>  <REMARK>
 VINA RESULT:      -9.7      1.536      2.175
  Name = 
  5 active torsions:
  status: ('A' for Active; 'I' for Inactive)
    1  A    between atoms: N_3  and  N_13
    2  A    between atoms: N_3  and  C_29
    3  A    between atoms: C_12  and  C_28
    4  A    between atoms: N_13  and  C_33
    5  A    between atoms: C_20  and  C_22
                            x       y       z     vdW  Elec       q    Type
                         _______ _______ _______ _____ _____    ______ ____

>  <TORSDO>
F 5

$$$$
=
 OpenBabel10262419143D

 34 40  0  0  1  0  0  0  0  0999 V2000
  189.5430  176.8650  146.4120 N   0  0  0  0  0  0  0  0  0  0  0  0
  191.4150  176.3890  145.0210 C   0  0  2  0  0  3  0  0  0  0  0  0
  189.1860  177.2160  144.0540 C   0  0  0  0  0  0  0  0  0  0  0  0
  188.6430  177.6240  141.6690 C   0  0  0  0  0  0  0  0  0  0  0  0
  190.5890  176.5290  147.3560 C   0  0  1  0  0  3  0  0  0  0  0  0
  191.8250  176.2280  146.5010 C   0  0  2  0  0  3  0  0  0  0  0  0
  190.9480  177.1510  142.2180 C   0  0  0  0  0  3  0  0  0  0  0  0
  189.9910  176.8220  145.0700 C   0  0  0  0  0  0  0  0  0  0  0  0
  191.2940  177.2550  140.8690 C   0  0  0  0  0  3  0  0  0  0  0  0
  188.9880  177.7220  140.3180 C   0  0  0  0  0  3  0  0  0  0  0  0
  191.7260  177.5360  147.2670 C   0  0  0  0  0  2  0  0  0  0  0  0
  187.7680  177.5730  144.3860 C   0  0  0  0  0  0  0  0  0  0  0  0
  188.2020  177.1990  146.7690 C   0  0  0  0  0  3  0  0  0  0  0  0
  191.5200  175.0220  144.3660 C   0  0  0  0  0  1  0  0  0  0  0  0
  187.3200  177.8520  142.0540 O   0  0  0  0  0  0  0  0  0  0  0  0
  186.8950  177.8760  143.3920 C   0  0  0  0  0  0  0  0  0  0  0  0
  190.3110  177.5330  139.9120 C   0  0  0  0  0  0  0  0  0  0  0  0
  189.6180  177.3170  142.6320 C   0  0  0  0  0  0  0  0  0  0  0  0
  187.3410  177.5320  145.8090 C   0  0  0  0  0  3  0  0  0  0  0  0
  183.2570  178.6370  142.7010 C   0  0  0  0  0  0  0  0  0  0  0  0
  182.7880  179.0000  143.9650 C   0  0  0  0  0  3  0  0  0  0  0  0
  185.4710  178.2320  143.6250 C   0  0  0  0  0  0  0  0  0  0  0  0
  183.6570  178.9920  145.0600 C   0  0  0  0  0  3  0  0  0  0  0  0
  184.5930  178.2630  142.5310 C   0  0  0  0  0  3  0  0  0  0  0  0
  184.9920  178.6160  144.8890 C   0  0  0  0  0  3  0  0  0  0  0  0
  182.3960  178.6510  141.6110 O   0  0  0  0  0  1  0  0  0  0  0  0
  190.6420  177.6420  138.5280 N   0  0  0  0  0  2  0  0  0  0  0  0
  189.7480  178.1970  137.6020 N   0  0  0  0  0  2  0  0  0  0  0  0
  188.7120  177.5910  135.5000 C   0  0  0  0  0  2  0  0  0  0  0  0
  187.6810  177.2600  136.5640 C   0  0  1  0  0  3  0  0  0  0  0  0
  189.1820  177.0890  136.8490 C   0  0  2  0  0  3  0  0  0  0  0  0
  186.3370  178.4560  138.3060 O   0  0  0  0  0  1  0  0  0  0  0  0
  187.0710  178.5120  137.1270 C   0  0  0  0  0  0  0  0  0  0  0  0
  187.1740  179.6060  136.5100 O   0  0  0  0  0  0  0  0  0  0  0  0
  1 13  1  0  0  0  0
  1  5  1  0  0  0  0
  2 14  1  6  0  0  0
  2  8  1  0  0  0  0
  2  6  1  0  0  0  0
  3 12  1  0  0  0  0
  3  8  2  0  0  0  0
  4 15  1  0  0  0  0
  4 18  1  0  0  0  0
  5 11  1  1  0  0  0
  6 11  1  1  0  0  0
  6  5  1  0  0  0  0
  7 18  2  0  0  0  0
  8  1  1  0  0  0  0
  9  7  1  0  0  0  0
 10  4  2  0  0  0  0
 12 19  1  0  0  0  0
 15 16  1  0  0  0  0
 16 22  1  0  0  0  0
 16 12  2  0  0  0  0
 17 10  1  0  0  0  0
 17  9  2  0  0  0  0
 18  3  1  0  0  0  0
 19 13  2  0  0  0  0
 20 21  1  0  0  0  0
 21 23  2  0  0  0  0
 22 25  2  0  0  0  0
 24 20  2  0  0  0  0
 24 22  1  0  0  0  0
 25 23  1  0  0  0  0
 26 20  1  0  0  0  0
 27 17  1  0  0  0  0
 28 27  1  0  0  0  0
 29 30  1  0  0  0  0
 29 31  1  0  0  0  0
 30 31  1  0  0  0  0
 30 33  1  1  0  0  0
 31 28  1  1  0  0  0
 33 32  1  0  0  0  0
 34 33  2  0  0  0  0
M  END
>  <MODEL>
3

>  <REMARK>
 VINA RESULT:      -9.6      2.920      6.224
  Name = 
  5 active torsions:
  status: ('A' for Active; 'I' for Inactive)
    1  A    between atoms: N_3  and  N_13
    2  A    between atoms: N_3  and  C_29
    3  A    between atoms: C_12  and  C_28
    4  A    between atoms: N_13  and  C_33
    5  A    between atoms: C_20  and  C_22
                            x       y       z     vdW  Elec       q    Type
                         _______ _______ _______ _____ _____    ______ ____

>  <TORSDO>
F 5

$$$$
=
 OpenBabel10262419143D

 34 40  0  0  1  0  0  0  0  0999 V2000
  187.5190  177.9480  147.3060 N   0  0  0  0  0  0  0  0  0  0  0  0
  189.7290  177.4140  146.6000 C   0  0  2  0  0  3  0  0  0  0  0  0
  187.8330  177.8310  144.9190 C   0  0  0  0  0  0  0  0  0  0  0  0
  187.9740  177.7460  142.4450 C   0  0  0  0  0  0  0  0  0  0  0  0
  188.2670  177.8930  148.5460 C   0  0  1  0  0  3  0  0  0  0  0  0
  189.7070  177.5640  148.1360 C   0  0  2  0  0  3  0  0  0  0  0  0
  190.0470  177.6070  143.6820 C   0  0  0  0  0  3  0  0  0  0  0  0
  188.3320  177.7080  146.1730 C   0  0  0  0  0  0  0  0  0  0  0  0
  190.7570  177.4990  142.4840 C   0  0  0  0  0  3  0  0  0  0  0  0
  188.6860  177.6320  141.2470 C   0  0  0  0  0  3  0  0  0  0  0  0
  189.3380  178.9730  148.5670 C   0  0  0  0  0  2  0  0  0  0  0  0
  186.3650  178.1020  144.7760 C   0  0  0  0  0  0  0  0  0  0  0  0
  186.1190  178.2100  147.2120 C   0  0  0  0  0  3  0  0  0  0  0  0
  190.0740  175.9680  146.2860 C   0  0  0  0  0  1  0  0  0  0  0  0
  186.5880  177.9100  142.4030 O   0  0  0  0  0  0  0  0  0  0  0  0
  185.7990  178.1340  143.5440 C   0  0  0  0  0  0  0  0  0  0  0  0
  190.0760  177.5030  141.2610 C   0  0  0  0  0  0  0  0  0  0  0  0
  188.6470  177.7150  143.6770 C   0  0  0  0  0  0  0  0  0  0  0  0
  185.5540  178.2780  146.0090 C   0  0  0  0  0  3  0  0  0  0  0  0
  182.5300  178.6560  141.7180 C   0  0  0  0  0  0  0  0  0  0  0  0
  181.6560  178.9590  142.7630 C   0  0  0  0  0  3  0  0  0  0  0  0
  184.3550  178.3860  143.3060 C   0  0  0  0  0  0  0  0  0  0  0  0
  182.1260  178.9880  144.0790 C   0  0  0  0  0  3  0  0  0  0  0  0
  183.8730  178.3780  141.9870 C   0  0  0  0  0  3  0  0  0  0  0  0
  183.4690  178.7090  144.3480 C   0  0  0  0  0  3  0  0  0  0  0  0
  182.0660  178.6330  140.4100 O   0  0  0  0  0  1  0  0  0  0  0  0
  190.7820  177.3910  140.0260 N   0  0  0  0  0  2  0  0  0  0  0  0
  190.2500  177.8910  138.8300 N   0  0  0  0  0  2  0  0  0  0  0  0
  189.7620  177.1310  136.5840 C   0  0  0  0  0  2  0  0  0  0  0  0
  188.4680  176.9490  137.3570 C   0  0  1  0  0  3  0  0  0  0  0  0
  189.8270  176.7410  138.0450 C   0  0  2  0  0  3  0  0  0  0  0  0
  186.8620  178.3810  138.6370 O   0  0  0  0  0  1  0  0  0  0  0  0
  187.8170  178.2750  137.6340 C   0  0  0  0  0  0  0  0  0  0  0  0
  188.0930  179.2810  136.9280 O   0  0  0  0  0  0  0  0  0  0  0  0
  1  5  1  0  0  0  0
  2 14  1  1  0  0  0
  2  6  1  0  0  0  0
  3  8  2  0  0  0  0
  4 18  1  0  0  0  0
  5 11  1  6  0  0  0
  6  5  1  0  0  0  0
  6 11  1  6  0  0  0
  8  2  1  0  0  0  0
  8  1  1  0  0  0  0
  9  7  1  0  0  0  0
 10 17  1  0  0  0  0
 10  4  2  0  0  0  0
 12  3  1  0  0  0  0
 12 19  1  0  0  0  0
 13  1  1  0  0  0  0
 15  4  1  0  0  0  0
 15 16  1  0  0  0  0
 16 12  2  0  0  0  0
 17  9  2  0  0  0  0
 18  7  2  0  0  0  0
 18  3  1  0  0  0  0
 19 13  2  0  0  0  0
 20 24  2  0  0  0  0
 20 21  1  0  0  0  0
 21 23  2  0  0  0  0
 22 16  1  0  0  0  0
 22 25  2  0  0  0  0
 23 25  1  0  0  0  0
 24 22  1  0  0  0  0
 26 20  1  0  0  0  0
 27 17  1  0  0  0  0
 28 27  1  0  0  0  0
 29 30  1  0  0  0  0
 29 31  1  0  0  0  0
 30 33  1  1  0  0  0
 30 31  1  0  0  0  0
 31 28  1  1  0  0  0
 33 32  1  0  0  0  0
 34 33  2  0  0  0  0
M  END
>  <MODEL>
4

>  <REMARK>
 VINA RESULT:      -9.6      2.397      6.127
  Name = 
  5 active torsions:
  status: ('A' for Active; 'I' for Inactive)
    1  A    between atoms: N_3  and  N_13
    2  A    between atoms: N_3  and  C_29
    3  A    between atoms: C_12  and  C_28
    4  A    between atoms: N_13  and  C_33
    5  A    between atoms: C_20  and  C_22
                            x       y       z     vdW  Elec       q    Type
                         _______ _______ _______ _____ _____    ______ ____

>  <TORSDO>
F 5

$$$$
=
 OpenBabel10262419143D

 34 40  0  0  1  0  0  0  0  0999 V2000
  181.6870  178.9550  141.9560 N   0  0  0  0  0  0  0  0  0  0  0  0
  182.0740  179.0440  139.6090 C   0  0  2  0  0  3  0  0  0  0  0  0
  183.9870  178.6870  141.2840 C   0  0  0  0  0  0  0  0  0  0  0  0
  186.3960  178.4030  140.7730 C   0  0  0  0  0  0  0  0  0  0  0  0
  180.3550  179.0700  141.3980 C   0  0  1  0  0  3  0  0  0  0  0  0
  180.5560  179.1150  139.8790 C   0  0  2  0  0  3  0  0  0  0  0  0
  184.8570  178.3980  138.9100 C   0  0  0  0  0  3  0  0  0  0  0  0
  182.6900  178.9080  140.9590 C   0  0  0  0  0  0  0  0  0  0  0  0
  185.9250  178.2290  138.0250 C   0  0  0  0  0  3  0  0  0  0  0  0
  187.4650  178.2390  139.8870 C   0  0  0  0  0  3  0  0  0  0  0  0
  180.0330  177.8530  140.5430 C   0  0  0  0  0  2  0  0  0  0  0  0
  184.3390  178.6250  142.7400 C   0  0  0  0  0  0  0  0  0  0  0  0
  181.9820  178.8980  143.3520 C   0  0  0  0  0  3  0  0  0  0  0  0
  182.4900  180.3620  138.9790 C   0  0  0  0  0  1  0  0  0  0  0  0
  186.6480  178.4470  142.1460 O   0  0  0  0  0  0  0  0  0  0  0  0
  185.6370  178.5070  143.1190 C   0  0  0  0  0  0  0  0  0  0  0  0
  187.2360  178.1570  138.5120 C   0  0  0  0  0  0  0  0  0  0  0  0
  185.0810  178.5040  140.2910 C   0  0  0  0  0  0  0  0  0  0  0  0
  183.2460  178.7490  143.7400 C   0  0  0  0  0  3  0  0  0  0  0  0
  187.6760  177.6180  146.1750 C   0  0  0  0  0  0  0  0  0  0  0  0
  186.9290  178.1940  147.2040 C   0  0  0  0  0  3  0  0  0  0  0  0
  186.0810  178.4460  144.5350 C   0  0  0  0  0  0  0  0  0  0  0  0
  185.7530  178.8880  146.9070 C   0  0  0  0  0  3  0  0  0  0  0  0
  187.2500  177.7370  144.8490 C   0  0  0  0  0  3  0  0  0  0  0  0
  185.3280  179.0070  145.5810 C   0  0  0  0  0  3  0  0  0  0  0  0
  188.8420  176.9230  146.4690 O   0  0  0  0  0  1  0  0  0  0  0  0
  188.3410  177.9860  137.6260 N   0  0  0  0  0  2  0  0  0  0  0  0
  189.6620  178.1600  138.0600 N   0  0  0  0  0  2  0  0  0  0  0  0
  189.9400  175.7570  137.9700 C   0  0  0  0  0  2  0  0  0  0  0  0
  191.2610  176.2920  138.4900 C   0  0  1  0  0  3  0  0  0  0  0  0
  190.4450  177.0900  137.4610 C   0  0  2  0  0  3  0  0  0  0  0  0
  192.0370  177.6830  140.4220 O   0  0  0  0  0  0  0  0  0  0  0  0
  191.1260  176.7690  139.9090 C   0  0  0  0  0  0  0  0  0  0  0  0
  190.2220  176.3050  140.6540 O   0  0  0  0  0  1  0  0  0  0  0  0
  1 13  1  0  0  0  0
  2 14  1  1  0  0  0
  2  6  1  0  0  0  0
  2  8  1  0  0  0  0
  3 12  1  0  0  0  0
  4 15  1  0  0  0  0
  5 11  1  6  0  0  0
  5  1  1  0  0  0  0
  6 11  1  6  0  0  0
  6  5  1  0  0  0  0
  7 18  2  0  0  0  0
  8  3  2  0  0  0  0
  8  1  1  0  0  0  0
  9 17  2  0  0  0  0
  9  7  1  0  0  0  0
 10  4  2  0  0  0  0
 12 16  2  0  0  0  0
 12 19  1  0  0  0  0
 13 19  2  0  0  0  0
 15 16  1  0  0  0  0
 16 22  1  0  0  0  0
 17 10  1  0  0  0  0
 18  4  1  0  0  0  0
 18  3  1  0  0  0  0
 20 26  1  0  0  0  0
 20 21  1  0  0  0  0
 22 24  1  0  0  0  0
 22 25  2  0  0  0  0
 23 21  2  0  0  0  0
 24 20  2  0  0  0  0
 25 23  1  0  0  0  0
 27 28  1  0  0  0  0
 27 17  1  0  0  0  0
 29 30  1  0  0  0  0
 30 33  1  1  0  0  0
 31 29  1  0  0  0  0
 31 28  1  1  0  0  0
 31 30  1  0  0  0  0
 33 32  2  0  0  0  0
 33 34  1  0  0  0  0
M  END
>  <MODEL>
5

>  <REMARK>
 VINA RESULT:      -9.4      2.766      7.970
  Name = 
  5 active torsions:
  status: ('A' for Active; 'I' for Inactive)
    1  A    between atoms: N_3  and  N_13
    2  A    between atoms: N_3  and  C_29
    3  A    between atoms: C_12  and  C_28
    4  A    between atoms: N_13  and  C_33
    5  A    between atoms: C_20  and  C_22
                            x       y       z     vdW  Elec       q    Type
                         _______ _______ _______ _____ _____    ______ ____

>  <TORSDO>
F 5

$$$$
=
 OpenBabel10262419143D

 34 40  0  0  1  0  0  0  0  0999 V2000
  187.5630  177.9550  147.2970 N   0  0  0  0  0  0  0  0  0  0  0  0
  189.8060  177.4350  146.6910 C   0  0  2  0  0  3  0  0  0  0  0  0
  187.9840  177.8330  144.9270 C   0  0  0  0  0  0  0  0  0  0  0  0
  188.2350  177.7420  142.4620 C   0  0  0  0  0  0  0  0  0  0  0  0
  188.2560  177.9080  148.5690 C   0  0  1  0  0  3  0  0  0  0  0  0
  189.7150  177.5890  148.2240 C   0  0  2  0  0  3  0  0  0  0  0  0
  190.2510  177.6230  143.7890 C   0  0  0  0  0  3  0  0  0  0  0  0
  188.4270  177.7170  146.2020 C   0  0  0  0  0  0  0  0  0  0  0  0
  191.0150  177.5160  142.6250 C   0  0  0  0  0  3  0  0  0  0  0  0
  189.0000  177.6300  141.2970 C   0  0  0  0  0  3  0  0  0  0  0  0
  189.3170  178.9960  148.6350 C   0  0  0  0  0  2  0  0  0  0  0  0
  186.5220  178.0930  144.7180 C   0  0  0  0  0  0  0  0  0  0  0  0
  186.1670  178.2050  147.1410 C   0  0  0  0  0  3  0  0  0  0  0  0
  190.1760  175.9910  146.3980 C   0  0  0  0  0  1  0  0  0  0  0  0
  186.8510  177.8960  142.3580 O   0  0  0  0  0  0  0  0  0  0  0  0
  186.0100  178.1170  143.4620 C   0  0  0  0  0  0  0  0  0  0  0  0
  190.3890  177.5110  141.3730 C   0  0  0  0  0  0  0  0  0  0  0  0
  188.8530  177.7190  143.7230 C   0  0  0  0  0  0  0  0  0  0  0  0
  185.6550  178.2660  145.9130 C   0  0  0  0  0  3  0  0  0  0  0  0
  182.8110  178.5500  141.4950 C   0  0  0  0  0  0  0  0  0  0  0  0
  181.9000  178.9040  142.4910 C   0  0  0  0  0  3  0  0  0  0  0  0
  184.5760  178.3580  143.1590 C   0  0  0  0  0  0  0  0  0  0  0  0
  182.3220  178.9970  143.8210 C   0  0  0  0  0  3  0  0  0  0  0  0
  184.1430  178.2860  141.8260 C   0  0  0  0  0  3  0  0  0  0  0  0
  183.6540  178.7320  144.1510 C   0  0  0  0  0  3  0  0  0  0  0  0
  182.3950  178.4630  140.1730 O   0  0  0  0  0  1  0  0  0  0  0  0
  191.1500  177.4020  140.1710 N   0  0  0  0  0  2  0  0  0  0  0  0
  190.9360  176.3570  139.2600 N   0  0  0  0  0  2  0  0  0  0  0  0
  189.3070  176.3560  137.4700 C   0  0  0  0  0  2  0  0  0  0  0  0
  190.6240  175.9860  136.8120 C   0  0  1  0  0  3  0  0  0  0  0  0
  190.5880  176.9740  137.9900 C   0  0  2  0  0  3  0  0  0  0  0  0
  192.3470  174.1780  136.9980 O   0  0  0  0  0  0  0  0  0  0  0  0
  191.0310  174.5860  137.1760 C   0  0  0  0  0  0  0  0  0  0  0  0
  190.1740  173.7600  137.5920 O   0  0  0  0  0  1  0  0  0  0  0  0
  1  5  1  0  0  0  0
  2 14  1  1  0  0  0
  2  6  1  0  0  0  0
  3  8  2  0  0  0  0
  4 18  1  0  0  0  0
  5 11  1  6  0  0  0
  6  5  1  0  0  0  0
  6 11  1  6  0  0  0
  8  2  1  0  0  0  0
  8  1  1  0  0  0  0
  9  7  1  0  0  0  0
 10 17  1  0  0  0  0
 10  4  2  0  0  0  0
 12  3  1  0  0  0  0
 12 19  1  0  0  0  0
 13  1  1  0  0  0  0
 15  4  1  0  0  0  0
 15 16  1  0  0  0  0
 16 12  2  0  0  0  0
 17  9  2  0  0  0  0
 18  7  2  0  0  0  0
 18  3  1  0  0  0  0
 19 13  2  0  0  0  0
 20 24  2  0  0  0  0
 20 21  1  0  0  0  0
 21 23  2  0  0  0  0
 22 16  1  0  0  0  0
 22 25  2  0  0  0  0
 23 25  1  0  0  0  0
 24 22  1  0  0  0  0
 26 20  1  0  0  0  0
 27 17  1  0  0  0  0
 28 27  1  0  0  0  0
 29 31  1  0  0  0  0
 30 33  1  1  0  0  0
 30 29  1  0  0  0  0
 30 31  1  0  0  0  0
 31 28  1  1  0  0  0
 32 33  2  0  0  0  0
 33 34  1  0  0  0  0
M  END
>  <MODEL>
6

>  <REMARK>
 VINA RESULT:      -9.4      2.572      6.764
  Name = 
  5 active torsions:
  status: ('A' for Active; 'I' for Inactive)
    1  A    between atoms: N_3  and  N_13
    2  A    between atoms: N_3  and  C_29
    3  A    between atoms: C_12  and  C_28
    4  A    between atoms: N_13  and  C_33
    5  A    between atoms: C_20  and  C_22
                            x       y       z     vdW  Elec       q    Type
                         _______ _______ _______ _____ _____    ______ ____

>  <TORSDO>
F 5

$$$$
=
 OpenBabel10262419143D

 34 40  0  0  1  0  0  0  0  0999 V2000
  189.4890  176.8400  146.3980 N   0  0  0  0  0  0  0  0  0  0  0  0
  191.3530  176.3560  144.9990 C   0  0  2  0  0  3  0  0  0  0  0  0
  189.1230  177.1930  144.0420 C   0  0  0  0  0  0  0  0  0  0  0  0
  188.5700  177.6020  141.6590 C   0  0  0  0  0  0  0  0  0  0  0  0
  190.5390  176.5000  147.3370 C   0  0  1  0  0  3  0  0  0  0  0  0
  191.7690  176.1940  146.4760 C   0  0  2  0  0  3  0  0  0  0  0  0
  190.8760  177.1200  142.1980 C   0  0  0  0  0  3  0  0  0  0  0  0
  189.9310  176.7960  145.0540 C   0  0  0  0  0  0  0  0  0  0  0  0
  191.2160  177.2210  140.8470 C   0  0  0  0  0  3  0  0  0  0  0  0
  188.9100  177.6990  140.3070 C   0  0  0  0  0  3  0  0  0  0  0  0
  191.6800  177.5020  147.2420 C   0  0  0  0  0  2  0  0  0  0  0  0
  187.7080  177.5560  144.3810 C   0  0  0  0  0  0  0  0  0  0  0  0
  188.1520  177.1810  146.7610 C   0  0  0  0  0  3  0  0  0  0  0  0
  191.4490  174.9890  144.3430 C   0  0  0  0  0  1  0  0  0  0  0  0
  187.2500  177.8370  142.0500 O   0  0  0  0  0  0  0  0  0  0  0  0
  186.8310  177.8620  143.3910 C   0  0  0  0  0  0  0  0  0  0  0  0
  190.2300  177.5040  139.8940 C   0  0  0  0  0  0  0  0  0  0  0  0
  189.5480  177.2910  142.6180 C   0  0  0  0  0  0  0  0  0  0  0  0
  187.2880  177.5170  145.8060 C   0  0  0  0  0  3  0  0  0  0  0  0
  183.1910  178.6290  142.7180 C   0  0  0  0  0  0  0  0  0  0  0  0
  182.7320  179.0040  143.9820 C   0  0  0  0  0  3  0  0  0  0  0  0
  185.4110  178.2250  143.6300 C   0  0  0  0  0  0  0  0  0  0  0  0
  183.6080  179.0020  145.0710 C   0  0  0  0  0  3  0  0  0  0  0  0
  184.5250  178.2490  142.5420 C   0  0  0  0  0  3  0  0  0  0  0  0
  184.9410  178.6210  144.8940 C   0  0  0  0  0  3  0  0  0  0  0  0
  182.3230  178.6360  141.6340 O   0  0  0  0  0  1  0  0  0  0  0  0
  190.5540  177.6110  138.5090 N   0  0  0  0  0  2  0  0  0  0  0  0
  191.7530  177.0980  137.9950 N   0  0  0  0  0  2  0  0  0  0  0  0
  191.7940  174.7110  137.5970 C   0  0  0  0  0  2  0  0  0  0  0  0
  192.6100  175.3180  136.4700 C   0  0  1  0  0  3  0  0  0  0  0  0
  191.3910  176.0610  137.0420 C   0  0  2  0  0  3  0  0  0  0  0  0
  194.4890  175.2550  138.1240 O   0  0  0  0  0  1  0  0  0  0  0  0
  193.9390  175.8060  136.9730 C   0  0  0  0  0  0  0  0  0  0  0  0
  194.5350  176.7490  136.3880 O   0  0  0  0  0  0  0  0  0  0  0  0
  1 13  1  0  0  0  0
  1  5  1  0  0  0  0
  2 14  1  6  0  0  0
  2  8  1  0  0  0  0
  2  6  1  0  0  0  0
  3 12  1  0  0  0  0
  3  8  2  0  0  0  0
  4 15  1  0  0  0  0
  4 18  1  0  0  0  0
  5 11  1  1  0  0  0
  6 11  1  1  0  0  0
  6  5  1  0  0  0  0
  7 18  2  0  0  0  0
  8  1  1  0  0  0  0
  9  7  1  0  0  0  0
 10  4  2  0  0  0  0
 12 19  1  0  0  0  0
 15 16  1  0  0  0  0
 16 22  1  0  0  0  0
 16 12  2  0  0  0  0
 17 10  1  0  0  0  0
 17  9  2  0  0  0  0
 18  3  1  0  0  0  0
 19 13  2  0  0  0  0
 20 21  1  0  0  0  0
 21 23  2  0  0  0  0
 22 25  2  0  0  0  0
 24 20  2  0  0  0  0
 24 22  1  0  0  0  0
 25 23  1  0  0  0  0
 26 20  1  0  0  0  0
 27 17  1  0  0  0  0
 28 27  1  0  0  0  0
 30 33  1  1  0  0  0
 30 31  1  0  0  0  0
 30 29  1  0  0  0  0
 31 29  1  0  0  0  0
 31 28  1  1  0  0  0
 33 32  1  0  0  0  0
 34 33  2  0  0  0  0
M  END
>  <MODEL>
7

>  <REMARK>
 VINA RESULT:      -9.4      3.117      7.636
  Name = 
  5 active torsions:
  status: ('A' for Active; 'I' for Inactive)
    1  A    between atoms: N_3  and  N_13
    2  A    between atoms: N_3  and  C_29
    3  A    between atoms: C_12  and  C_28
    4  A    between atoms: N_13  and  C_33
    5  A    between atoms: C_20  and  C_22
                            x       y       z     vdW  Elec       q    Type
                         _______ _______ _______ _____ _____    ______ ____

>  <TORSDO>
F 5

$$$$
=
 OpenBabel10262419143D

 34 40  0  0  1  0  0  0  0  0999 V2000
  181.3930  178.7700  142.3770 N   0  0  0  0  0  0  0  0  0  0  0  0
  181.6400  178.8990  140.0130 C   0  0  2  0  0  3  0  0  0  0  0  0
  183.6610  178.6320  141.5740 C   0  0  0  0  0  0  0  0  0  0  0  0
  186.0500  178.4810  140.9250 C   0  0  0  0  0  0  0  0  0  0  0  0
  180.0270  178.8180  141.8960 C   0  0  1  0  0  3  0  0  0  0  0  0
  180.1380  178.8870  140.3680 C   0  0  2  0  0  3  0  0  0  0  0  0
  184.4100  178.4090  139.1510 C   0  0  0  0  0  3  0  0  0  0  0  0
  182.3380  178.7850  141.3250 C   0  0  0  0  0  0  0  0  0  0  0  0
  185.4330  178.3050  138.2060 C   0  0  0  0  0  3  0  0  0  0  0  0
  187.0730  178.3830  139.9780 C   0  0  0  0  0  3  0  0  0  0  0  0
  179.7220  177.5930  141.0460 C   0  0  0  0  0  2  0  0  0  0  0  0
  184.0980  178.5760  143.0070 C   0  0  0  0  0  0  0  0  0  0  0  0
  181.7680  178.7180  143.7530 C   0  0  0  0  0  3  0  0  0  0  0  0
  181.9490  180.2430  139.3750 C   0  0  0  0  0  1  0  0  0  0  0  0
  186.3770  178.5270  142.2820 O   0  0  0  0  0  0  0  0  0  0  0  0
  185.4200  178.5250  143.3110 C   0  0  0  0  0  0  0  0  0  0  0  0
  186.7710  178.2990  138.6180 C   0  0  0  0  0  0  0  0  0  0  0  0
  184.7060  178.5160  140.5190 C   0  0  0  0  0  0  0  0  0  0  0  0
  183.0590  178.6330  144.0680 C   0  0  0  0  0  3  0  0  0  0  0  0
  187.6070  177.6220  146.2590 C   0  0  0  0  0  0  0  0  0  0  0  0
  186.9450  178.2470  147.3170 C   0  0  0  0  0  3  0  0  0  0  0  0
  185.9460  178.4760  144.6990 C   0  0  0  0  0  0  0  0  0  0  0  0
  185.7780  178.9780  147.0760 C   0  0  0  0  0  3  0  0  0  0  0  0
  187.1060  177.7300  144.9590 C   0  0  0  0  0  3  0  0  0  0  0  0
  185.2780  179.0860  145.7750 C   0  0  0  0  0  3  0  0  0  0  0  0
  188.7630  176.8910  146.4980 O   0  0  0  0  0  1  0  0  0  0  0  0
  187.8320  178.1950  137.6690 N   0  0  0  0  0  2  0  0  0  0  0  0
  188.4060  176.9590  137.3430 N   0  0  0  0  0  2  0  0  0  0  0  0
  189.8140  176.0070  135.6200 C   0  0  0  0  0  2  0  0  0  0  0  0
  190.7580  176.3690  136.7530 C   0  0  1  0  0  3  0  0  0  0  0  0
  189.5240  177.2360  136.4550 C   0  0  2  0  0  3  0  0  0  0  0  0
  190.7900  175.8740  139.2070 O   0  0  0  0  0  1  0  0  0  0  0  0
  190.5990  175.4210  137.9080 C   0  0  0  0  0  0  0  0  0  0  0  0
  190.3450  174.2040  137.7030 O   0  0  0  0  0  0  0  0  0  0  0  0
  1 13  1  0  0  0  0
  2 14  1  1  0  0  0
  2  6  1  0  0  0  0
  2  8  1  0  0  0  0
  3 12  1  0  0  0  0
  4 15  1  0  0  0  0
  5 11  1  6  0  0  0
  5  1  1  0  0  0  0
  6 11  1  6  0  0  0
  6  5  1  0  0  0  0
  7 18  2  0  0  0  0
  8  3  2  0  0  0  0
  8  1  1  0  0  0  0
  9 17  2  0  0  0  0
  9  7  1  0  0  0  0
 10  4  2  0  0  0  0
 12 16  2  0  0  0  0
 12 19  1  0  0  0  0
 13 19  2  0  0  0  0
 15 16  1  0  0  0  0
 16 22  1  0  0  0  0
 17 10  1  0  0  0  0
 18  4  1  0  0  0  0
 18  3  1  0  0  0  0
 20 26  1  0  0  0  0
 20 21  1  0  0  0  0
 22 24  1  0  0  0  0
 22 25  2  0  0  0  0
 23 21  2  0  0  0  0
 24 20  2  0  0  0  0
 25 23  1  0  0  0  0
 27 17  1  0  0  0  0
 28 27  1  0  0  0  0
 29 31  1  0  0  0  0
 29 30  1  0  0  0  0
 30 33  1  1  0  0  0
 31 30  1  0  0  0  0
 31 28  1  1  0  0  0
 33 32  1  0  0  0  0
 34 33  2  0  0  0  0
M  END
>  <MODEL>
8

>  <REMARK>
 VINA RESULT:      -9.0      2.911      7.917
  Name = 
  5 active torsions:
  status: ('A' for Active; 'I' for Inactive)
    1  A    between atoms: N_3  and  N_13
    2  A    between atoms: N_3  and  C_29
    3  A    between atoms: C_12  and  C_28
    4  A    between atoms: N_13  and  C_33
    5  A    between atoms: C_20  and  C_22
                            x       y       z     vdW  Elec       q    Type
                         _______ _______ _______ _____ _____    ______ ____

>  <TORSDO>
F 5

$$$$
=
 OpenBabel10262419143D

 34 40  0  0  1  0  0  0  0  0999 V2000
  180.9820  179.2720  140.7650 N   0  0  0  0  0  0  0  0  0  0  0  0
  180.5650  179.1800  143.1060 C   0  0  2  0  0  3  0  0  0  0  0  0
  182.9220  178.8680  142.1370 C   0  0  0  0  0  0  0  0  0  0  0  0
  185.0170  178.4390  143.3930 C   0  0  0  0  0  0  0  0  0  0  0  0
  179.5720  179.5880  140.8700 C   0  0  1  0  0  3  0  0  0  0  0  0
  179.2610  179.5540  142.3700 C   0  0  2  0  0  3  0  0  0  0  0  0
  183.0450  178.9920  144.6770 C   0  0  0  0  0  3  0  0  0  0  0  0
  181.5850  179.0620  142.0270 C   0  0  0  0  0  0  0  0  0  0  0  0
  183.7780  178.8730  145.8600 C   0  0  0  0  0  3  0  0  0  0  0  0
  185.7490  178.3150  144.5770 C   0  0  0  0  0  3  0  0  0  0  0  0
  179.3760  180.8840  141.6440 C   0  0  0  0  0  2  0  0  0  0  0  0
  183.7170  178.7550  140.8710 C   0  0  0  0  0  0  0  0  0  0  0  0
  181.7040  179.1740  139.5370 C   0  0  0  0  0  3  0  0  0  0  0  0
  180.3460  177.8280  143.7640 C   0  0  0  0  0  1  0  0  0  0  0  0
  185.6630  178.2590  142.1680 O   0  0  0  0  0  0  0  0  0  0  0  0
  185.0400  178.4600  140.9260 C   0  0  0  0  0  0  0  0  0  0  0  0
  185.1340  178.5260  145.8130 C   0  0  0  0  0  0  0  0  0  0  0  0
  183.6500  178.7600  143.4320 C   0  0  0  0  0  0  0  0  0  0  0  0
  183.0100  178.9190  139.5730 C   0  0  0  0  0  3  0  0  0  0  0  0
  188.1450  178.2380  138.7820 C   0  0  0  0  0  0  0  0  0  0  0  0
  187.6090  178.1660  137.4950 C   0  0  0  0  0  3  0  0  0  0  0  0
  185.9040  178.3200  139.7250 C   0  0  0  0  0  0  0  0  0  0  0  0
  186.2230  178.1800  137.3160 C   0  0  0  0  0  3  0  0  0  0  0  0
  187.2980  178.3230  139.8900 C   0  0  0  0  0  3  0  0  0  0  0  0
  185.3760  178.2630  138.4240 C   0  0  0  0  0  3  0  0  0  0  0  0
  189.5220  178.2300  138.9600 O   0  0  0  0  0  1  0  0  0  0  0  0
  185.9020  178.3980  147.0090 N   0  0  0  0  0  2  0  0  0  0  0  0
  187.2870  178.6070  147.0170 N   0  0  0  0  0  2  0  0  0  0  0  0
  189.3030  177.9170  148.1670 C   0  0  0  0  0  2  0  0  0  0  0  0
  189.0160  176.8130  147.1650 C   0  0  1  0  0  3  0  0  0  0  0  0
  187.8640  177.5640  147.8510 C   0  0  2  0  0  3  0  0  0  0  0  0
  188.7160  176.6340  144.6850 O   0  0  0  0  0  0  0  0  0  0  0  0
  189.3200  177.2670  145.7650 C   0  0  0  0  0  0  0  0  0  0  0  0
  190.1600  178.1840  145.5600 O   0  0  0  0  0  1  0  0  0  0  0  0
  1  5  1  0  0  0  0
  1  8  1  0  0  0  0
  2 14  1  6  0  0  0
  3 18  1  0  0  0  0
  4 18  2  0  0  0  0
  4 10  1  0  0  0  0
  5 11  1  1  0  0  0
  5  6  1  0  0  0  0
  6 11  1  1  0  0  0
  6  2  1  0  0  0  0
  7  9  2  0  0  0  0
  8  3  2  0  0  0  0
  8  2  1  0  0  0  0
 10 17  2  0  0  0  0
 12 16  2  0  0  0  0
 12  3  1  0  0  0  0
 13 19  2  0  0  0  0
 13  1  1  0  0  0  0
 15  4  1  0  0  0  0
 16 15  1  0  0  0  0
 17  9  1  0  0  0  0
 17 27  1  0  0  0  0
 18  7  1  0  0  0  0
 19 12  1  0  0  0  0
 20 26  1  0  0  0  0
 20 24  1  0  0  0  0
 21 20  2  0  0  0  0
 22 24  2  0  0  0  0
 22 16  1  0  0  0  0
 23 21  1  0  0  0  0
 23 25  2  0  0  0  0
 25 22  1  0  0  0  0
 27 28  1  0  0  0  0
 30 33  1  6  0  0  0
 30 31  1  0  0  0  0
 30 29  1  0  0  0  0
 31 28  1  6  0  0  0
 31 29  1  0  0  0  0
 32 33  2  0  0  0  0
 34 33  1  0  0  0  0
M  END
>  <MODEL>
9

>  <REMARK>
 VINA RESULT:      -8.9      1.985      7.223
  Name = 
  5 active torsions:
  status: ('A' for Active; 'I' for Inactive)
    1  A    between atoms: N_3  and  N_13
    2  A    between atoms: N_3  and  C_29
    3  A    between atoms: C_12  and  C_28
    4  A    between atoms: N_13  and  C_33
    5  A    between atoms: C_20  and  C_22
                            x       y       z     vdW  Elec       q    Type
                         _______ _______ _______ _____ _____    ______ ____

>  <TORSDO>
F 5

$$$$
