=
 OpenBabel10262420433D

 28 30  0  0  1  0  0  0  0  0999 V2000
  187.9360  177.7860  144.0820 C   0  0  0  0  0  0  0  0  0  0  0  0
  183.2630  178.6340  145.0480 F   0  0  0  0  0  0  0  0  0  0  0  0
  185.0880  178.7660  141.8810 C   0  0  0  0  0  0  0  0  0  0  0  0
  185.5800  178.2050  144.5910 C   0  0  0  0  0  0  0  0  0  0  0  0
  186.3760  178.4130  142.3040 C   0  0  0  0  0  3  0  0  0  0  0  0
  187.1120  177.5850  146.3620 C   0  0  0  0  0  3  0  0  0  0  0  0
  184.2890  178.5550  144.1640 C   0  0  0  0  0  0  0  0  0  0  0  0
  185.8280  177.9300  145.9390 C   0  0  0  0  0  3  0  0  0  0  0  0
  184.0510  178.8350  142.8160 C   0  0  0  0  0  3  0  0  0  0  0  0
  188.1580  177.5130  145.4400 C   0  0  0  0  0  3  0  0  0  0  0  0
  186.6390  178.1320  143.6510 C   0  0  0  0  0  0  0  0  0  0  0  0
  189.0770  177.6980  143.1000 C   0  0  2  0  0  3  0  0  0  0  0  0
  189.2000  176.2910  142.5030 C   0  0  0  0  0  2  0  0  0  0  0  0
  191.4840  177.1740  144.0070 C   0  0  1  0  0  3  0  0  0  0  0  0
  189.9190  175.4480  143.3670 O   0  0  0  0  0  0  0  0  0  0  0  0
  190.5440  179.3390  143.9630 O   0  0  0  0  0  0  0  0  0  0  0  0
  190.3820  178.1570  143.7070 C   0  0  0  0  0  0  0  0  0  0  0  0
  191.5690  176.9230  145.5020 C   0  0  0  0  0  1  0  0  0  0  0  0
  191.2590  175.8550  143.2620 C   0  0  0  0  0  2  0  0  0  0  0  0
  185.4800  178.5870  139.4740 C   0  0  0  0  0  0  0  0  0  0  0  0
  184.7930  179.0760  140.4750 C   0  0  0  0  0  3  0  0  0  0  0  0
  186.1540  178.1090  138.4600 C   0  0  0  0  0  3  0  0  0  0  0  0
  187.5350  177.7310  138.5550 N   0  0  0  0  0  0  0  0  0  0  0  0
  187.9830  176.5710  137.8080 C   0  0  0  0  0  1  0  0  0  0  0  0
  188.4900  178.3970  139.4330 C   0  0  0  0  0  2  0  0  0  0  0  0
  189.8140  177.7780  139.3130 C   0  0  0  0  0  0  0  0  0  0  0  0
  192.1540  176.7260  139.1330 O   0  0  0  0  0  1  0  0  0  0  0  0
  190.9110  177.2820  139.2270 C   0  0  0  0  0  0  0  0  0  0  0  0
  1 10  1  0  0  0  0
  3  5  2  0  0  0  0
  3  9  1  0  0  0  0
  4  8  2  0  0  0  0
  5 11  1  0  0  0  0
  7  4  1  0  0  0  0
  7  2  1  0  0  0  0
  8  6  1  0  0  0  0
  9  7  2  0  0  0  0
 10  6  2  0  0  0  0
 11  1  2  0  0  0  0
 11  4  1  0  0  0  0
 12 17  1  0  0  0  0
 12  1  1  1  0  0  0
 13 12  1  0  0  0  0
 13 15  1  0  0  0  0
 14 18  1  1  0  0  0
 17 16  2  0  0  0  0
 17 14  1  0  0  0  0
 19 15  1  0  0  0  0
 19 14  1  0  0  0  0
 20 21  2  0  0  0  0
 21  3  1  0  0  0  0
 22 23  1  0  0  0  0
 22 20  2  0  0  0  0
 23 25  1  0  0  0  0
 24 23  1  0  0  0  0
 26 25  1  0  0  0  0
 27 28  1  0  0  0  0
 28 26  3  0  0  0  0
M  END
>  <MODEL>
1

>  <REMARK>
 VINA RESULT:      -9.3      0.000      0.000
  Name = 
  5 active torsions:
  status: ('A' for Active; 'I' for Inactive)
    1  A    between atoms: C_1  and  C_2
    2  A    between atoms: C_9  and  C_15
    3  A    between atoms: C_10  and  C_13
    4  A    between atoms: N_12  and  C_15
    5  A    between atoms: N_12  and  C_24
                            x       y       z     vdW  Elec       q    Type
                         _______ _______ _______ _____ _____    ______ ____

>  <TORSDO>
F 5

$$$$
=
 OpenBabel10262420433D

 28 30  0  0  1  0  0  0  0  0999 V2000
  187.9840  177.8460  144.0530 C   0  0  0  0  0  0  0  0  0  0  0  0
  183.2430  178.5330  144.7880 F   0  0  0  0  0  0  0  0  0  0  0  0
  185.2110  178.7020  141.7090 C   0  0  0  0  0  0  0  0  0  0  0  0
  185.5940  178.1850  144.4450 C   0  0  0  0  0  0  0  0  0  0  0  0
  186.4900  178.4000  142.1960 C   0  0  0  0  0  3  0  0  0  0  0  0
  187.0610  177.6370  146.2930 C   0  0  0  0  0  3  0  0  0  0  0  0
  184.3130  178.4840  143.9540 C   0  0  0  0  0  0  0  0  0  0  0  0
  185.7870  177.9310  145.8070 C   0  0  0  0  0  3  0  0  0  0  0  0
  184.1300  178.7420  142.5930 C   0  0  0  0  0  3  0  0  0  0  0  0
  188.1520  177.5950  145.4230 C   0  0  0  0  0  3  0  0  0  0  0  0
  186.6980  178.1410  143.5570 C   0  0  0  0  0  0  0  0  0  0  0  0
  189.1730  177.7910  143.1270 C   0  0  2  0  0  3  0  0  0  0  0  0
  189.3280  176.4040  142.4900 C   0  0  0  0  0  2  0  0  0  0  0  0
  191.5330  177.2360  144.1350 C   0  0  1  0  0  3  0  0  0  0  0  0
  190.0040  175.5330  143.3610 O   0  0  0  0  0  0  0  0  0  0  0  0
  190.5930  179.4020  144.1160 O   0  0  0  0  0  0  0  0  0  0  0  0
  190.4460  178.2290  143.8130 C   0  0  0  0  0  0  0  0  0  0  0  0
  191.5430  176.9360  145.6230 C   0  0  0  0  0  1  0  0  0  0  0  0
  191.3470  175.9430  143.3370 C   0  0  0  0  0  2  0  0  0  0  0  0
  183.7840  179.2290  139.7950 C   0  0  0  0  0  0  0  0  0  0  0  0
  184.9730  178.9870  140.2870 C   0  0  0  0  0  3  0  0  0  0  0  0
  182.6060  179.4740  139.2830 C   0  0  0  0  0  3  0  0  0  0  0  0
  181.3920  178.9540  139.8440 N   0  0  0  0  0  0  0  0  0  0  0  0
  180.9670  177.6240  139.4500 C   0  0  0  0  0  1  0  0  0  0  0  0
  180.5180  179.7260  140.7190 C   0  0  0  0  0  2  0  0  0  0  0  0
  180.2500  178.9890  141.9580 C   0  0  0  0  0  0  0  0  0  0  0  0
  179.7900  177.7350  144.1560 O   0  0  0  0  0  1  0  0  0  0  0  0
  180.0330  178.3980  142.9870 C   0  0  0  0  0  0  0  0  0  0  0  0
  1 10  1  0  0  0  0
  3  5  2  0  0  0  0
  3  9  1  0  0  0  0
  4  8  2  0  0  0  0
  5 11  1  0  0  0  0
  7  4  1  0  0  0  0
  7  2  1  0  0  0  0
  8  6  1  0  0  0  0
  9  7  2  0  0  0  0
 10  6  2  0  0  0  0
 11  1  2  0  0  0  0
 11  4  1  0  0  0  0
 12 17  1  0  0  0  0
 12  1  1  1  0  0  0
 13 12  1  0  0  0  0
 13 15  1  0  0  0  0
 14 18  1  1  0  0  0
 17 16  2  0  0  0  0
 17 14  1  0  0  0  0
 19 15  1  0  0  0  0
 19 14  1  0  0  0  0
 20 21  2  0  0  0  0
 21  3  1  0  0  0  0
 22 20  2  0  0  0  0
 22 23  1  0  0  0  0
 23 25  1  0  0  0  0
 24 23  1  0  0  0  0
 25 26  1  0  0  0  0
 26 28  3  0  0  0  0
 28 27  1  0  0  0  0
M  END
>  <MODEL>
2

>  <REMARK>
 VINA RESULT:      -9.2      2.834      4.601
  Name = 
  5 active torsions:
  status: ('A' for Active; 'I' for Inactive)
    1  A    between atoms: C_1  and  C_2
    2  A    between atoms: C_9  and  C_15
    3  A    between atoms: C_10  and  C_13
    4  A    between atoms: N_12  and  C_15
    5  A    between atoms: N_12  and  C_24
                            x       y       z     vdW  Elec       q    Type
                         _______ _______ _______ _____ _____    ______ ____

>  <TORSDO>
F 5

$$$$
=
 OpenBabel10262420433D

 28 30  0  0  1  0  0  0  0  0999 V2000
  187.9960  177.8100  144.0260 C   0  0  0  0  0  0  0  0  0  0  0  0
  183.2620  178.5290  144.7740 F   0  0  0  0  0  0  0  0  0  0  0  0
  185.2290  178.7220  141.6970 C   0  0  0  0  0  0  0  0  0  0  0  0
  185.6090  178.1640  144.4250 C   0  0  0  0  0  0  0  0  0  0  0  0
  186.5050  178.4020  142.1780 C   0  0  0  0  0  3  0  0  0  0  0  0
  187.0720  177.5780  146.2640 C   0  0  0  0  0  3  0  0  0  0  0  0
  184.3300  178.4810  143.9390 C   0  0  0  0  0  0  0  0  0  0  0  0
  185.8010  177.8900  145.7830 C   0  0  0  0  0  3  0  0  0  0  0  0
  184.1480  178.7590  142.5820 C   0  0  0  0  0  3  0  0  0  0  0  0
  188.1620  177.5380  145.3930 C   0  0  0  0  0  3  0  0  0  0  0  0
  186.7110  178.1230  143.5350 C   0  0  0  0  0  0  0  0  0  0  0  0
  189.1840  177.7570  143.0990 C   0  0  2  0  0  3  0  0  0  0  0  0
  189.3440  176.3670  142.4670 C   0  0  0  0  0  2  0  0  0  0  0  0
  191.5470  177.2170  144.1050 C   0  0  1  0  0  3  0  0  0  0  0  0
  190.0250  175.5030  143.3400 O   0  0  0  0  0  0  0  0  0  0  0  0
  190.5970  179.3780  144.0790 O   0  0  0  0  0  0  0  0  0  0  0  0
  190.4550  178.2030  143.7810 C   0  0  0  0  0  0  0  0  0  0  0  0
  191.5610  176.9220  145.5950 C   0  0  0  0  0  1  0  0  0  0  0  0
  191.3660  175.9190  143.3120 C   0  0  0  0  0  2  0  0  0  0  0  0
  185.7120  178.5290  139.3070 C   0  0  0  0  0  0  0  0  0  0  0  0
  184.9920  179.0290  140.2790 C   0  0  0  0  0  3  0  0  0  0  0  0
  186.4200  178.0400  138.3220 C   0  0  0  0  0  3  0  0  0  0  0  0
  187.7920  177.6480  138.4710 N   0  0  0  0  0  0  0  0  0  0  0  0
  188.6340  178.4210  139.3640 C   0  0  0  0  0  1  0  0  0  0  0  0
  188.4070  176.5720  137.7030 C   0  0  0  0  0  2  0  0  0  0  0  0
  187.3990  175.5820  137.3110 C   0  0  0  0  0  0  0  0  0  0  0  0
  185.6560  173.8370  136.5820 O   0  0  0  0  0  1  0  0  0  0  0  0
  186.5800  174.7630  136.9720 C   0  0  0  0  0  0  0  0  0  0  0  0
  1 10  1  0  0  0  0
  3  5  2  0  0  0  0
  3  9  1  0  0  0  0
  4  8  2  0  0  0  0
  5 11  1  0  0  0  0
  7  4  1  0  0  0  0
  7  2  1  0  0  0  0
  8  6  1  0  0  0  0
  9  7  2  0  0  0  0
 10  6  2  0  0  0  0
 11  1  2  0  0  0  0
 11  4  1  0  0  0  0
 12 17  1  0  0  0  0
 12  1  1  1  0  0  0
 13 12  1  0  0  0  0
 13 15  1  0  0  0  0
 14 18  1  1  0  0  0
 17 16  2  0  0  0  0
 17 14  1  0  0  0  0
 19 15  1  0  0  0  0
 19 14  1  0  0  0  0
 20 21  2  0  0  0  0
 21  3  1  0  0  0  0
 22 23  1  0  0  0  0
 22 20  2  0  0  0  0
 23 24  1  0  0  0  0
 25 23  1  0  0  0  0
 26 25  1  0  0  0  0
 27 28  1  0  0  0  0
 28 26  3  0  0  0  0
M  END
>  <MODEL>
3

>  <REMARK>
 VINA RESULT:      -9.0      1.532      2.030
  Name = 
  5 active torsions:
  status: ('A' for Active; 'I' for Inactive)
    1  A    between atoms: C_1  and  C_2
    2  A    between atoms: C_9  and  C_15
    3  A    between atoms: C_10  and  C_13
    4  A    between atoms: N_12  and  C_15
    5  A    between atoms: N_12  and  C_24
                            x       y       z     vdW  Elec       q    Type
                         _______ _______ _______ _____ _____    ______ ____

>  <TORSDO>
F 5

$$$$
=
 OpenBabel10262420433D

 28 30  0  0  1  0  0  0  0  0999 V2000
  189.1950  177.3620  144.9050 C   0  0  0  0  0  0  0  0  0  0  0  0
  188.0800  177.9190  149.5880 F   0  0  0  0  0  0  0  0  0  0  0  0
  186.0380  178.4090  146.5940 C   0  0  0  0  0  0  0  0  0  0  0  0
  188.6530  177.6330  147.2750 C   0  0  0  0  0  0  0  0  0  0  0  0
  186.9570  178.0760  145.5900 C   0  0  0  0  0  3  0  0  0  0  0  0
  190.8720  176.9260  146.6120 C   0  0  0  0  0  3  0  0  0  0  0  0
  187.7280  177.9630  148.2790 C   0  0  0  0  0  0  0  0  0  0  0  0
  189.9550  177.2510  147.6110 C   0  0  0  0  0  3  0  0  0  0  0  0
  186.4310  178.3500  147.9340 C   0  0  0  0  0  3  0  0  0  0  0  0
  190.4960  176.9810  145.2690 C   0  0  0  0  0  3  0  0  0  0  0  0
  188.2640  177.6890  145.9120 C   0  0  0  0  0  0  0  0  0  0  0  0
  188.8050  177.4110  143.4490 C   0  0  2  0  0  3  0  0  0  0  0  0
  188.7280  176.0050  142.8390 C   0  0  0  0  0  2  0  0  0  0  0  0
  190.6870  177.7380  141.6480 C   0  0  1  0  0  3  0  0  0  0  0  0
  190.0030  175.5640  142.4510 O   0  0  0  0  0  0  0  0  0  0  0  0
  189.6700  179.5180  142.8180 O   0  0  0  0  0  0  0  0  0  0  0  0
  189.7160  178.3110  142.6490 C   0  0  0  0  0  0  0  0  0  0  0  0
  192.1010  177.7980  142.1980 C   0  0  0  0  0  1  0  0  0  0  0  0
  190.3190  176.2940  141.2940 C   0  0  0  0  0  2  0  0  0  0  0  0
  184.1430  178.7270  145.0810 C   0  0  0  0  0  0  0  0  0  0  0  0
  184.6660  178.8280  146.2770 C   0  0  0  0  0  3  0  0  0  0  0  0
  183.6020  178.6340  143.8940 C   0  0  0  0  0  3  0  0  0  0  0  0
  184.3730  178.6770  142.6850 N   0  0  0  0  0  0  0  0  0  0  0  0
  183.8910  177.9340  141.5360 C   0  0  0  0  0  1  0  0  0  0  0  0
  185.6610  179.3520  142.5780 C   0  0  0  0  0  2  0  0  0  0  0  0
  186.3510  178.9490  141.3490 C   0  0  0  0  0  0  0  0  0  0  0  0
  187.6040  178.2540  139.2130 O   0  0  0  0  0  1  0  0  0  0  0  0
  186.9360  178.6210  140.3460 C   0  0  0  0  0  0  0  0  0  0  0  0
  1 10  2  0  0  0  0
  1 11  1  0  0  0  0
  3  9  1  0  0  0  0
  4  8  1  0  0  0  0
  4  7  1  0  0  0  0
  5 11  1  0  0  0  0
  5  3  2  0  0  0  0
  6  8  2  0  0  0  0
  7  2  1  0  0  0  0
  9  7  2  0  0  0  0
 10  6  1  0  0  0  0
 11  4  2  0  0  0  0
 12  1  1  1  0  0  0
 13 12  1  0  0  0  0
 14 18  1  1  0  0  0
 14 17  1  0  0  0  0
 15 13  1  0  0  0  0
 17 16  2  0  0  0  0
 17 12  1  0  0  0  0
 19 14  1  0  0  0  0
 19 15  1  0  0  0  0
 20 21  2  0  0  0  0
 21  3  1  0  0  0  0
 22 20  2  0  0  0  0
 23 22  1  0  0  0  0
 24 23  1  0  0  0  0
 25 23  1  0  0  0  0
 26 25  1  0  0  0  0
 27 28  1  0  0  0  0
 28 26  3  0  0  0  0
M  END
>  <MODEL>
4

>  <REMARK>
 VINA RESULT:      -8.8      2.347      4.135
  Name = 
  5 active torsions:
  status: ('A' for Active; 'I' for Inactive)
    1  A    between atoms: C_1  and  C_2
    2  A    between atoms: C_9  and  C_15
    3  A    between atoms: C_10  and  C_13
    4  A    between atoms: N_12  and  C_15
    5  A    between atoms: N_12  and  C_24
                            x       y       z     vdW  Elec       q    Type
                         _______ _______ _______ _____ _____    ______ ____

>  <TORSDO>
F 5

$$$$
=
 OpenBabel10262420433D

 28 30  0  0  1  0  0  0  0  0999 V2000
  187.9870  177.8150  144.2250 C   0  0  0  0  0  0  0  0  0  0  0  0
  183.3110  178.5860  145.2410 F   0  0  0  0  0  0  0  0  0  0  0  0
  185.0870  178.6830  142.0450 C   0  0  0  0  0  0  0  0  0  0  0  0
  185.6300  178.1960  144.7590 C   0  0  0  0  0  0  0  0  0  0  0  0
  186.3890  178.3670  142.4560 C   0  0  0  0  0  3  0  0  0  0  0  0
  187.2000  177.6500  146.5200 C   0  0  0  0  0  3  0  0  0  0  0  0
  184.3250  178.5080  144.3430 C   0  0  0  0  0  0  0  0  0  0  0  0
  185.9040  177.9570  146.1090 C   0  0  0  0  0  3  0  0  0  0  0  0
  184.0630  178.7520  142.9930 C   0  0  0  0  0  3  0  0  0  0  0  0
  188.2350  177.5790  145.5850 C   0  0  0  0  0  3  0  0  0  0  0  0
  186.6760  178.1230  143.8050 C   0  0  0  0  0  0  0  0  0  0  0  0
  189.1150  177.7290  143.2280 C   0  0  2  0  0  3  0  0  0  0  0  0
  189.1940  176.3390  142.5850 C   0  0  0  0  0  2  0  0  0  0  0  0
  191.5160  177.1130  144.0920 C   0  0  1  0  0  3  0  0  0  0  0  0
  189.8990  175.4500  143.4140 O   0  0  0  0  0  0  0  0  0  0  0  0
  190.6340  179.3020  144.1270 O   0  0  0  0  0  0  0  0  0  0  0  0
  190.4380  178.1330  143.8350 C   0  0  0  0  0  0  0  0  0  0  0  0
  191.6090  176.8110  145.5770 C   0  0  0  0  0  1  0  0  0  0  0  0
  191.2480  175.8250  143.3080 C   0  0  0  0  0  2  0  0  0  0  0  0
  183.5420  178.9550  140.1680 C   0  0  0  0  0  0  0  0  0  0  0  0
  184.7650  178.9530  140.6360 C   0  0  0  0  0  3  0  0  0  0  0  0
  182.3290  178.9610  139.6810 C   0  0  0  0  0  3  0  0  0  0  0  0
  181.2630  178.1810  140.2410 N   0  0  0  0  0  0  0  0  0  0  0  0
  180.7400  178.5640  141.5390 C   0  0  0  0  0  1  0  0  0  0  0  0
  180.7410  176.9710  139.6170 C   0  0  0  0  0  2  0  0  0  0  0  0
  181.8360  176.1660  139.0660 C   0  0  0  0  0  0  0  0  0  0  0  0
  183.7720  174.7450  138.1440 O   0  0  0  0  0  1  0  0  0  0  0  0
  182.7420  175.4990  138.6300 C   0  0  0  0  0  0  0  0  0  0  0  0
  1 10  1  0  0  0  0
  3  5  2  0  0  0  0
  3  9  1  0  0  0  0
  4  8  2  0  0  0  0
  5 11  1  0  0  0  0
  7  4  1  0  0  0  0
  7  2  1  0  0  0  0
  8  6  1  0  0  0  0
  9  7  2  0  0  0  0
 10  6  2  0  0  0  0
 11  1  2  0  0  0  0
 11  4  1  0  0  0  0
 12 17  1  0  0  0  0
 12  1  1  1  0  0  0
 13 12  1  0  0  0  0
 13 15  1  0  0  0  0
 14 18  1  1  0  0  0
 17 14  1  0  0  0  0
 17 16  2  0  0  0  0
 19 15  1  0  0  0  0
 19 14  1  0  0  0  0
 20 21  2  0  0  0  0
 21  3  1  0  0  0  0
 22 20  2  0  0  0  0
 22 23  1  0  0  0  0
 23 24  1  0  0  0  0
 25 23  1  0  0  0  0
 26 25  1  0  0  0  0
 27 28  1  0  0  0  0
 28 26  3  0  0  0  0
M  END
>  <MODEL>
5

>  <REMARK>
 VINA RESULT:      -8.7      2.592      3.819
  Name = 
  5 active torsions:
  status: ('A' for Active; 'I' for Inactive)
    1  A    between atoms: C_1  and  C_2
    2  A    between atoms: C_9  and  C_15
    3  A    between atoms: C_10  and  C_13
    4  A    between atoms: N_12  and  C_15
    5  A    between atoms: N_12  and  C_24
                            x       y       z     vdW  Elec       q    Type
                         _______ _______ _______ _____ _____    ______ ____

>  <TORSDO>
F 5

$$$$
=
 OpenBabel10262420433D

 28 30  0  0  1  0  0  0  0  0999 V2000
  188.1300  177.8410  143.9980 C   0  0  0  0  0  0  0  0  0  0  0  0
  183.3730  178.5550  144.5880 F   0  0  0  0  0  0  0  0  0  0  0  0
  185.4340  178.7050  141.5700 C   0  0  0  0  0  0  0  0  0  0  0  0
  185.7300  178.1930  144.3170 C   0  0  0  0  0  0  0  0  0  0  0  0
  186.6950  178.3980  142.0960 C   0  0  0  0  0  3  0  0  0  0  0  0
  187.1380  177.6430  146.2100 C   0  0  0  0  0  3  0  0  0  0  0  0
  184.4660  178.4980  143.7870 C   0  0  0  0  0  0  0  0  0  0  0  0
  185.8810  177.9420  145.6850 C   0  0  0  0  0  3  0  0  0  0  0  0
  184.3260  178.7530  142.4210 C   0  0  0  0  0  3  0  0  0  0  0  0
  188.2540  177.5930  145.3740 C   0  0  0  0  0  3  0  0  0  0  0  0
  186.8600  178.1410  143.4630 C   0  0  0  0  0  0  0  0  0  0  0  0
  189.3460  177.7770  143.1090 C   0  0  2  0  0  3  0  0  0  0  0  0
  189.4990  176.3950  142.4620 C   0  0  0  0  0  2  0  0  0  0  0  0
  191.6640  177.1740  144.1830 C   0  0  1  0  0  3  0  0  0  0  0  0
  190.1340  175.5040  143.3430 O   0  0  0  0  0  0  0  0  0  0  0  0
  190.7590  179.3540  144.1600 O   0  0  0  0  0  0  0  0  0  0  0  0
  190.6030  178.1870  143.8390 C   0  0  0  0  0  0  0  0  0  0  0  0
  191.6240  176.8570  145.6670 C   0  0  0  0  0  1  0  0  0  0  0  0
  191.4830  175.8920  143.3650 C   0  0  0  0  0  2  0  0  0  0  0  0
  184.0960  179.3750  139.6360 C   0  0  0  0  0  0  0  0  0  0  0  0
  185.2400  178.9880  140.1410 C   0  0  0  0  0  3  0  0  0  0  0  0
  182.9620  179.7620  139.1120 C   0  0  0  0  0  3  0  0  0  0  0  0
  181.6880  179.4200  139.6760 N   0  0  0  0  0  0  0  0  0  0  0  0
  181.5470  178.1290  140.3220 C   0  0  0  0  0  1  0  0  0  0  0  0
  180.5050  180.2630  139.5550 C   0  0  0  0  0  2  0  0  0  0  0  0
  180.7910  181.4300  138.7150 C   0  0  0  0  0  0  0  0  0  0  0  0
  181.3320  183.4860  137.2670 O   0  0  0  0  0  1  0  0  0  0  0  0
  181.0420  182.3940  138.0330 C   0  0  0  0  0  0  0  0  0  0  0  0
  1 10  1  0  0  0  0
  3  5  2  0  0  0  0
  3  9  1  0  0  0  0
  4  8  2  0  0  0  0
  5 11  1  0  0  0  0
  7  4  1  0  0  0  0
  7  2  1  0  0  0  0
  8  6  1  0  0  0  0
  9  7  2  0  0  0  0
 10  6  2  0  0  0  0
 11  1  2  0  0  0  0
 11  4  1  0  0  0  0
 12 17  1  0  0  0  0
 12  1  1  1  0  0  0
 13 12  1  0  0  0  0
 13 15  1  0  0  0  0
 14 18  1  1  0  0  0
 15 19  1  0  0  0  0
 17 16  2  0  0  0  0
 17 14  1  0  0  0  0
 19 14  1  0  0  0  0
 20 21  2  0  0  0  0
 21  3  1  0  0  0  0
 22 20  2  0  0  0  0
 22 23  1  0  0  0  0
 23 24  1  0  0  0  0
 25 23  1  0  0  0  0
 26 25  1  0  0  0  0
 27 28  1  0  0  0  0
 28 26  3  0  0  0  0
M  END
>  <MODEL>
6

>  <REMARK>
 VINA RESULT:      -8.7      3.175      4.473
  Name = 
  5 active torsions:
  status: ('A' for Active; 'I' for Inactive)
    1  A    between atoms: C_1  and  C_2
    2  A    between atoms: C_9  and  C_15
    3  A    between atoms: C_10  and  C_13
    4  A    between atoms: N_12  and  C_15
    5  A    between atoms: N_12  and  C_24
                            x       y       z     vdW  Elec       q    Type
                         _______ _______ _______ _____ _____    ______ ____

>  <TORSDO>
F 5

$$$$
=
 OpenBabel10262420433D

 28 30  0  0  1  0  0  0  0  0999 V2000
  184.0470  178.3910  142.1760 C   0  0  0  0  0  0  0  0  0  0  0  0
  186.4610  178.4970  146.3770 F   0  0  0  0  0  0  0  0  0  0  0  0
  187.4830  177.2610  143.0900 C   0  0  0  0  0  0  0  0  0  0  0  0
  185.2490  178.4580  144.3050 C   0  0  0  0  0  0  0  0  0  0  0  0
  186.3330  177.5320  142.3370 C   0  0  0  0  0  3  0  0  0  0  0  0
  182.9870  179.3130  144.1620 C   0  0  0  0  0  3  0  0  0  0  0  0
  186.4050  178.1900  145.0570 C   0  0  0  0  0  0  0  0  0  0  0  0
  184.1350  179.0500  144.9090 C   0  0  0  0  0  3  0  0  0  0  0  0
  187.5110  177.5930  144.4470 C   0  0  0  0  0  3  0  0  0  0  0  0
  182.9430  178.9860  142.8050 C   0  0  0  0  0  3  0  0  0  0  0  0
  185.2100  178.1260  142.9280 C   0  0  0  0  0  0  0  0  0  0  0  0
  183.9830  178.0500  140.7090 C   0  0  2  0  0  3  0  0  0  0  0  0
  184.8260  179.0180  139.8680 C   0  0  0  0  0  2  0  0  0  0  0  0
  182.0140  179.0230  139.2710 C   0  0  1  0  0  3  0  0  0  0  0  0
  184.1040  180.1920  139.5950 O   0  0  0  0  0  0  0  0  0  0  0  0
  181.8430  177.0570  140.5670 O   0  0  0  0  0  0  0  0  0  0  0  0
  182.5610  177.9750  140.2060 C   0  0  0  0  0  0  0  0  0  0  0  0
  181.0680  179.9480  140.0170 C   0  0  0  0  0  1  0  0  0  0  0  0
  183.1470  179.8320  138.6330 C   0  0  0  0  0  2  0  0  0  0  0  0
  189.8000  176.4820  143.1310 C   0  0  0  0  0  0  0  0  0  0  0  0
  188.6670  176.6280  142.4930 C   0  0  0  0  0  3  0  0  0  0  0  0
  190.9410  176.3270  143.7520 C   0  0  0  0  0  3  0  0  0  0  0  0
  191.3830  177.2060  144.7960 N   0  0  0  0  0  0  0  0  0  0  0  0
  191.6870  178.5820  144.4530 C   0  0  0  0  0  1  0  0  0  0  0  0
  191.6300  176.7650  146.1640 C   0  0  0  0  0  2  0  0  0  0  0  0
  190.4400  176.9790  146.9940 C   0  0  0  0  0  0  0  0  0  0  0  0
  188.3300  177.3710  148.4110 O   0  0  0  0  0  1  0  0  0  0  0  0
  189.4510  177.1610  147.6610 C   0  0  0  0  0  0  0  0  0  0  0  0
  1 10  2  0  0  0  0
  1 11  1  0  0  0  0
  3  9  1  0  0  0  0
  4  8  1  0  0  0  0
  4  7  1  0  0  0  0
  5 11  1  0  0  0  0
  5  3  2  0  0  0  0
  6  8  2  0  0  0  0
  7  2  1  0  0  0  0
  9  7  2  0  0  0  0
 10  6  1  0  0  0  0
 11  4  2  0  0  0  0
 12  1  1  1  0  0  0
 13 12  1  0  0  0  0
 14 18  1  1  0  0  0
 14 17  1  0  0  0  0
 15 13  1  0  0  0  0
 17 16  2  0  0  0  0
 17 12  1  0  0  0  0
 19 14  1  0  0  0  0
 19 15  1  0  0  0  0
 20 22  2  0  0  0  0
 21  3  1  0  0  0  0
 21 20  2  0  0  0  0
 22 23  1  0  0  0  0
 23 25  1  0  0  0  0
 24 23  1  0  0  0  0
 25 26  1  0  0  0  0
 26 28  3  0  0  0  0
 28 27  1  0  0  0  0
M  END
>  <MODEL>
7

>  <REMARK>
 VINA RESULT:      -8.6      3.249      6.881
  Name = 
  5 active torsions:
  status: ('A' for Active; 'I' for Inactive)
    1  A    between atoms: C_1  and  C_2
    2  A    between atoms: C_9  and  C_15
    3  A    between atoms: C_10  and  C_13
    4  A    between atoms: N_12  and  C_15
    5  A    between atoms: N_12  and  C_24
                            x       y       z     vdW  Elec       q    Type
                         _______ _______ _______ _____ _____    ______ ____

>  <TORSDO>
F 5

$$$$
=
 OpenBabel10262420433D

 28 30  0  0  1  0  0  0  0  0999 V2000
  188.2640  177.8100  142.4920 C   0  0  0  0  0  0  0  0  0  0  0  0
  183.7850  179.2230  141.2970 F   0  0  0  0  0  0  0  0  0  0  0  0
  185.2380  178.4750  144.5690 C   0  0  0  0  0  0  0  0  0  0  0  0
  186.0110  178.5280  141.8670 C   0  0  0  0  0  0  0  0  0  0  0  0
  186.5490  178.1380  144.2060 C   0  0  0  0  0  3  0  0  0  0  0  0
  187.6990  178.2080  140.1600 C   0  0  0  0  0  3  0  0  0  0  0  0
  184.6990  178.8690  142.2350 C   0  0  0  0  0  0  0  0  0  0  0  0
  186.3970  178.5490  140.5230 C   0  0  0  0  0  3  0  0  0  0  0  0
  184.3210  178.8380  143.5790 C   0  0  0  0  0  3  0  0  0  0  0  0
  188.6260  177.8410  141.1370 C   0  0  0  0  0  3  0  0  0  0  0  0
  186.9490  178.1580  142.8630 C   0  0  0  0  0  0  0  0  0  0  0  0
  189.2810  177.4160  143.5340 C   0  0  2  0  0  3  0  0  0  0  0  0
  189.8490  178.6430  144.2590 C   0  0  0  0  0  2  0  0  0  0  0  0
  191.7810  177.0950  142.8000 C   0  0  1  0  0  3  0  0  0  0  0  0
  190.8860  179.2240  143.5110 O   0  0  0  0  0  0  0  0  0  0  0  0
  190.1330  175.4170  142.6040 O   0  0  0  0  0  0  0  0  0  0  0  0
  190.3810  176.5590  142.9560 C   0  0  0  0  0  0  0  0  0  0  0  0
  192.0670  177.3960  141.3390 C   0  0  0  0  0  1  0  0  0  0  0  0
  191.9810  178.3560  143.6470 C   0  0  0  0  0  2  0  0  0  0  0  0
  185.6200  178.4710  146.9840 C   0  0  0  0  0  0  0  0  0  0  0  0
  184.7930  178.4500  145.9700 C   0  0  0  0  0  3  0  0  0  0  0  0
  186.4290  178.4910  148.0120 C   0  0  0  0  0  3  0  0  0  0  0  0
  187.7650  177.9730  147.9580 N   0  0  0  0  0  0  0  0  0  0  0  0
  188.7780  178.5970  148.7880 C   0  0  0  0  0  1  0  0  0  0  0  0
  188.1780  176.9130  147.0450 C   0  0  0  0  0  2  0  0  0  0  0  0
  189.6300  176.7180  147.1100 C   0  0  0  0  0  0  0  0  0  0  0  0
  192.1830  176.4190  147.2050 O   0  0  0  0  0  1  0  0  0  0  0  0
  190.8270  176.5750  147.1570 C   0  0  0  0  0  0  0  0  0  0  0  0
  1 11  1  0  0  0  0
  2  7  1  0  0  0  0
  3 21  1  0  0  0  0
  4  7  2  0  0  0  0
  4 11  1  0  0  0  0
  5  3  1  0  0  0  0
  6  8  2  0  0  0  0
  6 10  1  0  0  0  0
  7  9  1  0  0  0  0
  8  4  1  0  0  0  0
  9  3  2  0  0  0  0
 10  1  2  0  0  0  0
 11  5  2  0  0  0  0
 12  1  1  6  0  0  0
 12 13  1  0  0  0  0
 14 18  1  6  0  0  0
 14 17  1  0  0  0  0
 14 19  1  0  0  0  0
 15 19  1  0  0  0  0
 15 13  1  0  0  0  0
 16 17  2  0  0  0  0
 17 12  1  0  0  0  0
 20 22  2  0  0  0  0
 21 20  2  0  0  0  0
 23 22  1  0  0  0  0
 23 24  1  0  0  0  0
 25 26  1  0  0  0  0
 25 23  1  0  0  0  0
 26 28  3  0  0  0  0
 28 27  1  0  0  0  0
M  END
>  <MODEL>
8

>  <REMARK>
 VINA RESULT:      -8.6      2.492      5.490
  Name = 
  5 active torsions:
  status: ('A' for Active; 'I' for Inactive)
    1  A    between atoms: C_1  and  C_2
    2  A    between atoms: C_9  and  C_15
    3  A    between atoms: C_10  and  C_13
    4  A    between atoms: N_12  and  C_15
    5  A    between atoms: N_12  and  C_24
                            x       y       z     vdW  Elec       q    Type
                         _______ _______ _______ _____ _____    ______ ____

>  <TORSDO>
F 5

$$$$
=
 OpenBabel10262420433D

 28 30  0  0  1  0  0  0  0  0999 V2000
  189.1290  177.2550  144.8540 C   0  0  0  0  0  0  0  0  0  0  0  0
  187.9300  178.2400  149.4450 F   0  0  0  0  0  0  0  0  0  0  0  0
  185.9790  178.5580  146.3680 C   0  0  0  0  0  0  0  0  0  0  0  0
  188.5430  177.7420  147.1790 C   0  0  0  0  0  0  0  0  0  0  0  0
  186.9060  178.1080  145.4190 C   0  0  0  0  0  3  0  0  0  0  0  0
  190.7480  176.8980  146.6340 C   0  0  0  0  0  3  0  0  0  0  0  0
  187.6100  178.1890  148.1280 C   0  0  0  0  0  0  0  0  0  0  0  0
  189.8210  177.3390  147.5790 C   0  0  0  0  0  3  0  0  0  0  0  0
  186.3380  178.5960  147.7180 C   0  0  0  0  0  3  0  0  0  0  0  0
  190.4050  176.8560  145.2820 C   0  0  0  0  0  3  0  0  0  0  0  0
  188.1890  177.6990  145.8070 C   0  0  0  0  0  0  0  0  0  0  0  0
  188.7750  177.1980  143.3900 C   0  0  2  0  0  3  0  0  0  0  0  0
  188.8620  175.7670  142.8440 C   0  0  0  0  0  2  0  0  0  0  0  0
  190.6590  177.6440  141.6170 C   0  0  1  0  0  3  0  0  0  0  0  0
  190.1870  175.4470  142.5040 O   0  0  0  0  0  0  0  0  0  0  0  0
  189.4290  179.3560  142.6800 O   0  0  0  0  0  0  0  0  0  0  0  0
  189.6070  178.1540  142.5680 C   0  0  0  0  0  0  0  0  0  0  0  0
  192.0440  177.8780  142.1940 C   0  0  0  0  0  1  0  0  0  0  0  0
  190.4540  176.1550  141.3220 C   0  0  0  0  0  2  0  0  0  0  0  0
  184.1290  178.8110  144.7890 C   0  0  0  0  0  0  0  0  0  0  0  0
  184.6320  179.0020  145.9830 C   0  0  0  0  0  3  0  0  0  0  0  0
  183.6080  178.6310  143.6040 C   0  0  0  0  0  3  0  0  0  0  0  0
  184.4030  178.5300  142.4130 N   0  0  0  0  0  0  0  0  0  0  0  0
  185.6950  179.1880  142.3920 C   0  0  0  0  0  1  0  0  0  0  0  0
  183.9400  177.8780  141.1940 C   0  0  0  0  0  2  0  0  0  0  0  0
  182.5650  178.2840  140.8850 C   0  0  0  0  0  0  0  0  0  0  0  0
  180.1410  178.9500  140.3420 O   0  0  0  0  0  1  0  0  0  0  0  0
  181.4290  178.6000  140.6320 C   0  0  0  0  0  0  0  0  0  0  0  0
  1 10  2  0  0  0  0
  1 11  1  0  0  0  0
  3  9  1  0  0  0  0
  4  8  1  0  0  0  0
  4  7  1  0  0  0  0
  5 11  1  0  0  0  0
  5  3  2  0  0  0  0
  6  8  2  0  0  0  0
  7  2  1  0  0  0  0
  9  7  2  0  0  0  0
 10  6  1  0  0  0  0
 11  4  2  0  0  0  0
 12  1  1  1  0  0  0
 13 12  1  0  0  0  0
 14 18  1  1  0  0  0
 14 17  1  0  0  0  0
 15 13  1  0  0  0  0
 17 16  2  0  0  0  0
 17 12  1  0  0  0  0
 19 14  1  0  0  0  0
 19 15  1  0  0  0  0
 20 21  2  0  0  0  0
 21  3  1  0  0  0  0
 22 20  2  0  0  0  0
 23 22  1  0  0  0  0
 24 23  1  0  0  0  0
 25 23  1  0  0  0  0
 26 25  1  0  0  0  0
 27 28  1  0  0  0  0
 28 26  3  0  0  0  0
M  END
>  <MODEL>
9

>  <REMARK>
 VINA RESULT:      -8.4      2.984      4.991
  Name = 
  5 active torsions:
  status: ('A' for Active; 'I' for Inactive)
    1  A    between atoms: C_1  and  C_2
    2  A    between atoms: C_9  and  C_15
    3  A    between atoms: C_10  and  C_13
    4  A    between atoms: N_12  and  C_15
    5  A    between atoms: N_12  and  C_24
                            x       y       z     vdW  Elec       q    Type
                         _______ _______ _______ _____ _____    ______ ____

>  <TORSDO>
F 5

$$$$
