=
 OpenBabel10262419163D

 34 37  0  0  1  0  0  0  0  0999 V2000
  191.1260  177.3800  144.1400 C   0  0  1  0  0  0  0  0  0  0  0  0
  188.8710  177.9180  145.1960 C   0  0  0  0  0  1  0  0  0  0  0  0
  189.0630  177.8660  142.6600 C   0  0  1  0  0  3  0  0  0  0  0  0
  189.5820  177.2860  144.0000 C   0  0  1  0  0  3  0  0  0  0  0  0
  189.8100  177.2590  141.4670 C   0  0  2  0  0  3  0  0  0  0  0  0
  191.8010  176.7950  142.8950 C   0  0  0  0  0  2  0  0  0  0  0  0
  191.5590  178.8380  144.3010 C   0  0  0  0  0  1  0  0  0  0  0  0
  191.3110  177.4690  141.6210 C   0  0  0  0  0  2  0  0  0  0  0  0
  186.9440  178.9020  141.7260 C   0  0  0  0  0  2  0  0  0  0  0  0
  186.8060  177.1880  143.7030 C   0  0  0  0  0  2  0  0  0  0  0  0
  185.9310  178.2310  144.3870 C   0  0  0  0  0  2  0  0  0  0  0  0
  184.5950  179.2150  142.5000 C   0  0  0  0  0  2  0  0  0  0  0  0
  185.4790  178.6840  141.3810 C   0  0  0  0  0  2  0  0  0  0  0  0
  184.5670  178.2830  143.7060 C   0  0  2  0  0  3  0  0  0  0  0  0
  187.5490  177.7000  142.4550 C   0  0  2  0  0  3  0  0  0  0  0  0
  183.5040  178.7860  144.6710 C   0  0  0  0  0  2  0  0  0  0  0  0
  182.3100  179.3600  143.9280 C   0  0  0  0  0  2  0  0  0  0  0  0
  181.1910  178.3290  143.8600 C   0  0  2  0  0  3  0  0  0  0  0  0
  179.4490  177.5120  142.3270 O   0  0  0  0  0  1  0  0  0  0  0  0
  180.1850  178.6150  142.7570 C   0  0  1  0  0  0  0  0  0  0  0  0
  179.8630  179.0100  144.1780 C   0  0  0  0  0  2  0  0  0  0  0  0
  179.6910  180.9000  142.2570 O   0  0  0  0  0  1  0  0  0  0  0  0
  180.3660  179.7740  141.7840 C   0  0  0  0  0  2  0  0  0  0  0  0
  191.6130  176.5830  145.3240 C   0  0  0  0  0  0  0  0  0  0  0  0
  191.9770  175.3840  145.1890 O   0  0  0  0  0  0  0  0  0  0  0  0
  191.7530  177.1920  146.5670 O   0  0  0  0  0  1  0  0  0  0  0  0
  189.3630  177.8710  140.2590 O   0  0  0  0  0  0  0  0  0  0  0  0
  187.6280  176.7160  137.2200 C   0  0  0  0  0  0  0  0  0  0  0  0
  188.5150  175.8020  136.7400 N   0  0  0  0  0  0  0  0  0  0  0  0
  189.0980  177.1600  139.0810 C   0  0  0  0  0  0  0  0  0  0  0  0
  189.6830  175.5390  137.3850 C   0  0  0  0  0  3  0  0  0  0  0  0
  187.9060  177.4090  138.4010 C   0  0  0  0  0  3  0  0  0  0  0  0
  189.9970  176.2120  138.5690 C   0  0  0  0  0  3  0  0  0  0  0  0
  186.4720  176.9530  136.5530 F   0  0  0  0  0  0  0  0  0  0  0  0
  1  7  1  1  0  0  0
  1 24  1  0  0  0  0
  3 15  1  6  0  0  0
  3  4  1  0  0  0  0
  4  1  1  0  0  0  0
  4  2  1  1  0  0  0
  5 27  1  6  0  0  0
  5  8  1  0  0  0  0
  5  3  1  0  0  0  0
  6  1  1  0  0  0  0
  8  6  1  0  0  0  0
 10 11  1  0  0  0  0
 12 14  1  0  0  0  0
 13  9  1  0  0  0  0
 13 12  1  0  0  0  0
 14 11  1  0  0  0  0
 14 16  1  1  0  0  0
 15  9  1  1  0  0  0
 15 10  1  0  0  0  0
 17 16  1  0  0  0  0
 18 17  1  6  0  0  0
 18 21  1  0  0  0  0
 20 19  1  6  0  0  0
 20 18  1  0  0  0  0
 20 21  1  0  0  0  0
 23 22  1  0  0  0  0
 23 20  1  0  0  0  0
 24 26  1  0  0  0  0
 25 24  2  0  0  0  0
 28 32  1  0  0  0  0
 29 28  2  0  0  0  0
 29 31  1  0  0  0  0
 30 27  1  0  0  0  0
 31 33  2  0  0  0  0
 32 30  2  0  0  0  0
 33 30  1  0  0  0  0
 34 28  1  0  0  0  0
M  END
>  <MODEL>
1

>  <REMARK>
 VINA RESULT:      -9.4      0.000      0.000
  Name = 
  8 active torsions:
  status: ('A' for Active; 'I' for Inactive)
    1  A    between atoms: C_1  and  C_6
    2  A    between atoms: C_3  and  C_29
    3  A    between atoms: C_3  and  C_33
    4  A    between atoms: C_4  and  C_31
    5  A    between atoms: C_12  and  O_28
    6  A    between atoms: C_13  and  C_33
    7  A    between atoms: C_20  and  C_22
    8  A    between atoms: C_21  and  O_28
                            x       y       z     vdW  Elec       q    Type
                         _______ _______ _______ _____ _____    ______ ____

>  <TORSDO>
F 8

$$$$
=
 OpenBabel10262419163D

 34 37  0  0  1  0  0  0  0  0999 V2000
  190.8280  177.1370  145.1440 C   0  0  1  0  0  0  0  0  0  0  0  0
  188.5900  178.2640  145.6070 C   0  0  0  0  0  1  0  0  0  0  0  0
  189.1020  177.4640  143.2480 C   0  0  1  0  0  3  0  0  0  0  0  0
  189.3240  177.2240  144.7620 C   0  0  1  0  0  3  0  0  0  0  0  0
  189.8750  176.4440  142.4050 C   0  0  2  0  0  3  0  0  0  0  0  0
  191.5420  176.1330  144.2340 C   0  0  0  0  0  2  0  0  0  0  0  0
  191.4950  178.5050  144.9950 C   0  0  0  0  0  1  0  0  0  0  0  0
  191.3560  176.4770  142.7620 C   0  0  0  0  0  2  0  0  0  0  0  0
  187.2450  178.7420  142.0820 C   0  0  0  0  0  2  0  0  0  0  0  0
  186.6650  176.9820  143.9350 C   0  0  0  0  0  2  0  0  0  0  0  0
  185.8050  178.0840  144.5420 C   0  0  0  0  0  2  0  0  0  0  0  0
  184.8510  179.2630  142.5390 C   0  0  0  0  0  2  0  0  0  0  0  0
  185.8300  178.6850  141.5290 C   0  0  0  0  0  2  0  0  0  0  0  0
  184.5630  178.2980  143.6830 C   0  0  2  0  0  3  0  0  0  0  0  0
  187.6230  177.4590  142.8280 C   0  0  2  0  0  3  0  0  0  0  0  0
  183.4270  178.8710  144.5170 C   0  0  0  0  0  2  0  0  0  0  0  0
  182.3220  179.4280  143.6350 C   0  0  0  0  0  2  0  0  0  0  0  0
  181.0630  178.5830  143.7780 C   0  0  2  0  0  3  0  0  0  0  0  0
  179.4520  177.3240  142.4090 O   0  0  0  0  0  1  0  0  0  0  0  0
  180.2970  178.4300  142.4730 C   0  0  1  0  0  0  0  0  0  0  0  0
  179.8420  179.4520  143.4870 C   0  0  0  0  0  2  0  0  0  0  0  0
  181.6190  178.0590  140.5160 O   0  0  0  0  0  1  0  0  0  0  0  0
  180.8210  179.0030  141.1620 C   0  0  0  0  0  2  0  0  0  0  0  0
  191.0000  176.6520  146.5620 C   0  0  0  0  0  0  0  0  0  0  0  0
  192.1340  176.6590  147.1110 O   0  0  0  0  0  0  0  0  0  0  0  0
  189.8910  176.2760  147.3130 O   0  0  0  0  0  1  0  0  0  0  0  0
  189.7110  176.7410  141.0200 O   0  0  0  0  0  0  0  0  0  0  0  0
  191.6150  176.0010  137.9530 C   0  0  0  0  0  0  0  0  0  0  0  0
  192.7850  176.6470  138.2060 N   0  0  0  0  0  0  0  0  0  0  0  0
  190.7600  176.7190  140.0920 C   0  0  0  0  0  0  0  0  0  0  0  0
  192.9850  177.3290  139.3650 C   0  0  0  0  0  3  0  0  0  0  0  0
  190.5830  176.0260  138.8950 C   0  0  0  0  0  3  0  0  0  0  0  0
  191.9760  177.3780  140.3320 C   0  0  0  0  0  3  0  0  0  0  0  0
  191.4490  175.3280  136.7880 F   0  0  0  0  0  0  0  0  0  0  0  0
  1  7  1  6  0  0  0
  1 24  1  0  0  0  0
  3 15  1  1  0  0  0
  3  4  1  0  0  0  0
  4  1  1  0  0  0  0
  4  2  1  1  0  0  0
  5 27  1  6  0  0  0
  5  8  1  0  0  0  0
  5  3  1  0  0  0  0
  6  1  1  0  0  0  0
  8  6  1  0  0  0  0
 10 11  1  0  0  0  0
 12 14  1  0  0  0  0
 13  9  1  0  0  0  0
 13 12  1  0  0  0  0
 14 16  1  1  0  0  0
 14 11  1  0  0  0  0
 15  9  1  1  0  0  0
 15 10  1  0  0  0  0
 17 16  1  0  0  0  0
 18 17  1  6  0  0  0
 20 19  1  6  0  0  0
 20 21  1  0  0  0  0
 20 18  1  0  0  0  0
 21 18  1  0  0  0  0
 22 23  1  0  0  0  0
 23 20  1  0  0  0  0
 24 25  2  0  0  0  0
 24 26  1  0  0  0  0
 28 29  2  0  0  0  0
 28 32  1  0  0  0  0
 29 31  1  0  0  0  0
 30 33  1  0  0  0  0
 30 27  1  0  0  0  0
 31 33  2  0  0  0  0
 32 30  2  0  0  0  0
 34 28  1  0  0  0  0
M  END
>  <MODEL>
2

>  <REMARK>
 VINA RESULT:      -8.3      1.794      2.077
  Name = 
  8 active torsions:
  status: ('A' for Active; 'I' for Inactive)
    1  A    between atoms: C_1  and  C_6
    2  A    between atoms: C_3  and  C_29
    3  A    between atoms: C_3  and  C_33
    4  A    between atoms: C_4  and  C_31
    5  A    between atoms: C_12  and  O_28
    6  A    between atoms: C_13  and  C_33
    7  A    between atoms: C_20  and  C_22
    8  A    between atoms: C_21  and  O_28
                            x       y       z     vdW  Elec       q    Type
                         _______ _______ _______ _____ _____    ______ ____

>  <TORSDO>
F 8

$$$$
=
 OpenBabel10262419163D

 34 37  0  0  1  0  0  0  0  0999 V2000
  188.4200  177.6940  138.1940 C   0  0  1  0  0  0  0  0  0  0  0  0
  186.3150  178.3620  139.4630 C   0  0  0  0  0  1  0  0  0  0  0  0
  188.2880  177.4170  140.7600 C   0  0  1  0  0  3  0  0  0  0  0  0
  187.8360  178.2380  139.5270 C   0  0  1  0  0  3  0  0  0  0  0  0
  189.8130  177.2610  140.7950 C   0  0  2  0  0  3  0  0  0  0  0  0
  189.9370  177.5230  138.3180 C   0  0  0  0  0  2  0  0  0  0  0  0
  187.7940  176.3410  137.8510 C   0  0  0  0  0  1  0  0  0  0  0  0
  190.3080  176.6350  139.4970 C   0  0  0  0  0  2  0  0  0  0  0  0
  187.6800  176.9010  143.1690 C   0  0  0  0  0  2  0  0  0  0  0  0
  186.6250  178.9760  141.9650 C   0  0  0  0  0  2  0  0  0  0  0  0
  185.2910  178.4370  142.4660 C   0  0  0  0  0  2  0  0  0  0  0  0
  185.8400  177.5110  144.7370 C   0  0  0  0  0  2  0  0  0  0  0  0
  187.3480  177.4760  144.5370 C   0  0  0  0  0  2  0  0  0  0  0  0
  185.1830  178.6540  143.9720 C   0  0  2  0  0  3  0  0  0  0  0  0
  187.8020  177.9910  142.1010 C   0  0  2  0  0  3  0  0  0  0  0  0
  183.7250  178.7360  144.3980 C   0  0  0  0  0  2  0  0  0  0  0  0
  182.8290  179.1180  143.2310 C   0  0  0  0  0  2  0  0  0  0  0  0
  181.3860  178.7410  143.5340 C   0  0  2  0  0  3  0  0  0  0  0  0
  179.4490  177.6390  142.4900 O   0  0  0  0  0  1  0  0  0  0  0  0
  180.5760  178.4330  142.2840 C   0  0  1  0  0  0  0  0  0  0  0  0
  180.4580  179.7920  142.9320 C   0  0  0  0  0  2  0  0  0  0  0  0
  180.8830  179.6010  140.2210 O   0  0  0  0  0  1  0  0  0  0  0  0
  181.2100  178.4250  140.8990 C   0  0  0  0  0  2  0  0  0  0  0  0
  188.1730  178.6570  137.0600 C   0  0  0  0  0  0  0  0  0  0  0  0
  188.6680  179.8160  137.0790 O   0  0  0  0  0  1  0  0  0  0  0  0
  187.4690  178.2450  135.9320 O   0  0  0  0  0  0  0  0  0  0  0  0
  190.1860  176.4370  141.8970 O   0  0  0  0  0  0  0  0  0  0  0  0
  191.6880  176.5020  145.2610 C   0  0  0  0  0  0  0  0  0  0  0  0
  191.9870  177.8240  145.3910 N   0  0  0  0  0  0  0  0  0  0  0  0
  190.7870  176.9270  143.0640 C   0  0  0  0  0  0  0  0  0  0  0  0
  191.7090  178.7160  144.4040 C   0  0  0  0  0  3  0  0  0  0  0  0
  191.0810  176.0330  144.0940 C   0  0  0  0  0  3  0  0  0  0  0  0
  191.1030  178.2850  143.2200 C   0  0  0  0  0  3  0  0  0  0  0  0
  191.9760  175.6390  146.2660 F   0  0  0  0  0  0  0  0  0  0  0  0
  1  7  1  6  0  0  0
  1  6  1  0  0  0  0
  1  4  1  0  0  0  0
  3  5  1  0  0  0  0
  3 15  1  1  0  0  0
  4  2  1  6  0  0  0
  4  3  1  0  0  0  0
  5 27  1  1  0  0  0
  6  8  1  0  0  0  0
  8  5  1  0  0  0  0
  9 13  1  0  0  0  0
 10 11  1  0  0  0  0
 11 14  1  0  0  0  0
 13 12  1  0  0  0  0
 14 16  1  1  0  0  0
 14 12  1  0  0  0  0
 15 10  1  6  0  0  0
 15  9  1  0  0  0  0
 17 16  1  0  0  0  0
 18 17  1  6  0  0  0
 20 19  1  1  0  0  0
 20 21  1  0  0  0  0
 20 18  1  0  0  0  0
 21 18  1  0  0  0  0
 22 23  1  0  0  0  0
 23 20  1  0  0  0  0
 24 25  1  0  0  0  0
 24  1  1  0  0  0  0
 26 24  2  0  0  0  0
 27 30  1  0  0  0  0
 28 29  1  0  0  0  0
 28 34  1  0  0  0  0
 30 33  2  0  0  0  0
 30 32  1  0  0  0  0
 31 29  2  0  0  0  0
 32 28  2  0  0  0  0
 33 31  1  0  0  0  0
M  END
>  <MODEL>
3

>  <REMARK>
 VINA RESULT:      -8.3      2.979      5.511
  Name = 
  8 active torsions:
  status: ('A' for Active; 'I' for Inactive)
    1  A    between atoms: C_1  and  C_6
    2  A    between atoms: C_3  and  C_29
    3  A    between atoms: C_3  and  C_33
    4  A    between atoms: C_4  and  C_31
    5  A    between atoms: C_12  and  O_28
    6  A    between atoms: C_13  and  C_33
    7  A    between atoms: C_20  and  C_22
    8  A    between atoms: C_21  and  O_28
                            x       y       z     vdW  Elec       q    Type
                         _______ _______ _______ _____ _____    ______ ____

>  <TORSDO>
F 8

$$$$
=
 OpenBabel10262419163D

 34 37  0  0  1  0  0  0  0  0999 V2000
  180.3470  178.7950  141.4170 C   0  0  1  0  0  0  0  0  0  0  0  0
  182.2190  177.2170  140.7100 C   0  0  0  0  0  1  0  0  0  0  0  0
  181.4490  179.0200  139.0900 C   0  0  1  0  0  3  0  0  0  0  0  0
  181.6420  178.6260  140.5750 C   0  0  1  0  0  3  0  0  0  0  0  0
  180.8300  180.4170  138.9620 C   0  0  2  0  0  3  0  0  0  0  0  0
  179.7640  180.1950  141.2060 C   0  0  0  0  0  2  0  0  0  0  0  0
  179.3030  177.7540  141.0030 C   0  0  0  0  0  1  0  0  0  0  0  0
  179.5170  180.4850  139.7310 C   0  0  0  0  0  2  0  0  0  0  0  0
  182.9800  177.5470  137.7030 C   0  0  0  0  0  2  0  0  0  0  0  0
  183.9380  179.6670  138.9090 C   0  0  0  0  0  2  0  0  0  0  0  0
  185.0160  178.7300  139.4390 C   0  0  0  0  0  2  0  0  0  0  0  0
  185.4360  177.1640  137.5200 C   0  0  0  0  0  2  0  0  0  0  0  0
  184.1670  177.5020  136.7530 C   0  0  0  0  0  2  0  0  0  0  0  0
  185.9690  178.3540  138.3090 C   0  0  2  0  0  3  0  0  0  0  0  0
  182.7380  178.9540  138.2560 C   0  0  2  0  0  3  0  0  0  0  0  0
  187.3370  177.9840  138.8630 C   0  0  0  0  0  2  0  0  0  0  0  0
  187.4840  178.4240  140.3100 C   0  0  0  0  0  2  0  0  0  0  0  0
  188.4800  177.5260  141.0320 C   0  0  2  0  0  3  0  0  0  0  0  0
  188.6490  176.0820  143.0170 O   0  0  0  0  0  1  0  0  0  0  0  0
  188.0850  177.2340  142.4710 C   0  0  1  0  0  0  0  0  0  0  0  0
  189.1110  178.3040  142.1830 C   0  0  0  0  0  2  0  0  0  0  0  0
  186.8680  177.7900  144.4520 O   0  0  0  0  0  1  0  0  0  0  0  0
  186.7730  177.7340  143.0610 C   0  0  0  0  0  2  0  0  0  0  0  0
  180.6340  178.6500  142.8900 C   0  0  0  0  0  0  0  0  0  0  0  0
  181.5980  179.2650  143.4210 O   0  0  0  0  0  0  0  0  0  0  0  0
  179.7820  177.9070  143.7000 O   0  0  0  0  0  1  0  0  0  0  0  0
  180.5960  180.7150  137.5880 O   0  0  0  0  0  0  0  0  0  0  0  0
  181.6370  184.2320  137.2360 C   0  0  0  0  0  0  0  0  0  0  0  0
  181.2180  184.5060  135.9700 N   0  0  0  0  0  0  0  0  0  0  0  0
  180.7890  181.9830  137.0250 C   0  0  0  0  0  0  0  0  0  0  0  0
  180.5920  183.5690  135.2100 C   0  0  0  0  0  3  0  0  0  0  0  0
  181.4270  182.9650  137.7840 C   0  0  0  0  0  3  0  0  0  0  0  0
  180.3650  182.2890  135.7230 C   0  0  0  0  0  3  0  0  0  0  0  0
  182.2560  185.1910  137.9680 F   0  0  0  0  0  0  0  0  0  0  0  0
  1  7  1  6  0  0  0
  1 24  1  0  0  0  0
  3 15  1  6  0  0  0
  3  4  1  0  0  0  0
  4  2  1  6  0  0  0
  4  1  1  0  0  0  0
  5 27  1  6  0  0  0
  5  3  1  0  0  0  0
  5  8  1  0  0  0  0
  6  1  1  0  0  0  0
  8  6  1  0  0  0  0
 10 11  1  0  0  0  0
 12 14  1  0  0  0  0
 13 12  1  0  0  0  0
 13  9  1  0  0  0  0
 14 16  1  1  0  0  0
 14 11  1  0  0  0  0
 15  9  1  1  0  0  0
 15 10  1  0  0  0  0
 16 17  1  0  0  0  0
 18 17  1  6  0  0  0
 18 21  1  0  0  0  0
 18 20  1  0  0  0  0
 20 19  1  1  0  0  0
 20 23  1  0  0  0  0
 21 20  1  0  0  0  0
 23 22  1  0  0  0  0
 24 25  2  0  0  0  0
 24 26  1  0  0  0  0
 28 32  1  0  0  0  0
 28 34  1  0  0  0  0
 29 28  2  0  0  0  0
 30 27  1  0  0  0  0
 30 32  2  0  0  0  0
 31 33  2  0  0  0  0
 31 29  1  0  0  0  0
 33 30  1  0  0  0  0
M  END
>  <MODEL>
4

>  <REMARK>
 VINA RESULT:      -7.9      4.231      9.251
  Name = 
  8 active torsions:
  status: ('A' for Active; 'I' for Inactive)
    1  A    between atoms: C_1  and  C_6
    2  A    between atoms: C_3  and  C_29
    3  A    between atoms: C_3  and  C_33
    4  A    between atoms: C_4  and  C_31
    5  A    between atoms: C_12  and  O_28
    6  A    between atoms: C_13  and  C_33
    7  A    between atoms: C_20  and  C_22
    8  A    between atoms: C_21  and  O_28
                            x       y       z     vdW  Elec       q    Type
                         _______ _______ _______ _____ _____    ______ ____

>  <TORSDO>
F 8

$$$$
=
 OpenBabel10262419163D

 34 37  0  0  1  0  0  0  0  0999 V2000
  189.0020  177.2200  137.3120 C   0  0  1  0  0  0  0  0  0  0  0  0
  191.3260  176.5920  138.1480 C   0  0  0  0  0  1  0  0  0  0  0  0
  189.6490  177.5730  139.7890 C   0  0  1  0  0  3  0  0  0  0  0  0
  189.8470  176.7160  138.5140 C   0  0  1  0  0  3  0  0  0  0  0  0
  188.1610  177.7290  140.1270 C   0  0  2  0  0  3  0  0  0  0  0  0
  187.5410  177.3920  137.7350 C   0  0  0  0  0  2  0  0  0  0  0  0
  189.5370  178.5630  136.8100 C   0  0  0  0  0  1  0  0  0  0  0  0
  187.4090  178.3150  138.9390 C   0  0  0  0  0  2  0  0  0  0  0  0
  189.5550  176.0300  141.8020 C   0  0  0  0  0  2  0  0  0  0  0  0
  191.1150  178.1360  141.8330 C   0  0  0  0  0  2  0  0  0  0  0  0
  190.4720  178.4430  143.1790 C   0  0  0  0  0  2  0  0  0  0  0  0
  190.1550  176.1770  144.2170 C   0  0  0  0  0  2  0  0  0  0  0  0
  190.3390  175.3830  142.9320 C   0  0  0  0  0  2  0  0  0  0  0  0
  190.9790  177.4580  144.2280 C   0  0  2  0  0  3  0  0  0  0  0  0
  190.3990  177.0400  141.0200 C   0  0  2  0  0  3  0  0  0  0  0  0
  190.8960  178.0670  145.6200 C   0  0  0  0  0  2  0  0  0  0  0  0
  189.4520  178.2720  146.0470 C   0  0  0  0  0  2  0  0  0  0  0  0
  189.1700  177.4950  147.3260 C   0  0  2  0  0  3  0  0  0  0  0  0
  187.3340  177.0100  148.8900 O   0  0  0  0  0  1  0  0  0  0  0  0
  187.9020  177.9490  148.0300 C   0  0  1  0  0  0  0  0  0  0  0  0
  189.2420  178.4470  148.5160 C   0  0  0  0  0  2  0  0  0  0  0  0
  185.6530  178.6640  147.6400 O   0  0  0  0  0  1  0  0  0  0  0  0
  186.9890  179.0140  147.4340 C   0  0  0  0  0  2  0  0  0  0  0  0
  189.0220  176.2240  136.1790 C   0  0  0  0  0  0  0  0  0  0  0  0
  189.7100  176.4380  135.1450 O   0  0  0  0  0  0  0  0  0  0  0  0
  188.3520  175.0100  136.3020 O   0  0  0  0  0  1  0  0  0  0  0  0
  188.0120  178.5850  141.2570 O   0  0  0  0  0  0  0  0  0  0  0  0
  185.9890  177.6660  144.1970 C   0  0  0  0  0  0  0  0  0  0  0  0
  184.8380  178.3490  143.9490 N   0  0  0  0  0  0  0  0  0  0  0  0
  186.9300  178.5170  142.1440 C   0  0  0  0  0  0  0  0  0  0  0  0
  184.6910  179.1130  142.8340 C   0  0  0  0  0  3  0  0  0  0  0  0
  187.0540  177.7390  143.2960 C   0  0  0  0  0  3  0  0  0  0  0  0
  185.7340  179.2120  141.9090 C   0  0  0  0  0  3  0  0  0  0  0  0
  186.1020  176.9120  145.3170 F   0  0  0  0  0  0  0  0  0  0  0  0
  1  7  1  6  0  0  0
  1  6  1  0  0  0  0
  1  4  1  0  0  0  0
  3  5  1  0  0  0  0
  3 15  1  1  0  0  0
  4  2  1  6  0  0  0
  4  3  1  0  0  0  0
  5 27  1  1  0  0  0
  6  8  1  0  0  0  0
  8  5  1  0  0  0  0
  9 13  1  0  0  0  0
 10 11  1  0  0  0  0
 11 14  1  0  0  0  0
 12 14  1  0  0  0  0
 13 12  1  0  0  0  0
 14 16  1  1  0  0  0
 15  9  1  1  0  0  0
 15 10  1  0  0  0  0
 16 17  1  0  0  0  0
 18 17  1  6  0  0  0
 18 20  1  0  0  0  0
 18 21  1  0  0  0  0
 20 21  1  0  0  0  0
 20 19  1  1  0  0  0
 23 22  1  0  0  0  0
 23 20  1  0  0  0  0
 24 26  1  0  0  0  0
 24  1  1  0  0  0  0
 25 24  2  0  0  0  0
 27 30  1  0  0  0  0
 28 34  1  0  0  0  0
 29 28  1  0  0  0  0
 30 32  1  0  0  0  0
 31 29  2  0  0  0  0
 32 28  2  0  0  0  0
 33 30  2  0  0  0  0
 33 31  1  0  0  0  0
M  END
>  <MODEL>
5

>  <REMARK>
 VINA RESULT:      -7.8      3.709      7.235
  Name = 
  8 active torsions:
  status: ('A' for Active; 'I' for Inactive)
    1  A    between atoms: C_1  and  C_6
    2  A    between atoms: C_3  and  C_29
    3  A    between atoms: C_3  and  C_33
    4  A    between atoms: C_4  and  C_31
    5  A    between atoms: C_12  and  O_28
    6  A    between atoms: C_13  and  C_33
    7  A    between atoms: C_20  and  C_22
    8  A    between atoms: C_21  and  O_28
                            x       y       z     vdW  Elec       q    Type
                         _______ _______ _______ _____ _____    ______ ____

>  <TORSDO>
F 8

$$$$
=
 OpenBabel10262419163D

 34 37  0  0  1  0  0  0  0  0999 V2000
  189.4760  177.3550  142.5170 C   0  0  1  0  0  0  0  0  0  0  0  0
  187.8060  178.4780  140.9550 C   0  0  0  0  0  1  0  0  0  0  0  0
  190.0470  177.7200  140.0220 C   0  0  1  0  0  3  0  0  0  0  0  0
  188.9330  177.4520  141.0640 C   0  0  1  0  0  3  0  0  0  0  0  0
  191.1950  176.7130  140.1660 C   0  0  2  0  0  3  0  0  0  0  0  0
  190.6450  176.3670  142.5740 C   0  0  0  0  0  2  0  0  0  0  0  0
  189.9600  178.7250  142.9970 C   0  0  0  0  0  1  0  0  0  0  0  0
  191.7440  176.7380  141.5870 C   0  0  0  0  0  2  0  0  0  0  0  0
  188.9940  179.0940  138.1670 C   0  0  0  0  0  2  0  0  0  0  0  0
  188.7110  176.4880  138.1940 C   0  0  0  0  0  2  0  0  0  0  0  0
  187.2260  176.7680  138.0070 C   0  0  0  0  0  2  0  0  0  0  0  0
  187.1850  178.7660  136.4840 C   0  0  0  0  0  2  0  0  0  0  0  0
  188.6410  179.1560  136.6890 C   0  0  0  0  0  2  0  0  0  0  0  0
  186.9710  177.2610  136.5860 C   0  0  2  0  0  3  0  0  0  0  0  0
  189.5510  177.7250  138.5680 C   0  0  2  0  0  3  0  0  0  0  0  0
  185.5430  176.9520  136.1600 C   0  0  0  0  0  2  0  0  0  0  0  0
  184.6500  176.7000  137.3640 C   0  0  0  0  0  2  0  0  0  0  0  0
  183.3530  177.4840  137.2270 C   0  0  2  0  0  3  0  0  0  0  0  0
  182.2590  179.5150  138.0820 O   0  0  0  0  0  1  0  0  0  0  0  0
  183.1240  178.4610  138.3690 C   0  0  1  0  0  0  0  0  0  0  0  0
  182.4260  177.1220  138.3840 C   0  0  0  0  0  2  0  0  0  0  0  0
  184.7020  179.9490  139.3770 O   0  0  0  0  0  1  0  0  0  0  0  0
  184.1580  178.6670  139.4690 C   0  0  0  0  0  2  0  0  0  0  0  0
  188.4160  176.8450  143.4600 C   0  0  0  0  0  0  0  0  0  0  0  0
  187.8690  175.7260  143.2690 O   0  0  0  0  0  0  0  0  0  0  0  0
  188.0940  177.5640  144.6060 O   0  0  0  0  0  1  0  0  0  0  0  0
  192.2350  177.0360  139.2460 O   0  0  0  0  0  0  0  0  0  0  0  0
  192.2300  174.2150  136.8750 C   0  0  0  0  0  0  0  0  0  0  0  0
  193.1820  174.6150  135.9880 N   0  0  0  0  0  0  0  0  0  0  0  0
  192.5740  176.2370  138.1470 C   0  0  0  0  0  0  0  0  0  0  0  0
  193.8440  175.7930  136.1370 C   0  0  0  0  0  3  0  0  0  0  0  0
  191.9120  175.0220  137.9710 C   0  0  0  0  0  3  0  0  0  0  0  0
  193.5530  176.6270  137.2200 C   0  0  0  0  0  3  0  0  0  0  0  0
  191.5910  173.0330  136.6980 F   0  0  0  0  0  0  0  0  0  0  0  0
  1  6  1  0  0  0  0
  1  7  1  1  0  0  0
  1 24  1  0  0  0  0
  3 15  1  6  0  0  0
  3  5  1  0  0  0  0
  3  4  1  0  0  0  0
  4  2  1  1  0  0  0
  4  1  1  0  0  0  0
  5 27  1  6  0  0  0
  5  8  1  0  0  0  0
  8  6  1  0  0  0  0
 10 15  1  0  0  0  0
 11 10  1  0  0  0  0
 12 14  1  0  0  0  0
 12 13  1  0  0  0  0
 13  9  1  0  0  0  0
 14 16  1  1  0  0  0
 14 11  1  0  0  0  0
 15  9  1  1  0  0  0
 16 17  1  0  0  0  0
 18 17  1  1  0  0  0
 18 20  1  0  0  0  0
 18 21  1  0  0  0  0
 20 19  1  6  0  0  0
 20 21  1  0  0  0  0
 20 23  1  0  0  0  0
 22 23  1  0  0  0  0
 24 26  1  0  0  0  0
 25 24  2  0  0  0  0
 28 32  1  0  0  0  0
 29 31  1  0  0  0  0
 29 28  2  0  0  0  0
 30 27  1  0  0  0  0
 31 33  2  0  0  0  0
 32 30  2  0  0  0  0
 33 30  1  0  0  0  0
 34 28  1  0  0  0  0
M  END
>  <MODEL>
6

>  <REMARK>
 VINA RESULT:      -7.6      3.504      5.047
  Name = 
  8 active torsions:
  status: ('A' for Active; 'I' for Inactive)
    1  A    between atoms: C_1  and  C_6
    2  A    between atoms: C_3  and  C_29
    3  A    between atoms: C_3  and  C_33
    4  A    between atoms: C_4  and  C_31
    5  A    between atoms: C_12  and  O_28
    6  A    between atoms: C_13  and  C_33
    7  A    between atoms: C_20  and  C_22
    8  A    between atoms: C_21  and  O_28
                            x       y       z     vdW  Elec       q    Type
                         _______ _______ _______ _____ _____    ______ ____

>  <TORSDO>
F 8

$$$$
=
 OpenBabel10262419163D

 34 37  0  0  1  0  0  0  0  0999 V2000
  180.0980  175.6810  138.4580 C   0  0  1  0  0  0  0  0  0  0  0  0
  182.5140  175.5300  139.2520 C   0  0  0  0  0  1  0  0  0  0  0  0
  181.8220  177.4810  137.7740 C   0  0  1  0  0  3  0  0  0  0  0  0
  181.3750  176.4690  138.8590 C   0  0  1  0  0  3  0  0  0  0  0  0
  180.6640  178.3920  137.3530 C   0  0  2  0  0  3  0  0  0  0  0  0
  179.0020  176.6520  138.0090 C   0  0  0  0  0  2  0  0  0  0  0  0
  180.4060  174.7150  137.3110 C   0  0  0  0  0  1  0  0  0  0  0  0
  179.4790  177.5570  136.8820 C   0  0  0  0  0  2  0  0  0  0  0  0
  184.3420  177.5650  138.0670 C   0  0  0  0  0  2  0  0  0  0  0  0
  182.8020  179.1480  139.4780 C   0  0  0  0  0  2  0  0  0  0  0  0
  183.5900  178.6450  140.6800 C   0  0  0  0  0  2  0  0  0  0  0  0
  185.9300  178.4020  139.7960 C   0  0  0  0  0  2  0  0  0  0  0  0
  185.5520  178.4490  138.3230 C   0  0  0  0  0  2  0  0  0  0  0  0
  184.9940  179.2400  140.6600 C   0  0  2  0  0  3  0  0  0  0  0  0
  183.0270  178.3420  138.1850 C   0  0  2  0  0  3  0  0  0  0  0  0
  185.5710  179.3030  142.0660 C   0  0  0  0  0  2  0  0  0  0  0  0
  184.6620  178.6090  143.0670 C   0  0  0  0  0  2  0  0  0  0  0  0
  184.5690  179.4300  144.3460 C   0  0  2  0  0  3  0  0  0  0  0  0
  185.6740  179.6770  146.5300 O   0  0  0  0  0  1  0  0  0  0  0  0
  185.3080  178.7960  145.5140 C   0  0  1  0  0  0  0  0  0  0  0  0
  183.8120  178.6280  145.4010 C   0  0  0  0  0  2  0  0  0  0  0  0
  187.4840  177.8090  145.4230 O   0  0  0  0  0  1  0  0  0  0  0  0
  186.1200  177.5180  145.3530 C   0  0  0  0  0  2  0  0  0  0  0  0
  179.5510  174.9030  139.6280 C   0  0  0  0  0  0  0  0  0  0  0  0
  179.2840  173.6760  139.5180 O   0  0  0  0  0  0  0  0  0  0  0  0
  179.4200  175.5100  140.8730 O   0  0  0  0  0  1  0  0  0  0  0  0
  181.0890  179.2550  136.3010 O   0  0  0  0  0  0  0  0  0  0  0  0
  180.0750  182.6420  137.3440 C   0  0  0  0  0  0  0  0  0  0  0  0
  180.0770  183.2970  136.1510 N   0  0  0  0  0  0  0  0  0  0  0  0
  180.7470  180.6120  136.2250 C   0  0  0  0  0  0  0  0  0  0  0  0
  180.4010  182.6630  134.9930 C   0  0  0  0  0  3  0  0  0  0  0  0
  180.4100  181.2860  137.3990 C   0  0  0  0  0  3  0  0  0  0  0  0
  180.7420  181.3080  135.0070 C   0  0  0  0  0  3  0  0  0  0  0  0
  179.7460  183.3030  138.4810 F   0  0  0  0  0  0  0  0  0  0  0  0
  1  7  1  6  0  0  0
  1  4  1  0  0  0  0
  1 24  1  0  0  0  0
  3 15  1  1  0  0  0
  3  4  1  0  0  0  0
  4  2  1  6  0  0  0
  5 27  1  6  0  0  0
  5  3  1  0  0  0  0
  6  1  1  0  0  0  0
  8  5  1  0  0  0  0
  8  6  1  0  0  0  0
  9 13  1  0  0  0  0
 10 11  1  0  0  0  0
 12 14  1  0  0  0  0
 13 12  1  0  0  0  0
 14 11  1  0  0  0  0
 14 16  1  1  0  0  0
 15  9  1  1  0  0  0
 15 10  1  0  0  0  0
 16 17  1  0  0  0  0
 18 17  1  6  0  0  0
 18 21  1  0  0  0  0
 18 20  1  0  0  0  0
 20 19  1  1  0  0  0
 21 20  1  0  0  0  0
 23 22  1  0  0  0  0
 23 20  1  0  0  0  0
 24 26  1  0  0  0  0
 25 24  2  0  0  0  0
 28 32  1  0  0  0  0
 28 34  1  0  0  0  0
 29 28  2  0  0  0  0
 30 27  1  0  0  0  0
 30 32  2  0  0  0  0
 31 33  2  0  0  0  0
 31 29  1  0  0  0  0
 33 30  1  0  0  0  0
M  END
>  <MODEL>
7

>  <REMARK>
 VINA RESULT:      -7.5      4.955      9.175
  Name = 
  8 active torsions:
  status: ('A' for Active; 'I' for Inactive)
    1  A    between atoms: C_1  and  C_6
    2  A    between atoms: C_3  and  C_29
    3  A    between atoms: C_3  and  C_33
    4  A    between atoms: C_4  and  C_31
    5  A    between atoms: C_12  and  O_28
    6  A    between atoms: C_13  and  C_33
    7  A    between atoms: C_20  and  C_22
    8  A    between atoms: C_21  and  O_28
                            x       y       z     vdW  Elec       q    Type
                         _______ _______ _______ _____ _____    ______ ____

>  <TORSDO>
F 8

$$$$
=
 OpenBabel10262419163D

 34 37  0  0  1  0  0  0  0  0999 V2000
  182.1860  179.2930  139.2530 C   0  0  1  0  0  0  0  0  0  0  0  0
  181.2690  177.9670  141.2250 C   0  0  0  0  0  1  0  0  0  0  0  0
  183.7770  178.3570  141.0620 C   0  0  1  0  0  3  0  0  0  0  0  0
  182.3670  178.9170  140.7490 C   0  0  1  0  0  3  0  0  0  0  0  0
  184.8740  179.2950  140.5440 C   0  0  2  0  0  3  0  0  0  0  0  0
  183.3380  180.1920  138.7960 C   0  0  0  0  0  2  0  0  0  0  0  0
  182.1650  178.0320  138.3860 C   0  0  0  0  0  1  0  0  0  0  0  0
  184.6920  179.5450  139.0520 C   0  0  0  0  0  2  0  0  0  0  0  0
  183.7860  179.3130  143.4130 C   0  0  0  0  0  2  0  0  0  0  0  0
  185.2880  177.2460  142.8300 C   0  0  0  0  0  2  0  0  0  0  0  0
  186.4170  178.0340  143.4810 C   0  0  0  0  0  2  0  0  0  0  0  0
  185.2920  179.2090  145.3970 C   0  0  0  0  0  2  0  0  0  0  0  0
  183.8690  179.0040  144.8990 C   0  0  0  0  0  2  0  0  0  0  0  0
  186.2150  178.0660  144.9930 C   0  0  2  0  0  3  0  0  0  0  0  0
  184.0140  178.0670  142.5530 C   0  0  2  0  0  3  0  0  0  0  0  0
  187.5460  178.2530  145.7080 C   0  0  0  0  0  2  0  0  0  0  0  0
  188.5560  177.2020  145.2770 C   0  0  0  0  0  2  0  0  0  0  0  0
  189.9260  177.8390  145.0910 C   0  0  2  0  0  3  0  0  0  0  0  0
  191.5720  178.3270  143.3290 O   0  0  0  0  0  1  0  0  0  0  0  0
  190.5920  177.4460  143.7820 C   0  0  1  0  0  0  0  0  0  0  0  0
  190.9860  176.7420  145.0580 C   0  0  0  0  0  2  0  0  0  0  0  0
  190.3340  175.2580  142.8530 O   0  0  0  0  0  1  0  0  0  0  0  0
  189.8850  176.5750  142.7500 C   0  0  0  0  0  2  0  0  0  0  0  0
  180.9080  180.0640  139.0370 C   0  0  0  0  0  0  0  0  0  0  0  0
  179.9820  179.5890  138.3260 O   0  0  0  0  0  0  0  0  0  0  0  0
  180.6980  181.2700  139.6980 O   0  0  0  0  0  1  0  0  0  0  0  0
  186.1540  178.7130  140.7790 O   0  0  0  0  0  0  0  0  0  0  0  0
  189.2660  177.8740  138.9930 C   0  0  0  0  0  0  0  0  0  0  0  0
  188.7790  177.4740  137.7870 N   0  0  0  0  0  0  0  0  0  0  0  0
  187.0170  178.2970  139.7570 C   0  0  0  0  0  0  0  0  0  0  0  0
  187.4450  177.4690  137.5260 C   0  0  0  0  0  3  0  0  0  0  0  0
  188.3910  178.2950  139.9980 C   0  0  0  0  0  3  0  0  0  0  0  0
  186.5370  177.8810  138.5060 C   0  0  0  0  0  3  0  0  0  0  0  0
  190.6030  177.8700  139.2210 F   0  0  0  0  0  0  0  0  0  0  0  0
  1  7  1  6  0  0  0
  1  4  1  0  0  0  0
  3 15  1  1  0  0  0
  4  3  1  0  0  0  0
  4  2  1  6  0  0  0
  5 27  1  6  0  0  0
  5  3  1  0  0  0  0
  6  8  1  0  0  0  0
  6  1  1  0  0  0  0
  8  5  1  0  0  0  0
  9 13  1  0  0  0  0
 10 11  1  0  0  0  0
 11 14  1  0  0  0  0
 13 12  1  0  0  0  0
 14 12  1  0  0  0  0
 14 16  1  1  0  0  0
 15 10  1  6  0  0  0
 15  9  1  0  0  0  0
 17 16  1  0  0  0  0
 18 17  1  6  0  0  0
 20 19  1  6  0  0  0
 20 21  1  0  0  0  0
 20 18  1  0  0  0  0
 21 18  1  0  0  0  0
 23 22  1  0  0  0  0
 23 20  1  0  0  0  0
 24  1  1  0  0  0  0
 24 26  1  0  0  0  0
 25 24  2  0  0  0  0
 28 34  1  0  0  0  0
 28 32  1  0  0  0  0
 29 28  2  0  0  0  0
 30 32  2  0  0  0  0
 30 27  1  0  0  0  0
 31 29  1  0  0  0  0
 31 33  2  0  0  0  0
 33 30  1  0  0  0  0
M  END
>  <MODEL>
8

>  <REMARK>
 VINA RESULT:      -7.4      2.310      7.788
  Name = 
  8 active torsions:
  status: ('A' for Active; 'I' for Inactive)
    1  A    between atoms: C_1  and  C_6
    2  A    between atoms: C_3  and  C_29
    3  A    between atoms: C_3  and  C_33
    4  A    between atoms: C_4  and  C_31
    5  A    between atoms: C_12  and  O_28
    6  A    between atoms: C_13  and  C_33
    7  A    between atoms: C_20  and  C_22
    8  A    between atoms: C_21  and  O_28
                            x       y       z     vdW  Elec       q    Type
                         _______ _______ _______ _____ _____    ______ ____

>  <TORSDO>
F 8

$$$$
=
 OpenBabel10262419163D

 34 37  0  0  1  0  0  0  0  0999 V2000
  188.9390  177.6380  139.4760 C   0  0  1  0  0  0  0  0  0  0  0  0
  186.5730  178.5830  139.4940 C   0  0  0  0  0  1  0  0  0  0  0  0
  187.6050  177.8020  141.6840 C   0  0  1  0  0  3  0  0  0  0  0  0
  187.8690  178.4190  140.2880 C   0  0  1  0  0  3  0  0  0  0  0  0
  188.9130  177.6000  142.4580 C   0  0  2  0  0  3  0  0  0  0  0  0
  190.1970  177.4370  140.3260 C   0  0  0  0  0  2  0  0  0  0  0  0
  188.3970  176.2690  139.0590 C   0  0  0  0  0  1  0  0  0  0  0  0
  189.8800  176.7480  141.6460 C   0  0  0  0  0  2  0  0  0  0  0  0
  186.2930  177.8870  143.8540 C   0  0  0  0  0  2  0  0  0  0  0  0
  185.4380  179.1950  141.7510 C   0  0  0  0  0  2  0  0  0  0  0  0
  184.0990  178.5220  142.0260 C   0  0  0  0  0  2  0  0  0  0  0  0
  183.9670  178.4680  144.5350 C   0  0  0  0  0  2  0  0  0  0  0  0
  185.4430  178.7410  144.7810 C   0  0  0  0  0  2  0  0  0  0  0  0
  183.4590  179.1400  143.2650 C   0  0  2  0  0  3  0  0  0  0  0  0
  186.6210  178.6090  142.5450 C   0  0  2  0  0  3  0  0  0  0  0  0
  181.9460  178.9890  143.2180 C   0  0  0  0  0  2  0  0  0  0  0  0
  181.4700  178.6240  141.8220 C   0  0  0  0  0  2  0  0  0  0  0  0
  180.1370  177.8920  141.8970 C   0  0  2  0  0  3  0  0  0  0  0  0
  179.0110  175.8960  141.0040 O   0  0  0  0  0  1  0  0  0  0  0  0
  179.9310  176.9120  140.7530 C   0  0  1  0  0  0  0  0  0  0  0  0
  179.2870  178.2770  140.6900 C   0  0  0  0  0  2  0  0  0  0  0  0
  180.4820  175.9200  138.6490 O   0  0  0  0  0  1  0  0  0  0  0  0
  181.0120  176.6540  139.7110 C   0  0  0  0  0  2  0  0  0  0  0  0
  189.3520  178.4040  138.2450 C   0  0  0  0  0  0  0  0  0  0  0  0
  189.8930  177.8150  137.2710 O   0  0  0  0  0  0  0  0  0  0  0  0
  189.0570  179.7590  138.1310 O   0  0  0  0  0  1  0  0  0  0  0  0
  188.6410  176.9610  143.7030 O   0  0  0  0  0  0  0  0  0  0  0  0
  189.8550  177.4740  147.1440 C   0  0  0  0  0  0  0  0  0  0  0  0
  191.1590  177.1020  147.0220 N   0  0  0  0  0  0  0  0  0  0  0  0
  189.5080  177.0050  144.8030 C   0  0  0  0  0  0  0  0  0  0  0  0
  191.6710  176.6830  145.8350 C   0  0  0  0  0  3  0  0  0  0  0  0
  189.0090  177.4330  146.0330 C   0  0  0  0  0  3  0  0  0  0  0  0
  190.8550  176.6270  144.7010 C   0  0  0  0  0  3  0  0  0  0  0  0
  189.3770  177.8900  148.3430 F   0  0  0  0  0  0  0  0  0  0  0  0
  1  7  1  6  0  0  0
  1  4  1  0  0  0  0
  1  6  1  0  0  0  0
  3  5  1  0  0  0  0
  3 15  1  1  0  0  0
  4  2  1  6  0  0  0
  4  3  1  0  0  0  0
  5 27  1  1  0  0  0
  6  8  1  0  0  0  0
  8  5  1  0  0  0  0
  9 13  1  0  0  0  0
 10 11  1  0  0  0  0
 11 14  1  0  0  0  0
 12 13  1  0  0  0  0
 14 16  1  6  0  0  0
 14 12  1  0  0  0  0
 15 10  1  6  0  0  0
 15  9  1  0  0  0  0
 17 16  1  0  0  0  0
 18 17  1  6  0  0  0
 20 19  1  1  0  0  0
 20 18  1  0  0  0  0
 21 20  1  0  0  0  0
 21 18  1  0  0  0  0
 22 23  1  0  0  0  0
 23 20  1  0  0  0  0
 24  1  1  0  0  0  0
 25 24  2  0  0  0  0
 26 24  1  0  0  0  0
 27 30  1  0  0  0  0
 28 34  1  0  0  0  0
 29 28  1  0  0  0  0
 30 32  1  0  0  0  0
 31 29  2  0  0  0  0
 32 28  2  0  0  0  0
 33 30  2  0  0  0  0
 33 31  1  0  0  0  0
M  END
>  <MODEL>
9

>  <REMARK>
 VINA RESULT:      -7.4      3.357      5.652
  Name = 
  8 active torsions:
  status: ('A' for Active; 'I' for Inactive)
    1  A    between atoms: C_1  and  C_6
    2  A    between atoms: C_3  and  C_29
    3  A    between atoms: C_3  and  C_33
    4  A    between atoms: C_4  and  C_31
    5  A    between atoms: C_12  and  O_28
    6  A    between atoms: C_13  and  C_33
    7  A    between atoms: C_20  and  C_22
    8  A    between atoms: C_21  and  O_28
                            x       y       z     vdW  Elec       q    Type
                         _______ _______ _______ _____ _____    ______ ____

>  <TORSDO>
F 8

$$$$
