=
 OpenBabel10262421223D

 32 37  0  0  1  0  0  0  0  0999 V2000
  187.4610  176.9540  137.2290 C   0  0  0  0  0  2  0  0  0  0  0  0
  188.0200  177.9180  142.2050 C   0  0  0  0  0  0  0  0  0  0  0  0
  183.1480  178.7280  142.8360 C   0  0  0  0  0  2  0  0  0  0  0  0
  183.4650  179.3280  144.1910 C   0  0  0  0  0  2  0  0  0  0  0  0
  189.4470  177.4490  144.2370 C   0  0  0  0  0  0  0  0  0  0  0  0
  189.4870  177.3600  145.6270 C   0  0  0  0  0  0  0  0  0  0  0  0
  188.9250  177.8130  139.9240 C   0  0  0  0  0  0  0  0  0  0  0  0
  186.6000  178.3880  140.2770 C   0  0  0  0  0  3  0  0  0  0  0  0
  188.8260  177.4060  147.6880 C   0  0  0  0  0  0  0  0  0  0  0  0
  187.4130  178.3100  137.9380 C   0  0  0  0  0  2  0  0  0  0  0  0
  184.3360  178.9470  141.9110 C   0  0  0  0  0  2  0  0  0  0  0  0
  186.7520  178.2650  141.6680 C   0  0  0  0  0  0  0  0  0  0  0  0
  185.6500  178.4880  142.5110 C   0  0  0  0  0  0  0  0  0  0  0  0
  187.0510  178.0390  144.4620 C   0  0  0  0  0  0  0  0  0  0  0  0
  190.1050  177.0880  147.6410 O   0  0  0  0  0  0  0  0  0  0  0  0
  189.9430  177.0870  137.6420 C   0  0  0  0  0  2  0  0  0  0  0  0
  187.6650  178.1760  139.4060 C   0  0  0  0  0  0  0  0  0  0  0  0
  190.5420  177.0500  146.4090 N   0  0  0  0  0  0  0  0  0  0  0  0
  190.1580  177.5730  139.0810 C   0  0  0  0  0  2  0  0  0  0  0  0
  188.7380  176.1580  137.5130 C   0  0  2  0  0  3  0  0  0  0  0  0
  184.6020  178.5400  144.8240 C   0  0  0  0  0  2  0  0  0  0  0  0
  185.8030  178.3870  143.9100 C   0  0  0  0  0  0  0  0  0  0  0  0
  187.1670  177.9280  145.8650 C   0  0  0  0  0  3  0  0  0  0  0  0
  189.0780  177.7020  141.3060 C   0  0  0  0  0  3  0  0  0  0  0  0
  190.7180  177.1730  143.4960 C   0  0  0  0  0  1  0  0  0  0  0  0
  188.0230  177.5350  148.9350 C   0  0  0  0  0  1  0  0  0  0  0  0
  188.1930  177.7990  143.6150 C   0  0  0  0  0  0  0  0  0  0  0  0
  188.3950  177.5890  146.4000 C   0  0  0  0  0  0  0  0  0  0  0  0
  188.9560  175.1510  136.3960 C   0  0  0  0  0  2  0  0  0  0  0  0
  189.3690  173.8310  136.9480 C   0  0  0  0  0  0  0  0  0  0  0  0
  190.6070  173.6900  137.5630 O   0  0  0  0  0  1  0  0  0  0  0  0
  188.5850  172.8480  136.8860 O   0  0  0  0  0  0  0  0  0  0  0  0
  1 20  1  0  0  0  0
  1 10  1  0  0  0  0
  2 27  1  0  0  0  0
  3  4  1  0  0  0  0
  4 21  1  0  0  0  0
  5  6  1  0  0  0  0
  6 28  1  0  0  0  0
  6 18  2  0  0  0  0
  7 24  1  0  0  0  0
  8 12  2  0  0  0  0
  9 26  1  0  0  0  0
 10 17  1  0  0  0  0
 11 13  1  0  0  0  0
 11  3  1  0  0  0  0
 12  2  1  0  0  0  0
 12 13  1  0  0  0  0
 13 22  2  0  0  0  0
 14 23  2  0  0  0  0
 15  9  1  0  0  0  0
 16 19  1  0  0  0  0
 17  7  2  0  0  0  0
 17  8  1  0  0  0  0
 18 15  1  0  0  0  0
 19  7  1  0  0  0  0
 20 29  1  6  0  0  0
 20 16  1  0  0  0  0
 22 14  1  0  0  0  0
 22 21  1  0  0  0  0
 23 28  1  0  0  0  0
 24  2  2  0  0  0  0
 25  5  1  0  0  0  0
 27  5  2  0  0  0  0
 27 14  1  0  0  0  0
 28  9  2  0  0  0  0
 29 30  1  0  0  0  0
 30 31  1  0  0  0  0
 32 30  2  0  0  0  0
M  END
>  <MODEL>
1

>  <REMARK>
 VINA RESULT:     -11.8      0.000      0.000
  Name = 
  2 active torsions:
  status: ('A' for Active; 'I' for Inactive)
    1  A    between atoms: C_1  and  C_10
    2  A    between atoms: C_10  and  C_24
                            x       y       z     vdW  Elec       q    Type
                         _______ _______ _______ _____ _____    ______ ____

>  <TORSDO>
F 2

$$$$
=
 OpenBabel10262421223D

 32 37  0  0  1  0  0  0  0  0999 V2000
  189.4990  176.4150  137.2270 C   0  0  0  0  0  2  0  0  0  0  0  0
  189.2130  177.6340  142.1700 C   0  0  0  0  0  0  0  0  0  0  0  0
  184.3370  178.6040  141.8910 C   0  0  0  0  0  2  0  0  0  0  0  0
  184.4330  179.2680  143.2500 C   0  0  0  0  0  2  0  0  0  0  0  0
  190.2460  177.2390  144.4420 C   0  0  0  0  0  0  0  0  0  0  0  0
  190.0390  177.2240  145.8210 C   0  0  0  0  0  0  0  0  0  0  0  0
  190.4990  177.3820  140.0920 C   0  0  0  0  0  0  0  0  0  0  0  0
  188.1690  178.0350  140.0010 C   0  0  0  0  0  3  0  0  0  0  0  0
  189.0300  177.4000  147.7280 C   0  0  0  0  0  0  0  0  0  0  0  0
  189.3760  177.8090  137.8490 C   0  0  0  0  0  2  0  0  0  0  0  0
  185.6760  178.7410  141.1810 C   0  0  0  0  0  2  0  0  0  0  0  0
  188.0720  177.9840  141.4020 C   0  0  0  0  0  0  0  0  0  0  0  0
  186.8480  178.2810  142.0250 C   0  0  0  0  0  0  0  0  0  0  0  0
  187.8700  177.9020  144.2120 C   0  0  0  0  0  0  0  0  0  0  0  0
  190.2850  177.0460  147.9230 O   0  0  0  0  0  0  0  0  0  0  0  0
  191.8740  176.5060  138.0640 C   0  0  0  0  0  2  0  0  0  0  0  0
  189.3630  177.7480  139.3430 C   0  0  0  0  0  0  0  0  0  0  0  0
  190.9290  176.9290  146.7900 N   0  0  0  0  0  0  0  0  0  0  0  0
  191.8520  177.0630  139.4940 C   0  0  0  0  0  2  0  0  0  0  0  0
  190.6790  175.6030  137.7700 C   0  0  2  0  0  3  0  0  0  0  0  0
  185.4140  178.4860  144.1110 C   0  0  0  0  0  2  0  0  0  0  0  0
  186.7500  178.2520  143.4320 C   0  0  0  0  0  0  0  0  0  0  0  0
  187.7340  177.8650  145.6180 C   0  0  0  0  0  3  0  0  0  0  0  0
  190.4040  177.3420  141.4840 C   0  0  0  0  0  3  0  0  0  0  0  0
  191.6160  176.8900  143.9520 C   0  0  0  0  0  1  0  0  0  0  0  0
  188.0260  177.6170  148.8050 C   0  0  0  0  0  1  0  0  0  0  0  0
  189.1330  177.5870  143.5930 C   0  0  0  0  0  0  0  0  0  0  0  0
  188.8370  177.5230  146.3760 C   0  0  0  0  0  0  0  0  0  0  0  0
  191.0520  174.5320  136.7600 C   0  0  0  0  0  2  0  0  0  0  0  0
  192.1460  175.0080  135.8660 C   0  0  0  0  0  0  0  0  0  0  0  0
  191.8670  175.9000  134.8390 O   0  0  0  0  0  0  0  0  0  0  0  0
  193.3290  174.6260  136.0610 O   0  0  0  0  0  1  0  0  0  0  0  0
  1 20  1  0  0  0  0
  1 10  1  0  0  0  0
  2 27  1  0  0  0  0
  3  4  1  0  0  0  0
  4 21  1  0  0  0  0
  5  6  1  0  0  0  0
  6 28  1  0  0  0  0
  6 18  2  0  0  0  0
  7 24  2  0  0  0  0
  8 12  1  0  0  0  0
  9 15  1  0  0  0  0
  9 26  1  0  0  0  0
 10 17  1  0  0  0  0
 11  3  1  0  0  0  0
 11 13  1  0  0  0  0
 12 13  1  0  0  0  0
 12  2  2  0  0  0  0
 13 22  2  0  0  0  0
 14 23  2  0  0  0  0
 16 19  1  0  0  0  0
 17  8  2  0  0  0  0
 17  7  1  0  0  0  0
 18 15  1  0  0  0  0
 19  7  1  0  0  0  0
 20 29  1  6  0  0  0
 20 16  1  0  0  0  0
 22 21  1  0  0  0  0
 22 14  1  0  0  0  0
 23 28  1  0  0  0  0
 24  2  1  0  0  0  0
 25  5  1  0  0  0  0
 27 14  1  0  0  0  0
 27  5  2  0  0  0  0
 28  9  2  0  0  0  0
 30 32  1  0  0  0  0
 30 29  1  0  0  0  0
 31 30  2  0  0  0  0
M  END
>  <MODEL>
2

>  <REMARK>
 VINA RESULT:     -11.2      1.453      1.810
  Name = 
  2 active torsions:
  status: ('A' for Active; 'I' for Inactive)
    1  A    between atoms: C_1  and  C_10
    2  A    between atoms: C_10  and  C_24
                            x       y       z     vdW  Elec       q    Type
                         _______ _______ _______ _____ _____    ______ ____

>  <TORSDO>
F 2

$$$$
=
 OpenBabel10262421223D

 32 37  0  0  1  0  0  0  0  0999 V2000
  184.1330  177.7930  138.1770 C   0  0  0  0  0  2  0  0  0  0  0  0
  187.3960  177.9880  142.0900 C   0  0  0  0  0  0  0  0  0  0  0  0
  183.7410  178.6140  145.4130 C   0  0  0  0  0  2  0  0  0  0  0  0
  184.7910  179.0030  146.4340 C   0  0  0  0  0  2  0  0  0  0  0  0
  189.6650  177.2340  142.9070 C   0  0  0  0  0  0  0  0  0  0  0  0
  190.4550  176.9310  144.0160 C   0  0  0  0  0  0  0  0  0  0  0  0
  186.8920  178.2500  139.7010 C   0  0  0  0  0  0  0  0  0  0  0  0
  185.1900  178.7270  141.3550 C   0  0  0  0  0  3  0  0  0  0  0  0
  191.0370  176.6490  146.0820 C   0  0  0  0  0  0  0  0  0  0  0  0
  184.5800  179.0240  138.9720 C   0  0  0  0  0  2  0  0  0  0  0  0
  184.2400  178.9910  144.0260 C   0  0  0  0  0  2  0  0  0  0  0  0
  186.0710  178.3930  142.3970 C   0  0  0  0  0  0  0  0  0  0  0  0
  185.6310  178.4660  143.7300 C   0  0  0  0  0  0  0  0  0  0  0  0
  187.8350  177.7440  144.4980 C   0  0  0  0  0  0  0  0  0  0  0  0
  192.0530  176.3620  145.2930 O   0  0  0  0  0  0  0  0  0  0  0  0
  186.4370  177.9000  137.1630 C   0  0  0  0  0  2  0  0  0  0  0  0
  185.5850  178.6680  140.0210 C   0  0  0  0  0  0  0  0  0  0  0  0
  191.7390  176.5210  144.0330 N   0  0  0  0  0  0  0  0  0  0  0  0
  187.4410  178.1620  138.2930 C   0  0  0  0  0  2  0  0  0  0  0  0
  185.2960  176.9840  137.5950 C   0  0  2  0  0  3  0  0  0  0  0  0
  186.0290  178.1440  146.2180 C   0  0  0  0  0  2  0  0  0  0  0  0
  186.5170  178.1530  144.7820 C   0  0  0  0  0  0  0  0  0  0  0  0
  188.6930  177.4200  145.5720 C   0  0  0  0  0  3  0  0  0  0  0  0
  187.7700  177.9290  140.7370 C   0  0  0  0  0  3  0  0  0  0  0  0
  190.2980  177.0950  141.5590 C   0  0  0  0  0  1  0  0  0  0  0  0
  191.0600  176.5720  147.5680 C   0  0  0  0  0  1  0  0  0  0  0  0
  188.3050  177.6550  143.1380 C   0  0  0  0  0  0  0  0  0  0  0  0
  189.9840  177.0220  145.2860 C   0  0  0  0  0  0  0  0  0  0  0  0
  184.7920  176.1650  136.4190 C   0  0  0  0  0  2  0  0  0  0  0  0
  184.9740  174.7080  136.6730 C   0  0  0  0  0  0  0  0  0  0  0  0
  184.1610  174.0540  137.5890 O   0  0  0  0  0  1  0  0  0  0  0  0
  185.8440  174.0610  136.0330 O   0  0  0  0  0  0  0  0  0  0  0  0
  1 10  1  0  0  0  0
  2 12  1  0  0  0  0
  2 27  1  0  0  0  0
  3  4  1  0  0  0  0
  5 27  2  0  0  0  0
  5  6  1  0  0  0  0
  6 18  2  0  0  0  0
  6 28  1  0  0  0  0
  7 17  2  0  0  0  0
  7 24  1  0  0  0  0
  8 12  2  0  0  0  0
  9 26  1  0  0  0  0
 10 17  1  0  0  0  0
 11  3  1  0  0  0  0
 12 13  1  0  0  0  0
 13 11  1  0  0  0  0
 13 22  2  0  0  0  0
 14 22  1  0  0  0  0
 14 23  2  0  0  0  0
 15  9  1  0  0  0  0
 16 20  1  0  0  0  0
 16 19  1  0  0  0  0
 17  8  1  0  0  0  0
 18 15  1  0  0  0  0
 19  7  1  0  0  0  0
 20 29  1  6  0  0  0
 20  1  1  0  0  0  0
 21  4  1  0  0  0  0
 22 21  1  0  0  0  0
 24  2  2  0  0  0  0
 25  5  1  0  0  0  0
 27 14  1  0  0  0  0
 28 23  1  0  0  0  0
 28  9  2  0  0  0  0
 29 30  1  0  0  0  0
 30 31  1  0  0  0  0
 32 30  2  0  0  0  0
M  END
>  <MODEL>
3

>  <REMARK>
 VINA RESULT:     -10.9      2.111      2.751
  Name = 
  2 active torsions:
  status: ('A' for Active; 'I' for Inactive)
    1  A    between atoms: C_1  and  C_10
    2  A    between atoms: C_10  and  C_24
                            x       y       z     vdW  Elec       q    Type
                         _______ _______ _______ _____ _____    ______ ____

>  <TORSDO>
F 2

$$$$
=
 OpenBabel10262421223D

 32 37  0  0  1  0  0  0  0  0999 V2000
  181.7350  177.9820  139.8310 C   0  0  0  0  0  2  0  0  0  0  0  0
  186.2760  178.1670  142.1420 C   0  0  0  0  0  0  0  0  0  0  0  0
  184.2280  178.2560  146.6790 C   0  0  0  0  0  2  0  0  0  0  0  0
  185.5790  178.6570  147.2370 C   0  0  0  0  0  2  0  0  0  0  0  0
  188.7160  177.5460  141.9220 C   0  0  0  0  0  0  0  0  0  0  0  0
  189.8960  177.2320  142.5960 C   0  0  0  0  0  0  0  0  0  0  0  0
  184.8480  178.5550  140.1820 C   0  0  0  0  0  0  0  0  0  0  0  0
  183.9280  178.7730  142.4110 C   0  0  0  0  0  3  0  0  0  0  0  0
  191.2680  176.8540  144.2270 C   0  0  0  0  0  0  0  0  0  0  0  0
  182.4040  179.1860  140.5010 C   0  0  0  0  0  2  0  0  0  0  0  0
  184.1130  178.7700  145.2520 C   0  0  0  0  0  2  0  0  0  0  0  0
  185.1670  178.4400  142.9840 C   0  0  0  0  0  0  0  0  0  0  0  0
  185.2920  178.3830  144.3830 C   0  0  0  0  0  0  0  0  0  0  0  0
  187.6520  177.7910  144.1460 C   0  0  0  0  0  0  0  0  0  0  0  0
  191.8960  176.7080  143.0770 O   0  0  0  0  0  0  0  0  0  0  0  0
  183.4340  178.3490  138.0070 C   0  0  0  0  0  2  0  0  0  0  0  0
  183.7600  178.8410  141.0290 C   0  0  0  0  0  0  0  0  0  0  0  0
  191.0980  176.9290  142.0650 N   0  0  0  0  0  0  0  0  0  0  0  0
  184.7930  178.6110  138.6710 C   0  0  0  0  0  2  0  0  0  0  0  0
  182.6050  177.3130  138.7630 C   0  0  2  0  0  3  0  0  0  0  0  0
  186.6660  177.9200  146.4680 C   0  0  0  0  0  2  0  0  0  0  0  0
  186.5390  178.0700  144.9640 C   0  0  0  0  0  0  0  0  0  0  0  0
  188.8820  177.4640  144.7590 C   0  0  0  0  0  3  0  0  0  0  0  0
  186.0810  178.2350  140.7520 C   0  0  0  0  0  3  0  0  0  0  0  0
  188.7630  177.5550  140.4270 C   0  0  0  0  0  1  0  0  0  0  0  0
  191.8860  176.6750  145.5690 C   0  0  0  0  0  1  0  0  0  0  0  0
  187.5430  177.8380  142.7090 C   0  0  0  0  0  0  0  0  0  0  0  0
  189.9680  177.1940  143.9500 C   0  0  0  0  0  0  0  0  0  0  0  0
  181.7130  176.5410  137.8060 C   0  0  0  0  0  2  0  0  0  0  0  0
  182.0930  175.1000  137.7760 C   0  0  0  0  0  0  0  0  0  0  0  0
  183.4160  174.7250  137.9700 O   0  0  0  0  0  1  0  0  0  0  0  0
  181.2100  174.2190  137.6060 O   0  0  0  0  0  0  0  0  0  0  0  0
  1 10  1  0  0  0  0
  2 27  1  0  0  0  0
  2 12  1  0  0  0  0
  3  4  1  0  0  0  0
  5  6  1  0  0  0  0
  5 27  2  0  0  0  0
  6 28  1  0  0  0  0
  7 24  1  0  0  0  0
  7 17  2  0  0  0  0
  8 12  2  0  0  0  0
  9 26  1  0  0  0  0
 10 17  1  0  0  0  0
 11  3  1  0  0  0  0
 12 13  1  0  0  0  0
 13 22  2  0  0  0  0
 13 11  1  0  0  0  0
 14 23  2  0  0  0  0
 14 22  1  0  0  0  0
 15  9  1  0  0  0  0
 16 19  1  0  0  0  0
 16 20  1  0  0  0  0
 17  8  1  0  0  0  0
 18  6  2  0  0  0  0
 18 15  1  0  0  0  0
 19  7  1  0  0  0  0
 20 29  1  6  0  0  0
 20  1  1  0  0  0  0
 21  4  1  0  0  0  0
 22 21  1  0  0  0  0
 24  2  2  0  0  0  0
 25  5  1  0  0  0  0
 27 14  1  0  0  0  0
 28  9  2  0  0  0  0
 28 23  1  0  0  0  0
 30 29  1  0  0  0  0
 30 31  1  0  0  0  0
 32 30  2  0  0  0  0
M  END
>  <MODEL>
4

>  <REMARK>
 VINA RESULT:     -10.5      2.935      4.541
  Name = 
  2 active torsions:
  status: ('A' for Active; 'I' for Inactive)
    1  A    between atoms: C_1  and  C_10
    2  A    between atoms: C_10  and  C_24
                            x       y       z     vdW  Elec       q    Type
                         _______ _______ _______ _____ _____    ______ ____

>  <TORSDO>
F 2

$$$$
=
 OpenBabel10262421223D

 32 37  0  0  1  0  0  0  0  0999 V2000
  181.9060  180.4850  137.9540 C   0  0  0  0  0  2  0  0  0  0  0  0
  184.4390  178.6340  141.9740 C   0  0  0  0  0  0  0  0  0  0  0  0
  188.7220  178.3670  139.4500 C   0  0  0  0  0  2  0  0  0  0  0  0
  189.2810  177.5120  140.5700 C   0  0  0  0  0  2  0  0  0  0  0  0
  184.5090  178.5670  144.4990 C   0  0  0  0  0  0  0  0  0  0  0  0
  185.3090  178.4160  145.6310 C   0  0  0  0  0  0  0  0  0  0  0  0
  182.3480  179.0030  140.7380 C   0  0  0  0  0  0  0  0  0  0  0  0
  184.4240  178.6830  139.5350 C   0  0  0  0  0  3  0  0  0  0  0  0
  187.0720  178.1090  146.8500 C   0  0  0  0  0  0  0  0  0  0  0  0
  182.3730  179.0460  138.1940 C   0  0  0  0  0  2  0  0  0  0  0  0
  187.2180  178.1550  139.3740 C   0  0  0  0  0  2  0  0  0  0  0  0
  185.1340  178.5500  140.7390 C   0  0  0  0  0  0  0  0  0  0  0  0
  186.5230  178.3320  140.7080 C   0  0  0  0  0  0  0  0  0  0  0  0
  186.5660  178.2630  143.1510 C   0  0  0  0  0  0  0  0  0  0  0  0
  186.0180  178.2630  147.6270 O   0  0  0  0  0  0  0  0  0  0  0  0
  180.1650  179.9640  139.6990 C   0  0  0  0  0  2  0  0  0  0  0  0
  183.0480  178.8990  139.5200 C   0  0  0  0  0  0  0  0  0  0  0  0
  184.9310  178.4510  146.9250 N   0  0  0  0  0  0  0  0  0  0  0  0
  180.8550  179.2200  140.8500 C   0  0  0  0  0  2  0  0  0  0  0  0
  181.0500  181.0500  139.0910 C   0  0  2  0  0  3  0  0  0  0  0  0
  188.7460  178.0290  141.8970 C   0  0  0  0  0  2  0  0  0  0  0  0
  187.2370  178.1770  141.9150 C   0  0  0  0  0  0  0  0  0  0  0  0
  187.3120  178.1200  144.3410 C   0  0  0  0  0  3  0  0  0  0  0  0
  183.0520  178.8600  141.9340 C   0  0  0  0  0  3  0  0  0  0  0  0
  183.0470  178.7970  144.7200 C   0  0  0  0  0  1  0  0  0  0  0  0
  188.4620  177.8780  147.3290 C   0  0  0  0  0  1  0  0  0  0  0  0
  185.1430  178.4910  143.2060 C   0  0  0  0  0  0  0  0  0  0  0  0
  186.6470  178.2030  145.5490 C   0  0  0  0  0  0  0  0  0  0  0  0
  180.2040  182.1930  138.5570 C   0  0  0  0  0  2  0  0  0  0  0  0
  180.9760  183.0080  137.5770 C   0  0  0  0  0  0  0  0  0  0  0  0
  180.6110  183.0150  136.2370 O   0  0  0  0  0  0  0  0  0  0  0  0
  181.9410  183.7160  137.9680 O   0  0  0  0  0  1  0  0  0  0  0  0
  1 10  1  0  0  0  0
  1 20  1  0  0  0  0
  2 27  1  0  0  0  0
  3  4  1  0  0  0  0
  4 21  1  0  0  0  0
  5 25  1  0  0  0  0
  5  6  1  0  0  0  0
  6 18  2  0  0  0  0
  7 19  1  0  0  0  0
  7 24  2  0  0  0  0
  8 12  1  0  0  0  0
  9 26  1  0  0  0  0
  9 15  1  0  0  0  0
 10 17  1  0  0  0  0
 11  3  1  0  0  0  0
 11 13  1  0  0  0  0
 12  2  2  0  0  0  0
 13 12  1  0  0  0  0
 13 22  2  0  0  0  0
 14 27  1  0  0  0  0
 14 23  2  0  0  0  0
 16 19  1  0  0  0  0
 17  8  2  0  0  0  0
 17  7  1  0  0  0  0
 18 15  1  0  0  0  0
 20 29  1  6  0  0  0
 20 16  1  0  0  0  0
 21 22  1  0  0  0  0
 22 14  1  0  0  0  0
 23 28  1  0  0  0  0
 24  2  1  0  0  0  0
 27  5  2  0  0  0  0
 28  6  1  0  0  0  0
 28  9  2  0  0  0  0
 30 32  1  0  0  0  0
 30 29  1  0  0  0  0
 31 30  2  0  0  0  0
M  END
>  <MODEL>
5

>  <REMARK>
 VINA RESULT:      -9.9      4.301      6.733
  Name = 
  2 active torsions:
  status: ('A' for Active; 'I' for Inactive)
    1  A    between atoms: C_1  and  C_10
    2  A    between atoms: C_10  and  C_24
                            x       y       z     vdW  Elec       q    Type
                         _______ _______ _______ _____ _____    ______ ____

>  <TORSDO>
F 2

$$$$
=
 OpenBabel10262421223D

 32 37  0  0  1  0  0  0  0  0999 V2000
  191.8750  176.5040  143.5530 C   0  0  0  0  0  2  0  0  0  0  0  0
  187.1660  178.2680  142.7090 C   0  0  0  0  0  0  0  0  0  0  0  0
  187.5990  177.7440  137.7770 C   0  0  0  0  0  2  0  0  0  0  0  0
  186.3520  178.5910  137.6180 C   0  0  0  0  0  2  0  0  0  0  0  0
  184.8570  178.5090  143.7080 C   0  0  0  0  0  0  0  0  0  0  0  0
  183.4910  178.6280  143.4510 C   0  0  0  0  0  0  0  0  0  0  0  0
  189.1800  178.1080  144.1060 C   0  0  0  0  0  0  0  0  0  0  0  0
  189.3730  178.0440  141.6930 C   0  0  0  0  0  3  0  0  0  0  0  0
  181.6340  178.7710  142.3490 C   0  0  0  0  0  0  0  0  0  0  0  0
  191.4640  177.8770  143.0110 C   0  0  0  0  0  2  0  0  0  0  0  0
  188.3170  178.1600  139.0520 C   0  0  0  0  0  2  0  0  0  0  0  0
  187.9800  178.1630  141.5520 C   0  0  0  0  0  0  0  0  0  0  0  0
  187.4110  178.1800  140.2660 C   0  0  0  0  0  0  0  0  0  0  0  0
  185.1890  178.4210  141.2540 C   0  0  0  0  0  0  0  0  0  0  0  0
  181.3860  178.8240  143.6430 O   0  0  0  0  0  0  0  0  0  0  0  0
  191.0530  177.3910  145.7640 C   0  0  0  0  0  2  0  0  0  0  0  0
  189.9780  178.0240  142.9480 C   0  0  0  0  0  0  0  0  0  0  0  0
  182.4870  178.7410  144.3440 N   0  0  0  0  0  0  0  0  0  0  0  0
  189.7210  178.1130  145.5190 C   0  0  0  0  0  2  0  0  0  0  0  0
  191.2140  176.1510  144.8890 C   0  0  2  0  0  3  0  0  0  0  0  0
  185.3820  178.2530  138.7410 C   0  0  0  0  0  2  0  0  0  0  0  0
  186.0150  178.3210  140.1170 C   0  0  0  0  0  0  0  0  0  0  0  0
  183.7940  178.5430  141.0720 C   0  0  0  0  0  3  0  0  0  0  0  0
  187.7980  178.2380  143.9640 C   0  0  0  0  0  3  0  0  0  0  0  0
  185.2860  178.5040  145.1410 C   0  0  0  0  0  1  0  0  0  0  0  0
  180.6030  178.8390  141.2770 C   0  0  0  0  0  1  0  0  0  0  0  0
  185.7510  178.3990  142.5820 C   0  0  0  0  0  0  0  0  0  0  0  0
  182.9900  178.6430  142.1900 C   0  0  0  0  0  0  0  0  0  0  0  0
  192.0550  175.1020  145.5970 C   0  0  0  0  0  2  0  0  0  0  0  0
  192.0640  175.3380  147.0680 C   0  0  0  0  0  0  0  0  0  0  0  0
  193.2560  175.6310  147.7190 O   0  0  0  0  0  1  0  0  0  0  0  0
  190.9870  175.3030  147.7180 O   0  0  0  0  0  0  0  0  0  0  0  0
  1 20  1  0  0  0  0
  2 24  1  0  0  0  0
  3 11  1  0  0  0  0
  4  3  1  0  0  0  0
  4 21  1  0  0  0  0
  5 25  1  0  0  0  0
  6  5  1  0  0  0  0
  6 18  2  0  0  0  0
  7 19  1  0  0  0  0
  8 17  2  0  0  0  0
  9 15  1  0  0  0  0
 10  1  1  0  0  0  0
 11 13  1  0  0  0  0
 12  8  1  0  0  0  0
 12  2  2  0  0  0  0
 13 12  1  0  0  0  0
 14 27  1  0  0  0  0
 15 18  1  0  0  0  0
 17 10  1  0  0  0  0
 17  7  1  0  0  0  0
 19 16  1  0  0  0  0
 20 29  1  1  0  0  0
 20 16  1  0  0  0  0
 21 22  1  0  0  0  0
 22 13  2  0  0  0  0
 22 14  1  0  0  0  0
 23 14  2  0  0  0  0
 23 28  1  0  0  0  0
 24  7  2  0  0  0  0
 26  9  1  0  0  0  0
 27  2  1  0  0  0  0
 27  5  2  0  0  0  0
 28  9  2  0  0  0  0
 28  6  1  0  0  0  0
 29 30  1  0  0  0  0
 30 32  2  0  0  0  0
 30 31  1  0  0  0  0
M  END
>  <MODEL>
6

>  <REMARK>
 VINA RESULT:      -9.2      3.515      6.912
  Name = 
  2 active torsions:
  status: ('A' for Active; 'I' for Inactive)
    1  A    between atoms: C_1  and  C_10
    2  A    between atoms: C_10  and  C_24
                            x       y       z     vdW  Elec       q    Type
                         _______ _______ _______ _____ _____    ______ ____

>  <TORSDO>
F 2

$$$$
