=
 OpenBabel10262421013D

 32 37  0  0  1  0  0  0  0  0999 V2000
  189.3140  177.2270  139.4070 C   0  0  2  0  0  0  0  0  0  0  0  0
  188.6710  177.7980  141.8370 C   0  0  2  0  0  3  0  0  0  0  0  0
  188.7500  176.4540  136.2660 O   0  0  0  0  0  1  0  0  0  0  0  0
  188.8590  176.2150  138.5350 O   0  0  0  0  0  0  0  0  0  0  0  0
  189.1680  176.7180  140.8570 C   0  0  2  0  0  3  0  0  0  0  0  0
  188.5460  177.2360  143.2760 C   0  0  2  0  0  3  0  0  0  0  0  0
  183.7290  179.0670  142.3810 C   0  0  0  0  0  2  0  0  0  0  0  0
  187.3880  178.4050  141.2980 C   0  0  0  0  0  0  0  0  0  0  0  0
  185.0680  178.3680  144.3850 C   0  0  0  0  0  2  0  0  0  0  0  0
  186.1760  177.8810  143.4570 C   0  0  2  0  0  3  0  0  0  0  0  0
  190.5570  176.2770  141.1940 C   0  0  0  0  0  2  0  0  0  0  0  0
  188.1590  178.3580  137.6450 C   0  0  2  0  0  0  0  0  0  0  0  0
  187.5150  177.9410  144.1560 C   0  0  0  0  0  2  0  0  0  0  0  0
  188.1370  176.8100  137.4740 C   0  0  1  0  0  0  0  0  0  0  0  0
  191.4100  177.1340  140.3010 C   0  0  0  0  0  2  0  0  0  0  0  0
  189.2740  179.0310  136.8320 C   0  0  0  0  0  1  0  0  0  0  0  0
  187.3630  178.7590  140.0080 C   0  0  0  0  0  3  0  0  0  0  0  0
  188.5460  178.5230  139.0980 C   0  0  1  0  0  3  0  0  0  0  0  0
  186.2050  178.7360  142.1880 C   0  0  2  0  0  3  0  0  0  0  0  0
  190.6840  177.4520  139.1410 O   0  0  0  0  0  0  0  0  0  0  0  0
  183.7190  178.2590  143.6780 C   0  0  0  0  0  2  0  0  0  0  0  0
  184.8590  178.5970  141.4680 C   0  0  0  0  0  2  0  0  0  0  0  0
  185.9890  176.7040  136.3670 O   0  0  0  0  0  1  0  0  0  0  0  0
  186.7090  176.2240  137.4660 C   0  0  1  0  0  3  0  0  0  0  0  0
  186.7270  174.7700  137.4300 N   0  0  0  0  0  2  0  0  0  0  0  0
  185.4610  174.3640  137.1780 O   0  0  0  0  0  1  0  0  0  0  0  0
  187.1620  179.9970  136.5570 O   0  0  0  0  0  1  0  0  0  0  0  0
  186.9180  178.9790  137.3640 O   0  0  0  0  0  0  0  0  0  0  0  0
  189.7910  177.0860  143.9280 O   0  0  0  0  0  0  0  0  0  0  0  0
  191.5480  178.6930  143.9490 C   0  0  0  0  0  2  0  0  0  0  0  0
  190.1720  178.3260  144.4690 C   0  0  0  0  0  3  0  0  0  0  0  0
  191.3920  178.1310  145.3450 C   0  0  0  0  0  2  0  0  0  0  0  0
  1  4  1  6  0  0  0
  1  5  1  0  0  0  0
  2  8  1  6  0  0  0
  2  6  1  0  0  0  0
  5 11  1  1  0  0  0
  5  2  1  0  0  0  0
  6 29  1  1  0  0  0
  6 13  1  0  0  0  0
  7 21  1  0  0  0  0
  8 19  1  0  0  0  0
 10 13  1  1  0  0  0
 10  9  1  0  0  0  0
 12 16  1  6  0  0  0
 12 18  1  0  0  0  0
 14  3  1  6  0  0  0
 14 12  1  0  0  0  0
 14  4  1  0  0  0  0
 15 11  1  0  0  0  0
 17  8  2  0  0  0  0
 18  1  1  0  0  0  0
 18 17  1  1  0  0  0
 19 22  1  6  0  0  0
 19 10  1  0  0  0  0
 20  1  1  0  0  0  0
 20 15  1  0  0  0  0
 21  9  1  0  0  0  0
 22  7  1  0  0  0  0
 24 23  1  6  0  0  0
 24 14  1  0  0  0  0
 25 24  1  0  0  0  0
 26 25  1  0  0  0  0
 27 28  1  0  0  0  0
 28 12  1  0  0  0  0
 29 31  1  0  0  0  0
 30 31  1  0  0  0  0
 30 32  1  0  0  0  0
 31 32  1  0  0  0  0
M  END
>  <MODEL>
1

>  <REMARK>
 VINA RESULT:      -7.0      0.000      0.000
  Name = 
  5 active torsions:
  status: ('A' for Active; 'I' for Inactive)
    1  A    between atoms: C_6  and  O_29
    2  A    between atoms: N_15  and  C_26
    3  A    between atoms: C_16  and  O_22
    4  A    between atoms: C_18  and  O_29
    5  A    between atoms: C_19  and  C_26
                            x       y       z     vdW  Elec       q    Type
                         _______ _______ _______ _____ _____    ______ ____

>  <TORSDO>
F 5

$$$$
=
 OpenBabel10262421013D

 32 37  0  0  1  0  0  0  0  0999 V2000
  189.3420  176.7800  138.0200 C   0  0  2  0  0  0  0  0  0  0  0  0
  188.8630  177.8720  140.3050 C   0  0  2  0  0  3  0  0  0  0  0  0
  188.5800  175.2340  135.2250 O   0  0  0  0  0  1  0  0  0  0  0  0
  188.9120  175.5580  137.4620 O   0  0  0  0  0  0  0  0  0  0  0  0
  189.3740  176.6260  139.5550 C   0  0  2  0  0  3  0  0  0  0  0  0
  188.9200  177.6650  141.8400 C   0  0  2  0  0  3  0  0  0  0  0  0
  183.8890  178.8720  141.0720 C   0  0  0  0  0  2  0  0  0  0  0  0
  187.4850  178.2360  139.7820 C   0  0  0  0  0  0  0  0  0  0  0  0
  185.4610  178.7750  143.0270 C   0  0  0  0  0  2  0  0  0  0  0  0
  186.5240  178.1610  142.1230 C   0  0  2  0  0  3  0  0  0  0  0  0
  190.8230  176.3820  139.8330 C   0  0  0  0  0  2  0  0  0  0  0  0
  187.9320  177.3670  136.1790 C   0  0  2  0  0  0  0  0  0  0  0  0
  187.9070  178.4850  142.6390 C   0  0  0  0  0  2  0  0  0  0  0  0
  188.0450  175.8260  136.3760 C   0  0  1  0  0  0  0  0  0  0  0  0
  191.5080  177.0580  138.6790 C   0  0  0  0  0  2  0  0  0  0  0  0
  188.9010  177.9030  135.1160 C   0  0  0  0  0  1  0  0  0  0  0  0
  187.3120  178.2660  138.4560 C   0  0  0  0  0  3  0  0  0  0  0  0
  188.4280  177.9050  137.5040 C   0  0  1  0  0  3  0  0  0  0  0  0
  186.3590  178.6850  140.6940 C   0  0  2  0  0  3  0  0  0  0  0  0
  190.6540  177.0340  137.5620 O   0  0  0  0  0  0  0  0  0  0  0  0
  184.0710  178.4020  142.5150 C   0  0  0  0  0  2  0  0  0  0  0  0
  184.9740  178.2790  140.1770 C   0  0  0  0  0  2  0  0  0  0  0  0
  186.0770  174.7540  135.4650 O   0  0  0  0  0  1  0  0  0  0  0  0
  186.6850  175.1520  136.6600 C   0  0  1  0  0  3  0  0  0  0  0  0
  186.8300  173.9980  137.5320 N   0  0  0  0  0  2  0  0  0  0  0  0
  185.6210  173.3920  137.5940 O   0  0  0  0  0  1  0  0  0  0  0  0
  186.5430  178.0150  134.5940 O   0  0  0  0  0  1  0  0  0  0  0  0
  186.6170  177.8090  135.8980 O   0  0  0  0  0  0  0  0  0  0  0  0
  190.2270  177.7680  142.3700 O   0  0  0  0  0  0  0  0  0  0  0  0
  191.5160  178.9410  143.9920 C   0  0  0  0  0  2  0  0  0  0  0  0
  190.1570  178.3740  143.6360 C   0  0  0  0  0  3  0  0  0  0  0  0
  191.0640  177.6290  144.5930 C   0  0  0  0  0  2  0  0  0  0  0  0
  1  4  1  6  0  0  0
  1  5  1  0  0  0  0
  2  8  1  6  0  0  0
  2  6  1  0  0  0  0
  5 11  1  1  0  0  0
  5  2  1  0  0  0  0
  6 29  1  1  0  0  0
  6 13  1  0  0  0  0
  7 21  1  0  0  0  0
  8 19  1  0  0  0  0
 10 13  1  1  0  0  0
 10  9  1  0  0  0  0
 12 16  1  6  0  0  0
 12 14  1  0  0  0  0
 12 18  1  0  0  0  0
 14  3  1  6  0  0  0
 14 24  1  0  0  0  0
 14  4  1  0  0  0  0
 15 11  1  0  0  0  0
 17  8  2  0  0  0  0
 18  1  1  0  0  0  0
 18 17  1  1  0  0  0
 19 22  1  6  0  0  0
 19 10  1  0  0  0  0
 20  1  1  0  0  0  0
 20 15  1  0  0  0  0
 21  9  1  0  0  0  0
 22  7  1  0  0  0  0
 24 23  1  6  0  0  0
 24 25  1  0  0  0  0
 25 26  1  0  0  0  0
 27 28  1  0  0  0  0
 28 12  1  0  0  0  0
 29 31  1  0  0  0  0
 30 32  1  0  0  0  0
 31 30  1  0  0  0  0
 31 32  1  0  0  0  0
M  END
>  <MODEL>
2

>  <REMARK>
 VINA RESULT:      -6.7      1.276      1.548
  Name = 
  5 active torsions:
  status: ('A' for Active; 'I' for Inactive)
    1  A    between atoms: C_6  and  O_29
    2  A    between atoms: N_15  and  C_26
    3  A    between atoms: C_16  and  O_22
    4  A    between atoms: C_18  and  O_29
    5  A    between atoms: C_19  and  C_26
                            x       y       z     vdW  Elec       q    Type
                         _______ _______ _______ _____ _____    ______ ____

>  <TORSDO>
F 5

$$$$
=
 OpenBabel10262421013D

 32 37  0  0  1  0  0  0  0  0999 V2000
  185.1610  178.3660  138.6880 C   0  0  2  0  0  0  0  0  0  0  0  0
  187.0640  178.4880  140.4210 C   0  0  2  0  0  3  0  0  0  0  0  0
  182.1130  177.7520  137.6300 O   0  0  0  0  0  1  0  0  0  0  0  0
  184.2260  177.3490  138.3990 O   0  0  0  0  0  0  0  0  0  0  0  0
  186.4350  177.7040  139.2520 C   0  0  2  0  0  3  0  0  0  0  0  0
  188.3410  177.7840  140.9460 C   0  0  2  0  0  3  0  0  0  0  0  0
  185.4190  178.1480  145.2680 C   0  0  0  0  0  2  0  0  0  0  0  0
  186.0080  178.7260  141.4850 C   0  0  0  0  0  0  0  0  0  0  0  0
  187.8300  177.7030  144.7330 C   0  0  0  0  0  2  0  0  0  0  0  0
  187.4780  177.6620  143.2500 C   0  0  2  0  0  3  0  0  0  0  0  0
  187.3460  177.6750  138.0660 C   0  0  0  0  0  2  0  0  0  0  0  0
  183.0270  179.2530  139.3010 C   0  0  2  0  0  0  0  0  0  0  0  0
  188.6720  178.0600  142.4120 C   0  0  0  0  0  2  0  0  0  0  0  0
  182.9330  177.7940  138.7640 C   0  0  1  0  0  0  0  0  0  0  0  0
  186.8580  178.8290  137.2360 C   0  0  0  0  0  2  0  0  0  0  0  0
  182.7280  180.3040  138.2220 C   0  0  0  0  0  1  0  0  0  0  0  0
  184.8130  179.1740  141.0840 C   0  0  0  0  0  3  0  0  0  0  0  0
  184.4980  179.3920  139.6220 C   0  0  1  0  0  3  0  0  0  0  0  0
  186.3020  178.6000  142.9680 C   0  0  2  0  0  3  0  0  0  0  0  0
  185.4860  179.0180  137.4770 O   0  0  0  0  0  0  0  0  0  0  0  0
  186.6260  177.2580  145.5600 C   0  0  0  0  0  2  0  0  0  0  0  0
  185.0890  178.1270  143.7780 C   0  0  0  0  0  2  0  0  0  0  0  0
  180.9700  176.9850  139.9240 O   0  0  0  0  0  1  0  0  0  0  0  0
  182.3510  176.8060  139.7990 C   0  0  1  0  0  3  0  0  0  0  0  0
  182.6250  175.4250  139.4340 N   0  0  0  0  0  2  0  0  0  0  0  0
  181.4740  174.9090  138.9440 O   0  0  0  0  0  1  0  0  0  0  0  0
  181.1580  180.1670  140.0350 O   0  0  0  0  0  1  0  0  0  0  0  0
  182.2210  179.4920  140.4400 O   0  0  0  0  0  0  0  0  0  0  0  0
  189.4630  177.9580  140.1040 O   0  0  0  0  0  0  0  0  0  0  0  0
  191.7670  177.3660  140.2090 C   0  0  0  0  0  2  0  0  0  0  0  0
  190.3360  176.8710  140.2790 C   0  0  0  0  0  3  0  0  0  0  0  0
  191.1450  176.6760  139.0140 C   0  0  0  0  0  2  0  0  0  0  0  0
  1 20  1  6  0  0  0
  1  5  1  0  0  0  0
  1 18  1  0  0  0  0
  2  6  1  0  0  0  0
  2  8  1  1  0  0  0
  4  1  1  0  0  0  0
  4 14  1  0  0  0  0
  5 11  1  6  0  0  0
  5  2  1  0  0  0  0
  6 29  1  6  0  0  0
  6 13  1  0  0  0  0
  7 21  1  0  0  0  0
  8 19  1  0  0  0  0
  9 21  1  0  0  0  0
 10 13  1  6  0  0  0
 10  9  1  0  0  0  0
 12 16  1  6  0  0  0
 12 18  1  0  0  0  0
 12 28  1  0  0  0  0
 14  3  1  6  0  0  0
 14 12  1  0  0  0  0
 14 24  1  0  0  0  0
 15 20  1  0  0  0  0
 15 11  1  0  0  0  0
 17  8  2  0  0  0  0
 18 17  1  1  0  0  0
 19 10  1  0  0  0  0
 19 22  1  1  0  0  0
 22  7  1  0  0  0  0
 24 23  1  6  0  0  0
 25 24  1  0  0  0  0
 26 25  1  0  0  0  0
 27 28  1  0  0  0  0
 29 31  1  0  0  0  0
 30 31  1  0  0  0  0
 32 30  1  0  0  0  0
 32 31  1  0  0  0  0
M  END
>  <MODEL>
3

>  <REMARK>
 VINA RESULT:      -6.3      2.843      4.521
  Name = 
  5 active torsions:
  status: ('A' for Active; 'I' for Inactive)
    1  A    between atoms: C_6  and  O_29
    2  A    between atoms: N_15  and  C_26
    3  A    between atoms: C_16  and  O_22
    4  A    between atoms: C_18  and  O_29
    5  A    between atoms: C_19  and  C_26
                            x       y       z     vdW  Elec       q    Type
                         _______ _______ _______ _____ _____    ______ ____

>  <TORSDO>
F 5

$$$$
=
 OpenBabel10262421013D

 32 37  0  0  1  0  0  0  0  0999 V2000
  189.3880  177.5920  141.7760 C   0  0  2  0  0  0  0  0  0  0  0  0
  186.8280  177.8780  141.8360 C   0  0  2  0  0  3  0  0  0  0  0  0
  192.4300  177.6160  143.0120 O   0  0  0  0  0  1  0  0  0  0  0  0
  190.4300  178.4160  142.2520 O   0  0  0  0  0  0  0  0  0  0  0  0
  188.1820  178.4890  141.4290 C   0  0  2  0  0  3  0  0  0  0  0  0
  185.6530  178.8160  141.4600 C   0  0  2  0  0  3  0  0  0  0  0  0
  184.9250  178.1270  146.5940 C   0  0  0  0  0  2  0  0  0  0  0  0
  186.8740  177.5030  143.3060 C   0  0  0  0  0  0  0  0  0  0  0  0
  183.5650  178.9650  144.6580 C   0  0  0  0  0  2  0  0  0  0  0  0
  184.8020  178.8810  143.7710 C   0  0  2  0  0  3  0  0  0  0  0  0
  188.2910  178.6280  139.9430 C   0  0  0  0  0  2  0  0  0  0  0  0
  190.4220  176.3700  143.5530 C   0  0  2  0  0  0  0  0  0  0  0  0
  184.4050  178.6650  142.3290 C   0  0  0  0  0  2  0  0  0  0  0  0
  191.0760  177.7660  143.3310 C   0  0  1  0  0  0  0  0  0  0  0  0
  189.0110  177.3730  139.5370 C   0  0  0  0  0  2  0  0  0  0  0  0
  191.1810  175.2390  142.8440 C   0  0  0  0  0  1  0  0  0  0  0  0
  187.9480  176.8360  143.7430 C   0  0  0  0  0  3  0  0  0  0  0  0
  189.1020  176.5050  142.8260 C   0  0  1  0  0  3  0  0  0  0  0  0
  185.7060  177.7400  144.2450 C   0  0  2  0  0  3  0  0  0  0  0  0
  189.8370  176.9560  140.5960 O   0  0  0  0  0  0  0  0  0  0  0  0
  183.9840  179.2260  146.1030 C   0  0  0  0  0  2  0  0  0  0  0  0
  186.1480  178.0270  145.6850 C   0  0  0  0  0  2  0  0  0  0  0  0
  191.3050  179.9980  144.2360 O   0  0  0  0  0  1  0  0  0  0  0  0
  190.9860  178.6790  144.5740 C   0  0  1  0  0  3  0  0  0  0  0  0
  189.6590  178.6440  145.1690 N   0  0  0  0  0  2  0  0  0  0  0  0
  189.8150  178.2750  146.4630 O   0  0  0  0  0  1  0  0  0  0  0  0
  191.3990  175.6280  145.3860 O   0  0  0  0  0  1  0  0  0  0  0  0
  190.2340  176.0410  144.9170 O   0  0  0  0  0  0  0  0  0  0  0  0
  185.3470  178.8060  140.0800 O   0  0  0  0  0  0  0  0  0  0  0  0
  183.6520  178.3610  138.4690 C   0  0  0  0  0  2  0  0  0  0  0  0
  183.9590  178.6540  139.9230 C   0  0  0  0  0  3  0  0  0  0  0  0
  183.4390  179.7530  139.0200 C   0  0  0  0  0  2  0  0  0  0  0  0
  1 20  1  6  0  0  0
  1  4  1  0  0  0  0
  1 18  1  0  0  0  0
  2  8  1  1  0  0  0
  4 14  1  0  0  0  0
  5 11  1  6  0  0  0
  5  1  1  0  0  0  0
  5  2  1  0  0  0  0
  6 29  1  6  0  0  0
  6  2  1  0  0  0  0
  6 13  1  0  0  0  0
  8 17  2  0  0  0  0
  8 19  1  0  0  0  0
  9 21  1  0  0  0  0
 10 13  1  6  0  0  0
 10 19  1  0  0  0  0
 10  9  1  0  0  0  0
 12 16  1  6  0  0  0
 12 28  1  0  0  0  0
 14  3  1  6  0  0  0
 14 12  1  0  0  0  0
 14 24  1  0  0  0  0
 15 11  1  0  0  0  0
 15 20  1  0  0  0  0
 18 12  1  0  0  0  0
 18 17  1  1  0  0  0
 19 22  1  1  0  0  0
 21  7  1  0  0  0  0
 22  7  1  0  0  0  0
 24 23  1  6  0  0  0
 24 25  1  0  0  0  0
 25 26  1  0  0  0  0
 28 27  1  0  0  0  0
 30 32  1  0  0  0  0
 30 31  1  0  0  0  0
 31 29  1  0  0  0  0
 32 31  1  0  0  0  0
M  END
>  <MODEL>
4

>  <REMARK>
 VINA RESULT:      -6.0      2.763      6.256
  Name = 
  5 active torsions:
  status: ('A' for Active; 'I' for Inactive)
    1  A    between atoms: C_6  and  O_29
    2  A    between atoms: N_15  and  C_26
    3  A    between atoms: C_16  and  O_22
    4  A    between atoms: C_18  and  O_29
    5  A    between atoms: C_19  and  C_26
                            x       y       z     vdW  Elec       q    Type
                         _______ _______ _______ _____ _____    ______ ____

>  <TORSDO>
F 5

$$$$
=
 OpenBabel10262421013D

 32 37  0  0  1  0  0  0  0  0999 V2000
  181.2850  178.7690  140.9480 C   0  0  2  0  0  0  0  0  0  0  0  0
  183.5410  178.2480  142.0800 C   0  0  2  0  0  3  0  0  0  0  0  0
  179.3200  179.7610  138.5110 O   0  0  0  0  0  1  0  0  0  0  0  0
  180.8530  179.8850  140.2000 O   0  0  0  0  0  0  0  0  0  0  0  0
  182.3720  179.2420  141.9360 C   0  0  2  0  0  3  0  0  0  0  0  0
  184.5990  178.7680  143.0850 C   0  0  2  0  0  3  0  0  0  0  0  0
  187.4560  177.9870  138.7750 C   0  0  0  0  0  2  0  0  0  0  0  0
  184.0980  177.9340  140.7030 C   0  0  0  0  0  0  0  0  0  0  0  0
  187.9060  178.3230  141.2210 C   0  0  0  0  0  2  0  0  0  0  0  0
  186.4240  178.6100  141.4390 C   0  0  2  0  0  3  0  0  0  0  0  0
  181.6150  179.3780  143.2190 C   0  0  0  0  0  2  0  0  0  0  0  0
  180.9340  177.9640  138.7230 C   0  0  2  0  0  0  0  0  0  0  0  0
  186.0190  178.2530  142.8500 C   0  0  0  0  0  2  0  0  0  0  0  0
  180.6490  179.4890  138.8560 C   0  0  1  0  0  0  0  0  0  0  0  0
  180.4850  178.4010  143.0510 C   0  0  0  0  0  2  0  0  0  0  0  0
  179.6610  177.1100  138.8260 C   0  0  0  0  0  1  0  0  0  0  0  0
  183.2260  177.6420  139.7320 C   0  0  0  0  0  3  0  0  0  0  0  0
  181.7350  177.6680  139.9720 C   0  0  1  0  0  3  0  0  0  0  0  0
  185.5870  177.8160  140.4330 C   0  0  2  0  0  3  0  0  0  0  0  0
  180.1820  178.2810  141.6840 O   0  0  0  0  0  0  0  0  0  0  0  0
  188.3060  178.7300  139.8050 C   0  0  0  0  0  2  0  0  0  0  0  0
  185.9720  178.2530  139.0150 C   0  0  0  0  0  2  0  0  0  0  0  0
  180.7870  181.0390  137.0040 O   0  0  0  0  0  1  0  0  0  0  0  0
  181.5540  180.3530  137.9510 C   0  0  1  0  0  3  0  0  0  0  0  0
  182.3290  181.3100  138.7240 N   0  0  0  0  0  2  0  0  0  0  0  0
  183.6120  180.8780  138.7190 O   0  0  0  0  0  1  0  0  0  0  0  0
  180.7660  177.2120  136.6570 O   0  0  0  0  0  1  0  0  0  0  0  0
  181.6500  177.6190  137.5520 O   0  0  0  0  0  0  0  0  0  0  0  0
  184.2000  178.6360  144.4350 O   0  0  0  0  0  0  0  0  0  0  0  0
  184.9150  178.1990  146.6640 C   0  0  0  0  0  2  0  0  0  0  0  0
  185.3130  178.2530  145.2020 C   0  0  0  0  0  3  0  0  0  0  0  0
  185.6870  179.3870  146.1340 C   0  0  0  0  0  2  0  0  0  0  0  0
  1  4  1  6  0  0  0
  1 20  1  0  0  0  0
  1  5  1  0  0  0  0
  2  8  1  6  0  0  0
  2  6  1  0  0  0  0
  5  2  1  0  0  0  0
  5 11  1  1  0  0  0
  6 29  1  1  0  0  0
  7 22  1  0  0  0  0
  7 21  1  0  0  0  0
 10  9  1  1  0  0  0
 10 13  1  0  0  0  0
 12 16  1  1  0  0  0
 12 14  1  0  0  0  0
 12 18  1  0  0  0  0
 13  6  1  0  0  0  0
 14  3  1  6  0  0  0
 14  4  1  0  0  0  0
 15 11  1  0  0  0  0
 17  8  2  0  0  0  0
 18 17  1  6  0  0  0
 18  1  1  0  0  0  0
 19 22  1  6  0  0  0
 19  8  1  0  0  0  0
 19 10  1  0  0  0  0
 20 15  1  0  0  0  0
 21  9  1  0  0  0  0
 24 23  1  6  0  0  0
 24 25  1  0  0  0  0
 24 14  1  0  0  0  0
 26 25  1  0  0  0  0
 27 28  1  0  0  0  0
 28 12  1  0  0  0  0
 29 31  1  0  0  0  0
 31 32  1  0  0  0  0
 31 30  1  0  0  0  0
 32 30  1  0  0  0  0
M  END
>  <MODEL>
5

>  <REMARK>
 VINA RESULT:      -5.9      4.122      6.884
  Name = 
  5 active torsions:
  status: ('A' for Active; 'I' for Inactive)
    1  A    between atoms: C_6  and  O_29
    2  A    between atoms: N_15  and  C_26
    3  A    between atoms: C_16  and  O_22
    4  A    between atoms: C_18  and  O_29
    5  A    between atoms: C_19  and  C_26
                            x       y       z     vdW  Elec       q    Type
                         _______ _______ _______ _____ _____    ______ ____

>  <TORSDO>
F 5

$$$$
=
 OpenBabel10262421013D

 32 37  0  0  1  0  0  0  0  0999 V2000
  182.2560  177.1140  138.5770 C   0  0  2  0  0  0  0  0  0  0  0  0
  184.1330  175.9220  137.2740 C   0  0  2  0  0  3  0  0  0  0  0  0
  181.0050  179.1380  140.8400 O   0  0  0  0  0  1  0  0  0  0  0  0
  182.0630  177.3140  139.9600 O   0  0  0  0  0  0  0  0  0  0  0  0
  183.0700  175.8180  138.3850 C   0  0  2  0  0  3  0  0  0  0  0  0
  184.9170  174.5940  137.1200 C   0  0  2  0  0  3  0  0  0  0  0  0
  188.7480  178.0540  137.9620 C   0  0  0  0  0  2  0  0  0  0  0  0
  185.0110  177.1320  137.5380 C   0  0  0  0  0  0  0  0  0  0  0  0
  188.5730  175.7090  137.0850 C   0  0  0  0  0  2  0  0  0  0  0  0
  187.0940  175.6960  137.4580 C   0  0  2  0  0  3  0  0  0  0  0  0
  182.0170  174.8140  138.0370 C   0  0  0  0  0  2  0  0  0  0  0  0
  182.4550  179.4720  138.9260 C   0  0  2  0  0  0  0  0  0  0  0  0
  186.3330  174.7430  136.5650 C   0  0  0  0  0  2  0  0  0  0  0  0
  182.1940  178.6940  140.2490 C   0  0  1  0  0  0  0  0  0  0  0  0
  180.9370  175.6570  137.4190 C   0  0  0  0  0  2  0  0  0  0  0  0
  181.1720  180.0550  138.3160 C   0  0  0  0  0  1  0  0  0  0  0  0
  184.4050  178.2830  137.8490 C   0  0  0  0  0  3  0  0  0  0  0  0
  182.9030  178.3760  137.9830 C   0  0  1  0  0  3  0  0  0  0  0  0
  186.5150  177.1070  137.3370 C   0  0  2  0  0  3  0  0  0  0  0  0
  180.9870  176.9460  137.9770 O   0  0  0  0  0  0  0  0  0  0  0  0
  189.3320  176.6430  138.0240 C   0  0  0  0  0  2  0  0  0  0  0  0
  187.2610  178.0320  138.3060 C   0  0  0  0  0  2  0  0  0  0  0  0
  182.7930  179.0500  142.5660 O   0  0  0  0  0  1  0  0  0  0  0  0
  183.3260  178.8690  141.2850 C   0  0  1  0  0  3  0  0  0  0  0  0
  184.2240  177.7250  141.2970 N   0  0  0  0  0  2  0  0  0  0  0  0
  185.0470  177.8770  142.3600 O   0  0  0  0  0  1  0  0  0  0  0  0
  182.8560  181.6300  138.7180 O   0  0  0  0  0  1  0  0  0  0  0  0
  183.4340  180.4870  139.0470 O   0  0  0  0  0  0  0  0  0  0  0  0
  184.1850  173.5860  136.4530 O   0  0  0  0  0  0  0  0  0  0  0  0
  184.3590  171.2640  135.9560 C   0  0  0  0  0  2  0  0  0  0  0  0
  184.5160  172.3400  137.0120 C   0  0  0  0  0  3  0  0  0  0  0  0
  183.2880  171.4530  137.0080 C   0  0  0  0  0  2  0  0  0  0  0  0
  1 20  1  6  0  0  0
  1  4  1  0  0  0  0
  2  8  1  1  0  0  0
  2  5  1  0  0  0  0
  4 14  1  0  0  0  0
  5 11  1  6  0  0  0
  5  1  1  0  0  0  0
  6 29  1  6  0  0  0
  6  2  1  0  0  0  0
  7 21  1  0  0  0  0
  7 22  1  0  0  0  0
  8 17  2  0  0  0  0
  9 10  1  0  0  0  0
  9 21  1  0  0  0  0
 10 13  1  6  0  0  0
 12 16  1  6  0  0  0
 12 28  1  0  0  0  0
 12 14  1  0  0  0  0
 13  6  1  0  0  0  0
 14  3  1  1  0  0  0
 14 24  1  0  0  0  0
 15 20  1  0  0  0  0
 15 11  1  0  0  0  0
 18 17  1  1  0  0  0
 18  1  1  0  0  0  0
 18 12  1  0  0  0  0
 19 10  1  0  0  0  0
 19  8  1  0  0  0  0
 19 22  1  1  0  0  0
 24 25  1  0  0  0  0
 24 23  1  1  0  0  0
 25 26  1  0  0  0  0
 27 28  1  0  0  0  0
 29 31  1  0  0  0  0
 30 32  1  0  0  0  0
 30 31  1  0  0  0  0
 32 31  1  0  0  0  0
M  END
>  <MODEL>
6

>  <REMARK>
 VINA RESULT:      -5.9      4.053      7.838
  Name = 
  5 active torsions:
  status: ('A' for Active; 'I' for Inactive)
    1  A    between atoms: C_6  and  O_29
    2  A    between atoms: N_15  and  C_26
    3  A    between atoms: C_16  and  O_22
    4  A    between atoms: C_18  and  O_29
    5  A    between atoms: C_19  and  C_26
                            x       y       z     vdW  Elec       q    Type
                         _______ _______ _______ _____ _____    ______ ____

>  <TORSDO>
F 5

$$$$
=
 OpenBabel10262421013D

 32 37  0  0  1  0  0  0  0  0999 V2000
  190.5920  176.1340  136.0600 C   0  0  2  0  0  0  0  0  0  0  0  0
  189.0030  177.0070  137.8910 C   0  0  2  0  0  3  0  0  0  0  0  0
  193.4820  175.2260  134.7910 O   0  0  0  0  0  1  0  0  0  0  0  0
  191.8520  176.5950  135.6210 O   0  0  0  0  0  0  0  0  0  0  0  0
  189.8050  177.3380  136.6170 C   0  0  2  0  0  3  0  0  0  0  0  0
  188.2290  178.2470  138.4050 C   0  0  2  0  0  3  0  0  0  0  0  0
  191.0640  176.8980  142.5880 C   0  0  0  0  0  2  0  0  0  0  0  0
  189.9340  176.3900  138.9190 C   0  0  0  0  0  0  0  0  0  0  0  0
  189.0670  178.3480  142.1320 C   0  0  0  0  0  2  0  0  0  0  0  0
  189.2630  178.1230  140.6370 C   0  0  2  0  0  3  0  0  0  0  0  0
  188.8990  177.6950  135.4820 C   0  0  0  0  0  2  0  0  0  0  0  0
  192.1520  174.4210  136.6520 C   0  0  2  0  0  0  0  0  0  0  0  0
  187.9460  178.2530  139.9070 C   0  0  0  0  0  2  0  0  0  0  0  0
  192.8380  175.6390  135.9640 C   0  0  1  0  0  0  0  0  0  0  0  0
  188.7420  176.3910  134.7510 C   0  0  0  0  0  2  0  0  0  0  0  0
  191.8500  173.2770  135.6730 C   0  0  0  0  0  1  0  0  0  0  0  0
  190.7610  175.4230  138.5060 C   0  0  0  0  0  3  0  0  0  0  0  0
  190.8100  174.9860  137.0600 C   0  0  1  0  0  3  0  0  0  0  0  0
  189.8650  176.7370  140.3940 C   0  0  2  0  0  3  0  0  0  0  0  0
  189.9010  175.6170  134.9410 O   0  0  0  0  0  0  0  0  0  0  0  0
  190.4140  178.2560  142.8470 C   0  0  0  0  0  2  0  0  0  0  0  0
  191.2300  176.6640  141.0880 C   0  0  0  0  0  2  0  0  0  0  0  0
  194.7330  177.1360  136.0940 O   0  0  0  0  0  1  0  0  0  0  0  0
  193.8920  176.3240  136.8610 C   0  0  1  0  0  3  0  0  0  0  0  0
  193.2690  177.1270  137.9010 N   0  0  0  0  0  2  0  0  0  0  0  0
  193.9040  176.8360  139.0610 O   0  0  0  0  0  1  0  0  0  0  0  0
  193.7250  173.0240  137.3140 O   0  0  0  0  0  1  0  0  0  0  0  0
  192.8680  173.9220  137.7670 O   0  0  0  0  0  0  0  0  0  0  0  0
  187.0750  178.5420  137.6430 O   0  0  0  0  0  0  0  0  0  0  0  0
  185.2450  177.5030  136.5300 C   0  0  0  0  0  2  0  0  0  0  0  0
  186.1960  177.4480  137.7090 C   0  0  0  0  0  3  0  0  0  0  0  0
  184.7820  177.9580  137.8960 C   0  0  0  0  0  2  0  0  0  0  0  0
  1 20  1  6  0  0  0
  1  5  1  0  0  0  0
  1 18  1  0  0  0  0
  2  6  1  0  0  0  0
  2  8  1  1  0  0  0
  4 14  1  0  0  0  0
  4  1  1  0  0  0  0
  5 11  1  6  0  0  0
  5  2  1  0  0  0  0
  6 29  1  6  0  0  0
  6 13  1  0  0  0  0
  7 21  1  0  0  0  0
  8 19  1  0  0  0  0
  9 21  1  0  0  0  0
 10 13  1  6  0  0  0
 10  9  1  0  0  0  0
 12 16  1  6  0  0  0
 12 18  1  0  0  0  0
 12 28  1  0  0  0  0
 14  3  1  6  0  0  0
 14 12  1  0  0  0  0
 14 24  1  0  0  0  0
 15 20  1  0  0  0  0
 15 11  1  0  0  0  0
 17  8  2  0  0  0  0
 18 17  1  1  0  0  0
 19 10  1  0  0  0  0
 19 22  1  6  0  0  0
 22  7  1  0  0  0  0
 24 23  1  6  0  0  0
 24 25  1  0  0  0  0
 25 26  1  0  0  0  0
 27 28  1  0  0  0  0
 29 31  1  0  0  0  0
 30 31  1  0  0  0  0
 30 32  1  0  0  0  0
 31 32  1  0  0  0  0
M  END
>  <MODEL>
7

>  <REMARK>
 VINA RESULT:      -5.7      3.237      6.427
  Name = 
  5 active torsions:
  status: ('A' for Active; 'I' for Inactive)
    1  A    between atoms: C_6  and  O_29
    2  A    between atoms: N_15  and  C_26
    3  A    between atoms: C_16  and  O_22
    4  A    between atoms: C_18  and  O_29
    5  A    between atoms: C_19  and  C_26
                            x       y       z     vdW  Elec       q    Type
                         _______ _______ _______ _____ _____    ______ ____

>  <TORSDO>
F 5

$$$$
=
 OpenBabel10262421013D

 32 37  0  0  1  0  0  0  0  0999 V2000
  188.4770  177.5110  144.8170 C   0  0  2  0  0  0  0  0  0  0  0  0
  186.7840  178.1820  142.9940 C   0  0  2  0  0  3  0  0  0  0  0  0
  191.3270  176.3620  145.9760 O   0  0  0  0  0  1  0  0  0  0  0  0
  189.2760  176.3580  144.9690 O   0  0  0  0  0  0  0  0  0  0  0  0
  187.2110  177.1210  144.0270 C   0  0  2  0  0  3  0  0  0  0  0  0
  185.5080  177.7430  142.2330 C   0  0  2  0  0  3  0  0  0  0  0  0
  188.8830  178.5980  138.3310 C   0  0  0  0  0  2  0  0  0  0  0  0
  187.9630  178.4990  142.0910 C   0  0  0  0  0  0  0  0  0  0  0  0
  186.3980  178.3370  138.5640 C   0  0  0  0  0  2  0  0  0  0  0  0
  186.5900  177.9710  140.0320 C   0  0  2  0  0  3  0  0  0  0  0  0
  186.1840  176.9680  145.1030 C   0  0  0  0  0  2  0  0  0  0  0  0
  190.7390  178.2510  144.5750 C   0  0  2  0  0  0  0  0  0  0  0  0
  185.3580  178.3330  140.8310 C   0  0  0  0  0  2  0  0  0  0  0  0
  190.6370  176.7150  144.8100 C   0  0  1  0  0  0  0  0  0  0  0  0
  186.6920  177.8760  146.1880 C   0  0  0  0  0  2  0  0  0  0  0  0
  191.0230  179.0330  145.8660 C   0  0  0  0  0  1  0  0  0  0  0  0
  189.1470  178.7220  142.6720 C   0  0  0  0  0  3  0  0  0  0  0  0
  189.3280  178.6160  144.1680 C   0  0  1  0  0  3  0  0  0  0  0  0
  187.8140  178.6960  140.5940 C   0  0  2  0  0  3  0  0  0  0  0  0
  188.0930  177.9510  146.1040 O   0  0  0  0  0  0  0  0  0  0  0  0
  187.6330  177.9250  137.7660 C   0  0  0  0  0  2  0  0  0  0  0  0
  189.0540  178.2530  139.8080 C   0  0  0  0  0  2  0  0  0  0  0  0
  192.0660  174.8820  144.1400 O   0  0  0  0  0  1  0  0  0  0  0  0
  191.2260  175.8850  143.6480 C   0  0  1  0  0  3  0  0  0  0  0  0
  190.1800  175.2810  142.8370 N   0  0  0  0  0  2  0  0  0  0  0  0
  190.2310  175.8710  141.6200 O   0  0  0  0  0  1  0  0  0  0  0  0
  192.4300  179.5770  144.0790 O   0  0  0  0  0  1  0  0  0  0  0  0
  191.6780  178.6120  143.5790 O   0  0  0  0  0  0  0  0  0  0  0  0
  184.3260  177.8790  142.9980 O   0  0  0  0  0  0  0  0  0  0  0  0
  183.6550  179.3800  144.7190 C   0  0  0  0  0  2  0  0  0  0  0  0
  184.1250  179.2390  143.2850 C   0  0  0  0  0  3  0  0  0  0  0  0
  182.6590  179.4720  143.5840 C   0  0  0  0  0  2  0  0  0  0  0  0
  1  4  1  1  0  0  0
  1 20  1  0  0  0  0
  2  8  1  6  0  0  0
  2  5  1  0  0  0  0
  5  1  1  0  0  0  0
  5 11  1  1  0  0  0
  6  2  1  0  0  0  0
  6 29  1  1  0  0  0
  7 22  1  0  0  0  0
  8 17  2  0  0  0  0
 10  9  1  6  0  0  0
 10 19  1  0  0  0  0
 10 13  1  0  0  0  0
 11 15  1  0  0  0  0
 12 14  1  0  0  0  0
 12 16  1  1  0  0  0
 13  6  1  0  0  0  0
 14  4  1  0  0  0  0
 14  3  1  1  0  0  0
 18 17  1  6  0  0  0
 18 12  1  0  0  0  0
 18  1  1  0  0  0  0
 19 22  1  6  0  0  0
 19  8  1  0  0  0  0
 20 15  1  0  0  0  0
 21  7  1  0  0  0  0
 21  9  1  0  0  0  0
 24 23  1  1  0  0  0
 24 14  1  0  0  0  0
 25 24  1  0  0  0  0
 26 25  1  0  0  0  0
 28 27  1  0  0  0  0
 28 12  1  0  0  0  0
 29 31  1  0  0  0  0
 31 32  1  0  0  0  0
 31 30  1  0  0  0  0
 32 30  1  0  0  0  0
M  END
>  <MODEL>
8

>  <REMARK>
 VINA RESULT:      -5.7      3.164      6.557
  Name = 
  5 active torsions:
  status: ('A' for Active; 'I' for Inactive)
    1  A    between atoms: C_6  and  O_29
    2  A    between atoms: N_15  and  C_26
    3  A    between atoms: C_16  and  O_22
    4  A    between atoms: C_18  and  O_29
    5  A    between atoms: C_19  and  C_26
                            x       y       z     vdW  Elec       q    Type
                         _______ _______ _______ _____ _____    ______ ____

>  <TORSDO>
F 5

$$$$
=
 OpenBabel10262421013D

 32 37  0  0  1  0  0  0  0  0999 V2000
  183.3030  177.1460  136.7230 C   0  0  2  0  0  0  0  0  0  0  0  0
  184.6140  178.3280  138.6000 C   0  0  2  0  0  3  0  0  0  0  0  0
  180.8380  175.3970  135.4400 O   0  0  0  0  0  1  0  0  0  0  0  0
  182.7100  175.8670  136.6620 O   0  0  0  0  0  0  0  0  0  0  0  0
  184.4920  177.0810  137.7030 C   0  0  2  0  0  3  0  0  0  0  0  0
  185.8250  178.2120  139.5610 C   0  0  2  0  0  3  0  0  0  0  0  0
  181.8590  179.0200  142.8730 C   0  0  0  0  0  2  0  0  0  0  0  0
  183.2890  178.5660  139.3030 C   0  0  0  0  0  0  0  0  0  0  0  0
  184.3640  179.1430  142.9670 C   0  0  0  0  0  2  0  0  0  0  0  0
  184.4310  178.5540  141.5620 C   0  0  2  0  0  3  0  0  0  0  0  0
  185.6690  176.9540  136.7870 C   0  0  0  0  0  2  0  0  0  0  0  0
  180.9460  177.5290  136.5880 C   0  0  2  0  0  0  0  0  0  0  0  0
  185.6930  179.0030  140.8620 C   0  0  0  0  0  2  0  0  0  0  0  0
  181.3030  176.0130  136.6080 C   0  0  1  0  0  0  0  0  0  0  0  0
  185.1870  177.6110  135.5240 C   0  0  0  0  0  2  0  0  0  0  0  0
  180.7300  178.0710  135.1680 C   0  0  0  0  0  1  0  0  0  0  0  0
  182.1760  178.5090  138.5640 C   0  0  0  0  0  3  0  0  0  0  0  0
  182.2190  178.1730  137.0910 C   0  0  1  0  0  3  0  0  0  0  0  0
  183.2020  178.9850  140.7580 C   0  0  2  0  0  3  0  0  0  0  0  0
  183.7910  177.4650  135.4360 O   0  0  0  0  0  0  0  0  0  0  0  0
  183.1050  178.6450  143.6740 C   0  0  0  0  0  2  0  0  0  0  0  0
  181.9440  178.4540  141.4570 C   0  0  0  0  0  2  0  0  0  0  0  0
  180.1370  174.0460  137.3970 O   0  0  0  0  0  1  0  0  0  0  0  0
  180.6880  175.2630  137.8100 C   0  0  1  0  0  3  0  0  0  0  0  0
  181.6760  175.0160  138.8490 N   0  0  0  0  0  2  0  0  0  0  0  0
  181.1390  175.4420  140.0160 O   0  0  0  0  0  1  0  0  0  0  0  0
  179.0760  178.6920  136.7110 O   0  0  0  0  0  1  0  0  0  0  0  0
  179.8370  177.8620  137.4030 O   0  0  0  0  0  0  0  0  0  0  0  0
  187.0670  178.4360  138.9240 O   0  0  0  0  0  0  0  0  0  0  0  0
  189.4300  178.5430  139.1990 C   0  0  0  0  0  2  0  0  0  0  0  0
  188.0980  178.2560  139.8620 C   0  0  0  0  0  3  0  0  0  0  0  0
  188.9840  177.1130  139.4120 C   0  0  0  0  0  2  0  0  0  0  0  0
  1 20  1  6  0  0  0
  1 18  1  0  0  0  0
  1  5  1  0  0  0  0
  2  8  1  1  0  0  0
  2  6  1  0  0  0  0
  4  1  1  0  0  0  0
  5 11  1  6  0  0  0
  5  2  1  0  0  0  0
  6 29  1  6  0  0  0
  6 13  1  0  0  0  0
  7 21  1  0  0  0  0
  8 19  1  0  0  0  0
  9 21  1  0  0  0  0
 10 13  1  6  0  0  0
 10  9  1  0  0  0  0
 12 16  1  6  0  0  0
 12 14  1  0  0  0  0
 12 18  1  0  0  0  0
 12 28  1  0  0  0  0
 14  3  1  6  0  0  0
 14  4  1  0  0  0  0
 14 24  1  0  0  0  0
 15 11  1  0  0  0  0
 17  8  2  0  0  0  0
 18 17  1  1  0  0  0
 19 22  1  1  0  0  0
 19 10  1  0  0  0  0
 20 15  1  0  0  0  0
 22  7  1  0  0  0  0
 24 23  1  6  0  0  0
 24 25  1  0  0  0  0
 25 26  1  0  0  0  0
 27 28  1  0  0  0  0
 29 31  1  0  0  0  0
 30 32  1  0  0  0  0
 30 31  1  0  0  0  0
 32 31  1  0  0  0  0
M  END
>  <MODEL>
9

>  <REMARK>
 VINA RESULT:      -5.7      3.835      5.868
  Name = 
  5 active torsions:
  status: ('A' for Active; 'I' for Inactive)
    1  A    between atoms: C_6  and  O_29
    2  A    between atoms: N_15  and  C_26
    3  A    between atoms: C_16  and  O_22
    4  A    between atoms: C_18  and  O_29
    5  A    between atoms: C_19  and  C_26
                            x       y       z     vdW  Elec       q    Type
                         _______ _______ _______ _____ _____    ______ ____

>  <TORSDO>
F 5

$$$$
