=
 OpenBabel10262419463D

 25 28  0  0  1  0  0  0  0  0999 V2000
  187.0770  177.8650  145.4720 C   0  0  0  0  0  0  0  0  0  0  0  0
  186.2390  178.2580  144.4070 C   0  0  0  0  0  0  0  0  0  0  0  0
  185.2290  178.2030  146.9980 C   0  0  0  0  0  3  0  0  0  0  0  0
  184.4360  178.5790  145.9620 N   0  0  0  0  0  0  0  0  0  0  0  0
  184.0550  179.0210  143.6350 C   0  0  0  0  0  0  0  0  0  0  0  0
  182.3850  179.4770  143.9330 Cl  0  0  0  0  0  0  0  0  0  0  0  0
  186.7070  178.3230  143.0870 C   0  0  0  0  0  3  0  0  0  0  0  0
  186.5560  177.8390  146.7710 C   0  0  0  0  0  3  0  0  0  0  0  0
  184.5420  179.0700  142.3260 C   0  0  0  0  0  3  0  0  0  0  0  0
  185.8640  178.7160  142.0410 C   0  0  0  0  0  0  0  0  0  0  0  0
  184.8980  178.6180  144.6820 C   0  0  0  0  0  0  0  0  0  0  0  0
  188.4800  177.4480  145.2560 C   0  0  0  0  0  0  0  0  0  0  0  0
  191.1190  176.6150  144.7800 C   0  0  0  0  0  3  0  0  0  0  0  0
  189.4490  177.5330  146.2800 C   0  0  0  0  0  0  0  0  0  0  0  0
  190.7610  177.1190  146.0320 C   0  0  0  0  0  3  0  0  0  0  0  0
  190.1660  176.5280  143.7650 C   0  0  0  0  0  3  0  0  0  0  0  0
  189.0760  178.1980  147.8650 Cl  0  0  0  0  0  0  0  0  0  0  0  0
  188.8530  176.9420  144.0030 C   0  0  0  0  0  3  0  0  0  0  0  0
  186.3250  178.8110  140.6860 N   0  0  0  0  0  2  0  0  0  0  0  0
  185.6050  178.4860  139.4880 C   0  0  0  0  0  0  0  0  0  0  0  0
  186.2410  178.4150  138.4020 O   0  0  0  0  0  0  0  0  0  0  0  0
  184.1210  178.2180  139.4910 C   0  0  2  0  0  3  0  0  0  0  0  0
  184.0290  180.5910  138.9230 O   0  0  0  0  0  1  0  0  0  0  0  0
  183.5170  178.4190  138.1120 C   0  0  0  0  0  2  0  0  0  0  0  0
  183.2630  179.4540  139.1850 C   0  0  1  0  0  3  0  0  0  0  0  0
  1  8  1  0  0  0  0
  2 11  1  0  0  0  0
  2  1  2  0  0  0  0
  4  3  1  0  0  0  0
  5  6  1  0  0  0  0
  5 11  1  0  0  0  0
  7  2  1  0  0  0  0
  8  3  2  0  0  0  0
  9  5  2  0  0  0  0
 10  9  1  0  0  0  0
 10  7  2  0  0  0  0
 11  4  2  0  0  0  0
 12  1  1  0  0  0  0
 12 14  1  0  0  0  0
 13 15  1  0  0  0  0
 14 17  1  0  0  0  0
 15 14  2  0  0  0  0
 16 18  1  0  0  0  0
 16 13  2  0  0  0  0
 18 12  2  0  0  0  0
 19 10  1  0  0  0  0
 20 19  1  0  0  0  0
 21 20  2  0  0  0  0
 22 20  1  6  0  0  0
 24 25  1  0  0  0  0
 24 22  1  0  0  0  0
 25 23  1  6  0  0  0
 25 22  1  0  0  0  0
M  END
>  <MODEL>
1

>  <REMARK>
 VINA RESULT:      -9.7      0.000      0.000
  Name = 
  3 active torsions:
  status: ('A' for Active; 'I' for Inactive)
    1  A    between atoms: C_1  and  C_5
    2  A    between atoms: C_2  and  C_15
    3  A    between atoms: N_6  and  C_23
                            x       y       z     vdW  Elec       q    Type
                         _______ _______ _______ _____ _____    ______ ____

>  <TORSDO>
F 3

$$$$
=
 OpenBabel10262419463D

 25 28  0  0  1  0  0  0  0  0999 V2000
  187.9510  177.9210  144.8880 C   0  0  0  0  0  0  0  0  0  0  0  0
  186.7960  178.2800  144.1620 C   0  0  0  0  0  0  0  0  0  0  0  0
  186.5950  177.7500  146.8850 C   0  0  0  0  0  3  0  0  0  0  0  0
  185.4930  178.0980  146.1720 N   0  0  0  0  0  0  0  0  0  0  0  0
  184.4000  178.7300  144.1320 C   0  0  0  0  0  0  0  0  0  0  0  0
  182.8410  178.8480  144.9330 Cl  0  0  0  0  0  0  0  0  0  0  0  0
  186.8510  178.5770  142.7930 C   0  0  0  0  0  3  0  0  0  0  0  0
  187.8370  177.6540  146.2580 C   0  0  0  0  0  3  0  0  0  0  0  0
  184.4770  179.0140  142.7660 C   0  0  0  0  0  3  0  0  0  0  0  0
  185.6960  178.9340  142.0870 C   0  0  0  0  0  0  0  0  0  0  0  0
  185.5560  178.3640  144.8390 C   0  0  0  0  0  0  0  0  0  0  0  0
  189.2770  177.7850  144.2430 C   0  0  0  0  0  0  0  0  0  0  0  0
  191.8050  177.6070  143.0360 C   0  0  0  0  0  3  0  0  0  0  0  0
  189.5930  176.6870  143.4140 C   0  0  0  0  0  0  0  0  0  0  0  0
  190.8550  176.6060  142.8190 C   0  0  0  0  0  3  0  0  0  0  0  0
  191.4970  178.6940  143.8540 C   0  0  0  0  0  3  0  0  0  0  0  0
  188.4600  175.3710  143.1350 Cl  0  0  0  0  0  0  0  0  0  0  0  0
  190.2390  178.7820  144.4540 C   0  0  0  0  0  3  0  0  0  0  0  0
  185.7290  179.2640  140.6910 N   0  0  0  0  0  2  0  0  0  0  0  0
  184.9840  178.6550  139.6260 C   0  0  0  0  0  0  0  0  0  0  0  0
  185.3070  178.9180  138.4370 O   0  0  0  0  0  0  0  0  0  0  0  0
  183.8400  177.7070  139.8860 C   0  0  2  0  0  3  0  0  0  0  0  0
  182.5200  179.7280  139.5190 O   0  0  0  0  0  1  0  0  0  0  0  0
  182.9540  177.5560  138.6620 C   0  0  0  0  0  2  0  0  0  0  0  0
  182.4570  178.3690  139.8360 C   0  0  1  0  0  3  0  0  0  0  0  0
  1  8  1  0  0  0  0
  2 11  1  0  0  0  0
  2  1  2  0  0  0  0
  4  3  1  0  0  0  0
  5 11  1  0  0  0  0
  5  6  1  0  0  0  0
  7  2  1  0  0  0  0
  8  3  2  0  0  0  0
  9  5  2  0  0  0  0
 10  9  1  0  0  0  0
 10  7  2  0  0  0  0
 11  4  2  0  0  0  0
 12 18  1  0  0  0  0
 12  1  1  0  0  0  0
 13 16  1  0  0  0  0
 14 12  2  0  0  0  0
 15 13  2  0  0  0  0
 15 14  1  0  0  0  0
 16 18  2  0  0  0  0
 17 14  1  0  0  0  0
 19 10  1  0  0  0  0
 20 19  1  0  0  0  0
 21 20  2  0  0  0  0
 22 20  1  6  0  0  0
 24 25  1  0  0  0  0
 24 22  1  0  0  0  0
 25 23  1  6  0  0  0
 25 22  1  0  0  0  0
M  END
>  <MODEL>
2

>  <REMARK>
 VINA RESULT:      -9.7      1.613      1.877
  Name = 
  3 active torsions:
  status: ('A' for Active; 'I' for Inactive)
    1  A    between atoms: C_1  and  C_5
    2  A    between atoms: C_2  and  C_15
    3  A    between atoms: N_6  and  C_23
                            x       y       z     vdW  Elec       q    Type
                         _______ _______ _______ _____ _____    ______ ____

>  <TORSDO>
F 3

$$$$
=
 OpenBabel10262419463D

 25 28  0  0  1  0  0  0  0  0999 V2000
  187.5960  177.5550  145.7960 C   0  0  0  0  0  0  0  0  0  0  0  0
  188.9820  177.4690  145.5510 C   0  0  0  0  0  0  0  0  0  0  0  0
  187.9650  176.6180  147.9960 C   0  0  0  0  0  3  0  0  0  0  0  0
  189.2980  176.5420  147.7450 N   0  0  0  0  0  0  0  0  0  0  0  0
  191.2090  176.8490  146.3280 C   0  0  0  0  0  0  0  0  0  0  0  0
  192.2940  176.2070  147.5510 Cl  0  0  0  0  0  0  0  0  0  0  0  0
  189.5400  177.8660  144.3270 C   0  0  0  0  0  3  0  0  0  0  0  0
  187.0960  177.1260  147.0310 C   0  0  0  0  0  3  0  0  0  0  0  0
  191.7430  177.2570  145.1030 C   0  0  0  0  0  3  0  0  0  0  0  0
  190.9180  177.7730  144.0990 C   0  0  0  0  0  0  0  0  0  0  0  0
  189.8290  176.9490  146.5600 C   0  0  0  0  0  0  0  0  0  0  0  0
  186.6540  178.1150  144.8000 C   0  0  0  0  0  0  0  0  0  0  0  0
  184.9160  179.1470  142.8520 C   0  0  0  0  0  3  0  0  0  0  0  0
  185.6780  179.0730  145.1530 C   0  0  0  0  0  0  0  0  0  0  0  0
  184.8160  179.5790  144.1770 C   0  0  0  0  0  3  0  0  0  0  0  0
  185.8780  178.2010  142.4980 C   0  0  0  0  0  3  0  0  0  0  0  0
  185.4690  179.6260  146.8090 Cl  0  0  0  0  0  0  0  0  0  0  0  0
  186.7420  177.6890  143.4680 C   0  0  0  0  0  3  0  0  0  0  0  0
  191.5090  178.1520  142.8490 N   0  0  0  0  0  2  0  0  0  0  0  0
  191.3060  177.5500  141.5610 C   0  0  0  0  0  0  0  0  0  0  0  0
  192.0780  177.8670  140.6180 O   0  0  0  0  0  0  0  0  0  0  0  0
  190.2070  176.5470  141.3100 C   0  0  2  0  0  3  0  0  0  0  0  0
  189.0080  178.5440  140.5780 O   0  0  0  0  0  1  0  0  0  0  0  0
  189.8640  176.4590  139.8330 C   0  0  0  0  0  2  0  0  0  0  0  0
  188.9100  177.1640  140.7700 C   0  0  1  0  0  3  0  0  0  0  0  0
  1  8  1  0  0  0  0
  2  1  2  0  0  0  0
  2 11  1  0  0  0  0
  4  3  1  0  0  0  0
  5 11  1  0  0  0  0
  5  6  1  0  0  0  0
  7  2  1  0  0  0  0
  8  3  2  0  0  0  0
  9  5  2  0  0  0  0
 10  7  2  0  0  0  0
 10  9  1  0  0  0  0
 11  4  2  0  0  0  0
 12 14  1  0  0  0  0
 12  1  1  0  0  0  0
 13 15  1  0  0  0  0
 14 17  1  0  0  0  0
 15 14  2  0  0  0  0
 16 13  2  0  0  0  0
 16 18  1  0  0  0  0
 18 12  2  0  0  0  0
 19 10  1  0  0  0  0
 20 19  1  0  0  0  0
 21 20  2  0  0  0  0
 22 20  1  6  0  0  0
 24 25  1  0  0  0  0
 24 22  1  0  0  0  0
 25 23  1  6  0  0  0
 25 22  1  0  0  0  0
M  END
>  <MODEL>
3

>  <REMARK>
 VINA RESULT:      -9.7      2.948      5.663
  Name = 
  3 active torsions:
  status: ('A' for Active; 'I' for Inactive)
    1  A    between atoms: C_1  and  C_5
    2  A    between atoms: C_2  and  C_15
    3  A    between atoms: N_6  and  C_23
                            x       y       z     vdW  Elec       q    Type
                         _______ _______ _______ _____ _____    ______ ____

>  <TORSDO>
F 3

$$$$
=
 OpenBabel10262419463D

 25 28  0  0  1  0  0  0  0  0999 V2000
  188.2650  177.6470  143.9390 C   0  0  0  0  0  0  0  0  0  0  0  0
  186.9830  178.1160  143.5840 C   0  0  0  0  0  0  0  0  0  0  0  0
  187.4920  177.3710  146.2150 C   0  0  0  0  0  3  0  0  0  0  0  0
  186.2630  177.8250  145.8570 N   0  0  0  0  0  0  0  0  0  0  0  0
  184.7020  178.6720  144.2440 C   0  0  0  0  0  0  0  0  0  0  0  0
  183.4290  178.7910  145.4480 Cl  0  0  0  0  0  0  0  0  0  0  0  0
  186.6850  178.5240  142.2770 C   0  0  0  0  0  3  0  0  0  0  0  0
  188.5080  177.2730  145.2660 C   0  0  0  0  0  3  0  0  0  0  0  0
  184.4260  179.0650  142.9320 C   0  0  0  0  0  3  0  0  0  0  0  0
  185.4080  178.9880  141.9400 C   0  0  0  0  0  0  0  0  0  0  0  0
  185.9800  178.1980  144.5800 C   0  0  0  0  0  0  0  0  0  0  0  0
  189.3550  177.5070  142.9480 C   0  0  0  0  0  0  0  0  0  0  0  0
  191.3850  177.1730  141.0370 C   0  0  0  0  0  3  0  0  0  0  0  0
  190.5780  178.2010  143.0800 C   0  0  0  0  0  0  0  0  0  0  0  0
  191.5820  178.0300  142.1220 C   0  0  0  0  0  3  0  0  0  0  0  0
  190.1790  176.4850  140.9020 C   0  0  0  0  0  3  0  0  0  0  0  0
  190.8730  179.3280  144.3970 Cl  0  0  0  0  0  0  0  0  0  0  0  0
  189.1700  176.6510  141.8530 C   0  0  0  0  0  3  0  0  0  0  0  0
  185.0840  179.4310  140.6150 N   0  0  0  0  0  2  0  0  0  0  0  0
  184.2790  178.7580  139.6350 C   0  0  0  0  0  0  0  0  0  0  0  0
  184.2880  179.1860  138.4500 O   0  0  0  0  0  0  0  0  0  0  0  0
  183.4360  177.5550  139.9780 C   0  0  2  0  0  3  0  0  0  0  0  0
  181.7380  179.2680  140.3550 O   0  0  0  0  0  1  0  0  0  0  0  0
  182.2810  177.3910  139.0060 C   0  0  0  0  0  2  0  0  0  0  0  0
  182.0020  177.8970  140.4030 C   0  0  1  0  0  3  0  0  0  0  0  0
  1  8  1  0  0  0  0
  2  1  2  0  0  0  0
  2 11  1  0  0  0  0
  4  3  1  0  0  0  0
  5 11  1  0  0  0  0
  5  6  1  0  0  0  0
  7  2  1  0  0  0  0
  8  3  2  0  0  0  0
  9  5  2  0  0  0  0
 10  7  2  0  0  0  0
 10  9  1  0  0  0  0
 11  4  2  0  0  0  0
 12 14  1  0  0  0  0
 12  1  1  0  0  0  0
 13 15  1  0  0  0  0
 14 17  1  0  0  0  0
 15 14  2  0  0  0  0
 16 13  2  0  0  0  0
 16 18  1  0  0  0  0
 18 12  2  0  0  0  0
 19 10  1  0  0  0  0
 20 19  1  0  0  0  0
 21 20  2  0  0  0  0
 22 20  1  6  0  0  0
 22 25  1  0  0  0  0
 24 22  1  0  0  0  0
 24 25  1  0  0  0  0
 25 23  1  6  0  0  0
M  END
>  <MODEL>
4

>  <REMARK>
 VINA RESULT:      -9.5      1.855      2.327
  Name = 
  3 active torsions:
  status: ('A' for Active; 'I' for Inactive)
    1  A    between atoms: C_1  and  C_5
    2  A    between atoms: C_2  and  C_15
    3  A    between atoms: N_6  and  C_23
                            x       y       z     vdW  Elec       q    Type
                         _______ _______ _______ _____ _____    ______ ____

>  <TORSDO>
F 3

$$$$
=
 OpenBabel10262419463D

 25 28  0  0  1  0  0  0  0  0999 V2000
  187.0080  177.7880  144.2610 C   0  0  0  0  0  0  0  0  0  0  0  0
  187.9270  177.8460  143.1920 C   0  0  0  0  0  0  0  0  0  0  0  0
  188.7840  176.9810  145.6920 C   0  0  0  0  0  3  0  0  0  0  0  0
  189.6560  177.0420  144.6530 N   0  0  0  0  0  0  0  0  0  0  0  0
  190.1940  177.5030  142.3610 C   0  0  0  0  0  0  0  0  0  0  0  0
  191.8690  177.0310  142.5960 Cl  0  0  0  0  0  0  0  0  0  0  0  0
  187.5380  178.2550  141.9080 C   0  0  0  0  0  3  0  0  0  0  0  0
  187.4520  177.3530  145.5150 C   0  0  0  0  0  3  0  0  0  0  0  0
  189.7850  177.9210  141.0920 C   0  0  0  0  0  3  0  0  0  0  0  0
  188.4610  178.3060  140.8580 C   0  0  0  0  0  0  0  0  0  0  0  0
  189.2700  177.4600  143.4170 C   0  0  0  0  0  0  0  0  0  0  0  0
  185.5960  178.2030  144.1080 C   0  0  0  0  0  0  0  0  0  0  0  0
  182.9260  178.9880  143.7360 C   0  0  0  0  0  3  0  0  0  0  0  0
  184.8580  178.7460  145.1820 C   0  0  0  0  0  0  0  0  0  0  0  0
  183.5280  179.1320  144.9880 C   0  0  0  0  0  3  0  0  0  0  0  0
  183.6510  178.4520  142.6710 C   0  0  0  0  0  3  0  0  0  0  0  0
  185.5410  178.9130  146.7940 Cl  0  0  0  0  0  0  0  0  0  0  0  0
  184.9780  178.0620  142.8570 C   0  0  0  0  0  3  0  0  0  0  0  0
  188.0840  178.7000  139.5310 N   0  0  0  0  0  2  0  0  0  0  0  0
  188.7770  178.4320  138.3030 C   0  0  0  0  0  0  0  0  0  0  0  0
  188.4210  179.0460  137.2620 O   0  0  0  0  0  0  0  0  0  0  0  0
  189.9200  177.4500  138.2250 C   0  0  2  0  0  3  0  0  0  0  0  0
  188.1140  175.9020  137.6760 O   0  0  0  0  0  1  0  0  0  0  0  0
  190.0880  176.9040  136.8170 C   0  0  0  0  0  2  0  0  0  0  0  0
  189.4900  176.0170  137.8860 C   0  0  1  0  0  3  0  0  0  0  0  0
  1  8  1  0  0  0  0
  2 11  1  0  0  0  0
  2  1  2  0  0  0  0
  4  3  1  0  0  0  0
  5  6  1  0  0  0  0
  5 11  1  0  0  0  0
  7  2  1  0  0  0  0
  8  3  2  0  0  0  0
  9  5  2  0  0  0  0
 10  9  1  0  0  0  0
 10  7  2  0  0  0  0
 11  4  2  0  0  0  0
 12  1  1  0  0  0  0
 12 14  1  0  0  0  0
 13 15  1  0  0  0  0
 14 17  1  0  0  0  0
 15 14  2  0  0  0  0
 16 18  1  0  0  0  0
 16 13  2  0  0  0  0
 18 12  2  0  0  0  0
 19 10  1  0  0  0  0
 20 19  1  0  0  0  0
 21 20  2  0  0  0  0
 22 20  1  6  0  0  0
 24 25  1  0  0  0  0
 24 22  1  0  0  0  0
 25 23  1  6  0  0  0
 25 22  1  0  0  0  0
M  END
>  <MODEL>
5

>  <REMARK>
 VINA RESULT:      -9.5      2.980      5.292
  Name = 
  3 active torsions:
  status: ('A' for Active; 'I' for Inactive)
    1  A    between atoms: C_1  and  C_5
    2  A    between atoms: C_2  and  C_15
    3  A    between atoms: N_6  and  C_23
                            x       y       z     vdW  Elec       q    Type
                         _______ _______ _______ _____ _____    ______ ____

>  <TORSDO>
F 3

$$$$
=
 OpenBabel10262419463D

 25 28  0  0  1  0  0  0  0  0999 V2000
  188.4290  177.1070  143.6680 C   0  0  0  0  0  0  0  0  0  0  0  0
  188.1090  177.5230  142.3580 C   0  0  0  0  0  0  0  0  0  0  0  0
  190.3560  175.9400  142.7850 C   0  0  0  0  0  3  0  0  0  0  0  0
  190.0340  176.3490  141.5300 N   0  0  0  0  0  0  0  0  0  0  0  0
  188.6320  177.5220  139.9760 C   0  0  0  0  0  0  0  0  0  0  0  0
  189.6370  177.0460  138.6170 Cl  0  0  0  0  0  0  0  0  0  0  0  0
  186.9760  178.3040  142.0900 C   0  0  0  0  0  3  0  0  0  0  0  0
  189.5630  176.3130  143.8700 C   0  0  0  0  0  3  0  0  0  0  0  0
  187.5010  178.3050  139.7350 C   0  0  0  0  0  3  0  0  0  0  0  0
  186.6710  178.7080  140.7850 C   0  0  0  0  0  0  0  0  0  0  0  0
  188.9420  177.1240  141.2860 C   0  0  0  0  0  0  0  0  0  0  0  0
  187.6220  177.5100  144.8410 C   0  0  0  0  0  0  0  0  0  0  0  0
  186.0290  178.2960  147.0160 C   0  0  0  0  0  3  0  0  0  0  0  0
  188.2030  177.7180  146.1110 C   0  0  0  0  0  0  0  0  0  0  0  0
  187.4020  178.1060  147.1880 C   0  0  0  0  0  3  0  0  0  0  0  0
  185.4490  178.0920  145.7630 C   0  0  0  0  0  3  0  0  0  0  0  0
  189.9170  177.4550  146.4070 Cl  0  0  0  0  0  0  0  0  0  0  0  0
  186.2420  177.7020  144.6820 C   0  0  0  0  0  3  0  0  0  0  0  0
  185.5060  179.4880  140.4820 N   0  0  0  0  0  2  0  0  0  0  0  0
  184.5580  179.2790  139.4250 C   0  0  0  0  0  0  0  0  0  0  0  0
  183.7260  180.1910  139.1710 O   0  0  0  0  0  0  0  0  0  0  0  0
  184.5350  178.0120  138.6070 C   0  0  2  0  0  3  0  0  0  0  0  0
  182.8470  177.3760  140.2520 O   0  0  0  0  0  1  0  0  0  0  0  0
  183.1860  177.8040  137.9420 C   0  0  0  0  0  2  0  0  0  0  0  0
  183.5600  176.9480  139.1300 C   0  0  1  0  0  3  0  0  0  0  0  0
  1  8  1  0  0  0  0
  1 12  1  0  0  0  0
  2  1  2  0  0  0  0
  3  8  2  0  0  0  0
  4  3  1  0  0  0  0
  5 11  1  0  0  0  0
  6  5  1  0  0  0  0
  7  2  1  0  0  0  0
  9  5  2  0  0  0  0
  9 10  1  0  0  0  0
 10  7  2  0  0  0  0
 11  4  2  0  0  0  0
 11  2  1  0  0  0  0
 12 14  1  0  0  0  0
 13 15  1  0  0  0  0
 14 17  1  0  0  0  0
 14 15  2  0  0  0  0
 16 13  2  0  0  0  0
 18 12  2  0  0  0  0
 18 16  1  0  0  0  0
 19 10  1  0  0  0  0
 20 19  1  0  0  0  0
 21 20  2  0  0  0  0
 22 25  1  0  0  0  0
 22 20  1  1  0  0  0
 24 22  1  0  0  0  0
 24 25  1  0  0  0  0
 25 23  1  1  0  0  0
M  END
>  <MODEL>
6

>  <REMARK>
 VINA RESULT:      -9.4      2.574      4.175
  Name = 
  3 active torsions:
  status: ('A' for Active; 'I' for Inactive)
    1  A    between atoms: C_1  and  C_5
    2  A    between atoms: C_2  and  C_15
    3  A    between atoms: N_6  and  C_23
                            x       y       z     vdW  Elec       q    Type
                         _______ _______ _______ _____ _____    ______ ____

>  <TORSDO>
F 3

$$$$
=
 OpenBabel10262419463D

 25 28  0  0  1  0  0  0  0  0999 V2000
  188.2570  177.1940  143.8470 C   0  0  0  0  0  0  0  0  0  0  0  0
  188.0810  177.5680  142.4980 C   0  0  0  0  0  0  0  0  0  0  0  0
  190.2270  175.9440  143.2040 C   0  0  0  0  0  3  0  0  0  0  0  0
  190.0440  176.3130  141.9100 N   0  0  0  0  0  0  0  0  0  0  0  0
  188.8380  177.4610  140.1820 C   0  0  0  0  0  0  0  0  0  0  0  0
  189.9590  176.9070  138.9490 Cl  0  0  0  0  0  0  0  0  0  0  0  0
  187.0040  178.3660  142.0900 C   0  0  0  0  0  3  0  0  0  0  0  0
  189.3420  176.3790  144.1900 C   0  0  0  0  0  3  0  0  0  0  0  0
  187.7600  178.2640  139.8000 C   0  0  0  0  0  3  0  0  0  0  0  0
  186.8430  178.7270  140.7470 C   0  0  0  0  0  0  0  0  0  0  0  0
  189.0050  177.1050  141.5300 C   0  0  0  0  0  0  0  0  0  0  0  0
  187.3490  177.6620  144.9180 C   0  0  0  0  0  0  0  0  0  0  0  0
  185.5730  178.5740  146.8920 C   0  0  0  0  0  3  0  0  0  0  0  0
  187.8010  177.8740  146.2390 C   0  0  0  0  0  0  0  0  0  0  0  0
  186.9090  178.3260  147.2160 C   0  0  0  0  0  3  0  0  0  0  0  0
  185.1210  178.3670  145.5890 C   0  0  0  0  0  3  0  0  0  0  0  0
  189.4590  177.5400  146.7230 Cl  0  0  0  0  0  0  0  0  0  0  0  0
  186.0050  177.9140  144.6080 C   0  0  0  0  0  3  0  0  0  0  0  0
  185.7370  179.5250  140.3010 N   0  0  0  0  0  2  0  0  0  0  0  0
  184.3700  179.1190  140.1340 C   0  0  0  0  0  0  0  0  0  0  0  0
  183.5840  179.8880  139.5190 O   0  0  0  0  0  0  0  0  0  0  0  0
  183.8540  177.8030  140.6600 C   0  0  2  0  0  3  0  0  0  0  0  0
  183.3360  179.1690  142.6160 O   0  0  0  0  0  1  0  0  0  0  0  0
  182.3560  177.8510  140.9020 C   0  0  0  0  0  2  0  0  0  0  0  0
  183.2940  177.8770  142.0870 C   0  0  1  0  0  3  0  0  0  0  0  0
  1  8  1  0  0  0  0
  1 12  1  0  0  0  0
  2  1  2  0  0  0  0
  3  8  2  0  0  0  0
  4  3  1  0  0  0  0
  5 11  1  0  0  0  0
  6  5  1  0  0  0  0
  7  2  1  0  0  0  0
  9  5  2  0  0  0  0
  9 10  1  0  0  0  0
 10  7  2  0  0  0  0
 11  4  2  0  0  0  0
 11  2  1  0  0  0  0
 12 14  1  0  0  0  0
 13 15  1  0  0  0  0
 14 17  1  0  0  0  0
 14 15  2  0  0  0  0
 16 13  2  0  0  0  0
 18 12  2  0  0  0  0
 18 16  1  0  0  0  0
 19 10  1  0  0  0  0
 20 19  1  0  0  0  0
 21 20  2  0  0  0  0
 22 20  1  6  0  0  0
 22 24  1  0  0  0  0
 22 25  1  0  0  0  0
 24 25  1  0  0  0  0
 25 23  1  6  0  0  0
M  END
>  <MODEL>
7

>  <REMARK>
 VINA RESULT:      -9.4      2.603      4.283
  Name = 
  3 active torsions:
  status: ('A' for Active; 'I' for Inactive)
    1  A    between atoms: C_1  and  C_5
    2  A    between atoms: C_2  and  C_15
    3  A    between atoms: N_6  and  C_23
                            x       y       z     vdW  Elec       q    Type
                         _______ _______ _______ _____ _____    ______ ____

>  <TORSDO>
F 3

$$$$
=
 OpenBabel10262419463D

 25 28  0  0  1  0  0  0  0  0999 V2000
  187.8870  177.9950  144.6700 C   0  0  0  0  0  0  0  0  0  0  0  0
  186.7840  178.1880  143.8110 C   0  0  0  0  0  0  0  0  0  0  0  0
  186.3810  178.0930  146.5610 C   0  0  0  0  0  3  0  0  0  0  0  0
  185.3300  178.2780  145.7210 N   0  0  0  0  0  0  0  0  0  0  0  0
  184.3870  178.5330  143.5300 C   0  0  0  0  0  0  0  0  0  0  0  0
  182.7670  178.7170  144.1830 Cl  0  0  0  0  0  0  0  0  0  0  0  0
  186.9400  178.2650  142.4200 C   0  0  0  0  0  3  0  0  0  0  0  0
  187.6710  177.9460  146.0520 C   0  0  0  0  0  3  0  0  0  0  0  0
  184.5650  178.5990  142.1460 C   0  0  0  0  0  3  0  0  0  0  0  0
  185.8360  178.4590  141.5810 C   0  0  0  0  0  0  0  0  0  0  0  0
  185.4920  178.3310  144.3710 C   0  0  0  0  0  0  0  0  0  0  0  0
  189.2620  177.8090  144.1560 C   0  0  0  0  0  0  0  0  0  0  0  0
  191.8850  177.5390  143.1920 C   0  0  0  0  0  3  0  0  0  0  0  0
  189.6410  176.6540  143.4380 C   0  0  0  0  0  0  0  0  0  0  0  0
  190.9500  176.5270  142.9650 C   0  0  0  0  0  3  0  0  0  0  0  0
  191.5170  178.6830  143.8990 C   0  0  0  0  0  3  0  0  0  0  0  0
  188.5260  175.3240  143.1560 Cl  0  0  0  0  0  0  0  0  0  0  0  0
  190.2120  178.8170  144.3780 C   0  0  0  0  0  3  0  0  0  0  0  0
  185.9720  178.5620  140.1560 N   0  0  0  0  0  2  0  0  0  0  0  0
  187.1780  178.5000  139.3810 C   0  0  0  0  0  0  0  0  0  0  0  0
  187.1330  178.8360  138.1670 O   0  0  0  0  0  0  0  0  0  0  0  0
  188.4920  178.0580  139.9750 C   0  0  2  0  0  3  0  0  0  0  0  0
  188.2960  176.3200  138.2710 O   0  0  0  0  0  1  0  0  0  0  0  0
  189.6210  178.1630  138.9650 C   0  0  0  0  0  2  0  0  0  0  0  0
  189.0790  176.7980  139.3240 C   0  0  1  0  0  3  0  0  0  0  0  0
  1  8  1  0  0  0  0
  2 11  1  0  0  0  0
  2  1  2  0  0  0  0
  4  3  1  0  0  0  0
  5  6  1  0  0  0  0
  5 11  1  0  0  0  0
  7  2  1  0  0  0  0
  8  3  2  0  0  0  0
  9  5  2  0  0  0  0
 10  9  1  0  0  0  0
 10  7  2  0  0  0  0
 11  4  2  0  0  0  0
 12 18  1  0  0  0  0
 12  1  1  0  0  0  0
 13 16  1  0  0  0  0
 14 12  2  0  0  0  0
 15 13  2  0  0  0  0
 15 14  1  0  0  0  0
 16 18  2  0  0  0  0
 17 14  1  0  0  0  0
 19 10  1  0  0  0  0
 20 19  1  0  0  0  0
 21 20  2  0  0  0  0
 22 20  1  6  0  0  0
 24 25  1  0  0  0  0
 24 22  1  0  0  0  0
 25 23  1  6  0  0  0
 25 22  1  0  0  0  0
M  END
>  <MODEL>
8

>  <REMARK>
 VINA RESULT:      -9.3      2.068      2.936
  Name = 
  3 active torsions:
  status: ('A' for Active; 'I' for Inactive)
    1  A    between atoms: C_1  and  C_5
    2  A    between atoms: C_2  and  C_15
    3  A    between atoms: N_6  and  C_23
                            x       y       z     vdW  Elec       q    Type
                         _______ _______ _______ _____ _____    ______ ____

>  <TORSDO>
F 3

$$$$
=
 OpenBabel10262419463D

 25 28  0  0  1  0  0  0  0  0999 V2000
  187.8060  177.5630  144.7780 C   0  0  0  0  0  0  0  0  0  0  0  0
  187.4750  177.9040  143.4490 C   0  0  0  0  0  0  0  0  0  0  0  0
  185.4890  177.8850  145.3970 C   0  0  0  0  0  3  0  0  0  0  0  0
  185.1870  178.2110  144.1130 N   0  0  0  0  0  0  0  0  0  0  0  0
  185.7910  178.5820  141.8210 C   0  0  0  0  0  0  0  0  0  0  0  0
  184.1400  178.9970  141.3900 Cl  0  0  0  0  0  0  0  0  0  0  0  0
  188.4450  177.9490  142.4380 C   0  0  0  0  0  3  0  0  0  0  0  0
  186.7970  177.5550  145.7480 C   0  0  0  0  0  3  0  0  0  0  0  0
  186.7730  178.6130  140.8280 C   0  0  0  0  0  3  0  0  0  0  0  0
  188.1010  178.2910  141.1250 C   0  0  0  0  0  0  0  0  0  0  0  0
  186.1340  178.2310  143.1360 C   0  0  0  0  0  0  0  0  0  0  0  0
  189.1800  177.1820  145.1740 C   0  0  0  0  0  0  0  0  0  0  0  0
  191.7940  176.4160  145.8540 C   0  0  0  0  0  3  0  0  0  0  0  0
  189.6400  177.3220  146.5020 C   0  0  0  0  0  0  0  0  0  0  0  0
  190.9440  176.9400  146.8300 C   0  0  0  0  0  3  0  0  0  0  0  0
  191.3460  176.2760  144.5410 C   0  0  0  0  0  3  0  0  0  0  0  0
  188.6360  178.0150  147.7680 Cl  0  0  0  0  0  0  0  0  0  0  0  0
  190.0450  176.6560  144.2030 C   0  0  0  0  0  3  0  0  0  0  0  0
  189.0770  178.3650  140.0770 N   0  0  0  0  0  2  0  0  0  0  0  0
  189.0700  177.6760  138.8170 C   0  0  0  0  0  0  0  0  0  0  0  0
  190.1180  177.6850  138.1180 O   0  0  0  0  0  0  0  0  0  0  0  0
  187.8550  176.9360  138.3150 C   0  0  2  0  0  3  0  0  0  0  0  0
  187.4440  179.0600  137.1820 O   0  0  0  0  0  1  0  0  0  0  0  0
  187.8970  176.7600  136.8070 C   0  0  0  0  0  2  0  0  0  0  0  0
  186.9470  177.7730  137.4040 C   0  0  1  0  0  3  0  0  0  0  0  0
  1 12  1  0  0  0  0
  1  8  1  0  0  0  0
  2  1  2  0  0  0  0
  3  8  2  0  0  0  0
  4  3  1  0  0  0  0
  5 11  1  0  0  0  0
  6  5  1  0  0  0  0
  7  2  1  0  0  0  0
  9 10  1  0  0  0  0
  9  5  2  0  0  0  0
 10  7  2  0  0  0  0
 11  2  1  0  0  0  0
 11  4  2  0  0  0  0
 12 14  1  0  0  0  0
 13 15  1  0  0  0  0
 14 15  2  0  0  0  0
 14 17  1  0  0  0  0
 16 13  2  0  0  0  0
 18 16  1  0  0  0  0
 18 12  2  0  0  0  0
 19 10  1  0  0  0  0
 20 19  1  0  0  0  0
 21 20  2  0  0  0  0
 22 20  1  6  0  0  0
 24 25  1  0  0  0  0
 24 22  1  0  0  0  0
 25 23  1  6  0  0  0
 25 22  1  0  0  0  0
M  END
>  <MODEL>
9

>  <REMARK>
 VINA RESULT:      -9.2      2.040      2.608
  Name = 
  3 active torsions:
  status: ('A' for Active; 'I' for Inactive)
    1  A    between atoms: C_1  and  C_5
    2  A    between atoms: C_2  and  C_15
    3  A    between atoms: N_6  and  C_23
                            x       y       z     vdW  Elec       q    Type
                         _______ _______ _______ _____ _____    ______ ____

>  <TORSDO>
F 3

$$$$
