=
 OpenBabel10262419313D

 31 35  0  0  1  0  0  0  0  0999 V2000
  189.7910  177.1100  146.7600 C   0  0  0  0  0  0  0  0  0  0  0  0
  187.6560  177.3980  143.5780 C   0  0  2  0  0  3  0  0  0  0  0  0
  186.4070  178.0950  144.1040 C   0  0  0  0  0  0  0  0  0  0  0  0
  184.8430  178.4160  145.8760 C   0  0  0  0  0  0  0  0  0  0  0  0
  188.8430  177.3050  144.5260 C   0  0  0  0  0  0  0  0  0  0  0  0
  191.0690  176.9780  146.2150 C   0  0  0  0  0  3  0  0  0  0  0  0
  185.9990  177.8930  145.3890 N   0  0  0  0  0  0  0  0  0  0  0  0
  189.2480  177.1400  141.6720 C   0  0  1  0  0  3  0  0  0  0  0  0
  189.6200  177.0840  148.1040 F   0  0  0  0  0  0  0  0  0  0  0  0
  185.9200  179.0490  141.7850 C   0  0  0  0  0  2  0  0  0  0  0  0
  184.4960  178.2030  147.1680 F   0  0  0  0  0  0  0  0  0  0  0  0
  190.3360  177.1380  142.5980 O   0  0  0  0  0  0  0  0  0  0  0  0
  188.1030  177.9800  142.2260 C   0  0  1  0  0  3  0  0  0  0  0  0
  188.6850  177.2610  145.9200 C   0  0  0  0  0  3  0  0  0  0  0  0
  184.0100  179.1660  145.0460 C   0  0  0  0  0  3  0  0  0  0  0  0
  190.1380  177.1380  143.9840 C   0  0  0  0  0  0  0  0  0  0  0  0
  191.2410  176.9900  144.8290 C   0  0  0  0  0  3  0  0  0  0  0  0
  186.9210  178.0220  141.2700 C   0  0  0  0  0  2  0  0  0  0  0  0
  185.5580  178.8070  143.2240 C   0  0  0  0  0  0  0  0  0  0  0  0
  184.3740  179.3590  143.7150 C   0  0  0  0  0  3  0  0  0  0  0  0
  189.6860  177.6690  140.4260 O   0  0  0  0  0  0  0  0  0  0  0  0
  190.5910  175.9700  139.1590 O   0  0  0  0  0  0  0  0  0  0  0  0
  189.7410  176.8960  139.2620 C   0  0  0  0  0  0  0  0  0  0  0  0
  186.9710  177.6080  136.0680 C   0  0  0  0  0  0  0  0  0  0  0  0
  188.0770  176.1030  137.6030 C   0  0  0  0  0  3  0  0  0  0  0  0
  189.2520  179.5410  138.1600 F   0  0  0  0  0  0  0  0  0  0  0  0
  186.0930  177.8180  135.0580 F   0  0  0  0  0  0  0  0  0  0  0  0
  187.1700  176.3180  136.5630 C   0  0  0  0  0  3  0  0  0  0  0  0
  188.5860  178.4730  137.6560 C   0  0  0  0  0  0  0  0  0  0  0  0
  188.7930  177.1720  138.1620 C   0  0  0  0  0  0  0  0  0  0  0  0
  187.6770  178.6830  136.6130 C   0  0  0  0  0  3  0  0  0  0  0  0
  1  9  1  0  0  0  0
  2  3  1  1  0  0  0
  2  5  1  0  0  0  0
  3  7  1  0  0  0  0
  4 11  1  0  0  0  0
  5 14  1  0  0  0  0
  6  1  1  0  0  0  0
  7  4  2  0  0  0  0
  8 21  1  6  0  0  0
  8 13  1  0  0  0  0
  8 12  1  0  0  0  0
 10 19  1  0  0  0  0
 12 16  1  0  0  0  0
 13 18  1  6  0  0  0
 13  2  1  0  0  0  0
 14  1  2  0  0  0  0
 15  4  1  0  0  0  0
 16  5  2  0  0  0  0
 16 17  1  0  0  0  0
 17  6  2  0  0  0  0
 18 10  1  0  0  0  0
 19 20  1  0  0  0  0
 19  3  2  0  0  0  0
 20 15  2  0  0  0  0
 22 23  2  0  0  0  0
 23 21  1  0  0  0  0
 24 28  2  0  0  0  0
 24 31  1  0  0  0  0
 25 30  2  0  0  0  0
 27 24  1  0  0  0  0
 28 25  1  0  0  0  0
 29 26  1  0  0  0  0
 29 30  1  0  0  0  0
 30 23  1  0  0  0  0
 31 29  2  0  0  0  0
M  END
>  <MODEL>
1

>  <REMARK>
 VINA RESULT:     -10.9      0.000      0.000
  Name = 
  3 active torsions:
  status: ('A' for Active; 'I' for Inactive)
    1  A    between atoms: C_9  and  C_22
    2  A    between atoms: C_9  and  O_23
    3  A    between atoms: C_15  and  O_23
                            x       y       z     vdW  Elec       q    Type
                         _______ _______ _______ _____ _____    ______ ____

>  <TORSDO>
F 3

$$$$
=
 OpenBabel10262419313D

 31 35  0  0  1  0  0  0  0  0999 V2000
  190.7400  177.0740  142.3680 C   0  0  0  0  0  0  0  0  0  0  0  0
  187.3670  177.4420  144.1730 C   0  0  2  0  0  3  0  0  0  0  0  0
  187.8070  177.6020  145.6230 C   0  0  0  0  0  0  0  0  0  0  0  0
  189.3340  177.0370  147.3670 C   0  0  0  0  0  0  0  0  0  0  0  0
  188.4600  177.4880  143.1130 C   0  0  0  0  0  0  0  0  0  0  0  0
  190.3920  177.4520  141.0700 C   0  0  0  0  0  3  0  0  0  0  0  0
  188.9490  177.0020  146.0630 N   0  0  0  0  0  0  0  0  0  0  0  0
  185.7280  178.1050  142.4100 C   0  0  1  0  0  3  0  0  0  0  0  0
  192.0100  176.6940  142.6460 F   0  0  0  0  0  0  0  0  0  0  0  0
  185.6610  178.8750  146.1700 C   0  0  0  0  0  2  0  0  0  0  0  0
  190.4890  176.4420  147.7470 F   0  0  0  0  0  0  0  0  0  0  0  0
  186.7990  178.2120  141.4720 O   0  0  0  0  0  0  0  0  0  0  0  0
  186.2390  178.4220  143.8120 C   0  0  1  0  0  3  0  0  0  0  0  0
  189.7760  177.0820  143.3800 C   0  0  0  0  0  3  0  0  0  0  0  0
  188.5360  177.6780  148.3140 C   0  0  0  0  0  3  0  0  0  0  0  0
  188.1110  177.8360  141.7890 C   0  0  0  0  0  0  0  0  0  0  0  0
  189.0800  177.8300  140.7810 C   0  0  0  0  0  3  0  0  0  0  0  0
  185.1300  178.3330  144.8490 C   0  0  0  0  0  2  0  0  0  0  0  0
  186.9520  178.2160  146.5690 C   0  0  0  0  0  0  0  0  0  0  0  0
  187.3400  178.2680  147.9090 C   0  0  0  0  0  3  0  0  0  0  0  0
  184.6900  179.0090  142.0500 O   0  0  0  0  0  0  0  0  0  0  0  0
  184.5540  179.7460  139.8710 O   0  0  0  0  0  0  0  0  0  0  0  0
  184.0980  179.0040  140.7830 C   0  0  0  0  0  0  0  0  0  0  0  0
  180.7980  176.3840  139.9890 C   0  0  0  0  0  0  0  0  0  0  0  0
  183.1360  176.9580  139.7640 C   0  0  0  0  0  3  0  0  0  0  0  0
  181.4090  179.5150  141.7610 F   0  0  0  0  0  0  0  0  0  0  0  0
  179.7640  175.5480  139.7290 F   0  0  0  0  0  0  0  0  0  0  0  0
  182.0720  176.0940  139.4970 C   0  0  0  0  0  3  0  0  0  0  0  0
  181.6510  178.4060  141.0200 C   0  0  0  0  0  0  0  0  0  0  0  0
  182.9420  178.1200  140.5250 C   0  0  0  0  0  0  0  0  0  0  0  0
  180.5890  177.5380  140.7490 C   0  0  0  0  0  3  0  0  0  0  0  0
  1  9  1  0  0  0  0
  1 14  1  0  0  0  0
  2  5  1  6  0  0  0
  2  3  1  0  0  0  0
  3  7  2  0  0  0  0
  3 19  1  0  0  0  0
  4 11  1  0  0  0  0
  4 15  2  0  0  0  0
  5 14  2  0  0  0  0
  6  1  2  0  0  0  0
  7  4  1  0  0  0  0
  8 21  1  6  0  0  0
  8 13  1  0  0  0  0
 10 19  1  0  0  0  0
 12 16  1  0  0  0  0
 12  8  1  0  0  0  0
 13  2  1  0  0  0  0
 13 18  1  1  0  0  0
 16  5  1  0  0  0  0
 17  6  1  0  0  0  0
 17 16  2  0  0  0  0
 18 10  1  0  0  0  0
 19 20  2  0  0  0  0
 20 15  1  0  0  0  0
 22 23  2  0  0  0  0
 23 21  1  0  0  0  0
 24 31  1  0  0  0  0
 25 30  2  0  0  0  0
 27 24  1  0  0  0  0
 28 25  1  0  0  0  0
 28 24  2  0  0  0  0
 29 26  1  0  0  0  0
 30 23  1  0  0  0  0
 30 29  1  0  0  0  0
 31 29  2  0  0  0  0
M  END
>  <MODEL>
2

>  <REMARK>
 VINA RESULT:     -10.8      3.551      5.377
  Name = 
  3 active torsions:
  status: ('A' for Active; 'I' for Inactive)
    1  A    between atoms: C_9  and  C_22
    2  A    between atoms: C_9  and  O_23
    3  A    between atoms: C_15  and  O_23
                            x       y       z     vdW  Elec       q    Type
                         _______ _______ _______ _____ _____    ______ ____

>  <TORSDO>
F 3

$$$$
=
 OpenBabel10262419313D

 31 35  0  0  1  0  0  0  0  0999 V2000
  190.6460  177.1200  142.1430 C   0  0  0  0  0  0  0  0  0  0  0  0
  187.0950  177.6570  143.5100 C   0  0  2  0  0  3  0  0  0  0  0  0
  187.3540  177.7840  145.0060 C   0  0  0  0  0  0  0  0  0  0  0  0
  188.6140  177.1280  146.9230 C   0  0  0  0  0  0  0  0  0  0  0  0
  188.3140  177.6510  142.5990 C   0  0  0  0  0  0  0  0  0  0  0  0
  190.4870  177.5240  140.8170 C   0  0  0  0  0  3  0  0  0  0  0  0
  188.3980  177.1210  145.5800 N   0  0  0  0  0  0  0  0  0  0  0  0
  185.7300  178.4180  141.5620 C   0  0  1  0  0  3  0  0  0  0  0  0
  191.8480  176.6700  142.5760 F   0  0  0  0  0  0  0  0  0  0  0  0
  185.2250  179.1670  145.2930 C   0  0  0  0  0  2  0  0  0  0  0  0
  189.6790  176.4690  147.4380 F   0  0  0  0  0  0  0  0  0  0  0  0
  186.9170  178.4730  140.7690 O   0  0  0  0  0  0  0  0  0  0  0  0
  186.0740  178.6980  143.0210 C   0  0  1  0  0  3  0  0  0  0  0  0
  189.5630  177.1730  143.0250 C   0  0  0  0  0  3  0  0  0  0  0  0
  187.7370  177.8050  147.7690 C   0  0  0  0  0  3  0  0  0  0  0  0
  188.1560  178.0250  141.2450 C   0  0  0  0  0  0  0  0  0  0  0  0
  189.2440  177.9740  140.3680 C   0  0  0  0  0  3  0  0  0  0  0  0
  184.8390  178.6620  143.9080 C   0  0  0  0  0  2  0  0  0  0  0  0
  186.4180  178.4370  145.8440 C   0  0  0  0  0  0  0  0  0  0  0  0
  186.6350  178.4600  147.2220 C   0  0  0  0  0  3  0  0  0  0  0  0
  184.7960  179.3780  141.0850 O   0  0  0  0  0  0  0  0  0  0  0  0
  184.1800  180.3600  139.0930 O   0  0  0  0  0  0  0  0  0  0  0  0
  184.2490  179.3170  139.7990 C   0  0  0  0  0  0  0  0  0  0  0  0
  182.8920  175.5680  138.2200 C   0  0  0  0  0  0  0  0  0  0  0  0
  184.3400  177.5020  138.1120 C   0  0  0  0  0  3  0  0  0  0  0  0
  182.1400  177.7530  141.0450 F   0  0  0  0  0  0  0  0  0  0  0  0
  182.4740  174.3860  137.7100 F   0  0  0  0  0  0  0  0  0  0  0  0
  183.9100  176.2830  137.5850 C   0  0  0  0  0  3  0  0  0  0  0  0
  182.7330  177.2950  139.9150 C   0  0  0  0  0  0  0  0  0  0  0  0
  183.7610  178.0230  139.2780 C   0  0  0  0  0  0  0  0  0  0  0  0
  182.3060  176.0740  139.3830 C   0  0  0  0  0  3  0  0  0  0  0  0
  1  9  1  0  0  0  0
  1 14  1  0  0  0  0
  2  5  1  6  0  0  0
  2  3  1  0  0  0  0
  3  7  2  0  0  0  0
  3 19  1  0  0  0  0
  4 11  1  0  0  0  0
  4 15  2  0  0  0  0
  5 14  2  0  0  0  0
  6  1  2  0  0  0  0
  7  4  1  0  0  0  0
  8 21  1  6  0  0  0
  8 13  1  0  0  0  0
 10 19  1  0  0  0  0
 12 16  1  0  0  0  0
 12  8  1  0  0  0  0
 13  2  1  0  0  0  0
 13 18  1  1  0  0  0
 16  5  1  0  0  0  0
 17  6  1  0  0  0  0
 17 16  2  0  0  0  0
 18 10  1  0  0  0  0
 19 20  2  0  0  0  0
 20 15  1  0  0  0  0
 22 23  2  0  0  0  0
 23 21  1  0  0  0  0
 24 31  1  0  0  0  0
 25 30  2  0  0  0  0
 27 24  1  0  0  0  0
 28 25  1  0  0  0  0
 28 24  2  0  0  0  0
 29 26  1  0  0  0  0
 30 23  1  0  0  0  0
 30 29  1  0  0  0  0
 31 29  2  0  0  0  0
M  END
>  <MODEL>
3

>  <REMARK>
 VINA RESULT:     -10.8      3.247      4.703
  Name = 
  3 active torsions:
  status: ('A' for Active; 'I' for Inactive)
    1  A    between atoms: C_9  and  C_22
    2  A    between atoms: C_9  and  O_23
    3  A    between atoms: C_15  and  O_23
                            x       y       z     vdW  Elec       q    Type
                         _______ _______ _______ _____ _____    ______ ____

>  <TORSDO>
F 3

$$$$
=
 OpenBabel10262419313D

 31 35  0  0  1  0  0  0  0  0999 V2000
  185.3550  178.3800  145.3850 C   0  0  0  0  0  0  0  0  0  0  0  0
  188.9150  177.9720  143.9960 C   0  0  2  0  0  3  0  0  0  0  0  0
  189.6660  177.4530  145.2150 C   0  0  0  0  0  0  0  0  0  0  0  0
  189.9700  177.4600  147.5820 C   0  0  0  0  0  0  0  0  0  0  0  0
  187.3980  178.0490  144.1030 C   0  0  0  0  0  0  0  0  0  0  0  0
  184.6020  178.3350  144.2110 C   0  0  0  0  0  3  0  0  0  0  0  0
  189.2770  177.8200  146.4690 N   0  0  0  0  0  0  0  0  0  0  0  0
  188.6640  177.8850  141.5130 C   0  0  1  0  0  3  0  0  0  0  0  0
  184.7400  178.5580  146.5790 F   0  0  0  0  0  0  0  0  0  0  0  0
  191.3920  176.3180  143.7120 C   0  0  0  0  0  2  0  0  0  0  0  0
  189.5270  177.8350  148.8050 F   0  0  0  0  0  0  0  0  0  0  0  0
  187.2440  177.8790  141.6690 O   0  0  0  0  0  0  0  0  0  0  0  0
  189.3170  177.2170  142.7180 C   0  0  1  0  0  3  0  0  0  0  0  0
  186.7450  178.2490  145.3290 C   0  0  0  0  0  3  0  0  0  0  0  0
  191.1410  176.7110  147.4640 C   0  0  0  0  0  3  0  0  0  0  0  0
  186.6290  178.0380  142.9170 C   0  0  0  0  0  0  0  0  0  0  0  0
  185.2380  178.1660  142.9790 C   0  0  0  0  0  3  0  0  0  0  0  0
  190.8320  177.1890  142.5940 C   0  0  0  0  0  2  0  0  0  0  0  0
  190.8770  176.7370  145.0610 C   0  0  0  0  0  0  0  0  0  0  0  0
  191.5930  176.3520  146.1960 C   0  0  0  0  0  3  0  0  0  0  0  0
  189.0130  177.1950  140.3190 O   0  0  0  0  0  0  0  0  0  0  0  0
  188.9940  179.0460  138.9470 O   0  0  0  0  0  0  0  0  0  0  0  0
  189.3820  177.8620  139.1480 C   0  0  0  0  0  0  0  0  0  0  0  0
  191.7790  175.8630  136.2080 C   0  0  0  0  0  0  0  0  0  0  0  0
  189.7000  176.8940  136.8870 C   0  0  0  0  0  3  0  0  0  0  0  0
  192.1210  177.0290  139.6490 F   0  0  0  0  0  0  0  0  0  0  0  0
  192.5250  175.2320  135.2700 F   0  0  0  0  0  0  0  0  0  0  0  0
  190.4680  176.2440  135.9180 C   0  0  0  0  0  3  0  0  0  0  0  0
  191.5590  176.7840  138.4400 C   0  0  0  0  0  0  0  0  0  0  0  0
  190.2320  177.1720  138.1550 C   0  0  0  0  0  0  0  0  0  0  0  0
  192.3230  176.1330  137.4660 C   0  0  0  0  0  3  0  0  0  0  0  0
  1  9  1  0  0  0  0
  2  5  1  1  0  0  0
  2  3  1  0  0  0  0
  3  7  1  0  0  0  0
  4 11  1  0  0  0  0
  5 14  2  0  0  0  0
  6  1  2  0  0  0  0
  7  4  2  0  0  0  0
  8 21  1  6  0  0  0
  8 12  1  0  0  0  0
  8 13  1  0  0  0  0
 10 19  1  0  0  0  0
 12 16  1  0  0  0  0
 13 18  1  6  0  0  0
 13  2  1  0  0  0  0
 14  1  1  0  0  0  0
 15  4  1  0  0  0  0
 16 17  2  0  0  0  0
 16  5  1  0  0  0  0
 17  6  1  0  0  0  0
 18 10  1  0  0  0  0
 19  3  2  0  0  0  0
 19 20  1  0  0  0  0
 20 15  2  0  0  0  0
 22 23  2  0  0  0  0
 23 21  1  0  0  0  0
 24 31  1  0  0  0  0
 25 30  2  0  0  0  0
 27 24  1  0  0  0  0
 28 24  2  0  0  0  0
 28 25  1  0  0  0  0
 29 26  1  0  0  0  0
 30 29  1  0  0  0  0
 30 23  1  0  0  0  0
 31 29  2  0  0  0  0
M  END
>  <MODEL>
4

>  <REMARK>
 VINA RESULT:     -10.7      2.148      4.575
  Name = 
  3 active torsions:
  status: ('A' for Active; 'I' for Inactive)
    1  A    between atoms: C_9  and  C_22
    2  A    between atoms: C_9  and  O_23
    3  A    between atoms: C_15  and  O_23
                            x       y       z     vdW  Elec       q    Type
                         _______ _______ _______ _____ _____    ______ ____

>  <TORSDO>
F 3

$$$$
=
 OpenBabel10262419313D

 31 35  0  0  1  0  0  0  0  0999 V2000
  189.5120  177.4680  141.8250 C   0  0  0  0  0  0  0  0  0  0  0  0
  186.7660  177.6890  144.5040 C   0  0  2  0  0  3  0  0  0  0  0  0
  187.5870  177.7500  145.7860 C   0  0  0  0  0  0  0  0  0  0  0  0
  189.5250  177.0740  147.0030 C   0  0  0  0  0  0  0  0  0  0  0  0
  187.5280  177.8150  143.1920 C   0  0  0  0  0  0  0  0  0  0  0  0
  188.8280  177.9330  140.7000 C   0  0  0  0  0  3  0  0  0  0  0  0
  188.7980  177.1280  145.8550 N   0  0  0  0  0  0  0  0  0  0  0  0
  184.7160  178.4640  143.3070 C   0  0  1  0  0  3  0  0  0  0  0  0
  190.8040  177.0760  141.7180 F   0  0  0  0  0  0  0  0  0  0  0  0
  185.6890  178.9690  146.9850 C   0  0  0  0  0  2  0  0  0  0  0  0
  190.7320  176.4610  147.0110 F   0  0  0  0  0  0  0  0  0  0  0  0
  185.4920  178.6420  142.1200 O   0  0  0  0  0  0  0  0  0  0  0  0
  185.5950  178.6850  144.5330 C   0  0  1  0  0  3  0  0  0  0  0  0
  188.8620  177.3990  143.0590 C   0  0  0  0  0  3  0  0  0  0  0  0
  189.0250  177.6430  148.1740 C   0  0  0  0  0  3  0  0  0  0  0  0
  186.8350  178.2530  142.0400 C   0  0  0  0  0  0  0  0  0  0  0  0
  187.4910  178.3230  140.8080 C   0  0  0  0  0  3  0  0  0  0  0  0
  184.8110  178.5180  145.8250 C   0  0  0  0  0  2  0  0  0  0  0  0
  187.0310  178.2910  146.9690 C   0  0  0  0  0  0  0  0  0  0  0  0
  187.7720  178.2520  148.1520 C   0  0  0  0  0  3  0  0  0  0  0  0
  183.6320  179.3840  143.3070 O   0  0  0  0  0  0  0  0  0  0  0  0
  181.7390  178.5740  144.3410 O   0  0  0  0  0  0  0  0  0  0  0  0
  182.2970  178.9700  143.2810 C   0  0  0  0  0  0  0  0  0  0  0  0
  180.0710  179.1330  139.6200 C   0  0  0  0  0  0  0  0  0  0  0  0
  180.4110  179.8190  141.9130 C   0  0  0  0  0  3  0  0  0  0  0  0
  183.0360  177.4470  140.9180 F   0  0  0  0  0  0  0  0  0  0  0  0
  179.3580  179.1940  138.4700 F   0  0  0  0  0  0  0  0  0  0  0  0
  179.6750  179.8840  140.7280 C   0  0  0  0  0  3  0  0  0  0  0  0
  181.9440  178.2490  140.8820 C   0  0  0  0  0  0  0  0  0  0  0  0
  181.5490  179.0050  142.0060 C   0  0  0  0  0  0  0  0  0  0  0  0
  181.2030  178.3180  139.6970 C   0  0  0  0  0  3  0  0  0  0  0  0
  1 14  1  0  0  0  0
  2  5  1  6  0  0  0
  2 13  1  0  0  0  0
  2  3  1  0  0  0  0
  3  7  2  0  0  0  0
  3 19  1  0  0  0  0
  4 11  1  0  0  0  0
  4 15  2  0  0  0  0
  6 17  1  0  0  0  0
  6  1  2  0  0  0  0
  7  4  1  0  0  0  0
  8 21  1  6  0  0  0
  8 13  1  0  0  0  0
  9  1  1  0  0  0  0
 12  8  1  0  0  0  0
 13 18  1  1  0  0  0
 14  5  2  0  0  0  0
 16 12  1  0  0  0  0
 16  5  1  0  0  0  0
 17 16  2  0  0  0  0
 18 10  1  0  0  0  0
 19 10  1  0  0  0  0
 19 20  2  0  0  0  0
 20 15  1  0  0  0  0
 23 21  1  0  0  0  0
 23 22  2  0  0  0  0
 24 31  2  0  0  0  0
 24 28  1  0  0  0  0
 25 30  1  0  0  0  0
 27 24  1  0  0  0  0
 28 25  2  0  0  0  0
 29 26  1  0  0  0  0
 29 30  2  0  0  0  0
 30 23  1  0  0  0  0
 31 29  1  0  0  0  0
M  END
>  <MODEL>
5

>  <REMARK>
 VINA RESULT:     -10.5      3.816      6.243
  Name = 
  3 active torsions:
  status: ('A' for Active; 'I' for Inactive)
    1  A    between atoms: C_9  and  C_22
    2  A    between atoms: C_9  and  O_23
    3  A    between atoms: C_15  and  O_23
                            x       y       z     vdW  Elec       q    Type
                         _______ _______ _______ _____ _____    ______ ____

>  <TORSDO>
F 3

$$$$
=
 OpenBabel10262419313D

 31 35  0  0  1  0  0  0  0  0999 V2000
  185.2870  178.2320  145.0300 C   0  0  0  0  0  0  0  0  0  0  0  0
  188.9020  178.0940  143.7320 C   0  0  2  0  0  3  0  0  0  0  0  0
  189.6350  177.4840  144.9210 C   0  0  0  0  0  0  0  0  0  0  0  0
  189.8650  177.2680  147.2860 C   0  0  0  0  0  0  0  0  0  0  0  0
  187.3800  178.1040  143.7940 C   0  0  0  0  0  0  0  0  0  0  0  0
  184.5730  178.2760  143.8320 C   0  0  0  0  0  3  0  0  0  0  0  0
  189.1920  177.7110  146.1900 N   0  0  0  0  0  0  0  0  0  0  0  0
  188.7310  178.2440  141.2460 C   0  0  1  0  0  3  0  0  0  0  0  0
  184.6290  178.2680  146.2130 F   0  0  0  0  0  0  0  0  0  0  0  0
  191.4500  176.5670  143.3740 C   0  0  0  0  0  2  0  0  0  0  0  0
  189.3690  177.5040  148.5230 F   0  0  0  0  0  0  0  0  0  0  0  0
  187.3090  178.1700  141.3510 O   0  0  0  0  0  0  0  0  0  0  0  0
  189.3730  177.4840  142.4020 C   0  0  1  0  0  3  0  0  0  0  0  0
  186.6820  178.1580  145.0100 C   0  0  0  0  0  3  0  0  0  0  0  0
  191.0670  176.5780  147.1360 C   0  0  0  0  0  3  0  0  0  0  0  0
  186.6490  178.1830  142.5870 C   0  0  0  0  0  0  0  0  0  0  0  0
  185.2530  178.2530  142.6120 C   0  0  0  0  0  3  0  0  0  0  0  0
  190.8910  177.5230  142.3280 C   0  0  0  0  0  2  0  0  0  0  0  0
  190.8780  176.8320  144.7390 C   0  0  0  0  0  0  0  0  0  0  0  0
  191.5720  176.3620  145.8550 C   0  0  0  0  0  3  0  0  0  0  0  0
  189.1440  177.6880  140.0030 O   0  0  0  0  0  0  0  0  0  0  0  0
  189.0550  179.3680  138.4290 O   0  0  0  0  0  0  0  0  0  0  0  0
  188.7200  178.2020  138.7740 C   0  0  0  0  0  0  0  0  0  0  0  0
  186.3690  175.7260  136.1800 C   0  0  0  0  0  0  0  0  0  0  0  0
  188.4840  176.2990  137.2020 C   0  0  0  0  0  3  0  0  0  0  0  0
  185.8760  178.6230  138.3460 F   0  0  0  0  0  0  0  0  0  0  0  0
  185.6380  174.9370  135.3570 F   0  0  0  0  0  0  0  0  0  0  0  0
  187.7320  175.4830  136.3530 C   0  0  0  0  0  3  0  0  0  0  0  0
  186.5050  177.6050  137.7070 C   0  0  0  0  0  0  0  0  0  0  0  0
  187.8850  177.3660  137.8870 C   0  0  0  0  0  0  0  0  0  0  0  0
  185.7570  176.7850  136.8560 C   0  0  0  0  0  3  0  0  0  0  0  0
  1  9  1  0  0  0  0
  2  5  1  1  0  0  0
  2  3  1  0  0  0  0
  3  7  1  0  0  0  0
  4 11  1  0  0  0  0
  5 14  2  0  0  0  0
  6  1  2  0  0  0  0
  7  4  2  0  0  0  0
  8 21  1  6  0  0  0
  8 12  1  0  0  0  0
  8 13  1  0  0  0  0
 10 19  1  0  0  0  0
 12 16  1  0  0  0  0
 13 18  1  6  0  0  0
 13  2  1  0  0  0  0
 14  1  1  0  0  0  0
 15  4  1  0  0  0  0
 16 17  2  0  0  0  0
 16  5  1  0  0  0  0
 17  6  1  0  0  0  0
 18 10  1  0  0  0  0
 19  3  2  0  0  0  0
 19 20  1  0  0  0  0
 20 15  2  0  0  0  0
 22 23  2  0  0  0  0
 23 21  1  0  0  0  0
 24 28  2  0  0  0  0
 24 31  1  0  0  0  0
 25 30  2  0  0  0  0
 27 24  1  0  0  0  0
 28 25  1  0  0  0  0
 29 30  1  0  0  0  0
 29 26  1  0  0  0  0
 30 23  1  0  0  0  0
 31 29  2  0  0  0  0
M  END
>  <MODEL>
6

>  <REMARK>
 VINA RESULT:     -10.4      1.591      4.172
  Name = 
  3 active torsions:
  status: ('A' for Active; 'I' for Inactive)
    1  A    between atoms: C_9  and  C_22
    2  A    between atoms: C_9  and  O_23
    3  A    between atoms: C_15  and  O_23
                            x       y       z     vdW  Elec       q    Type
                         _______ _______ _______ _____ _____    ______ ____

>  <TORSDO>
F 3

$$$$
=
 OpenBabel10262419313D

 31 35  0  0  1  0  0  0  0  0999 V2000
  189.8210  177.1310  146.3410 C   0  0  0  0  0  0  0  0  0  0  0  0
  187.4080  177.5560  143.3800 C   0  0  2  0  0  3  0  0  0  0  0  0
  186.1930  178.1780  144.0570 C   0  0  0  0  0  0  0  0  0  0  0  0
  184.7830  178.3370  145.9750 C   0  0  0  0  0  0  0  0  0  0  0  0
  188.6770  177.4400  144.2150 C   0  0  0  0  0  0  0  0  0  0  0  0
  191.0490  177.0740  145.6800 C   0  0  0  0  0  3  0  0  0  0  0  0
  185.9050  177.8830  145.3560 N   0  0  0  0  0  0  0  0  0  0  0  0
  188.8330  177.4710  141.3310 C   0  0  1  0  0  3  0  0  0  0  0  0
  189.7700  177.0140  147.6890 F   0  0  0  0  0  0  0  0  0  0  0  0
  185.4800  179.2640  141.8570 C   0  0  0  0  0  2  0  0  0  0  0  0
  184.5570  178.0300  147.2740 F   0  0  0  0  0  0  0  0  0  0  0  0
  189.9980  177.4430  142.1580 O   0  0  0  0  0  0  0  0  0  0  0  0
  187.7200  178.2370  142.0370 C   0  0  1  0  0  3  0  0  0  0  0  0
  188.6420  177.3010  145.6110 C   0  0  0  0  0  3  0  0  0  0  0  0
  183.8620  179.1130  145.2710 C   0  0  0  0  0  3  0  0  0  0  0  0
  189.9220  177.3480  143.5530 C   0  0  0  0  0  0  0  0  0  0  0  0
  191.0990  177.1810  144.2890 C   0  0  0  0  0  3  0  0  0  0  0  0
  186.4580  178.3040  141.1910 C   0  0  0  0  0  2  0  0  0  0  0  0
  185.2530  178.9190  143.3030 C   0  0  0  0  0  0  0  0  0  0  0  0
  184.1020  179.4010  143.9290 C   0  0  0  0  0  3  0  0  0  0  0  0
  189.1460  178.0910  140.0900 O   0  0  0  0  0  0  0  0  0  0  0  0
  187.9790  177.6750  138.1480 O   0  0  0  0  0  0  0  0  0  0  0  0
  188.9890  177.4370  138.8650 C   0  0  0  0  0  0  0  0  0  0  0  0
  191.9080  174.5960  137.5240 C   0  0  0  0  0  0  0  0  0  0  0  0
  189.6300  175.4040  137.5970 C   0  0  0  0  0  3  0  0  0  0  0  0
  191.8010  177.6080  139.5830 F   0  0  0  0  0  0  0  0  0  0  0  0
  192.8190  173.6910  137.0940 F   0  0  0  0  0  0  0  0  0  0  0  0
  190.5680  174.4710  137.1510 C   0  0  0  0  0  3  0  0  0  0  0  0
  191.3730  176.5930  138.7910 C   0  0  0  0  0  0  0  0  0  0  0  0
  190.0170  176.4730  138.4190 C   0  0  0  0  0  0  0  0  0  0  0  0
  192.3090  175.6550  138.3420 C   0  0  0  0  0  3  0  0  0  0  0  0
  1  9  1  0  0  0  0
  2  3  1  1  0  0  0
  2  5  1  0  0  0  0
  3  7  1  0  0  0  0
  4 11  1  0  0  0  0
  5 14  1  0  0  0  0
  6  1  1  0  0  0  0
  7  4  2  0  0  0  0
  8 21  1  6  0  0  0
  8 13  1  0  0  0  0
  8 12  1  0  0  0  0
 10 19  1  0  0  0  0
 12 16  1  0  0  0  0
 13 18  1  6  0  0  0
 13  2  1  0  0  0  0
 14  1  2  0  0  0  0
 15  4  1  0  0  0  0
 16  5  2  0  0  0  0
 16 17  1  0  0  0  0
 17  6  2  0  0  0  0
 18 10  1  0  0  0  0
 19 20  1  0  0  0  0
 19  3  2  0  0  0  0
 20 15  2  0  0  0  0
 22 23  2  0  0  0  0
 23 21  1  0  0  0  0
 24 31  1  0  0  0  0
 25 30  2  0  0  0  0
 27 24  1  0  0  0  0
 28 24  2  0  0  0  0
 28 25  1  0  0  0  0
 29 26  1  0  0  0  0
 30 29  1  0  0  0  0
 30 23  1  0  0  0  0
 31 29  2  0  0  0  0
M  END
>  <MODEL>
7

>  <REMARK>
 VINA RESULT:     -10.2      1.905      2.519
  Name = 
  3 active torsions:
  status: ('A' for Active; 'I' for Inactive)
    1  A    between atoms: C_9  and  C_22
    2  A    between atoms: C_9  and  O_23
    3  A    between atoms: C_15  and  O_23
                            x       y       z     vdW  Elec       q    Type
                         _______ _______ _______ _____ _____    ______ ____

>  <TORSDO>
F 3

$$$$
=
 OpenBabel10262419313D

 31 35  0  0  1  0  0  0  0  0999 V2000
  185.6660  178.4310  145.1150 C   0  0  0  0  0  0  0  0  0  0  0  0
  189.3360  177.7370  144.2090 C   0  0  2  0  0  3  0  0  0  0  0  0
  189.9240  177.3630  145.5640 C   0  0  0  0  0  0  0  0  0  0  0  0
  189.9650  177.6770  147.9290 C   0  0  0  0  0  0  0  0  0  0  0  0
  187.8210  177.8720  144.1300 C   0  0  0  0  0  0  0  0  0  0  0  0
  185.0460  178.2530  143.8770 C   0  0  0  0  0  3  0  0  0  0  0  0
  189.4150  177.9060  146.7070 N   0  0  0  0  0  0  0  0  0  0  0  0
  189.3570  177.3270  141.7460 C   0  0  1  0  0  3  0  0  0  0  0  0
  184.9320  178.7850  146.1970 F   0  0  0  0  0  0  0  0  0  0  0  0
  191.7530  175.9870  144.4290 C   0  0  0  0  0  2  0  0  0  0  0  0
  189.4070  178.2240  149.0340 F   0  0  0  0  0  0  0  0  0  0  0  0
  187.9290  177.3830  141.7380 O   0  0  0  0  0  0  0  0  0  0  0  0
  189.8430  176.8070  143.0950 C   0  0  1  0  0  3  0  0  0  0  0  0
  187.0460  178.2530  145.2370 C   0  0  0  0  0  3  0  0  0  0  0  0
  191.1070  176.8850  148.0440 C   0  0  0  0  0  3  0  0  0  0  0  0
  187.1880  177.7260  142.8750 C   0  0  0  0  0  0  0  0  0  0  0  0
  185.8060  177.9020  142.7590 C   0  0  0  0  0  3  0  0  0  0  0  0
  191.3590  176.7170  143.1510 C   0  0  0  0  0  2  0  0  0  0  0  0
  191.1120  176.5980  145.6440 C   0  0  0  0  0  0  0  0  0  0  0  0
  191.6800  176.3460  146.8940 C   0  0  0  0  0  3  0  0  0  0  0  0
  189.8040  176.4740  140.7000 O   0  0  0  0  0  0  0  0  0  0  0  0
  191.7890  177.1290  139.7300 O   0  0  0  0  0  0  0  0  0  0  0  0
  190.5460  176.9460  139.6130 C   0  0  0  0  0  0  0  0  0  0  0  0
  188.5910  177.6640  135.8660 C   0  0  0  0  0  0  0  0  0  0  0  0
  189.9270  176.2600  137.3120 C   0  0  0  0  0  3  0  0  0  0  0  0
  189.0550  179.3780  139.0540 F   0  0  0  0  0  0  0  0  0  0  0  0
  187.9780  177.8780  134.6770 F   0  0  0  0  0  0  0  0  0  0  0  0
  189.2950  176.4790  136.0860 C   0  0  0  0  0  3  0  0  0  0  0  0
  189.1490  178.4170  138.1020 C   0  0  0  0  0  0  0  0  0  0  0  0
  189.8630  177.2210  138.3320 C   0  0  0  0  0  0  0  0  0  0  0  0
  188.5180  178.6300  136.8720 C   0  0  0  0  0  3  0  0  0  0  0  0
  1 14  1  0  0  0  0
  1  9  1  0  0  0  0
  2  5  1  1  0  0  0
  2  3  1  0  0  0  0
  3 19  2  0  0  0  0
  3  7  1  0  0  0  0
  4 15  1  0  0  0  0
  4 11  1  0  0  0  0
  5 14  2  0  0  0  0
  6  1  2  0  0  0  0
  7  4  2  0  0  0  0
  8 21  1  6  0  0  0
  8 13  1  0  0  0  0
 10 19  1  0  0  0  0
 12  8  1  0  0  0  0
 12 16  1  0  0  0  0
 13 18  1  6  0  0  0
 13  2  1  0  0  0  0
 16  5  1  0  0  0  0
 17 16  2  0  0  0  0
 17  6  1  0  0  0  0
 18 10  1  0  0  0  0
 19 20  1  0  0  0  0
 20 15  2  0  0  0  0
 23 22  2  0  0  0  0
 23 21  1  0  0  0  0
 24 28  2  0  0  0  0
 24 31  1  0  0  0  0
 25 30  2  0  0  0  0
 27 24  1  0  0  0  0
 28 25  1  0  0  0  0
 29 30  1  0  0  0  0
 29 26  1  0  0  0  0
 30 23  1  0  0  0  0
 31 29  2  0  0  0  0
M  END
>  <MODEL>
8

>  <REMARK>
 VINA RESULT:     -10.2      1.462      4.110
  Name = 
  3 active torsions:
  status: ('A' for Active; 'I' for Inactive)
    1  A    between atoms: C_9  and  C_22
    2  A    between atoms: C_9  and  O_23
    3  A    between atoms: C_15  and  O_23
                            x       y       z     vdW  Elec       q    Type
                         _______ _______ _______ _____ _____    ______ ____

>  <TORSDO>
F 3

$$$$
=
 OpenBabel10262419313D

 31 35  0  0  1  0  0  0  0  0999 V2000
  191.0120  177.4810  145.0480 C   0  0  0  0  0  0  0  0  0  0  0  0
  187.5740  177.6120  143.3360 C   0  0  2  0  0  3  0  0  0  0  0  0
  186.6720  178.0480  144.4840 C   0  0  0  0  0  0  0  0  0  0  0  0
  186.1520  177.9790  146.8110 C   0  0  0  0  0  0  0  0  0  0  0  0
  189.0760  177.6610  143.5840 C   0  0  0  0  0  0  0  0  0  0  0  0
  191.8640  177.6060  143.9500 C   0  0  0  0  0  3  0  0  0  0  0  0
  186.9740  177.6950  145.7650 N   0  0  0  0  0  0  0  0  0  0  0  0
  188.0450  177.7580  140.8880 C   0  0  1  0  0  3  0  0  0  0  0  0
  191.5270  177.3360  146.2930 F   0  0  0  0  0  0  0  0  0  0  0  0
  185.0030  179.0580  142.8340 C   0  0  0  0  0  2  0  0  0  0  0  0
  186.5110  177.6230  148.0680 F   0  0  0  0  0  0  0  0  0  0  0  0
  189.4390  177.8810  141.1770 O   0  0  0  0  0  0  0  0  0  0  0  0
  187.2300  178.3510  142.0320 C   0  0  1  0  0  3  0  0  0  0  0  0
  189.6270  177.4970  144.8640 C   0  0  0  0  0  3  0  0  0  0  0  0
  184.9390  178.6290  146.5900 C   0  0  0  0  0  3  0  0  0  0  0  0
  189.9480  177.7530  142.4750 C   0  0  0  0  0  0  0  0  0  0  0  0
  191.3320  177.7410  142.6660 C   0  0  0  0  0  3  0  0  0  0  0  0
  185.7360  178.2550  141.7670 C   0  0  0  0  0  2  0  0  0  0  0  0
  185.4240  178.6630  144.2220 C   0  0  0  0  0  0  0  0  0  0  0  0
  184.5770  178.9700  145.2880 C   0  0  0  0  0  3  0  0  0  0  0  0
  187.7510  178.4360  139.6720 O   0  0  0  0  0  0  0  0  0  0  0  0
  189.0240  179.3810  138.0000 O   0  0  0  0  0  0  0  0  0  0  0  0
  188.5680  178.3370  138.5420 C   0  0  0  0  0  0  0  0  0  0  0  0
  189.4300  174.4570  136.9320 C   0  0  0  0  0  0  0  0  0  0  0  0
  187.8800  176.2590  137.3760 C   0  0  0  0  0  3  0  0  0  0  0  0
  191.2090  177.1290  138.6690 F   0  0  0  0  0  0  0  0  0  0  0  0
  189.6880  173.2300  136.4200 F   0  0  0  0  0  0  0  0  0  0  0  0
  188.1450  174.9940  136.8460 C   0  0  0  0  0  3  0  0  0  0  0  0
  190.1920  176.4530  138.0800 C   0  0  0  0  0  0  0  0  0  0  0  0
  188.8950  177.0030  137.9970 C   0  0  0  0  0  0  0  0  0  0  0  0
  190.4520  175.1850  137.5480 C   0  0  0  0  0  3  0  0  0  0  0  0
  1  9  1  0  0  0  0
  2  5  1  1  0  0  0
  2  3  1  0  0  0  0
  3  7  1  0  0  0  0
  4 11  1  0  0  0  0
  5 14  2  0  0  0  0
  6  1  2  0  0  0  0
  7  4  2  0  0  0  0
  8 21  1  6  0  0  0
  8 12  1  0  0  0  0
  8 13  1  0  0  0  0
 10 19  1  0  0  0  0
 12 16  1  0  0  0  0
 13 18  1  6  0  0  0
 13  2  1  0  0  0  0
 14  1  1  0  0  0  0
 15  4  1  0  0  0  0
 16 17  2  0  0  0  0
 16  5  1  0  0  0  0
 17  6  1  0  0  0  0
 18 10  1  0  0  0  0
 19  3  2  0  0  0  0
 19 20  1  0  0  0  0
 20 15  2  0  0  0  0
 22 23  2  0  0  0  0
 23 21  1  0  0  0  0
 24 31  1  0  0  0  0
 25 30  2  0  0  0  0
 27 24  1  0  0  0  0
 28 24  2  0  0  0  0
 28 25  1  0  0  0  0
 29 26  1  0  0  0  0
 30 29  1  0  0  0  0
 30 23  1  0  0  0  0
 31 29  2  0  0  0  0
M  END
>  <MODEL>
9

>  <REMARK>
 VINA RESULT:     -10.2      1.859      2.364
  Name = 
  3 active torsions:
  status: ('A' for Active; 'I' for Inactive)
    1  A    between atoms: C_9  and  C_22
    2  A    between atoms: C_9  and  O_23
    3  A    between atoms: C_15  and  O_23
                            x       y       z     vdW  Elec       q    Type
                         _______ _______ _______ _____ _____    ______ ____

>  <TORSDO>
F 3

$$$$
