=
 OpenBabel10262423333D

 34 39  0  0  1  0  0  0  0  0999 V2000
  180.3570  177.7930  139.0670 C   0  0  1  0  0  3  0  0  0  0  0  0
  182.8300  176.7830  136.2840 C   0  0  0  0  0  2  0  0  0  0  0  0
  180.8130  178.3040  136.3150 N   0  0  0  0  0  2  0  0  0  0  0  0
  181.2470  179.0180  141.0780 C   0  0  1  0  0  3  0  0  0  0  0  0
  180.4630  177.8050  140.5920 C   0  0  0  0  0  2  0  0  0  0  0  0
  180.6500  180.3150  139.0400 N   0  0  0  0  0  0  0  0  0  0  0  0
  182.0320  180.3520  138.5630 C   0  0  0  0  0  1  0  0  0  0  0  0
  180.6510  180.3110  140.5070 C   0  0  0  0  0  2  0  0  0  0  0  0
  179.8750  179.1300  137.0120 C   0  0  0  0  0  0  0  0  0  0  0  0
  179.8910  179.1580  138.5130 C   0  0  1  0  0  3  0  0  0  0  0  0
  179.0750  179.8570  136.3710 O   0  0  0  0  0  0  0  0  0  0  0  0
  184.1600  177.3560  136.6810 C   0  0  0  0  0  3  0  0  0  0  0  0
  184.6450  177.4590  137.9360 C   0  0  0  0  0  0  0  0  0  0  0  0
  183.8990  177.1150  139.2140 C   0  0  0  0  0  2  0  0  0  0  0  0
  181.7070  177.4350  137.0250 C   0  0  0  0  0  0  0  0  0  0  0  0
  182.5680  176.3810  139.0700 C   0  0  0  0  0  2  0  0  0  0  0  0
  181.5690  177.2370  138.3480 C   0  0  0  0  0  0  0  0  0  0  0  0
  185.9960  178.0790  138.0930 C   0  0  0  0  0  2  0  0  0  0  0  0
  187.4200  179.3780  136.6780 O   0  0  0  0  0  1  0  0  0  0  0  0
  186.7110  178.1790  136.7540 C   0  0  0  0  0  2  0  0  0  0  0  0
  181.3420  179.0590  142.6040 C   0  0  0  0  0  2  0  0  0  0  0  0
  185.0360  178.2350  142.7130 C   0  0  0  0  0  3  0  0  0  0  0  0
  182.9760  178.8660  144.4540 N   0  0  0  0  0  0  0  0  0  0  0  0
  186.7780  178.1070  145.9810 C   0  0  0  0  0  0  0  0  0  0  0  0
  186.5520  178.0500  144.5980 C   0  0  0  0  0  3  0  0  0  0  0  0
  185.2780  178.3010  144.0850 C   0  0  0  0  0  0  0  0  0  0  0  0
  184.4450  178.6980  146.3320 C   0  0  0  0  0  3  0  0  0  0  0  0
  184.2160  178.6240  144.9570 C   0  0  0  0  0  0  0  0  0  0  0  0
  185.7230  178.4460  146.8420 C   0  0  0  0  0  3  0  0  0  0  0  0
  182.7250  178.8050  143.1170 C   0  0  0  0  0  0  0  0  0  0  0  0
  183.7540  178.4870  142.2220 C   0  0  0  0  0  3  0  0  0  0  0  0
  188.1520  177.8840  146.5310 C   0  0  1  0  0  3  0  0  0  0  0  0
  188.1810  178.1380  147.9710 C   0  0  0  0  0  2  0  0  0  0  0  0
  188.1370  176.7560  147.4800 N   0  0  0  0  0  2  0  0  0  0  0  0
  1  5  1  1  0  0  0
  2 12  1  0  0  0  0
  2 15  1  0  0  0  0
  3  9  1  0  0  0  0
  3 15  1  0  0  0  0
  4 21  1  1  0  0  0
  5  4  1  0  0  0  0
  6  8  1  0  0  0  0
  7  6  1  0  0  0  0
  8  4  1  0  0  0  0
 10  9  1  6  0  0  0
 10  6  1  0  0  0  0
 10  1  1  0  0  0  0
 11  9  2  0  0  0  0
 12 13  2  0  0  0  0
 13 18  1  0  0  0  0
 13 14  1  0  0  0  0
 15 17  2  0  0  0  0
 16 14  1  0  0  0  0
 17  1  1  0  0  0  0
 17 16  1  0  0  0  0
 19 20  1  0  0  0  0
 20 18  1  0  0  0  0
 21 30  1  0  0  0  0
 22 26  1  0  0  0  0
 23 28  1  0  0  0  0
 24 29  1  0  0  0  0
 25 24  2  0  0  0  0
 26 25  1  0  0  0  0
 26 28  2  0  0  0  0
 27 29  2  0  0  0  0
 28 27  1  0  0  0  0
 30 23  2  0  0  0  0
 31 22  2  0  0  0  0
 31 30  1  0  0  0  0
 32 24  1  1  0  0  0
 32 34  1  0  0  0  0
 32 33  1  0  0  0  0
 34 33  1  0  0  0  0
M  END
>  <MODEL>
1

>  <REMARK>
 VINA RESULT:      -8.3      0.000      0.000
  Name = 
  5 active torsions:
  status: ('A' for Active; 'I' for Inactive)
    1  A    between atoms: C_3  and  C_24
    2  A    between atoms: C_3  and  C_25
    3  A    between atoms: C_7  and  C_11
    4  A    between atoms: C_8  and  C_18
    5  A    between atoms: C_18  and  C_30
                            x       y       z     vdW  Elec       q    Type
                         _______ _______ _______ _____ _____    ______ ____

>  <TORSDO>
F 5

$$$$
=
 OpenBabel10262423333D

 34 39  0  0  1  0  0  0  0  0999 V2000
  190.4170  176.2160  144.1120 C   0  0  1  0  0  3  0  0  0  0  0  0
  186.8570  177.0190  145.3620 C   0  0  0  0  0  2  0  0  0  0  0  0
  189.1410  177.2860  146.4070 N   0  0  0  0  0  2  0  0  0  0  0  0
  191.2700  177.4130  142.0680 C   0  0  1  0  0  3  0  0  0  0  0  0
  191.0110  176.0560  142.7120 C   0  0  0  0  0  2  0  0  0  0  0  0
  191.4870  178.5120  144.2900 N   0  0  0  0  0  0  0  0  0  0  0  0
  190.2780  179.3130  144.0990 C   0  0  0  0  0  1  0  0  0  0  0  0
  192.1250  178.2940  142.9870 C   0  0  0  0  0  2  0  0  0  0  0  0
  190.5620  177.4100  146.3020 C   0  0  0  0  0  0  0  0  0  0  0  0
  191.2210  177.2220  144.9660 C   0  0  1  0  0  3  0  0  0  0  0  0
  191.2470  177.7180  147.3110 O   0  0  0  0  0  0  0  0  0  0  0  0
  186.3450  178.1210  144.4800 C   0  0  0  0  0  3  0  0  0  0  0  0
  186.5880  178.2690  143.1620 C   0  0  0  0  0  0  0  0  0  0  0  0
  187.5200  177.4120  142.3220 C   0  0  0  0  0  2  0  0  0  0  0  0
  188.3440  176.8960  145.2800 C   0  0  0  0  0  0  0  0  0  0  0  0
  188.0610  176.1350  142.9620 C   0  0  0  0  0  2  0  0  0  0  0  0
  188.9220  176.4630  144.1460 C   0  0  0  0  0  0  0  0  0  0  0  0
  185.9800  179.4570  142.4880 C   0  0  0  0  0  2  0  0  0  0  0  0
  185.0150  179.7390  140.3190 O   0  0  0  0  0  1  0  0  0  0  0  0
  184.8870  179.0360  141.5180 C   0  0  0  0  0  2  0  0  0  0  0  0
  191.8880  177.2720  140.6770 C   0  0  0  0  0  2  0  0  0  0  0  0
  190.2350  175.8230  137.5930 C   0  0  0  0  0  3  0  0  0  0  0  0
  189.6840  177.6410  139.6100 N   0  0  0  0  0  0  0  0  0  0  0  0
  186.8440  176.9690  136.6370 C   0  0  0  0  0  0  0  0  0  0  0  0
  188.0610  176.2720  136.6160 C   0  0  0  0  0  3  0  0  0  0  0  0
  189.0150  176.4990  137.6090 C   0  0  0  0  0  0  0  0  0  0  0  0
  187.5320  178.1020  138.6750 C   0  0  0  0  0  3  0  0  0  0  0  0
  188.7520  177.4220  138.6440 C   0  0  0  0  0  0  0  0  0  0  0  0
  186.5800  177.8720  137.6780 C   0  0  0  0  0  3  0  0  0  0  0  0
  190.8790  176.9880  139.6070 C   0  0  0  0  0  0  0  0  0  0  0  0
  191.1750  176.0670  138.5960 C   0  0  0  0  0  3  0  0  0  0  0  0
  185.7990  176.6950  135.5990 C   0  0  1  0  0  3  0  0  0  0  0  0
  185.9340  175.3370  135.0740 C   0  0  0  0  0  2  0  0  0  0  0  0
  184.8930  175.6310  136.0660 N   0  0  0  0  0  2  0  0  0  0  0  0
  1  5  1  6  0  0  0
  1 17  1  0  0  0  0
  1 10  1  0  0  0  0
  4 21  1  6  0  0  0
  4  5  1  0  0  0  0
  4  8  1  0  0  0  0
  6 10  1  0  0  0  0
  7  6  1  0  0  0  0
  8  6  1  0  0  0  0
  9  3  1  0  0  0  0
  9 11  2  0  0  0  0
 10  9  1  1  0  0  0
 12  2  1  0  0  0  0
 13 12  2  0  0  0  0
 14 16  1  0  0  0  0
 14 13  1  0  0  0  0
 15  2  1  0  0  0  0
 15  3  1  0  0  0  0
 16 17  1  0  0  0  0
 17 15  2  0  0  0  0
 18 13  1  0  0  0  0
 19 20  1  0  0  0  0
 20 18  1  0  0  0  0
 22 26  2  0  0  0  0
 22 31  1  0  0  0  0
 24 29  1  0  0  0  0
 25 24  2  0  0  0  0
 25 26  1  0  0  0  0
 26 28  1  0  0  0  0
 28 27  1  0  0  0  0
 28 23  2  0  0  0  0
 29 27  2  0  0  0  0
 30 23  1  0  0  0  0
 30 21  1  0  0  0  0
 31 30  2  0  0  0  0
 32 34  1  0  0  0  0
 32 24  1  1  0  0  0
 33 32  1  0  0  0  0
 33 34  1  0  0  0  0
M  END
>  <MODEL>
2

>  <REMARK>
 VINA RESULT:      -8.0      4.148      9.970
  Name = 
  5 active torsions:
  status: ('A' for Active; 'I' for Inactive)
    1  A    between atoms: C_3  and  C_24
    2  A    between atoms: C_3  and  C_25
    3  A    between atoms: C_7  and  C_11
    4  A    between atoms: C_8  and  C_18
    5  A    between atoms: C_18  and  C_30
                            x       y       z     vdW  Elec       q    Type
                         _______ _______ _______ _____ _____    ______ ____

>  <TORSDO>
F 5

$$$$
=
 OpenBabel10262423333D

 34 39  0  0  1  0  0  0  0  0999 V2000
  189.9120  176.1620  143.7390 C   0  0  1  0  0  3  0  0  0  0  0  0
  187.2410  177.0270  146.3850 C   0  0  0  0  0  2  0  0  0  0  0  0
  189.7670  177.0290  146.4350 N   0  0  0  0  0  2  0  0  0  0  0  0
  190.0030  177.5370  141.6320 C   0  0  1  0  0  3  0  0  0  0  0  0
  189.8820  176.1320  142.2100 C   0  0  0  0  0  2  0  0  0  0  0  0
  191.1960  178.3510  143.6590 N   0  0  0  0  0  0  0  0  0  0  0  0
  190.1000  179.2410  144.0420 C   0  0  0  0  0  1  0  0  0  0  0  0
  191.2390  178.2500  142.1960 C   0  0  0  0  0  2  0  0  0  0  0  0
  191.0350  177.0780  145.7740 C   0  0  0  0  0  0  0  0  0  0  0  0
  191.0870  177.0090  144.2750 C   0  0  1  0  0  3  0  0  0  0  0  0
  192.0910  177.2220  146.4410 O   0  0  0  0  0  0  0  0  0  0  0  0
  186.5380  178.2540  145.8810 C   0  0  0  0  0  3  0  0  0  0  0  0
  186.2540  178.5420  144.5950 C   0  0  0  0  0  0  0  0  0  0  0  0
  186.6830  177.7350  143.3810 C   0  0  0  0  0  2  0  0  0  0  0  0
  188.5530  176.8240  145.6980 C   0  0  0  0  0  0  0  0  0  0  0  0
  187.2980  176.3610  143.6380 C   0  0  0  0  0  2  0  0  0  0  0  0
  188.5870  176.4930  144.3950 C   0  0  0  0  0  0  0  0  0  0  0  0
  185.5550  179.8360  144.3270 C   0  0  0  0  0  2  0  0  0  0  0  0
  183.4150  179.2250  145.2020 O   0  0  0  0  0  1  0  0  0  0  0  0
  184.0790  179.6110  144.0370 C   0  0  0  0  0  2  0  0  0  0  0  0
  190.0010  177.5230  140.1030 C   0  0  0  0  0  2  0  0  0  0  0  0
  187.1010  177.2920  137.6800 C   0  0  0  0  0  3  0  0  0  0  0  0
  187.6420  178.2680  140.2150 N   0  0  0  0  0  0  0  0  0  0  0  0
  183.8190  178.7290  138.6250 C   0  0  0  0  0  0  0  0  0  0  0  0
  184.8150  178.0780  137.8820 C   0  0  0  0  0  3  0  0  0  0  0  0
  186.0970  177.9260  138.4120 C   0  0  0  0  0  0  0  0  0  0  0  0
  185.3950  179.0500  140.4490 C   0  0  0  0  0  3  0  0  0  0  0  0
  186.3920  178.4170  139.7020 C   0  0  0  0  0  0  0  0  0  0  0  0
  184.1120  179.2000  139.9140 C   0  0  0  0  0  3  0  0  0  0  0  0
  188.6310  177.6510  139.5120 C   0  0  0  0  0  0  0  0  0  0  0  0
  188.3770  177.1520  138.2290 C   0  0  0  0  0  3  0  0  0  0  0  0
  182.4300  178.8550  138.0780 C   0  0  1  0  0  3  0  0  0  0  0  0
  182.2100  177.8950  136.9980 C   0  0  0  0  0  2  0  0  0  0  0  0
  181.6750  177.6160  138.3360 N   0  0  0  0  0  2  0  0  0  0  0  0
  1  5  1  6  0  0  0
  1 10  1  0  0  0  0
  1 17  1  0  0  0  0
  4 21  1  6  0  0  0
  4  8  1  0  0  0  0
  4  5  1  0  0  0  0
  6  7  1  0  0  0  0
  6 10  1  0  0  0  0
  8  6  1  0  0  0  0
  9  3  1  0  0  0  0
  9 11  2  0  0  0  0
 10  9  1  1  0  0  0
 12  2  1  0  0  0  0
 13 12  2  0  0  0  0
 14 16  1  0  0  0  0
 14 13  1  0  0  0  0
 15  2  1  0  0  0  0
 15  3  1  0  0  0  0
 16 17  1  0  0  0  0
 17 15  2  0  0  0  0
 18 13  1  0  0  0  0
 20 18  1  0  0  0  0
 20 19  1  0  0  0  0
 22 31  2  0  0  0  0
 22 26  1  0  0  0  0
 24 29  1  0  0  0  0
 25 26  1  0  0  0  0
 25 24  2  0  0  0  0
 26 28  2  0  0  0  0
 28 23  1  0  0  0  0
 28 27  1  0  0  0  0
 29 27  2  0  0  0  0
 30 21  1  0  0  0  0
 30 23  2  0  0  0  0
 31 30  1  0  0  0  0
 32 34  1  0  0  0  0
 32 24  1  1  0  0  0
 33 32  1  0  0  0  0
 33 34  1  0  0  0  0
M  END
>  <MODEL>
3

>  <REMARK>
 VINA RESULT:      -8.0      3.770      9.543
  Name = 
  5 active torsions:
  status: ('A' for Active; 'I' for Inactive)
    1  A    between atoms: C_3  and  C_24
    2  A    between atoms: C_3  and  C_25
    3  A    between atoms: C_7  and  C_11
    4  A    between atoms: C_8  and  C_18
    5  A    between atoms: C_18  and  C_30
                            x       y       z     vdW  Elec       q    Type
                         _______ _______ _______ _____ _____    ______ ____

>  <TORSDO>
F 5

$$$$
=
 OpenBabel10262423333D

 34 39  0  0  1  0  0  0  0  0999 V2000
  190.1990  176.1080  143.9460 C   0  0  1  0  0  3  0  0  0  0  0  0
  186.9750  177.1280  145.8020 C   0  0  0  0  0  2  0  0  0  0  0  0
  189.4180  177.2230  146.4330 N   0  0  0  0  0  2  0  0  0  0  0  0
  190.7640  177.2770  141.7890 C   0  0  1  0  0  3  0  0  0  0  0  0
  190.5280  175.9310  142.4630 C   0  0  0  0  0  2  0  0  0  0  0  0
  191.4400  178.3230  143.9440 N   0  0  0  0  0  0  0  0  0  0  0  0
  190.2740  179.2070  143.9700 C   0  0  0  0  0  1  0  0  0  0  0  0
  191.8250  178.0840  142.5480 C   0  0  0  0  0  2  0  0  0  0  0  0
  190.8050  177.2540  146.0820 C   0  0  0  0  0  0  0  0  0  0  0  0
  191.2070  177.0440  144.6500 C   0  0  1  0  0  3  0  0  0  0  0  0
  191.6750  177.4980  146.9570 O   0  0  0  0  0  0  0  0  0  0  0  0
  186.3940  178.2750  145.0270 C   0  0  0  0  0  3  0  0  0  0  0  0
  186.4140  178.4280  143.6870 C   0  0  0  0  0  0  0  0  0  0  0  0
  187.1250  177.5240  142.6940 C   0  0  0  0  0  2  0  0  0  0  0  0
  188.4130  176.9060  145.4610 C   0  0  0  0  0  0  0  0  0  0  0  0
  187.6790  176.2040  143.2240 C   0  0  0  0  0  2  0  0  0  0  0  0
  188.7540  176.4540  144.2410 C   0  0  0  0  0  0  0  0  0  0  0  0
  185.7820  179.6650  143.1350 C   0  0  0  0  0  2  0  0  0  0  0  0
  185.2630  179.6870  140.8010 O   0  0  0  0  0  1  0  0  0  0  0  0
  184.7670  179.3260  142.0540 C   0  0  0  0  0  2  0  0  0  0  0  0
  191.1190  177.1170  140.3110 C   0  0  0  0  0  2  0  0  0  0  0  0
  187.8430  178.2360  138.7760 C   0  0  0  0  0  3  0  0  0  0  0  0
  189.7870  176.3000  138.3890 N   0  0  0  0  0  0  0  0  0  0  0  0
  186.4770  176.4010  135.8620 C   0  0  0  0  0  0  0  0  0  0  0  0
  186.6030  177.3460  136.8910 C   0  0  0  0  0  3  0  0  0  0  0  0
  187.7100  177.3110  137.7410 C   0  0  0  0  0  0  0  0  0  0  0  0
  188.5930  175.4030  136.5230 C   0  0  0  0  0  3  0  0  0  0  0  0
  188.7110  176.3320  137.5590 C   0  0  0  0  0  0  0  0  0  0  0  0
  187.4820  175.4410  135.6740 C   0  0  0  0  0  3  0  0  0  0  0  0
  189.9300  177.1970  139.4040 C   0  0  0  0  0  0  0  0  0  0  0  0
  188.9570  178.1810  139.6160 C   0  0  0  0  0  3  0  0  0  0  0  0
  185.3140  176.4630  134.9200 C   0  0  1  0  0  3  0  0  0  0  0  0
  184.8150  175.1200  134.6250 C   0  0  0  0  0  2  0  0  0  0  0  0
  184.0980  175.9650  135.5880 N   0  0  0  0  0  2  0  0  0  0  0  0
  1  5  1  6  0  0  0
  1 17  1  0  0  0  0
  1 10  1  0  0  0  0
  4 21  1  6  0  0  0
  4  5  1  0  0  0  0
  4  8  1  0  0  0  0
  6  7  1  0  0  0  0
  6 10  1  0  0  0  0
  8  6  1  0  0  0  0
  9  3  1  0  0  0  0
  9 11  2  0  0  0  0
 10  9  1  1  0  0  0
 12  2  1  0  0  0  0
 13 12  2  0  0  0  0
 14 16  1  0  0  0  0
 14 13  1  0  0  0  0
 15  2  1  0  0  0  0
 15  3  1  0  0  0  0
 16 17  1  0  0  0  0
 17 15  2  0  0  0  0
 18 13  1  0  0  0  0
 19 20  1  0  0  0  0
 20 18  1  0  0  0  0
 22 31  1  0  0  0  0
 23 30  1  0  0  0  0
 24 25  2  0  0  0  0
 25 26  1  0  0  0  0
 26 22  2  0  0  0  0
 27 28  1  0  0  0  0
 28 26  1  0  0  0  0
 28 23  2  0  0  0  0
 29 24  1  0  0  0  0
 29 27  2  0  0  0  0
 30 31  2  0  0  0  0
 30 21  1  0  0  0  0
 32 34  1  0  0  0  0
 32 24  1  1  0  0  0
 33 32  1  0  0  0  0
 33 34  1  0  0  0  0
M  END
>  <MODEL>
4

>  <REMARK>
 VINA RESULT:      -7.9      4.029     10.118
  Name = 
  5 active torsions:
  status: ('A' for Active; 'I' for Inactive)
    1  A    between atoms: C_3  and  C_24
    2  A    between atoms: C_3  and  C_25
    3  A    between atoms: C_7  and  C_11
    4  A    between atoms: C_8  and  C_18
    5  A    between atoms: C_18  and  C_30
                            x       y       z     vdW  Elec       q    Type
                         _______ _______ _______ _____ _____    ______ ____

>  <TORSDO>
F 5

$$$$
=
 OpenBabel10262423333D

 34 39  0  0  1  0  0  0  0  0999 V2000
  181.7290  177.5210  139.8120 C   0  0  1  0  0  3  0  0  0  0  0  0
  181.2720  179.2050  136.3710 C   0  0  0  0  0  2  0  0  0  0  0  0
  180.1280  177.2500  137.4870 N   0  0  0  0  0  2  0  0  0  0  0  0
  181.3020  178.8880  141.8820 C   0  0  1  0  0  3  0  0  0  0  0  0
  182.3070  178.0170  141.1380 C   0  0  0  0  0  2  0  0  0  0  0  0
  179.3840  177.7730  140.7530 N   0  0  0  0  0  0  0  0  0  0  0  0
  179.0060  178.9860  140.0280 C   0  0  0  0  0  1  0  0  0  0  0  0
  179.9660  178.1520  142.0460 C   0  0  0  0  0  2  0  0  0  0  0  0
  179.7560  176.5150  138.6570 C   0  0  0  0  0  0  0  0  0  0  0  0
  180.3190  176.9160  139.9900 C   0  0  1  0  0  3  0  0  0  0  0  0
  178.9310  175.5690  138.5740 O   0  0  0  0  0  0  0  0  0  0  0  0
  180.7550  180.5860  136.6490 C   0  0  0  0  0  3  0  0  0  0  0  0
  181.1000  181.3770  137.6860 C   0  0  0  0  0  0  0  0  0  0  0  0
  182.0010  180.9880  138.8460 C   0  0  0  0  0  2  0  0  0  0  0  0
  181.0980  178.3040  137.5510 C   0  0  0  0  0  0  0  0  0  0  0  0
  182.7660  179.6720  138.7250 C   0  0  0  0  0  2  0  0  0  0  0  0
  181.8150  178.5130  138.6690 C   0  0  0  0  0  0  0  0  0  0  0  0
  180.4420  182.7170  137.7670 C   0  0  0  0  0  2  0  0  0  0  0  0
  182.0400  184.4330  137.3010 O   0  0  0  0  0  1  0  0  0  0  0  0
  181.0170  183.6720  136.7340 C   0  0  0  0  0  2  0  0  0  0  0  0
  181.8540  179.3710  143.2240 C   0  0  0  0  0  2  0  0  0  0  0  0
  185.4240  178.2600  142.6220 C   0  0  0  0  0  3  0  0  0  0  0  0
  183.7310  178.8170  144.7420 N   0  0  0  0  0  0  0  0  0  0  0  0
  187.6320  177.5800  145.5170 C   0  0  0  0  0  0  0  0  0  0  0  0
  187.1900  177.7180  144.1940 C   0  0  0  0  0  3  0  0  0  0  0  0
  185.8810  178.1290  143.9320 C   0  0  0  0  0  0  0  0  0  0  0  0
  185.4510  178.2970  146.3180 C   0  0  0  0  0  3  0  0  0  0  0  0
  185.0040  178.4180  145.0000 C   0  0  0  0  0  0  0  0  0  0  0  0
  186.7620  177.8840  146.5750 C   0  0  0  0  0  3  0  0  0  0  0  0
  183.2700  178.9490  143.4680 C   0  0  0  0  0  0  0  0  0  0  0  0
  184.1110  178.6700  142.3840 C   0  0  0  0  0  3  0  0  0  0  0  0
  189.0480  177.1830  145.8020 C   0  0  1  0  0  3  0  0  0  0  0  0
  189.7900  176.9820  144.5580 C   0  0  0  0  0  2  0  0  0  0  0  0
  189.9700  178.2250  145.3170 N   0  0  0  0  0  2  0  0  0  0  0  0
  1 10  1  0  0  0  0
  1  5  1  1  0  0  0
  2 12  1  0  0  0  0
  2 15  1  0  0  0  0
  3 15  1  0  0  0  0
  3  9  1  0  0  0  0
  4  8  1  0  0  0  0
  4 21  1  1  0  0  0
  5  4  1  0  0  0  0
  6  8  1  0  0  0  0
  7  6  1  0  0  0  0
 10  9  1  6  0  0  0
 10  6  1  0  0  0  0
 11  9  2  0  0  0  0
 12 13  2  0  0  0  0
 13 18  1  0  0  0  0
 13 14  1  0  0  0  0
 15 17  2  0  0  0  0
 16 14  1  0  0  0  0
 17 16  1  0  0  0  0
 17  1  1  0  0  0  0
 20 19  1  0  0  0  0
 20 18  1  0  0  0  0
 21 30  1  0  0  0  0
 22 26  1  0  0  0  0
 23 28  1  0  0  0  0
 24 29  1  0  0  0  0
 25 24  2  0  0  0  0
 26 25  1  0  0  0  0
 26 28  2  0  0  0  0
 27 29  2  0  0  0  0
 28 27  1  0  0  0  0
 30 23  2  0  0  0  0
 31 22  2  0  0  0  0
 31 30  1  0  0  0  0
 32 24  1  6  0  0  0
 33 34  1  0  0  0  0
 33 32  1  0  0  0  0
 34 32  1  0  0  0  0
M  END
>  <MODEL>
5

>  <REMARK>
 VINA RESULT:      -7.8      2.425      3.336
  Name = 
  5 active torsions:
  status: ('A' for Active; 'I' for Inactive)
    1  A    between atoms: C_3  and  C_24
    2  A    between atoms: C_3  and  C_25
    3  A    between atoms: C_7  and  C_11
    4  A    between atoms: C_8  and  C_18
    5  A    between atoms: C_18  and  C_30
                            x       y       z     vdW  Elec       q    Type
                         _______ _______ _______ _____ _____    ______ ____

>  <TORSDO>
F 5

$$$$
=
 OpenBabel10262423333D

 34 39  0  0  1  0  0  0  0  0999 V2000
  189.1610  174.9050  137.4220 C   0  0  1  0  0  3  0  0  0  0  0  0
  192.0260  173.1390  135.5370 C   0  0  0  0  0  2  0  0  0  0  0  0
  189.5230  173.1800  135.2010 N   0  0  0  0  0  2  0  0  0  0  0  0
  189.1420  177.4220  137.4900 C   0  0  1  0  0  3  0  0  0  0  0  0
  189.1210  176.1430  138.3190 C   0  0  0  0  0  2  0  0  0  0  0  0
  188.1420  176.2590  135.5310 N   0  0  0  0  0  0  0  0  0  0  0  0
  189.3500  176.4160  134.7220 C   0  0  0  0  0  1  0  0  0  0  0  0
  188.0240  177.4040  136.4400 C   0  0  0  0  0  2  0  0  0  0  0  0
  188.2420  173.7920  135.3830 C   0  0  0  0  0  0  0  0  0  0  0  0
  188.1180  174.9860  136.2850 C   0  0  1  0  0  3  0  0  0  0  0  0
  187.2400  173.3600  134.7590 O   0  0  0  0  0  0  0  0  0  0  0  0
  192.8460  174.2290  134.9100 C   0  0  0  0  0  3  0  0  0  0  0  0
  193.1070  175.4400  135.4430 C   0  0  0  0  0  0  0  0  0  0  0  0
  192.5340  175.9910  136.7380 C   0  0  0  0  0  2  0  0  0  0  0  0
  190.6710  173.6290  135.9340 C   0  0  0  0  0  0  0  0  0  0  0  0
  191.7730  175.0180  137.6340 C   0  0  0  0  0  2  0  0  0  0  0  0
  190.5430  174.5120  136.9400 C   0  0  0  0  0  0  0  0  0  0  0  0
  193.9420  176.3750  134.6270 C   0  0  0  0  0  2  0  0  0  0  0  0
  195.4310  178.1030  135.3420 O   0  0  0  0  0  1  0  0  0  0  0  0
  195.2370  176.7220  135.3450 C   0  0  0  0  0  2  0  0  0  0  0  0
  189.0770  178.6700  138.3710 C   0  0  0  0  0  2  0  0  0  0  0  0
  189.4080  177.5090  141.9600 C   0  0  0  0  0  3  0  0  0  0  0  0
  187.5050  178.6260  140.2850 N   0  0  0  0  0  0  0  0  0  0  0  0
  186.4910  177.7560  144.2310 C   0  0  0  0  0  0  0  0  0  0  0  0
  187.7860  177.4910  143.7640 C   0  0  0  0  0  3  0  0  0  0  0  0
  188.1270  177.7790  142.4410 C   0  0  0  0  0  0  0  0  0  0  0  0
  185.8860  178.6280  142.0430 C   0  0  0  0  0  3  0  0  0  0  0  0
  187.1710  178.3480  141.5730 C   0  0  0  0  0  0  0  0  0  0  0  0
  185.5490  178.3380  143.3690 C   0  0  0  0  0  3  0  0  0  0  0  0
  188.7520  178.3680  139.8020 C   0  0  0  0  0  0  0  0  0  0  0  0
  189.7260  177.8030  140.6330 C   0  0  0  0  0  3  0  0  0  0  0  0
  186.1340  177.4910  145.6610 C   0  0  1  0  0  3  0  0  0  0  0  0
  187.2300  177.8790  146.5480 C   0  0  0  0  0  2  0  0  0  0  0  0
  186.0650  178.7610  146.4060 N   0  0  0  0  0  2  0  0  0  0  0  0
  1  5  1  6  0  0  0
  2 15  1  0  0  0  0
  3  9  1  0  0  0  0
  3 15  1  0  0  0  0
  4  5  1  0  0  0  0
  4 21  1  1  0  0  0
  6 10  1  0  0  0  0
  6  8  1  0  0  0  0
  7  6  1  0  0  0  0
  8  4  1  0  0  0  0
 10  9  1  6  0  0  0
 10  1  1  0  0  0  0
 11  9  2  0  0  0  0
 12 13  2  0  0  0  0
 12  2  1  0  0  0  0
 13 14  1  0  0  0  0
 14 16  1  0  0  0  0
 15 17  2  0  0  0  0
 17  1  1  0  0  0  0
 17 16  1  0  0  0  0
 18 20  1  0  0  0  0
 18 13  1  0  0  0  0
 19 20  1  0  0  0  0
 21 30  1  0  0  0  0
 22 26  1  0  0  0  0
 23 28  1  0  0  0  0
 25 24  1  0  0  0  0
 26 25  2  0  0  0  0
 27 29  1  0  0  0  0
 28 27  2  0  0  0  0
 28 26  1  0  0  0  0
 29 24  2  0  0  0  0
 30 23  2  0  0  0  0
 30 31  1  0  0  0  0
 31 22  2  0  0  0  0
 32 24  1  6  0  0  0
 32 34  1  0  0  0  0
 32 33  1  0  0  0  0
 34 33  1  0  0  0  0
M  END
>  <MODEL>
6

>  <REMARK>
 VINA RESULT:      -7.5      5.199      7.784
  Name = 
  5 active torsions:
  status: ('A' for Active; 'I' for Inactive)
    1  A    between atoms: C_3  and  C_24
    2  A    between atoms: C_3  and  C_25
    3  A    between atoms: C_7  and  C_11
    4  A    between atoms: C_8  and  C_18
    5  A    between atoms: C_18  and  C_30
                            x       y       z     vdW  Elec       q    Type
                         _______ _______ _______ _____ _____    ______ ____

>  <TORSDO>
F 5

$$$$
=
 OpenBabel10262423333D

 34 39  0  0  1  0  0  0  0  0999 V2000
  189.0450  176.5040  135.6150 C   0  0  1  0  0  3  0  0  0  0  0  0
  185.2810  176.9230  134.8800 C   0  0  0  0  0  2  0  0  0  0  0  0
  186.8680  174.9720  134.6410 N   0  0  0  0  0  2  0  0  0  0  0  0
  189.8460  176.7980  137.9840 C   0  0  1  0  0  3  0  0  0  0  0  0
  190.0090  177.2510  136.5380 C   0  0  0  0  0  2  0  0  0  0  0  0
  188.9720  174.5790  137.2700 N   0  0  0  0  0  0  0  0  0  0  0  0
  187.6420  174.8390  137.8210 C   0  0  0  0  0  1  0  0  0  0  0  0
  189.9720  175.2730  138.0900 C   0  0  0  0  0  2  0  0  0  0  0  0
  188.0780  174.2890  134.9820 C   0  0  0  0  0  0  0  0  0  0  0  0
  189.0920  174.9780  135.8490 C   0  0  1  0  0  3  0  0  0  0  0  0
  188.2700  173.1080  134.5940 O   0  0  0  0  0  0  0  0  0  0  0  0
  184.6200  177.1430  136.2100 C   0  0  0  0  0  3  0  0  0  0  0  0
  185.1290  177.8300  137.2530 C   0  0  0  0  0  0  0  0  0  0  0  0
  186.5230  178.4290  137.3350 C   0  0  0  0  0  2  0  0  0  0  0  0
  186.6460  176.3320  135.0360 C   0  0  0  0  0  0  0  0  0  0  0  0
  187.3480  178.4560  136.0510 C   0  0  0  0  0  2  0  0  0  0  0  0
  187.6360  177.0610  135.5790 C   0  0  0  0  0  0  0  0  0  0  0  0
  184.2910  177.9070  138.4890 C   0  0  0  0  0  2  0  0  0  0  0  0
  185.0810  179.4660  140.1220 O   0  0  0  0  0  1  0  0  0  0  0  0
  184.2330  179.3310  139.0220 C   0  0  0  0  0  2  0  0  0  0  0  0
  190.8200  177.5170  138.9170 C   0  0  0  0  0  2  0  0  0  0  0  0
  188.5130  178.0580  141.8710 C   0  0  0  0  0  3  0  0  0  0  0  0
  191.1720  177.4650  141.3680 N   0  0  0  0  0  0  0  0  0  0  0  0
  189.8740  177.8380  145.3090 C   0  0  0  0  0  0  0  0  0  0  0  0
  188.9670  178.0040  144.2530 C   0  0  0  0  0  3  0  0  0  0  0  0
  189.4010  177.8830  142.9310 C   0  0  0  0  0  0  0  0  0  0  0  0
  191.6510  177.3990  143.7090 C   0  0  0  0  0  3  0  0  0  0  0  0
  190.7520  177.5810  142.6560 C   0  0  0  0  0  0  0  0  0  0  0  0
  191.2120  177.5220  145.0310 C   0  0  0  0  0  3  0  0  0  0  0  0
  190.3160  177.6330  140.3220 C   0  0  0  0  0  0  0  0  0  0  0  0
  188.9690  177.9340  140.5570 C   0  0  0  0  0  3  0  0  0  0  0  0
  189.4030  177.9230  146.7290 C   0  0  1  0  0  3  0  0  0  0  0  0
  188.2860  177.0080  146.9590 C   0  0  0  0  0  2  0  0  0  0  0  0
  189.6320  176.6370  147.4120 N   0  0  0  0  0  2  0  0  0  0  0  0
  1 10  1  0  0  0  0
  1  5  1  1  0  0  0
  2 15  1  0  0  0  0
  2 12  1  0  0  0  0
  3  9  1  0  0  0  0
  3 15  1  0  0  0  0
  4  8  1  0  0  0  0
  4 21  1  1  0  0  0
  5  4  1  0  0  0  0
  6  7  1  0  0  0  0
  6  8  1  0  0  0  0
 10  9  1  6  0  0  0
 10  6  1  0  0  0  0
 11  9  2  0  0  0  0
 12 13  2  0  0  0  0
 13 14  1  0  0  0  0
 13 18  1  0  0  0  0
 15 17  2  0  0  0  0
 16 14  1  0  0  0  0
 17  1  1  0  0  0  0
 17 16  1  0  0  0  0
 18 20  1  0  0  0  0
 20 19  1  0  0  0  0
 21 30  1  0  0  0  0
 22 26  1  0  0  0  0
 23 28  1  0  0  0  0
 25 24  2  0  0  0  0
 26 25  1  0  0  0  0
 27 29  2  0  0  0  0
 28 26  2  0  0  0  0
 28 27  1  0  0  0  0
 29 24  1  0  0  0  0
 30 31  1  0  0  0  0
 30 23  2  0  0  0  0
 31 22  2  0  0  0  0
 32 24  1  6  0  0  0
 32 33  1  0  0  0  0
 32 34  1  0  0  0  0
 33 34  1  0  0  0  0
M  END
>  <MODEL>
7

>  <REMARK>
 VINA RESULT:      -7.1      4.018      6.866
  Name = 
  5 active torsions:
  status: ('A' for Active; 'I' for Inactive)
    1  A    between atoms: C_3  and  C_24
    2  A    between atoms: C_3  and  C_25
    3  A    between atoms: C_7  and  C_11
    4  A    between atoms: C_8  and  C_18
    5  A    between atoms: C_18  and  C_30
                            x       y       z     vdW  Elec       q    Type
                         _______ _______ _______ _____ _____    ______ ____

>  <TORSDO>
F 5

$$$$
=
 OpenBabel10262423333D

 34 39  0  0  1  0  0  0  0  0999 V2000
  187.5990  175.9640  134.8790 C   0  0  1  0  0  3  0  0  0  0  0  0
  184.1080  177.2260  135.9320 C   0  0  0  0  0  2  0  0  0  0  0  0
  184.9520  174.9810  135.1380 N   0  0  0  0  0  2  0  0  0  0  0  0
  189.4520  176.0000  136.5830 C   0  0  1  0  0  3  0  0  0  0  0  0
  189.0140  176.4510  135.1950 C   0  0  0  0  0  2  0  0  0  0  0  0
  187.9040  174.0530  136.5230 N   0  0  0  0  0  0  0  0  0  0  0  0
  187.0710  174.5820  137.6040 C   0  0  0  0  0  1  0  0  0  0  0  0
  189.2900  174.4830  136.7350 C   0  0  0  0  0  2  0  0  0  0  0  0
  186.0080  174.0380  134.9340 C   0  0  0  0  0  0  0  0  0  0  0  0
  187.4290  174.4580  135.1810 C   0  0  1  0  0  3  0  0  0  0  0  0
  185.7450  172.8560  134.5940 O   0  0  0  0  0  0  0  0  0  0  0  0
  184.2050  177.5460  137.3950 C   0  0  0  0  0  3  0  0  0  0  0  0
  185.2730  178.0710  138.0310 C   0  0  0  0  0  0  0  0  0  0  0  0
  186.6350  178.3440  137.4160 C   0  0  0  0  0  2  0  0  0  0  0  0
  185.2300  176.3440  135.4860 C   0  0  0  0  0  0  0  0  0  0  0  0
  186.7520  178.2280  135.8980 C   0  0  0  0  0  2  0  0  0  0  0  0
  186.4880  176.8190  135.4540 C   0  0  0  0  0  0  0  0  0  0  0  0
  185.1450  178.2930  139.5040 C   0  0  0  0  0  2  0  0  0  0  0  0
  184.2720  180.4730  139.0530 O   0  0  0  0  0  1  0  0  0  0  0  0
  184.0650  179.3200  139.8100 C   0  0  0  0  0  2  0  0  0  0  0  0
  190.8750  176.4570  136.9050 C   0  0  0  0  0  2  0  0  0  0  0  0
  192.5300  177.2980  140.2060 C   0  0  0  0  0  3  0  0  0  0  0  0
  189.9850  176.9930  139.1530 N   0  0  0  0  0  0  0  0  0  0  0  0
  190.4250  177.9460  143.1850 C   0  0  0  0  0  0  0  0  0  0  0  0
  191.5570  177.7910  142.3730 C   0  0  0  0  0  3  0  0  0  0  0  0
  191.4120  177.4680  141.0220 C   0  0  0  0  0  0  0  0  0  0  0  0
  188.9950  177.4800  141.2740 C   0  0  0  0  0  3  0  0  0  0  0  0
  190.1230  177.3080  140.4680 C   0  0  0  0  0  0  0  0  0  0  0  0
  189.1450  177.8030  142.6260 C   0  0  0  0  0  3  0  0  0  0  0  0
  191.0670  176.8240  138.3440 C   0  0  0  0  0  0  0  0  0  0  0  0
  192.3610  176.9730  138.8580 C   0  0  0  0  0  3  0  0  0  0  0  0
  190.5740  178.3360  144.6230 C   0  0  1  0  0  3  0  0  0  0  0  0
  189.3790  177.9760  145.3850 C   0  0  0  0  0  2  0  0  0  0  0  0
  190.5770  177.1330  145.4730 N   0  0  0  0  0  2  0  0  0  0  0  0
  1 10  1  0  0  0  0
  1  5  1  1  0  0  0
  1 17  1  0  0  0  0
  2 12  1  0  0  0  0
  3 15  1  0  0  0  0
  4  8  1  0  0  0  0
  4 21  1  6  0  0  0
  5  4  1  0  0  0  0
  6  8  1  0  0  0  0
  6  7  1  0  0  0  0
  9  3  1  0  0  0  0
 10  9  1  1  0  0  0
 10  6  1  0  0  0  0
 11  9  2  0  0  0  0
 12 13  2  0  0  0  0
 13 18  1  0  0  0  0
 14 13  1  0  0  0  0
 15  2  1  0  0  0  0
 16 14  1  0  0  0  0
 17 15  2  0  0  0  0
 17 16  1  0  0  0  0
 18 20  1  0  0  0  0
 19 20  1  0  0  0  0
 21 30  1  0  0  0  0
 22 26  1  0  0  0  0
 23 28  1  0  0  0  0
 25 24  2  0  0  0  0
 26 25  1  0  0  0  0
 27 29  2  0  0  0  0
 28 26  2  0  0  0  0
 28 27  1  0  0  0  0
 29 24  1  0  0  0  0
 30 31  1  0  0  0  0
 30 23  2  0  0  0  0
 31 22  2  0  0  0  0
 32 24  1  6  0  0  0
 32 33  1  0  0  0  0
 32 34  1  0  0  0  0
 33 34  1  0  0  0  0
M  END
>  <MODEL>
8

>  <REMARK>
 VINA RESULT:      -7.0      4.337      7.051
  Name = 
  5 active torsions:
  status: ('A' for Active; 'I' for Inactive)
    1  A    between atoms: C_3  and  C_24
    2  A    between atoms: C_3  and  C_25
    3  A    between atoms: C_7  and  C_11
    4  A    between atoms: C_8  and  C_18
    5  A    between atoms: C_18  and  C_30
                            x       y       z     vdW  Elec       q    Type
                         _______ _______ _______ _____ _____    ______ ____

>  <TORSDO>
F 5

$$$$
=
 OpenBabel10262423333D

 34 39  0  0  1  0  0  0  0  0999 V2000
  181.6580  178.0020  140.5110 C   0  0  1  0  0  3  0  0  0  0  0  0
  179.7340  175.4310  138.3730 C   0  0  0  0  0  2  0  0  0  0  0  0
  179.2750  177.8380  138.9840 N   0  0  0  0  0  2  0  0  0  0  0  0
  183.9690  178.6830  139.7790 C   0  0  1  0  0  3  0  0  0  0  0  0
  183.1280  178.1180  140.9180 C   0  0  0  0  0  2  0  0  0  0  0  0
  181.9990  179.8480  138.8010 N   0  0  0  0  0  0  0  0  0  0  0  0
  182.0030  179.0120  137.6010 C   0  0  0  0  0  1  0  0  0  0  0  0
  183.3780  180.0060  139.2760 C   0  0  0  0  0  2  0  0  0  0  0  0
  179.7150  179.1290  139.4180 C   0  0  0  0  0  0  0  0  0  0  0  0
  181.1340  179.3090  139.8740 C   0  0  1  0  0  3  0  0  0  0  0  0
  178.9310  180.1120  139.3760 O   0  0  0  0  0  0  0  0  0  0  0  0
  180.6000  175.1520  137.1790 C   0  0  0  0  0  3  0  0  0  0  0  0
  181.9470  175.0880  137.1640 C   0  0  0  0  0  0  0  0  0  0  0  0
  182.8700  175.3930  138.3310 C   0  0  0  0  0  2  0  0  0  0  0  0
  180.1370  176.6950  139.0610 C   0  0  0  0  0  0  0  0  0  0  0  0
  182.2250  175.5720  139.7040 C   0  0  0  0  0  2  0  0  0  0  0  0
  181.3140  176.7640  139.7080 C   0  0  0  0  0  0  0  0  0  0  0  0
  182.5990  174.8090  135.8480 C   0  0  0  0  0  2  0  0  0  0  0  0
  182.7200  172.4730  136.3430 O   0  0  0  0  0  1  0  0  0  0  0  0
  183.4750  173.5680  135.9240 C   0  0  0  0  0  2  0  0  0  0  0  0
  185.4380  178.8290  140.1770 C   0  0  0  0  0  2  0  0  0  0  0  0
  184.9790  178.9710  143.9330 C   0  0  0  0  0  3  0  0  0  0  0  0
  186.8050  178.0220  142.0780 N   0  0  0  0  0  0  0  0  0  0  0  0
  187.5800  177.5270  146.1410 C   0  0  0  0  0  0  0  0  0  0  0  0
  186.4010  178.1610  145.7240 C   0  0  0  0  0  3  0  0  0  0  0  0
  186.1420  178.3310  144.3620 C   0  0  0  0  0  0  0  0  0  0  0  0
  188.2250  177.2060  143.8190 C   0  0  0  0  0  3  0  0  0  0  0  0
  187.0600  177.8540  143.4030 C   0  0  0  0  0  0  0  0  0  0  0  0
  188.4820  177.0390  145.1830 C   0  0  0  0  0  3  0  0  0  0  0  0
  185.6740  178.6450  141.6440 C   0  0  0  0  0  0  0  0  0  0  0  0
  184.7410  179.1320  142.5670 C   0  0  0  0  0  3  0  0  0  0  0  0
  187.8410  177.3020  147.5990 C   0  0  1  0  0  3  0  0  0  0  0  0
  189.2140  177.6710  147.9420 C   0  0  0  0  0  2  0  0  0  0  0  0
  188.1150  178.5880  148.2650 N   0  0  0  0  0  2  0  0  0  0  0  0
  1  5  1  6  0  0  0
  2 15  1  0  0  0  0
  3 15  1  0  0  0  0
  3  9  1  0  0  0  0
  4 21  1  1  0  0  0
  4  5  1  0  0  0  0
  6  8  1  0  0  0  0
  6 10  1  0  0  0  0
  7  6  1  0  0  0  0
  8  4  1  0  0  0  0
 10  9  1  6  0  0  0
 10  1  1  0  0  0  0
 11  9  2  0  0  0  0
 12  2  1  0  0  0  0
 13 12  2  0  0  0  0
 13 14  1  0  0  0  0
 14 16  1  0  0  0  0
 15 17  2  0  0  0  0
 16 17  1  0  0  0  0
 17  1  1  0  0  0  0
 18 20  1  0  0  0  0
 18 13  1  0  0  0  0
 20 19  1  0  0  0  0
 21 30  1  0  0  0  0
 22 26  1  0  0  0  0
 23 28  1  0  0  0  0
 25 24  1  0  0  0  0
 26 25  2  0  0  0  0
 27 29  1  0  0  0  0
 28 27  2  0  0  0  0
 28 26  1  0  0  0  0
 29 24  2  0  0  0  0
 30 23  2  0  0  0  0
 30 31  1  0  0  0  0
 31 22  2  0  0  0  0
 32 24  1  6  0  0  0
 32 33  1  0  0  0  0
 32 34  1  0  0  0  0
 33 34  1  0  0  0  0
M  END
>  <MODEL>
9

>  <REMARK>
 VINA RESULT:      -6.9      2.418      3.292
  Name = 
  5 active torsions:
  status: ('A' for Active; 'I' for Inactive)
    1  A    between atoms: C_3  and  C_24
    2  A    between atoms: C_3  and  C_25
    3  A    between atoms: C_7  and  C_11
    4  A    between atoms: C_8  and  C_18
    5  A    between atoms: C_18  and  C_30
                            x       y       z     vdW  Elec       q    Type
                         _______ _______ _______ _____ _____    ______ ____

>  <TORSDO>
F 5

$$$$
