=
 OpenBabel10262421543D

 30 33  0  0  1  0  0  0  0  0999 V2000
  184.4600  178.7160  140.2430 N   0  0  0  0  0  0  0  0  0  0  0  0
  184.6780  178.5480  142.5680 C   0  0  0  0  0  0  0  0  0  0  0  0
  183.7430  178.8260  138.9710 C   0  0  2  0  0  3  0  0  0  0  0  0
  184.0810  178.5470  143.8310 C   0  0  0  0  0  3  0  0  0  0  0  0
  186.1460  178.2960  142.4770 C   0  0  0  0  0  1  0  0  0  0  0  0
  181.7530  179.2640  140.4600 C   0  0  0  0  0  0  0  0  0  0  0  0
  182.7110  178.7610  143.9620 C   0  0  0  0  0  3  0  0  0  0  0  0
  183.8940  178.7570  141.4160 C   0  0  0  0  0  0  0  0  0  0  0  0
  182.3790  179.3190  139.1650 N   0  0  0  0  0  0  0  0  0  0  0  0
  181.6740  179.8780  138.0210 C   0  0  0  0  0  1  0  0  0  0  0  0
  181.9290  178.9880  142.8310 C   0  0  0  0  0  3  0  0  0  0  0  0
  182.5040  178.9970  141.5480 C   0  0  0  0  0  0  0  0  0  0  0  0
  183.7700  177.4770  138.2200 C   0  0  1  0  0  0  0  0  0  0  0  0
  183.9060  177.5760  136.7140 C   0  0  0  0  0  2  0  0  0  0  0  0
  185.0810  177.0760  137.5420 C   0  0  1  0  0  3  0  0  0  0  0  0
  182.9380  176.2520  140.1100 O   0  0  0  0  0  1  0  0  0  0  0  0
  182.9710  176.2620  138.7130 C   0  0  1  0  0  3  0  0  0  0  0  0
  181.3170  174.9440  137.3590 C   0  0  0  0  0  2  0  0  0  0  0  0
  180.6060  176.2550  139.1870 O   0  0  0  0  0  0  0  0  0  0  0  0
  181.5500  176.2140  138.1500 C   0  0  1  0  0  3  0  0  0  0  0  0
  179.8950  174.5890  137.6720 C   0  0  0  0  0  2  0  0  0  0  0  0
  179.4590  175.6540  138.6500 C   0  0  0  0  0  2  0  0  0  0  0  0
  186.1570  178.1510  137.5870 C   0  0  0  0  0  2  0  0  0  0  0  0
  187.3040  177.6590  138.3310 N   0  0  0  0  0  2  0  0  0  0  0  0
  188.7240  179.3720  137.6210 O   0  0  0  0  0  0  0  0  0  0  0  0
  188.5730  178.3120  138.2850 C   0  0  0  0  0  0  0  0  0  0  0  0
  189.7240  177.7370  139.0300 C   0  0  0  0  0  1  0  0  0  0  0  0
  180.2830  179.5570  140.5830 C   0  0  0  0  0  2  0  0  0  0  0  0
  180.0910  180.9160  140.8290 O   0  0  0  0  0  0  0  0  0  0  0  0
  178.9580  180.9660  141.6390 C   0  0  0  0  0  1  0  0  0  0  0  0
  1  8  2  0  0  0  0
  2  4  2  0  0  0  0
  3  9  1  0  0  0  0
  3  1  1  1  0  0  0
  4  7  1  0  0  0  0
  5  2  1  0  0  0  0
  6 28  1  0  0  0  0
  6 12  2  0  0  0  0
  8 12  1  0  0  0  0
  8  2  1  0  0  0  0
  9  6  1  0  0  0  0
 10  9  1  0  0  0  0
 11  7  2  0  0  0  0
 12 11  1  0  0  0  0
 13 17  1  1  0  0  0
 13  3  1  0  0  0  0
 14 15  1  0  0  0  0
 14 13  1  0  0  0  0
 15 23  1  1  0  0  0
 15 13  1  0  0  0  0
 17 16  1  1  0  0  0
 18 21  1  0  0  0  0
 18 20  1  0  0  0  0
 20 17  1  1  0  0  0
 20 19  1  0  0  0  0
 21 22  1  0  0  0  0
 22 19  1  0  0  0  0
 23 24  1  0  0  0  0
 25 26  2  0  0  0  0
 26 24  1  0  0  0  0
 26 27  1  0  0  0  0
 28 29  1  0  0  0  0
 29 30  1  0  0  0  0
M  END
>  <MODEL>
1

>  <REMARK>
 VINA RESULT:      -6.0      0.000      0.000
  Name = 
  7 active torsions:
  status: ('A' for Active; 'I' for Inactive)
    1  A    between atoms: C_3  and  O_11
    2  A    between atoms: C_3  and  C_19
    3  A    between atoms: C_4  and  C_13
    4  A    between atoms: N_7  and  C_16
    5  A    between atoms: C_8  and  C_12
    6  A    between atoms: C_8  and  C_13
    7  A    between atoms: C_16  and  C_30
                            x       y       z     vdW  Elec       q    Type
                         _______ _______ _______ _____ _____    ______ ____

>  <TORSDO>
F 7

$$$$
=
 OpenBabel10262421543D

 30 33  0  0  1  0  0  0  0  0999 V2000
  187.5040  177.1370  144.7320 N   0  0  0  0  0  0  0  0  0  0  0  0
  187.0550  178.0700  146.8320 C   0  0  0  0  0  0  0  0  0  0  0  0
  188.3440  176.6140  143.6540 C   0  0  2  0  0  3  0  0  0  0  0  0
  187.5180  178.4960  148.0790 C   0  0  0  0  0  3  0  0  0  0  0  0
  185.6110  178.2670  146.5070 C   0  0  0  0  0  1  0  0  0  0  0  0
  190.1580  176.7110  145.4060 C   0  0  0  0  0  0  0  0  0  0  0  0
  188.8610  178.3480  148.4190 C   0  0  0  0  0  3  0  0  0  0  0  0
  187.9460  177.4940  145.9050 C   0  0  0  0  0  0  0  0  0  0  0  0
  189.6670  176.2230  144.1450 N   0  0  0  0  0  0  0  0  0  0  0  0
  190.4690  175.3180  143.3330 C   0  0  0  0  0  1  0  0  0  0  0  0
  189.7470  177.7620  147.5180 C   0  0  0  0  0  3  0  0  0  0  0  0
  189.3080  177.3210  146.2570 C   0  0  0  0  0  0  0  0  0  0  0  0
  188.4340  177.6340  142.4980 C   0  0  1  0  0  0  0  0  0  0  0  0
  187.5380  177.3490  141.3110 C   0  0  0  0  0  2  0  0  0  0  0  0
  187.2080  178.5100  142.2370 C   0  0  1  0  0  3  0  0  0  0  0  0
  190.3210  178.8760  143.3140 O   0  0  0  0  0  1  0  0  0  0  0  0
  189.7490  178.3490  142.1530 C   0  0  1  0  0  3  0  0  0  0  0  0
  190.4270  177.3350  139.9580 C   0  0  0  0  0  2  0  0  0  0  0  0
  192.0510  177.9540  141.5540 O   0  0  0  0  0  0  0  0  0  0  0  0
  190.7490  177.4450  141.4330 C   0  0  1  0  0  3  0  0  0  0  0  0
  191.7750  177.2880  139.3040 C   0  0  0  0  0  2  0  0  0  0  0  0
  192.7440  177.4270  140.4550 C   0  0  0  0  0  2  0  0  0  0  0  0
  185.9950  178.1480  143.0830 C   0  0  0  0  0  2  0  0  0  0  0  0
  184.8020  178.1770  142.2550 N   0  0  0  0  0  2  0  0  0  0  0  0
  183.4940  179.2460  143.8680 O   0  0  0  0  0  0  0  0  0  0  0  0
  183.5700  178.7260  142.7240 C   0  0  0  0  0  0  0  0  0  0  0  0
  182.3670  178.6860  141.8500 C   0  0  0  0  0  1  0  0  0  0  0  0
  191.5980  176.4860  145.7760 C   0  0  0  0  0  2  0  0  0  0  0  0
  191.7140  175.3260  146.5400 O   0  0  0  0  0  0  0  0  0  0  0  0
  192.5230  175.6960  147.6130 C   0  0  0  0  0  1  0  0  0  0  0  0
  1  8  2  0  0  0  0
  2  4  2  0  0  0  0
  3  9  1  0  0  0  0
  3  1  1  1  0  0  0
  4  7  1  0  0  0  0
  5  2  1  0  0  0  0
  6 28  1  0  0  0  0
  6 12  2  0  0  0  0
  8 12  1  0  0  0  0
  8  2  1  0  0  0  0
  9  6  1  0  0  0  0
 10  9  1  0  0  0  0
 11  7  2  0  0  0  0
 12 11  1  0  0  0  0
 13 17  1  6  0  0  0
 13  3  1  0  0  0  0
 14 15  1  0  0  0  0
 14 13  1  0  0  0  0
 15 13  1  0  0  0  0
 15 23  1  1  0  0  0
 17 16  1  1  0  0  0
 18 20  1  0  0  0  0
 20 19  1  0  0  0  0
 20 17  1  1  0  0  0
 21 18  1  0  0  0  0
 21 22  1  0  0  0  0
 22 19  1  0  0  0  0
 24 26  1  0  0  0  0
 24 23  1  0  0  0  0
 26 25  2  0  0  0  0
 27 26  1  0  0  0  0
 28 29  1  0  0  0  0
 29 30  1  0  0  0  0
M  END
>  <MODEL>
2

>  <REMARK>
 VINA RESULT:      -5.6      4.746      9.051
  Name = 
  7 active torsions:
  status: ('A' for Active; 'I' for Inactive)
    1  A    between atoms: C_3  and  O_11
    2  A    between atoms: C_3  and  C_19
    3  A    between atoms: C_4  and  C_13
    4  A    between atoms: N_7  and  C_16
    5  A    between atoms: C_8  and  C_12
    6  A    between atoms: C_8  and  C_13
    7  A    between atoms: C_16  and  C_30
                            x       y       z     vdW  Elec       q    Type
                         _______ _______ _______ _____ _____    ______ ____

>  <TORSDO>
F 7

$$$$
=
 OpenBabel10262421543D

 30 33  0  0  1  0  0  0  0  0999 V2000
  187.7890  178.5060  140.4510 N   0  0  0  0  0  0  0  0  0  0  0  0
  188.2350  177.3650  138.4560 C   0  0  0  0  0  0  0  0  0  0  0  0
  187.9810  178.8680  141.8560 C   0  0  2  0  0  3  0  0  0  0  0  0
  189.0430  176.4840  137.7330 C   0  0  0  0  0  3  0  0  0  0  0  0
  187.0030  177.8960  137.8010 C   0  0  0  0  0  1  0  0  0  0  0  0
  190.1280  177.5660  141.6000 C   0  0  0  0  0  0  0  0  0  0  0  0
  190.1940  175.9500  138.3100 C   0  0  0  0  0  3  0  0  0  0  0  0
  188.5740  177.7130  139.7780 C   0  0  0  0  0  0  0  0  0  0  0  0
  189.3240  178.5160  142.3220 N   0  0  0  0  0  0  0  0  0  0  0  0
  189.8310  179.1580  143.5260 C   0  0  0  0  0  1  0  0  0  0  0  0
  190.5500  176.3030  139.6100 C   0  0  0  0  0  3  0  0  0  0  0  0
  189.7560  177.1900  140.3600 C   0  0  0  0  0  0  0  0  0  0  0  0
  186.8800  178.2330  142.7310 C   0  0  1  0  0  0  0  0  0  0  0  0
  185.7830  179.1770  143.1790 C   0  0  0  0  0  2  0  0  0  0  0  0
  185.4790  178.1200  142.1280 C   0  0  1  0  0  3  0  0  0  0  0  0
  187.9470  176.1090  143.0780 O   0  0  0  0  0  1  0  0  0  0  0  0
  187.1860  177.0940  143.7150 C   0  0  1  0  0  3  0  0  0  0  0  0
  186.9170  177.7590  146.1210 C   0  0  0  0  0  2  0  0  0  0  0  0
  188.8600  176.6400  145.3900 O   0  0  0  0  0  0  0  0  0  0  0  0
  187.8950  177.5720  144.9810 C   0  0  1  0  0  3  0  0  0  0  0  0
  187.6880  177.3140  147.3270 C   0  0  0  0  0  2  0  0  0  0  0  0
  189.0160  176.8660  146.7650 C   0  0  0  0  0  2  0  0  0  0  0  0
  185.3340  178.7920  140.7690 C   0  0  0  0  0  2  0  0  0  0  0  0
  183.9490  178.7130  140.3360 N   0  0  0  0  0  2  0  0  0  0  0  0
  184.1230  180.5170  138.8620 O   0  0  0  0  0  0  0  0  0  0  0  0
  183.4000  179.6290  139.3880 C   0  0  0  0  0  0  0  0  0  0  0  0
  181.9640  179.5300  139.0160 C   0  0  0  0  0  1  0  0  0  0  0  0
  191.3970  177.0490  142.2200 C   0  0  0  0  0  2  0  0  0  0  0  0
  191.1310  175.8880  142.9450 O   0  0  0  0  0  0  0  0  0  0  0  0
  191.7770  176.0840  144.1650 C   0  0  0  0  0  1  0  0  0  0  0  0
  2  8  1  0  0  0  0
  3  1  1  6  0  0  0
  3  9  1  0  0  0  0
  3 13  1  0  0  0  0
  4  7  1  0  0  0  0
  4  2  2  0  0  0  0
  5  2  1  0  0  0  0
  6 28  1  0  0  0  0
  6  9  1  0  0  0  0
  7 11  2  0  0  0  0
  8 12  1  0  0  0  0
  8  1  2  0  0  0  0
  9 10  1  0  0  0  0
 11 12  1  0  0  0  0
 12  6  2  0  0  0  0
 13 14  1  0  0  0  0
 13 17  1  1  0  0  0
 15 23  1  6  0  0  0
 15 13  1  0  0  0  0
 15 14  1  0  0  0  0
 17 16  1  6  0  0  0
 18 21  1  0  0  0  0
 19 22  1  0  0  0  0
 20 17  1  6  0  0  0
 20 19  1  0  0  0  0
 20 18  1  0  0  0  0
 22 21  1  0  0  0  0
 24 23  1  0  0  0  0
 25 26  2  0  0  0  0
 26 24  1  0  0  0  0
 27 26  1  0  0  0  0
 28 29  1  0  0  0  0
 29 30  1  0  0  0  0
M  END
>  <MODEL>
3

>  <REMARK>
 VINA RESULT:      -5.6      3.512      8.350
  Name = 
  7 active torsions:
  status: ('A' for Active; 'I' for Inactive)
    1  A    between atoms: C_3  and  O_11
    2  A    between atoms: C_3  and  C_19
    3  A    between atoms: C_4  and  C_13
    4  A    between atoms: N_7  and  C_16
    5  A    between atoms: C_8  and  C_12
    6  A    between atoms: C_8  and  C_13
    7  A    between atoms: C_16  and  C_30
                            x       y       z     vdW  Elec       q    Type
                         _______ _______ _______ _____ _____    ______ ____

>  <TORSDO>
F 7

$$$$
=
 OpenBabel10262421543D

 30 33  0  0  1  0  0  0  0  0999 V2000
  185.3650  178.5940  139.5230 N   0  0  0  0  0  0  0  0  0  0  0  0
  186.0940  178.4710  141.7450 C   0  0  0  0  0  0  0  0  0  0  0  0
  184.3830  178.6160  138.4370 C   0  0  2  0  0  3  0  0  0  0  0  0
  185.7870  178.4210  143.1060 C   0  0  0  0  0  3  0  0  0  0  0  0
  187.5260  178.3720  141.3370 C   0  0  0  0  0  1  0  0  0  0  0  0
  182.7260  178.8600  140.3250 C   0  0  0  0  0  0  0  0  0  0  0  0
  184.4620  178.4930  143.5320 C   0  0  0  0  0  3  0  0  0  0  0  0
  185.0630  178.5870  140.7910 C   0  0  0  0  0  0  0  0  0  0  0  0
  183.0490  178.9680  138.9270 N   0  0  0  0  0  0  0  0  0  0  0  0
  182.0600  179.4400  137.9680 C   0  0  0  0  0  1  0  0  0  0  0  0
  183.4360  178.6270  142.5990 C   0  0  0  0  0  3  0  0  0  0  0  0
  183.7170  178.6830  141.2220 C   0  0  0  0  0  0  0  0  0  0  0  0
  184.3870  177.2710  137.6800 C   0  0  1  0  0  0  0  0  0  0  0  0
  184.3960  177.3770  136.1690 C   0  0  0  0  0  2  0  0  0  0  0  0
  185.6480  176.9080  136.8960 C   0  0  1  0  0  3  0  0  0  0  0  0
  182.3430  176.3560  138.5500 O   0  0  0  0  0  1  0  0  0  0  0  0
  183.6650  176.0320  138.2320 C   0  0  1  0  0  3  0  0  0  0  0  0
  184.6630  173.7780  137.7560 C   0  0  0  0  0  2  0  0  0  0  0  0
  182.4320  174.2580  137.1620 O   0  0  0  0  0  0  0  0  0  0  0  0
  183.7020  174.8430  137.2730 C   0  0  1  0  0  3  0  0  0  0  0  0
  183.9860  172.4940  137.3830 C   0  0  0  0  0  2  0  0  0  0  0  0
  182.6800  172.9360  136.7670 C   0  0  0  0  0  2  0  0  0  0  0  0
  186.6940  178.0140  136.8570 C   0  0  0  0  0  2  0  0  0  0  0  0
  187.9150  177.5480  137.4920 N   0  0  0  0  0  2  0  0  0  0  0  0
  188.8660  179.6770  137.6270 O   0  0  0  0  0  0  0  0  0  0  0  0
  188.9770  178.4400  137.8320 C   0  0  0  0  0  0  0  0  0  0  0  0
  190.2240  177.9010  138.4380 C   0  0  0  0  0  1  0  0  0  0  0  0
  181.2950  179.0010  140.7660 C   0  0  0  0  0  2  0  0  0  0  0  0
  180.7030  177.7420  140.8580 O   0  0  0  0  0  0  0  0  0  0  0  0
  179.4820  177.8820  140.2020 C   0  0  0  0  0  1  0  0  0  0  0  0
  1  8  2  0  0  0  0
  2  4  2  0  0  0  0
  3  9  1  0  0  0  0
  3  1  1  1  0  0  0
  4  7  1  0  0  0  0
  5  2  1  0  0  0  0
  6 28  1  0  0  0  0
  6 12  2  0  0  0  0
  8 12  1  0  0  0  0
  8  2  1  0  0  0  0
  9  6  1  0  0  0  0
 10  9  1  0  0  0  0
 11  7  2  0  0  0  0
 12 11  1  0  0  0  0
 13 17  1  1  0  0  0
 13  3  1  0  0  0  0
 14 15  1  0  0  0  0
 14 13  1  0  0  0  0
 15 23  1  1  0  0  0
 15 13  1  0  0  0  0
 17 16  1  6  0  0  0
 19 20  1  0  0  0  0
 20 18  1  0  0  0  0
 20 17  1  1  0  0  0
 21 18  1  0  0  0  0
 22 19  1  0  0  0  0
 22 21  1  0  0  0  0
 23 24  1  0  0  0  0
 24 26  1  0  0  0  0
 25 26  2  0  0  0  0
 26 27  1  0  0  0  0
 28 29  1  0  0  0  0
 30 29  1  0  0  0  0
M  END
>  <MODEL>
4

>  <REMARK>
 VINA RESULT:      -5.4      1.581      2.074
  Name = 
  7 active torsions:
  status: ('A' for Active; 'I' for Inactive)
    1  A    between atoms: C_3  and  O_11
    2  A    between atoms: C_3  and  C_19
    3  A    between atoms: C_4  and  C_13
    4  A    between atoms: N_7  and  C_16
    5  A    between atoms: C_8  and  C_12
    6  A    between atoms: C_8  and  C_13
    7  A    between atoms: C_16  and  C_30
                            x       y       z     vdW  Elec       q    Type
                         _______ _______ _______ _____ _____    ______ ____

>  <TORSDO>
F 7

$$$$
=
 OpenBabel10262421543D

 30 33  0  0  1  0  0  0  0  0999 V2000
  187.2580  177.1540  144.3040 N   0  0  0  0  0  0  0  0  0  0  0  0
  186.5940  177.7920  146.4570 C   0  0  0  0  0  0  0  0  0  0  0  0
  188.2060  176.8930  143.2190 C   0  0  2  0  0  3  0  0  0  0  0  0
  186.9400  178.1760  147.7540 C   0  0  0  0  0  3  0  0  0  0  0  0
  185.1470  177.7580  146.0900 C   0  0  0  0  0  1  0  0  0  0  0  0
  189.9270  177.1480  145.0480 C   0  0  0  0  0  0  0  0  0  0  0  0
  188.2790  178.2380  148.1360 C   0  0  0  0  0  3  0  0  0  0  0  0
  187.5980  177.4730  145.5210 C   0  0  0  0  0  0  0  0  0  0  0  0
  189.5650  176.7000  143.7300 N   0  0  0  0  0  0  0  0  0  0  0  0
  190.5380  176.0330  142.8760 C   0  0  0  0  0  1  0  0  0  0  0  0
  189.2800  177.9060  147.2250 C   0  0  0  0  0  3  0  0  0  0  0  0
  188.9590  177.5130  145.9130 C   0  0  0  0  0  0  0  0  0  0  0  0
  188.1380  178.0160  142.1630 C   0  0  1  0  0  0  0  0  0  0  0  0
  189.4740  178.5990  141.7500 C   0  0  0  0  0  2  0  0  0  0  0  0
  188.7090  177.7140  140.7770 C   0  0  1  0  0  3  0  0  0  0  0  0
  187.3830  180.2100  141.5420 O   0  0  0  0  0  1  0  0  0  0  0  0
  186.9630  179.0040  142.1080 C   0  0  1  0  0  3  0  0  0  0  0  0
  184.5940  178.1900  142.2810 C   0  0  0  0  0  2  0  0  0  0  0  0
  185.3270  179.3690  140.3740 O   0  0  0  0  0  0  0  0  0  0  0  0
  185.7560  178.4540  141.3480 C   0  0  1  0  0  3  0  0  0  0  0  0
  183.3930  178.5670  141.4660 C   0  0  0  0  0  2  0  0  0  0  0  0
  183.9760  179.0590  140.1630 C   0  0  0  0  0  2  0  0  0  0  0  0
  189.4060  176.3640  140.6740 C   0  0  0  0  0  2  0  0  0  0  0  0
  189.9430  176.1970  139.3340 N   0  0  0  0  0  2  0  0  0  0  0  0
  192.0110  177.1510  139.8530 O   0  0  0  0  0  0  0  0  0  0  0  0
  191.2560  176.6370  138.9860 C   0  0  0  0  0  0  0  0  0  0  0  0
  191.7360  176.4820  137.5880 C   0  0  0  0  0  1  0  0  0  0  0  0
  191.3740  177.1490  145.4560 C   0  0  0  0  0  2  0  0  0  0  0  0
  191.7820  175.8500  145.7560 O   0  0  0  0  0  0  0  0  0  0  0  0
  192.1850  175.9110  147.0890 C   0  0  0  0  0  1  0  0  0  0  0  0
  1  8  2  0  0  0  0
  2  4  2  0  0  0  0
  3  9  1  0  0  0  0
  3  1  1  1  0  0  0
  4  7  1  0  0  0  0
  5  2  1  0  0  0  0
  6 28  1  0  0  0  0
  6 12  2  0  0  0  0
  8 12  1  0  0  0  0
  8  2  1  0  0  0  0
  9  6  1  0  0  0  0
 10  9  1  0  0  0  0
 11  7  2  0  0  0  0
 12 11  1  0  0  0  0
 13 17  1  1  0  0  0
 13  3  1  0  0  0  0
 14 13  1  0  0  0  0
 15 23  1  1  0  0  0
 15 14  1  0  0  0  0
 15 13  1  0  0  0  0
 17 16  1  6  0  0  0
 19 20  1  0  0  0  0
 20 17  1  1  0  0  0
 20 18  1  0  0  0  0
 21 18  1  0  0  0  0
 22 19  1  0  0  0  0
 22 21  1  0  0  0  0
 24 23  1  0  0  0  0
 26 24  1  0  0  0  0
 26 25  2  0  0  0  0
 27 26  1  0  0  0  0
 28 29  1  0  0  0  0
 29 30  1  0  0  0  0
M  END
>  <MODEL>
5

>  <REMARK>
 VINA RESULT:      -5.4      4.262      7.420
  Name = 
  7 active torsions:
  status: ('A' for Active; 'I' for Inactive)
    1  A    between atoms: C_3  and  O_11
    2  A    between atoms: C_3  and  C_19
    3  A    between atoms: C_4  and  C_13
    4  A    between atoms: N_7  and  C_16
    5  A    between atoms: C_8  and  C_12
    6  A    between atoms: C_8  and  C_13
    7  A    between atoms: C_16  and  C_30
                            x       y       z     vdW  Elec       q    Type
                         _______ _______ _______ _____ _____    ______ ____

>  <TORSDO>
F 7

$$$$
=
 OpenBabel10262421543D

 30 33  0  0  1  0  0  0  0  0999 V2000
  187.1350  175.4390  136.8580 N   0  0  0  0  0  0  0  0  0  0  0  0
  186.7360  173.1320  136.8940 C   0  0  0  0  0  0  0  0  0  0  0  0
  187.9070  176.6590  136.6140 C   0  0  2  0  0  3  0  0  0  0  0  0
  187.1560  171.8380  136.5820 C   0  0  0  0  0  3  0  0  0  0  0  0
  185.4580  173.3010  137.6470 C   0  0  0  0  0  1  0  0  0  0  0  0
  189.4580  175.0890  135.3880 C   0  0  0  0  0  0  0  0  0  0  0  0
  188.3510  171.6320  135.8950 C   0  0  0  0  0  3  0  0  0  0  0  0
  187.5230  174.2410  136.5240 C   0  0  0  0  0  0  0  0  0  0  0  0
  188.9950  176.4240  135.6630 N   0  0  0  0  0  0  0  0  0  0  0  0
  189.5900  177.5710  134.9920 C   0  0  0  0  0  1  0  0  0  0  0  0
  189.1280  172.7210  135.5070 C   0  0  0  0  0  3  0  0  0  0  0  0
  188.7280  174.0360  135.8060 C   0  0  0  0  0  0  0  0  0  0  0  0
  188.4190  177.2470  137.9460 C   0  0  1  0  0  0  0  0  0  0  0  0
  188.7340  178.7290  137.9220 C   0  0  0  0  0  2  0  0  0  0  0  0
  187.5080  178.2350  138.6750 C   0  0  1  0  0  3  0  0  0  0  0  0
  190.3040  175.7830  138.2100 O   0  0  0  0  0  1  0  0  0  0  0  0
  189.2820  176.4240  138.9140 C   0  0  1  0  0  3  0  0  0  0  0  0
  189.4080  176.7500  141.4000 C   0  0  0  0  0  2  0  0  0  0  0  0
  191.2690  177.2150  140.0280 O   0  0  0  0  0  0  0  0  0  0  0  0
  189.8670  177.2610  140.0510 C   0  0  1  0  0  3  0  0  0  0  0  0
  190.6080  176.9420  142.2780 C   0  0  0  0  0  2  0  0  0  0  0  0
  191.6580  177.4950  141.3450 C   0  0  0  0  0  2  0  0  0  0  0  0
  186.2550  178.6140  137.8960 C   0  0  0  0  0  2  0  0  0  0  0  0
  185.0780  178.2090  138.6450 N   0  0  0  0  0  2  0  0  0  0  0  0
  184.3890  180.3960  139.0890 O   0  0  0  0  0  0  0  0  0  0  0  0
  184.1940  179.1600  139.2370 C   0  0  0  0  0  0  0  0  0  0  0  0
  183.0300  178.6870  140.0330 C   0  0  0  0  0  1  0  0  0  0  0  0
  190.7200  174.8940  134.5940 C   0  0  0  0  0  2  0  0  0  0  0  0
  191.8190  174.8680  135.4510 O   0  0  0  0  0  0  0  0  0  0  0  0
  192.7830  175.6390  134.8050 C   0  0  0  0  0  1  0  0  0  0  0  0
  2  5  1  0  0  0  0
  3  1  1  1  0  0  0
  3 13  1  0  0  0  0
  4  2  2  0  0  0  0
  6  9  1  0  0  0  0
  6 12  2  0  0  0  0
  7  4  1  0  0  0  0
  8  1  2  0  0  0  0
  8  2  1  0  0  0  0
  9  3  1  0  0  0  0
 10  9  1  0  0  0  0
 11 12  1  0  0  0  0
 11  7  2  0  0  0  0
 12  8  1  0  0  0  0
 13 15  1  0  0  0  0
 13 17  1  1  0  0  0
 14 13  1  0  0  0  0
 14 15  1  0  0  0  0
 15 23  1  6  0  0  0
 17 16  1  6  0  0  0
 18 21  1  0  0  0  0
 19 20  1  0  0  0  0
 19 22  1  0  0  0  0
 20 17  1  6  0  0  0
 20 18  1  0  0  0  0
 22 21  1  0  0  0  0
 23 24  1  0  0  0  0
 24 26  1  0  0  0  0
 25 26  2  0  0  0  0
 26 27  1  0  0  0  0
 28  6  1  0  0  0  0
 28 29  1  0  0  0  0
 30 29  1  0  0  0  0
M  END
>  <MODEL>
6

>  <REMARK>
 VINA RESULT:      -5.1      3.787      8.999
  Name = 
  7 active torsions:
  status: ('A' for Active; 'I' for Inactive)
    1  A    between atoms: C_3  and  O_11
    2  A    between atoms: C_3  and  C_19
    3  A    between atoms: C_4  and  C_13
    4  A    between atoms: N_7  and  C_16
    5  A    between atoms: C_8  and  C_12
    6  A    between atoms: C_8  and  C_13
    7  A    between atoms: C_16  and  C_30
                            x       y       z     vdW  Elec       q    Type
                         _______ _______ _______ _____ _____    ______ ____

>  <TORSDO>
F 7

$$$$
=
 OpenBabel10262421543D

 30 33  0  0  1  0  0  0  0  0999 V2000
  181.6160  178.2050  141.0440 N   0  0  0  0  0  0  0  0  0  0  0  0
  182.3710  178.9310  143.1380 C   0  0  0  0  0  0  0  0  0  0  0  0
  181.7250  177.8940  139.6170 C   0  0  2  0  0  3  0  0  0  0  0  0
  183.4220  179.3610  143.9500 C   0  0  0  0  0  3  0  0  0  0  0  0
  180.9960  178.8940  143.7170 C   0  0  0  0  0  1  0  0  0  0  0  0
  184.1950  178.2050  140.0310 C   0  0  0  0  0  0  0  0  0  0  0  0
  184.7200  179.4270  143.4470 C   0  0  0  0  0  3  0  0  0  0  0  0
  182.6150  178.5670  141.7990 C   0  0  0  0  0  0  0  0  0  0  0  0
  183.1200  177.7090  139.2130 N   0  0  0  0  0  0  0  0  0  0  0  0
  183.3940  177.0020  137.9700 C   0  0  0  0  0  1  0  0  0  0  0  0
  184.9760  179.0520  142.1300 C   0  0  0  0  0  3  0  0  0  0  0  0
  183.9370  178.6120  141.2900 C   0  0  0  0  0  0  0  0  0  0  0  0
  181.0160  178.9760  138.7750 C   0  0  1  0  0  0  0  0  0  0  0  0
  180.8590  178.6530  137.3030 C   0  0  0  0  0  2  0  0  0  0  0  0
  179.6370  178.6360  138.2090 C   0  0  1  0  0  3  0  0  0  0  0  0
  182.4220  180.9210  138.6730 O   0  0  0  0  0  1  0  0  0  0  0  0
  181.1660  180.4720  139.0910 C   0  0  1  0  0  3  0  0  0  0  0  0
  179.2390  182.0200  139.5290 C   0  0  0  0  0  2  0  0  0  0  0  0
  180.6160  182.3160  137.6370 O   0  0  0  0  0  0  0  0  0  0  0  0
  180.0640  181.3270  138.4660 C   0  0  1  0  0  3  0  0  0  0  0  0
  178.9310  183.3560  138.9240 C   0  0  0  0  0  2  0  0  0  0  0  0
  179.6470  183.3280  137.5950 C   0  0  0  0  0  2  0  0  0  0  0  0
  179.2080  177.1950  138.4460 C   0  0  0  0  0  2  0  0  0  0  0  0
  179.4370  176.4170  137.2400 N   0  0  0  0  0  2  0  0  0  0  0  0
  180.5430  174.6870  138.3540 O   0  0  0  0  0  0  0  0  0  0  0  0
  180.1370  175.1720  137.2650 C   0  0  0  0  0  0  0  0  0  0  0  0
  180.3840  174.4420  135.9940 C   0  0  0  0  0  1  0  0  0  0  0  0
  185.5970  178.2100  139.4850 C   0  0  0  0  0  2  0  0  0  0  0  0
  185.6810  179.0920  138.4090 O   0  0  0  0  0  0  0  0  0  0  0  0
  186.5860  178.4900  137.5360 C   0  0  0  0  0  1  0  0  0  0  0  0
  1  8  2  0  0  0  0
  2  5  1  0  0  0  0
  2  4  2  0  0  0  0
  3  1  1  1  0  0  0
  6 12  2  0  0  0  0
  7  4  1  0  0  0  0
  8  2  1  0  0  0  0
  9  3  1  0  0  0  0
  9  6  1  0  0  0  0
 10  9  1  0  0  0  0
 11  7  2  0  0  0  0
 12  8  1  0  0  0  0
 12 11  1  0  0  0  0
 13 17  1  1  0  0  0
 13  3  1  0  0  0  0
 14 15  1  0  0  0  0
 14 13  1  0  0  0  0
 15 23  1  1  0  0  0
 15 13  1  0  0  0  0
 17 16  1  6  0  0  0
 19 20  1  0  0  0  0
 20 17  1  1  0  0  0
 20 18  1  0  0  0  0
 21 18  1  0  0  0  0
 22 19  1  0  0  0  0
 22 21  1  0  0  0  0
 24 26  1  0  0  0  0
 24 23  1  0  0  0  0
 26 25  2  0  0  0  0
 27 26  1  0  0  0  0
 28  6  1  0  0  0  0
 29 28  1  0  0  0  0
 30 29  1  0  0  0  0
M  END
>  <MODEL>
7

>  <REMARK>
 VINA RESULT:      -5.1      2.134      5.776
  Name = 
  7 active torsions:
  status: ('A' for Active; 'I' for Inactive)
    1  A    between atoms: C_3  and  O_11
    2  A    between atoms: C_3  and  C_19
    3  A    between atoms: C_4  and  C_13
    4  A    between atoms: N_7  and  C_16
    5  A    between atoms: C_8  and  C_12
    6  A    between atoms: C_8  and  C_13
    7  A    between atoms: C_16  and  C_30
                            x       y       z     vdW  Elec       q    Type
                         _______ _______ _______ _____ _____    ______ ____

>  <TORSDO>
F 7

$$$$
=
 OpenBabel10262421543D

 30 33  0  0  1  0  0  0  0  0999 V2000
  183.7970  175.6000  138.3160 N   0  0  0  0  0  0  0  0  0  0  0  0
  183.9420  173.6740  136.9920 C   0  0  0  0  0  0  0  0  0  0  0  0
  183.4280  176.9810  138.6320 C   0  0  2  0  0  3  0  0  0  0  0  0
  183.6120  173.0020  135.8130 C   0  0  0  0  0  3  0  0  0  0  0  0
  184.8420  172.9930  137.9680 C   0  0  0  0  0  1  0  0  0  0  0  0
  182.0590  176.7950  136.5190 C   0  0  0  0  0  0  0  0  0  0  0  0
  182.7880  173.6060  134.8660 C   0  0  0  0  0  3  0  0  0  0  0  0
  183.4480  174.9730  137.2280 C   0  0  0  0  0  0  0  0  0  0  0  0
  182.3550  177.4630  137.7590 N   0  0  0  0  0  0  0  0  0  0  0  0
  181.5870  178.6250  138.1820 C   0  0  0  0  0  1  0  0  0  0  0  0
  182.2790  174.8820  135.0970 C   0  0  0  0  0  3  0  0  0  0  0  0
  182.5920  175.5810  136.2770 C   0  0  0  0  0  0  0  0  0  0  0  0
  184.6710  177.8950  138.5810 C   0  0  1  0  0  0  0  0  0  0  0  0
  184.3920  179.3770  138.7260 C   0  0  0  0  0  2  0  0  0  0  0  0
  185.0610  178.6240  139.8670 C   0  0  1  0  0  3  0  0  0  0  0  0
  185.6200  177.8680  136.3750 O   0  0  0  0  0  1  0  0  0  0  0  0
  185.8890  177.5540  137.7100 C   0  0  1  0  0  3  0  0  0  0  0  0
  188.2310  177.2510  138.5630 C   0  0  0  0  0  2  0  0  0  0  0  0
  187.6890  179.0560  137.1440 O   0  0  0  0  0  0  0  0  0  0  0  0
  187.1670  178.2540  138.1710 C   0  0  1  0  0  3  0  0  0  0  0  0
  189.5060  177.8870  138.0980 C   0  0  0  0  0  2  0  0  0  0  0  0
  189.0550  179.1680  137.4380 C   0  0  0  0  0  2  0  0  0  0  0  0
  184.0640  178.4510  141.0050 C   0  0  0  0  0  2  0  0  0  0  0  0
  184.7790  178.3760  142.2680 N   0  0  0  0  0  2  0  0  0  0  0  0
  182.9260  178.9770  143.5560 O   0  0  0  0  0  0  0  0  0  0  0  0
  184.1480  178.6760  143.5130 C   0  0  0  0  0  0  0  0  0  0  0  0
  184.9410  178.6280  144.7700 C   0  0  0  0  0  1  0  0  0  0  0  0
  181.1200  177.4410  135.5390 C   0  0  0  0  0  2  0  0  0  0  0  0
  181.8370  178.2520  134.6600 O   0  0  0  0  0  0  0  0  0  0  0  0
  181.1000  179.4330  134.5950 C   0  0  0  0  0  1  0  0  0  0  0  0
  2  8  1  0  0  0  0
  2  5  1  0  0  0  0
  3  1  1  6  0  0  0
  4  2  2  0  0  0  0
  6  9  1  0  0  0  0
  7 11  2  0  0  0  0
  7  4  1  0  0  0  0
  8  1  2  0  0  0  0
  9 10  1  0  0  0  0
  9  3  1  0  0  0  0
 11 12  1  0  0  0  0
 12  6  2  0  0  0  0
 12  8  1  0  0  0  0
 13 17  1  6  0  0  0
 13  3  1  0  0  0  0
 13 14  1  0  0  0  0
 13 15  1  0  0  0  0
 14 15  1  0  0  0  0
 15 23  1  1  0  0  0
 17 16  1  6  0  0  0
 19 22  1  0  0  0  0
 19 20  1  0  0  0  0
 20 17  1  6  0  0  0
 20 18  1  0  0  0  0
 21 18  1  0  0  0  0
 22 21  1  0  0  0  0
 23 24  1  0  0  0  0
 24 26  1  0  0  0  0
 26 25  2  0  0  0  0
 26 27  1  0  0  0  0
 28  6  1  0  0  0  0
 29 28  1  0  0  0  0
 30 29  1  0  0  0  0
M  END
>  <MODEL>
8

>  <REMARK>
 VINA RESULT:      -4.9      2.507      6.492
  Name = 
  7 active torsions:
  status: ('A' for Active; 'I' for Inactive)
    1  A    between atoms: C_3  and  O_11
    2  A    between atoms: C_3  and  C_19
    3  A    between atoms: C_4  and  C_13
    4  A    between atoms: N_7  and  C_16
    5  A    between atoms: C_8  and  C_12
    6  A    between atoms: C_8  and  C_13
    7  A    between atoms: C_16  and  C_30
                            x       y       z     vdW  Elec       q    Type
                         _______ _______ _______ _____ _____    ______ ____

>  <TORSDO>
F 7

$$$$
=
 OpenBabel10262421543D

 30 33  0  0  1  0  0  0  0  0999 V2000
  187.6140  178.6080  141.2140 N   0  0  0  0  0  0  0  0  0  0  0  0
  186.2240  178.6250  139.3300 C   0  0  0  0  0  0  0  0  0  0  0  0
  188.7580  178.1940  142.0290 C   0  0  2  0  0  3  0  0  0  0  0  0
  185.9710  178.2010  138.0240 C   0  0  0  0  0  3  0  0  0  0  0  0
  185.2000  179.4690  140.0140 C   0  0  0  0  0  1  0  0  0  0  0  0
  189.5280  177.1120  139.8820 C   0  0  0  0  0  0  0  0  0  0  0  0
  186.8900  177.3980  137.3530 C   0  0  0  0  0  3  0  0  0  0  0  0
  187.4110  178.2350  139.9830 C   0  0  0  0  0  0  0  0  0  0  0  0
  189.8120  177.5950  141.2080 N   0  0  0  0  0  0  0  0  0  0  0  0
  191.1580  177.5110  141.7590 C   0  0  0  0  0  1  0  0  0  0  0  0
  188.0760  177.0220  137.9810 C   0  0  0  0  0  3  0  0  0  0  0  0
  188.3590  177.4370  139.2950 C   0  0  0  0  0  0  0  0  0  0  0  0
  188.3000  177.2510  143.1610 C   0  0  1  0  0  0  0  0  0  0  0  0
  189.1950  176.0540  143.4100 C   0  0  0  0  0  2  0  0  0  0  0  0
  189.1650  177.1910  144.4210 C   0  0  1  0  0  3  0  0  0  0  0  0
  186.6730  175.9410  144.3470 O   0  0  0  0  0  1  0  0  0  0  0  0
  186.8130  177.0130  143.4620 C   0  0  1  0  0  3  0  0  0  0  0  0
  184.7090  178.3830  143.4610 C   0  0  0  0  0  2  0  0  0  0  0  0
  186.0140  178.1810  145.4150 O   0  0  0  0  0  0  0  0  0  0  0  0
  186.1100  178.2520  144.0170 C   0  0  1  0  0  3  0  0  0  0  0  0
  183.9180  178.9200  144.6160 C   0  0  0  0  0  2  0  0  0  0  0  0
  184.9230  178.9990  145.7400 C   0  0  0  0  0  2  0  0  0  0  0  0
  190.4610  177.9840  144.3210 C   0  0  0  0  0  2  0  0  0  0  0  0
  191.5040  177.3040  145.0700 N   0  0  0  0  0  2  0  0  0  0  0  0
  190.1230  176.8130  146.8890 O   0  0  0  0  0  0  0  0  0  0  0  0
  191.2690  176.7570  146.3680 C   0  0  0  0  0  0  0  0  0  0  0  0
  192.3860  176.1130  147.1080 C   0  0  0  0  0  1  0  0  0  0  0  0
  190.5620  176.2960  139.1560 C   0  0  0  0  0  2  0  0  0  0  0  0
  191.3530  177.1300  138.3670 O   0  0  0  0  0  0  0  0  0  0  0  0
  192.3850  176.3080  137.9180 C   0  0  0  0  0  1  0  0  0  0  0  0
  2  8  1  0  0  0  0
  2  5  1  0  0  0  0
  3  1  1  6  0  0  0
  3 13  1  0  0  0  0
  4  2  2  0  0  0  0
  6  9  1  0  0  0  0
  7 11  2  0  0  0  0
  7  4  1  0  0  0  0
  8  1  2  0  0  0  0
  9 10  1  0  0  0  0
  9  3  1  0  0  0  0
 11 12  1  0  0  0  0
 12  6  2  0  0  0  0
 12  8  1  0  0  0  0
 13 14  1  0  0  0  0
 13 17  1  1  0  0  0
 13 15  1  0  0  0  0
 14 15  1  0  0  0  0
 15 23  1  6  0  0  0
 17 16  1  1  0  0  0
 18 20  1  0  0  0  0
 18 21  1  0  0  0  0
 19 22  1  0  0  0  0
 20 17  1  6  0  0  0
 20 19  1  0  0  0  0
 21 22  1  0  0  0  0
 23 24  1  0  0  0  0
 24 26  1  0  0  0  0
 26 25  2  0  0  0  0
 26 27  1  0  0  0  0
 28  6  1  0  0  0  0
 29 28  1  0  0  0  0
 30 29  1  0  0  0  0
M  END
>  <MODEL>
9

>  <REMARK>
 VINA RESULT:      -4.8      4.205      8.164
  Name = 
  7 active torsions:
  status: ('A' for Active; 'I' for Inactive)
    1  A    between atoms: C_3  and  O_11
    2  A    between atoms: C_3  and  C_19
    3  A    between atoms: C_4  and  C_13
    4  A    between atoms: N_7  and  C_16
    5  A    between atoms: C_8  and  C_12
    6  A    between atoms: C_8  and  C_13
    7  A    between atoms: C_16  and  C_30
                            x       y       z     vdW  Elec       q    Type
                         _______ _______ _______ _____ _____    ______ ____

>  <TORSDO>
F 7

$$$$
