=
 OpenBabel10262422313D

 43 49  0  0  1  0  0  0  0  0999 V2000
  190.1780  175.4640  135.8250 N   0  0  0  0  0  2  0  0  0  0  0  0
  189.5500  177.9790  140.7530 C   0  0  2  0  0  3  0  0  0  0  0  0
  190.8510  176.4440  138.6720 C   0  0  1  0  0  3  0  0  0  0  0  0
  189.0590  175.2870  136.7380 C   0  0  0  0  0  2  0  0  0  0  0  0
  191.4110  175.2350  136.5640 C   0  0  0  0  0  2  0  0  0  0  0  0
  189.5240  177.2120  138.4140 C   0  0  1  0  0  3  0  0  0  0  0  0
  191.7460  176.4310  137.4430 C   0  0  0  0  0  2  0  0  0  0  0  0
  188.6310  176.6420  137.2920 C   0  0  0  0  0  2  0  0  0  0  0  0
  187.4500  178.0510  139.7170 C   0  0  0  0  0  2  0  0  0  0  0  0
  188.7410  177.2610  139.7220 C   0  0  2  0  0  3  0  0  0  0  0  0
  190.7780  177.1590  141.1160 C   0  0  0  0  0  2  0  0  0  0  0  0
  188.5250  178.3000  141.8190 C   0  0  1  0  0  3  0  0  0  0  0  0
  187.3150  178.6780  141.0420 N   0  0  2  0  0  0  0  0  0  0  0  0
  191.6390  177.0360  139.8550 C   0  0  0  0  0  2  0  0  0  0  0  0
  184.9000  179.0600  141.0830 C   0  0  1  0  0  3  0  0  0  0  0  0
  185.4590  179.3860  142.4510 C   0  0  0  0  0  2  0  0  0  0  0  0
  186.0540  178.2460  141.6480 C   0  0  2  0  0  3  0  0  0  0  0  0
  183.6080  178.2760  141.2380 C   0  0  0  0  0  2  0  0  0  0  0  0
  182.8710  178.1560  139.9000 C   0  0  2  0  0  3  0  0  0  0  0  0
  183.3670  176.9940  139.0260 C   0  0  1  0  0  3  0  0  0  0  0  0
  182.2440  176.0560  138.5880 C   0  0  0  0  0  2  0  0  0  0  0  0
  180.9550  176.3880  139.3150 C   0  0  0  0  0  2  0  0  0  0  0  0
  179.8310  176.5270  138.3100 C   0  0  0  0  0  1  0  0  0  0  0  0
  184.1240  177.5230  137.8170 C   0  0  0  0  0  2  0  0  0  0  0  0
  183.1320  177.6550  135.6620 F   0  0  0  0  0  0  0  0  0  0  0  0
  183.7210  176.7800  136.5560 C   0  0  0  0  0  2  0  0  0  0  0  0
  182.9520  179.3630  139.2010 O   0  0  0  0  0  0  0  0  0  0  0  0
  181.6770  179.9270  139.3080 C   0  0  0  0  0  2  0  0  0  0  0  0
  181.3000  180.5670  138.0160 C   0  0  0  0  0  0  0  0  0  0  0  0
  180.7690  182.5300  136.7590 N   0  0  0  0  0  0  0  0  0  0  0  0
  180.6650  180.3940  135.6900 C   0  0  0  0  0  3  0  0  0  0  0  0
  180.5310  181.7850  135.6450 C   0  0  0  0  0  3  0  0  0  0  0  0
  181.0510  179.7850  136.8850 C   0  0  0  0  0  3  0  0  0  0  0  0
  181.1430  181.9540  137.9340 C   0  0  0  0  0  3  0  0  0  0  0  0
  188.3270  177.0960  142.7610 C   0  0  0  0  0  2  0  0  0  0  0  0
  186.8480  178.2400  146.7800 C   0  0  0  0  0  2  0  0  0  0  0  0
  188.9740  177.0560  147.6210 C   0  0  2  0  0  3  0  0  0  0  0  0
  187.4820  177.3530  147.8540 C   0  0  1  0  0  3  0  0  0  0  0  0
  189.1630  177.2510  143.9920 C   0  0  0  0  0  3  0  0  0  0  0  0
  187.1550  177.7210  145.3790 C   0  0  0  0  0  2  0  0  0  0  0  0
  188.6380  177.5260  145.1900 C   0  0  0  0  0  0  0  0  0  0  0  0
  188.5470  178.1380  148.5920 C   0  0  0  0  0  2  0  0  0  0  0  0
  189.5600  177.7010  146.3600 C   0  0  0  0  0  2  0  0  0  0  0  0
  1  5  1  0  0  0  0
  1  4  1  0  0  0  0
  2 11  1  1  0  0  0
  2 12  1  0  0  0  0
  3  7  1  6  0  0  0
  3 14  1  0  0  0  0
  4  8  1  0  0  0  0
  5  7  1  0  0  0  0
  6  8  1  6  0  0  0
  6  3  1  0  0  0  0
  6 10  1  0  0  0  0
 10  9  1  6  0  0  0
 10  2  1  0  0  0  0
 12 35  1  1  0  0  0
 13  9  1  6  0  0  0
 13 17  1  0  0  0  0
 13 12  1  0  0  0  0
 14 11  1  0  0  0  0
 15 18  1  1  0  0  0
 15 17  1  0  0  0  0
 15 16  1  0  0  0  0
 17 16  1  1  0  0  0
 19 18  1  1  0  0  0
 20 24  1  6  0  0  0
 20 19  1  0  0  0  0
 21 20  1  0  0  0  0
 21 22  1  0  0  0  0
 23 22  1  0  0  0  0
 25 26  1  0  0  0  0
 26 24  1  0  0  0  0
 27 28  1  0  0  0  0
 27 19  1  0  0  0  0
 29 28  1  0  0  0  0
 30 34  2  0  0  0  0
 31 33  1  0  0  0  0
 32 31  2  0  0  0  0
 32 30  1  0  0  0  0
 33 29  2  0  0  0  0
 34 29  1  0  0  0  0
 35 39  1  0  0  0  0
 37 43  1  6  0  0  0
 37 38  1  0  0  0  0
 37 42  1  0  0  0  0
 38 36  1  6  0  0  0
 38 42  1  0  0  0  0
 39 41  2  0  0  0  0
 40 36  1  0  0  0  0
 41 40  1  0  0  0  0
 41 43  1  0  0  0  0
M  END
>  <MODEL>
1

>  <REMARK>
 VINA RESULT:      -8.1      0.000      0.000
  Name = 
  13 active torsions:
  status: ('A' for Active; 'I' for Inactive)
    1  A    between atoms: C_1  and  C_28
    2  A    between atoms: C_1  and  C_34
    3  A    between atoms: C_2  and  C_6
    4  A    between atoms: C_3  and  C_4
    5  A    between atoms: C_3  and  C_12
    6  A    between atoms: C_4  and  C_15
    7  A    between atoms: C_4  and  C_22
    8  A    between atoms: C_6  and  C_22
    9  A    between atoms: C_11  and  C_14
   10  A    between atoms: C_13  and  N_38
   11  A    between atoms: C_14  and  O_41
   12  A    between atoms: C_15  and  C_42
   13  A    between atoms: C_22  and  O_41
                            x       y       z     vdW  Elec       q    Type
                         _______ _______ _______ _____ _____    ______ ____

>  <TORSDO>
F 13

$$$$
=
 OpenBabel10262422313D

 43 49  0  0  1  0  0  0  0  0999 V2000
  191.5620  176.1510  136.9180 N   0  0  0  0  0  2  0  0  0  0  0  0
  189.4290  178.1210  141.6690 C   0  0  2  0  0  3  0  0  0  0  0  0
  191.3480  176.8480  139.9170 C   0  0  1  0  0  3  0  0  0  0  0  0
  190.2420  175.8480  137.4530 C   0  0  0  0  0  2  0  0  0  0  0  0
  192.5470  175.8800  137.9550 C   0  0  0  0  0  2  0  0  0  0  0  0
  190.1070  177.6010  139.3610 C   0  0  1  0  0  3  0  0  0  0  0  0
  192.5530  176.9870  138.9990 C   0  0  0  0  0  2  0  0  0  0  0  0
  189.6010  177.1260  137.9830 C   0  0  0  0  0  2  0  0  0  0  0  0
  187.7060  178.2420  140.0870 C   0  0  0  0  0  2  0  0  0  0  0  0
  188.9850  177.4920  140.3890 C   0  0  2  0  0  3  0  0  0  0  0  0
  190.5480  177.3020  142.2920 C   0  0  0  0  0  2  0  0  0  0  0  0
  188.1280  178.3000  142.4210 C   0  0  1  0  0  3  0  0  0  0  0  0
  187.1680  178.7240  141.3700 N   0  0  2  0  0  0  0  0  0  0  0  0
  191.7360  177.3350  141.3240 C   0  0  0  0  0  2  0  0  0  0  0  0
  184.8150  179.0650  140.7970 C   0  0  1  0  0  3  0  0  0  0  0  0
  184.9670  179.2070  142.2960 C   0  0  0  0  0  2  0  0  0  0  0  0
  185.8130  178.1970  141.5470 C   0  0  2  0  0  3  0  0  0  0  0  0
  183.5690  178.2500  140.4900 C   0  0  0  0  0  2  0  0  0  0  0  0
  182.6720  178.9720  139.4790 C   0  0  2  0  0  3  0  0  0  0  0  0
  181.1770  178.8990  139.8200 C   0  0  1  0  0  3  0  0  0  0  0  0
  180.8970  178.1470  141.1200 C   0  0  0  0  0  2  0  0  0  0  0  0
  180.4220  179.1020  142.1990 C   0  0  0  0  0  2  0  0  0  0  0  0
  181.3510  179.0180  143.3920 C   0  0  0  0  0  1  0  0  0  0  0  0
  180.5720  180.2940  139.8690 C   0  0  0  0  0  2  0  0  0  0  0  0
  178.9530  181.6220  138.7450 F   0  0  0  0  0  0  0  0  0  0  0  0
  179.9140  180.6480  138.5470 C   0  0  0  0  0  2  0  0  0  0  0  0
  182.9060  178.4750  138.1950 O   0  0  0  0  0  0  0  0  0  0  0  0
  183.0070  177.0900  138.3560 C   0  0  0  0  0  2  0  0  0  0  0  0
  184.1810  176.5770  137.5970 C   0  0  0  0  0  0  0  0  0  0  0  0
  185.3770  174.7500  136.6270 N   0  0  0  0  0  0  0  0  0  0  0  0
  186.3240  176.9440  136.5380 C   0  0  0  0  0  3  0  0  0  0  0  0
  186.3870  175.5790  136.2440 C   0  0  0  0  0  3  0  0  0  0  0  0
  185.2120  177.4430  137.2190 C   0  0  0  0  0  3  0  0  0  0  0  0
  184.2880  175.2170  137.2950 C   0  0  0  0  0  3  0  0  0  0  0  0
  187.7410  177.0000  143.1530 C   0  0  0  0  0  2  0  0  0  0  0  0
  189.5460  176.9420  147.2020 C   0  0  0  0  0  2  0  0  0  0  0  0
  187.6260  178.5490  147.8040 C   0  0  2  0  0  3  0  0  0  0  0  0
  189.1060  178.1720  147.9990 C   0  0  1  0  0  3  0  0  0  0  0  0
  187.0330  177.3100  144.4340 C   0  0  0  0  0  3  0  0  0  0  0  0
  189.1340  177.0530  145.7370 C   0  0  0  0  0  2  0  0  0  0  0  0
  187.6600  177.3460  145.6140 C   0  0  0  0  0  0  0  0  0  0  0  0
  188.0660  177.7620  149.0230 C   0  0  0  0  0  2  0  0  0  0  0  0
  186.8580  177.6280  146.8500 C   0  0  0  0  0  2  0  0  0  0  0  0
  1  4  1  0  0  0  0
  1  5  1  0  0  0  0
  2 11  1  1  0  0  0
  2 12  1  0  0  0  0
  3  7  1  6  0  0  0
  3 14  1  0  0  0  0
  4  8  1  0  0  0  0
  5  7  1  0  0  0  0
  6  8  1  6  0  0  0
  6  3  1  0  0  0  0
  6 10  1  0  0  0  0
 10  9  1  6  0  0  0
 10  2  1  0  0  0  0
 12 35  1  6  0  0  0
 13  9  1  6  0  0  0
 13 17  1  0  0  0  0
 13 12  1  0  0  0  0
 14 11  1  0  0  0  0
 15 18  1  1  0  0  0
 15 17  1  0  0  0  0
 15 16  1  0  0  0  0
 17 16  1  1  0  0  0
 19 20  1  0  0  0  0
 19 18  1  1  0  0  0
 20 24  1  1  0  0  0
 20 21  1  0  0  0  0
 21 22  1  0  0  0  0
 22 23  1  0  0  0  0
 26 25  1  0  0  0  0
 26 24  1  0  0  0  0
 27 28  1  0  0  0  0
 27 19  1  0  0  0  0
 29 28  1  0  0  0  0
 30 34  2  0  0  0  0
 31 33  1  0  0  0  0
 32 31  2  0  0  0  0
 32 30  1  0  0  0  0
 33 29  2  0  0  0  0
 34 29  1  0  0  0  0
 35 39  1  0  0  0  0
 37 43  1  6  0  0  0
 37 38  1  0  0  0  0
 37 42  1  0  0  0  0
 38 36  1  6  0  0  0
 38 42  1  0  0  0  0
 39 41  2  0  0  0  0
 40 36  1  0  0  0  0
 41 40  1  0  0  0  0
 41 43  1  0  0  0  0
M  END
>  <MODEL>
2

>  <REMARK>
 VINA RESULT:      -8.0      2.152      3.573
  Name = 
  13 active torsions:
  status: ('A' for Active; 'I' for Inactive)
    1  A    between atoms: C_1  and  C_28
    2  A    between atoms: C_1  and  C_34
    3  A    between atoms: C_2  and  C_6
    4  A    between atoms: C_3  and  C_4
    5  A    between atoms: C_3  and  C_12
    6  A    between atoms: C_4  and  C_15
    7  A    between atoms: C_4  and  C_22
    8  A    between atoms: C_6  and  C_22
    9  A    between atoms: C_11  and  C_14
   10  A    between atoms: C_13  and  N_38
   11  A    between atoms: C_14  and  O_41
   12  A    between atoms: C_15  and  C_42
   13  A    between atoms: C_22  and  O_41
                            x       y       z     vdW  Elec       q    Type
                         _______ _______ _______ _____ _____    ______ ____

>  <TORSDO>
F 13

$$$$
=
 OpenBabel10262422313D

 43 49  0  0  1  0  0  0  0  0999 V2000
  190.1580  175.6880  135.7880 N   0  0  0  0  0  2  0  0  0  0  0  0
  189.4980  178.0220  140.7990 C   0  0  2  0  0  3  0  0  0  0  0  0
  190.8160  176.5710  138.6700 C   0  0  1  0  0  3  0  0  0  0  0  0
  189.0370  175.4700  136.6910 C   0  0  0  0  0  2  0  0  0  0  0  0
  191.3900  175.4400  136.5220 C   0  0  0  0  0  2  0  0  0  0  0  0
  189.4840  177.3370  138.4350 C   0  0  1  0  0  3  0  0  0  0  0  0
  191.7150  176.6070  137.4440 C   0  0  0  0  0  2  0  0  0  0  0  0
  188.5990  176.8020  137.2900 C   0  0  0  0  0  2  0  0  0  0  0  0
  187.4010  178.1160  139.7600 C   0  0  0  0  0  2  0  0  0  0  0  0
  188.6970  177.3350  139.7420 C   0  0  2  0  0  3  0  0  0  0  0  0
  190.7300  177.1970  141.1380 C   0  0  0  0  0  2  0  0  0  0  0  0
  188.4670  178.2970  141.8730 C   0  0  1  0  0  3  0  0  0  0  0  0
  187.2580  178.6940  141.1060 N   0  0  2  0  0  0  0  0  0  0  0  0
  191.5960  177.1260  139.8750 C   0  0  0  0  0  2  0  0  0  0  0  0
  184.8270  178.9590  141.0480 C   0  0  1  0  0  3  0  0  0  0  0  0
  185.3210  179.3810  142.4150 C   0  0  0  0  0  2  0  0  0  0  0  0
  185.9980  178.2330  141.6930 C   0  0  2  0  0  3  0  0  0  0  0  0
  183.5680  178.1220  141.2010 C   0  0  0  0  0  2  0  0  0  0  0  0
  182.5530  178.4440  140.1000 C   0  0  2  0  0  3  0  0  0  0  0  0
  181.3790  179.3110  140.5800 C   0  0  1  0  0  3  0  0  0  0  0  0
  180.7500  180.1360  139.4590 C   0  0  0  0  0  2  0  0  0  0  0  0
  181.7750  181.0680  138.8400 C   0  0  0  0  0  2  0  0  0  0  0  0
  181.0660  182.1240  138.0190 C   0  0  0  0  0  1  0  0  0  0  0  0
  180.3280  178.4520  141.2670 C   0  0  0  0  0  2  0  0  0  0  0  0
  181.2350  179.6850  143.0850 F   0  0  0  0  0  0  0  0  0  0  0  0
  180.2960  178.7240  142.7600 C   0  0  0  0  0  2  0  0  0  0  0  0
  182.0840  177.2610  139.5230 O   0  0  0  0  0  0  0  0  0  0  0  0
  182.3230  177.4080  138.1540 C   0  0  0  0  0  2  0  0  0  0  0  0
  183.3210  176.3980  137.7050 C   0  0  0  0  0  0  0  0  0  0  0  0
  184.1820  174.1700  137.7770 N   0  0  0  0  0  0  0  0  0  0  0  0
  185.3150  175.8180  136.4670 C   0  0  0  0  0  3  0  0  0  0  0  0
  185.2030  174.5080  136.9420 C   0  0  0  0  0  3  0  0  0  0  0  0
  184.3660  176.7670  136.8540 C   0  0  0  0  0  3  0  0  0  0  0  0
  183.2500  175.0810  138.1680 C   0  0  0  0  0  3  0  0  0  0  0  0
  188.2750  177.0590  142.7710 C   0  0  0  0  0  2  0  0  0  0  0  0
  186.8130  178.3330  146.7570 C   0  0  0  0  0  2  0  0  0  0  0  0
  188.8540  177.0350  147.6400 C   0  0  2  0  0  3  0  0  0  0  0  0
  187.3790  177.4210  147.8490 C   0  0  1  0  0  3  0  0  0  0  0  0
  189.1020  177.1790  144.0120 C   0  0  0  0  0  3  0  0  0  0  0  0
  187.1070  177.7810  145.3660 C   0  0  0  0  0  2  0  0  0  0  0  0
  188.5780  177.4970  145.2000 C   0  0  0  0  0  0  0  0  0  0  0  0
  188.4780  178.1510  148.5940 C   0  0  0  0  0  2  0  0  0  0  0  0
  189.4930  177.6310  146.3810 C   0  0  0  0  0  2  0  0  0  0  0  0
  1  5  1  0  0  0  0
  1  4  1  0  0  0  0
  2 11  1  1  0  0  0
  2 12  1  0  0  0  0
  3  7  1  6  0  0  0
  3 14  1  0  0  0  0
  4  8  1  0  0  0  0
  5  7  1  0  0  0  0
  6  8  1  6  0  0  0
  6  3  1  0  0  0  0
  6 10  1  0  0  0  0
 10  9  1  6  0  0  0
 10  2  1  0  0  0  0
 12 35  1  6  0  0  0
 13  9  1  6  0  0  0
 13 17  1  0  0  0  0
 13 12  1  0  0  0  0
 14 11  1  0  0  0  0
 15 18  1  1  0  0  0
 15 17  1  0  0  0  0
 15 16  1  0  0  0  0
 17 16  1  1  0  0  0
 19 20  1  0  0  0  0
 19 18  1  1  0  0  0
 20 21  1  6  0  0  0
 20 24  1  0  0  0  0
 22 21  1  0  0  0  0
 23 22  1  0  0  0  0
 24 26  1  0  0  0  0
 26 25  1  0  0  0  0
 27 19  1  0  0  0  0
 28 27  1  0  0  0  0
 29 28  1  0  0  0  0
 29 34  1  0  0  0  0
 30 34  2  0  0  0  0
 31 33  1  0  0  0  0
 31 32  2  0  0  0  0
 32 30  1  0  0  0  0
 33 29  2  0  0  0  0
 35 39  1  0  0  0  0
 37 43  1  6  0  0  0
 37 38  1  0  0  0  0
 37 42  1  0  0  0  0
 38 36  1  6  0  0  0
 38 42  1  0  0  0  0
 39 41  2  0  0  0  0
 40 36  1  0  0  0  0
 41 40  1  0  0  0  0
 41 43  1  0  0  0  0
M  END
>  <MODEL>
3

>  <REMARK>
 VINA RESULT:      -7.9      2.072      3.546
  Name = 
  13 active torsions:
  status: ('A' for Active; 'I' for Inactive)
    1  A    between atoms: C_1  and  C_28
    2  A    between atoms: C_1  and  C_34
    3  A    between atoms: C_2  and  C_6
    4  A    between atoms: C_3  and  C_4
    5  A    between atoms: C_3  and  C_12
    6  A    between atoms: C_4  and  C_15
    7  A    between atoms: C_4  and  C_22
    8  A    between atoms: C_6  and  C_22
    9  A    between atoms: C_11  and  C_14
   10  A    between atoms: C_13  and  N_38
   11  A    between atoms: C_14  and  O_41
   12  A    between atoms: C_15  and  C_42
   13  A    between atoms: C_22  and  O_41
                            x       y       z     vdW  Elec       q    Type
                         _______ _______ _______ _____ _____    ______ ____

>  <TORSDO>
F 13

$$$$
=
 OpenBabel10262422313D

 43 49  0  0  1  0  0  0  0  0999 V2000
  190.5930  176.1320  136.1920 N   0  0  0  0  0  2  0  0  0  0  0  0
  189.4090  177.9810  141.3090 C   0  0  2  0  0  3  0  0  0  0  0  0
  190.9300  176.6980  139.2060 C   0  0  1  0  0  3  0  0  0  0  0  0
  189.3680  175.8690  136.9330 C   0  0  0  0  0  2  0  0  0  0  0  0
  191.7230  175.7660  137.0330 C   0  0  0  0  0  2  0  0  0  0  0  0
  189.6560  177.5360  138.9000 C   0  0  1  0  0  3  0  0  0  0  0  0
  191.9680  176.8220  138.1010 C   0  0  0  0  0  2  0  0  0  0  0  0
  188.8980  177.1510  137.6130 C   0  0  0  0  0  2  0  0  0  0  0  0
  187.4520  178.2580  140.0510 C   0  0  0  0  0  2  0  0  0  0  0  0
  188.7200  177.4330  140.1010 C   0  0  2  0  0  3  0  0  0  0  0  0
  190.5700  177.0800  141.6990 C   0  0  0  0  0  2  0  0  0  0  0  0
  188.2670  178.1880  142.2790 C   0  0  1  0  0  3  0  0  0  0  0  0
  187.1670  178.7050  141.4240 N   0  0  2  0  0  0  0  0  0  0  0  0
  191.5770  177.1010  140.5440 C   0  0  0  0  0  2  0  0  0  0  0  0
  184.7690  179.0150  141.0560 C   0  0  1  0  0  3  0  0  0  0  0  0
  185.0800  179.3580  142.4970 C   0  0  0  0  0  2  0  0  0  0  0  0
  185.8350  178.2370  141.8120 C   0  0  2  0  0  3  0  0  0  0  0  0
  183.4920  178.1940  140.9950 C   0  0  0  0  0  2  0  0  0  0  0  0
  182.4460  178.8650  140.0990 C   0  0  2  0  0  3  0  0  0  0  0  0
  181.2300  179.4020  140.8700 C   0  0  1  0  0  3  0  0  0  0  0  0
  180.0660  179.7810  139.9570 C   0  0  0  0  0  2  0  0  0  0  0  0
  180.2150  181.2090  139.4660 C   0  0  0  0  0  2  0  0  0  0  0  0
  180.4490  181.2060  137.9700 C   0  0  0  0  0  1  0  0  0  0  0  0
  180.7800  178.3990  141.9210 C   0  0  0  0  0  2  0  0  0  0  0  0
  181.9300  179.6980  143.5460 F   0  0  0  0  0  0  0  0  0  0  0  0
  180.7410  179.0370  143.2990 C   0  0  0  0  0  2  0  0  0  0  0  0
  182.0390  177.9810  139.0970 O   0  0  0  0  0  0  0  0  0  0  0  0
  182.6170  176.7560  139.4400 C   0  0  0  0  0  2  0  0  0  0  0  0
  181.6980  175.6430  139.0700 C   0  0  0  0  0  0  0  0  0  0  0  0
  181.0670  173.8970  137.5650 N   0  0  0  0  0  0  0  0  0  0  0  0
  179.6970  174.3460  139.4720 C   0  0  0  0  0  3  0  0  0  0  0  0
  179.9680  173.6100  138.3150 C   0  0  0  0  0  3  0  0  0  0  0  0
  180.5700  175.3690  139.8490 C   0  0  0  0  0  3  0  0  0  0  0  0
  181.9270  174.8930  137.9130 C   0  0  0  0  0  3  0  0  0  0  0  0
  187.9370  176.8750  143.0170 C   0  0  0  0  0  2  0  0  0  0  0  0
  189.6390  176.9800  147.1090 C   0  0  0  0  0  2  0  0  0  0  0  0
  187.6090  178.4730  147.6410 C   0  0  2  0  0  3  0  0  0  0  0  0
  189.1040  178.1900  147.8780 C   0  0  1  0  0  3  0  0  0  0  0  0
  187.1790  177.1570  144.2760 C   0  0  0  0  0  3  0  0  0  0  0  0
  189.2580  177.0470  145.6340 C   0  0  0  0  0  2  0  0  0  0  0  0
  187.7720  177.2460  145.4700 C   0  0  0  0  0  0  0  0  0  0  0  0
  188.0660  177.7310  148.8810 C   0  0  0  0  0  2  0  0  0  0  0  0
  186.9240  177.4940  146.6820 C   0  0  0  0  0  2  0  0  0  0  0  0
  1  4  1  0  0  0  0
  1  5  1  0  0  0  0
  2 11  1  1  0  0  0
  2 12  1  0  0  0  0
  3  7  1  6  0  0  0
  3 14  1  0  0  0  0
  4  8  1  0  0  0  0
  5  7  1  0  0  0  0
  6  8  1  6  0  0  0
  6  3  1  0  0  0  0
  6 10  1  0  0  0  0
 10  9  1  6  0  0  0
 10  2  1  0  0  0  0
 12 35  1  6  0  0  0
 13  9  1  6  0  0  0
 13 17  1  0  0  0  0
 13 12  1  0  0  0  0
 14 11  1  0  0  0  0
 15 18  1  1  0  0  0
 15 17  1  0  0  0  0
 15 16  1  0  0  0  0
 17 16  1  1  0  0  0
 19 20  1  0  0  0  0
 19 18  1  1  0  0  0
 20 21  1  6  0  0  0
 20 24  1  0  0  0  0
 22 21  1  0  0  0  0
 23 22  1  0  0  0  0
 24 26  1  0  0  0  0
 26 25  1  0  0  0  0
 27 28  1  0  0  0  0
 27 19  1  0  0  0  0
 29 28  1  0  0  0  0
 29 33  1  0  0  0  0
 30 34  1  0  0  0  0
 30 32  2  0  0  0  0
 31 33  2  0  0  0  0
 32 31  1  0  0  0  0
 34 29  2  0  0  0  0
 35 39  1  0  0  0  0
 37 43  1  6  0  0  0
 37 38  1  0  0  0  0
 37 42  1  0  0  0  0
 38 36  1  6  0  0  0
 38 42  1  0  0  0  0
 39 41  2  0  0  0  0
 40 36  1  0  0  0  0
 41 40  1  0  0  0  0
 41 43  1  0  0  0  0
M  END
>  <MODEL>
4

>  <REMARK>
 VINA RESULT:      -7.7      2.208      3.726
  Name = 
  13 active torsions:
  status: ('A' for Active; 'I' for Inactive)
    1  A    between atoms: C_1  and  C_28
    2  A    between atoms: C_1  and  C_34
    3  A    between atoms: C_2  and  C_6
    4  A    between atoms: C_3  and  C_4
    5  A    between atoms: C_3  and  C_12
    6  A    between atoms: C_4  and  C_15
    7  A    between atoms: C_4  and  C_22
    8  A    between atoms: C_6  and  C_22
    9  A    between atoms: C_11  and  C_14
   10  A    between atoms: C_13  and  N_38
   11  A    between atoms: C_14  and  O_41
   12  A    between atoms: C_15  and  C_42
   13  A    between atoms: C_22  and  O_41
                            x       y       z     vdW  Elec       q    Type
                         _______ _______ _______ _____ _____    ______ ____

>  <TORSDO>
F 13

$$$$
=
 OpenBabel10262422313D

 43 49  0  0  1  0  0  0  0  0999 V2000
  189.4590  175.4690  135.5140 N   0  0  0  0  0  2  0  0  0  0  0  0
  189.4540  177.9230  140.5120 C   0  0  2  0  0  3  0  0  0  0  0  0
  190.4700  176.3810  138.2830 C   0  0  1  0  0  3  0  0  0  0  0  0
  188.4410  175.3120  136.5420 C   0  0  0  0  0  2  0  0  0  0  0  0
  190.7570  175.1890  136.1110 C   0  0  0  0  0  2  0  0  0  0  0  0
  189.1490  177.1940  138.1810 C   0  0  1  0  0  3  0  0  0  0  0  0
  191.2250  176.3600  136.9630 C   0  0  0  0  0  2  0  0  0  0  0  0
  188.1210  176.6710  137.1560 C   0  0  0  0  0  2  0  0  0  0  0  0
  187.2580  178.0770  139.7130 C   0  0  0  0  0  2  0  0  0  0  0  0
  188.5140  177.2470  139.5670 C   0  0  2  0  0  3  0  0  0  0  0  0
  190.6860  177.0580  140.7290 C   0  0  0  0  0  2  0  0  0  0  0  0
  188.5620  178.2580  141.6870 C   0  0  1  0  0  3  0  0  0  0  0  0
  187.2890  178.6860  141.0530 N   0  0  2  0  0  0  0  0  0  0  0  0
  191.4010  176.9290  139.3790 C   0  0  0  0  0  2  0  0  0  0  0  0
  184.8730  179.0220  141.2420 C   0  0  1  0  0  3  0  0  0  0  0  0
  185.5230  179.4790  142.5310 C   0  0  0  0  0  2  0  0  0  0  0  0
  186.0870  178.2850  141.7870 C   0  0  2  0  0  3  0  0  0  0  0  0
  183.6170  178.2290  141.5620 C   0  0  0  0  0  2  0  0  0  0  0  0
  182.7600  178.0250  140.3090 C   0  0  2  0  0  3  0  0  0  0  0  0
  181.4220  178.7800  140.3490 C   0  0  1  0  0  3  0  0  0  0  0  0
  181.0210  179.2090  141.7580 C   0  0  0  0  0  2  0  0  0  0  0  0
  179.9840  178.2620  142.3310 C   0  0  0  0  0  2  0  0  0  0  0  0
  180.0330  178.3140  143.8430 C   0  0  0  0  0  1  0  0  0  0  0  0
  181.4600  179.9800  139.4150 C   0  0  0  0  0  2  0  0  0  0  0  0
  180.8730  178.5010  137.6490 F   0  0  0  0  0  0  0  0  0  0  0  0
  181.7150  179.5460  137.9820 C   0  0  0  0  0  2  0  0  0  0  0  0
  182.5460  176.6620  140.0940 O   0  0  0  0  0  0  0  0  0  0  0  0
  183.1680  176.3870  138.8730 C   0  0  0  0  0  2  0  0  0  0  0  0
  182.3130  175.4710  138.0660 C   0  0  0  0  0  0  0  0  0  0  0  0
  180.3060  174.1960  137.8230 N   0  0  0  0  0  0  0  0  0  0  0  0
  181.9700  174.0930  136.1090 C   0  0  0  0  0  3  0  0  0  0  0  0
  180.7270  173.7130  136.6220 C   0  0  0  0  0  3  0  0  0  0  0  0
  182.7660  174.9780  136.8400 C   0  0  0  0  0  3  0  0  0  0  0  0
  181.0690  175.0560  138.5510 C   0  0  0  0  0  3  0  0  0  0  0  0
  188.4290  177.0460  142.6300 C   0  0  0  0  0  2  0  0  0  0  0  0
  186.9530  178.1360  146.6660 C   0  0  0  0  0  2  0  0  0  0  0  0
  189.1340  177.0380  147.4830 C   0  0  2  0  0  3  0  0  0  0  0  0
  187.6340  177.2760  147.7330 C   0  0  1  0  0  3  0  0  0  0  0  0
  189.2720  177.2360  143.8520 C   0  0  0  0  0  3  0  0  0  0  0  0
  187.2630  177.6270  145.2610 C   0  0  0  0  0  2  0  0  0  0  0  0
  188.7500  177.4910  145.0550 C   0  0  0  0  0  0  0  0  0  0  0  0
  188.6750  178.1040  148.4580 C   0  0  0  0  0  2  0  0  0  0  0  0
  189.6780  177.7040  146.2140 C   0  0  0  0  0  2  0  0  0  0  0  0
  1  5  1  0  0  0  0
  1  4  1  0  0  0  0
  2 11  1  1  0  0  0
  2 12  1  0  0  0  0
  3  7  1  6  0  0  0
  3 14  1  0  0  0  0
  4  8  1  0  0  0  0
  5  7  1  0  0  0  0
  6  8  1  6  0  0  0
  6  3  1  0  0  0  0
  6 10  1  0  0  0  0
 10  9  1  6  0  0  0
 10  2  1  0  0  0  0
 12 35  1  1  0  0  0
 13  9  1  6  0  0  0
 13 12  1  0  0  0  0
 13 17  1  0  0  0  0
 14 11  1  0  0  0  0
 15 18  1  1  0  0  0
 15 17  1  0  0  0  0
 15 16  1  0  0  0  0
 17 16  1  1  0  0  0
 19 20  1  0  0  0  0
 19 18  1  1  0  0  0
 20 24  1  6  0  0  0
 20 21  1  0  0  0  0
 21 22  1  0  0  0  0
 22 23  1  0  0  0  0
 25 26  1  0  0  0  0
 26 24  1  0  0  0  0
 27 19  1  0  0  0  0
 28 27  1  0  0  0  0
 29 34  1  0  0  0  0
 29 28  1  0  0  0  0
 30 34  2  0  0  0  0
 31 32  2  0  0  0  0
 31 33  1  0  0  0  0
 32 30  1  0  0  0  0
 33 29  2  0  0  0  0
 35 39  1  0  0  0  0
 37 43  1  6  0  0  0
 37 38  1  0  0  0  0
 37 42  1  0  0  0  0
 38 36  1  6  0  0  0
 38 42  1  0  0  0  0
 39 41  2  0  0  0  0
 40 36  1  0  0  0  0
 41 40  1  0  0  0  0
 41 43  1  0  0  0  0
M  END
>  <MODEL>
5

>  <REMARK>
 VINA RESULT:      -7.7      1.966      3.140
  Name = 
  13 active torsions:
  status: ('A' for Active; 'I' for Inactive)
    1  A    between atoms: C_1  and  C_28
    2  A    between atoms: C_1  and  C_34
    3  A    between atoms: C_2  and  C_6
    4  A    between atoms: C_3  and  C_4
    5  A    between atoms: C_3  and  C_12
    6  A    between atoms: C_4  and  C_15
    7  A    between atoms: C_4  and  C_22
    8  A    between atoms: C_6  and  C_22
    9  A    between atoms: C_11  and  C_14
   10  A    between atoms: C_13  and  N_38
   11  A    between atoms: C_14  and  O_41
   12  A    between atoms: C_15  and  C_42
   13  A    between atoms: C_22  and  O_41
                            x       y       z     vdW  Elec       q    Type
                         _______ _______ _______ _____ _____    ______ ____

>  <TORSDO>
F 13

$$$$
=
 OpenBabel10262422313D

 43 49  0  0  1  0  0  0  0  0999 V2000
  187.9780  178.1880  148.9270 N   0  0  0  0  0  2  0  0  0  0  0  0
  187.5530  177.1690  143.4700 C   0  0  2  0  0  3  0  0  0  0  0  0
  188.8380  177.5340  146.0370 C   0  0  1  0  0  3  0  0  0  0  0  0
  187.2860  179.0200  147.9540 C   0  0  0  0  0  2  0  0  0  0  0  0
  189.3310  177.9530  148.4460 C   0  0  0  0  0  2  0  0  0  0  0  0
  187.2930  177.4310  145.9040 C   0  0  1  0  0  3  0  0  0  0  0  0
  189.3380  176.9150  147.3340 C   0  0  0  0  0  2  0  0  0  0  0  0
  186.4790  178.1370  147.0090 C   0  0  0  0  0  2  0  0  0  0  0  0
  185.4330  177.8870  144.1610 C   0  0  0  0  0  2  0  0  0  0  0  0
  186.8960  177.9820  144.5380 C   0  0  2  0  0  3  0  0  0  0  0  0
  189.0580  177.3830  143.5040 C   0  0  0  0  0  2  0  0  0  0  0  0
  186.7730  177.5520  142.2310 C   0  0  1  0  0  3  0  0  0  0  0  0
  185.3690  177.6400  142.7120 N   0  0  2  0  0  0  0  0  0  0  0  0
  189.5660  176.8680  144.8550 C   0  0  0  0  0  2  0  0  0  0  0  0
  183.2210  178.1700  141.6690 C   0  0  1  0  0  3  0  0  0  0  0  0
  184.3120  178.3450  140.6340 C   0  0  0  0  0  2  0  0  0  0  0  0
  184.5850  178.7030  142.0810 C   0  0  2  0  0  3  0  0  0  0  0  0
  182.2380  179.3240  141.5680 C   0  0  0  0  0  2  0  0  0  0  0  0
  181.0110  178.9330  140.7380 C   0  0  2  0  0  3  0  0  0  0  0  0
  179.7250  179.6580  141.1630 C   0  0  1  0  0  3  0  0  0  0  0  0
  179.7190  180.0480  142.6390 C   0  0  0  0  0  2  0  0  0  0  0  0
  178.9380  179.0380  143.4570 C   0  0  0  0  0  2  0  0  0  0  0  0
  179.8880  178.2710  144.3530 C   0  0  0  0  0  1  0  0  0  0  0  0
  179.4860  180.8780  140.2860 C   0  0  0  0  0  2  0  0  0  0  0  0
  181.3200  181.5470  138.9300 F   0  0  0  0  0  0  0  0  0  0  0  0
  180.2000  180.7370  138.9530 C   0  0  0  0  0  2  0  0  0  0  0  0
  180.8290  177.5490  140.7790 O   0  0  0  0  0  0  0  0  0  0  0  0
  180.3970  177.2030  139.4960 C   0  0  0  0  0  2  0  0  0  0  0  0
  181.5500  176.7160  138.6880 C   0  0  0  0  0  0  0  0  0  0  0  0
  183.3720  175.1970  138.3950 N   0  0  0  0  0  0  0  0  0  0  0  0
  183.0280  176.9330  136.7870 C   0  0  0  0  0  3  0  0  0  0  0  0
  183.7450  175.8240  137.2460 C   0  0  0  0  0  3  0  0  0  0  0  0
  181.9230  177.3790  137.5160 C   0  0  0  0  0  3  0  0  0  0  0  0
  182.3020  175.6190  139.1210 C   0  0  0  0  0  3  0  0  0  0  0  0
  187.3230  178.8580  141.6260 C   0  0  0  0  0  2  0  0  0  0  0  0
  186.8560  177.7760  137.3520 C   0  0  0  0  0  2  0  0  0  0  0  0
  189.2610  178.6680  137.1250 C   0  0  2  0  0  3  0  0  0  0  0  0
  187.8620  178.5470  136.4940 C   0  0  1  0  0  3  0  0  0  0  0  0
  188.4350  178.5650  140.6680 C   0  0  0  0  0  3  0  0  0  0  0  0
  186.8340  178.2980  138.7860 C   0  0  0  0  0  2  0  0  0  0  0  0
  188.2230  178.3180  139.3720 C   0  0  0  0  0  0  0  0  0  0  0  0
  188.9800  177.6150  136.0720 C   0  0  0  0  0  2  0  0  0  0  0  0
  189.3980  177.9960  138.4960 C   0  0  0  0  0  2  0  0  0  0  0  0
  2 11  1  6  0  0  0
  2 10  1  0  0  0  0
  3 14  1  6  0  0  0
  3  7  1  0  0  0  0
  4  1  1  0  0  0  0
  5  1  1  0  0  0  0
  6  3  1  0  0  0  0
  6  8  1  1  0  0  0
  7  5  1  0  0  0  0
  8  4  1  0  0  0  0
 10  9  1  6  0  0  0
 10  6  1  0  0  0  0
 11 14  1  0  0  0  0
 12 35  1  1  0  0  0
 12 13  1  0  0  0  0
 12  2  1  0  0  0  0
 13  9  1  1  0  0  0
 15 18  1  6  0  0  0
 15 17  1  0  0  0  0
 16 15  1  0  0  0  0
 17 16  1  6  0  0  0
 17 13  1  0  0  0  0
 19 27  1  0  0  0  0
 19 20  1  0  0  0  0
 19 18  1  1  0  0  0
 20 24  1  6  0  0  0
 20 21  1  0  0  0  0
 21 22  1  0  0  0  0
 22 23  1  0  0  0  0
 25 26  1  0  0  0  0
 26 24  1  0  0  0  0
 28 27  1  0  0  0  0
 29 34  1  0  0  0  0
 29 28  1  0  0  0  0
 30 34  2  0  0  0  0
 31 32  2  0  0  0  0
 31 33  1  0  0  0  0
 32 30  1  0  0  0  0
 33 29  2  0  0  0  0
 36 40  1  0  0  0  0
 37 42  1  6  0  0  0
 37 43  1  0  0  0  0
 38 42  1  6  0  0  0
 38 37  1  0  0  0  0
 38 36  1  0  0  0  0
 39 35  1  0  0  0  0
 40 41  1  0  0  0  0
 41 39  2  0  0  0  0
 43 41  1  0  0  0  0
M  END
>  <MODEL>
6

>  <REMARK>
 VINA RESULT:      -7.3      2.548      6.880
  Name = 
  13 active torsions:
  status: ('A' for Active; 'I' for Inactive)
    1  A    between atoms: C_1  and  C_28
    2  A    between atoms: C_1  and  C_34
    3  A    between atoms: C_2  and  C_6
    4  A    between atoms: C_3  and  C_4
    5  A    between atoms: C_3  and  C_12
    6  A    between atoms: C_4  and  C_15
    7  A    between atoms: C_4  and  C_22
    8  A    between atoms: C_6  and  C_22
    9  A    between atoms: C_11  and  C_14
   10  A    between atoms: C_13  and  N_38
   11  A    between atoms: C_14  and  O_41
   12  A    between atoms: C_15  and  C_42
   13  A    between atoms: C_22  and  O_41
                            x       y       z     vdW  Elec       q    Type
                         _______ _______ _______ _____ _____    ______ ____

>  <TORSDO>
F 13

$$$$
=
 OpenBabel10262422313D

 43 49  0  0  1  0  0  0  0  0999 V2000
  193.1320  175.2500  147.1040 N   0  0  0  0  0  2  0  0  0  0  0  0
  188.8580  178.2270  145.1370 C   0  0  2  0  0  3  0  0  0  0  0  0
  190.4870  176.8390  147.0850 C   0  0  1  0  0  3  0  0  0  0  0  0
  192.2940  174.8940  145.9680 C   0  0  0  0  0  2  0  0  0  0  0  0
  192.2670  175.5280  148.2410 C   0  0  0  0  0  2  0  0  0  0  0  0
  190.9950  177.1160  145.6430 C   0  0  1  0  0  3  0  0  0  0  0  0
  191.6150  176.8960  148.1040 C   0  0  0  0  0  2  0  0  0  0  0  0
  192.0520  176.1280  145.1060 C   0  0  0  0  0  2  0  0  0  0  0  0
  190.0510  177.4910  143.2610 C   0  0  0  0  0  2  0  0  0  0  0  0
  189.7890  177.1390  144.7100 C   0  0  2  0  0  3  0  0  0  0  0  0
  188.2440  177.8870  146.4870 C   0  0  0  0  0  2  0  0  0  0  0  0
  187.9600  178.3920  143.9310 C   0  0  1  0  0  3  0  0  0  0  0  0
  188.8890  178.2550  142.7790 N   0  0  2  0  0  0  0  0  0  0  0  0
  189.3840  177.8260  147.5090 C   0  0  0  0  0  2  0  0  0  0  0  0
  188.9090  178.1230  140.3370 C   0  0  1  0  0  3  0  0  0  0  0  0
  187.5280  178.5560  140.7810 C   0  0  0  0  0  2  0  0  0  0  0  0
  188.3130  177.5680  141.6210 C   0  0  2  0  0  3  0  0  0  0  0  0
  188.7840  177.0850  139.2340 C   0  0  0  0  0  2  0  0  0  0  0  0
  188.7470  177.7490  137.8530 C   0  0  2  0  0  3  0  0  0  0  0  0
  187.5930  177.2590  136.9650 C   0  0  1  0  0  3  0  0  0  0  0  0
  186.3890  178.1990  136.9790 C   0  0  0  0  0  2  0  0  0  0  0  0
  185.1300  177.4510  137.3730 C   0  0  0  0  0  2  0  0  0  0  0  0
  184.3780  178.2450  138.4200 C   0  0  0  0  0  1  0  0  0  0  0  0
  188.0770  177.0300  135.5410 C   0  0  0  0  0  2  0  0  0  0  0  0
  188.3650  174.8020  136.3180 F   0  0  0  0  0  0  0  0  0  0  0  0
  188.0650  175.5510  135.1950 C   0  0  0  0  0  2  0  0  0  0  0  0
  189.9720  177.5710  137.2060 O   0  0  0  0  0  0  0  0  0  0  0  0
  190.7370  176.8010  138.0870 C   0  0  0  0  0  2  0  0  0  0  0  0
  191.9690  176.3230  137.3990 C   0  0  0  0  0  0  0  0  0  0  0  0
  194.3060  175.8280  137.4540 N   0  0  0  0  0  0  0  0  0  0  0  0
  193.1100  175.5870  135.3980 C   0  0  0  0  0  3  0  0  0  0  0  0
  194.2960  175.5020  136.1320 C   0  0  0  0  0  3  0  0  0  0  0  0
  191.9400  176.0010  136.0390 C   0  0  0  0  0  3  0  0  0  0  0  0
  193.1780  176.2370  138.0950 C   0  0  0  0  0  3  0  0  0  0  0  0
  186.8200  177.3560  143.9560 C   0  0  0  0  0  2  0  0  0  0  0  0
  183.3230  179.0050  141.7870 C   0  0  0  0  0  2  0  0  0  0  0  0
  182.0500  178.4940  143.9660 C   0  0  2  0  0  3  0  0  0  0  0  0
  182.0210  178.5190  142.4270 C   0  0  1  0  0  3  0  0  0  0  0  0
  185.5930  177.9400  144.5840 C   0  0  0  0  0  3  0  0  0  0  0  0
  184.5320  178.2720  142.3610 C   0  0  0  0  0  2  0  0  0  0  0  0
  184.5430  178.3520  143.8670 C   0  0  0  0  0  0  0  0  0  0  0  0
  181.4020  179.6470  143.2270 C   0  0  0  0  0  2  0  0  0  0  0  0
  183.3740  178.9600  144.5820 C   0  0  0  0  0  2  0  0  0  0  0  0
  1  5  1  0  0  0  0
  2 11  1  1  0  0  0
  3 14  1  1  0  0  0
  3  7  1  0  0  0  0
  4  1  1  0  0  0  0
  6  8  1  6  0  0  0
  6  3  1  0  0  0  0
  7  5  1  0  0  0  0
  8  4  1  0  0  0  0
 10  9  1  6  0  0  0
 10  2  1  0  0  0  0
 10  6  1  0  0  0  0
 11 14  1  0  0  0  0
 12 35  1  6  0  0  0
 12  2  1  0  0  0  0
 13  9  1  1  0  0  0
 13 12  1  0  0  0  0
 15 18  1  6  0  0  0
 15 16  1  0  0  0  0
 15 17  1  0  0  0  0
 17 16  1  6  0  0  0
 17 13  1  0  0  0  0
 19 18  1  1  0  0  0
 20 24  1  6  0  0  0
 20 21  1  0  0  0  0
 20 19  1  0  0  0  0
 21 22  1  0  0  0  0
 22 23  1  0  0  0  0
 26 24  1  0  0  0  0
 26 25  1  0  0  0  0
 27 19  1  0  0  0  0
 27 28  1  0  0  0  0
 29 28  1  0  0  0  0
 29 34  1  0  0  0  0
 30 34  2  0  0  0  0
 31 33  1  0  0  0  0
 31 32  2  0  0  0  0
 32 30  1  0  0  0  0
 33 29  2  0  0  0  0
 35 39  1  0  0  0  0
 36 40  1  0  0  0  0
 37 42  1  1  0  0  0
 37 43  1  0  0  0  0
 38 36  1  6  0  0  0
 38 42  1  0  0  0  0
 38 37  1  0  0  0  0
 40 41  1  0  0  0  0
 41 43  1  0  0  0  0
 41 39  2  0  0  0  0
M  END
>  <MODEL>
7

>  <REMARK>
 VINA RESULT:      -7.3      3.293      7.924
  Name = 
  13 active torsions:
  status: ('A' for Active; 'I' for Inactive)
    1  A    between atoms: C_1  and  C_28
    2  A    between atoms: C_1  and  C_34
    3  A    between atoms: C_2  and  C_6
    4  A    between atoms: C_3  and  C_4
    5  A    between atoms: C_3  and  C_12
    6  A    between atoms: C_4  and  C_15
    7  A    between atoms: C_4  and  C_22
    8  A    between atoms: C_6  and  C_22
    9  A    between atoms: C_11  and  C_14
   10  A    between atoms: C_13  and  N_38
   11  A    between atoms: C_14  and  O_41
   12  A    between atoms: C_15  and  C_42
   13  A    between atoms: C_22  and  O_41
                            x       y       z     vdW  Elec       q    Type
                         _______ _______ _______ _____ _____    ______ ____

>  <TORSDO>
F 13

$$$$
=
 OpenBabel10262422313D

 43 49  0  0  1  0  0  0  0  0999 V2000
  190.7510  176.0670  136.3180 N   0  0  0  0  0  2  0  0  0  0  0  0
  189.2640  178.0660  141.2980 C   0  0  2  0  0  3  0  0  0  0  0  0
  190.9180  176.7460  139.3230 C   0  0  1  0  0  3  0  0  0  0  0  0
  189.4950  175.8020  137.0050 C   0  0  0  0  0  2  0  0  0  0  0  0
  191.8430  175.7570  137.2290 C   0  0  0  0  0  2  0  0  0  0  0  0
  189.6440  177.5420  138.9230 C   0  0  1  0  0  3  0  0  0  0  0  0
  192.0090  176.8550  138.2690 C   0  0  0  0  0  2  0  0  0  0  0  0
  188.9630  177.0950  137.6130 C   0  0  0  0  0  2  0  0  0  0  0  0
  187.3690  178.2530  139.9330 C   0  0  0  0  0  2  0  0  0  0  0  0
  188.6500  177.4600  140.0770 C   0  0  2  0  0  3  0  0  0  0  0  0
  190.4220  177.2070  141.7790 C   0  0  0  0  0  2  0  0  0  0  0  0
  188.0690  178.2800  142.2010 C   0  0  1  0  0  3  0  0  0  0  0  0
  187.0030  178.7410  141.2730 N   0  0  2  0  0  0  0  0  0  0  0  0
  191.4870  177.2100  140.6770 C   0  0  0  0  0  2  0  0  0  0  0  0
  184.6200  178.9960  140.7850 C   0  0  1  0  0  3  0  0  0  0  0  0
  184.8560  179.3770  142.2310 C   0  0  0  0  0  2  0  0  0  0  0  0
  185.6630  178.2560  141.6080 C   0  0  2  0  0  3  0  0  0  0  0  0
  183.3630  178.1480  140.6850 C   0  0  0  0  0  2  0  0  0  0  0  0
  182.5070  178.5710  139.4870 C   0  0  2  0  0  3  0  0  0  0  0  0
  182.9130  177.8930  138.1700 C   0  0  1  0  0  3  0  0  0  0  0  0
  184.3210  177.3030  138.2110 C   0  0  0  0  0  2  0  0  0  0  0  0
  184.5500  176.3820  137.0280 C   0  0  0  0  0  2  0  0  0  0  0  0
  185.5260  177.0270  136.0670 C   0  0  0  0  0  1  0  0  0  0  0  0
  181.8980  176.8270  137.7840 C   0  0  0  0  0  2  0  0  0  0  0  0
  181.5570  175.3270  139.5960 F   0  0  0  0  0  0  0  0  0  0  0  0
  181.0330  176.4440  138.9730 C   0  0  0  0  0  2  0  0  0  0  0  0
  182.5320  179.9610  139.3500 O   0  0  0  0  0  0  0  0  0  0  0  0
  181.1900  180.3360  139.2310 C   0  0  0  0  0  2  0  0  0  0  0  0
  181.0370  181.3170  138.1200 C   0  0  0  0  0  0  0  0  0  0  0  0
  180.4640  181.7940  135.8500 N   0  0  0  0  0  0  0  0  0  0  0  0
  181.2840  183.5560  137.2430 C   0  0  0  0  0  3  0  0  0  0  0  0
  180.8050  183.1020  136.0110 C   0  0  0  0  0  3  0  0  0  0  0  0
  181.4000  182.6540  138.3030 C   0  0  0  0  0  3  0  0  0  0  0  0
  180.5740  180.9000  136.8690 C   0  0  0  0  0  3  0  0  0  0  0  0
  187.7300  176.9860  142.9680 C   0  0  0  0  0  2  0  0  0  0  0  0
  189.5140  177.0220  147.0260 C   0  0  0  0  0  2  0  0  0  0  0  0
  187.5640  178.6060  147.5930 C   0  0  2  0  0  3  0  0  0  0  0  0
  189.0490  178.2570  147.8020 C   0  0  1  0  0  3  0  0  0  0  0  0
  187.0100  177.3050  144.2400 C   0  0  0  0  0  3  0  0  0  0  0  0
  189.1080  177.1030  145.5580 C   0  0  0  0  0  2  0  0  0  0  0  0
  187.6300  177.3690  145.4230 C   0  0  0  0  0  0  0  0  0  0  0  0
  188.0110  177.8470  148.8260 C   0  0  0  0  0  2  0  0  0  0  0  0
  186.8170  177.6580  146.6500 C   0  0  0  0  0  2  0  0  0  0  0  0
  1  4  1  0  0  0  0
  1  5  1  0  0  0  0
  2 11  1  1  0  0  0
  2 12  1  0  0  0  0
  3  7  1  6  0  0  0
  3 14  1  0  0  0  0
  4  8  1  0  0  0  0
  5  7  1  0  0  0  0
  6  8  1  6  0  0  0
  6  3  1  0  0  0  0
  6 10  1  0  0  0  0
 10  9  1  6  0  0  0
 10  2  1  0  0  0  0
 12 35  1  6  0  0  0
 13  9  1  6  0  0  0
 13 17  1  0  0  0  0
 13 12  1  0  0  0  0
 14 11  1  0  0  0  0
 15 18  1  1  0  0  0
 15 17  1  0  0  0  0
 15 16  1  0  0  0  0
 17 16  1  1  0  0  0
 19 18  1  1  0  0  0
 20 24  1  1  0  0  0
 20 21  1  0  0  0  0
 20 19  1  0  0  0  0
 22 21  1  0  0  0  0
 23 22  1  0  0  0  0
 24 26  1  0  0  0  0
 26 25  1  0  0  0  0
 27 19  1  0  0  0  0
 28 27  1  0  0  0  0
 29 33  1  0  0  0  0
 29 28  1  0  0  0  0
 30 32  2  0  0  0  0
 30 34  1  0  0  0  0
 31 33  2  0  0  0  0
 32 31  1  0  0  0  0
 34 29  2  0  0  0  0
 35 39  1  0  0  0  0
 37 43  1  6  0  0  0
 37 38  1  0  0  0  0
 37 42  1  0  0  0  0
 38 36  1  6  0  0  0
 38 42  1  0  0  0  0
 39 41  2  0  0  0  0
 40 36  1  0  0  0  0
 41 40  1  0  0  0  0
 41 43  1  0  0  0  0
M  END
>  <MODEL>
8

>  <REMARK>
 VINA RESULT:      -7.3      1.143      2.045
  Name = 
  13 active torsions:
  status: ('A' for Active; 'I' for Inactive)
    1  A    between atoms: C_1  and  C_28
    2  A    between atoms: C_1  and  C_34
    3  A    between atoms: C_2  and  C_6
    4  A    between atoms: C_3  and  C_4
    5  A    between atoms: C_3  and  C_12
    6  A    between atoms: C_4  and  C_15
    7  A    between atoms: C_4  and  C_22
    8  A    between atoms: C_6  and  C_22
    9  A    between atoms: C_11  and  C_14
   10  A    between atoms: C_13  and  N_38
   11  A    between atoms: C_14  and  O_41
   12  A    between atoms: C_15  and  C_42
   13  A    between atoms: C_22  and  O_41
                            x       y       z     vdW  Elec       q    Type
                         _______ _______ _______ _____ _____    ______ ____

>  <TORSDO>
F 13

$$$$
=
 OpenBabel10262422313D

 43 49  0  0  1  0  0  0  0  0999 V2000
  187.8750  177.8290  146.8630 N   0  0  0  0  0  2  0  0  0  0  0  0
  184.3940  179.0570  142.6940 C   0  0  2  0  0  3  0  0  0  0  0  0
  185.2300  178.4410  145.3960 C   0  0  1  0  0  3  0  0  0  0  0  0
  187.7870  177.1300  145.5900 C   0  0  0  0  0  2  0  0  0  0  0  0
  186.5420  177.8880  147.4440 C   0  0  0  0  0  2  0  0  0  0  0  0
  186.2580  178.7620  144.2750 C   0  0  1  0  0  3  0  0  0  0  0  0
  185.6960  178.9480  146.7530 C   0  0  0  0  0  2  0  0  0  0  0  0
  187.6600  178.1440  144.4580 C   0  0  0  0  0  2  0  0  0  0  0  0
  186.4690  178.6200  141.6980 C   0  0  0  0  0  2  0  0  0  0  0  0
  185.6650  178.3120  142.9430 C   0  0  2  0  0  3  0  0  0  0  0  0
  183.3370  178.6350  143.7030 C   0  0  0  0  0  2  0  0  0  0  0  0
  184.1530  178.8220  141.2190 C   0  0  1  0  0  3  0  0  0  0  0  0
  185.5100  178.9150  140.6210 N   0  0  2  0  0  0  0  0  0  0  0  0
  183.8420  179.0350  145.0940 C   0  0  0  0  0  2  0  0  0  0  0  0
  186.7620  178.5760  138.5470 C   0  0  1  0  0  3  0  0  0  0  0  0
  185.2870  178.6280  138.2120 C   0  0  0  0  0  2  0  0  0  0  0  0
  185.7410  177.9900  139.5100 C   0  0  2  0  0  3  0  0  0  0  0  0
  187.4190  177.4530  137.7640 C   0  0  0  0  0  2  0  0  0  0  0  0
  188.8940  177.2990  138.1510 C   0  0  2  0  0  3  0  0  0  0  0  0
  189.6880  176.3900  137.2000 C   0  0  1  0  0  3  0  0  0  0  0  0
  190.8330  175.6560  137.8950 C   0  0  0  0  0  2  0  0  0  0  0  0
  192.1480  176.3780  137.6660 C   0  0  0  0  0  2  0  0  0  0  0  0
  193.2970  175.4300  137.9360 C   0  0  0  0  0  1  0  0  0  0  0  0
  188.7610  175.4020  136.5080 C   0  0  0  0  0  2  0  0  0  0  0  0
  189.3360  176.7510  134.6380 F   0  0  0  0  0  0  0  0  0  0  0  0
  188.9040  175.4890  134.9990 C   0  0  0  0  0  2  0  0  0  0  0  0
  188.9960  176.8390  139.4660 O   0  0  0  0  0  0  0  0  0  0  0  0
  189.6840  177.8470  140.1480 C   0  0  0  0  0  2  0  0  0  0  0  0
  190.2270  177.3100  141.4270 C   0  0  0  0  0  0  0  0  0  0  0  0
  191.8760  177.3640  143.1570 N   0  0  0  0  0  0  0  0  0  0  0  0
  190.1730  175.6870  143.2190 C   0  0  0  0  0  3  0  0  0  0  0  0
  191.3060  176.2920  143.7710 C   0  0  0  0  0  3  0  0  0  0  0  0
  189.6330  176.2020  142.0380 C   0  0  0  0  0  3  0  0  0  0  0  0
  191.3670  177.8780  142.0040 C   0  0  0  0  0  3  0  0  0  0  0  0
  183.4480  177.4700  140.9930 C   0  0  0  0  0  2  0  0  0  0  0  0
  182.1550  175.0290  137.5250 C   0  0  0  0  0  2  0  0  0  0  0  0
  179.7940  175.8420  138.1560 C   0  0  2  0  0  3  0  0  0  0  0  0
  180.6680  174.6850  137.6410 C   0  0  1  0  0  3  0  0  0  0  0  0
  182.1890  177.6600  140.2060 C   0  0  0  0  0  3  0  0  0  0  0  0
  182.6790  175.6630  138.8100 C   0  0  0  0  0  2  0  0  0  0  0  0
  181.8260  176.8380  139.2170 C   0  0  0  0  0  0  0  0  0  0  0  0
  179.8760  175.5400  136.6730 C   0  0  0  0  0  2  0  0  0  0  0  0
  180.5650  177.1320  138.4600 C   0  0  0  0  0  2  0  0  0  0  0  0
  1  5  1  0  0  0  0
  2 10  1  0  0  0  0
  2 11  1  1  0  0  0
  3 14  1  6  0  0  0
  3  7  1  0  0  0  0
  4  1  1  0  0  0  0
  6  8  1  1  0  0  0
  6  3  1  0  0  0  0
  7  5  1  0  0  0  0
  8  4  1  0  0  0  0
 10  9  1  6  0  0  0
 10  6  1  0  0  0  0
 11 14  1  0  0  0  0
 12 35  1  1  0  0  0
 12  2  1  0  0  0  0
 13 12  1  0  0  0  0
 13  9  1  1  0  0  0
 15 18  1  6  0  0  0
 15 17  1  0  0  0  0
 16 15  1  0  0  0  0
 17 16  1  6  0  0  0
 17 13  1  0  0  0  0
 19 18  1  6  0  0  0
 19 27  1  0  0  0  0
 20 24  1  1  0  0  0
 20 21  1  0  0  0  0
 20 19  1  0  0  0  0
 22 21  1  0  0  0  0
 22 23  1  0  0  0  0
 25 26  1  0  0  0  0
 26 24  1  0  0  0  0
 27 28  1  0  0  0  0
 28 29  1  0  0  0  0
 29 34  2  0  0  0  0
 29 33  1  0  0  0  0
 30 32  2  0  0  0  0
 31 32  1  0  0  0  0
 33 31  2  0  0  0  0
 34 30  1  0  0  0  0
 36 38  1  0  0  0  0
 36 40  1  0  0  0  0
 37 42  1  6  0  0  0
 37 43  1  0  0  0  0
 38 42  1  6  0  0  0
 38 37  1  0  0  0  0
 39 35  1  0  0  0  0
 40 41  1  0  0  0  0
 41 39  2  0  0  0  0
 43 41  1  0  0  0  0
M  END
>  <MODEL>
9

>  <REMARK>
 VINA RESULT:      -7.0      2.873      9.200
  Name = 
  13 active torsions:
  status: ('A' for Active; 'I' for Inactive)
    1  A    between atoms: C_1  and  C_28
    2  A    between atoms: C_1  and  C_34
    3  A    between atoms: C_2  and  C_6
    4  A    between atoms: C_3  and  C_4
    5  A    between atoms: C_3  and  C_12
    6  A    between atoms: C_4  and  C_15
    7  A    between atoms: C_4  and  C_22
    8  A    between atoms: C_6  and  C_22
    9  A    between atoms: C_11  and  C_14
   10  A    between atoms: C_13  and  N_38
   11  A    between atoms: C_14  and  O_41
   12  A    between atoms: C_15  and  C_42
   13  A    between atoms: C_22  and  O_41
                            x       y       z     vdW  Elec       q    Type
                         _______ _______ _______ _____ _____    ______ ____

>  <TORSDO>
F 13

$$$$
