=
 OpenBabel10252415083D

 34 38  0  0  1  0  0  0  0  0999 V2000
  188.3120  178.5670  140.8390 C   0  0  2  0  0  3  0  0  0  0  0  0
  189.9270  176.7890  140.5350 C   0  0  0  0  0  0  0  0  0  0  0  0
  188.4710  178.4430  139.0290 S   0  0  0  0  0  0  0  0  0  0  0  0
  190.7090  175.9100  140.8650 O   0  0  0  0  0  0  0  0  0  0  0  0
  189.9190  177.3460  139.1550 C   0  0  2  0  0  3  0  0  0  0  0  0
  188.9120  177.3310  141.4830 C   0  0  1  0  0  3  0  0  0  0  0  0
  189.2780  178.0000  145.2240 C   0  0  0  0  0  0  0  0  0  0  0  0
  187.3920  177.1190  143.9680 C   0  0  0  0  0  3  0  0  0  0  0  0
  189.4930  177.6840  142.8260 C   0  0  0  0  0  0  0  0  0  0  0  0
  187.2020  177.4720  146.3560 C   0  0  0  0  0  3  0  0  0  0  0  0
  186.6400  177.0640  145.1430 C   0  0  0  0  0  3  0  0  0  0  0  0
  188.7140  177.5920  143.9950 C   0  0  0  0  0  0  0  0  0  0  0  0
  188.5200  177.9360  146.3970 C   0  0  0  0  0  3  0  0  0  0  0  0
  191.3180  178.5660  144.0820 C   0  0  0  0  0  3  0  0  0  0  0  0
  190.5840  178.4860  145.2650 C   0  0  0  0  0  3  0  0  0  0  0  0
  190.7630  178.1770  142.9040 N   0  0  0  0  0  0  0  0  0  0  0  0
  189.7880  176.2660  138.1890 N   0  0  0  0  0  2  0  0  0  0  0  0
  188.4230  176.3040  137.6910 C   0  0  0  0  0  2  0  0  0  0  0  0
  188.0960  174.9810  137.0150 C   0  0  2  0  0  3  0  0  0  0  0  0
  186.8780  176.4560  135.5030 O   0  0  0  0  0  1  0  0  0  0  0  0
  187.2060  175.1230  135.7760 C   0  0  2  0  0  3  0  0  0  0  0  0
  186.6060  174.7170  137.1080 C   0  0  1  0  0  3  0  0  0  0  0  0
  185.4650  172.8920  138.1280 O   0  0  0  0  0  1  0  0  0  0  0  0
  187.5570  172.5410  137.2940 O   0  0  0  0  0  1  0  0  0  0  0  0
  186.3530  173.2220  137.1030 C   0  0  0  0  0  3  0  0  0  0  0  0
  186.8530  178.6800  141.2300 C   0  0  0  0  0  2  0  0  0  0  0  0
  186.0240  178.8260  140.0380 N   0  0  0  0  0  2  0  0  0  0  0  0
  182.7580  178.9140  138.6770 N   0  0  0  0  0  0  0  0  0  0  0  0
  184.1270  180.7940  138.8260 O   0  0  0  0  0  0  0  0  0  0  0  0
  184.6250  179.0610  140.4130 C   0  0  1  0  0  3  0  0  0  0  0  0
  183.8290  179.6550  139.2740 C   0  0  0  0  0  0  0  0  0  0  0  0
  182.9510  177.2170  140.3890 C   0  0  0  0  0  3  0  0  0  0  0  0
  183.9880  177.8130  140.9800 C   0  0  0  0  0  3  0  0  0  0  0  0
  182.3450  177.7840  139.1710 C   0  0  0  0  0  3  0  0  0  0  0  0
  1 26  1  6  0  0  0
  1  6  1  0  0  0  0
  2  4  2  0  0  0  0
  2  6  1  0  0  0  0
  3  5  1  0  0  0  0
  3  1  1  0  0  0  0
  5 17  1  6  0  0  0
  5  2  1  0  0  0  0
  6  9  1  1  0  0  0
  7 15  1  0  0  0  0
  7 13  2  0  0  0  0
  8 12  2  0  0  0  0
  8 11  1  0  0  0  0
  9 16  2  0  0  0  0
  9 12  1  0  0  0  0
 10 13  1  0  0  0  0
 11 10  2  0  0  0  0
 12  7  1  0  0  0  0
 14 15  2  0  0  0  0
 16 14  1  0  0  0  0
 18 17  1  0  0  0  0
 19 22  1  0  0  0  0
 19 18  1  1  0  0  0
 21 20  1  1  0  0  0
 21 19  1  0  0  0  0
 21 22  1  0  0  0  0
 22 25  1  6  0  0  0
 25 24  1  0  0  0  0
 25 23  1  0  0  0  0
 27 26  1  0  0  0  0
 28 34  2  0  0  0  0
 28 31  1  0  0  0  0
 29 31  2  0  0  0  0
 30 27  1  6  0  0  0
 30 33  1  0  0  0  0
 31 30  1  0  0  0  0
 32 33  2  0  0  0  0
 34 32  1  0  0  0  0
M  END
>  <MODEL>
1

>  <REMARK>
 VINA RESULT:      -8.3      0.000      0.000
  Name = 
  8 active torsions:
  status: ('A' for Active; 'I' for Inactive)
    1  A    between atoms: C_3  and  C_13
    2  A    between atoms: C_3  and  N_17
    3  A    between atoms: C_4  and  C_31
    4  A    between atoms: C_5  and  C_26
    5  A    between atoms: C_12  and  N_28
    6  A    between atoms: N_17  and  C_29
    7  A    between atoms: C_20  and  C_34
    8  A    between atoms: C_26  and  N_28
                            x       y       z     vdW  Elec       q    Type
                         _______ _______ _______ _____ _____    ______ ____

>  <TORSDO>
F 8

$$$$
=
 OpenBabel10252415083D

 34 38  0  0  1  0  0  0  0  0999 V2000
  188.4630  178.4000  141.7660 C   0  0  2  0  0  3  0  0  0  0  0  0
  189.8110  176.4030  142.0070 C   0  0  0  0  0  0  0  0  0  0  0  0
  189.3220  178.2710  140.1640 S   0  0  0  0  0  0  0  0  0  0  0  0
  190.2680  175.4130  142.5580 O   0  0  0  0  0  0  0  0  0  0  0  0
  190.4340  176.9670  140.7790 C   0  0  2  0  0  3  0  0  0  0  0  0
  188.5820  177.0810  142.5080 C   0  0  1  0  0  3  0  0  0  0  0  0
  187.5260  177.9580  146.0710 C   0  0  0  0  0  0  0  0  0  0  0  0
  186.1890  177.7230  144.0540 C   0  0  0  0  0  3  0  0  0  0  0  0
  188.6130  177.3310  143.9920 C   0  0  0  0  0  0  0  0  0  0  0  0
  185.1390  178.3730  146.1370 C   0  0  0  0  0  3  0  0  0  0  0  0
  185.0470  178.0800  144.7740 C   0  0  0  0  0  3  0  0  0  0  0  0
  187.4380  177.6630  144.6920 C   0  0  0  0  0  0  0  0  0  0  0  0
  186.3770  178.3090  146.7860 C   0  0  0  0  0  3  0  0  0  0  0  0
  189.9020  177.5890  145.9830 C   0  0  0  0  0  3  0  0  0  0  0  0
  188.7610  177.9180  146.7150 C   0  0  0  0  0  3  0  0  0  0  0  0
  189.8060  177.3150  144.6550 N   0  0  0  0  0  0  0  0  0  0  0  0
  190.5610  175.9290  139.7690 N   0  0  0  0  0  2  0  0  0  0  0  0
  190.2970  176.5520  138.4820 C   0  0  0  0  0  2  0  0  0  0  0  0
  191.5960  176.6610  137.6980 C   0  0  2  0  0  3  0  0  0  0  0  0
  190.4170  175.1300  136.2110 O   0  0  0  0  0  1  0  0  0  0  0  0
  191.6150  175.8240  136.4150 C   0  0  2  0  0  3  0  0  0  0  0  0
  192.2890  175.3120  137.6740 C   0  0  1  0  0  3  0  0  0  0  0  0
  194.3280  175.7940  138.8060 O   0  0  0  0  0  1  0  0  0  0  0  0
  194.0490  176.5760  136.6820 O   0  0  0  0  0  1  0  0  0  0  0  0
  193.7870  175.5130  137.5500 C   0  0  0  0  0  3  0  0  0  0  0  0
  187.0000  178.7270  141.5510 C   0  0  0  0  0  2  0  0  0  0  0  0
  186.6460  178.5450  140.1470 N   0  0  0  0  0  2  0  0  0  0  0  0
  183.4980  177.3140  139.0960 N   0  0  0  0  0  0  0  0  0  0  0  0
  185.0600  178.2350  137.6310 O   0  0  0  0  0  0  0  0  0  0  0  0
  185.2620  178.9710  139.9090 C   0  0  1  0  0  3  0  0  0  0  0  0
  184.6090  178.1720  138.8060 C   0  0  0  0  0  0  0  0  0  0  0  0
  183.3960  178.1770  141.3530 C   0  0  0  0  0  3  0  0  0  0  0  0
  184.4560  178.9700  141.1870 C   0  0  0  0  0  3  0  0  0  0  0  0
  182.9320  177.2960  140.2660 C   0  0  0  0  0  3  0  0  0  0  0  0
  1 26  1  6  0  0  0
  1  6  1  0  0  0  0
  2  6  1  0  0  0  0
  2  4  2  0  0  0  0
  3  5  1  0  0  0  0
  3  1  1  0  0  0  0
  5 17  1  6  0  0  0
  5  2  1  0  0  0  0
  6  9  1  1  0  0  0
  7 15  1  0  0  0  0
  7 13  2  0  0  0  0
  8 12  2  0  0  0  0
  8 11  1  0  0  0  0
  9 16  2  0  0  0  0
  9 12  1  0  0  0  0
 10 13  1  0  0  0  0
 11 10  2  0  0  0  0
 12  7  1  0  0  0  0
 14 15  2  0  0  0  0
 16 14  1  0  0  0  0
 18 17  1  0  0  0  0
 19 18  1  1  0  0  0
 21 20  1  1  0  0  0
 21 22  1  0  0  0  0
 21 19  1  0  0  0  0
 22 25  1  6  0  0  0
 22 19  1  0  0  0  0
 24 25  1  0  0  0  0
 25 23  1  0  0  0  0
 27 26  1  0  0  0  0
 28 34  2  0  0  0  0
 29 31  2  0  0  0  0
 30 27  1  1  0  0  0
 30 33  1  0  0  0  0
 31 28  1  0  0  0  0
 31 30  1  0  0  0  0
 33 32  2  0  0  0  0
 34 32  1  0  0  0  0
M  END
>  <MODEL>
2

>  <REMARK>
 VINA RESULT:      -8.3      2.333      3.314
  Name = 
  8 active torsions:
  status: ('A' for Active; 'I' for Inactive)
    1  A    between atoms: C_3  and  C_13
    2  A    between atoms: C_3  and  N_17
    3  A    between atoms: C_4  and  C_31
    4  A    between atoms: C_5  and  C_26
    5  A    between atoms: C_12  and  N_28
    6  A    between atoms: N_17  and  C_29
    7  A    between atoms: C_20  and  C_34
    8  A    between atoms: C_26  and  N_28
                            x       y       z     vdW  Elec       q    Type
                         _______ _______ _______ _____ _____    ______ ____

>  <TORSDO>
F 8

$$$$
=
 OpenBabel10252415083D

 34 38  0  0  1  0  0  0  0  0999 V2000
  188.5040  178.3780  142.1060 C   0  0  2  0  0  3  0  0  0  0  0  0
  189.8390  176.3630  142.2510 C   0  0  0  0  0  0  0  0  0  0  0  0
  189.3070  178.2820  140.4740 S   0  0  0  0  0  0  0  0  0  0  0  0
  190.3050  175.3550  142.7610 O   0  0  0  0  0  0  0  0  0  0  0  0
  190.4270  176.9530  141.0180 C   0  0  2  0  0  3  0  0  0  0  0  0
  188.6350  177.0390  142.8100 C   0  0  1  0  0  3  0  0  0  0  0  0
  187.7130  177.8570  146.4240 C   0  0  0  0  0  0  0  0  0  0  0  0
  186.3100  177.7130  144.4440 C   0  0  0  0  0  3  0  0  0  0  0  0
  188.7180  177.2500  144.2990 C   0  0  0  0  0  0  0  0  0  0  0  0
  185.3430  178.3410  146.5740 C   0  0  0  0  0  3  0  0  0  0  0  0
  185.2010  178.0850  145.2070 C   0  0  0  0  0  3  0  0  0  0  0  0
  187.5750  177.5990  145.0410 C   0  0  0  0  0  0  0  0  0  0  0  0
  186.5970  178.2230  147.1820 C   0  0  0  0  0  3  0  0  0  0  0  0
  190.0730  177.4200  146.2540 C   0  0  0  0  0  3  0  0  0  0  0  0
  188.9650  177.7630  147.0290 C   0  0  0  0  0  3  0  0  0  0  0  0
  189.9290  177.1820  144.9240 N   0  0  0  0  0  0  0  0  0  0  0  0
  190.5100  175.9400  139.9770 N   0  0  0  0  0  2  0  0  0  0  0  0
  191.0830  176.5800  138.8040 C   0  0  0  0  0  2  0  0  0  0  0  0
  190.7270  175.7730  137.5650 C   0  0  2  0  0  3  0  0  0  0  0  0
  189.7130  177.8900  136.9050 O   0  0  0  0  0  1  0  0  0  0  0  0
  189.9400  176.5650  136.5170 C   0  0  2  0  0  3  0  0  0  0  0  0
  189.2210  175.6280  137.4680 C   0  0  1  0  0  3  0  0  0  0  0  0
  187.5180  174.0720  136.8740 O   0  0  0  0  0  1  0  0  0  0  0  0
  189.6210  173.2870  137.2710 O   0  0  0  0  0  1  0  0  0  0  0  0
  188.8800  174.3440  136.7370 C   0  0  0  0  0  3  0  0  0  0  0  0
  187.0370  178.7230  141.9500 C   0  0  0  0  0  2  0  0  0  0  0  0
  186.6580  178.6700  140.5410 N   0  0  0  0  0  2  0  0  0  0  0  0
  183.6080  177.6990  139.0310 N   0  0  0  0  0  0  0  0  0  0  0  0
  185.1800  179.0540  137.9700 O   0  0  0  0  0  0  0  0  0  0  0  0
  185.2660  179.1040  140.3700 C   0  0  1  0  0  3  0  0  0  0  0  0
  184.6890  178.6380  139.0540 C   0  0  0  0  0  0  0  0  0  0  0  0
  183.3850  177.8660  141.4330 C   0  0  0  0  0  3  0  0  0  0  0  0
  184.4140  178.7050  141.5540 C   0  0  0  0  0  3  0  0  0  0  0  0
  183.0010  177.3230  140.1170 C   0  0  0  0  0  3  0  0  0  0  0  0
  1 26  1  6  0  0  0
  1  6  1  0  0  0  0
  2  4  2  0  0  0  0
  2  6  1  0  0  0  0
  3  5  1  0  0  0  0
  3  1  1  0  0  0  0
  5 17  1  6  0  0  0
  5  2  1  0  0  0  0
  6  9  1  1  0  0  0
  7 15  1  0  0  0  0
  7 13  2  0  0  0  0
  8 12  2  0  0  0  0
  8 11  1  0  0  0  0
  9 16  2  0  0  0  0
  9 12  1  0  0  0  0
 10 13  1  0  0  0  0
 11 10  2  0  0  0  0
 12  7  1  0  0  0  0
 14 15  2  0  0  0  0
 16 14  1  0  0  0  0
 18 17  1  0  0  0  0
 19 18  1  1  0  0  0
 21 20  1  1  0  0  0
 21 22  1  0  0  0  0
 21 19  1  0  0  0  0
 22 25  1  6  0  0  0
 22 19  1  0  0  0  0
 25 23  1  0  0  0  0
 25 24  1  0  0  0  0
 27 26  1  0  0  0  0
 28 31  1  0  0  0  0
 28 34  2  0  0  0  0
 29 31  2  0  0  0  0
 30 27  1  1  0  0  0
 30 33  1  0  0  0  0
 31 30  1  0  0  0  0
 32 33  2  0  0  0  0
 34 32  1  0  0  0  0
M  END
>  <MODEL>
3

>  <REMARK>
 VINA RESULT:      -8.2      1.620      2.064
  Name = 
  8 active torsions:
  status: ('A' for Active; 'I' for Inactive)
    1  A    between atoms: C_3  and  C_13
    2  A    between atoms: C_3  and  N_17
    3  A    between atoms: C_4  and  C_31
    4  A    between atoms: C_5  and  C_26
    5  A    between atoms: C_12  and  N_28
    6  A    between atoms: N_17  and  C_29
    7  A    between atoms: C_20  and  C_34
    8  A    between atoms: C_26  and  N_28
                            x       y       z     vdW  Elec       q    Type
                         _______ _______ _______ _____ _____    ______ ____

>  <TORSDO>
F 8

$$$$
=
 OpenBabel10252415083D

 34 38  0  0  1  0  0  0  0  0999 V2000
  187.8550  176.7130  143.0790 C   0  0  2  0  0  3  0  0  0  0  0  0
  188.6090  178.2040  141.3270 C   0  0  0  0  0  0  0  0  0  0  0  0
  189.5030  176.0660  142.6510 S   0  0  0  0  0  0  0  0  0  0  0  0
  188.5550  179.1430  140.5470 O   0  0  0  0  0  0  0  0  0  0  0  0
  189.6160  177.1200  141.1700 C   0  0  2  0  0  3  0  0  0  0  0  0
  187.6960  178.1070  142.5010 C   0  0  1  0  0  3  0  0  0  0  0  0
  183.9400  178.7390  142.7730 C   0  0  0  0  0  0  0  0  0  0  0  0
  185.6430  178.6520  144.5050 C   0  0  0  0  0  3  0  0  0  0  0  0
  186.2540  178.3520  142.1450 C   0  0  0  0  0  0  0  0  0  0  0  0
  183.3230  179.0100  145.1000 C   0  0  0  0  0  3  0  0  0  0  0  0
  184.6600  178.8600  145.4760 C   0  0  0  0  0  3  0  0  0  0  0  0
  185.2940  178.5850  143.1480 C   0  0  0  0  0  0  0  0  0  0  0  0
  182.9640  178.9530  143.7490 C   0  0  0  0  0  3  0  0  0  0  0  0
  184.5580  178.4220  140.4690 C   0  0  0  0  0  3  0  0  0  0  0  0
  183.5760  178.6600  141.4300 C   0  0  0  0  0  3  0  0  0  0  0  0
  185.8560  178.2670  140.8420 N   0  0  0  0  0  0  0  0  0  0  0  0
  190.9500  177.6940  141.0910 N   0  0  0  0  0  2  0  0  0  0  0  0
  191.5310  177.2510  139.8340 C   0  0  0  0  0  2  0  0  0  0  0  0
  190.5270  176.3790  139.0940 C   0  0  2  0  0  3  0  0  0  0  0  0
  192.5460  175.6320  137.9510 O   0  0  0  0  0  1  0  0  0  0  0  0
  191.1570  175.4810  138.0260 C   0  0  2  0  0  3  0  0  0  0  0  0
  190.4840  176.7820  137.6330 C   0  0  1  0  0  3  0  0  0  0  0  0
  188.1300  176.8210  137.9920 O   0  0  0  0  0  1  0  0  0  0  0  0
  189.0180  175.1170  136.7650 O   0  0  0  0  0  1  0  0  0  0  0  0
  189.1130  176.4780  137.0620 C   0  0  0  0  0  3  0  0  0  0  0  0
  187.6890  176.7700  144.5840 C   0  0  0  0  0  2  0  0  0  0  0  0
  188.9620  177.1010  145.2160 N   0  0  0  0  0  2  0  0  0  0  0  0
  190.3050  178.0000  148.3650 N   0  0  0  0  0  0  0  0  0  0  0  0
  191.3160  176.4550  146.9430 O   0  0  0  0  0  0  0  0  0  0  0  0
  188.9480  176.7090  146.6300 C   0  0  1  0  0  3  0  0  0  0  0  0
  190.2560  177.0260  147.3150 C   0  0  0  0  0  0  0  0  0  0  0  0
  187.8910  178.1520  148.3640 C   0  0  0  0  0  3  0  0  0  0  0  0
  187.7550  177.2920  147.3530 C   0  0  0  0  0  3  0  0  0  0  0  0
  189.2270  178.5370  148.8540 C   0  0  0  0  0  3  0  0  0  0  0  0
  1 26  1  1  0  0  0
  2  6  1  0  0  0  0
  3  1  1  0  0  0  0
  4  2  2  0  0  0  0
  5 17  1  1  0  0  0
  5  2  1  0  0  0  0
  5  3  1  0  0  0  0
  6  9  1  6  0  0  0
  6  1  1  0  0  0  0
  7 12  1  0  0  0  0
  7 13  2  0  0  0  0
  8 11  1  0  0  0  0
  9 12  1  0  0  0  0
 10 11  2  0  0  0  0
 12  8  2  0  0  0  0
 13 10  1  0  0  0  0
 14 16  1  0  0  0  0
 14 15  2  0  0  0  0
 15  7  1  0  0  0  0
 16  9  2  0  0  0  0
 18 17  1  0  0  0  0
 19 18  1  1  0  0  0
 21 20  1  1  0  0  0
 21 19  1  0  0  0  0
 22 25  1  6  0  0  0
 22 21  1  0  0  0  0
 22 19  1  0  0  0  0
 24 25  1  0  0  0  0
 25 23  1  0  0  0  0
 26 27  1  0  0  0  0
 28 34  2  0  0  0  0
 29 31  2  0  0  0  0
 30 27  1  6  0  0  0
 30 31  1  0  0  0  0
 30 33  1  0  0  0  0
 31 28  1  0  0  0  0
 32 34  1  0  0  0  0
 33 32  2  0  0  0  0
M  END
>  <MODEL>
4

>  <REMARK>
 VINA RESULT:      -7.7      2.616      6.204
  Name = 
  8 active torsions:
  status: ('A' for Active; 'I' for Inactive)
    1  A    between atoms: C_3  and  C_13
    2  A    between atoms: C_3  and  N_17
    3  A    between atoms: C_4  and  C_31
    4  A    between atoms: C_5  and  C_26
    5  A    between atoms: C_12  and  N_28
    6  A    between atoms: N_17  and  C_29
    7  A    between atoms: C_20  and  C_34
    8  A    between atoms: C_26  and  N_28
                            x       y       z     vdW  Elec       q    Type
                         _______ _______ _______ _____ _____    ______ ____

>  <TORSDO>
F 8

$$$$
=
 OpenBabel10252415083D

 34 38  0  0  1  0  0  0  0  0999 V2000
  188.5310  178.0950  143.0150 C   0  0  2  0  0  3  0  0  0  0  0  0
  189.9810  176.2400  142.4490 C   0  0  0  0  0  0  0  0  0  0  0  0
  188.6960  178.2220  141.2050 S   0  0  0  0  0  0  0  0  0  0  0  0
  190.6760  175.2550  142.6440 O   0  0  0  0  0  0  0  0  0  0  0  0
  190.0370  176.9900  141.1650 C   0  0  2  0  0  3  0  0  0  0  0  0
  189.0110  176.7290  143.4690 C   0  0  1  0  0  3  0  0  0  0  0  0
  189.4380  177.3640  147.2090 C   0  0  0  0  0  0  0  0  0  0  0  0
  187.4460  177.4700  145.8210 C   0  0  0  0  0  3  0  0  0  0  0  0
  189.6080  176.8290  144.8470 C   0  0  0  0  0  0  0  0  0  0  0  0
  187.3160  178.0240  148.1750 C   0  0  0  0  0  3  0  0  0  0  0  0
  186.7000  177.8760  146.9290 C   0  0  0  0  0  3  0  0  0  0  0  0
  188.8200  177.2160  145.9480 C   0  0  0  0  0  0  0  0  0  0  0  0
  188.6830  177.7650  148.3150 C   0  0  0  0  0  3  0  0  0  0  0  0
  191.5490  176.7540  146.2310 C   0  0  0  0  0  3  0  0  0  0  0  0
  190.8050  177.1300  147.3480 C   0  0  0  0  0  3  0  0  0  0  0  0
  190.9460  176.6210  145.0200 N   0  0  0  0  0  0  0  0  0  0  0  0
  189.8170  176.0790  140.0520 N   0  0  0  0  0  2  0  0  0  0  0  0
  190.1460  176.8040  138.8360 C   0  0  0  0  0  2  0  0  0  0  0  0
  188.9110  176.8950  137.9530 C   0  0  2  0  0  3  0  0  0  0  0  0
  190.5840  176.6840  136.1920 O   0  0  0  0  0  1  0  0  0  0  0  0
  189.2170  176.8290  136.4540 C   0  0  2  0  0  3  0  0  0  0  0  0
  188.9690  178.1650  137.1270 C   0  0  1  0  0  3  0  0  0  0  0  0
  186.7910  178.6280  137.9700 O   0  0  0  0  0  1  0  0  0  0  0  0
  186.9860  177.7690  135.8670 O   0  0  0  0  0  1  0  0  0  0  0  0
  187.5610  178.6280  136.8070 C   0  0  0  0  0  3  0  0  0  0  0  0
  187.0850  178.2830  143.4230 C   0  0  0  0  0  2  0  0  0  0  0  0
  186.2250  178.2750  142.2440 N   0  0  0  0  0  2  0  0  0  0  0  0
  182.7040  178.6280  142.1660 N   0  0  0  0  0  0  0  0  0  0  0  0
  184.0530  178.8910  140.2830 O   0  0  0  0  0  0  0  0  0  0  0  0
  185.1640  179.2800  142.3770 C   0  0  1  0  0  3  0  0  0  0  0  0
  183.9550  178.9360  141.5390 C   0  0  0  0  0  0  0  0  0  0  0  0
  183.6040  179.2650  144.3190 C   0  0  0  0  0  3  0  0  0  0  0  0
  184.8160  179.5270  143.8280 C   0  0  0  0  0  3  0  0  0  0  0  0
  182.5270  178.7640  143.4460 C   0  0  0  0  0  3  0  0  0  0  0  0
  1 26  1  6  0  0  0
  1  6  1  0  0  0  0
  2  4  2  0  0  0  0
  2  6  1  0  0  0  0
  3  1  1  0  0  0  0
  5 17  1  6  0  0  0
  5  3  1  0  0  0  0
  5  2  1  0  0  0  0
  6  9  1  1  0  0  0
  7 15  1  0  0  0  0
  7 13  2  0  0  0  0
  8 12  2  0  0  0  0
  8 11  1  0  0  0  0
  9 16  2  0  0  0  0
  9 12  1  0  0  0  0
 10 13  1  0  0  0  0
 11 10  2  0  0  0  0
 12  7  1  0  0  0  0
 14 15  2  0  0  0  0
 16 14  1  0  0  0  0
 18 17  1  0  0  0  0
 19 18  1  1  0  0  0
 21 20  1  1  0  0  0
 21 22  1  0  0  0  0
 21 19  1  0  0  0  0
 22 25  1  6  0  0  0
 22 19  1  0  0  0  0
 24 25  1  0  0  0  0
 25 23  1  0  0  0  0
 27 26  1  0  0  0  0
 28 34  2  0  0  0  0
 29 31  2  0  0  0  0
 30 27  1  1  0  0  0
 30 33  1  0  0  0  0
 31 28  1  0  0  0  0
 31 30  1  0  0  0  0
 33 32  2  0  0  0  0
 34 32  1  0  0  0  0
M  END
>  <MODEL>
5

>  <REMARK>
 VINA RESULT:      -7.6      2.432      3.028
  Name = 
  8 active torsions:
  status: ('A' for Active; 'I' for Inactive)
    1  A    between atoms: C_3  and  C_13
    2  A    between atoms: C_3  and  N_17
    3  A    between atoms: C_4  and  C_31
    4  A    between atoms: C_5  and  C_26
    5  A    between atoms: C_12  and  N_28
    6  A    between atoms: N_17  and  C_29
    7  A    between atoms: C_20  and  C_34
    8  A    between atoms: C_26  and  N_28
                            x       y       z     vdW  Elec       q    Type
                         _______ _______ _______ _____ _____    ______ ____

>  <TORSDO>
F 8

$$$$
=
 OpenBabel10252415083D

 34 38  0  0  1  0  0  0  0  0999 V2000
  187.3440  178.6720  141.7540 C   0  0  2  0  0  3  0  0  0  0  0  0
  187.4410  177.1120  143.6030 C   0  0  0  0  0  0  0  0  0  0  0  0
  189.1230  178.3100  141.9110 S   0  0  0  0  0  0  0  0  0  0  0  0
  187.0140  176.4070  144.5050 O   0  0  0  0  0  0  0  0  0  0  0  0
  188.8850  177.4550  143.5010 C   0  0  2  0  0  3  0  0  0  0  0  0
  186.5490  177.6380  142.5310 C   0  0  1  0  0  3  0  0  0  0  0  0
  182.9570  178.8960  142.8330 C   0  0  0  0  0  0  0  0  0  0  0  0
  184.0180  177.5940  141.0750 C   0  0  0  0  0  3  0  0  0  0  0  0
  185.2890  178.2610  143.0690 C   0  0  0  0  0  0  0  0  0  0  0  0
  181.7010  178.2660  140.8590 C   0  0  0  0  0  3  0  0  0  0  0  0
  182.8260  177.6120  140.3480 C   0  0  0  0  0  3  0  0  0  0  0  0
  184.0970  178.2380  142.3200 C   0  0  0  0  0  0  0  0  0  0  0  0
  181.7660  178.9040  142.1010 C   0  0  0  0  0  3  0  0  0  0  0  0
  184.2270  179.5560  144.7670 C   0  0  0  0  0  3  0  0  0  0  0  0
  183.0240  179.5530  144.0600 C   0  0  0  0  0  3  0  0  0  0  0  0
  185.3190  178.9270  144.2600 N   0  0  0  0  0  0  0  0  0  0  0  0
  189.6830  176.2390  143.5160 N   0  0  0  0  0  2  0  0  0  0  0  0
  190.9410  176.5620  144.1690 C   0  0  0  0  0  2  0  0  0  0  0  0
  190.6710  177.4670  145.3620 C   0  0  2  0  0  3  0  0  0  0  0  0
  192.1630  175.8800  146.4580 O   0  0  0  0  0  1  0  0  0  0  0  0
  191.3860  177.0290  146.6440 C   0  0  2  0  0  3  0  0  0  0  0  0
  189.9230  176.6920  146.4290 C   0  0  1  0  0  3  0  0  0  0  0  0
  189.7500  178.0040  148.4080 O   0  0  0  0  0  1  0  0  0  0  0  0
  187.8650  177.0220  147.5830 O   0  0  0  0  0  1  0  0  0  0  0  0
  189.0700  177.6440  147.2450 C   0  0  0  0  0  3  0  0  0  0  0  0
  186.9290  178.6360  140.2980 C   0  0  0  0  0  2  0  0  0  0  0  0
  188.1070  178.5290  139.4430 N   0  0  0  0  0  2  0  0  0  0  0  0
  189.0810  178.1380  136.0630 N   0  0  0  0  0  0  0  0  0  0  0  0
  187.3970  179.5980  136.7420 O   0  0  0  0  0  0  0  0  0  0  0  0
  187.7930  177.7580  138.2340 C   0  0  1  0  0  3  0  0  0  0  0  0
  188.0580  178.5510  136.9760 C   0  0  0  0  0  0  0  0  0  0  0  0
  189.3940  176.0890  137.3100 C   0  0  0  0  0  3  0  0  0  0  0  0
  188.4920  176.4180  138.2360 C   0  0  0  0  0  3  0  0  0  0  0  0
  189.7150  177.0110  136.2060 C   0  0  0  0  0  3  0  0  0  0  0  0
  1 26  1  6  0  0  0
  1  3  1  0  0  0  0
  1  6  1  0  0  0  0
  2  4  2  0  0  0  0
  3  5  1  0  0  0  0
  5 17  1  6  0  0  0
  5  2  1  0  0  0  0
  6  9  1  1  0  0  0
  6  2  1  0  0  0  0
  7 15  1  0  0  0  0
  8 12  1  0  0  0  0
  9 16  2  0  0  0  0
 10 13  2  0  0  0  0
 11 10  1  0  0  0  0
 11  8  2  0  0  0  0
 12  7  2  0  0  0  0
 12  9  1  0  0  0  0
 13  7  1  0  0  0  0
 15 14  2  0  0  0  0
 16 14  1  0  0  0  0
 17 18  1  0  0  0  0
 19 18  1  6  0  0  0
 19 22  1  0  0  0  0
 19 21  1  0  0  0  0
 21 20  1  6  0  0  0
 22 21  1  0  0  0  0
 22 25  1  1  0  0  0
 25 24  1  0  0  0  0
 25 23  1  0  0  0  0
 27 26  1  0  0  0  0
 28 34  2  0  0  0  0
 28 31  1  0  0  0  0
 29 31  2  0  0  0  0
 30 33  1  0  0  0  0
 30 27  1  1  0  0  0
 31 30  1  0  0  0  0
 32 33  2  0  0  0  0
 34 32  1  0  0  0  0
M  END
>  <MODEL>
6

>  <REMARK>
 VINA RESULT:      -7.6      3.057      7.086
  Name = 
  8 active torsions:
  status: ('A' for Active; 'I' for Inactive)
    1  A    between atoms: C_3  and  C_13
    2  A    between atoms: C_3  and  N_17
    3  A    between atoms: C_4  and  C_31
    4  A    between atoms: C_5  and  C_26
    5  A    between atoms: C_12  and  N_28
    6  A    between atoms: N_17  and  C_29
    7  A    between atoms: C_20  and  C_34
    8  A    between atoms: C_26  and  N_28
                            x       y       z     vdW  Elec       q    Type
                         _______ _______ _______ _____ _____    ______ ____

>  <TORSDO>
F 8

$$$$
=
 OpenBabel10252415083D

 34 38  0  0  1  0  0  0  0  0999 V2000
  186.9880  178.8260  141.6180 C   0  0  2  0  0  3  0  0  0  0  0  0
  187.3750  177.0470  143.2150 C   0  0  0  0  0  0  0  0  0  0  0  0
  188.7630  178.4590  141.4250 S   0  0  0  0  0  0  0  0  0  0  0  0
  187.0970  176.2320  144.0820 O   0  0  0  0  0  0  0  0  0  0  0  0
  188.7860  177.4110  142.9140 C   0  0  2  0  0  3  0  0  0  0  0  0
  186.3220  177.6970  142.3840 C   0  0  1  0  0  3  0  0  0  0  0  0
  182.8600  178.9160  143.4340 C   0  0  0  0  0  0  0  0  0  0  0  0
  183.5960  177.8900  141.3560 C   0  0  0  0  0  3  0  0  0  0  0  0
  185.1800  178.2380  143.2020 C   0  0  0  0  0  0  0  0  0  0  0  0
  181.2950  178.6010  141.6110 C   0  0  0  0  0  3  0  0  0  0  0  0
  182.3060  178.0260  140.8380 C   0  0  0  0  0  3  0  0  0  0  0  0
  183.8860  178.3370  142.6550 C   0  0  0  0  0  0  0  0  0  0  0  0
  181.5700  179.0430  142.9100 C   0  0  0  0  0  3  0  0  0  0  0  0
  184.4330  179.2660  145.2200 C   0  0  0  0  0  3  0  0  0  0  0  0
  183.1360  179.3780  144.7190 C   0  0  0  0  0  3  0  0  0  0  0  0
  185.4150  178.7140  144.4590 N   0  0  0  0  0  0  0  0  0  0  0  0
  189.5580  176.2080  142.6410 N   0  0  0  0  0  2  0  0  0  0  0  0
  190.7730  176.2930  143.4340 C   0  0  0  0  0  2  0  0  0  0  0  0
  190.4460  176.8840  144.7970 C   0  0  2  0  0  3  0  0  0  0  0  0
  192.0560  178.5630  144.0660 O   0  0  0  0  0  1  0  0  0  0  0  0
  191.2110  178.1730  145.1110 C   0  0  2  0  0  3  0  0  0  0  0  0
  191.6810  176.8470  145.6760 C   0  0  1  0  0  3  0  0  0  0  0  0
  191.8240  175.6100  147.7060 O   0  0  0  0  0  1  0  0  0  0  0  0
  189.8740  176.6850  147.2200 O   0  0  0  0  0  1  0  0  0  0  0  0
  191.2660  176.7530  147.1320 C   0  0  0  0  0  3  0  0  0  0  0  0
  186.3320  178.9690  140.2610 C   0  0  0  0  0  2  0  0  0  0  0  0
  187.1110  178.2600  139.2500 N   0  0  0  0  0  2  0  0  0  0  0  0
  186.9470  176.6430  136.1060 N   0  0  0  0  0  0  0  0  0  0  0  0
  188.4170  178.3930  136.5630 O   0  0  0  0  0  0  0  0  0  0  0  0
  186.4510  178.3460  137.9420 C   0  0  1  0  0  3  0  0  0  0  0  0
  187.3290  177.8170  136.8330 C   0  0  0  0  0  0  0  0  0  0  0  0
  184.7970  176.6330  137.2130 C   0  0  0  0  0  3  0  0  0  0  0  0
  185.0870  177.6930  137.9680 C   0  0  0  0  0  3  0  0  0  0  0  0
  185.7890  176.0770  136.2750 C   0  0  0  0  0  3  0  0  0  0  0  0
  1 26  1  6  0  0  0
  1  6  1  0  0  0  0
  2  4  2  0  0  0  0
  3  1  1  0  0  0  0
  3  5  1  0  0  0  0
  5 17  1  6  0  0  0
  5  2  1  0  0  0  0
  6  9  1  1  0  0  0
  6  2  1  0  0  0  0
  7 15  1  0  0  0  0
  8 12  1  0  0  0  0
  9 16  2  0  0  0  0
 10 13  2  0  0  0  0
 11  8  2  0  0  0  0
 11 10  1  0  0  0  0
 12  9  1  0  0  0  0
 12  7  2  0  0  0  0
 13  7  1  0  0  0  0
 15 14  2  0  0  0  0
 16 14  1  0  0  0  0
 17 18  1  0  0  0  0
 19 18  1  6  0  0  0
 19 21  1  0  0  0  0
 19 22  1  0  0  0  0
 21 20  1  6  0  0  0
 21 22  1  0  0  0  0
 22 25  1  1  0  0  0
 25 24  1  0  0  0  0
 25 23  1  0  0  0  0
 27 26  1  0  0  0  0
 28 34  2  0  0  0  0
 28 31  1  0  0  0  0
 29 31  2  0  0  0  0
 30 33  1  0  0  0  0
 30 27  1  1  0  0  0
 31 30  1  0  0  0  0
 32 33  2  0  0  0  0
 34 32  1  0  0  0  0
M  END
>  <MODEL>
7

>  <REMARK>
 VINA RESULT:      -7.4      2.982      6.561
  Name = 
  8 active torsions:
  status: ('A' for Active; 'I' for Inactive)
    1  A    between atoms: C_3  and  C_13
    2  A    between atoms: C_3  and  N_17
    3  A    between atoms: C_4  and  C_31
    4  A    between atoms: C_5  and  C_26
    5  A    between atoms: C_12  and  N_28
    6  A    between atoms: N_17  and  C_29
    7  A    between atoms: C_20  and  C_34
    8  A    between atoms: C_26  and  N_28
                            x       y       z     vdW  Elec       q    Type
                         _______ _______ _______ _____ _____    ______ ____

>  <TORSDO>
F 8

$$$$
=
 OpenBabel10252415083D

 34 38  0  0  1  0  0  0  0  0999 V2000
  191.6810  177.1370  139.5140 C   0  0  2  0  0  3  0  0  0  0  0  0
  189.7680  177.1460  140.9980 C   0  0  0  0  0  0  0  0  0  0  0  0
  192.4300  177.2110  141.1730 S   0  0  0  0  0  0  0  0  0  0  0  0
  188.5880  177.1280  141.3140 O   0  0  0  0  0  0  0  0  0  0  0  0
  190.8250  177.5440  141.9660 C   0  0  2  0  0  3  0  0  0  0  0  0
  190.2220  176.7380  139.6390 C   0  0  1  0  0  3  0  0  0  0  0  0
  188.1390  177.2370  136.4780 C   0  0  0  0  0  0  0  0  0  0  0  0
  188.8980  175.1890  137.5460 C   0  0  0  0  0  3  0  0  0  0  0  0
  189.4210  177.3770  138.5360 C   0  0  0  0  0  0  0  0  0  0  0  0
  187.6400  175.0870  135.4800 C   0  0  0  0  0  3  0  0  0  0  0  0
  188.3120  174.4430  136.5220 C   0  0  0  0  0  3  0  0  0  0  0  0
  188.8220  176.5910  137.5330 C   0  0  0  0  0  0  0  0  0  0  0  0
  187.5500  176.4820  135.4590 C   0  0  0  0  0  3  0  0  0  0  0  0
  188.6800  179.3690  137.4530 C   0  0  0  0  0  3  0  0  0  0  0  0
  188.0680  178.6290  136.4430 C   0  0  0  0  0  3  0  0  0  0  0  0
  189.3410  178.7370  138.4590 N   0  0  0  0  0  0  0  0  0  0  0  0
  190.7130  176.7430  143.1750 N   0  0  0  0  0  2  0  0  0  0  0  0
  191.1050  177.5930  144.2870 C   0  0  0  0  0  2  0  0  0  0  0  0
  189.8630  178.2050  144.9160 C   0  0  2  0  0  3  0  0  0  0  0  0
  190.5090  176.7530  146.7650 O   0  0  0  0  0  1  0  0  0  0  0  0
  189.5630  177.6860  146.3260 C   0  0  2  0  0  3  0  0  0  0  0  0
  188.8170  177.1280  145.1290 C   0  0  1  0  0  3  0  0  0  0  0  0
  186.7940  177.5720  146.3050 O   0  0  0  0  0  1  0  0  0  0  0  0
  186.6830  177.1300  144.0710 O   0  0  0  0  0  1  0  0  0  0  0  0
  187.4330  177.7450  145.0760 C   0  0  0  0  0  3  0  0  0  0  0  0
  192.4090  176.1240  138.6550 C   0  0  0  0  0  2  0  0  0  0  0  0
  193.5480  176.7530  137.9930 N   0  0  0  0  0  2  0  0  0  0  0  0
  194.3030  173.9440  135.9770 N   0  0  0  0  0  0  0  0  0  0  0  0
  195.8910  175.5350  136.5910 O   0  0  0  0  0  0  0  0  0  0  0  0
  193.6240  176.3270  136.5910 C   0  0  1  0  0  3  0  0  0  0  0  0
  194.6780  175.2660  136.3810 C   0  0  0  0  0  0  0  0  0  0  0  0
  192.0190  174.6700  135.6520 C   0  0  0  0  0  3  0  0  0  0  0  0
  192.2680  175.9130  136.0650 C   0  0  0  0  0  3  0  0  0  0  0  0
  193.0810  173.6480  135.6470 C   0  0  0  0  0  3  0  0  0  0  0  0
  1 26  1  6  0  0  0
  1  6  1  0  0  0  0
  1  3  1  0  0  0  0
  2  4  2  0  0  0  0
  2  5  1  0  0  0  0
  3  5  1  0  0  0  0
  5 17  1  1  0  0  0
  6  9  1  6  0  0  0
  6  2  1  0  0  0  0
  7 12  1  0  0  0  0
 10 11  1  0  0  0  0
 11  8  2  0  0  0  0
 12  8  1  0  0  0  0
 12  9  2  0  0  0  0
 13 10  2  0  0  0  0
 13  7  1  0  0  0  0
 14 16  2  0  0  0  0
 15  7  2  0  0  0  0
 15 14  1  0  0  0  0
 16  9  1  0  0  0  0
 17 18  1  0  0  0  0
 19 18  1  6  0  0  0
 19 22  1  0  0  0  0
 19 21  1  0  0  0  0
 21 20  1  6  0  0  0
 22 25  1  1  0  0  0
 22 21  1  0  0  0  0
 24 25  1  0  0  0  0
 25 23  1  0  0  0  0
 27 26  1  0  0  0  0
 28 31  1  0  0  0  0
 30 27  1  1  0  0  0
 31 29  2  0  0  0  0
 31 30  1  0  0  0  0
 32 33  2  0  0  0  0
 33 30  1  0  0  0  0
 34 32  1  0  0  0  0
 34 28  2  0  0  0  0
M  END
>  <MODEL>
8

>  <REMARK>
 VINA RESULT:      -7.3      3.635      8.602
  Name = 
  8 active torsions:
  status: ('A' for Active; 'I' for Inactive)
    1  A    between atoms: C_3  and  C_13
    2  A    between atoms: C_3  and  N_17
    3  A    between atoms: C_4  and  C_31
    4  A    between atoms: C_5  and  C_26
    5  A    between atoms: C_12  and  N_28
    6  A    between atoms: N_17  and  C_29
    7  A    between atoms: C_20  and  C_34
    8  A    between atoms: C_26  and  N_28
                            x       y       z     vdW  Elec       q    Type
                         _______ _______ _______ _____ _____    ______ ____

>  <TORSDO>
F 8

$$$$
=
 OpenBabel10252415083D

 34 38  0  0  1  0  0  0  0  0999 V2000
  188.8710  177.0130  141.3700 C   0  0  2  0  0  3  0  0  0  0  0  0
  191.2760  177.1190  141.6300 C   0  0  0  0  0  0  0  0  0  0  0  0
  189.1090  176.8920  143.1730 S   0  0  0  0  0  0  0  0  0  0  0  0
  192.4430  177.2090  141.2800 O   0  0  0  0  0  0  0  0  0  0  0  0
  190.9060  176.6580  142.9950 C   0  0  2  0  0  3  0  0  0  0  0  0
  190.1550  177.5000  140.7240 C   0  0  1  0  0  3  0  0  0  0  0  0
  189.8060  176.9290  136.9650 C   0  0  0  0  0  0  0  0  0  0  0  0
  189.0500  178.7820  138.3450 C   0  0  0  0  0  3  0  0  0  0  0  0
  190.2890  176.9110  139.3450 C   0  0  0  0  0  0  0  0  0  0  0  0
  188.5630  178.7560  135.9730 C   0  0  0  0  0  3  0  0  0  0  0  0
  188.4730  179.3780  137.2210 C   0  0  0  0  0  3  0  0  0  0  0  0
  189.7170  177.5520  138.2300 C   0  0  0  0  0  0  0  0  0  0  0  0
  189.2310  177.5340  135.8440 C   0  0  0  0  0  3  0  0  0  0  0  0
  191.0000  175.0970  137.9700 C   0  0  0  0  0  3  0  0  0  0  0  0
  190.4520  175.7000  136.8380 C   0  0  0  0  0  3  0  0  0  0  0  0
  190.9010  175.7020  139.1830 N   0  0  0  0  0  0  0  0  0  0  0  0
  191.5950  177.4630  143.9910 N   0  0  0  0  0  2  0  0  0  0  0  0
  191.6920  176.6590  145.1980 C   0  0  0  0  0  2  0  0  0  0  0  0
  190.9950  177.3800  146.3420 C   0  0  2  0  0  3  0  0  0  0  0  0
  192.1580  175.6860  147.6540 O   0  0  0  0  0  1  0  0  0  0  0  0
  191.2880  176.7800  147.7210 C   0  0  2  0  0  3  0  0  0  0  0  0
  189.9970  176.4460  146.9990 C   0  0  1  0  0  3  0  0  0  0  0  0
  188.1190  177.8520  146.5890 O   0  0  0  0  0  1  0  0  0  0  0  0
  189.3910  178.2440  148.4390 O   0  0  0  0  0  1  0  0  0  0  0  0
  188.8660  177.2550  147.6050 C   0  0  0  0  0  3  0  0  0  0  0  0
  187.7490  177.9800  141.0530 C   0  0  0  0  0  2  0  0  0  0  0  0
  186.6950  177.8720  142.0570 N   0  0  0  0  0  2  0  0  0  0  0  0
  183.5200  178.7470  140.7620 N   0  0  0  0  0  0  0  0  0  0  0  0
  185.5000  179.0030  139.5600 O   0  0  0  0  0  0  0  0  0  0  0  0
  185.7660  179.0030  141.9470 C   0  0  1  0  0  3  0  0  0  0  0  0
  184.9380  178.9310  140.6860 C   0  0  0  0  0  0  0  0  0  0  0  0
  183.5930  179.0170  143.1640 C   0  0  0  0  0  3  0  0  0  0  0  0
  184.9200  179.1460  143.1920 C   0  0  0  0  0  3  0  0  0  0  0  0
  182.8840  178.7740  141.8950 C   0  0  0  0  0  3  0  0  0  0  0  0
  1 26  1  1  0  0  0
  1  3  1  0  0  0  0
  2  5  1  0  0  0  0
  4  2  2  0  0  0  0
  5  3  1  0  0  0  0
  5 17  1  1  0  0  0
  6  9  1  6  0  0  0
  6  1  1  0  0  0  0
  6  2  1  0  0  0  0
  7 12  1  0  0  0  0
 10 11  1  0  0  0  0
 11  8  2  0  0  0  0
 12  8  1  0  0  0  0
 12  9  2  0  0  0  0
 13 10  2  0  0  0  0
 13  7  1  0  0  0  0
 14 16  2  0  0  0  0
 15  7  2  0  0  0  0
 15 14  1  0  0  0  0
 16  9  1  0  0  0  0
 17 18  1  0  0  0  0
 19 18  1  6  0  0  0
 19 22  1  0  0  0  0
 19 21  1  0  0  0  0
 21 20  1  6  0  0  0
 22 25  1  1  0  0  0
 22 21  1  0  0  0  0
 23 25  1  0  0  0  0
 25 24  1  0  0  0  0
 26 27  1  0  0  0  0
 28 34  2  0  0  0  0
 29 31  2  0  0  0  0
 30 27  1  1  0  0  0
 30 33  1  0  0  0  0
 31 28  1  0  0  0  0
 31 30  1  0  0  0  0
 32 33  2  0  0  0  0
 34 32  1  0  0  0  0
M  END
>  <MODEL>
9

>  <REMARK>
 VINA RESULT:      -7.3      2.953      7.180
  Name = 
  8 active torsions:
  status: ('A' for Active; 'I' for Inactive)
    1  A    between atoms: C_3  and  C_13
    2  A    between atoms: C_3  and  N_17
    3  A    between atoms: C_4  and  C_31
    4  A    between atoms: C_5  and  C_26
    5  A    between atoms: C_12  and  N_28
    6  A    between atoms: N_17  and  C_29
    7  A    between atoms: C_20  and  C_34
    8  A    between atoms: C_26  and  N_28
                            x       y       z     vdW  Elec       q    Type
                         _______ _______ _______ _____ _____    ______ ____

>  <TORSDO>
F 8

$$$$
