=
 OpenBabel10262419323D

 31 35  0  0  0  0  0  0  0  0999 V2000
  188.6010  177.3910  144.3480 C   0  0  0  0  0  0  0  0  0  0  0  0
  187.3580  177.8820  144.8100 C   0  0  0  0  0  0  0  0  0  0  0  0
  185.9260  178.5770  146.5810 C   0  0  0  0  0  0  0  0  0  0  0  0
  189.6900  177.0920  145.1890 C   0  0  0  0  0  0  0  0  0  0  0  0
  191.0730  176.7760  146.8530 C   0  0  0  0  0  0  0  0  0  0  0  0
  187.1210  178.1050  146.1330 N   0  0  0  0  0  2  0  0  0  0  0  0
  190.0150  176.6890  142.4550 C   0  0  0  0  0  0  0  0  0  0  0  0
  186.5450  177.9320  142.5470 N   0  0  0  0  0  0  0  0  0  0  0  0
  185.7490  178.7700  147.8110 O   0  0  0  0  0  0  0  0  0  0  0  0
  191.0520  176.4160  143.3600 C   0  0  0  0  0  3  0  0  0  0  0  0
  188.7860  177.1790  142.9540 C   0  0  0  0  0  0  0  0  0  0  0  0
  189.7810  177.2060  146.5680 C   0  0  0  0  0  3  0  0  0  0  0  0
  184.8960  178.8480  145.6780 C   0  0  0  0  0  3  0  0  0  0  0  0
  190.8440  176.6280  144.6800 N   0  0  0  0  0  0  0  0  0  0  0  0
  191.7150  176.4250  145.6790 C   0  0  0  0  0  3  0  0  0  0  0  0
  187.7290  177.4620  142.0780 C   0  0  0  0  0  3  0  0  0  0  0  0
  186.3370  178.1450  143.8710 C   0  0  0  0  0  0  0  0  0  0  0  0
  185.1070  178.6300  144.3160 C   0  0  0  0  0  3  0  0  0  0  0  0
  192.0180  177.8780  140.6630 O   0  0  0  0  0  0  0  0  0  0  0  0
  191.1720  177.0750  140.1860 C   0  0  0  0  0  0  0  0  0  0  0  0
  190.1830  176.4810  141.0420 N   0  0  0  0  0  2  0  0  0  0  0  0
  191.3370  175.9940  136.0260 C   0  0  0  0  0  0  0  0  0  0  0  0
  192.2540  175.9620  138.2590 C   0  0  0  0  0  3  0  0  0  0  0  0
  188.7690  178.0910  138.2830 Cl  0  0  0  0  0  0  0  0  0  0  0  0
  191.4200  175.6070  134.5940 C   0  0  0  0  0  1  0  0  0  0  0  0
  192.3340  175.5970  136.9140 C   0  0  0  0  0  3  0  0  0  0  0  0
  190.1710  177.1290  137.8280 C   0  0  0  0  0  0  0  0  0  0  0  0
  191.1820  176.7300  138.7420 C   0  0  0  0  0  0  0  0  0  0  0  0
  190.2630  176.7570  136.4830 C   0  0  0  0  0  3  0  0  0  0  0  0
  191.6800  176.7010  148.1850 C   0  0  0  0  0  3  0  0  0  0  0  0
  192.8060  176.0950  148.3690 N   0  0  0  0  0  2  0  0  0  0  0  0
  1  2  1  0  0  0  0
  1  4  1  0  0  0  0
  2  6  1  0  0  0  0
  3  9  2  0  0  0  0
  4 12  2  0  0  0  0
  5 30  1  0  0  0  0
  6  3  1  0  0  0  0
  7 11  1  0  0  0  0
  7 10  2  0  0  0  0
  8 17  1  0  0  0  0
 10 14  1  0  0  0  0
 11  1  2  0  0  0  0
 12  5  1  0  0  0  0
 13  3  1  0  0  0  0
 14  4  1  0  0  0  0
 14 15  1  0  0  0  0
 15  5  2  0  0  0  0
 16  8  2  0  0  0  0
 16 11  1  0  0  0  0
 17 18  1  0  0  0  0
 17  2  2  0  0  0  0
 18 13  2  0  0  0  0
 20 19  2  0  0  0  0
 20 21  1  0  0  0  0
 21  7  1  0  0  0  0
 22 29  2  0  0  0  0
 22 26  1  0  0  0  0
 23 28  1  0  0  0  0
 25 22  1  0  0  0  0
 26 23  2  0  0  0  0
 27 24  1  0  0  0  0
 27 28  2  0  0  0  0
 28 20  1  0  0  0  0
 29 27  1  0  0  0  0
 30 31  2  0  0  0  0
M  END
>  <MODEL>
1

>  <REMARK>
 VINA RESULT:     -10.0      0.000      0.000
  Name = 
  3 active torsions:
  status: ('A' for Active; 'I' for Inactive)
    1  A    between atoms: C_2  and  C_13
    2  A    between atoms: C_9  and  C_22
    3  A    between atoms: C_15  and  N_23
                            x       y       z     vdW  Elec       q    Type
                         _______ _______ _______ _____ _____    ______ ____

>  <TORSDO>
F 3

$$$$
=
 OpenBabel10262419323D

 31 35  0  0  0  0  0  0  0  0999 V2000
  188.8470  177.3750  144.1120 C   0  0  0  0  0  0  0  0  0  0  0  0
  189.4220  177.2970  145.4010 C   0  0  0  0  0  0  0  0  0  0  0  0
  189.2690  177.5510  147.7640 C   0  0  0  0  0  0  0  0  0  0  0  0
  187.5240  177.7890  143.8650 C   0  0  0  0  0  0  0  0  0  0  0  0
  185.4520  178.4780  143.9720 C   0  0  0  0  0  0  0  0  0  0  0  0
  188.7190  177.6250  146.5220 N   0  0  0  0  0  2  0  0  0  0  0  0
  189.0930  177.0840  141.6770 C   0  0  0  0  0  0  0  0  0  0  0  0
  191.4850  176.5360  144.4280 N   0  0  0  0  0  0  0  0  0  0  0  0
  188.5850  177.8620  148.7730 O   0  0  0  0  0  0  0  0  0  0  0  0
  187.7650  177.5070  141.5150 C   0  0  0  0  0  3  0  0  0  0  0  0
  189.6340  177.0190  142.9820 C   0  0  0  0  0  0  0  0  0  0  0  0
  186.5530  178.1850  144.7710 C   0  0  0  0  0  3  0  0  0  0  0  0
  190.5910  177.1300  147.9220 C   0  0  0  0  0  3  0  0  0  0  0  0
  187.0430  177.8390  142.6100 N   0  0  0  0  0  0  0  0  0  0  0  0
  185.7710  178.2590  142.6440 C   0  0  0  0  0  3  0  0  0  0  0  0
  190.9570  176.6010  143.1790 C   0  0  0  0  0  3  0  0  0  0  0  0
  190.7610  176.8680  145.5270 C   0  0  0  0  0  0  0  0  0  0  0  0
  191.3380  176.7880  146.7950 C   0  0  0  0  0  3  0  0  0  0  0  0
  189.4920  178.5640  139.1700 O   0  0  0  0  0  0  0  0  0  0  0  0
  190.0830  177.4640  139.3290 C   0  0  0  0  0  0  0  0  0  0  0  0
  189.9040  176.7210  140.5460 N   0  0  0  0  0  2  0  0  0  0  0  0
  192.5210  175.8560  136.1700 C   0  0  0  0  0  0  0  0  0  0  0  0
  190.3730  176.4940  137.0710 C   0  0  0  0  0  3  0  0  0  0  0  0
  193.2650  177.2840  139.8430 Cl  0  0  0  0  0  0  0  0  0  0  0  0
  193.3380  175.2970  135.0620 C   0  0  0  0  0  1  0  0  0  0  0  0
  191.1390  175.9680  136.0290 C   0  0  0  0  0  3  0  0  0  0  0  0
  192.3780  176.7980  138.4030 C   0  0  0  0  0  0  0  0  0  0  0  0
  190.9690  176.9160  138.2700 C   0  0  0  0  0  0  0  0  0  0  0  0
  193.1340  176.2690  137.3520 C   0  0  0  0  0  3  0  0  0  0  0  0
  184.1470  178.9480  144.4460 C   0  0  0  0  0  3  0  0  0  0  0  0
  183.8700  178.9820  145.7070 N   0  0  0  0  0  2  0  0  0  0  0  0
  1  2  1  0  0  0  0
  2 17  2  0  0  0  0
  2  6  1  0  0  0  0
  3 13  1  0  0  0  0
  3  9  2  0  0  0  0
  4  1  1  0  0  0  0
  4 12  2  0  0  0  0
  5 30  1  0  0  0  0
  5 12  1  0  0  0  0
  6  3  1  0  0  0  0
  7 11  1  0  0  0  0
  8 17  1  0  0  0  0
 10  7  2  0  0  0  0
 10 14  1  0  0  0  0
 11 16  1  0  0  0  0
 11  1  2  0  0  0  0
 14 15  1  0  0  0  0
 14  4  1  0  0  0  0
 15  5  2  0  0  0  0
 16  8  2  0  0  0  0
 17 18  1  0  0  0  0
 18 13  2  0  0  0  0
 19 20  2  0  0  0  0
 20 21  1  0  0  0  0
 21  7  1  0  0  0  0
 22 29  1  0  0  0  0
 23 28  2  0  0  0  0
 25 22  1  0  0  0  0
 26 22  2  0  0  0  0
 26 23  1  0  0  0  0
 27 24  1  0  0  0  0
 28 27  1  0  0  0  0
 28 20  1  0  0  0  0
 29 27  2  0  0  0  0
 30 31  2  0  0  0  0
M  END
>  <MODEL>
2

>  <REMARK>
 VINA RESULT:     -10.0      1.655      4.289
  Name = 
  3 active torsions:
  status: ('A' for Active; 'I' for Inactive)
    1  A    between atoms: C_2  and  C_13
    2  A    between atoms: C_9  and  C_22
    3  A    between atoms: C_15  and  N_23
                            x       y       z     vdW  Elec       q    Type
                         _______ _______ _______ _____ _____    ______ ____

>  <TORSDO>
F 3

$$$$
=
 OpenBabel10262419323D

 31 35  0  0  0  0  0  0  0  0999 V2000
  189.4320  177.4300  138.9920 C   0  0  0  0  0  0  0  0  0  0  0  0
  188.3930  177.6660  138.0620 C   0  0  0  0  0  0  0  0  0  0  0  0
  187.5840  177.7380  135.8240 C   0  0  0  0  0  0  0  0  0  0  0  0
  190.7310  177.0230  138.6320 C   0  0  0  0  0  0  0  0  0  0  0  0
  192.5670  176.4090  137.6150 C   0  0  0  0  0  0  0  0  0  0  0  0
  188.5810  177.5120  136.7210 N   0  0  0  0  0  2  0  0  0  0  0  0
  190.1860  177.3820  141.3380 C   0  0  0  0  0  0  0  0  0  0  0  0
  186.9130  178.2340  139.8700 N   0  0  0  0  0  0  0  0  0  0  0  0
  187.7990  177.5840  134.5940 O   0  0  0  0  0  0  0  0  0  0  0  0
  191.4550  176.9770  140.8980 C   0  0  0  0  0  3  0  0  0  0  0  0
  189.1720  177.6080  140.3790 C   0  0  0  0  0  0  0  0  0  0  0  0
  191.2480  176.7780  137.3700 C   0  0  0  0  0  3  0  0  0  0  0  0
  186.3210  178.1410  136.2640 C   0  0  0  0  0  3  0  0  0  0  0  0
  191.6710  176.8170  139.5720 N   0  0  0  0  0  0  0  0  0  0  0  0
  192.8110  176.4380  138.9770 C   0  0  0  0  0  3  0  0  0  0  0  0
  187.8930  178.0130  140.7840 C   0  0  0  0  0  3  0  0  0  0  0  0
  187.1290  178.0720  138.5400 C   0  0  0  0  0  0  0  0  0  0  0  0
  186.0970  178.3080  137.6310 C   0  0  0  0  0  3  0  0  0  0  0  0
  188.6970  175.6100  143.1480 O   0  0  0  0  0  0  0  0  0  0  0  0
  189.1720  176.6840  143.6010 C   0  0  0  0  0  0  0  0  0  0  0  0
  189.9040  177.5680  142.7360 N   0  0  0  0  0  2  0  0  0  0  0  0
  188.4810  177.7910  147.7000 C   0  0  0  0  0  0  0  0  0  0  0  0
  187.7050  177.4530  145.4390 C   0  0  0  0  0  3  0  0  0  0  0  0
  191.6850  176.5590  145.6250 Cl  0  0  0  0  0  0  0  0  0  0  0  0
  188.2140  178.1780  149.1100 C   0  0  0  0  0  1  0  0  0  0  0  0
  187.4510  177.8170  146.7620 C   0  0  0  0  0  3  0  0  0  0  0  0
  190.0300  177.0320  145.9910 C   0  0  0  0  0  0  0  0  0  0  0  0
  188.9870  177.0570  145.0270 C   0  0  0  0  0  0  0  0  0  0  0  0
  189.7630  177.4000  147.3130 C   0  0  0  0  0  3  0  0  0  0  0  0
  193.5600  176.0430  136.6020 C   0  0  0  0  0  3  0  0  0  0  0  0
  194.5850  176.7960  136.3730 N   0  0  0  0  0  2  0  0  0  0  0  0
  1 11  1  0  0  0  0
  2 17  1  0  0  0  0
  2  1  2  0  0  0  0
  3 13  1  0  0  0  0
  3  6  1  0  0  0  0
  4  1  1  0  0  0  0
  4 14  1  0  0  0  0
  5 15  2  0  0  0  0
  6  2  1  0  0  0  0
  7 21  1  0  0  0  0
  8 16  1  0  0  0  0
  9  3  2  0  0  0  0
 10  7  2  0  0  0  0
 11 16  2  0  0  0  0
 11  7  1  0  0  0  0
 12  5  1  0  0  0  0
 12  4  2  0  0  0  0
 13 18  2  0  0  0  0
 14 10  1  0  0  0  0
 15 14  1  0  0  0  0
 17  8  2  0  0  0  0
 18 17  1  0  0  0  0
 19 20  2  0  0  0  0
 20 28  1  0  0  0  0
 21 20  1  0  0  0  0
 22 25  1  0  0  0  0
 23 26  1  0  0  0  0
 24 27  1  0  0  0  0
 26 22  2  0  0  0  0
 27 29  2  0  0  0  0
 28 23  2  0  0  0  0
 28 27  1  0  0  0  0
 29 22  1  0  0  0  0
 30  5  1  0  0  0  0
 31 30  2  0  0  0  0
M  END
>  <MODEL>
3

>  <REMARK>
 VINA RESULT:      -9.5      3.187      8.321
  Name = 
  3 active torsions:
  status: ('A' for Active; 'I' for Inactive)
    1  A    between atoms: C_2  and  C_13
    2  A    between atoms: C_9  and  C_22
    3  A    between atoms: C_15  and  N_23
                            x       y       z     vdW  Elec       q    Type
                         _______ _______ _______ _____ _____    ______ ____

>  <TORSDO>
F 3

$$$$
=
 OpenBabel10262419323D

 31 35  0  0  0  0  0  0  0  0999 V2000
  188.8080  177.4150  143.8530 C   0  0  0  0  0  0  0  0  0  0  0  0
  189.3440  177.1940  145.1430 C   0  0  0  0  0  0  0  0  0  0  0  0
  191.2000  176.8100  146.5850 C   0  0  0  0  0  0  0  0  0  0  0  0
  189.5840  177.4770  142.6800 C   0  0  0  0  0  0  0  0  0  0  0  0
  191.1640  177.4950  141.1680 C   0  0  0  0  0  0  0  0  0  0  0  0
  190.6810  177.0220  145.3450 N   0  0  0  0  0  2  0  0  0  0  0  0
  186.8310  177.8090  142.4350 C   0  0  0  0  0  0  0  0  0  0  0  0
  187.1310  177.3180  146.0760 N   0  0  0  0  0  0  0  0  0  0  0  0
  192.4400  176.6570  146.7280 O   0  0  0  0  0  0  0  0  0  0  0  0
  187.6740  177.8580  141.3140 C   0  0  0  0  0  3  0  0  0  0  0  0
  187.4040  177.5870  143.7080 C   0  0  0  0  0  0  0  0  0  0  0  0
  190.9560  177.3460  142.5360 C   0  0  0  0  0  3  0  0  0  0  0  0
  190.3590  176.7620  147.6990 C   0  0  0  0  0  3  0  0  0  0  0  0
  189.0060  177.6900  141.4850 N   0  0  0  0  0  0  0  0  0  0  0  0
  189.9520  177.7070  140.5350 C   0  0  0  0  0  3  0  0  0  0  0  0
  186.5910  177.5320  144.8490 C   0  0  0  0  0  3  0  0  0  0  0  0
  188.4670  177.1510  146.2480 C   0  0  0  0  0  0  0  0  0  0  0  0
  188.9850  176.9330  147.5250 C   0  0  0  0  0  3  0  0  0  0  0  0
  185.3670  179.6340  140.6580 O   0  0  0  0  0  0  0  0  0  0  0  0
  184.7160  178.8820  141.4290 C   0  0  0  0  0  0  0  0  0  0  0  0
  185.4090  177.9800  142.3080 N   0  0  0  0  0  2  0  0  0  0  0  0
  180.4160  178.9600  141.3170 C   0  0  0  0  0  0  0  0  0  0  0  0
  182.5620  178.9000  140.2110 C   0  0  0  0  0  3  0  0  0  0  0  0
  183.1500  178.9620  144.2520 Cl  0  0  0  0  0  0  0  0  0  0  0  0
  178.9320  178.9860  141.2480 C   0  0  0  0  0  1  0  0  0  0  0  0
  181.1680  178.9240  140.1440 C   0  0  0  0  0  3  0  0  0  0  0  0
  182.4550  178.9450  142.6350 C   0  0  0  0  0  0  0  0  0  0  0  0
  183.2310  178.9100  141.4460 C   0  0  0  0  0  0  0  0  0  0  0  0
  181.0590  178.9710  142.5550 C   0  0  0  0  0  3  0  0  0  0  0  0
  192.4580  177.4400  140.4840 C   0  0  0  0  0  3  0  0  0  0  0  0
  192.5800  176.8580  139.3370 N   0  0  0  0  0  2  0  0  0  0  0  0
  1  2  1  0  0  0  0
  2  6  1  0  0  0  0
  2 17  2  0  0  0  0
  3  9  2  0  0  0  0
  3 13  1  0  0  0  0
  4  1  1  0  0  0  0
  5 12  1  0  0  0  0
  6  3  1  0  0  0  0
  7 11  1  0  0  0  0
  8 17  1  0  0  0  0
 10 14  1  0  0  0  0
 10  7  2  0  0  0  0
 11  1  2  0  0  0  0
 11 16  1  0  0  0  0
 12  4  2  0  0  0  0
 14  4  1  0  0  0  0
 15  5  2  0  0  0  0
 15 14  1  0  0  0  0
 16  8  2  0  0  0  0
 17 18  1  0  0  0  0
 18 13  2  0  0  0  0
 19 20  2  0  0  0  0
 20 28  1  0  0  0  0
 20 21  1  0  0  0  0
 21  7  1  0  0  0  0
 22 29  1  0  0  0  0
 23 28  2  0  0  0  0
 25 22  1  0  0  0  0
 26 23  1  0  0  0  0
 26 22  2  0  0  0  0
 27 24  1  0  0  0  0
 28 27  1  0  0  0  0
 29 27  2  0  0  0  0
 30  5  1  0  0  0  0
 31 30  2  0  0  0  0
M  END
>  <MODEL>
4

>  <REMARK>
 VINA RESULT:      -9.3      3.452      7.126
  Name = 
  3 active torsions:
  status: ('A' for Active; 'I' for Inactive)
    1  A    between atoms: C_2  and  C_13
    2  A    between atoms: C_9  and  C_22
    3  A    between atoms: C_15  and  N_23
                            x       y       z     vdW  Elec       q    Type
                         _______ _______ _______ _____ _____    ______ ____

>  <TORSDO>
F 3

$$$$
=
 OpenBabel10262419323D

 31 35  0  0  0  0  0  0  0  0999 V2000
  187.1650  178.2530  139.3480 C   0  0  0  0  0  0  0  0  0  0  0  0
  187.7360  178.0650  138.0680 C   0  0  0  0  0  0  0  0  0  0  0  0
  187.5570  178.0560  135.6940 C   0  0  0  0  0  0  0  0  0  0  0  0
  185.8250  178.6280  139.5640 C   0  0  0  0  0  0  0  0  0  0  0  0
  183.7220  179.2050  139.4060 C   0  0  0  0  0  0  0  0  0  0  0  0
  187.0120  178.2370  136.9260 N   0  0  0  0  0  2  0  0  0  0  0  0
  187.4390  178.2360  141.7980 C   0  0  0  0  0  0  0  0  0  0  0  0
  189.8380  177.5080  139.0950 N   0  0  0  0  0  0  0  0  0  0  0  0
  186.8540  178.2260  134.6650 O   0  0  0  0  0  0  0  0  0  0  0  0
  186.0930  178.6110  141.9280 C   0  0  0  0  0  3  0  0  0  0  0  0
  187.9750  178.0580  140.5010 C   0  0  0  0  0  0  0  0  0  0  0  0
  184.8320  178.8800  138.6320 C   0  0  0  0  0  3  0  0  0  0  0  0
  188.8970  177.6840  135.5670 C   0  0  0  0  0  3  0  0  0  0  0  0
  185.3500  178.7890  140.8110 N   0  0  0  0  0  0  0  0  0  0  0  0
  184.0590  179.1450  140.7470 C   0  0  0  0  0  3  0  0  0  0  0  0
  189.3150  177.6830  140.3350 C   0  0  0  0  0  3  0  0  0  0  0  0
  189.0930  177.6870  137.9740 C   0  0  0  0  0  0  0  0  0  0  0  0
  189.6660  177.4990  136.7160 C   0  0  0  0  0  3  0  0  0  0  0  0
  188.0050  175.7270  143.2190 O   0  0  0  0  0  0  0  0  0  0  0  0
  188.5340  176.7940  143.6300 C   0  0  0  0  0  0  0  0  0  0  0  0
  188.2730  178.0340  142.9520 N   0  0  0  0  0  2  0  0  0  0  0  0
  191.2540  176.7410  146.9610 C   0  0  0  0  0  0  0  0  0  0  0  0
  190.7750  176.4350  144.6150 C   0  0  0  0  0  3  0  0  0  0  0  0
  187.3590  177.5930  146.5290 Cl  0  0  0  0  0  0  0  0  0  0  0  0
  192.2160  176.7140  148.0940 C   0  0  0  0  0  1  0  0  0  0  0  0
  191.6800  176.4090  145.6770 C   0  0  0  0  0  3  0  0  0  0  0  0
  189.0070  177.1280  146.1260 C   0  0  0  0  0  0  0  0  0  0  0  0
  189.4310  176.7910  144.8130 C   0  0  0  0  0  0  0  0  0  0  0  0
  189.9240  177.0970  147.1820 C   0  0  0  0  0  3  0  0  0  0  0  0
  182.3940  179.5600  138.9000 C   0  0  0  0  0  3  0  0  0  0  0  0
  182.0680  180.7920  138.6930 N   0  0  0  0  0  2  0  0  0  0  0  0
  1  4  1  0  0  0  0
  1 11  1  0  0  0  0
  2  1  2  0  0  0  0
  3  6  1  0  0  0  0
  4 14  1  0  0  0  0
  5 15  2  0  0  0  0
  6  2  1  0  0  0  0
  7 10  2  0  0  0  0
  7 21  1  0  0  0  0
  8 16  1  0  0  0  0
  9  3  2  0  0  0  0
 11  7  1  0  0  0  0
 12  5  1  0  0  0  0
 12  4  2  0  0  0  0
 13  3  1  0  0  0  0
 13 18  2  0  0  0  0
 14 10  1  0  0  0  0
 15 14  1  0  0  0  0
 16 11  2  0  0  0  0
 17  2  1  0  0  0  0
 17  8  2  0  0  0  0
 18 17  1  0  0  0  0
 19 20  2  0  0  0  0
 20 28  1  0  0  0  0
 21 20  1  0  0  0  0
 22 29  1  0  0  0  0
 22 25  1  0  0  0  0
 23 28  2  0  0  0  0
 23 26  1  0  0  0  0
 26 22  2  0  0  0  0
 27 24  1  0  0  0  0
 27 29  2  0  0  0  0
 28 27  1  0  0  0  0
 30  5  1  0  0  0  0
 31 30  2  0  0  0  0
M  END
>  <MODEL>
5

>  <REMARK>
 VINA RESULT:      -9.3      3.614      8.716
  Name = 
  3 active torsions:
  status: ('A' for Active; 'I' for Inactive)
    1  A    between atoms: C_2  and  C_13
    2  A    between atoms: C_9  and  C_22
    3  A    between atoms: C_15  and  N_23
                            x       y       z     vdW  Elec       q    Type
                         _______ _______ _______ _____ _____    ______ ____

>  <TORSDO>
F 3

$$$$
=
 OpenBabel10262419323D

 31 35  0  0  0  0  0  0  0  0999 V2000
  189.8630  177.2230  138.7130 C   0  0  0  0  0  0  0  0  0  0  0  0
  191.0640  176.8250  138.0830 C   0  0  0  0  0  0  0  0  0  0  0  0
  192.3030  176.2860  136.1220 C   0  0  0  0  0  0  0  0  0  0  0  0
  188.6650  177.4920  138.0240 C   0  0  0  0  0  0  0  0  0  0  0  0
  187.0740  177.7950  136.5540 C   0  0  0  0  0  0  0  0  0  0  0  0
  191.1490  176.6690  136.7310 N   0  0  0  0  0  2  0  0  0  0  0  0
  188.6570  177.7640  140.7930 C   0  0  0  0  0  0  0  0  0  0  0  0
  192.1490  176.7290  140.2270 N   0  0  0  0  0  0  0  0  0  0  0  0
  192.3390  176.1540  134.8720 O   0  0  0  0  0  0  0  0  0  0  0  0
  187.5040  178.0130  140.0330 C   0  0  0  0  0  3  0  0  0  0  0  0
  189.8390  177.3680  140.1280 C   0  0  0  0  0  0  0  0  0  0  0  0
  188.4120  177.4300  136.6620 C   0  0  0  0  0  3  0  0  0  0  0  0
  193.4490  176.0390  136.8810 C   0  0  0  0  0  3  0  0  0  0  0  0
  187.5590  177.8660  138.6890 N   0  0  0  0  0  0  0  0  0  0  0  0
  186.5630  178.0610  137.8130 C   0  0  0  0  0  3  0  0  0  0  0  0
  191.0090  177.1110  140.8570 C   0  0  0  0  0  3  0  0  0  0  0  0
  192.2040  176.5820  138.8790 C   0  0  0  0  0  0  0  0  0  0  0  0
  193.3950  176.1890  138.2670 C   0  0  0  0  0  3  0  0  0  0  0  0
  188.3140  175.6720  142.8280 O   0  0  0  0  0  0  0  0  0  0  0  0
  188.4820  176.8630  143.2010 C   0  0  0  0  0  0  0  0  0  0  0  0
  188.6520  177.9050  142.2250 N   0  0  0  0  0  2  0  0  0  0  0  0
  188.3990  177.8970  147.3750 C   0  0  0  0  0  0  0  0  0  0  0  0
  187.2910  177.5460  145.2590 C   0  0  0  0  0  3  0  0  0  0  0  0
  191.2860  176.8340  144.8020 Cl  0  0  0  0  0  0  0  0  0  0  0  0
  188.3410  178.2580  148.8160 C   0  0  0  0  0  1  0  0  0  0  0  0
  187.2330  177.8850  146.6120 C   0  0  0  0  0  3  0  0  0  0  0  0
  189.6900  177.2270  145.4310 C   0  0  0  0  0  0  0  0  0  0  0  0
  188.5080  177.2130  144.6440 C   0  0  0  0  0  0  0  0  0  0  0  0
  189.6200  177.5700  146.7850 C   0  0  0  0  0  3  0  0  0  0  0  0
  186.3060  177.8890  135.3110 C   0  0  0  0  0  3  0  0  0  0  0  0
  185.2180  177.2110  135.1480 N   0  0  0  0  0  2  0  0  0  0  0  0
  1 11  1  0  0  0  0
  2  1  2  0  0  0  0
  2 17  1  0  0  0  0
  3  6  1  0  0  0  0
  3 13  1  0  0  0  0
  4 14  1  0  0  0  0
  4  1  1  0  0  0  0
  5 12  1  0  0  0  0
  5 15  2  0  0  0  0
  6  2  1  0  0  0  0
  7 21  1  0  0  0  0
  8 16  1  0  0  0  0
  9  3  2  0  0  0  0
 10  7  2  0  0  0  0
 11  7  1  0  0  0  0
 11 16  2  0  0  0  0
 12  4  2  0  0  0  0
 13 18  2  0  0  0  0
 14 10  1  0  0  0  0
 15 14  1  0  0  0  0
 17  8  2  0  0  0  0
 18 17  1  0  0  0  0
 19 20  2  0  0  0  0
 20 28  1  0  0  0  0
 21 20  1  0  0  0  0
 22 25  1  0  0  0  0
 23 26  1  0  0  0  0
 24 27  1  0  0  0  0
 26 22  2  0  0  0  0
 27 29  2  0  0  0  0
 28 23  2  0  0  0  0
 28 27  1  0  0  0  0
 29 22  1  0  0  0  0
 30  5  1  0  0  0  0
 31 30  2  0  0  0  0
M  END
>  <MODEL>
6

>  <REMARK>
 VINA RESULT:      -9.0      3.059      9.342
  Name = 
  3 active torsions:
  status: ('A' for Active; 'I' for Inactive)
    1  A    between atoms: C_2  and  C_13
    2  A    between atoms: C_9  and  C_22
    3  A    between atoms: C_15  and  N_23
                            x       y       z     vdW  Elec       q    Type
                         _______ _______ _______ _____ _____    ______ ____

>  <TORSDO>
F 3

$$$$
=
 OpenBabel10262419323D

 31 35  0  0  0  0  0  0  0  0999 V2000
  187.5480  178.0250  142.7740 C   0  0  0  0  0  0  0  0  0  0  0  0
  188.7700  177.7690  142.1110 C   0  0  0  0  0  0  0  0  0  0  0  0
  191.0560  177.1010  142.1500 C   0  0  0  0  0  0  0  0  0  0  0  0
  187.3590  177.8750  144.1610 C   0  0  0  0  0  0  0  0  0  0  0  0
  187.5400  177.5030  146.3080 C   0  0  0  0  0  0  0  0  0  0  0  0
  189.8780  177.3480  142.7850 N   0  0  0  0  0  2  0  0  0  0  0  0
  185.1900  178.7290  142.6420 C   0  0  0  0  0  0  0  0  0  0  0  0
  187.7550  178.3750  140.0180 N   0  0  0  0  0  0  0  0  0  0  0  0
  192.0540  176.7130  142.8090 O   0  0  0  0  0  0  0  0  0  0  0  0
  185.0830  178.5540  144.0300 C   0  0  0  0  0  3  0  0  0  0  0  0
  186.4280  178.4630  142.0140 C   0  0  0  0  0  0  0  0  0  0  0  0
  188.2690  177.4670  145.1240 C   0  0  0  0  0  3  0  0  0  0  0  0
  191.1590  177.2750  140.7690 C   0  0  0  0  0  3  0  0  0  0  0  0
  186.1670  178.1370  144.7240 N   0  0  0  0  0  0  0  0  0  0  0  0
  186.2470  177.9170  146.0440 C   0  0  0  0  0  3  0  0  0  0  0  0
  186.5690  178.6270  140.6290 C   0  0  0  0  0  3  0  0  0  0  0  0
  188.8420  177.9560  140.7140 C   0  0  0  0  0  0  0  0  0  0  0  0
  190.0430  177.7060  140.0500 C   0  0  0  0  0  3  0  0  0  0  0  0
  183.4270  177.1280  140.9200 O   0  0  0  0  0  0  0  0  0  0  0  0
  183.2200  178.3670  141.0210 C   0  0  0  0  0  0  0  0  0  0  0  0
  184.0690  179.1710  141.8570 N   0  0  0  0  0  2  0  0  0  0  0  0
  180.0950  180.2870  138.7740 C   0  0  0  0  0  0  0  0  0  0  0  0
  182.4070  179.6580  139.0730 C   0  0  0  0  0  3  0  0  0  0  0  0
  180.2280  178.2530  142.2280 Cl  0  0  0  0  0  0  0  0  0  0  0  0
  179.0350  180.9590  137.9780 C   0  0  0  0  0  1  0  0  0  0  0  0
  181.4140  180.2900  138.3230 C   0  0  0  0  0  3  0  0  0  0  0  0
  180.7580  179.0170  140.7340 C   0  0  0  0  0  0  0  0  0  0  0  0
  182.1050  179.0150  140.2840 C   0  0  0  0  0  0  0  0  0  0  0  0
  179.7720  179.6540  139.9740 C   0  0  0  0  0  3  0  0  0  0  0  0
  188.0450  177.1590  147.6400 C   0  0  0  0  0  3  0  0  0  0  0  0
  188.2960  178.0770  148.5140 N   0  0  0  0  0  2  0  0  0  0  0  0
  1  4  1  0  0  0  0
  2  1  1  0  0  0  0
  2  6  1  0  0  0  0
  3  6  1  0  0  0  0
  3  9  2  0  0  0  0
  4 14  1  0  0  0  0
  4 12  2  0  0  0  0
  5 30  1  0  0  0  0
  7 10  2  0  0  0  0
  8 16  2  0  0  0  0
  8 17  1  0  0  0  0
 10 14  1  0  0  0  0
 11  7  1  0  0  0  0
 11  1  2  0  0  0  0
 12  5  1  0  0  0  0
 13  3  1  0  0  0  0
 14 15  1  0  0  0  0
 15  5  2  0  0  0  0
 16 11  1  0  0  0  0
 17  2  2  0  0  0  0
 18 17  1  0  0  0  0
 18 13  2  0  0  0  0
 19 20  2  0  0  0  0
 20 21  1  0  0  0  0
 21  7  1  0  0  0  0
 22 29  1  0  0  0  0
 23 28  2  0  0  0  0
 25 22  1  0  0  0  0
 26 22  2  0  0  0  0
 26 23  1  0  0  0  0
 27 24  1  0  0  0  0
 28 27  1  0  0  0  0
 28 20  1  0  0  0  0
 29 27  2  0  0  0  0
 30 31  2  0  0  0  0
M  END
>  <MODEL>
7

>  <REMARK>
 VINA RESULT:      -8.9      4.239      7.360
  Name = 
  3 active torsions:
  status: ('A' for Active; 'I' for Inactive)
    1  A    between atoms: C_2  and  C_13
    2  A    between atoms: C_9  and  C_22
    3  A    between atoms: C_15  and  N_23
                            x       y       z     vdW  Elec       q    Type
                         _______ _______ _______ _____ _____    ______ ____

>  <TORSDO>
F 3

$$$$
=
 OpenBabel10262419323D

 31 35  0  0  0  0  0  0  0  0999 V2000
  188.5760  177.2880  144.6650 C   0  0  0  0  0  0  0  0  0  0  0  0
  187.6850  177.7880  145.6420 C   0  0  0  0  0  0  0  0  0  0  0  0
  187.1440  178.2690  147.9110 C   0  0  0  0  0  0  0  0  0  0  0  0
  189.8450  176.7550  144.9580 C   0  0  0  0  0  0  0  0  0  0  0  0
  191.6920  176.0320  145.8800 C   0  0  0  0  0  0  0  0  0  0  0  0
  187.9990  177.7890  146.9680 N   0  0  0  0  0  2  0  0  0  0  0  0
  189.0520  176.8250  142.2910 C   0  0  0  0  0  0  0  0  0  0  0  0
  186.0950  178.3110  143.9150 N   0  0  0  0  0  0  0  0  0  0  0  0
  187.4740  178.2510  149.1240 O   0  0  0  0  0  0  0  0  0  0  0  0
  190.3020  176.3090  142.6660 C   0  0  0  0  0  3  0  0  0  0  0  0
  188.1880  177.3160  143.2970 C   0  0  0  0  0  0  0  0  0  0  0  0
  190.4650  176.6100  146.1890 C   0  0  0  0  0  3  0  0  0  0  0  0
  185.9010  178.7820  147.5350 C   0  0  0  0  0  3  0  0  0  0  0  0
  190.6410  176.2970  143.9760 N   0  0  0  0  0  0  0  0  0  0  0  0
  191.7840  175.8460  144.5120 C   0  0  0  0  0  3  0  0  0  0  0  0
  186.9320  177.8380  142.9570 C   0  0  0  0  0  3  0  0  0  0  0  0
  186.4360  178.3000  145.2290 C   0  0  0  0  0  0  0  0  0  0  0  0
  185.5480  178.7950  146.1850 C   0  0  0  0  0  3  0  0  0  0  0  0
  189.0180  179.1230  140.4600 O   0  0  0  0  0  0  0  0  0  0  0  0
  188.6350  178.0000  140.0370 C   0  0  0  0  0  0  0  0  0  0  0  0
  188.6420  176.8610  140.9130 N   0  0  0  0  0  2  0  0  0  0  0  0
  187.1510  177.5710  136.0230 C   0  0  0  0  0  0  0  0  0  0  0  0
  186.8470  178.1880  138.3370 C   0  0  0  0  0  3  0  0  0  0  0  0
  190.6690  176.8510  137.8080 Cl  0  0  0  0  0  0  0  0  0  0  0  0
  186.6120  177.4340  134.6450 C   0  0  0  0  0  1  0  0  0  0  0  0
  186.3380  178.0600  137.0440 C   0  0  0  0  0  3  0  0  0  0  0  0
  188.9920  177.3360  137.5880 C   0  0  0  0  0  0  0  0  0  0  0  0
  188.1720  177.8320  138.6360 C   0  0  0  0  0  0  0  0  0  0  0  0
  188.4700  177.2110  136.2960 C   0  0  0  0  0  3  0  0  0  0  0  0
  192.7380  175.6680  146.8390 C   0  0  0  0  0  3  0  0  0  0  0  0
  192.5680  175.8480  148.1070 N   0  0  0  0  0  2  0  0  0  0  0  0
  1  4  1  0  0  0  0
  1  2  1  0  0  0  0
  2  6  1  0  0  0  0
  3  9  2  0  0  0  0
  4 12  2  0  0  0  0
  5 12  1  0  0  0  0
  5 30  1  0  0  0  0
  6  3  1  0  0  0  0
  7 10  2  0  0  0  0
  7 11  1  0  0  0  0
  8 17  1  0  0  0  0
 10 14  1  0  0  0  0
 11  1  2  0  0  0  0
 13  3  1  0  0  0  0
 14 15  1  0  0  0  0
 14  4  1  0  0  0  0
 15  5  2  0  0  0  0
 16 11  1  0  0  0  0
 16  8  2  0  0  0  0
 17  2  2  0  0  0  0
 17 18  1  0  0  0  0
 18 13  2  0  0  0  0
 20 19  2  0  0  0  0
 20 21  1  0  0  0  0
 21  7  1  0  0  0  0
 22 29  2  0  0  0  0
 22 26  1  0  0  0  0
 23 28  1  0  0  0  0
 25 22  1  0  0  0  0
 26 23  2  0  0  0  0
 27 24  1  0  0  0  0
 27 28  2  0  0  0  0
 28 20  1  0  0  0  0
 29 27  1  0  0  0  0
 30 31  2  0  0  0  0
M  END
>  <MODEL>
8

>  <REMARK>
 VINA RESULT:      -8.8      1.927      2.543
  Name = 
  3 active torsions:
  status: ('A' for Active; 'I' for Inactive)
    1  A    between atoms: C_2  and  C_13
    2  A    between atoms: C_9  and  C_22
    3  A    between atoms: C_15  and  N_23
                            x       y       z     vdW  Elec       q    Type
                         _______ _______ _______ _____ _____    ______ ____

>  <TORSDO>
F 3

$$$$
=
 OpenBabel10262419323D

 31 35  0  0  0  0  0  0  0  0999 V2000
  185.4350  178.4850  140.7090 C   0  0  0  0  0  0  0  0  0  0  0  0
  184.0400  178.6810  140.8260 C   0  0  0  0  0  0  0  0  0  0  0  0
  181.9020  179.0370  139.8410 C   0  0  0  0  0  0  0  0  0  0  0  0
  186.1230  178.4420  139.4810 C   0  0  0  0  0  0  0  0  0  0  0  0
  186.7420  178.4500  137.3840 C   0  0  0  0  0  0  0  0  0  0  0  0
  183.2440  178.8470  139.7320 N   0  0  0  0  0  2  0  0  0  0  0  0
  187.6090  178.1180  141.8130 C   0  0  0  0  0  0  0  0  0  0  0  0
  184.2280  178.5430  143.2190 N   0  0  0  0  0  0  0  0  0  0  0  0
  181.2030  179.1860  138.8060 O   0  0  0  0  0  0  0  0  0  0  0  0
  188.2190  178.0890  140.5500 C   0  0  0  0  0  3  0  0  0  0  0  0
  186.2110  178.3170  141.8900 C   0  0  0  0  0  0  0  0  0  0  0  0
  185.6200  178.5750  138.1970 C   0  0  0  0  0  3  0  0  0  0  0  0
  181.2970  179.0650  141.0990 C   0  0  0  0  0  3  0  0  0  0  0  0
  187.4540  178.2520  139.4460 N   0  0  0  0  0  0  0  0  0  0  0  0
  187.8630  178.2510  138.1690 C   0  0  0  0  0  3  0  0  0  0  0  0
  185.5690  178.3520  143.1350 C   0  0  0  0  0  3  0  0  0  0  0  0
  183.4600  178.7050  142.1120 C   0  0  0  0  0  0  0  0  0  0  0  0
  182.0840  178.8990  142.2390 C   0  0  0  0  0  3  0  0  0  0  0  0
  188.2860  175.6240  143.2110 O   0  0  0  0  0  0  0  0  0  0  0  0
  188.6950  176.7180  143.6830 C   0  0  0  0  0  0  0  0  0  0  0  0
  188.3770  177.9510  143.0170 N   0  0  0  0  0  2  0  0  0  0  0  0
  191.1750  176.7770  147.1960 C   0  0  0  0  0  0  0  0  0  0  0  0
  190.8630  176.4030  144.8310 C   0  0  0  0  0  3  0  0  0  0  0  0
  187.3140  177.5860  146.4690 Cl  0  0  0  0  0  0  0  0  0  0  0  0
  192.0550  176.7880  148.3940 C   0  0  0  0  0  1  0  0  0  0  0  0
  191.6920  176.4130  145.9540 C   0  0  0  0  0  3  0  0  0  0  0  0
  188.9900  177.1230  146.1960 C   0  0  0  0  0  0  0  0  0  0  0  0
  189.5070  176.7540  144.9250 C   0  0  0  0  0  0  0  0  0  0  0  0
  189.8300  177.1280  147.3140 C   0  0  0  0  0  3  0  0  0  0  0  0
  186.7550  178.5170  135.9210 C   0  0  0  0  0  3  0  0  0  0  0  0
  187.5030  177.7250  135.2250 N   0  0  0  0  0  2  0  0  0  0  0  0
  1  2  2  0  0  0  0
  1 11  1  0  0  0  0
  2 17  1  0  0  0  0
  3 13  1  0  0  0  0
  4  1  1  0  0  0  0
  5 15  2  0  0  0  0
  5 12  1  0  0  0  0
  6  3  1  0  0  0  0
  6  2  1  0  0  0  0
  7 11  1  0  0  0  0
  7 21  1  0  0  0  0
  9  3  2  0  0  0  0
 10  7  2  0  0  0  0
 11 16  2  0  0  0  0
 12  4  2  0  0  0  0
 13 18  2  0  0  0  0
 14  4  1  0  0  0  0
 14 10  1  0  0  0  0
 15 14  1  0  0  0  0
 16  8  1  0  0  0  0
 17 18  1  0  0  0  0
 17  8  2  0  0  0  0
 19 20  2  0  0  0  0
 20 28  1  0  0  0  0
 21 20  1  0  0  0  0
 22 29  1  0  0  0  0
 22 25  1  0  0  0  0
 23 28  2  0  0  0  0
 23 26  1  0  0  0  0
 26 22  2  0  0  0  0
 27 24  1  0  0  0  0
 27 29  2  0  0  0  0
 28 27  1  0  0  0  0
 30  5  1  0  0  0  0
 31 30  2  0  0  0  0
M  END
>  <MODEL>
9

>  <REMARK>
 VINA RESULT:      -8.7      3.837      7.878
  Name = 
  3 active torsions:
  status: ('A' for Active; 'I' for Inactive)
    1  A    between atoms: C_2  and  C_13
    2  A    between atoms: C_9  and  C_22
    3  A    between atoms: C_15  and  N_23
                            x       y       z     vdW  Elec       q    Type
                         _______ _______ _______ _____ _____    ______ ____

>  <TORSDO>
F 3

$$$$
