=
 OpenBabel10262421593D

 30 33  0  0  1  0  0  0  0  0999 V2000
  183.7200  178.6240  142.1750 C   0  0  0  0  0  0  0  0  0  0  0  0
  184.9190  180.0170  143.9710 C   0  0  0  0  0  2  0  0  0  0  0  0
  188.3500  177.4150  142.5870 C   0  0  0  0  0  2  0  0  0  0  0  0
  185.6750  179.3750  139.7340 C   0  0  0  0  0  2  0  0  0  0  0  0
  183.8040  177.4730  141.3350 N   0  0  0  0  0  2  0  0  0  0  0  0
  183.5080  178.3200  138.9340 C   0  0  2  0  0  3  0  0  0  0  0  0
  182.3830  176.0030  139.6800 S   0  0  0  0  0  0  0  0  0  0  0  0
  188.0060  177.8500  138.7970 N   0  0  0  0  0  0  0  0  0  0  0  0
  188.4710  177.0730  141.1010 C   0  0  2  0  0  3  0  0  0  0  0  0
  183.1390  177.3970  140.0700 C   0  0  0  0  0  0  0  0  0  0  0  0
  184.9480  178.5460  138.7820 N   0  0  0  0  0  0  0  0  0  0  0  0
  184.6580  179.0190  145.1040 C   0  0  0  0  0  2  0  0  0  0  0  0
  186.9310  176.9920  138.2610 C   0  0  0  0  0  2  0  0  0  0  0  0
  182.5860  179.0620  142.5070 O   0  0  0  0  0  0  0  0  0  0  0  0
  186.9010  177.6860  142.9910 C   0  0  1  0  0  3  0  0  0  0  0  0
  185.4580  177.7210  145.0120 C   0  0  0  0  0  2  0  0  0  0  0  0
  184.9580  179.3900  142.5760 C   0  0  1  0  0  3  0  0  0  0  0  0
  186.4240  178.4560  140.6770 C   0  0  1  0  0  3  0  0  0  0  0  0
  189.9380  176.8710  140.7700 C   0  0  0  0  0  1  0  0  0  0  0  0
  187.8680  178.1840  140.2280 C   0  0  2  0  0  3  0  0  0  0  0  0
  185.1910  177.5030  136.7120 O   0  0  0  0  0  0  0  0  0  0  0  0
  186.8680  177.9430  144.4910 C   0  0  0  0  0  2  0  0  0  0  0  0
  186.3520  178.8600  142.1540 C   0  0  2  0  0  3  0  0  0  0  0  0
  185.6680  177.7190  137.8570 C   0  0  0  0  0  0  0  0  0  0  0  0
  182.6160  179.5420  138.6980 C   0  0  0  0  0  2  0  0  0  0  0  0
  181.7140  178.2580  136.6090 C   0  0  0  0  0  1  0  0  0  0  0  0
  180.9810  179.1520  138.0060 S   0  0  0  0  0  0  0  0  0  0  0  0
  188.2160  179.0610  138.0060 C   0  0  0  0  0  2  0  0  0  0  0  0
  189.9170  177.5300  137.0230 C   0  0  0  0  0  1  0  0  0  0  0  0
  189.0560  178.7540  136.7780 C   0  0  0  0  0  2  0  0  0  0  0  0
  1 14  2  0  0  0  0
  1 17  1  0  0  0  0
  2 12  1  0  0  0  0
  5  1  1  0  0  0  0
  6 25  1  1  0  0  0
  6 10  1  0  0  0  0
  7 10  2  0  0  0  0
  9 19  1  6  0  0  0
  9  3  1  0  0  0  0
 10  5  1  0  0  0  0
 11  6  1  0  0  0  0
 11  4  1  0  0  0  0
 13  8  1  0  0  0  0
 15  3  1  6  0  0  0
 15 22  1  0  0  0  0
 16 12  1  0  0  0  0
 17  2  1  1  0  0  0
 18  4  1  6  0  0  0
 18 23  1  0  0  0  0
 20  8  1  6  0  0  0
 20 18  1  0  0  0  0
 20  9  1  0  0  0  0
 21 24  2  0  0  0  0
 22 16  1  0  0  0  0
 23 17  1  0  0  0  0
 23 15  1  0  0  0  0
 24 13  1  0  0  0  0
 24 11  1  0  0  0  0
 26 27  1  0  0  0  0
 27 25  1  0  0  0  0
 28  8  1  0  0  0  0
 30 29  1  0  0  0  0
 30 28  1  0  0  0  0
M  END
>  <MODEL>
1

>  <REMARK>
 VINA RESULT:      -5.5      0.000      0.000
  Name = 
  4 active torsions:
  status: ('A' for Active; 'I' for Inactive)
    1  A    between atoms: C_6  and  C_8
    2  A    between atoms: C_6  and  S_21
    3  A    between atoms: C_7  and  N_10
    4  A    between atoms: C_7  and  C_26
                            x       y       z     vdW  Elec       q    Type
                         _______ _______ _______ _____ _____    ______ ____

>  <TORSDO>
F 4

$$$$
=
 OpenBabel10262421593D

 30 33  0  0  1  0  0  0  0  0999 V2000
  188.4360  177.9030  145.0730 C   0  0  0  0  0  0  0  0  0  0  0  0
  186.0670  176.9340  145.3070 C   0  0  0  0  0  2  0  0  0  0  0  0
  185.7580  178.7520  141.1770 C   0  0  0  0  0  2  0  0  0  0  0  0
  189.2210  176.3550  142.3650 C   0  0  0  0  0  2  0  0  0  0  0  0
  189.2750  178.7760  144.3190 N   0  0  0  0  0  2  0  0  0  0  0  0
  191.2510  177.3520  143.5200 C   0  0  2  0  0  3  0  0  0  0  0  0
  191.6640  179.8770  144.3240 S   0  0  0  0  0  0  0  0  0  0  0  0
  188.9660  177.3590  139.6140 N   0  0  0  0  0  0  0  0  0  0  0  0
  186.9640  178.6740  140.2390 C   0  0  2  0  0  3  0  0  0  0  0  0
  190.6880  178.5740  144.2040 C   0  0  0  0  0  0  0  0  0  0  0  0
  190.5430  176.9640  142.2960 N   0  0  0  0  0  0  0  0  0  0  0  0
  185.4600  178.2160  145.8850 C   0  0  0  0  0  2  0  0  0  0  0  0
  190.1450  178.1370  140.0420 C   0  0  0  0  0  2  0  0  0  0  0  0
  188.7130  177.6730  146.2810 O   0  0  0  0  0  0  0  0  0  0  0  0
  186.1800  178.7300  142.6460 C   0  0  1  0  0  3  0  0  0  0  0  0
  185.3200  179.3650  144.8880 C   0  0  0  0  0  2  0  0  0  0  0  0
  187.2930  177.1610  144.4210 C   0  0  1  0  0  3  0  0  0  0  0  0
  188.1980  177.4200  142.0250 C   0  0  1  0  0  3  0  0  0  0  0  0
  186.4610  178.6460  138.8080 C   0  0  0  0  0  1  0  0  0  0  0  0
  187.8160  177.4300  140.5360 C   0  0  2  0  0  3  0  0  0  0  0  0
  192.2790  177.3930  140.8030 O   0  0  0  0  0  0  0  0  0  0  0  0
  184.9290  178.8850  143.5000 C   0  0  0  0  0  2  0  0  0  0  0  0
  186.9620  177.4310  142.9310 C   0  0  2  0  0  3  0  0  0  0  0  0
  191.0440  177.4470  141.0420 C   0  0  0  0  0  0  0  0  0  0  0  0
  191.7220  176.1990  144.4080 C   0  0  0  0  0  2  0  0  0  0  0  0
  192.3940  174.9420  146.5980 C   0  0  0  0  0  1  0  0  0  0  0  0
  191.7370  176.5810  146.1850 S   0  0  0  0  0  0  0  0  0  0  0  0
  189.2850  175.9670  139.3010 C   0  0  0  0  0  2  0  0  0  0  0  0
  191.2350  175.2780  137.9120 C   0  0  0  0  0  1  0  0  0  0  0  0
  189.8320  175.8530  137.8880 C   0  0  0  0  0  2  0  0  0  0  0  0
  1 14  2  0  0  0  0
  2 12  1  0  0  0  0
  5  1  1  0  0  0  0
  6 10  1  0  0  0  0
  6 25  1  1  0  0  0
  8 13  1  0  0  0  0
  9 19  1  6  0  0  0
  9 20  1  0  0  0  0
  9  3  1  0  0  0  0
 10  5  1  0  0  0  0
 10  7  2  0  0  0  0
 11  4  1  0  0  0  0
 11  6  1  0  0  0  0
 13 24  1  0  0  0  0
 15  3  1  6  0  0  0
 15 23  1  0  0  0  0
 15 22  1  0  0  0  0
 16 12  1  0  0  0  0
 17  1  1  0  0  0  0
 17  2  1  1  0  0  0
 18  4  1  6  0  0  0
 18 23  1  0  0  0  0
 20  8  1  6  0  0  0
 20 18  1  0  0  0  0
 21 24  2  0  0  0  0
 22 16  1  0  0  0  0
 23 17  1  0  0  0  0
 24 11  1  0  0  0  0
 25 27  1  0  0  0  0
 27 26  1  0  0  0  0
 28  8  1  0  0  0  0
 30 29  1  0  0  0  0
 30 28  1  0  0  0  0
M  END
>  <MODEL>
2

>  <REMARK>
 VINA RESULT:      -5.3      4.272      6.474
  Name = 
  4 active torsions:
  status: ('A' for Active; 'I' for Inactive)
    1  A    between atoms: C_6  and  C_8
    2  A    between atoms: C_6  and  S_21
    3  A    between atoms: C_7  and  N_10
    4  A    between atoms: C_7  and  C_26
                            x       y       z     vdW  Elec       q    Type
                         _______ _______ _______ _____ _____    ______ ____

>  <TORSDO>
F 4

$$$$
=
 OpenBabel10262421593D

 30 33  0  0  1  0  0  0  0  0999 V2000
  188.4280  177.9570  144.4890 C   0  0  0  0  0  0  0  0  0  0  0  0
  186.0440  177.0220  144.2640 C   0  0  0  0  0  2  0  0  0  0  0  0
  186.6570  178.6100  140.0730 C   0  0  0  0  0  2  0  0  0  0  0  0
  189.7390  176.2540  142.0960 C   0  0  0  0  0  2  0  0  0  0  0  0
  189.4260  178.7800  143.8870 N   0  0  0  0  0  2  0  0  0  0  0  0
  191.4970  177.2960  143.6030 C   0  0  2  0  0  3  0  0  0  0  0  0
  191.7810  179.8580  144.3430 S   0  0  0  0  0  0  0  0  0  0  0  0
  190.0950  177.1050  139.3050 N   0  0  0  0  0  0  0  0  0  0  0  0
  188.0320  178.4690  139.4190 C   0  0  2  0  0  3  0  0  0  0  0  0
  190.8260  178.5590  144.0860 C   0  0  0  0  0  0  0  0  0  0  0  0
  191.0570  176.8470  142.2790 N   0  0  0  0  0  0  0  0  0  0  0  0
  185.3540  178.3400  144.6300 C   0  0  0  0  0  2  0  0  0  0  0  0
  191.1710  177.8960  139.9330 C   0  0  0  0  0  2  0  0  0  0  0  0
  188.4380  177.7920  145.7390 O   0  0  0  0  0  0  0  0  0  0  0  0
  186.7560  178.6660  141.5970 C   0  0  1  0  0  3  0  0  0  0  0  0
  185.4530  179.4320  143.5670 C   0  0  0  0  0  2  0  0  0  0  0  0
  187.4350  177.1890  143.6490 C   0  0  1  0  0  3  0  0  0  0  0  0
  188.8330  177.3070  141.4900 C   0  0  1  0  0  3  0  0  0  0  0  0
  187.8450  178.3660  137.9170 C   0  0  0  0  0  1  0  0  0  0  0  0
  188.7770  177.2370  139.9560 C   0  0  2  0  0  3  0  0  0  0  0  0
  193.0800  177.1770  141.1690 O   0  0  0  0  0  0  0  0  0  0  0  0
  185.3560  178.8790  142.1550 C   0  0  0  0  0  2  0  0  0  0  0  0
  187.4330  177.3790  142.1110 C   0  0  2  0  0  3  0  0  0  0  0  0
  191.8230  177.2550  141.1370 C   0  0  0  0  0  0  0  0  0  0  0  0
  191.7450  176.1900  144.6310 C   0  0  0  0  0  2  0  0  0  0  0  0
  192.4800  175.3080  146.9780 C   0  0  0  0  0  1  0  0  0  0  0  0
  191.5070  176.7060  146.3580 S   0  0  0  0  0  0  0  0  0  0  0  0
  190.4440  175.6950  139.1410 C   0  0  0  0  0  2  0  0  0  0  0  0
  190.6200  176.1670  136.7020 C   0  0  0  0  0  1  0  0  0  0  0  0
  191.2840  175.4990  137.8900 C   0  0  0  0  0  2  0  0  0  0  0  0
  1 14  2  0  0  0  0
  2 12  1  0  0  0  0
  4 11  1  0  0  0  0
  5 10  1  0  0  0  0
  5  1  1  0  0  0  0
  6 10  1  0  0  0  0
  6 25  1  1  0  0  0
  8 13  1  0  0  0  0
  9 19  1  6  0  0  0
  9 20  1  0  0  0  0
  9  3  1  0  0  0  0
 10  7  2  0  0  0  0
 11  6  1  0  0  0  0
 13 24  1  0  0  0  0
 15  3  1  6  0  0  0
 15 23  1  0  0  0  0
 15 22  1  0  0  0  0
 16 12  1  0  0  0  0
 17  2  1  1  0  0  0
 17  1  1  0  0  0  0
 18  4  1  1  0  0  0
 18 23  1  0  0  0  0
 20  8  1  6  0  0  0
 20 18  1  0  0  0  0
 22 16  1  0  0  0  0
 23 17  1  0  0  0  0
 24 21  2  0  0  0  0
 24 11  1  0  0  0  0
 25 27  1  0  0  0  0
 27 26  1  0  0  0  0
 28  8  1  0  0  0  0
 29 30  1  0  0  0  0
 30 28  1  0  0  0  0
M  END
>  <MODEL>
3

>  <REMARK>
 VINA RESULT:      -5.3      4.442      6.616
  Name = 
  4 active torsions:
  status: ('A' for Active; 'I' for Inactive)
    1  A    between atoms: C_6  and  C_8
    2  A    between atoms: C_6  and  S_21
    3  A    between atoms: C_7  and  N_10
    4  A    between atoms: C_7  and  C_26
                            x       y       z     vdW  Elec       q    Type
                         _______ _______ _______ _____ _____    ______ ____

>  <TORSDO>
F 4

$$$$
=
 OpenBabel10262421593D

 30 33  0  0  1  0  0  0  0  0999 V2000
  185.7700  178.0180  138.2410 C   0  0  0  0  0  0  0  0  0  0  0  0
  184.1790  179.8480  139.0930 C   0  0  0  0  0  2  0  0  0  0  0  0
  185.2690  177.8780  143.0160 C   0  0  0  0  0  2  0  0  0  0  0  0
  188.3110  178.8530  140.0270 C   0  0  0  0  0  2  0  0  0  0  0  0
  186.4590  176.8140  138.5780 N   0  0  0  0  0  2  0  0  0  0  0  0
  188.9440  177.2710  138.1430 C   0  0  2  0  0  3  0  0  0  0  0  0
  187.8970  174.8800  137.5240 S   0  0  0  0  0  0  0  0  0  0  0  0
  189.0790  177.7490  142.6410 N   0  0  0  0  0  0  0  0  0  0  0  0
  186.7020  177.3850  143.2280 C   0  0  2  0  0  3  0  0  0  0  0  0
  187.6960  176.4400  137.9630 C   0  0  0  0  0  0  0  0  0  0  0  0
  189.1420  177.7750  139.5050 N   0  0  0  0  0  0  0  0  0  0  0  0
  182.9270  178.9680  139.0340 C   0  0  0  0  0  2  0  0  0  0  0  0
  189.4890  176.6230  141.7790 C   0  0  0  0  0  2  0  0  0  0  0  0
  185.4810  178.2440  137.0360 O   0  0  0  0  0  0  0  0  0  0  0  0
  184.8840  177.8850  141.5370 C   0  0  1  0  0  3  0  0  0  0  0  0
  182.8650  177.8670  140.0910 C   0  0  0  0  0  2  0  0  0  0  0  0
  185.4840  179.0730  139.2840 C   0  0  1  0  0  3  0  0  0  0  0  0
  187.2700  178.2380  140.9400 C   0  0  1  0  0  3  0  0  0  0  0  0
  187.0240  177.4580  144.7080 C   0  0  0  0  0  1  0  0  0  0  0  0
  187.7000  178.2240  142.4150 C   0  0  2  0  0  3  0  0  0  0  0  0
  191.0670  176.5550  139.9930 O   0  0  0  0  0  0  0  0  0  0  0  0
  183.4280  178.3160  141.4300 C   0  0  0  0  0  2  0  0  0  0  0  0
  185.8550  178.8010  140.7640 C   0  0  2  0  0  3  0  0  0  0  0  0
  189.9650  177.0090  140.3970 C   0  0  0  0  0  0  0  0  0  0  0  0
  189.3200  178.2360  137.0170 C   0  0  0  0  0  2  0  0  0  0  0  0
  190.1470  176.7340  135.0450 C   0  0  0  0  0  1  0  0  0  0  0  0
  188.6890  177.7580  135.3800 S   0  0  0  0  0  0  0  0  0  0  0  0
  190.0190  178.8690  142.6010 C   0  0  0  0  0  2  0  0  0  0  0  0
  190.5760  178.1250  144.9120 C   0  0  0  0  0  1  0  0  0  0  0  0
  191.1370  178.6580  143.6080 C   0  0  0  0  0  2  0  0  0  0  0  0
  1  5  1  0  0  0  0
  1 17  1  0  0  0  0
  3  9  1  0  0  0  0
  6 25  1  6  0  0  0
  6 11  1  0  0  0  0
  7 10  2  0  0  0  0
  9 19  1  1  0  0  0
 10  6  1  0  0  0  0
 10  5  1  0  0  0  0
 11  4  1  0  0  0  0
 11 24  1  0  0  0  0
 12  2  1  0  0  0  0
 12 16  1  0  0  0  0
 13  8  1  0  0  0  0
 14  1  2  0  0  0  0
 15 22  1  1  0  0  0
 15  3  1  0  0  0  0
 16 22  1  0  0  0  0
 17  2  1  1  0  0  0
 17 23  1  0  0  0  0
 18  4  1  6  0  0  0
 18 20  1  0  0  0  0
 20  8  1  6  0  0  0
 20  9  1  0  0  0  0
 21 24  2  0  0  0  0
 23 18  1  0  0  0  0
 23 15  1  0  0  0  0
 24 13  1  0  0  0  0
 26 27  1  0  0  0  0
 27 25  1  0  0  0  0
 28  8  1  0  0  0  0
 28 30  1  0  0  0  0
 30 29  1  0  0  0  0
M  END
>  <MODEL>
4

>  <REMARK>
 VINA RESULT:      -5.2      2.676      5.216
  Name = 
  4 active torsions:
  status: ('A' for Active; 'I' for Inactive)
    1  A    between atoms: C_6  and  C_8
    2  A    between atoms: C_6  and  S_21
    3  A    between atoms: C_7  and  N_10
    4  A    between atoms: C_7  and  C_26
                            x       y       z     vdW  Elec       q    Type
                         _______ _______ _______ _____ _____    ______ ____

>  <TORSDO>
F 4

$$$$
=
 OpenBabel10262421593D

 30 33  0  0  1  0  0  0  0  0999 V2000
  189.6520  174.8350  135.4570 C   0  0  0  0  0  0  0  0  0  0  0  0
  191.2680  172.9240  136.0430 C   0  0  0  0  0  2  0  0  0  0  0  0
  193.2030  176.3090  138.3350 C   0  0  0  0  0  2  0  0  0  0  0  0
  188.8830  175.6310  138.4770 C   0  0  0  0  0  2  0  0  0  0  0  0
  189.4500  176.2470  135.4800 N   0  0  0  0  0  2  0  0  0  0  0  0
  187.2780  176.6360  136.7850 C   0  0  2  0  0  3  0  0  0  0  0  0
  187.8220  178.1260  134.6220 S   0  0  0  0  0  0  0  0  0  0  0  0
  190.1270  177.7200  140.1290 N   0  0  0  0  0  0  0  0  0  0  0  0
  192.3130  177.3400  139.0310 C   0  0  2  0  0  3  0  0  0  0  0  0
  188.1480  176.8350  135.5670 C   0  0  0  0  0  0  0  0  0  0  0  0
  187.9970  176.7100  138.0600 N   0  0  0  0  0  0  0  0  0  0  0  0
  192.2250  173.2030  134.8810 C   0  0  0  0  0  2  0  0  0  0  0  0
  189.3320  178.5750  139.2250 C   0  0  0  0  0  2  0  0  0  0  0  0
  189.0510  174.1410  134.5940 O   0  0  0  0  0  0  0  0  0  0  0  0
  192.5080  175.6830  137.1270 C   0  0  1  0  0  3  0  0  0  0  0  0
  193.0530  174.4790  135.0240 C   0  0  0  0  0  2  0  0  0  0  0  0
  190.4790  174.1460  136.5170 C   0  0  1  0  0  3  0  0  0  0  0  0
  190.3100  176.0720  138.2170 C   0  0  1  0  0  3  0  0  0  0  0  0
  193.0500  177.8740  140.2450 C   0  0  0  0  0  1  0  0  0  0  0  0
  190.9690  176.7200  139.4450 C   0  0  2  0  0  3  0  0  0  0  0  0
  186.9770  178.6460  138.8610 O   0  0  0  0  0  0  0  0  0  0  0  0
  193.4900  174.7300  136.4580 C   0  0  0  0  0  2  0  0  0  0  0  0
  191.2050  174.9980  137.5890 C   0  0  2  0  0  3  0  0  0  0  0  0
  188.0330  177.9710  138.7440 C   0  0  0  0  0  0  0  0  0  0  0  0
  186.1810  175.5730  136.7030 C   0  0  0  0  0  2  0  0  0  0  0  0
  184.2750  177.2340  137.3640 C   0  0  0  0  0  1  0  0  0  0  0  0
  184.6300  176.1540  135.9520 S   0  0  0  0  0  0  0  0  0  0  0  0
  189.3190  177.0830  141.1680 C   0  0  0  0  0  2  0  0  0  0  0  0
  190.7280  177.3430  143.2060 C   0  0  0  0  0  1  0  0  0  0  0  0
  190.2110  176.3660  142.1680 C   0  0  0  0  0  2  0  0  0  0  0  0
  1  5  1  0  0  0  0
  1 17  1  0  0  0  0
  3  9  1  0  0  0  0
  5 10  1  0  0  0  0
  6 25  1  6  0  0  0
  6 11  1  0  0  0  0
  7 10  2  0  0  0  0
  8 28  1  0  0  0  0
  9 20  1  0  0  0  0
  9 19  1  1  0  0  0
 10  6  1  0  0  0  0
 11  4  1  0  0  0  0
 11 24  1  0  0  0  0
 12 16  1  0  0  0  0
 12  2  1  0  0  0  0
 13  8  1  0  0  0  0
 14  1  2  0  0  0  0
 15 22  1  1  0  0  0
 15 23  1  0  0  0  0
 15  3  1  0  0  0  0
 16 22  1  0  0  0  0
 17  2  1  6  0  0  0
 17 23  1  0  0  0  0
 18  4  1  1  0  0  0
 18 20  1  0  0  0  0
 20  8  1  6  0  0  0
 23 18  1  0  0  0  0
 24 21  2  0  0  0  0
 24 13  1  0  0  0  0
 27 25  1  0  0  0  0
 27 26  1  0  0  0  0
 28 30  1  0  0  0  0
 30 29  1  0  0  0  0
M  END
>  <MODEL>
5

>  <REMARK>
 VINA RESULT:      -4.8      3.640      7.342
  Name = 
  4 active torsions:
  status: ('A' for Active; 'I' for Inactive)
    1  A    between atoms: C_6  and  C_8
    2  A    between atoms: C_6  and  S_21
    3  A    between atoms: C_7  and  N_10
    4  A    between atoms: C_7  and  C_26
                            x       y       z     vdW  Elec       q    Type
                         _______ _______ _______ _____ _____    ______ ____

>  <TORSDO>
F 4

$$$$
=
 OpenBabel10262421593D

 30 33  0  0  1  0  0  0  0  0999 V2000
  189.4600  177.4290  145.6130 C   0  0  0  0  0  0  0  0  0  0  0  0
  188.2040  176.0810  147.4060 C   0  0  0  0  0  2  0  0  0  0  0  0
  184.9620  179.0030  146.2170 C   0  0  0  0  0  2  0  0  0  0  0  0
  187.3740  176.9220  143.2180 C   0  0  0  0  0  2  0  0  0  0  0  0
  189.4470  178.6090  144.8110 N   0  0  0  0  0  2  0  0  0  0  0  0
  189.5960  177.8190  142.3770 C   0  0  2  0  0  3  0  0  0  0  0  0
  190.9340  180.0100  143.1550 S   0  0  0  0  0  0  0  0  0  0  0  0
  185.1510  178.6660  142.4060 N   0  0  0  0  0  0  0  0  0  0  0  0
  184.8250  179.4030  144.7470 C   0  0  2  0  0  3  0  0  0  0  0  0
  190.0760  178.6720  143.5270 C   0  0  0  0  0  0  0  0  0  0  0  0
  188.1380  177.7190  142.2670 N   0  0  0  0  0  0  0  0  0  0  0  0
  188.5830  177.0160  148.5580 C   0  0  0  0  0  2  0  0  0  0  0  0
  186.2780  179.4490  141.8600 C   0  0  0  0  0  2  0  0  0  0  0  0
  190.5620  176.8870  145.8940 O   0  0  0  0  0  0  0  0  0  0  0  0
  186.3960  178.5990  146.5630 C   0  0  1  0  0  3  0  0  0  0  0  0
  187.8920  178.3790  148.5320 C   0  0  0  0  0  2  0  0  0  0  0  0
  188.1750  176.7550  146.0330 C   0  0  1  0  0  3  0  0  0  0  0  0
  186.7350  177.8690  144.2130 C   0  0  1  0  0  3  0  0  0  0  0  0
  183.3710  179.7360  144.4710 C   0  0  0  0  0  1  0  0  0  0  0  0
  185.3050  178.2750  143.8210 C   0  0  2  0  0  3  0  0  0  0  0  0
  187.9190  178.8460  140.2390 O   0  0  0  0  0  0  0  0  0  0  0  0
  186.4530  178.2920  148.0530 C   0  0  0  0  0  2  0  0  0  0  0  0
  186.8180  177.4120  145.6740 C   0  0  2  0  0  3  0  0  0  0  0  0
  187.4620  178.6330  141.3920 C   0  0  0  0  0  0  0  0  0  0  0  0
  190.3740  176.5370  142.0750 C   0  0  0  0  0  2  0  0  0  0  0  0
  192.3090  177.5030  140.6090 C   0  0  0  0  0  1  0  0  0  0  0  0
  190.9120  176.3780  140.3460 S   0  0  0  0  0  0  0  0  0  0  0  0
  184.8160  177.5030  141.5870 C   0  0  0  0  0  2  0  0  0  0  0  0
  182.5390  178.4220  141.1630 C   0  0  0  0  0  1  0  0  0  0  0  0
  183.8010  177.8800  140.5200 C   0  0  0  0  0  2  0  0  0  0  0  0
  1 14  2  0  0  0  0
  1 17  1  0  0  0  0
  2 12  1  0  0  0  0
  5  1  1  0  0  0  0
  6 25  1  1  0  0  0
  6 10  1  0  0  0  0
  7 10  2  0  0  0  0
  9 19  1  6  0  0  0
  9  3  1  0  0  0  0
 10  5  1  0  0  0  0
 11  6  1  0  0  0  0
 11  4  1  0  0  0  0
 13  8  1  0  0  0  0
 15  3  1  6  0  0  0
 15 22  1  0  0  0  0
 16 12  1  0  0  0  0
 17  2  1  1  0  0  0
 18  4  1  6  0  0  0
 18 23  1  0  0  0  0
 20  8  1  6  0  0  0
 20 18  1  0  0  0  0
 20  9  1  0  0  0  0
 21 24  2  0  0  0  0
 22 16  1  0  0  0  0
 23 17  1  0  0  0  0
 23 15  1  0  0  0  0
 24 13  1  0  0  0  0
 24 11  1  0  0  0  0
 27 26  1  0  0  0  0
 27 25  1  0  0  0  0
 28  8  1  0  0  0  0
 30 29  1  0  0  0  0
 30 28  1  0  0  0  0
M  END
>  <MODEL>
6

>  <REMARK>
 VINA RESULT:      -4.6      3.845      6.545
  Name = 
  4 active torsions:
  status: ('A' for Active; 'I' for Inactive)
    1  A    between atoms: C_6  and  C_8
    2  A    between atoms: C_6  and  S_21
    3  A    between atoms: C_7  and  N_10
    4  A    between atoms: C_7  and  C_26
                            x       y       z     vdW  Elec       q    Type
                         _______ _______ _______ _____ _____    ______ ____

>  <TORSDO>
F 4

$$$$
=
 OpenBabel10262421593D

 30 33  0  0  1  0  0  0  0  0999 V2000
  184.9950  177.8670  137.7590 C   0  0  0  0  0  0  0  0  0  0  0  0
  183.1550  177.8760  139.5530 C   0  0  0  0  0  2  0  0  0  0  0  0
  181.0700  175.5070  136.3130 C   0  0  0  0  0  2  0  0  0  0  0  0
  185.2120  174.6730  137.4460 C   0  0  0  0  0  2  0  0  0  0  0  0
  185.2960  177.5990  136.3900 N   0  0  0  0  0  2  0  0  0  0  0  0
  187.1920  175.8730  136.4000 C   0  0  2  0  0  3  0  0  0  0  0  0
  187.2000  177.8550  134.5940 S   0  0  0  0  0  0  0  0  0  0  0  0
  183.8310  172.9890  135.4720 N   0  0  0  0  0  0  0  0  0  0  0  0
  181.8820  174.5150  135.4790 C   0  0  2  0  0  3  0  0  0  0  0  0
  186.5960  177.1870  135.9560 C   0  0  0  0  0  0  0  0  0  0  0  0
  186.2430  174.7560  136.4190 N   0  0  0  0  0  0  0  0  0  0  0  0
  182.4700  179.1410  139.0270 C   0  0  0  0  0  2  0  0  0  0  0  0
  184.8510  173.5950  134.5940 C   0  0  0  0  0  2  0  0  0  0  0  0
  185.7000  178.6970  138.3930 O   0  0  0  0  0  0  0  0  0  0  0  0
  181.9400  176.6460  136.8450 C   0  0  1  0  0  3  0  0  0  0  0  0
  181.7290  178.9670  137.7020 C   0  0  0  0  0  2  0  0  0  0  0  0
  183.9260  177.0910  138.4910 C   0  0  1  0  0  3  0  0  0  0  0  0
  183.9030  175.1230  136.8300 C   0  0  1  0  0  3  0  0  0  0  0  0
  180.9630  173.3930  135.0340 C   0  0  0  0  0  1  0  0  0  0  0  0
  183.0660  173.9570  136.2820 C   0  0  2  0  0  3  0  0  0  0  0  0
  187.2310  173.5040  134.7190 O   0  0  0  0  0  0  0  0  0  0  0  0
  181.0390  177.6170  137.5960 C   0  0  0  0  0  2  0  0  0  0  0  0
  183.0700  176.0580  137.7150 C   0  0  2  0  0  3  0  0  0  0  0  0
  186.1700  173.9110  135.2610 C   0  0  0  0  0  0  0  0  0  0  0  0
  188.1990  175.9070  137.5510 C   0  0  0  0  0  2  0  0  0  0  0  0
  188.8000  177.4190  139.5960 C   0  0  0  0  0  1  0  0  0  0  0  0
  189.0010  177.5210  137.7970 S   0  0  0  0  0  0  0  0  0  0  0  0
  184.3670  171.9240  136.3190 C   0  0  0  0  0  2  0  0  0  0  0  0
  182.8120  170.1220  135.5830 C   0  0  0  0  0  1  0  0  0  0  0  0
  183.2570  170.9810  136.7510 C   0  0  0  0  0  2  0  0  0  0  0  0
  1 14  2  0  0  0  0
  1 17  1  0  0  0  0
  5  1  1  0  0  0  0
  6 11  1  0  0  0  0
  6 25  1  1  0  0  0
  7 10  2  0  0  0  0
  8 28  1  0  0  0  0
  9 19  1  1  0  0  0
  9 20  1  0  0  0  0
  9  3  1  0  0  0  0
 10  5  1  0  0  0  0
 10  6  1  0  0  0  0
 11  4  1  0  0  0  0
 12  2  1  0  0  0  0
 13 24  1  0  0  0  0
 13  8  1  0  0  0  0
 15  3  1  1  0  0  0
 15 22  1  0  0  0  0
 15 23  1  0  0  0  0
 16 12  1  0  0  0  0
 17  2  1  6  0  0  0
 18  4  1  1  0  0  0
 18 23  1  0  0  0  0
 20  8  1  6  0  0  0
 20 18  1  0  0  0  0
 21 24  2  0  0  0  0
 22 16  1  0  0  0  0
 23 17  1  0  0  0  0
 24 11  1  0  0  0  0
 25 27  1  0  0  0  0
 27 26  1  0  0  0  0
 28 30  1  0  0  0  0
 29 30  1  0  0  0  0
M  END
>  <MODEL>
7

>  <REMARK>
 VINA RESULT:      -4.5      4.178      7.159
  Name = 
  4 active torsions:
  status: ('A' for Active; 'I' for Inactive)
    1  A    between atoms: C_6  and  C_8
    2  A    between atoms: C_6  and  S_21
    3  A    between atoms: C_7  and  N_10
    4  A    between atoms: C_7  and  C_26
                            x       y       z     vdW  Elec       q    Type
                         _______ _______ _______ _____ _____    ______ ____

>  <TORSDO>
F 4

$$$$
=
 OpenBabel10262421593D

 30 33  0  0  1  0  0  0  0  0999 V2000
  181.3620  175.8680  136.5550 C   0  0  0  0  0  0  0  0  0  0  0  0
  182.6150  173.6520  136.9090 C   0  0  0  0  0  2  0  0  0  0  0  0
  186.1040  176.5310  136.9320 C   0  0  0  0  0  2  0  0  0  0  0  0
  182.4500  177.3540  139.1920 C   0  0  0  0  0  2  0  0  0  0  0  0
  181.4960  177.2520  136.2320 N   0  0  0  0  0  2  0  0  0  0  0  0
  180.4470  178.5440  138.1810 C   0  0  2  0  0  3  0  0  0  0  0  0
  180.0860  179.3980  135.6640 S   0  0  0  0  0  0  0  0  0  0  0  0
  184.7670  179.1520  139.3840 N   0  0  0  0  0  0  0  0  0  0  0  0
  185.9360  177.8970  137.5990 C   0  0  2  0  0  3  0  0  0  0  0  0
  180.5810  178.2440  136.7070 C   0  0  0  0  0  0  0  0  0  0  0  0
  181.7190  178.5820  138.9080 N   0  0  0  0  0  0  0  0  0  0  0  0
  182.8660  173.4070  135.4180 C   0  0  0  0  0  2  0  0  0  0  0  0
  183.8140  180.0630  138.7180 C   0  0  0  0  0  2  0  0  0  0  0  0
  180.2740  175.2830  136.3110 O   0  0  0  0  0  0  0  0  0  0  0  0
  184.7720  175.9820  136.4200 C   0  0  1  0  0  3  0  0  0  0  0  0
  183.8900  174.3420  134.7780 C   0  0  0  0  0  2  0  0  0  0  0  0
  182.4560  175.1270  137.2860 C   0  0  1  0  0  3  0  0  0  0  0  0
  183.5910  177.2490  138.2000 C   0  0  1  0  0  3  0  0  0  0  0  0
  187.2860  178.3460  138.1260 C   0  0  0  0  0  1  0  0  0  0  0  0
  184.9070  177.8330  138.7380 C   0  0  2  0  0  3  0  0  0  0  0  0
  181.6840  180.8500  139.4440 O   0  0  0  0  0  0  0  0  0  0  0  0
  185.0460  174.6630  135.7100 C   0  0  0  0  0  2  0  0  0  0  0  0
  183.7890  175.8520  137.6000 C   0  0  2  0  0  3  0  0  0  0  0  0
  182.3620  179.8540  139.0810 C   0  0  0  0  0  0  0  0  0  0  0  0
  179.2750  177.9060  138.9290 C   0  0  0  0  0  2  0  0  0  0  0  0
  179.5090  177.1680  141.4250 C   0  0  0  0  0  1  0  0  0  0  0  0
  178.9310  178.6490  140.5530 S   0  0  0  0  0  0  0  0  0  0  0  0
  184.5020  178.9970  140.8130 C   0  0  0  0  0  2  0  0  0  0  0  0
  185.5540  178.2750  142.9540 C   0  0  0  0  0  1  0  0  0  0  0  0
  185.8070  178.8740  141.5830 C   0  0  0  0  0  2  0  0  0  0  0  0
  1 17  1  0  0  0  0
  3  9  1  0  0  0  0
  5  1  1  0  0  0  0
  5 10  1  0  0  0  0
  6 11  1  0  0  0  0
  6 25  1  1  0  0  0
  7 10  2  0  0  0  0
  8 28  1  0  0  0  0
  9 19  1  1  0  0  0
  9 20  1  0  0  0  0
 10  6  1  0  0  0  0
 11 24  1  0  0  0  0
 11  4  1  0  0  0  0
 12  2  1  0  0  0  0
 13 24  1  0  0  0  0
 13  8  1  0  0  0  0
 14  1  2  0  0  0  0
 15 22  1  1  0  0  0
 15  3  1  0  0  0  0
 15 23  1  0  0  0  0
 16 12  1  0  0  0  0
 16 22  1  0  0  0  0
 17  2  1  6  0  0  0
 17 23  1  0  0  0  0
 18 20  1  0  0  0  0
 18  4  1  1  0  0  0
 20  8  1  6  0  0  0
 23 18  1  0  0  0  0
 24 21  2  0  0  0  0
 25 27  1  0  0  0  0
 27 26  1  0  0  0  0
 28 30  1  0  0  0  0
 30 29  1  0  0  0  0
M  END
>  <MODEL>
8

>  <REMARK>
 VINA RESULT:      -4.4      2.911      6.160
  Name = 
  4 active torsions:
  status: ('A' for Active; 'I' for Inactive)
    1  A    between atoms: C_6  and  C_8
    2  A    between atoms: C_6  and  S_21
    3  A    between atoms: C_7  and  N_10
    4  A    between atoms: C_7  and  C_26
                            x       y       z     vdW  Elec       q    Type
                         _______ _______ _______ _____ _____    ______ ____

>  <TORSDO>
F 4

$$$$
=
 OpenBabel10262421593D

 30 33  0  0  1  0  0  0  0  0999 V2000
  189.9810  176.3680  136.5600 C   0  0  0  0  0  0  0  0  0  0  0  0
  191.6910  174.4810  136.9050 C   0  0  0  0  0  2  0  0  0  0  0  0
  192.7440  177.1350  140.4130 C   0  0  0  0  0  2  0  0  0  0  0  0
  188.5880  176.1610  139.4520 C   0  0  0  0  0  2  0  0  0  0  0  0
  189.6030  177.6910  136.9390 N   0  0  0  0  0  2  0  0  0  0  0  0
  187.2000  177.5220  137.8170 C   0  0  2  0  0  3  0  0  0  0  0  0
  187.9330  179.6290  136.3280 S   0  0  0  0  0  0  0  0  0  0  0  0
  189.2430  177.7300  141.8500 N   0  0  0  0  0  0  0  0  0  0  0  0
  191.6210  177.8460  141.1710 C   0  0  2  0  0  3  0  0  0  0  0  0
  188.2430  178.1370  136.9160 C   0  0  0  0  0  0  0  0  0  0  0  0
  187.6640  177.2540  139.1820 N   0  0  0  0  0  0  0  0  0  0  0  0
  192.7990  175.1610  136.0960 C   0  0  0  0  0  2  0  0  0  0  0  0
  188.5230  178.7640  141.0800 C   0  0  0  0  0  2  0  0  0  0  0  0
  189.6360  175.9300  135.4300 O   0  0  0  0  0  0  0  0  0  0  0  0
  192.3610  176.8590  138.9590 C   0  0  1  0  0  3  0  0  0  0  0  0
  193.4210  176.3860  136.7640 C   0  0  0  0  0  2  0  0  0  0  0  0
  190.6830  175.4470  137.5300 C   0  0  1  0  0  3  0  0  0  0  0  0
  189.9720  176.7530  139.6310 C   0  0  1  0  0  3  0  0  0  0  0  0
  192.0550  178.0350  142.6120 C   0  0  0  0  0  1  0  0  0  0  0  0
  190.3130  177.0420  141.1020 C   0  0  2  0  0  3  0  0  0  0  0  0
  186.2820  178.7860  140.2670 O   0  0  0  0  0  0  0  0  0  0  0  0
  193.5580  176.2200  138.2680 C   0  0  0  0  0  2  0  0  0  0  0  0
  191.0930  175.9810  138.9260 C   0  0  2  0  0  3  0  0  0  0  0  0
  187.4170  178.2490  140.1870 C   0  0  0  0  0  0  0  0  0  0  0  0
  186.2770  176.4630  137.2110 C   0  0  0  0  0  2  0  0  0  0  0  0
  183.9950  177.4830  137.9710 C   0  0  0  0  0  1  0  0  0  0  0  0
  184.8040  177.1390  136.3860 S   0  0  0  0  0  0  0  0  0  0  0  0
  188.3480  176.7570  142.4730 C   0  0  0  0  0  2  0  0  0  0  0  0
  188.8460  177.4420  144.8160 C   0  0  0  0  0  1  0  0  0  0  0  0
  187.7660  177.3200  143.7590 C   0  0  0  0  0  2  0  0  0  0  0  0
  1  5  1  0  0  0  0
  1 17  1  0  0  0  0
  3  9  1  0  0  0  0
  6 25  1  6  0  0  0
  6 11  1  0  0  0  0
  7 10  2  0  0  0  0
  8 28  1  0  0  0  0
  9 19  1  1  0  0  0
 10  5  1  0  0  0  0
 10  6  1  0  0  0  0
 11  4  1  0  0  0  0
 11 24  1  0  0  0  0
 12 16  1  0  0  0  0
 12  2  1  0  0  0  0
 13  8  1  0  0  0  0
 14  1  2  0  0  0  0
 15 22  1  1  0  0  0
 15  3  1  0  0  0  0
 16 22  1  0  0  0  0
 17  2  1  6  0  0  0
 17 23  1  0  0  0  0
 18  4  1  1  0  0  0
 18 20  1  0  0  0  0
 20  9  1  0  0  0  0
 20  8  1  6  0  0  0
 23 15  1  0  0  0  0
 23 18  1  0  0  0  0
 24 21  2  0  0  0  0
 24 13  1  0  0  0  0
 27 25  1  0  0  0  0
 27 26  1  0  0  0  0
 28 30  1  0  0  0  0
 30 29  1  0  0  0  0
M  END
>  <MODEL>
9

>  <REMARK>
 VINA RESULT:      -4.0      2.856      6.720
  Name = 
  4 active torsions:
  status: ('A' for Active; 'I' for Inactive)
    1  A    between atoms: C_6  and  C_8
    2  A    between atoms: C_6  and  S_21
    3  A    between atoms: C_7  and  N_10
    4  A    between atoms: C_7  and  C_26
                            x       y       z     vdW  Elec       q    Type
                         _______ _______ _______ _____ _____    ______ ____

>  <TORSDO>
F 4

$$$$
