=
 OpenBabel10252415003D

 34 39  0  0  1  0  0  0  0  0999 V2000
  187.4040  177.5580  145.9120 C   0  0  0  0  0  0  0  0  0  0  0  0
  189.6110  177.4160  144.9130 C   0  0  0  0  0  3  0  0  0  0  0  0
  187.6940  178.1330  143.5480 C   0  0  0  0  0  0  0  0  0  0  0  0
  187.9940  179.0970  141.2140 N   0  0  1  0  0  0  0  0  0  0  0  0
  189.2940  176.8320  147.2400 C   0  0  0  0  0  3  0  0  0  0  0  0
  190.1330  176.9830  146.1340 C   0  0  0  0  0  3  0  0  0  0  0  0
  189.0810  177.0770  141.6940 C   0  0  0  0  0  0  0  0  0  0  0  0
  188.2410  177.6980  144.7790 C   0  0  0  0  0  0  0  0  0  0  0  0
  188.6680  178.5940  140.0030 C   0  0  0  0  0  2  0  0  0  0  0  0
  187.9320  177.1220  147.1300 C   0  0  0  0  0  3  0  0  0  0  0  0
  186.3220  178.4610  143.4810 C   0  0  0  0  0  0  0  0  0  0  0  0
  186.0520  177.8800  145.8270 C   0  0  0  0  0  3  0  0  0  0  0  0
  189.4520  176.0300  142.2870 O   0  0  0  0  0  0  0  0  0  0  0  0
  186.5880  178.7390  141.0130 C   0  0  0  0  0  2  0  0  0  0  0  0
  185.7480  179.0830  142.2320 C   0  0  1  0  0  3  0  0  0  0  0  0
  189.1630  177.2630  140.3040 N   0  0  0  0  0  0  0  0  0  0  0  0
  188.5860  178.3150  142.3270 C   0  0  2  0  0  3  0  0  0  0  0  0
  185.5210  178.3430  144.6260 C   0  0  0  0  0  3  0  0  0  0  0  0
  181.9730  178.7110  142.6230 C   0  0  0  0  0  0  0  0  0  0  0  0
  181.6600  177.9690  141.4790 C   0  0  0  0  0  3  0  0  0  0  0  0
  184.3170  178.7000  141.9850 C   0  0  0  0  0  0  0  0  0  0  0  0
  182.6710  177.5930  140.5910 C   0  0  0  0  0  3  0  0  0  0  0  0
  183.2980  179.0760  142.8770 C   0  0  0  0  0  3  0  0  0  0  0  0
  183.9970  177.9570  140.8430 C   0  0  0  0  0  3  0  0  0  0  0  0
  180.9940  179.0760  143.4830 F   0  0  0  0  0  0  0  0  0  0  0  0
  189.7930  176.3680  139.3430 C   0  0  0  0  0  2  0  0  0  0  0  0
  190.4720  177.1370  138.3090 N   0  0  0  0  0  2  0  0  0  0  0  0
  189.4220  179.1010  136.8750 F   0  0  0  0  0  0  0  0  0  0  0  0
  189.9240  176.7280  137.0230 C   0  0  2  0  0  3  0  0  0  0  0  0
  189.0600  177.8480  136.4100 C   0  0  1  0  0  3  0  0  0  0  0  0
  187.3210  176.5650  135.7910 C   0  0  0  0  0  2  0  0  0  0  0  0
  188.0700  175.2560  136.1020 C   0  0  0  0  0  2  0  0  0  0  0  0
  189.1090  175.4430  137.2110 C   0  0  0  0  0  2  0  0  0  0  0  0
  187.6960  177.6150  136.6540 O   0  0  0  0  0  0  0  0  0  0  0  0
  1 10  2  0  0  0  0
  2  6  1  0  0  0  0
  3  8  1  0  0  0  0
  4  9  1  6  0  0  0
  4 17  1  0  0  0  0
  6  5  2  0  0  0  0
  7 13  2  0  0  0  0
  8  2  2  0  0  0  0
  8  1  1  0  0  0  0
  9 16  1  0  0  0  0
 10  5  1  0  0  0  0
 11  3  2  0  0  0  0
 11 18  1  0  0  0  0
 12  1  1  0  0  0  0
 14  4  1  0  0  0  0
 14 15  1  0  0  0  0
 15 21  1  6  0  0  0
 15 11  1  0  0  0  0
 16  7  1  0  0  0  0
 17  7  1  6  0  0  0
 17  3  1  0  0  0  0
 18 12  2  0  0  0  0
 19 23  1  0  0  0  0
 19 25  1  0  0  0  0
 20 19  2  0  0  0  0
 21 23  2  0  0  0  0
 22 24  2  0  0  0  0
 22 20  1  0  0  0  0
 24 21  1  0  0  0  0
 26 16  1  0  0  0  0
 27 26  1  0  0  0  0
 29 33  1  0  0  0  0
 29 27  1  1  0  0  0
 30 34  1  0  0  0  0
 30 28  1  1  0  0  0
 30 29  1  0  0  0  0
 31 32  1  0  0  0  0
 31 34  1  0  0  0  0
 32 33  1  0  0  0  0
M  END
>  <MODEL>
1

>  <REMARK>
 VINA RESULT:      -9.9      0.000      0.000
  Name = 
  4 active torsions:
  status: ('A' for Active; 'I' for Inactive)
    1  A    between atoms: N_3  and  C_13
    2  A    between atoms: N_3  and  C_17
    3  A    between atoms: C_12  and  C_28
    4  A    between atoms: C_17  and  N_29
                            x       y       z     vdW  Elec       q    Type
                         _______ _______ _______ _____ _____    ______ ____

>  <TORSDO>
F 4

$$$$
=
 OpenBabel10252415003D

 34 39  0  0  1  0  0  0  0  0999 V2000
  187.0830  177.7160  145.7370 C   0  0  0  0  0  0  0  0  0  0  0  0
  189.3490  177.5760  144.8800 C   0  0  0  0  0  3  0  0  0  0  0  0
  187.5050  178.1830  143.3690 C   0  0  0  0  0  0  0  0  0  0  0  0
  187.9270  179.0400  141.0120 N   0  0  1  0  0  0  0  0  0  0  0  0
  188.9030  177.0980  147.2100 C   0  0  0  0  0  3  0  0  0  0  0  0
  189.8040  177.2150  146.1500 C   0  0  0  0  0  3  0  0  0  0  0  0
  189.0230  177.0710  141.6550 C   0  0  0  0  0  0  0  0  0  0  0  0
  187.9850  177.8200  144.6500 C   0  0  0  0  0  0  0  0  0  0  0  0
  188.6830  178.4940  139.8700 C   0  0  0  0  0  2  0  0  0  0  0  0
  187.5450  177.3520  147.0050 C   0  0  0  0  0  3  0  0  0  0  0  0
  186.1330  178.4750  143.2030 C   0  0  0  0  0  0  0  0  0  0  0  0
  185.7320  178.0020  145.5550 C   0  0  0  0  0  3  0  0  0  0  0  0
  189.3790  176.0630  142.3210 O   0  0  0  0  0  0  0  0  0  0  0  0
  186.5440  178.6400  140.7460 C   0  0  0  0  0  2  0  0  0  0  0  0
  185.6230  179.0230  141.8940 C   0  0  1  0  0  3  0  0  0  0  0  0
  189.1860  177.1910  140.2650 N   0  0  0  0  0  0  0  0  0  0  0  0
  188.4660  178.3270  142.1960 C   0  0  2  0  0  3  0  0  0  0  0  0
  185.2660  178.3940  144.3030 C   0  0  0  0  0  3  0  0  0  0  0  0
  181.8400  178.5840  142.0750 C   0  0  0  0  0  0  0  0  0  0  0  0
  181.6120  177.7800  140.9540 C   0  0  0  0  0  3  0  0  0  0  0  0
  184.2180  178.5950  141.5810 C   0  0  0  0  0  0  0  0  0  0  0  0
  182.6830  177.3830  140.1480 C   0  0  0  0  0  3  0  0  0  0  0  0
  183.1400  178.9920  142.3890 C   0  0  0  0  0  3  0  0  0  0  0  0
  183.9830  177.7890  140.4610 C   0  0  0  0  0  3  0  0  0  0  0  0
  180.8030  178.9690  142.8540 F   0  0  0  0  0  0  0  0  0  0  0  0
  189.8910  176.2660  139.3900 C   0  0  0  0  0  2  0  0  0  0  0  0
  190.8120  176.9920  138.5270 N   0  0  0  0  0  2  0  0  0  0  0  0
  193.2830  177.1110  139.4740 F   0  0  0  0  0  0  0  0  0  0  0  0
  191.7340  176.0240  137.9500 C   0  0  2  0  0  3  0  0  0  0  0  0
  193.1940  176.3690  138.3080 C   0  0  1  0  0  3  0  0  0  0  0  0
  194.0700  176.0790  136.2590 C   0  0  0  0  0  2  0  0  0  0  0  0
  192.7740  175.4610  135.7010 C   0  0  0  0  0  2  0  0  0  0  0  0
  191.5330  175.9860  136.4290 C   0  0  0  0  0  2  0  0  0  0  0  0
  193.8180  177.0490  137.2490 O   0  0  0  0  0  0  0  0  0  0  0  0
  1 10  2  0  0  0  0
  2  6  1  0  0  0  0
  3  8  1  0  0  0  0
  4  9  1  6  0  0  0
  4 17  1  0  0  0  0
  6  5  2  0  0  0  0
  7 13  2  0  0  0  0
  8  2  2  0  0  0  0
  8  1  1  0  0  0  0
  9 16  1  0  0  0  0
 10  5  1  0  0  0  0
 11  3  2  0  0  0  0
 11 18  1  0  0  0  0
 12  1  1  0  0  0  0
 14  4  1  0  0  0  0
 14 15  1  0  0  0  0
 15 21  1  6  0  0  0
 15 11  1  0  0  0  0
 16  7  1  0  0  0  0
 17  7  1  6  0  0  0
 17  3  1  0  0  0  0
 18 12  2  0  0  0  0
 19 23  1  0  0  0  0
 19 25  1  0  0  0  0
 20 19  2  0  0  0  0
 21 23  2  0  0  0  0
 22 24  2  0  0  0  0
 22 20  1  0  0  0  0
 24 21  1  0  0  0  0
 26 16  1  0  0  0  0
 27 26  1  0  0  0  0
 29 30  1  0  0  0  0
 29 27  1  1  0  0  0
 30 28  1  1  0  0  0
 31 34  1  0  0  0  0
 32 31  1  0  0  0  0
 32 33  1  0  0  0  0
 33 29  1  0  0  0  0
 34 30  1  0  0  0  0
M  END
>  <MODEL>
2

>  <REMARK>
 VINA RESULT:      -9.8      1.863      2.239
  Name = 
  4 active torsions:
  status: ('A' for Active; 'I' for Inactive)
    1  A    between atoms: N_3  and  C_13
    2  A    between atoms: N_3  and  C_17
    3  A    between atoms: C_12  and  C_28
    4  A    between atoms: C_17  and  N_29
                            x       y       z     vdW  Elec       q    Type
                         _______ _______ _______ _____ _____    ______ ____

>  <TORSDO>
F 4

$$$$
=
 OpenBabel10252415003D

 34 39  0  0  1  0  0  0  0  0999 V2000
  184.1850  178.5850  144.8770 C   0  0  0  0  0  0  0  0  0  0  0  0
  184.2840  178.3820  142.4600 C   0  0  0  0  0  3  0  0  0  0  0  0
  186.2000  177.6670  143.8270 C   0  0  0  0  0  0  0  0  0  0  0  0
  188.1480  176.3680  142.8330 N   0  0  1  0  0  0  0  0  0  0  0  0
  182.3140  179.3070  143.5200 C   0  0  0  0  0  3  0  0  0  0  0  0
  183.0010  178.9280  142.3650 C   0  0  0  0  0  3  0  0  0  0  0  0
  187.4810  178.3240  141.7290 C   0  0  0  0  0  0  0  0  0  0  0  0
  184.9000  178.2140  143.7110 C   0  0  0  0  0  0  0  0  0  0  0  0
  189.0550  176.6350  141.7020 C   0  0  0  0  0  2  0  0  0  0  0  0
  182.9030  179.1330  144.7740 C   0  0  0  0  0  3  0  0  0  0  0  0
  186.7510  177.4620  145.1120 C   0  0  0  0  0  0  0  0  0  0  0  0
  184.7450  178.3830  146.1350 C   0  0  0  0  0  3  0  0  0  0  0  0
  186.8900  179.4030  141.4590 O   0  0  0  0  0  0  0  0  0  0  0  0
  188.8970  176.8260  144.0060 C   0  0  0  0  0  2  0  0  0  0  0  0
  188.0610  176.7310  145.2720 C   0  0  1  0  0  3  0  0  0  0  0  0
  188.7130  177.9430  141.1730 N   0  0  0  0  0  0  0  0  0  0  0  0
  186.9700  177.2360  142.5860 C   0  0  2  0  0  3  0  0  0  0  0  0
  186.0100  177.8110  146.2510 C   0  0  0  0  0  3  0  0  0  0  0  0
  190.9250  177.2630  147.7310 C   0  0  0  0  0  0  0  0  0  0  0  0
  190.3300  178.1350  148.6480 C   0  0  0  0  0  3  0  0  0  0  0  0
  188.8650  177.2100  146.4460 C   0  0  0  0  0  0  0  0  0  0  0  0
  189.0060  178.5440  148.4660 C   0  0  0  0  0  3  0  0  0  0  0  0
  190.1960  176.8010  146.6320 C   0  0  0  0  0  3  0  0  0  0  0  0
  188.2750  178.0820  147.3680 C   0  0  0  0  0  3  0  0  0  0  0  0
  192.2080  176.8680  147.9070 F   0  0  0  0  0  0  0  0  0  0  0  0
  189.4420  178.6350  140.1190 C   0  0  0  0  0  2  0  0  0  0  0  0
  188.6170  178.7450  138.9240 N   0  0  0  0  0  2  0  0  0  0  0  0
  187.4280  179.0180  136.5720 F   0  0  0  0  0  0  0  0  0  0  0  0
  189.4570  178.4350  137.7760 C   0  0  2  0  0  3  0  0  0  0  0  0
  188.6130  178.3050  136.4920 C   0  0  1  0  0  3  0  0  0  0  0  0
  189.5580  176.4200  135.7150 C   0  0  0  0  0  2  0  0  0  0  0  0
  190.6810  176.4500  136.7680 C   0  0  0  0  0  2  0  0  0  0  0  0
  190.2340  177.1420  138.0580 C   0  0  0  0  0  2  0  0  0  0  0  0
  188.3500  176.9550  136.2040 O   0  0  0  0  0  0  0  0  0  0  0  0
  1 12  1  0  0  0  0
  2  8  1  0  0  0  0
  3 11  2  0  0  0  0
  4  9  1  6  0  0  0
  4 14  1  0  0  0  0
  5 10  2  0  0  0  0
  6  2  2  0  0  0  0
  6  5  1  0  0  0  0
  8  3  1  0  0  0  0
  8  1  2  0  0  0  0
 10  1  1  0  0  0  0
 11 15  1  0  0  0  0
 11 18  1  0  0  0  0
 12 18  2  0  0  0  0
 13  7  2  0  0  0  0
 14 15  1  0  0  0  0
 15 21  1  1  0  0  0
 16  9  1  0  0  0  0
 16  7  1  0  0  0  0
 17  7  1  1  0  0  0
 17  4  1  0  0  0  0
 17  3  1  0  0  0  0
 19 25  1  0  0  0  0
 19 20  1  0  0  0  0
 21 23  1  0  0  0  0
 21 24  2  0  0  0  0
 22 20  2  0  0  0  0
 23 19  2  0  0  0  0
 24 22  1  0  0  0  0
 26 16  1  0  0  0  0
 27 26  1  0  0  0  0
 29 33  1  0  0  0  0
 29 27  1  1  0  0  0
 30 28  1  1  0  0  0
 30 29  1  0  0  0  0
 31 34  1  0  0  0  0
 31 32  1  0  0  0  0
 32 33  1  0  0  0  0
 34 30  1  0  0  0  0
M  END
>  <MODEL>
3

>  <REMARK>
 VINA RESULT:      -9.6      2.510      5.494
  Name = 
  4 active torsions:
  status: ('A' for Active; 'I' for Inactive)
    1  A    between atoms: N_3  and  C_13
    2  A    between atoms: N_3  and  C_17
    3  A    between atoms: C_12  and  C_28
    4  A    between atoms: C_17  and  N_29
                            x       y       z     vdW  Elec       q    Type
                         _______ _______ _______ _____ _____    ______ ____

>  <TORSDO>
F 4

$$$$
=
 OpenBabel10252415003D

 34 39  0  0  1  0  0  0  0  0999 V2000
  183.5210  178.6940  143.0870 C   0  0  0  0  0  0  0  0  0  0  0  0
  185.6730  178.8470  144.1980 C   0  0  0  0  0  3  0  0  0  0  0  0
  185.5740  178.6320  141.7490 C   0  0  0  0  0  0  0  0  0  0  0  0
  187.6330  178.9400  140.2890 N   0  0  1  0  0  0  0  0  0  0  0  0
  183.6320  178.8840  145.4980 C   0  0  0  0  0  3  0  0  0  0  0  0
  185.0260  178.9270  145.4340 C   0  0  0  0  0  3  0  0  0  0  0  0
  187.8160  177.4880  142.1200 C   0  0  0  0  0  0  0  0  0  0  0  0
  184.9350  178.7180  143.0100 C   0  0  0  0  0  0  0  0  0  0  0  0
  188.9640  178.3050  140.2900 C   0  0  0  0  0  2  0  0  0  0  0  0
  182.8810  178.7720  144.3270 C   0  0  0  0  0  3  0  0  0  0  0  0
  184.7840  178.5640  140.5790 C   0  0  0  0  0  0  0  0  0  0  0  0
  182.7580  178.6210  141.9240 C   0  0  0  0  0  3  0  0  0  0  0  0
  187.5230  176.7840  143.1220 O   0  0  0  0  0  0  0  0  0  0  0  0
  186.8830  178.1910  139.2790 C   0  0  0  0  0  2  0  0  0  0  0  0
  185.4310  178.6380  139.2190 C   0  0  1  0  0  3  0  0  0  0  0  0
  188.9570  177.2870  141.3250 N   0  0  0  0  0  0  0  0  0  0  0  0
  187.0920  178.6840  141.6470 C   0  0  2  0  0  3  0  0  0  0  0  0
  183.3850  178.5720  140.6820 C   0  0  0  0  0  3  0  0  0  0  0  0
  184.6030  176.0280  136.5660 C   0  0  0  0  0  0  0  0  0  0  0  0
  183.2940  176.3920  136.2350 C   0  0  0  0  0  3  0  0  0  0  0  0
  184.7000  177.8460  138.1730 C   0  0  0  0  0  0  0  0  0  0  0  0
  182.6890  177.4790  136.8700 C   0  0  0  0  0  3  0  0  0  0  0  0
  185.3060  176.7520  137.5330 C   0  0  0  0  0  3  0  0  0  0  0  0
  183.3900  178.2050  137.8370 C   0  0  0  0  0  3  0  0  0  0  0  0
  185.1890  174.9740  135.9520 F   0  0  0  0  0  0  0  0  0  0  0  0
  190.0420  176.3510  141.5830 C   0  0  0  0  0  2  0  0  0  0  0  0
  190.9830  176.9200  142.5380 N   0  0  0  0  0  2  0  0  0  0  0  0
  190.0490  178.5270  144.4260 F   0  0  0  0  0  0  0  0  0  0  0  0
  190.7490  176.2790  143.8250 C   0  0  2  0  0  3  0  0  0  0  0  0
  190.5230  177.3280  144.9320 C   0  0  1  0  0  3  0  0  0  0  0  0
  191.8650  176.4060  146.4810 C   0  0  0  0  0  2  0  0  0  0  0  0
  192.0640  175.1180  145.6620 C   0  0  0  0  0  2  0  0  0  0  0  0
  191.9420  175.3740  144.1570 C   0  0  0  0  0  2  0  0  0  0  0  0
  191.7040  177.5420  145.6630 O   0  0  0  0  0  0  0  0  0  0  0  0
  1 10  2  0  0  0  0
  2  6  1  0  0  0  0
  3  8  1  0  0  0  0
  4 14  1  6  0  0  0
  4  9  1  0  0  0  0
  4 17  1  0  0  0  0
  6  5  2  0  0  0  0
  7 13  2  0  0  0  0
  8  1  1  0  0  0  0
  8  2  2  0  0  0  0
  9 16  1  0  0  0  0
 10  5  1  0  0  0  0
 11 18  1  0  0  0  0
 11  3  2  0  0  0  0
 12  1  1  0  0  0  0
 15 21  1  6  0  0  0
 15 14  1  0  0  0  0
 15 11  1  0  0  0  0
 16 26  1  0  0  0  0
 16  7  1  0  0  0  0
 17  3  1  6  0  0  0
 17  7  1  0  0  0  0
 18 12  2  0  0  0  0
 19 23  1  0  0  0  0
 20 19  2  0  0  0  0
 20 22  1  0  0  0  0
 22 24  2  0  0  0  0
 23 21  2  0  0  0  0
 24 21  1  0  0  0  0
 25 19  1  0  0  0  0
 26 27  1  0  0  0  0
 29 27  1  6  0  0  0
 29 33  1  0  0  0  0
 29 30  1  0  0  0  0
 30 28  1  6  0  0  0
 30 34  1  0  0  0  0
 32 31  1  0  0  0  0
 33 32  1  0  0  0  0
 34 31  1  0  0  0  0
M  END
>  <MODEL>
4

>  <REMARK>
 VINA RESULT:      -9.4      2.966      5.698
  Name = 
  4 active torsions:
  status: ('A' for Active; 'I' for Inactive)
    1  A    between atoms: N_3  and  C_13
    2  A    between atoms: N_3  and  C_17
    3  A    between atoms: C_12  and  C_28
    4  A    between atoms: C_17  and  N_29
                            x       y       z     vdW  Elec       q    Type
                         _______ _______ _______ _____ _____    ______ ____

>  <TORSDO>
F 4

$$$$
=
 OpenBabel10252415003D

 34 39  0  0  1  0  0  0  0  0999 V2000
  184.5880  178.6960  144.8950 C   0  0  0  0  0  0  0  0  0  0  0  0
  184.7470  178.2750  142.5100 C   0  0  0  0  0  3  0  0  0  0  0  0
  186.5740  177.5730  144.0000 C   0  0  0  0  0  0  0  0  0  0  0  0
  188.4680  176.0820  143.1920 N   0  0  1  0  0  0  0  0  0  0  0  0
  182.8060  179.4020  143.4150 C   0  0  0  0  0  3  0  0  0  0  0  0
  183.5030  178.8830  142.3220 C   0  0  0  0  0  3  0  0  0  0  0  0
  187.9550  177.9670  141.8990 C   0  0  0  0  0  0  0  0  0  0  0  0
  185.3130  178.1830  143.7920 C   0  0  0  0  0  0  0  0  0  0  0  0
  189.4240  176.1950  142.0750 C   0  0  0  0  0  2  0  0  0  0  0  0
  183.3460  179.3060  144.6990 C   0  0  0  0  0  3  0  0  0  0  0  0
  187.0730  177.4520  145.3170 C   0  0  0  0  0  0  0  0  0  0  0  0
  185.0970  178.5740  146.1850 C   0  0  0  0  0  3  0  0  0  0  0  0
  187.4400  179.0510  141.5160 O   0  0  0  0  0  0  0  0  0  0  0  0
  189.2090  176.5970  144.3460 C   0  0  0  0  0  2  0  0  0  0  0  0
  188.3300  176.6640  145.5850 C   0  0  1  0  0  3  0  0  0  0  0  0
  189.1780  177.4680  141.4220 N   0  0  0  0  0  0  0  0  0  0  0  0
  187.3540  176.9910  142.8290 C   0  0  2  0  0  3  0  0  0  0  0  0
  186.3200  177.9430  146.3940 C   0  0  0  0  0  3  0  0  0  0  0  0
  191.1650  177.2840  148.0570 C   0  0  0  0  0  0  0  0  0  0  0  0
  190.5760  178.2260  148.9070 C   0  0  0  0  0  3  0  0  0  0  0  0
  189.1260  177.1970  146.7420 C   0  0  0  0  0  0  0  0  0  0  0  0
  189.2660  178.6530  148.6760 C   0  0  0  0  0  3  0  0  0  0  0  0
  190.4430  176.7700  146.9770 C   0  0  0  0  0  3  0  0  0  0  0  0
  188.5420  178.1390  147.5960 C   0  0  0  0  0  3  0  0  0  0  0  0
  192.4350  176.8710  148.2810 F   0  0  0  0  0  0  0  0  0  0  0  0
  189.9790  178.0200  140.3390 C   0  0  0  0  0  2  0  0  0  0  0  0
  191.3470  177.5280  140.4220 N   0  0  0  0  0  2  0  0  0  0  0  0
  193.8470  176.7330  140.0510 F   0  0  0  0  0  0  0  0  0  0  0  0
  191.5200  176.5250  139.3800 C   0  0  2  0  0  3  0  0  0  0  0  0
  193.0090  176.3620  139.0120 C   0  0  1  0  0  3  0  0  0  0  0  0
  192.7570  176.3730  136.7790 C   0  0  0  0  0  2  0  0  0  0  0  0
  191.2220  176.2890  136.8690 C   0  0  0  0  0  2  0  0  0  0  0  0
  190.6900  176.9280  138.1550 C   0  0  0  0  0  2  0  0  0  0  0  0
  193.3180  177.0930  137.8530 O   0  0  0  0  0  0  0  0  0  0  0  0
  1 12  1  0  0  0  0
  2  8  1  0  0  0  0
  3 11  2  0  0  0  0
  4  9  1  6  0  0  0
  4 14  1  0  0  0  0
  5 10  2  0  0  0  0
  6  2  2  0  0  0  0
  6  5  1  0  0  0  0
  8  3  1  0  0  0  0
  8  1  2  0  0  0  0
 10  1  1  0  0  0  0
 11 15  1  0  0  0  0
 11 18  1  0  0  0  0
 12 18  2  0  0  0  0
 13  7  2  0  0  0  0
 14 15  1  0  0  0  0
 15 21  1  1  0  0  0
 16  7  1  0  0  0  0
 16  9  1  0  0  0  0
 17  7  1  1  0  0  0
 17  4  1  0  0  0  0
 17  3  1  0  0  0  0
 19 25  1  0  0  0  0
 19 20  1  0  0  0  0
 21 23  1  0  0  0  0
 21 24  2  0  0  0  0
 22 20  2  0  0  0  0
 23 19  2  0  0  0  0
 24 22  1  0  0  0  0
 26 27  1  0  0  0  0
 26 16  1  0  0  0  0
 29 27  1  1  0  0  0
 30 29  1  0  0  0  0
 30 28  1  1  0  0  0
 31 32  1  0  0  0  0
 31 34  1  0  0  0  0
 32 33  1  0  0  0  0
 33 29  1  0  0  0  0
 34 30  1  0  0  0  0
M  END
>  <MODEL>
5

>  <REMARK>
 VINA RESULT:      -9.0      3.088      5.880
  Name = 
  4 active torsions:
  status: ('A' for Active; 'I' for Inactive)
    1  A    between atoms: N_3  and  C_13
    2  A    between atoms: N_3  and  C_17
    3  A    between atoms: C_12  and  C_28
    4  A    between atoms: C_17  and  N_29
                            x       y       z     vdW  Elec       q    Type
                         _______ _______ _______ _____ _____    ______ ____

>  <TORSDO>
F 4

$$$$
=
 OpenBabel10252415003D

 34 39  0  0  1  0  0  0  0  0999 V2000
  183.4480  178.5510  140.8970 C   0  0  0  0  0  0  0  0  0  0  0  0
  184.9270  178.9810  142.7720 C   0  0  0  0  0  3  0  0  0  0  0  0
  185.8740  178.4980  140.5540 C   0  0  0  0  0  0  0  0  0  0  0  0
  188.3500  178.8000  140.0560 N   0  0  1  0  0  0  0  0  0  0  0  0
  182.5280  179.0060  143.0900 C   0  0  0  0  0  3  0  0  0  0  0  0
  183.8180  179.1440  143.6060 C   0  0  0  0  0  3  0  0  0  0  0  0
  187.7760  177.5700  141.9660 C   0  0  0  0  0  0  0  0  0  0  0  0
  184.7620  178.6710  141.4120 C   0  0  0  0  0  0  0  0  0  0  0  0
  189.5700  178.2700  140.6910 C   0  0  0  0  0  2  0  0  0  0  0  0
  182.3430  178.7130  141.7370 C   0  0  0  0  0  3  0  0  0  0  0  0
  185.6530  178.2470  139.1810 C   0  0  0  0  0  0  0  0  0  0  0  0
  183.2480  178.2970  139.5420 C   0  0  0  0  0  3  0  0  0  0  0  0
  187.1040  176.9580  142.8370 O   0  0  0  0  0  0  0  0  0  0  0  0
  188.1130  177.8940  138.9300 C   0  0  0  0  0  2  0  0  0  0  0  0
  186.8110  178.2230  138.2150 C   0  0  1  0  0  3  0  0  0  0  0  0
  189.1500  177.3710  141.7510 N   0  0  0  0  0  0  0  0  0  0  0  0
  187.2920  178.6520  141.0860 C   0  0  2  0  0  3  0  0  0  0  0  0
  184.3420  178.1630  138.6910 C   0  0  0  0  0  3  0  0  0  0  0  0
  186.5270  175.0180  136.1710 C   0  0  0  0  0  0  0  0  0  0  0  0
  186.2090  175.5340  134.9100 C   0  0  0  0  0  3  0  0  0  0  0  0
  186.6070  177.2720  137.0710 C   0  0  0  0  0  0  0  0  0  0  0  0
  186.0910  176.9140  134.7290 C   0  0  0  0  0  3  0  0  0  0  0  0
  186.7250  175.8840  137.2500 C   0  0  0  0  0  3  0  0  0  0  0  0
  186.2900  177.7820  135.8070 C   0  0  0  0  0  3  0  0  0  0  0  0
  186.6400  173.6810  136.3460 F   0  0  0  0  0  0  0  0  0  0  0  0
  190.0460  176.5510  142.5540 C   0  0  0  0  0  2  0  0  0  0  0  0
  190.5960  177.3330  143.6520 N   0  0  0  0  0  2  0  0  0  0  0  0
  188.5100  178.1790  145.0480 F   0  0  0  0  0  0  0  0  0  0  0  0
  190.3490  176.5990  144.8850 C   0  0  2  0  0  3  0  0  0  0  0  0
  189.3400  177.3460  145.7800 C   0  0  1  0  0  3  0  0  0  0  0  0
  190.4580  177.1310  147.7180 C   0  0  0  0  0  2  0  0  0  0  0  0
  191.4790  176.1490  147.1150 C   0  0  0  0  0  2  0  0  0  0  0  0
  191.6810  176.3850  145.6160 C   0  0  0  0  0  2  0  0  0  0  0  0
  190.0060  178.0780  146.7780 O   0  0  0  0  0  0  0  0  0  0  0  0
  1  8  1  0  0  0  0
  1 10  2  0  0  0  0
  2  6  1  0  0  0  0
  3  8  1  0  0  0  0
  4 14  1  6  0  0  0
  4  9  1  0  0  0  0
  4 17  1  0  0  0  0
  5  6  2  0  0  0  0
  7 13  2  0  0  0  0
  8  2  2  0  0  0  0
  9 16  1  0  0  0  0
 10  5  1  0  0  0  0
 11  3  2  0  0  0  0
 12  1  1  0  0  0  0
 15 21  1  6  0  0  0
 15 14  1  0  0  0  0
 15 11  1  0  0  0  0
 16  7  1  0  0  0  0
 16 26  1  0  0  0  0
 17  3  1  6  0  0  0
 17  7  1  0  0  0  0
 18 11  1  0  0  0  0
 18 12  2  0  0  0  0
 19 25  1  0  0  0  0
 19 23  1  0  0  0  0
 20 19  2  0  0  0  0
 21 23  2  0  0  0  0
 22 20  1  0  0  0  0
 22 24  2  0  0  0  0
 24 21  1  0  0  0  0
 26 27  1  0  0  0  0
 29 27  1  6  0  0  0
 29 33  1  0  0  0  0
 29 30  1  0  0  0  0
 30 28  1  6  0  0  0
 30 34  1  0  0  0  0
 32 31  1  0  0  0  0
 33 32  1  0  0  0  0
 34 31  1  0  0  0  0
M  END
>  <MODEL>
6

>  <REMARK>
 VINA RESULT:      -8.7      2.621      6.827
  Name = 
  4 active torsions:
  status: ('A' for Active; 'I' for Inactive)
    1  A    between atoms: N_3  and  C_13
    2  A    between atoms: N_3  and  C_17
    3  A    between atoms: C_12  and  C_28
    4  A    between atoms: C_17  and  N_29
                            x       y       z     vdW  Elec       q    Type
                         _______ _______ _______ _____ _____    ______ ____

>  <TORSDO>
F 4

$$$$
=
 OpenBabel10252415003D

 34 39  0  0  1  0  0  0  0  0999 V2000
  184.7430  178.4110  144.8060 C   0  0  0  0  0  0  0  0  0  0  0  0
  187.1640  178.3810  144.9720 C   0  0  0  0  0  3  0  0  0  0  0  0
  186.0920  178.6070  142.7690 C   0  0  0  0  0  0  0  0  0  0  0  0
  187.4230  179.1890  140.6820 N   0  0  1  0  0  0  0  0  0  0  0  0
  185.8100  178.1670  146.9660 C   0  0  0  0  0  3  0  0  0  0  0  0
  187.0640  178.2320  146.3570 C   0  0  0  0  0  3  0  0  0  0  0  0
  188.2200  177.4350  142.0140 C   0  0  0  0  0  0  0  0  0  0  0  0
  186.0100  178.4600  144.1750 C   0  0  0  0  0  0  0  0  0  0  0  0
  188.6020  178.5760  140.0440 C   0  0  0  0  0  2  0  0  0  0  0  0
  184.6510  178.2600  146.1920 C   0  0  0  0  0  3  0  0  0  0  0  0
  184.9020  178.7430  142.0190 C   0  0  0  0  0  0  0  0  0  0  0  0
  183.5800  178.5410  144.0510 C   0  0  0  0  0  3  0  0  0  0  0  0
  188.3030  176.5600  142.9160 O   0  0  0  0  0  0  0  0  0  0  0  0
  186.2880  178.6270  139.9450 C   0  0  0  0  0  2  0  0  0  0  0  0
  184.9630  179.0660  140.5470 C   0  0  1  0  0  3  0  0  0  0  0  0
  188.9400  177.3890  140.8080 N   0  0  0  0  0  0  0  0  0  0  0  0
  187.4460  178.6900  142.0790 C   0  0  2  0  0  3  0  0  0  0  0  0
  183.6610  178.7210  142.6730 C   0  0  0  0  0  3  0  0  0  0  0  0
  182.0730  178.6450  138.0960 C   0  0  0  0  0  0  0  0  0  0  0  0
  181.7270  177.3090  138.3210 C   0  0  0  0  0  3  0  0  0  0  0  0
  183.8290  178.4680  139.7650 C   0  0  0  0  0  0  0  0  0  0  0  0
  182.4280  176.5530  139.2640 C   0  0  0  0  0  3  0  0  0  0  0  0
  183.1210  179.2250  138.8160 C   0  0  0  0  0  3  0  0  0  0  0  0
  183.4770  177.1320  139.9850 C   0  0  0  0  0  3  0  0  0  0  0  0
  181.3930  179.3760  137.1820 F   0  0  0  0  0  0  0  0  0  0  0  0
  189.9760  176.4310  140.4500 C   0  0  0  0  0  2  0  0  0  0  0  0
  191.0720  177.1050  139.7680 N   0  0  0  0  0  2  0  0  0  0  0  0
  193.6990  176.7980  139.9090 F   0  0  0  0  0  0  0  0  0  0  0  0
  191.6300  176.1730  138.7990 C   0  0  2  0  0  3  0  0  0  0  0  0
  193.1660  176.2970  138.7330 C   0  0  1  0  0  3  0  0  0  0  0  0
  193.3590  176.3040  136.4940 C   0  0  0  0  0  2  0  0  0  0  0  0
  191.8790  175.9340  136.2820 C   0  0  0  0  0  2  0  0  0  0  0  0
  190.9960  176.4370  137.4270 C   0  0  0  0  0  2  0  0  0  0  0  0
  193.5540  177.0950  137.6440 O   0  0  0  0  0  0  0  0  0  0  0  0
  1 10  2  0  0  0  0
  2  6  1  0  0  0  0
  3  8  1  0  0  0  0
  4 14  1  6  0  0  0
  4 17  1  0  0  0  0
  6  5  2  0  0  0  0
  7 13  2  0  0  0  0
  8  1  1  0  0  0  0
  8  2  2  0  0  0  0
  9  4  1  0  0  0  0
  9 16  1  0  0  0  0
 10  5  1  0  0  0  0
 11 18  1  0  0  0  0
 11  3  2  0  0  0  0
 12  1  1  0  0  0  0
 14 15  1  0  0  0  0
 15 21  1  6  0  0  0
 15 11  1  0  0  0  0
 16  7  1  0  0  0  0
 17  7  1  6  0  0  0
 17  3  1  0  0  0  0
 18 12  2  0  0  0  0
 19 20  2  0  0  0  0
 19 23  1  0  0  0  0
 20 22  1  0  0  0  0
 21 24  1  0  0  0  0
 22 24  2  0  0  0  0
 23 21  2  0  0  0  0
 25 19  1  0  0  0  0
 26 16  1  0  0  0  0
 27 26  1  0  0  0  0
 29 27  1  1  0  0  0
 30 29  1  0  0  0  0
 30 28  1  1  0  0  0
 31 34  1  0  0  0  0
 32 31  1  0  0  0  0
 32 33  1  0  0  0  0
 33 29  1  0  0  0  0
 34 30  1  0  0  0  0
M  END
>  <MODEL>
7

>  <REMARK>
 VINA RESULT:      -8.5      2.469      3.216
  Name = 
  4 active torsions:
  status: ('A' for Active; 'I' for Inactive)
    1  A    between atoms: N_3  and  C_13
    2  A    between atoms: N_3  and  C_17
    3  A    between atoms: C_12  and  C_28
    4  A    between atoms: C_17  and  N_29
                            x       y       z     vdW  Elec       q    Type
                         _______ _______ _______ _____ _____    ______ ____

>  <TORSDO>
F 4

$$$$
=
 OpenBabel10252415003D

 34 39  0  0  1  0  0  0  0  0999 V2000
  190.9300  176.8150  139.0610 C   0  0  0  0  0  0  0  0  0  0  0  0
  189.8110  176.7820  136.9070 C   0  0  0  0  0  3  0  0  0  0  0  0
  188.5970  177.5490  138.9050 C   0  0  0  0  0  0  0  0  0  0  0  0
  186.3200  178.6680  138.7450 N   0  0  1  0  0  0  0  0  0  0  0  0
  192.1080  176.0420  137.0910 C   0  0  0  0  0  3  0  0  0  0  0  0
  190.9730  176.2810  136.3150 C   0  0  0  0  0  3  0  0  0  0  0  0
  186.6080  176.6440  137.6010 C   0  0  0  0  0  0  0  0  0  0  0  0
  189.7670  177.0450  138.2860 C   0  0  0  0  0  0  0  0  0  0  0  0
  185.0450  178.2590  138.1280 C   0  0  0  0  0  2  0  0  0  0  0  0
  192.0880  176.3120  138.4610 C   0  0  0  0  0  3  0  0  0  0  0  0
  188.6230  177.8540  140.2840 C   0  0  0  0  0  0  0  0  0  0  0  0
  190.9370  177.1150  140.4200 C   0  0  0  0  0  3  0  0  0  0  0  0
  187.1110  175.5680  137.1820 O   0  0  0  0  0  0  0  0  0  0  0  0
  186.1690  178.2960  140.1530 C   0  0  0  0  0  2  0  0  0  0  0  0
  187.4500  178.5440  140.9340 C   0  0  1  0  0  3  0  0  0  0  0  0
  185.2310  176.9200  137.5970 N   0  0  0  0  0  0  0  0  0  0  0  0
  187.3470  177.8280  138.0820 C   0  0  2  0  0  3  0  0  0  0  0  0
  189.7980  177.6450  141.0220 C   0  0  0  0  0  3  0  0  0  0  0  0
  188.1150  177.3180  144.4820 C   0  0  0  0  0  0  0  0  0  0  0  0
  186.8400  177.4330  145.0460 C   0  0  0  0  0  3  0  0  0  0  0  0
  187.2530  178.1490  142.3690 C   0  0  0  0  0  0  0  0  0  0  0  0
  185.7740  177.9040  144.2750 C   0  0  0  0  0  3  0  0  0  0  0  0
  188.3220  177.6750  143.1470 C   0  0  0  0  0  3  0  0  0  0  0  0
  185.9800  178.2620  142.9390 C   0  0  0  0  0  3  0  0  0  0  0  0
  189.1470  176.8620  145.2290 F   0  0  0  0  0  0  0  0  0  0  0  0
  184.1830  176.1030  137.0040 C   0  0  0  0  0  2  0  0  0  0  0  0
  183.7850  175.0470  137.9240 N   0  0  0  0  0  2  0  0  0  0  0  0
  185.3060  172.9170  138.3390 F   0  0  0  0  0  0  0  0  0  0  0  0
  183.4290  173.8790  137.1310 C   0  0  2  0  0  3  0  0  0  0  0  0
  184.5400  172.8110  137.1900 C   0  0  1  0  0  3  0  0  0  0  0  0
  184.6030  172.3400  134.9930 C   0  0  0  0  0  2  0  0  0  0  0  0
  183.3370  173.1640  134.6950 C   0  0  0  0  0  2  0  0  0  0  0  0
  183.1620  174.3180  135.6860 C   0  0  0  0  0  2  0  0  0  0  0  0
  185.3590  172.8830  136.0510 O   0  0  0  0  0  0  0  0  0  0  0  0
  1 12  1  0  0  0  0
  2  8  1  0  0  0  0
  3 11  2  0  0  0  0
  4  9  1  6  0  0  0
  4 14  1  0  0  0  0
  5 10  2  0  0  0  0
  6  2  2  0  0  0  0
  6  5  1  0  0  0  0
  8  3  1  0  0  0  0
  8  1  2  0  0  0  0
 10  1  1  0  0  0  0
 11 15  1  0  0  0  0
 11 18  1  0  0  0  0
 12 18  2  0  0  0  0
 13  7  2  0  0  0  0
 14 15  1  0  0  0  0
 15 21  1  1  0  0  0
 16  7  1  0  0  0  0
 16  9  1  0  0  0  0
 17  7  1  1  0  0  0
 17  4  1  0  0  0  0
 17  3  1  0  0  0  0
 19 20  1  0  0  0  0
 19 25  1  0  0  0  0
 21 24  2  0  0  0  0
 21 23  1  0  0  0  0
 22 20  2  0  0  0  0
 23 19  2  0  0  0  0
 24 22  1  0  0  0  0
 26 16  1  0  0  0  0
 26 27  1  0  0  0  0
 29 30  1  0  0  0  0
 29 27  1  1  0  0  0
 30 28  1  1  0  0  0
 31 34  1  0  0  0  0
 32 31  1  0  0  0  0
 32 33  1  0  0  0  0
 33 29  1  0  0  0  0
 34 30  1  0  0  0  0
M  END
>  <MODEL>
8

>  <REMARK>
 VINA RESULT:      -8.1      3.483      6.213
  Name = 
  4 active torsions:
  status: ('A' for Active; 'I' for Inactive)
    1  A    between atoms: N_3  and  C_13
    2  A    between atoms: N_3  and  C_17
    3  A    between atoms: C_12  and  C_28
    4  A    between atoms: C_17  and  N_29
                            x       y       z     vdW  Elec       q    Type
                         _______ _______ _______ _____ _____    ______ ____

>  <TORSDO>
F 4

$$$$
=
 OpenBabel10252415003D

 34 39  0  0  1  0  0  0  0  0999 V2000
  191.6730  176.4440  138.1450 C   0  0  0  0  0  0  0  0  0  0  0  0
  190.2050  176.5530  136.2150 C   0  0  0  0  0  3  0  0  0  0  0  0
  189.4090  177.3450  138.4040 C   0  0  0  0  0  0  0  0  0  0  0  0
  187.2270  178.6280  138.6560 N   0  0  1  0  0  0  0  0  0  0  0  0
  192.4380  175.6470  135.9900 C   0  0  0  0  0  3  0  0  0  0  0  0
  191.2080  175.9890  135.4240 C   0  0  0  0  0  3  0  0  0  0  0  0
  187.1650  176.6220  137.4470 C   0  0  0  0  0  0  0  0  0  0  0  0
  190.4150  176.7780  137.5860 C   0  0  0  0  0  0  0  0  0  0  0  0
  185.8390  178.3280  138.2610 C   0  0  0  0  0  2  0  0  0  0  0  0
  192.6710  175.8770  137.3470 C   0  0  0  0  0  3  0  0  0  0  0  0
  189.6920  177.6070  139.7640 C   0  0  0  0  0  0  0  0  0  0  0  0
  191.9330  176.7030  139.4880 C   0  0  0  0  0  3  0  0  0  0  0  0
  187.5080  175.5260  136.9290 O   0  0  0  0  0  0  0  0  0  0  0  0
  187.2910  178.2260  140.0630 C   0  0  0  0  0  2  0  0  0  0  0  0
  188.7010  178.3600  140.6170 C   0  0  1  0  0  3  0  0  0  0  0  0
  185.8320  176.9960  137.6830 N   0  0  0  0  0  0  0  0  0  0  0  0
  188.0620  177.7360  137.8130 C   0  0  2  0  0  3  0  0  0  0  0  0
  190.9560  177.2940  140.2850 C   0  0  0  0  0  3  0  0  0  0  0  0
  189.7580  177.9260  144.2540 C   0  0  0  0  0  0  0  0  0  0  0  0
  188.7140  177.1340  144.7420 C   0  0  0  0  0  3  0  0  0  0  0  0
  188.7220  177.9380  142.0580 C   0  0  0  0  0  0  0  0  0  0  0  0
  187.6750  176.7450  143.8910 C   0  0  0  0  0  3  0  0  0  0  0  0
  189.7640  178.3280  142.9150 C   0  0  0  0  0  3  0  0  0  0  0  0
  187.6800  177.1450  142.5520 C   0  0  0  0  0  3  0  0  0  0  0  0
  190.7630  178.3030  145.0780 F   0  0  0  0  0  0  0  0  0  0  0  0
  184.6390  176.2730  137.2650 C   0  0  0  0  0  2  0  0  0  0  0  0
  183.6480  177.1990  136.7370 N   0  0  0  0  0  2  0  0  0  0  0  0
  182.6670  179.3550  137.9220 F   0  0  0  0  0  0  0  0  0  0  0  0
  182.4070  176.9820  137.4670 C   0  0  2  0  0  3  0  0  0  0  0  0
  182.0850  178.1840  138.3780 C   0  0  1  0  0  3  0  0  0  0  0  0
  181.5420  177.0130  140.2180 C   0  0  0  0  0  2  0  0  0  0  0  0
  181.5560  175.6680  139.4680 C   0  0  0  0  0  2  0  0  0  0  0  0
  182.5240  175.6880  138.2820 C   0  0  0  0  0  2  0  0  0  0  0  0
  182.4820  177.9260  139.7010 O   0  0  0  0  0  0  0  0  0  0  0  0
  1 12  1  0  0  0  0
  2  8  1  0  0  0  0
  3 11  2  0  0  0  0
  4  9  1  6  0  0  0
  4 14  1  0  0  0  0
  5 10  2  0  0  0  0
  6  5  1  0  0  0  0
  6  2  2  0  0  0  0
  7 16  1  0  0  0  0
  8  1  2  0  0  0  0
  8  3  1  0  0  0  0
 10  1  1  0  0  0  0
 11 18  1  0  0  0  0
 11 15  1  0  0  0  0
 12 18  2  0  0  0  0
 13  7  2  0  0  0  0
 14 15  1  0  0  0  0
 15 21  1  1  0  0  0
 16  9  1  0  0  0  0
 17  7  1  1  0  0  0
 17  3  1  0  0  0  0
 17  4  1  0  0  0  0
 19 20  1  0  0  0  0
 19 25  1  0  0  0  0
 21 24  2  0  0  0  0
 21 23  1  0  0  0  0
 22 20  2  0  0  0  0
 23 19  2  0  0  0  0
 24 22  1  0  0  0  0
 26 16  1  0  0  0  0
 27 26  1  0  0  0  0
 29 27  1  1  0  0  0
 29 33  1  0  0  0  0
 29 30  1  0  0  0  0
 30 28  1  6  0  0  0
 30 34  1  0  0  0  0
 32 31  1  0  0  0  0
 33 32  1  0  0  0  0
 34 31  1  0  0  0  0
M  END
>  <MODEL>
9

>  <REMARK>
 VINA RESULT:      -8.1      3.053      6.987
  Name = 
  4 active torsions:
  status: ('A' for Active; 'I' for Inactive)
    1  A    between atoms: N_3  and  C_13
    2  A    between atoms: N_3  and  C_17
    3  A    between atoms: C_12  and  C_28
    4  A    between atoms: C_17  and  N_29
                            x       y       z     vdW  Elec       q    Type
                         _______ _______ _______ _____ _____    ______ ____

>  <TORSDO>
F 4

$$$$
