=
 OpenBabel10262421273D

 32 33  0  0  1  0  0  0  0  0999 V2000
  183.4000  179.0280  141.7880 C   0  0  0  0  0  2  0  0  0  0  0  0
  186.5560  177.6680  146.1480 C   0  0  0  0  0  2  0  0  0  0  0  0
  184.8340  178.5240  144.5770 C   0  0  2  0  0  3  0  0  0  0  0  0
  186.8660  178.1510  143.0130 C   0  0  0  0  0  2  0  0  0  0  0  0
  184.5400  178.0740  142.1060 C   0  0  0  0  0  2  0  0  0  0  0  0
  187.1390  176.8790  143.8110 C   0  0  2  0  0  3  0  0  0  0  0  0
  182.3810  178.5730  144.1560 C   0  0  0  0  0  2  0  0  0  0  0  0
  185.4380  178.6890  143.1710 C   0  0  1  0  0  3  0  0  0  0  0  0
  183.5630  179.3460  144.7310 C   0  0  0  0  0  2  0  0  0  0  0  0
  182.1550  178.7830  142.6490 C   0  0  1  0  0  3  0  0  0  0  0  0
  185.8120  178.9110  145.6760 C   0  0  0  0  0  2  0  0  0  0  0  0
  187.6720  177.2670  145.1890 C   0  0  0  0  0  2  0  0  0  0  0  0
  180.1580  179.7590  141.3760 C   0  0  0  0  0  0  0  0  0  0  0  0
  181.1440  179.8090  142.4130 N   0  0  0  0  0  2  0  0  0  0  0  0
  180.0610  178.7540  140.6230 O   0  0  0  0  0  0  0  0  0  0  0  0
  179.2340  180.9080  141.1880 C   0  0  0  0  0  1  0  0  0  0  0  0
  188.1390  176.0910  143.1080 N   0  0  0  0  0  2  0  0  0  0  0  0
  188.7860  176.9670  142.1400 C   0  0  0  0  0  2  0  0  0  0  0  0
  190.3010  176.8360  142.2490 C   0  0  2  0  0  3  0  0  0  0  0  0
  190.8090  177.5710  143.4810 C   0  0  0  0  0  2  0  0  0  0  0  0
  191.3850  176.9580  145.7800 C   0  0  0  0  0  2  0  0  0  0  0  0
  191.3540  176.6160  144.4960 C   0  0  0  0  0  0  0  0  0  0  0  0
  191.8690  175.2840  144.0730 C   0  0  0  0  0  1  0  0  0  0  0  0
  190.9560  177.4180  141.0080 C   0  0  0  0  0  2  0  0  0  0  0  0
  190.2230  176.9750  139.7470 C   0  0  1  0  0  3  0  0  0  0  0  0
  189.4630  178.1360  139.1010 C   0  0  0  0  0  2  0  0  0  0  0  0
  188.0390  177.7750  138.6900 C   0  0  0  0  0  2  0  0  0  0  0  0
  187.1200  178.5320  139.4190 O   0  0  0  0  0  1  0  0  0  0  0  0
  191.1750  176.2910  138.7660 C   0  0  0  0  0  2  0  0  0  0  0  0
  190.6800  175.0140  138.3900 O   0  0  0  0  0  0  0  0  0  0  0  0
  189.8750  174.8580  137.2950 C   0  0  0  0  0  0  0  0  0  0  0  0
  189.1660  174.7210  136.3260 C   0  0  0  0  0  3  0  0  0  0  0  0
  1  5  1  0  0  0  0
  1 10  1  0  0  0  0
  3  9  1  6  0  0  0
  3 11  1  0  0  0  0
  4  8  1  0  0  0  0
  4  6  1  0  0  0  0
  6 17  1  6  0  0  0
  6 12  1  0  0  0  0
  7  9  1  0  0  0  0
  8  5  1  6  0  0  0
  8  3  1  0  0  0  0
 10 14  1  1  0  0  0
 10  7  1  0  0  0  0
 11  2  1  0  0  0  0
 12  2  1  0  0  0  0
 13 14  1  0  0  0  0
 15 13  2  0  0  0  0
 16 13  1  0  0  0  0
 18 19  1  0  0  0  0
 18 17  1  0  0  0  0
 19 24  1  6  0  0  0
 19 20  1  0  0  0  0
 20 22  1  0  0  0  0
 22 21  2  0  0  0  0
 23 22  1  0  0  0  0
 25 29  1  6  0  0  0
 25 24  1  0  0  0  0
 26 25  1  0  0  0  0
 27 26  1  0  0  0  0
 27 28  1  0  0  0  0
 30 29  1  0  0  0  0
 31 30  1  0  0  0  0
 32 31  3  0  0  0  0
M  END
>  <MODEL>
1

>  <REMARK>
 VINA RESULT:      -7.6      0.000      0.000
  Name = 
  13 active torsions:
  status: ('A' for Active; 'I' for Inactive)
    1  A    between atoms: C_5  and  C_25
    2  A    between atoms: O_6  and  C_7
    3  A    between atoms: O_6  and  C_32
    4  A    between atoms: N_10  and  C_24
    5  A    between atoms: C_11  and  C_27
    6  A    between atoms: C_11  and  C_30
    7  A    between atoms: C_11  and  C_32
    8  A    between atoms: C_14  and  N_15
    9  A    between atoms: N_15  and  C_26
   10  A    between atoms: C_16  and  C_25
   11  A    between atoms: C_16  and  C_26
   12  A    between atoms: C_16  and  C_27
   13  A    between atoms: C_18  and  C_30
                            x       y       z     vdW  Elec       q    Type
                         _______ _______ _______ _____ _____    ______ ____

>  <TORSDO>
F 13

$$$$
=
 OpenBabel10262421273D

 32 33  0  0  1  0  0  0  0  0999 V2000
  192.1090  176.1790  138.2440 C   0  0  0  0  0  2  0  0  0  0  0  0
  186.6710  177.2820  138.0680 C   0  0  0  0  0  2  0  0  0  0  0  0
  189.0030  176.5270  137.6750 C   0  0  2  0  0  3  0  0  0  0  0  0
  189.3390  178.5310  139.2820 C   0  0  0  0  0  2  0  0  0  0  0  0
  191.0280  176.6930  139.1810 C   0  0  0  0  0  2  0  0  0  0  0  0
  188.0990  178.0380  140.0210 C   0  0  2  0  0  3  0  0  0  0  0  0
  190.3840  174.5120  137.1970 C   0  0  0  0  0  2  0  0  0  0  0  0
  189.9900  177.4720  138.3840 C   0  0  1  0  0  3  0  0  0  0  0  0
  189.6960  175.7260  136.5830 C   0  0  0  0  0  2  0  0  0  0  0  0
  191.8130  174.7760  137.7020 C   0  0  1  0  0  3  0  0  0  0  0  0
  187.8220  177.2710  137.0710 C   0  0  0  0  0  2  0  0  0  0  0  0
  186.8670  178.3240  139.1630 C   0  0  0  0  0  2  0  0  0  0  0  0
  194.0850  173.8300  136.9930 C   0  0  0  0  0  0  0  0  0  0  0  0
  192.7980  174.3830  136.6980 N   0  0  0  0  0  2  0  0  0  0  0  0
  194.4250  173.5770  138.1780 O   0  0  0  0  0  0  0  0  0  0  0  0
  195.0320  173.5470  135.8830 C   0  0  0  0  0  1  0  0  0  0  0  0
  187.9890  178.7530  141.2830 N   0  0  0  0  0  2  0  0  0  0  0  0
  187.2260  177.9140  142.1960 C   0  0  0  0  0  2  0  0  0  0  0  0
  188.0650  177.5850  143.4260 C   0  0  2  0  0  3  0  0  0  0  0  0
  189.0740  176.4920  143.1020 C   0  0  0  0  0  2  0  0  0  0  0  0
  191.4380  176.0400  143.5440 C   0  0  0  0  0  2  0  0  0  0  0  0
  190.4710  176.9390  143.3940 C   0  0  0  0  0  0  0  0  0  0  0  0
  190.7830  178.3900  143.5250 C   0  0  0  0  0  1  0  0  0  0  0  0
  187.1610  177.1180  144.5540 C   0  0  0  0  0  2  0  0  0  0  0  0
  187.4640  177.8760  145.8430 C   0  0  1  0  0  3  0  0  0  0  0  0
  186.1800  178.3230  146.5470 C   0  0  0  0  0  2  0  0  0  0  0  0
  185.3100  179.2430  145.6970 C   0  0  0  0  0  2  0  0  0  0  0  0
  183.9600  178.9560  145.9020 O   0  0  0  0  0  1  0  0  0  0  0  0
  188.3730  177.0610  146.7620 C   0  0  0  0  0  2  0  0  0  0  0  0
  189.6750  177.6270  146.8130 O   0  0  0  0  0  0  0  0  0  0  0  0
  190.7730  176.8590  147.0930 C   0  0  0  0  0  0  0  0  0  0  0  0
  191.7410  176.1800  147.3400 C   0  0  0  0  0  3  0  0  0  0  0  0
  1  5  1  0  0  0  0
  2 12  1  0  0  0  0
  3  9  1  6  0  0  0
  3  8  1  0  0  0  0
  4  6  1  0  0  0  0
  6 17  1  1  0  0  0
  7 10  1  0  0  0  0
  8  5  1  1  0  0  0
  8  4  1  0  0  0  0
  9  7  1  0  0  0  0
 10 14  1  6  0  0  0
 10  1  1  0  0  0  0
 11  3  1  0  0  0  0
 11  2  1  0  0  0  0
 12  6  1  0  0  0  0
 13 15  2  0  0  0  0
 14 13  1  0  0  0  0
 16 13  1  0  0  0  0
 17 18  1  0  0  0  0
 19 18  1  6  0  0  0
 19 24  1  0  0  0  0
 20 22  1  0  0  0  0
 20 19  1  0  0  0  0
 22 23  1  0  0  0  0
 22 21  2  0  0  0  0
 25 24  1  6  0  0  0
 25 26  1  0  0  0  0
 25 29  1  0  0  0  0
 27 28  1  0  0  0  0
 27 26  1  0  0  0  0
 29 30  1  0  0  0  0
 30 31  1  0  0  0  0
 31 32  3  0  0  0  0
M  END
>  <MODEL>
2

>  <REMARK>
 VINA RESULT:      -7.2      3.360      8.940
  Name = 
  13 active torsions:
  status: ('A' for Active; 'I' for Inactive)
    1  A    between atoms: C_5  and  C_25
    2  A    between atoms: O_6  and  C_7
    3  A    between atoms: O_6  and  C_32
    4  A    between atoms: N_10  and  C_24
    5  A    between atoms: C_11  and  C_27
    6  A    between atoms: C_11  and  C_30
    7  A    between atoms: C_11  and  C_32
    8  A    between atoms: C_14  and  N_15
    9  A    between atoms: N_15  and  C_26
   10  A    between atoms: C_16  and  C_25
   11  A    between atoms: C_16  and  C_26
   12  A    between atoms: C_16  and  C_27
   13  A    between atoms: C_18  and  C_30
                            x       y       z     vdW  Elec       q    Type
                         _______ _______ _______ _____ _____    ______ ____

>  <TORSDO>
F 13

$$$$
=
 OpenBabel10262421273D

 32 33  0  0  1  0  0  0  0  0999 V2000
  189.0410  177.0710  144.4910 C   0  0  0  0  0  2  0  0  0  0  0  0
  183.9530  179.2820  144.2790 C   0  0  0  0  0  2  0  0  0  0  0  0
  186.1040  178.2120  144.9020 C   0  0  2  0  0  3  0  0  0  0  0  0
  186.0330  177.8470  142.3380 C   0  0  0  0  0  2  0  0  0  0  0  0
  188.2190  177.9300  143.5440 C   0  0  0  0  0  2  0  0  0  0  0  0
  185.4560  179.2560  142.2380 C   0  0  2  0  0  3  0  0  0  0  0  0
  187.9870  178.3370  146.5250 C   0  0  0  0  0  2  0  0  0  0  0  0
  186.7470  177.5590  143.6640 C   0  0  1  0  0  3  0  0  0  0  0  0
  186.6770  177.6350  146.1880 C   0  0  0  0  0  2  0  0  0  0  0  0
  189.2310  177.7140  145.8700 C   0  0  1  0  0  3  0  0  0  0  0  0
  184.5910  178.0560  144.9180 C   0  0  0  0  0  2  0  0  0  0  0  0
  184.0190  179.2390  142.7570 C   0  0  0  0  0  2  0  0  0  0  0  0
  191.3010  176.5130  146.7840 C   0  0  0  0  0  0  0  0  0  0  0  0
  189.8970  176.7950  146.7880 N   0  0  0  0  0  2  0  0  0  0  0  0
  192.0810  177.1180  146.0010 O   0  0  0  0  0  0  0  0  0  0  0  0
  191.8470  175.4950  147.7180 C   0  0  0  0  0  1  0  0  0  0  0  0
  185.4650  179.6690  140.8440 N   0  0  0  0  0  2  0  0  0  0  0  0
  185.7100  178.4810  140.0380 C   0  0  0  0  0  2  0  0  0  0  0  0
  184.8210  178.4990  138.7990 C   0  0  2  0  0  3  0  0  0  0  0  0
  183.6140  177.5930  139.0000 C   0  0  0  0  0  2  0  0  0  0  0  0
  182.1880  179.5790  138.9050 C   0  0  0  0  0  2  0  0  0  0  0  0
  182.4120  178.3760  139.4230 C   0  0  0  0  0  0  0  0  0  0  0  0
  181.4670  177.8160  140.4290 C   0  0  0  0  0  1  0  0  0  0  0  0
  185.6130  178.0250  137.5930 C   0  0  0  0  0  2  0  0  0  0  0  0
  187.0230  177.6100  137.9970 C   0  0  1  0  0  3  0  0  0  0  0  0
  187.3240  176.1660  137.5870 C   0  0  0  0  0  2  0  0  0  0  0  0
  186.1780  175.4970  136.8350 C   0  0  0  0  0  2  0  0  0  0  0  0
  185.9040  174.2440  137.3860 O   0  0  0  0  0  1  0  0  0  0  0  0
  188.0640  178.5920  137.4590 C   0  0  0  0  0  2  0  0  0  0  0  0
  188.9020  179.0610  138.5040 O   0  0  0  0  0  0  0  0  0  0  0  0
  189.4210  178.2050  139.4380 C   0  0  0  0  0  0  0  0  0  0  0  0
  189.8770  177.4490  140.2610 C   0  0  0  0  0  3  0  0  0  0  0  0
  1 10  1  0  0  0  0
  2 11  1  0  0  0  0
  3 11  1  1  0  0  0
  3  9  1  0  0  0  0
  5  8  1  0  0  0  0
  5  1  1  0  0  0  0
  6 17  1  6  0  0  0
  6  4  1  0  0  0  0
  6 12  1  0  0  0  0
  8  4  1  6  0  0  0
  8  3  1  0  0  0  0
  9  7  1  0  0  0  0
 10  7  1  0  0  0  0
 10 14  1  1  0  0  0
 12  2  1  0  0  0  0
 13 14  1  0  0  0  0
 13 16  1  0  0  0  0
 15 13  2  0  0  0  0
 18 17  1  0  0  0  0
 19 24  1  6  0  0  0
 19 20  1  0  0  0  0
 19 18  1  0  0  0  0
 20 22  1  0  0  0  0
 21 22  2  0  0  0  0
 22 23  1  0  0  0  0
 24 25  1  0  0  0  0
 25 29  1  6  0  0  0
 26 25  1  0  0  0  0
 27 28  1  0  0  0  0
 27 26  1  0  0  0  0
 29 30  1  0  0  0  0
 30 31  1  0  0  0  0
 31 32  3  0  0  0  0
M  END
>  <MODEL>
3

>  <REMARK>
 VINA RESULT:      -7.1      2.684      7.102
  Name = 
  13 active torsions:
  status: ('A' for Active; 'I' for Inactive)
    1  A    between atoms: C_5  and  C_25
    2  A    between atoms: O_6  and  C_7
    3  A    between atoms: O_6  and  C_32
    4  A    between atoms: N_10  and  C_24
    5  A    between atoms: C_11  and  C_27
    6  A    between atoms: C_11  and  C_30
    7  A    between atoms: C_11  and  C_32
    8  A    between atoms: C_14  and  N_15
    9  A    between atoms: N_15  and  C_26
   10  A    between atoms: C_16  and  C_25
   11  A    between atoms: C_16  and  C_26
   12  A    between atoms: C_16  and  C_27
   13  A    between atoms: C_18  and  C_30
                            x       y       z     vdW  Elec       q    Type
                         _______ _______ _______ _____ _____    ______ ____

>  <TORSDO>
F 13

$$$$
=
 OpenBabel10262421273D

 32 33  0  0  1  0  0  0  0  0999 V2000
  183.2580  178.9900  141.7860 C   0  0  0  0  0  2  0  0  0  0  0  0
  186.5300  177.7680  146.1000 C   0  0  0  0  0  2  0  0  0  0  0  0
  184.7690  178.5770  144.5500 C   0  0  2  0  0  3  0  0  0  0  0  0
  186.7520  178.1320  142.9430 C   0  0  0  0  0  2  0  0  0  0  0  0
  184.4000  178.0390  142.1060 C   0  0  0  0  0  2  0  0  0  0  0  0
  187.0400  176.8880  143.7790 C   0  0  2  0  0  3  0  0  0  0  0  0
  182.3060  178.6300  144.1970 C   0  0  0  0  0  2  0  0  0  0  0  0
  185.3330  178.6860  143.1210 C   0  0  1  0  0  3  0  0  0  0  0  0
  183.5090  179.4150  144.7090 C   0  0  0  0  0  2  0  0  0  0  0  0
  182.0370  178.7850  142.6910 C   0  0  1  0  0  3  0  0  0  0  0  0
  185.7810  178.9970  145.6050 C   0  0  0  0  0  2  0  0  0  0  0  0
  187.6150  177.3220  145.1260 C   0  0  0  0  0  2  0  0  0  0  0  0
  180.0650  179.7700  141.3870 C   0  0  0  0  0  0  0  0  0  0  0  0
  181.0260  179.8100  142.4470 N   0  0  0  0  0  2  0  0  0  0  0  0
  179.9900  178.7760  140.6170 O   0  0  0  0  0  0  0  0  0  0  0  0
  179.1390  180.9170  141.1930 C   0  0  0  0  0  1  0  0  0  0  0  0
  188.0140  176.0660  143.0770 N   0  0  0  0  0  2  0  0  0  0  0  0
  189.3360  176.4670  143.5370 C   0  0  0  0  0  2  0  0  0  0  0  0
  190.3260  176.4260  142.3780 C   0  0  2  0  0  3  0  0  0  0  0  0
  191.2950  177.5970  142.4660 C   0  0  0  0  0  2  0  0  0  0  0  0
  191.0340  179.4700  144.0200 C   0  0  0  0  0  2  0  0  0  0  0  0
  191.3130  178.1830  143.8430 C   0  0  0  0  0  0  0  0  0  0  0  0
  191.6490  177.3310  145.0170 C   0  0  0  0  0  1  0  0  0  0  0  0
  189.5750  176.4920  141.0590 C   0  0  0  0  0  2  0  0  0  0  0  0
  190.3490  177.3130  140.0330 C   0  0  1  0  0  3  0  0  0  0  0  0
  191.0290  176.4180  138.9940 C   0  0  0  0  0  2  0  0  0  0  0  0
  192.4970  176.7600  138.7650 C   0  0  0  0  0  2  0  0  0  0  0  0
  192.8740  176.4260  137.4630 O   0  0  0  0  0  1  0  0  0  0  0  0
  189.4560  178.3730  139.3870 C   0  0  0  0  0  2  0  0  0  0  0  0
  188.0840  178.0510  139.5620 O   0  0  0  0  0  0  0  0  0  0  0  0
  187.2260  177.9970  138.4980 C   0  0  0  0  0  0  0  0  0  0  0  0
  186.4660  177.9490  137.5600 C   0  0  0  0  0  3  0  0  0  0  0  0
  1  5  1  0  0  0  0
  1 10  1  0  0  0  0
  3  9  1  6  0  0  0
  3 11  1  0  0  0  0
  4  8  1  0  0  0  0
  4  6  1  0  0  0  0
  6 17  1  6  0  0  0
  6 12  1  0  0  0  0
  7  9  1  0  0  0  0
  8  5  1  6  0  0  0
  8  3  1  0  0  0  0
 10 14  1  1  0  0  0
 10  7  1  0  0  0  0
 11  2  1  0  0  0  0
 12  2  1  0  0  0  0
 13 14  1  0  0  0  0
 15 13  2  0  0  0  0
 16 13  1  0  0  0  0
 17 18  1  0  0  0  0
 19 24  1  6  0  0  0
 19 20  1  0  0  0  0
 19 18  1  0  0  0  0
 20 22  1  0  0  0  0
 22 21  2  0  0  0  0
 22 23  1  0  0  0  0
 25 26  1  6  0  0  0
 25 24  1  0  0  0  0
 27 26  1  0  0  0  0
 28 27  1  0  0  0  0
 29 30  1  0  0  0  0
 29 25  1  0  0  0  0
 31 30  1  0  0  0  0
 32 31  3  0  0  0  0
M  END
>  <MODEL>
4

>  <REMARK>
 VINA RESULT:      -7.0      1.138      2.201
  Name = 
  13 active torsions:
  status: ('A' for Active; 'I' for Inactive)
    1  A    between atoms: C_5  and  C_25
    2  A    between atoms: O_6  and  C_7
    3  A    between atoms: O_6  and  C_32
    4  A    between atoms: N_10  and  C_24
    5  A    between atoms: C_11  and  C_27
    6  A    between atoms: C_11  and  C_30
    7  A    between atoms: C_11  and  C_32
    8  A    between atoms: C_14  and  N_15
    9  A    between atoms: N_15  and  C_26
   10  A    between atoms: C_16  and  C_25
   11  A    between atoms: C_16  and  C_26
   12  A    between atoms: C_16  and  C_27
   13  A    between atoms: C_18  and  C_30
                            x       y       z     vdW  Elec       q    Type
                         _______ _______ _______ _____ _____    ______ ____

>  <TORSDO>
F 13

$$$$
=
 OpenBabel10262421273D

 32 33  0  0  1  0  0  0  0  0999 V2000
  192.1600  176.3770  138.1540 C   0  0  0  0  0  2  0  0  0  0  0  0
  186.6830  176.9960  137.4920 C   0  0  0  0  0  2  0  0  0  0  0  0
  189.0930  176.4200  137.3290 C   0  0  2  0  0  3  0  0  0  0  0  0
  189.1360  178.5450  138.8110 C   0  0  0  0  0  2  0  0  0  0  0  0
  190.9700  176.8560  138.9680 C   0  0  0  0  0  2  0  0  0  0  0  0
  187.8830  177.9960  139.4880 C   0  0  2  0  0  3  0  0  0  0  0  0
  190.6650  174.5040  137.1010 C   0  0  0  0  0  2  0  0  0  0  0  0
  189.9400  177.4900  138.0420 C   0  0  1  0  0  3  0  0  0  0  0  0
  189.9340  175.6130  136.3520 C   0  0  0  0  0  2  0  0  0  0  0  0
  192.0230  174.9210  137.6910 C   0  0  1  0  0  3  0  0  0  0  0  0
  187.9080  177.0200  136.5870 C   0  0  0  0  0  2  0  0  0  0  0  0
  186.7060  178.1200  138.5220 C   0  0  0  0  0  2  0  0  0  0  0  0
  194.4200  174.1510  137.2240 C   0  0  0  0  0  0  0  0  0  0  0  0
  193.1140  174.5510  136.7950 N   0  0  0  0  0  2  0  0  0  0  0  0
  194.6900  174.0240  138.4470 O   0  0  0  0  0  0  0  0  0  0  0  0
  195.4720  173.8770  136.2100 C   0  0  0  0  0  1  0  0  0  0  0  0
  187.6150  178.7790  140.6840 N   0  0  0  0  0  2  0  0  0  0  0  0
  188.0640  177.9970  141.8280 C   0  0  0  0  0  2  0  0  0  0  0  0
  186.8660  177.5560  142.6610 C   0  0  2  0  0  3  0  0  0  0  0  0
  186.0220  178.7600  143.0550 C   0  0  0  0  0  2  0  0  0  0  0  0
  183.6650  178.7180  143.7100 C   0  0  0  0  0  2  0  0  0  0  0  0
  184.5740  178.5280  142.7600 C   0  0  0  0  0  0  0  0  0  0  0  0
  184.1460  178.0780  141.4060 C   0  0  0  0  0  1  0  0  0  0  0  0
  187.3460  176.8450  143.9150 C   0  0  0  0  0  2  0  0  0  0  0  0
  187.5890  177.8400  145.0450 C   0  0  1  0  0  3  0  0  0  0  0  0
  186.7340  177.5170  146.2720 C   0  0  0  0  0  2  0  0  0  0  0  0
  186.0420  178.7380  146.8690 C   0  0  0  0  0  2  0  0  0  0  0  0
  184.6640  178.5310  146.9300 O   0  0  0  0  0  1  0  0  0  0  0  0
  189.0760  177.9360  145.3850 C   0  0  0  0  0  2  0  0  0  0  0  0
  189.3280  177.4330  146.6900 O   0  0  0  0  0  0  0  0  0  0  0  0
  190.5000  176.7950  146.9920 C   0  0  0  0  0  0  0  0  0  0  0  0
  191.5340  176.2320  147.2610 C   0  0  0  0  0  3  0  0  0  0  0  0
  1  5  1  0  0  0  0
  2 12  1  0  0  0  0
  3  9  1  6  0  0  0
  3  8  1  0  0  0  0
  4  6  1  0  0  0  0
  6 17  1  1  0  0  0
  7 10  1  0  0  0  0
  8  4  1  1  0  0  0
  8  5  1  0  0  0  0
  9  7  1  0  0  0  0
 10 14  1  6  0  0  0
 10  1  1  0  0  0  0
 11  3  1  0  0  0  0
 11  2  1  0  0  0  0
 12  6  1  0  0  0  0
 13 15  2  0  0  0  0
 14 13  1  0  0  0  0
 16 13  1  0  0  0  0
 17 18  1  0  0  0  0
 19 18  1  1  0  0  0
 19 20  1  0  0  0  0
 19 24  1  0  0  0  0
 22 20  1  0  0  0  0
 22 21  2  0  0  0  0
 23 22  1  0  0  0  0
 25 24  1  6  0  0  0
 25 29  1  0  0  0  0
 25 26  1  0  0  0  0
 26 27  1  0  0  0  0
 27 28  1  0  0  0  0
 29 30  1  0  0  0  0
 30 31  1  0  0  0  0
 31 32  3  0  0  0  0
M  END
>  <MODEL>
5

>  <REMARK>
 VINA RESULT:      -7.0      3.086      9.369
  Name = 
  13 active torsions:
  status: ('A' for Active; 'I' for Inactive)
    1  A    between atoms: C_5  and  C_25
    2  A    between atoms: O_6  and  C_7
    3  A    between atoms: O_6  and  C_32
    4  A    between atoms: N_10  and  C_24
    5  A    between atoms: C_11  and  C_27
    6  A    between atoms: C_11  and  C_30
    7  A    between atoms: C_11  and  C_32
    8  A    between atoms: C_14  and  N_15
    9  A    between atoms: N_15  and  C_26
   10  A    between atoms: C_16  and  C_25
   11  A    between atoms: C_16  and  C_26
   12  A    between atoms: C_16  and  C_27
   13  A    between atoms: C_18  and  C_30
                            x       y       z     vdW  Elec       q    Type
                         _______ _______ _______ _____ _____    ______ ____

>  <TORSDO>
F 13

$$$$
=
 OpenBabel10262421273D

 32 33  0  0  1  0  0  0  0  0999 V2000
  188.8850  177.0760  144.7280 C   0  0  0  0  0  2  0  0  0  0  0  0
  183.8340  179.3680  144.9600 C   0  0  0  0  0  2  0  0  0  0  0  0
  186.0170  178.2690  145.3950 C   0  0  2  0  0  3  0  0  0  0  0  0
  185.7030  177.8780  142.8520 C   0  0  0  0  0  2  0  0  0  0  0  0
  187.9930  177.9380  143.8500 C   0  0  0  0  0  2  0  0  0  0  0  0
  185.1420  179.2960  142.7900 C   0  0  2  0  0  3  0  0  0  0  0  0
  188.0440  178.3800  146.8360 C   0  0  0  0  0  2  0  0  0  0  0  0
  186.5320  177.5930  144.1110 C   0  0  1  0  0  3  0  0  0  0  0  0
  186.6970  177.6960  146.6290 C   0  0  0  0  0  2  0  0  0  0  0  0
  189.2120  177.7290  146.0750 C   0  0  1  0  0  3  0  0  0  0  0  0
  184.5100  178.1390  145.5520 C   0  0  0  0  0  2  0  0  0  0  0  0
  183.7590  179.3070  143.4380 C   0  0  0  0  0  2  0  0  0  0  0  0
  191.3410  176.5140  146.8170 C   0  0  0  0  0  0  0  0  0  0  0  0
  189.9460  176.8100  146.9400 N   0  0  0  0  0  2  0  0  0  0  0  0
  192.0570  177.1070  145.9670 O   0  0  0  0  0  0  0  0  0  0  0  0
  191.9560  175.4960  147.7080 C   0  0  0  0  0  1  0  0  0  0  0  0
  185.0290  179.6940  141.3950 N   0  0  0  0  0  2  0  0  0  0  0  0
  185.5660  178.6090  140.5860 C   0  0  0  0  0  2  0  0  0  0  0  0
  184.7710  178.4810  139.2910 C   0  0  2  0  0  3  0  0  0  0  0  0
  185.7090  178.4800  138.0920 C   0  0  0  0  0  2  0  0  0  0  0  0
  186.1260  177.1740  136.0650 C   0  0  0  0  0  2  0  0  0  0  0  0
  185.4280  177.3230  137.1860 C   0  0  0  0  0  0  0  0  0  0  0  0
  184.3640  176.3400  137.5310 C   0  0  0  0  0  1  0  0  0  0  0  0
  183.7990  179.6420  139.1700 C   0  0  0  0  0  2  0  0  0  0  0  0
  182.3670  179.1390  139.0160 C   0  0  1  0  0  3  0  0  0  0  0  0
  181.7220  178.8540  140.3740 C   0  0  0  0  0  2  0  0  0  0  0  0
  180.6640  177.7570  140.3260 C   0  0  0  0  0  2  0  0  0  0  0  0
  181.1530  176.6430  139.6410 O   0  0  0  0  0  1  0  0  0  0  0  0
  181.5320  180.0990  138.1700 C   0  0  0  0  0  2  0  0  0  0  0  0
  181.9440  181.4430  138.3770 O   0  0  0  0  0  0  0  0  0  0  0  0
  181.1950  182.4940  137.9230 C   0  0  0  0  0  0  0  0  0  0  0  0
  180.5340  183.4210  137.5190 C   0  0  0  0  0  3  0  0  0  0  0  0
  1 10  1  0  0  0  0
  2 11  1  0  0  0  0
  3 11  1  1  0  0  0
  3  9  1  0  0  0  0
  5  8  1  0  0  0  0
  5  1  1  0  0  0  0
  6 17  1  6  0  0  0
  6  4  1  0  0  0  0
  6 12  1  0  0  0  0
  8  4  1  6  0  0  0
  8  3  1  0  0  0  0
  9  7  1  0  0  0  0
 10  7  1  0  0  0  0
 10 14  1  1  0  0  0
 12  2  1  0  0  0  0
 13 14  1  0  0  0  0
 13 16  1  0  0  0  0
 15 13  2  0  0  0  0
 18 17  1  0  0  0  0
 19 20  1  6  0  0  0
 19 18  1  0  0  0  0
 21 22  2  0  0  0  0
 22 23  1  0  0  0  0
 22 20  1  0  0  0  0
 24 19  1  0  0  0  0
 25 29  1  1  0  0  0
 25 24  1  0  0  0  0
 25 26  1  0  0  0  0
 27 26  1  0  0  0  0
 28 27  1  0  0  0  0
 29 30  1  0  0  0  0
 31 30  1  0  0  0  0
 32 31  3  0  0  0  0
M  END
>  <MODEL>
6

>  <REMARK>
 VINA RESULT:      -6.8      3.260      8.211
  Name = 
  13 active torsions:
  status: ('A' for Active; 'I' for Inactive)
    1  A    between atoms: C_5  and  C_25
    2  A    between atoms: O_6  and  C_7
    3  A    between atoms: O_6  and  C_32
    4  A    between atoms: N_10  and  C_24
    5  A    between atoms: C_11  and  C_27
    6  A    between atoms: C_11  and  C_30
    7  A    between atoms: C_11  and  C_32
    8  A    between atoms: C_14  and  N_15
    9  A    between atoms: N_15  and  C_26
   10  A    between atoms: C_16  and  C_25
   11  A    between atoms: C_16  and  C_26
   12  A    between atoms: C_16  and  C_27
   13  A    between atoms: C_18  and  C_30
                            x       y       z     vdW  Elec       q    Type
                         _______ _______ _______ _____ _____    ______ ____

>  <TORSDO>
F 13

$$$$
=
 OpenBabel10262421273D

 32 33  0  0  1  0  0  0  0  0999 V2000
  188.9130  177.0240  144.6860 C   0  0  0  0  0  2  0  0  0  0  0  0
  183.8850  179.3740  144.7810 C   0  0  0  0  0  2  0  0  0  0  0  0
  186.0390  178.2420  145.2730 C   0  0  2  0  0  3  0  0  0  0  0  0
  185.8060  177.8910  142.7160 C   0  0  0  0  0  2  0  0  0  0  0  0
  188.0610  177.9090  143.7910 C   0  0  0  0  0  2  0  0  0  0  0  0
  185.2630  179.3160  142.6550 C   0  0  2  0  0  3  0  0  0  0  0  0
  188.0170  178.3090  146.7820 C   0  0  0  0  0  2  0  0  0  0  0  0
  186.5890  177.5780  143.9980 C   0  0  1  0  0  3  0  0  0  0  0  0
  186.6700  177.6440  146.5220 C   0  0  0  0  0  2  0  0  0  0  0  0
  189.2030  177.6550  146.0520 C   0  0  1  0  0  3  0  0  0  0  0  0
  184.5260  178.1280  145.3780 C   0  0  0  0  0  2  0  0  0  0  0  0
  183.8590  179.3350  143.2570 C   0  0  0  0  0  2  0  0  0  0  0  0
  191.3020  176.4470  146.8850 C   0  0  0  0  0  0  0  0  0  0  0  0
  189.8960  176.7150  146.9280 N   0  0  0  0  0  2  0  0  0  0  0  0
  192.0590  177.0830  146.1060 O   0  0  0  0  0  0  0  0  0  0  0  0
  191.8770  175.4050  147.7760 C   0  0  0  0  0  1  0  0  0  0  0  0
  185.2010  179.7340  141.2640 N   0  0  0  0  0  2  0  0  0  0  0  0
  185.3930  178.5470  140.4410 C   0  0  0  0  0  2  0  0  0  0  0  0
  184.2770  178.4430  139.4080 C   0  0  2  0  0  3  0  0  0  0  0  0
  184.7940  177.7930  138.1330 C   0  0  0  0  0  2  0  0  0  0  0  0
  183.4780  175.7320  138.2290 C   0  0  0  0  0  2  0  0  0  0  0  0
  183.7910  176.8400  137.5650 C   0  0  0  0  0  0  0  0  0  0  0  0
  183.1450  177.1230  136.2530 C   0  0  0  0  0  1  0  0  0  0  0  0
  183.7430  179.8290  139.0870 C   0  0  0  0  0  2  0  0  0  0  0  0
  182.2280  179.8790  139.2490 C   0  0  1  0  0  3  0  0  0  0  0  0
  181.5220  180.0030  137.8960 C   0  0  0  0  0  2  0  0  0  0  0  0
  180.6550  181.2520  137.7750 C   0  0  0  0  0  2  0  0  0  0  0  0
  180.6460  181.9520  138.9830 O   0  0  0  0  0  1  0  0  0  0  0  0
  181.7180  178.6870  140.0590 C   0  0  0  0  0  2  0  0  0  0  0  0
  180.4540  178.9760  140.6390 O   0  0  0  0  0  0  0  0  0  0  0  0
  180.3110  179.1340  141.9900 C   0  0  0  0  0  0  0  0  0  0  0  0
  180.1870  179.2720  143.1840 C   0  0  0  0  0  3  0  0  0  0  0  0
  1 10  1  0  0  0  0
  2 11  1  0  0  0  0
  3 11  1  1  0  0  0
  3  9  1  0  0  0  0
  5  8  1  0  0  0  0
  5  1  1  0  0  0  0
  6 17  1  6  0  0  0
  6  4  1  0  0  0  0
  6 12  1  0  0  0  0
  8  4  1  6  0  0  0
  8  3  1  0  0  0  0
  9  7  1  0  0  0  0
 10  7  1  0  0  0  0
 10 14  1  1  0  0  0
 12  2  1  0  0  0  0
 13 14  1  0  0  0  0
 13 16  1  0  0  0  0
 15 13  2  0  0  0  0
 18 17  1  0  0  0  0
 19 20  1  6  0  0  0
 19 18  1  0  0  0  0
 22 20  1  0  0  0  0
 22 21  2  0  0  0  0
 23 22  1  0  0  0  0
 24 25  1  0  0  0  0
 24 19  1  0  0  0  0
 25 26  1  6  0  0  0
 25 29  1  0  0  0  0
 27 26  1  0  0  0  0
 27 28  1  0  0  0  0
 29 30  1  0  0  0  0
 30 31  1  0  0  0  0
 31 32  3  0  0  0  0
M  END
>  <MODEL>
7

>  <REMARK>
 VINA RESULT:      -6.8      3.435      8.401
  Name = 
  13 active torsions:
  status: ('A' for Active; 'I' for Inactive)
    1  A    between atoms: C_5  and  C_25
    2  A    between atoms: O_6  and  C_7
    3  A    between atoms: O_6  and  C_32
    4  A    between atoms: N_10  and  C_24
    5  A    between atoms: C_11  and  C_27
    6  A    between atoms: C_11  and  C_30
    7  A    between atoms: C_11  and  C_32
    8  A    between atoms: C_14  and  N_15
    9  A    between atoms: N_15  and  C_26
   10  A    between atoms: C_16  and  C_25
   11  A    between atoms: C_16  and  C_26
   12  A    between atoms: C_16  and  C_27
   13  A    between atoms: C_18  and  C_30
                            x       y       z     vdW  Elec       q    Type
                         _______ _______ _______ _____ _____    ______ ____

>  <TORSDO>
F 13

$$$$
=
 OpenBabel10262421273D

 32 33  0  0  1  0  0  0  0  0999 V2000
  192.3240  176.6050  138.7110 C   0  0  0  0  0  2  0  0  0  0  0  0
  186.9570  177.4760  137.5880 C   0  0  0  0  0  2  0  0  0  0  0  0
  189.3800  176.9340  137.5630 C   0  0  2  0  0  3  0  0  0  0  0  0
  189.1980  178.5400  139.5880 C   0  0  0  0  0  2  0  0  0  0  0  0
  191.0330  176.8480  139.4760 C   0  0  0  0  0  2  0  0  0  0  0  0
  187.8840  177.8390  139.9190 C   0  0  2  0  0  3  0  0  0  0  0  0
  191.0070  175.1400  136.9880 C   0  0  0  0  0  2  0  0  0  0  0  0
  190.1120  177.7390  138.6520 C   0  0  1  0  0  3  0  0  0  0  0  0
  190.3500  176.4290  136.5060 C   0  0  0  0  0  2  0  0  0  0  0  0
  192.2730  175.3470  137.8350 C   0  0  1  0  0  3  0  0  0  0  0  0
  188.2830  177.7410  136.8860 C   0  0  0  0  0  2  0  0  0  0  0  0
  186.8310  178.2550  138.8930 C   0  0  0  0  0  2  0  0  0  0  0  0
  194.6500  174.5090  137.3830 C   0  0  0  0  0  0  0  0  0  0  0  0
  193.4730  175.2340  137.0120 N   0  0  0  0  0  2  0  0  0  0  0  0
  194.6920  173.8450  138.4520 O   0  0  0  0  0  0  0  0  0  0  0  0
  195.8400  174.5360  136.4910 C   0  0  0  0  0  1  0  0  0  0  0  0
  187.4560  178.2480  141.2470 N   0  0  0  0  0  2  0  0  0  0  0  0
  188.6490  178.6100  141.9990 C   0  0  0  0  0  2  0  0  0  0  0  0
  188.7840  177.7150  143.2260 C   0  0  2  0  0  3  0  0  0  0  0  0
  189.6670  176.5150  142.9120 C   0  0  0  0  0  2  0  0  0  0  0  0
  191.6810  175.6120  143.9700 C   0  0  0  0  0  2  0  0  0  0  0  0
  191.0310  176.6740  143.5060 C   0  0  0  0  0  0  0  0  0  0  0  0
  191.6620  178.0210  143.5860 C   0  0  0  0  0  1  0  0  0  0  0  0
  187.4120  177.2310  143.6610 C   0  0  0  0  0  2  0  0  0  0  0  0
  187.1930  177.4820  145.1500 C   0  0  1  0  0  3  0  0  0  0  0  0
  188.4960  177.8730  145.8510 C   0  0  0  0  0  2  0  0  0  0  0  0
  188.6510  177.2510  147.2360 C   0  0  0  0  0  2  0  0  0  0  0  0
  189.0310  178.2230  148.1620 O   0  0  0  0  0  1  0  0  0  0  0  0
  186.0830  178.5070  145.3800 C   0  0  0  0  0  2  0  0  0  0  0  0
  185.4100  178.8030  144.1640 O   0  0  0  0  0  0  0  0  0  0  0  0
  184.0470  178.9040  144.1130 C   0  0  0  0  0  0  0  0  0  0  0  0
  182.8430  178.9950  144.0700 C   0  0  0  0  0  3  0  0  0  0  0  0
  1  5  1  0  0  0  0
  2 12  1  0  0  0  0
  3  9  1  6  0  0  0
  3  8  1  0  0  0  0
  4  6  1  0  0  0  0
  6 17  1  1  0  0  0
  7 10  1  0  0  0  0
  8  5  1  1  0  0  0
  8  4  1  0  0  0  0
  9  7  1  0  0  0  0
 10 14  1  6  0  0  0
 10  1  1  0  0  0  0
 11  3  1  0  0  0  0
 11  2  1  0  0  0  0
 12  6  1  0  0  0  0
 13 15  2  0  0  0  0
 14 13  1  0  0  0  0
 16 13  1  0  0  0  0
 17 18  1  0  0  0  0
 19 18  1  6  0  0  0
 19 24  1  0  0  0  0
 20 19  1  0  0  0  0
 20 22  1  0  0  0  0
 22 23  1  0  0  0  0
 22 21  2  0  0  0  0
 25 24  1  6  0  0  0
 25 29  1  0  0  0  0
 25 26  1  0  0  0  0
 26 27  1  0  0  0  0
 27 28  1  0  0  0  0
 30 29  1  0  0  0  0
 31 30  1  0  0  0  0
 32 31  3  0  0  0  0
M  END
>  <MODEL>
8

>  <REMARK>
 VINA RESULT:      -6.8      2.986      8.987
  Name = 
  13 active torsions:
  status: ('A' for Active; 'I' for Inactive)
    1  A    between atoms: C_5  and  C_25
    2  A    between atoms: O_6  and  C_7
    3  A    between atoms: O_6  and  C_32
    4  A    between atoms: N_10  and  C_24
    5  A    between atoms: C_11  and  C_27
    6  A    between atoms: C_11  and  C_30
    7  A    between atoms: C_11  and  C_32
    8  A    between atoms: C_14  and  N_15
    9  A    between atoms: N_15  and  C_26
   10  A    between atoms: C_16  and  C_25
   11  A    between atoms: C_16  and  C_26
   12  A    between atoms: C_16  and  C_27
   13  A    between atoms: C_18  and  C_30
                            x       y       z     vdW  Elec       q    Type
                         _______ _______ _______ _____ _____    ______ ____

>  <TORSDO>
F 13

$$$$
=
 OpenBabel10262421273D

 32 33  0  0  1  0  0  0  0  0999 V2000
  184.5490  178.6280  139.5080 C   0  0  0  0  0  2  0  0  0  0  0  0
  182.6960  178.5680  144.7410 C   0  0  0  0  0  2  0  0  0  0  0  0
  182.9910  178.6320  142.2770 C   0  0  2  0  0  3  0  0  0  0  0  0
  185.3140  179.4010  143.1280 C   0  0  0  0  0  2  0  0  0  0  0  0
  185.0840  178.3060  140.8940 C   0  0  0  0  0  2  0  0  0  0  0  0
  185.1670  178.3490  144.2240 C   0  0  2  0  0  3  0  0  0  0  0  0
  182.2560  177.5470  140.1600 C   0  0  0  0  0  2  0  0  0  0  0  0
  184.3860  179.1810  141.9270 C   0  0  1  0  0  3  0  0  0  0  0  0
  182.0440  178.7370  141.0900 C   0  0  0  0  0  2  0  0  0  0  0  0
  183.3580  177.7500  139.1070 C   0  0  1  0  0  3  0  0  0  0  0  0
  182.3720  179.3430  143.4710 C   0  0  0  0  0  2  0  0  0  0  0  0
  184.1170  178.8260  145.2270 C   0  0  0  0  0  2  0  0  0  0  0  0
  182.4080  177.3160  136.7680 C   0  0  0  0  0  0  0  0  0  0  0  0
  182.7880  178.1890  137.8370 N   0  0  0  0  0  2  0  0  0  0  0  0
  182.4840  176.0650  136.8960 O   0  0  0  0  0  0  0  0  0  0  0  0
  181.9140  177.8920  135.4900 C   0  0  0  0  0  1  0  0  0  0  0  0
  186.4470  178.1920  144.8970 N   0  0  0  0  0  2  0  0  0  0  0  0
  186.9120  176.8350  144.6410 C   0  0  0  0  0  2  0  0  0  0  0  0
  188.4110  176.7400  144.9040 C   0  0  2  0  0  3  0  0  0  0  0  0
  188.8770  177.9190  145.7460 C   0  0  0  0  0  2  0  0  0  0  0  0
  190.4860  176.7100  147.1360 C   0  0  0  0  0  2  0  0  0  0  0  0
  189.3960  177.4670  147.0740 C   0  0  0  0  0  0  0  0  0  0  0  0
  188.6920  177.8550  148.3270 C   0  0  0  0  0  1  0  0  0  0  0  0
  189.1640  176.7330  143.5850 C   0  0  0  0  0  2  0  0  0  0  0  0
  189.5150  178.1520  143.1520 C   0  0  1  0  0  3  0  0  0  0  0  0
  191.0160  178.3060  142.8910 C   0  0  0  0  0  2  0  0  0  0  0  0
  191.6440  177.0870  142.2240 C   0  0  0  0  0  2  0  0  0  0  0  0
  192.0150  177.3910  140.9130 O   0  0  0  0  0  1  0  0  0  0  0  0
  188.6730  178.5880  141.9530 C   0  0  0  0  0  2  0  0  0  0  0  0
  188.5830  177.5450  140.9940 O   0  0  0  0  0  0  0  0  0  0  0  0
  188.7310  177.7940  139.6560 C   0  0  0  0  0  0  0  0  0  0  0  0
  188.8640  178.0140  138.4760 C   0  0  0  0  0  3  0  0  0  0  0  0
  1  5  1  0  0  0  0
  2 12  1  0  0  0  0
  3  9  1  6  0  0  0
  3 11  1  0  0  0  0
  4  6  1  0  0  0  0
  6 17  1  1  0  0  0
  6 12  1  0  0  0  0
  7  9  1  0  0  0  0
  8  5  1  6  0  0  0
  8  3  1  0  0  0  0
  8  4  1  0  0  0  0
 10 14  1  6  0  0  0
 10  1  1  0  0  0  0
 10  7  1  0  0  0  0
 11  2  1  0  0  0  0
 13 15  2  0  0  0  0
 13 14  1  0  0  0  0
 16 13  1  0  0  0  0
 18 17  1  0  0  0  0
 18 19  1  0  0  0  0
 19 24  1  6  0  0  0
 19 20  1  0  0  0  0
 20 22  1  0  0  0  0
 22 21  2  0  0  0  0
 22 23  1  0  0  0  0
 25 29  1  6  0  0  0
 25 24  1  0  0  0  0
 26 25  1  0  0  0  0
 27 26  1  0  0  0  0
 28 27  1  0  0  0  0
 30 29  1  0  0  0  0
 31 30  1  0  0  0  0
 32 31  3  0  0  0  0
M  END
>  <MODEL>
9

>  <REMARK>
 VINA RESULT:      -6.7      2.607      4.013
  Name = 
  13 active torsions:
  status: ('A' for Active; 'I' for Inactive)
    1  A    between atoms: C_5  and  C_25
    2  A    between atoms: O_6  and  C_7
    3  A    between atoms: O_6  and  C_32
    4  A    between atoms: N_10  and  C_24
    5  A    between atoms: C_11  and  C_27
    6  A    between atoms: C_11  and  C_30
    7  A    between atoms: C_11  and  C_32
    8  A    between atoms: C_14  and  N_15
    9  A    between atoms: N_15  and  C_26
   10  A    between atoms: C_16  and  C_25
   11  A    between atoms: C_16  and  C_26
   12  A    between atoms: C_16  and  C_27
   13  A    between atoms: C_18  and  C_30
                            x       y       z     vdW  Elec       q    Type
                         _______ _______ _______ _____ _____    ______ ____

>  <TORSDO>
F 13

$$$$
