=
 OpenBabel10262422063D

 43 48  0  0  1  0  0  0  0  0999 V2000
  188.0040  177.4340  147.4110 C   0  0  0  0  0  0  0  0  0  0  0  0
  188.9480  178.1710  142.4170 C   0  0  0  0  0  0  0  0  0  0  0  0
  186.3680  178.6240  141.3360 C   0  0  0  0  0  0  0  0  0  0  0  0
  189.1450  177.7180  145.1810 C   0  0  0  0  0  0  0  0  0  0  0  0
  186.7160  177.5990  146.7260 C   0  0  0  0  0  3  0  0  0  0  0  0
  188.0180  177.2410  148.6540 O   0  0  0  0  0  0  0  0  0  0  0  0
  187.8750  177.8630  144.5820 C   0  0  0  0  0  0  0  0  0  0  0  0
  189.3040  177.4770  146.6580 C   0  0  0  0  0  2  0  0  0  0  0  0
  186.6570  177.7970  145.4110 C   0  0  0  0  0  3  0  0  0  0  0  0
  186.4940  178.2710  142.5810 N   0  0  0  0  0  0  0  0  0  0  0  0
  187.7770  178.0920  143.1970 C   0  0  0  0  0  0  0  0  0  0  0  0
  190.2010  178.0300  143.0220 C   0  0  0  0  0  3  0  0  0  0  0  0
  188.8540  178.3450  140.9270 C   0  0  2  0  0  3  0  0  0  0  0  0
  187.5370  178.8430  140.5340 N   0  0  0  0  0  2  0  0  0  0  0  0
  190.2970  177.8070  144.3950 C   0  0  0  0  0  3  0  0  0  0  0  0
  185.0290  178.8380  140.7650 C   0  0  0  0  0  0  0  0  0  0  0  0
  184.8800  179.5960  139.7710 O   0  0  0  0  0  0  0  0  0  0  0  0
  183.8290  178.1850  141.3640 C   0  0  0  0  0  2  0  0  0  0  0  0
  182.6110  178.3900  140.4780 C   0  0  2  0  0  3  0  0  0  0  0  0
  181.5070  178.7200  141.2620 O   0  0  0  0  0  1  0  0  0  0  0  0
  182.3090  177.1170  139.7050 C   0  0  0  0  0  2  0  0  0  0  0  0
  182.2300  177.3960  138.2800 N   0  0  0  0  0  0  0  0  0  0  0  0
  182.5180  177.2300  136.0730 N   0  0  0  0  0  0  0  0  0  0  0  0
  181.5430  178.3970  137.7070 C   0  0  0  0  0  3  0  0  0  0  0  0
  182.8030  176.7050  137.2780 C   0  0  0  0  0  0  0  0  0  0  0  0
  181.7240  178.2910  136.3380 C   0  0  0  0  0  3  0  0  0  0  0  0
  183.6720  175.4970  137.4850 C   0  0  1  0  0  3  0  0  0  0  0  0
  183.2740  174.4760  136.6400 F   0  0  0  0  0  0  0  0  0  0  0  0
  185.0780  175.8100  137.2630 N   0  0  0  0  0  0  0  0  0  0  0  0
  187.4720  178.5470  136.9470 C   0  0  0  0  0  1  0  0  0  0  0  0
  187.6480  175.6980  136.6490 S   0  0  0  0  0  0  0  0  0  0  0  0
  186.7900  177.2290  136.9830 C   0  0  0  0  0  0  0  0  0  0  0  0
  186.0750  174.8060  136.9220 C   0  0  0  0  0  2  0  0  0  0  0  0
  185.5400  177.1240  137.2650 N   0  0  0  0  0  0  0  0  0  0  0  0
  189.1250  177.0170  140.2380 C   0  0  0  0  0  2  0  0  0  0  0  0
  189.8730  177.2260  139.0760 O   0  0  0  0  0  0  0  0  0  0  0  0
  191.3650  175.8230  137.8760 C   0  0  0  0  0  2  0  0  0  0  0  0
  192.8720  175.7720  137.9140 C   0  0  2  0  0  3  0  0  0  0  0  0
  192.1890  177.2080  139.6410 C   0  0  0  0  0  2  0  0  0  0  0  0
  190.9860  176.3940  139.2130 C   0  0  1  0  0  3  0  0  0  0  0  0
  193.3340  176.8090  138.8300 N   0  0  0  0  0  2  0  0  0  0  0  0
  194.4220  176.9930  136.5710 O   0  0  0  0  0  1  0  0  0  0  0  0
  193.4260  176.0170  136.5230 C   0  0  0  0  0  2  0  0  0  0  0  0
  1  6  2  0  0  0  0
  2 12  2  0  0  0  0
  2 11  1  0  0  0  0
  3 10  2  0  0  0  0
  4  8  1  0  0  0  0
  5  1  1  0  0  0  0
  7  4  1  0  0  0  0
  7  9  1  0  0  0  0
  8  1  1  0  0  0  0
  9  5  2  0  0  0  0
 10 11  1  0  0  0  0
 11  7  2  0  0  0  0
 12 15  1  0  0  0  0
 13 35  1  6  0  0  0
 13  2  1  0  0  0  0
 14 13  1  0  0  0  0
 14  3  1  0  0  0  0
 15  4  2  0  0  0  0
 16  3  1  0  0  0  0
 16 18  1  0  0  0  0
 17 16  2  0  0  0  0
 19 20  1  1  0  0  0
 19 18  1  0  0  0  0
 21 19  1  0  0  0  0
 22 21  1  0  0  0  0
 23 26  1  0  0  0  0
 23 25  2  0  0  0  0
 24 22  1  0  0  0  0
 25 27  1  0  0  0  0
 25 22  1  0  0  0  0
 26 24  2  0  0  0  0
 27 28  1  6  0  0  0
 29 34  1  0  0  0  0
 29 27  1  0  0  0  0
 30 32  1  0  0  0  0
 31 33  1  0  0  0  0
 31 32  1  0  0  0  0
 32 34  2  0  0  0  0
 33 29  1  0  0  0  0
 36 35  1  0  0  0  0
 37 38  1  0  0  0  0
 37 40  1  0  0  0  0
 38 43  1  6  0  0  0
 38 41  1  0  0  0  0
 40 36  1  6  0  0  0
 40 39  1  0  0  0  0
 41 39  1  0  0  0  0
 43 42  1  0  0  0  0
M  END
>  <MODEL>
1

>  <REMARK>
 VINA RESULT:      -8.7      0.000      0.000
  Name = 
  11 active torsions:
  status: ('A' for Active; 'I' for Inactive)
    1  A    between atoms: C_1  and  O_32
    2  A    between atoms: C_1  and  C_34
    3  A    between atoms: C_2  and  C_6
    4  A    between atoms: C_2  and  C_13
    5  A    between atoms: C_3  and  N_4
    6  A    between atoms: C_3  and  C_12
    7  A    between atoms: C_6  and  C_12
    8  A    between atoms: N_11  and  C_14
    9  A    between atoms: C_14  and  C_22
   10  A    between atoms: C_19  and  C_37
   11  A    between atoms: O_32  and  C_35
                            x       y       z     vdW  Elec       q    Type
                         _______ _______ _______ _____ _____    ______ ____

>  <TORSDO>
F 11

$$$$
=
 OpenBabel10262422063D

 43 48  0  0  1  0  0  0  0  0999 V2000
  190.9030  177.0480  146.8470 C   0  0  0  0  0  0  0  0  0  0  0  0
  186.4770  177.9130  144.3890 C   0  0  0  0  0  0  0  0  0  0  0  0
  187.2810  178.1460  141.6810 C   0  0  0  0  0  0  0  0  0  0  0  0
  188.4660  177.3940  146.3010 C   0  0  0  0  0  0  0  0  0  0  0  0
  191.2080  177.2690  145.4270 C   0  0  0  0  0  3  0  0  0  0  0  0
  191.8430  176.8130  147.6470 O   0  0  0  0  0  0  0  0  0  0  0  0
  188.8270  177.6040  144.9540 C   0  0  0  0  0  0  0  0  0  0  0  0
  189.4930  177.1090  147.3640 C   0  0  0  0  0  2  0  0  0  0  0  0
  190.2430  177.5290  144.5490 C   0  0  0  0  0  3  0  0  0  0  0  0
  188.1790  178.0470  142.6160 N   0  0  0  0  0  0  0  0  0  0  0  0
  187.8290  177.8620  143.9950 C   0  0  0  0  0  0  0  0  0  0  0  0
  186.1310  177.7000  145.7270 C   0  0  0  0  0  3  0  0  0  0  0  0
  185.4100  178.2570  143.3880 C   0  0  2  0  0  3  0  0  0  0  0  0
  185.8890  178.0740  142.0190 N   0  0  0  0  0  2  0  0  0  0  0  0
  187.1200  177.4400  146.6750 C   0  0  0  0  0  3  0  0  0  0  0  0
  187.6950  178.2900  140.2770 C   0  0  0  0  0  0  0  0  0  0  0  0
  186.8270  178.3850  139.3690 O   0  0  0  0  0  0  0  0  0  0  0  0
  189.1390  178.2990  139.9020 C   0  0  0  0  0  2  0  0  0  0  0  0
  189.5600  176.9400  139.3670 C   0  0  2  0  0  3  0  0  0  0  0  0
  190.4790  176.3550  140.2380 O   0  0  0  0  0  1  0  0  0  0  0  0
  190.2020  177.0950  137.9990 C   0  0  0  0  0  2  0  0  0  0  0  0
  190.6400  175.8020  137.4950 N   0  0  0  0  0  0  0  0  0  0  0  0
  191.9530  174.1500  136.7690 N   0  0  0  0  0  0  0  0  0  0  0  0
  189.8540  174.7420  137.2460 C   0  0  0  0  0  3  0  0  0  0  0  0
  191.8970  175.4210  137.2060 C   0  0  0  0  0  0  0  0  0  0  0  0
  190.6720  173.7200  136.7960 C   0  0  0  0  0  3  0  0  0  0  0  0
  193.0950  176.3170  137.3420 C   0  0  1  0  0  3  0  0  0  0  0  0
  193.2330  176.7290  138.6550 F   0  0  0  0  0  0  0  0  0  0  0  0
  194.3120  175.6480  136.8980 N   0  0  0  0  0  0  0  0  0  0  0  0
  197.1350  173.6220  138.0180 C   0  0  0  0  0  1  0  0  0  0  0  0
  196.4230  174.8460  135.5210 S   0  0  0  0  0  0  0  0  0  0  0  0
  196.1720  174.4460  137.2450 C   0  0  0  0  0  0  0  0  0  0  0  0
  194.8510  175.7810  135.5530 C   0  0  0  0  0  2  0  0  0  0  0  0
  195.0980  174.9090  137.7790 N   0  0  0  0  0  0  0  0  0  0  0  0
  184.9680  179.6990  143.5860 C   0  0  0  0  0  2  0  0  0  0  0  0
  183.7060  179.7340  144.1860 O   0  0  0  0  0  0  0  0  0  0  0  0
  181.6100  178.6230  144.1330 C   0  0  0  0  0  2  0  0  0  0  0  0
  180.6490  178.4430  142.9830 C   0  0  2  0  0  3  0  0  0  0  0  0
  182.6170  179.3680  142.0980 C   0  0  0  0  0  2  0  0  0  0  0  0
  182.9440  178.8120  143.4680 C   0  0  1  0  0  3  0  0  0  0  0  0
  181.2040  179.1290  141.8220 N   0  0  0  0  0  2  0  0  0  0  0  0
  178.9350  178.6320  144.6320 O   0  0  0  0  0  1  0  0  0  0  0  0
  179.3010  179.0340  143.3470 C   0  0  0  0  0  2  0  0  0  0  0  0
  1  8  1  0  0  0  0
  1  6  2  0  0  0  0
  2 12  1  0  0  0  0
  3 14  1  0  0  0  0
  3 10  2  0  0  0  0
  4 15  1  0  0  0  0
  4  8  1  0  0  0  0
  5  1  1  0  0  0  0
  7  4  2  0  0  0  0
  9  7  1  0  0  0  0
  9  5  2  0  0  0  0
 10 11  1  0  0  0  0
 11  2  2  0  0  0  0
 11  7  1  0  0  0  0
 12 15  2  0  0  0  0
 13 35  1  6  0  0  0
 13  2  1  0  0  0  0
 14 13  1  0  0  0  0
 16  3  1  0  0  0  0
 17 16  2  0  0  0  0
 18 16  1  0  0  0  0
 19 18  1  0  0  0  0
 19 20  1  1  0  0  0
 21 19  1  0  0  0  0
 22 21  1  0  0  0  0
 23 26  1  0  0  0  0
 23 25  2  0  0  0  0
 24 22  1  0  0  0  0
 25 27  1  0  0  0  0
 25 22  1  0  0  0  0
 26 24  2  0  0  0  0
 27 28  1  1  0  0  0
 29 27  1  0  0  0  0
 29 34  1  0  0  0  0
 31 33  1  0  0  0  0
 31 32  1  0  0  0  0
 32 34  2  0  0  0  0
 32 30  1  0  0  0  0
 33 29  1  0  0  0  0
 35 36  1  0  0  0  0
 38 43  1  1  0  0  0
 38 37  1  0  0  0  0
 39 40  1  0  0  0  0
 40 37  1  0  0  0  0
 40 36  1  1  0  0  0
 41 39  1  0  0  0  0
 41 38  1  0  0  0  0
 43 42  1  0  0  0  0
M  END
>  <MODEL>
2

>  <REMARK>
 VINA RESULT:      -8.7      3.670      8.253
  Name = 
  11 active torsions:
  status: ('A' for Active; 'I' for Inactive)
    1  A    between atoms: C_1  and  O_32
    2  A    between atoms: C_1  and  C_34
    3  A    between atoms: C_2  and  C_6
    4  A    between atoms: C_2  and  C_13
    5  A    between atoms: C_3  and  N_4
    6  A    between atoms: C_3  and  C_12
    7  A    between atoms: C_6  and  C_12
    8  A    between atoms: N_11  and  C_14
    9  A    between atoms: C_14  and  C_22
   10  A    between atoms: C_19  and  C_37
   11  A    between atoms: O_32  and  C_35
                            x       y       z     vdW  Elec       q    Type
                         _______ _______ _______ _____ _____    ______ ____

>  <TORSDO>
F 11

$$$$
=
 OpenBabel10262422063D

 43 48  0  0  1  0  0  0  0  0999 V2000
  181.1190  178.9780  141.3200 C   0  0  0  0  0  0  0  0  0  0  0  0
  186.0180  178.4420  142.7630 C   0  0  0  0  0  0  0  0  0  0  0  0
  187.4070  178.3350  140.2950 C   0  0  0  0  0  0  0  0  0  0  0  0
  183.2310  178.7650  142.6800 C   0  0  0  0  0  0  0  0  0  0  0  0
  181.9350  178.8280  140.1070 C   0  0  0  0  0  3  0  0  0  0  0  0
  179.8760  179.1270  141.2080 O   0  0  0  0  0  0  0  0  0  0  0  0
  183.9560  178.6200  141.4780 C   0  0  0  0  0  0  0  0  0  0  0  0
  181.7360  178.9450  142.6890 C   0  0  0  0  0  2  0  0  0  0  0  0
  183.2530  178.6600  140.1820 C   0  0  0  0  0  3  0  0  0  0  0  0
  186.1070  178.3420  140.3050 N   0  0  0  0  0  0  0  0  0  0  0  0
  185.3540  178.4600  141.5210 C   0  0  0  0  0  0  0  0  0  0  0  0
  185.2890  178.5900  143.9470 C   0  0  0  0  0  3  0  0  0  0  0  0
  187.5010  178.2010  142.8250 C   0  0  2  0  0  3  0  0  0  0  0  0
  188.1310  178.4450  141.5280 N   0  0  0  0  0  2  0  0  0  0  0  0
  183.9050  178.7530  143.9040 C   0  0  0  0  0  3  0  0  0  0  0  0
  188.1310  178.2570  139.0170 C   0  0  0  0  0  0  0  0  0  0  0  0
  188.6960  179.2790  138.5470 O   0  0  0  0  0  0  0  0  0  0  0  0
  188.1880  176.9800  138.2470 C   0  0  0  0  0  2  0  0  0  0  0  0
  189.4900  176.8830  137.4680 C   0  0  2  0  0  3  0  0  0  0  0  0
  189.2230  176.5350  136.1450 O   0  0  0  0  0  1  0  0  0  0  0  0
  190.3910  175.8290  138.0880 C   0  0  0  0  0  2  0  0  0  0  0  0
  191.4620  176.4590  138.8450 N   0  0  0  0  0  0  0  0  0  0  0  0
  193.4830  177.2010  139.4330 N   0  0  0  0  0  0  0  0  0  0  0  0
  191.3310  177.0960  140.0190 C   0  0  0  0  0  3  0  0  0  0  0  0
  192.7620  176.5380  138.5100 C   0  0  0  0  0  0  0  0  0  0  0  0
  192.5870  177.5540  140.3810 C   0  0  0  0  0  3  0  0  0  0  0  0
  193.3420  175.9440  137.2580 C   0  0  1  0  0  3  0  0  0  0  0  0
  193.9300  176.9340  136.4910 F   0  0  0  0  0  0  0  0  0  0  0  0
  194.3160  174.9050  137.5640 N   0  0  0  0  0  0  0  0  0  0  0  0
  197.8760  174.2550  138.0450 C   0  0  0  0  0  1  0  0  0  0  0  0
  195.5380  172.5930  137.9600 S   0  0  0  0  0  0  0  0  0  0  0  0
  196.4050  174.1540  137.8810 C   0  0  0  0  0  0  0  0  0  0  0  0
  193.9740  173.4940  137.6650 C   0  0  0  0  0  2  0  0  0  0  0  0
  195.6750  175.1930  137.6800 N   0  0  0  0  0  0  0  0  0  0  0  0
  187.7690  176.7700  143.2630 C   0  0  0  0  0  2  0  0  0  0  0  0
  188.0790  176.7380  144.6250 O   0  0  0  0  0  0  0  0  0  0  0  0
  189.8320  177.2650  146.1360 C   0  0  0  0  0  2  0  0  0  0  0  0
  191.3190  177.0610  145.9880 C   0  0  2  0  0  3  0  0  0  0  0  0
  190.3450  176.5690  143.9090 C   0  0  0  0  0  2  0  0  0  0  0  0
  189.3320  177.3460  144.7220 C   0  0  1  0  0  3  0  0  0  0  0  0
  191.5570  176.4070  144.7060 N   0  0  0  0  0  2  0  0  0  0  0  0
  192.5130  175.0900  146.6080 O   0  0  0  0  0  1  0  0  0  0  0  0
  191.8310  176.1930  147.1220 C   0  0  0  0  0  2  0  0  0  0  0  0
  1  8  1  0  0  0  0
  2 13  1  0  0  0  0
  2 12  1  0  0  0  0
  3 10  2  0  0  0  0
  3 14  1  0  0  0  0
  4  8  1  0  0  0  0
  4 15  1  0  0  0  0
  5  9  2  0  0  0  0
  5  1  1  0  0  0  0
  6  1  2  0  0  0  0
  7 11  1  0  0  0  0
  7  4  2  0  0  0  0
  9  7  1  0  0  0  0
 10 11  1  0  0  0  0
 11  2  2  0  0  0  0
 13 35  1  6  0  0  0
 14 13  1  0  0  0  0
 15 12  2  0  0  0  0
 16  3  1  0  0  0  0
 17 16  2  0  0  0  0
 18 16  1  0  0  0  0
 19 20  1  6  0  0  0
 19 21  1  0  0  0  0
 19 18  1  0  0  0  0
 21 22  1  0  0  0  0
 22 24  1  0  0  0  0
 23 26  1  0  0  0  0
 24 26  2  0  0  0  0
 25 22  1  0  0  0  0
 25 23  2  0  0  0  0
 27 28  1  1  0  0  0
 27 29  1  0  0  0  0
 27 25  1  0  0  0  0
 29 33  1  0  0  0  0
 29 34  1  0  0  0  0
 32 31  1  0  0  0  0
 32 30  1  0  0  0  0
 33 31  1  0  0  0  0
 34 32  2  0  0  0  0
 35 36  1  0  0  0  0
 38 37  1  0  0  0  0
 38 43  1  1  0  0  0
 39 41  1  0  0  0  0
 39 40  1  0  0  0  0
 40 36  1  1  0  0  0
 40 37  1  0  0  0  0
 41 38  1  0  0  0  0
 42 43  1  0  0  0  0
M  END
>  <MODEL>
3

>  <REMARK>
 VINA RESULT:      -8.6      3.285      7.889
  Name = 
  11 active torsions:
  status: ('A' for Active; 'I' for Inactive)
    1  A    between atoms: C_1  and  O_32
    2  A    between atoms: C_1  and  C_34
    3  A    between atoms: C_2  and  C_6
    4  A    between atoms: C_2  and  C_13
    5  A    between atoms: C_3  and  N_4
    6  A    between atoms: C_3  and  C_12
    7  A    between atoms: C_6  and  C_12
    8  A    between atoms: N_11  and  C_14
    9  A    between atoms: C_14  and  C_22
   10  A    between atoms: C_19  and  C_37
   11  A    between atoms: O_32  and  C_35
                            x       y       z     vdW  Elec       q    Type
                         _______ _______ _______ _____ _____    ______ ____

>  <TORSDO>
F 11

$$$$
=
 OpenBabel10262422063D

 43 48  0  0  1  0  0  0  0  0999 V2000
  188.0670  177.3700  147.3260 C   0  0  0  0  0  0  0  0  0  0  0  0
  188.8990  178.1370  142.3160 C   0  0  0  0  0  0  0  0  0  0  0  0
  186.3010  178.6400  141.3030 C   0  0  0  0  0  0  0  0  0  0  0  0
  189.1560  177.6570  145.0700 C   0  0  0  0  0  0  0  0  0  0  0  0
  186.7650  177.5620  146.6740 C   0  0  0  0  0  3  0  0  0  0  0  0
  188.1090  177.1670  148.5660 O   0  0  0  0  0  0  0  0  0  0  0  0
  187.8750  177.8260  144.5050 C   0  0  0  0  0  0  0  0  0  0  0  0
  189.3480  177.4000  146.5410 C   0  0  0  0  0  2  0  0  0  0  0  0
  186.6770  177.7720  145.3630 C   0  0  0  0  0  3  0  0  0  0  0  0
  186.4520  178.2750  142.5410 N   0  0  0  0  0  0  0  0  0  0  0  0
  187.7470  178.0700  143.1240 C   0  0  0  0  0  0  0  0  0  0  0  0
  190.1640  177.9710  142.8890 C   0  0  0  0  0  3  0  0  0  0  0  0
  188.7710  178.3270  140.8310 C   0  0  2  0  0  3  0  0  0  0  0  0
  187.4530  178.8480  140.4750 N   0  0  0  0  0  2  0  0  0  0  0  0
  190.2900  177.7350  144.2570 C   0  0  0  0  0  3  0  0  0  0  0  0
  184.9510  178.8800  140.7670 C   0  0  0  0  0  0  0  0  0  0  0  0
  184.7600  179.7960  139.9250 O   0  0  0  0  0  0  0  0  0  0  0  0
  183.7890  178.0650  141.2280 C   0  0  0  0  0  2  0  0  0  0  0  0
  182.7300  177.9840  140.1410 C   0  0  2  0  0  3  0  0  0  0  0  0
  181.4670  177.8730  140.7210 O   0  0  0  0  0  1  0  0  0  0  0  0
  182.9800  176.7740  139.2580 C   0  0  0  0  0  2  0  0  0  0  0  0
  182.6140  177.0660  137.8810 N   0  0  0  0  0  0  0  0  0  0  0  0
  182.7530  177.3690  135.6740 N   0  0  0  0  0  0  0  0  0  0  0  0
  181.3850  177.3780  137.4380 C   0  0  0  0  0  3  0  0  0  0  0  0
  183.4180  177.0630  136.8030 C   0  0  0  0  0  0  0  0  0  0  0  0
  181.4760  177.5650  136.0690 C   0  0  0  0  0  3  0  0  0  0  0  0
  184.8900  176.7640  136.8570 C   0  0  1  0  0  3  0  0  0  0  0  0
  185.4650  177.4050  137.9400 F   0  0  0  0  0  0  0  0  0  0  0  0
  185.1380  175.3300  136.9350 N   0  0  0  0  0  0  0  0  0  0  0  0
  183.5230  172.0570  136.9380 C   0  0  0  0  0  1  0  0  0  0  0  0
  186.2260  172.9480  137.3070 S   0  0  0  0  0  0  0  0  0  0  0  0
  184.4800  173.1890  137.0080 C   0  0  0  0  0  0  0  0  0  0  0  0
  186.4490  174.7610  137.2120 C   0  0  0  0  0  2  0  0  0  0  0  0
  184.0990  174.4060  136.8490 N   0  0  0  0  0  0  0  0  0  0  0  0
  189.0040  177.0000  140.1240 C   0  0  0  0  0  2  0  0  0  0  0  0
  188.6300  177.1030  138.7810 O   0  0  0  0  0  0  0  0  0  0  0  0
  190.8200  176.2360  138.4920 C   0  0  0  0  0  2  0  0  0  0  0  0
  191.5710  175.9350  137.2180 C   0  0  2  0  0  3  0  0  0  0  0  0
  189.6070  177.0680  136.6080 C   0  0  0  0  0  2  0  0  0  0  0  0
  189.8270  177.2900  138.0890 C   0  0  1  0  0  3  0  0  0  0  0  0
  190.6900  176.2340  136.0950 N   0  0  0  0  0  2  0  0  0  0  0  0
  190.8570  173.6690  137.4400 O   0  0  0  0  0  1  0  0  0  0  0  0
  191.9710  174.4720  137.1950 C   0  0  0  0  0  2  0  0  0  0  0  0
  1  6  2  0  0  0  0
  2 12  2  0  0  0  0
  2 11  1  0  0  0  0
  3 10  2  0  0  0  0
  4  8  1  0  0  0  0
  5  1  1  0  0  0  0
  7  4  1  0  0  0  0
  7  9  1  0  0  0  0
  8  1  1  0  0  0  0
  9  5  2  0  0  0  0
 10 11  1  0  0  0  0
 11  7  2  0  0  0  0
 12 15  1  0  0  0  0
 13 35  1  6  0  0  0
 13  2  1  0  0  0  0
 14 13  1  0  0  0  0
 14  3  1  0  0  0  0
 15  4  2  0  0  0  0
 16 18  1  0  0  0  0
 16  3  1  0  0  0  0
 17 16  2  0  0  0  0
 19 20  1  1  0  0  0
 19 18  1  0  0  0  0
 21 19  1  0  0  0  0
 22 21  1  0  0  0  0
 23 26  1  0  0  0  0
 23 25  2  0  0  0  0
 24 22  1  0  0  0  0
 25 27  1  0  0  0  0
 25 22  1  0  0  0  0
 26 24  2  0  0  0  0
 27 29  1  0  0  0  0
 27 28  1  1  0  0  0
 29 33  1  0  0  0  0
 30 32  1  0  0  0  0
 32 31  1  0  0  0  0
 33 31  1  0  0  0  0
 34 29  1  0  0  0  0
 34 32  2  0  0  0  0
 36 35  1  0  0  0  0
 38 43  1  1  0  0  0
 38 37  1  0  0  0  0
 39 40  1  0  0  0  0
 40 37  1  0  0  0  0
 40 36  1  1  0  0  0
 41 39  1  0  0  0  0
 41 38  1  0  0  0  0
 43 42  1  0  0  0  0
M  END
>  <MODEL>
4

>  <REMARK>
 VINA RESULT:      -8.4      1.535      2.113
  Name = 
  11 active torsions:
  status: ('A' for Active; 'I' for Inactive)
    1  A    between atoms: C_1  and  O_32
    2  A    between atoms: C_1  and  C_34
    3  A    between atoms: C_2  and  C_6
    4  A    between atoms: C_2  and  C_13
    5  A    between atoms: C_3  and  N_4
    6  A    between atoms: C_3  and  C_12
    7  A    between atoms: C_6  and  C_12
    8  A    between atoms: N_11  and  C_14
    9  A    between atoms: C_14  and  C_22
   10  A    between atoms: C_19  and  C_37
   11  A    between atoms: O_32  and  C_35
                            x       y       z     vdW  Elec       q    Type
                         _______ _______ _______ _____ _____    ______ ____

>  <TORSDO>
F 11

$$$$
=
 OpenBabel10262422063D

 43 48  0  0  1  0  0  0  0  0999 V2000
  190.9910  176.7980  146.9240 C   0  0  0  0  0  0  0  0  0  0  0  0
  186.6740  177.8780  144.3610 C   0  0  0  0  0  0  0  0  0  0  0  0
  187.5590  178.0990  141.6780 C   0  0  0  0  0  0  0  0  0  0  0  0
  188.5870  177.2550  146.3190 C   0  0  0  0  0  0  0  0  0  0  0  0
  191.3440  177.0180  145.5160 C   0  0  0  0  0  3  0  0  0  0  0  0
  191.8990  176.5140  147.7470 O   0  0  0  0  0  0  0  0  0  0  0  0
  188.9920  177.4610  144.9830 C   0  0  0  0  0  0  0  0  0  0  0  0
  189.5720  176.9160  147.4050 C   0  0  0  0  0  2  0  0  0  0  0  0
  190.4140  177.3280  144.6150 C   0  0  0  0  0  3  0  0  0  0  0  0
  188.4270  177.9520  142.6340 N   0  0  0  0  0  0  0  0  0  0  0  0
  188.0320  177.7710  144.0020 C   0  0  0  0  0  0  0  0  0  0  0  0
  186.2840  177.6680  145.6880 C   0  0  0  0  0  3  0  0  0  0  0  0
  185.6500  178.2770  143.3360 C   0  0  2  0  0  3  0  0  0  0  0  0
  186.1560  178.0850  141.9780 N   0  0  0  0  0  2  0  0  0  0  0  0
  187.2350  177.3560  146.6580 C   0  0  0  0  0  3  0  0  0  0  0  0
  188.0150  178.2380  140.2860 C   0  0  0  0  0  0  0  0  0  0  0  0
  187.1990  178.5560  139.3820 O   0  0  0  0  0  0  0  0  0  0  0  0
  189.4380  177.9800  139.9190 C   0  0  0  0  0  2  0  0  0  0  0  0
  189.5220  176.9750  138.7810 C   0  0  2  0  0  3  0  0  0  0  0  0
  190.4330  175.9700  139.1050 O   0  0  0  0  0  1  0  0  0  0  0  0
  189.9780  177.6680  137.5080 C   0  0  0  0  0  2  0  0  0  0  0  0
  189.6890  176.8380  136.3480 N   0  0  0  0  0  0  0  0  0  0  0  0
  188.5960  175.8670  134.6620 N   0  0  0  0  0  0  0  0  0  0  0  0
  190.5640  176.0560  135.6970 C   0  0  0  0  0  3  0  0  0  0  0  0
  188.5140  176.7120  135.7060 C   0  0  0  0  0  0  0  0  0  0  0  0
  189.8820  175.4560  134.6520 C   0  0  0  0  0  3  0  0  0  0  0  0
  187.2550  177.4220  136.1160 C   0  0  1  0  0  3  0  0  0  0  0  0
  186.7680  178.1740  135.0620 F   0  0  0  0  0  0  0  0  0  0  0  0
  186.2380  176.4820  136.5700 N   0  0  0  0  0  0  0  0  0  0  0  0
  185.6770  173.0300  137.6170 C   0  0  0  0  0  1  0  0  0  0  0  0
  183.9550  175.2770  137.1460 S   0  0  0  0  0  0  0  0  0  0  0  0
  185.5390  174.4520  137.2170 C   0  0  0  0  0  0  0  0  0  0  0  0
  184.8180  176.7970  136.6060 C   0  0  0  0  0  2  0  0  0  0  0  0
  186.5610  175.1680  136.9060 N   0  0  0  0  0  0  0  0  0  0  0  0
  185.2660  179.7350  143.5370 C   0  0  0  0  0  2  0  0  0  0  0  0
  184.0260  179.8190  144.1760 O   0  0  0  0  0  0  0  0  0  0  0  0
  181.9880  178.6170  144.3610 C   0  0  0  0  0  2  0  0  0  0  0  0
  180.9300  178.3580  143.3170 C   0  0  2  0  0  3  0  0  0  0  0  0
  182.7570  179.3400  142.2170 C   0  0  0  0  0  2  0  0  0  0  0  0
  183.2410  178.8420  143.5630 C   0  0  1  0  0  3  0  0  0  0  0  0
  181.3370  179.0310  142.0880 N   0  0  0  0  0  2  0  0  0  0  0  0
  179.4710  180.2430  143.4340 O   0  0  0  0  0  1  0  0  0  0  0  0
  179.5970  178.9020  143.7960 C   0  0  0  0  0  2  0  0  0  0  0  0
  1  8  1  0  0  0  0
  1  6  2  0  0  0  0
  2 12  1  0  0  0  0
  3 14  1  0  0  0  0
  3 10  2  0  0  0  0
  4 15  1  0  0  0  0
  4  8  1  0  0  0  0
  5  1  1  0  0  0  0
  7  4  2  0  0  0  0
  9  7  1  0  0  0  0
  9  5  2  0  0  0  0
 10 11  1  0  0  0  0
 11  2  2  0  0  0  0
 11  7  1  0  0  0  0
 12 15  2  0  0  0  0
 13 35  1  1  0  0  0
 13  2  1  0  0  0  0
 14 13  1  0  0  0  0
 16  3  1  0  0  0  0
 17 16  2  0  0  0  0
 18 16  1  0  0  0  0
 19 20  1  1  0  0  0
 19 18  1  0  0  0  0
 21 19  1  0  0  0  0
 22 21  1  0  0  0  0
 23 25  2  0  0  0  0
 24 22  1  0  0  0  0
 25 27  1  0  0  0  0
 25 22  1  0  0  0  0
 26 23  1  0  0  0  0
 26 24  2  0  0  0  0
 27 28  1  6  0  0  0
 27 29  1  0  0  0  0
 29 33  1  0  0  0  0
 29 34  1  0  0  0  0
 31 32  1  0  0  0  0
 32 30  1  0  0  0  0
 33 31  1  0  0  0  0
 34 32  2  0  0  0  0
 35 36  1  0  0  0  0
 38 43  1  1  0  0  0
 38 37  1  0  0  0  0
 39 40  1  0  0  0  0
 40 36  1  1  0  0  0
 40 37  1  0  0  0  0
 41 39  1  0  0  0  0
 41 38  1  0  0  0  0
 42 43  1  0  0  0  0
M  END
>  <MODEL>
5

>  <REMARK>
 VINA RESULT:      -8.3      2.532      7.015
  Name = 
  11 active torsions:
  status: ('A' for Active; 'I' for Inactive)
    1  A    between atoms: C_1  and  O_32
    2  A    between atoms: C_1  and  C_34
    3  A    between atoms: C_2  and  C_6
    4  A    between atoms: C_2  and  C_13
    5  A    between atoms: C_3  and  N_4
    6  A    between atoms: C_3  and  C_12
    7  A    between atoms: C_6  and  C_12
    8  A    between atoms: N_11  and  C_14
    9  A    between atoms: C_14  and  C_22
   10  A    between atoms: C_19  and  C_37
   11  A    between atoms: O_32  and  C_35
                            x       y       z     vdW  Elec       q    Type
                         _______ _______ _______ _____ _____    ______ ____

>  <TORSDO>
F 11

$$$$
=
 OpenBabel10262422063D

 43 48  0  0  1  0  0  0  0  0999 V2000
  184.4230  178.7430  145.1250 C   0  0  0  0  0  0  0  0  0  0  0  0
  182.2310  178.8360  140.4820 C   0  0  0  0  0  0  0  0  0  0  0  0
  184.3770  178.1960  138.7450 C   0  0  0  0  0  0  0  0  0  0  0  0
  182.7620  178.9260  143.2370 C   0  0  0  0  0  0  0  0  0  0  0  0
  185.4700  178.5030  144.1240 C   0  0  0  0  0  3  0  0  0  0  0  0
  184.7310  178.7620  146.3430 O   0  0  0  0  0  0  0  0  0  0  0  0
  183.8150  178.6960  142.3260 C   0  0  0  0  0  0  0  0  0  0  0  0
  182.9940  178.9790  144.7230 C   0  0  0  0  0  2  0  0  0  0  0  0
  185.1870  178.4830  142.8240 C   0  0  0  0  0  3  0  0  0  0  0  0
  184.6050  178.3860  140.0100 N   0  0  0  0  0  0  0  0  0  0  0  0
  183.5480  178.6490  140.9450 C   0  0  0  0  0  0  0  0  0  0  0  0
  181.1940  179.0590  141.3940 C   0  0  0  0  0  3  0  0  0  0  0  0
  181.9440  178.8580  139.0060 C   0  0  2  0  0  3  0  0  0  0  0  0
  183.0330  178.2480  138.2460 N   0  0  0  0  0  2  0  0  0  0  0  0
  181.4600  179.1010  142.7620 C   0  0  0  0  0  3  0  0  0  0  0  0
  185.4920  177.8850  137.8370 C   0  0  0  0  0  0  0  0  0  0  0  0
  185.2750  177.7020  136.6100 O   0  0  0  0  0  0  0  0  0  0  0  0
  186.8860  177.7570  138.3530 C   0  0  0  0  0  2  0  0  0  0  0  0
  187.8550  178.5280  137.4700 C   0  0  2  0  0  3  0  0  0  0  0  0
  188.3100  177.7060  136.4400 O   0  0  0  0  0  1  0  0  0  0  0  0
  189.0420  179.0020  138.2900 C   0  0  0  0  0  2  0  0  0  0  0  0
  189.7530  177.8660  138.8560 N   0  0  0  0  0  0  0  0  0  0  0  0
  190.5350  176.3780  140.3240 N   0  0  0  0  0  0  0  0  0  0  0  0
  190.4970  176.9800  138.1750 C   0  0  0  0  0  3  0  0  0  0  0  0
  189.7870  177.4820  140.1440 C   0  0  0  0  0  0  0  0  0  0  0  0
  190.9800  176.0590  139.0890 C   0  0  0  0  0  3  0  0  0  0  0  0
  189.0810  178.2090  141.2540 C   0  0  1  0  0  3  0  0  0  0  0  0
  187.7340  177.8940  141.2460 F   0  0  0  0  0  0  0  0  0  0  0  0
  189.6620  177.8890  142.5520 N   0  0  0  0  0  0  0  0  0  0  0  0
  188.8580  177.1280  146.0300 C   0  0  0  0  0  1  0  0  0  0  0  0
  191.3070  177.5510  144.5950 S   0  0  0  0  0  0  0  0  0  0  0  0
  189.5300  177.4350  144.7430 C   0  0  0  0  0  0  0  0  0  0  0  0
  191.0930  177.9240  142.8170 C   0  0  0  0  0  2  0  0  0  0  0  0
  188.8610  177.6260  143.6610 N   0  0  0  0  0  0  0  0  0  0  0  0
  181.7410  180.2940  138.5450 C   0  0  0  0  0  2  0  0  0  0  0  0
  181.5550  180.3280  137.1610 O   0  0  0  0  0  0  0  0  0  0  0  0
  180.8900  182.5590  137.6260 C   0  0  0  0  0  2  0  0  0  0  0  0
  180.3430  183.6100  136.6920 C   0  0  2  0  0  3  0  0  0  0  0  0
  180.4260  181.5960  135.4880 C   0  0  0  0  0  2  0  0  0  0  0  0
  180.5350  181.2590  136.9600 C   0  0  1  0  0  3  0  0  0  0  0  0
  180.3080  183.0440  135.3480 N   0  0  0  0  0  2  0  0  0  0  0  0
  182.3050  184.6240  137.5940 O   0  0  0  0  0  1  0  0  0  0  0  0
  181.2370  184.8350  136.7220 C   0  0  0  0  0  2  0  0  0  0  0  0
  1  6  2  0  0  0  0
  2 11  2  0  0  0  0
  2 12  1  0  0  0  0
  3 10  2  0  0  0  0
  4  8  1  0  0  0  0
  5  1  1  0  0  0  0
  7  9  1  0  0  0  0
  7  4  2  0  0  0  0
  8  1  1  0  0  0  0
  9  5  2  0  0  0  0
 10 11  1  0  0  0  0
 11  7  1  0  0  0  0
 12 15  2  0  0  0  0
 13 35  1  6  0  0  0
 13  2  1  0  0  0  0
 14  3  1  0  0  0  0
 14 13  1  0  0  0  0
 15  4  1  0  0  0  0
 16 18  1  0  0  0  0
 16  3  1  0  0  0  0
 17 16  2  0  0  0  0
 19 20  1  6  0  0  0
 19 21  1  0  0  0  0
 19 18  1  0  0  0  0
 21 22  1  0  0  0  0
 22 25  1  0  0  0  0
 24 22  1  0  0  0  0
 24 26  2  0  0  0  0
 25 23  2  0  0  0  0
 25 27  1  0  0  0  0
 26 23  1  0  0  0  0
 27 28  1  1  0  0  0
 27 29  1  0  0  0  0
 29 33  1  0  0  0  0
 29 34  1  0  0  0  0
 31 32  1  0  0  0  0
 32 30  1  0  0  0  0
 33 31  1  0  0  0  0
 34 32  2  0  0  0  0
 36 35  1  0  0  0  0
 38 43  1  6  0  0  0
 38 37  1  0  0  0  0
 39 40  1  0  0  0  0
 40 36  1  6  0  0  0
 40 37  1  0  0  0  0
 41 39  1  0  0  0  0
 41 38  1  0  0  0  0
 43 42  1  0  0  0  0
M  END
>  <MODEL>
6

>  <REMARK>
 VINA RESULT:      -8.3      3.400      8.480
  Name = 
  11 active torsions:
  status: ('A' for Active; 'I' for Inactive)
    1  A    between atoms: C_1  and  O_32
    2  A    between atoms: C_1  and  C_34
    3  A    between atoms: C_2  and  C_6
    4  A    between atoms: C_2  and  C_13
    5  A    between atoms: C_3  and  N_4
    6  A    between atoms: C_3  and  C_12
    7  A    between atoms: C_6  and  C_12
    8  A    between atoms: N_11  and  C_14
    9  A    between atoms: C_14  and  C_22
   10  A    between atoms: C_19  and  C_37
   11  A    between atoms: O_32  and  C_35
                            x       y       z     vdW  Elec       q    Type
                         _______ _______ _______ _____ _____    ______ ____

>  <TORSDO>
F 11

$$$$
=
 OpenBabel10262422063D

 43 48  0  0  1  0  0  0  0  0999 V2000
  191.1620  176.9220  147.1110 C   0  0  0  0  0  0  0  0  0  0  0  0
  187.0310  177.6920  144.1580 C   0  0  0  0  0  0  0  0  0  0  0  0
  188.1280  177.8590  141.5490 C   0  0  0  0  0  0  0  0  0  0  0  0
  188.7980  177.2370  146.2910 C   0  0  0  0  0  0  0  0  0  0  0  0
  191.6210  177.1070  145.7280 C   0  0  0  0  0  3  0  0  0  0  0  0
  192.0090  176.7140  148.0160 O   0  0  0  0  0  0  0  0  0  0  0  0
  189.3050  177.4140  144.9860 C   0  0  0  0  0  0  0  0  0  0  0  0
  189.7030  176.9870  147.4670 C   0  0  0  0  0  2  0  0  0  0  0  0
  190.7570  177.3380  144.7410 C   0  0  0  0  0  3  0  0  0  0  0  0
  188.9180  177.7900  142.5790 N   0  0  0  0  0  0  0  0  0  0  0  0
  188.4180  177.6400  143.9160 C   0  0  0  0  0  0  0  0  0  0  0  0
  186.5400  177.5120  145.4550 C   0  0  0  0  0  3  0  0  0  0  0  0
  186.0790  178.0030  143.0360 C   0  0  2  0  0  3  0  0  0  0  0  0
  186.7070  177.7860  141.7330 N   0  0  0  0  0  2  0  0  0  0  0  0
  187.4200  177.2840  146.5120 C   0  0  0  0  0  3  0  0  0  0  0  0
  188.6930  177.9690  140.1960 C   0  0  0  0  0  0  0  0  0  0  0  0
  189.9270  177.7990  140.0110 O   0  0  0  0  0  0  0  0  0  0  0  0
  187.8260  178.3060  139.0290 C   0  0  0  0  0  2  0  0  0  0  0  0
  188.6500  178.3780  137.7540 C   0  0  2  0  0  3  0  0  0  0  0  0
  188.9080  179.7100  137.4340 O   0  0  0  0  0  1  0  0  0  0  0  0
  187.8940  177.7280  136.6080 C   0  0  0  0  0  2  0  0  0  0  0  0
  188.1470  176.2950  136.5820 N   0  0  0  0  0  0  0  0  0  0  0  0
  187.9010  174.1110  136.1940 N   0  0  0  0  0  0  0  0  0  0  0  0
  189.2340  175.6750  137.0670 C   0  0  0  0  0  3  0  0  0  0  0  0
  187.3620  175.3370  136.0580 C   0  0  0  0  0  0  0  0  0  0  0  0
  189.0770  174.3200  136.8250 C   0  0  0  0  0  3  0  0  0  0  0  0
  186.0330  175.6040  135.4100 C   0  0  1  0  0  3  0  0  0  0  0  0
  185.6790  174.5410  134.5990 F   0  0  0  0  0  0  0  0  0  0  0  0
  184.9950  175.8420  136.4040 N   0  0  0  0  0  0  0  0  0  0  0  0
  183.2590  178.4460  138.2840 C   0  0  0  0  0  1  0  0  0  0  0  0
  183.1920  175.5770  138.3210 S   0  0  0  0  0  0  0  0  0  0  0  0
  183.7680  177.1640  137.7360 C   0  0  0  0  0  0  0  0  0  0  0  0
  184.3230  174.7740  137.1290 C   0  0  0  0  0  2  0  0  0  0  0  0
  184.6490  177.1330  136.8000 N   0  0  0  0  0  0  0  0  0  0  0  0
  185.6130  179.4460  143.1450 C   0  0  0  0  0  2  0  0  0  0  0  0
  184.4980  179.5250  143.9840 O   0  0  0  0  0  0  0  0  0  0  0  0
  182.2350  178.8190  144.0980 C   0  0  0  0  0  2  0  0  0  0  0  0
  181.2370  178.6190  142.9840 C   0  0  2  0  0  3  0  0  0  0  0  0
  183.3220  179.0060  141.9770 C   0  0  0  0  0  2  0  0  0  0  0  0
  183.5680  178.6460  143.4270 C   0  0  1  0  0  3  0  0  0  0  0  0
  181.8850  178.9820  141.7290 N   0  0  0  0  0  2  0  0  0  0  0  0
  180.0540  180.5950  142.3610 O   0  0  0  0  0  1  0  0  0  0  0  0
  180.0230  179.4980  143.2220 C   0  0  0  0  0  2  0  0  0  0  0  0
  1  8  1  0  0  0  0
  1  6  2  0  0  0  0
  2 12  1  0  0  0  0
  3 14  1  0  0  0  0
  3 10  2  0  0  0  0
  4 15  1  0  0  0  0
  4  8  1  0  0  0  0
  5  1  1  0  0  0  0
  7  4  2  0  0  0  0
  9  7  1  0  0  0  0
  9  5  2  0  0  0  0
 10 11  1  0  0  0  0
 11  2  2  0  0  0  0
 11  7  1  0  0  0  0
 12 15  2  0  0  0  0
 13 35  1  6  0  0  0
 13  2  1  0  0  0  0
 14 13  1  0  0  0  0
 16  3  1  0  0  0  0
 17 16  2  0  0  0  0
 18 16  1  0  0  0  0
 19 20  1  6  0  0  0
 19 18  1  0  0  0  0
 21 19  1  0  0  0  0
 22 21  1  0  0  0  0
 22 24  1  0  0  0  0
 23 26  1  0  0  0  0
 25 23  2  0  0  0  0
 25 22  1  0  0  0  0
 26 24  2  0  0  0  0
 27 28  1  1  0  0  0
 27 25  1  0  0  0  0
 27 29  1  0  0  0  0
 29 34  1  0  0  0  0
 29 33  1  0  0  0  0
 32 30  1  0  0  0  0
 32 31  1  0  0  0  0
 33 31  1  0  0  0  0
 34 32  2  0  0  0  0
 35 36  1  0  0  0  0
 38 43  1  1  0  0  0
 38 37  1  0  0  0  0
 39 40  1  0  0  0  0
 40 36  1  1  0  0  0
 40 37  1  0  0  0  0
 41 39  1  0  0  0  0
 41 38  1  0  0  0  0
 42 43  1  0  0  0  0
M  END
>  <MODEL>
7

>  <REMARK>
 VINA RESULT:      -8.3      2.477      6.578
  Name = 
  11 active torsions:
  status: ('A' for Active; 'I' for Inactive)
    1  A    between atoms: C_1  and  O_32
    2  A    between atoms: C_1  and  C_34
    3  A    between atoms: C_2  and  C_6
    4  A    between atoms: C_2  and  C_13
    5  A    between atoms: C_3  and  N_4
    6  A    between atoms: C_3  and  C_12
    7  A    between atoms: C_6  and  C_12
    8  A    between atoms: N_11  and  C_14
    9  A    between atoms: C_14  and  C_22
   10  A    between atoms: C_19  and  C_37
   11  A    between atoms: O_32  and  C_35
                            x       y       z     vdW  Elec       q    Type
                         _______ _______ _______ _____ _____    ______ ____

>  <TORSDO>
F 11

$$$$
=
 OpenBabel10262422063D

 43 48  0  0  1  0  0  0  0  0999 V2000
  190.8920  176.8070  146.9330 C   0  0  0  0  0  0  0  0  0  0  0  0
  189.4710  177.9840  142.1400 C   0  0  0  0  0  0  0  0  0  0  0  0
  186.6580  178.2550  142.3520 C   0  0  0  0  0  0  0  0  0  0  0  0
  190.9020  177.3590  144.4730 C   0  0  0  0  0  0  0  0  0  0  0  0
  189.4260  176.8940  146.9030 C   0  0  0  0  0  3  0  0  0  0  0  0
  191.4680  176.5310  148.0160 O   0  0  0  0  0  0  0  0  0  0  0  0
  189.4930  177.4200  144.5100 C   0  0  0  0  0  0  0  0  0  0  0  0
  191.7160  177.0310  145.6960 C   0  0  0  0  0  2  0  0  0  0  0  0
  188.7770  177.1760  145.7760 C   0  0  0  0  0  3  0  0  0  0  0  0
  187.3450  177.8310  143.3710 N   0  0  0  0  0  0  0  0  0  0  0  0
  188.7760  177.7350  143.3410 C   0  0  0  0  0  0  0  0  0  0  0  0
  190.8680  177.9240  142.1170 C   0  0  0  0  0  3  0  0  0  0  0  0
  188.7140  178.2520  140.8700 C   0  0  2  0  0  3  0  0  0  0  0  0
  187.3340  178.6440  141.1490 N   0  0  0  0  0  2  0  0  0  0  0  0
  191.5770  177.6160  143.2770 C   0  0  0  0  0  3  0  0  0  0  0  0
  185.1950  178.3760  142.4520 C   0  0  0  0  0  0  0  0  0  0  0  0
  184.6170  178.1680  143.5500 O   0  0  0  0  0  0  0  0  0  0  0  0
  184.3730  178.7190  141.2540 C   0  0  0  0  0  2  0  0  0  0  0  0
  183.0620  177.9500  141.2690 C   0  0  2  0  0  3  0  0  0  0  0  0
  183.0800  176.9690  140.2790 O   0  0  0  0  0  1  0  0  0  0  0  0
  181.9010  178.8960  141.0110 C   0  0  0  0  0  2  0  0  0  0  0  0
  180.9500  178.8410  142.1110 N   0  0  0  0  0  0  0  0  0  0  0  0
  179.0570  178.5520  143.2570 N   0  0  0  0  0  0  0  0  0  0  0  0
  181.2160  179.0990  143.4010 C   0  0  0  0  0  3  0  0  0  0  0  0
  179.6480  178.5110  142.0490 C   0  0  0  0  0  0  0  0  0  0  0  0
  180.0400  178.9180  144.1080 C   0  0  0  0  0  3  0  0  0  0  0  0
  178.9340  178.1510  140.7770 C   0  0  1  0  0  3  0  0  0  0  0  0
  179.3520  178.9760  139.7480 F   0  0  0  0  0  0  0  0  0  0  0  0
  179.1570  176.7560  140.4190 N   0  0  0  0  0  0  0  0  0  0  0  0
  179.3300  173.3640  141.7590 C   0  0  0  0  0  1  0  0  0  0  0  0
  179.8180  174.5170  139.1760 S   0  0  0  0  0  0  0  0  0  0  0  0
  179.3710  174.5780  140.9050 C   0  0  0  0  0  0  0  0  0  0  0  0
  179.5790  176.3280  139.0940 C   0  0  0  0  0  2  0  0  0  0  0  0
  179.0760  175.7400  141.3700 N   0  0  0  0  0  0  0  0  0  0  0  0
  188.7250  177.0080  139.9940 C   0  0  0  0  0  2  0  0  0  0  0  0
  188.3520  177.3400  138.6890 O   0  0  0  0  0  0  0  0  0  0  0  0
  190.3350  176.0850  138.3350 C   0  0  0  0  0  2  0  0  0  0  0  0
  190.9740  175.6480  137.0400 C   0  0  2  0  0  3  0  0  0  0  0  0
  189.2320  177.1210  136.4850 C   0  0  0  0  0  2  0  0  0  0  0  0
  189.5390  177.3020  137.9570 C   0  0  1  0  0  3  0  0  0  0  0  0
  190.1250  176.1020  135.9440 N   0  0  0  0  0  2  0  0  0  0  0  0
  189.8560  173.5520  137.2690 O   0  0  0  0  0  1  0  0  0  0  0  0
  191.0980  174.1360  137.0170 C   0  0  0  0  0  2  0  0  0  0  0  0
  1  6  2  0  0  0  0
  2 11  1  0  0  0  0
  3 16  1  0  0  0  0
  3 10  2  0  0  0  0
  4  7  1  0  0  0  0
  4  8  1  0  0  0  0
  5  1  1  0  0  0  0
  7  9  1  0  0  0  0
  8  1  1  0  0  0  0
  9  5  2  0  0  0  0
 11 10  1  0  0  0  0
 11  7  2  0  0  0  0
 12  2  2  0  0  0  0
 12 15  1  0  0  0  0
 13 35  1  6  0  0  0
 13 14  1  0  0  0  0
 13  2  1  0  0  0  0
 14  3  1  0  0  0  0
 15  4  2  0  0  0  0
 16 17  2  0  0  0  0
 18 19  1  0  0  0  0
 18 16  1  0  0  0  0
 19 20  1  6  0  0  0
 21 19  1  0  0  0  0
 21 22  1  0  0  0  0
 22 24  1  0  0  0  0
 23 26  1  0  0  0  0
 24 26  2  0  0  0  0
 25 22  1  0  0  0  0
 25 23  2  0  0  0  0
 27 28  1  6  0  0  0
 27 25  1  0  0  0  0
 29 27  1  0  0  0  0
 29 34  1  0  0  0  0
 31 32  1  0  0  0  0
 32 34  2  0  0  0  0
 32 30  1  0  0  0  0
 33 31  1  0  0  0  0
 33 29  1  0  0  0  0
 36 35  1  0  0  0  0
 38 43  1  1  0  0  0
 38 37  1  0  0  0  0
 39 40  1  0  0  0  0
 40 37  1  0  0  0  0
 40 36  1  1  0  0  0
 41 39  1  0  0  0  0
 41 38  1  0  0  0  0
 43 42  1  0  0  0  0
M  END
>  <MODEL>
8

>  <REMARK>
 VINA RESULT:      -8.2      3.152      4.584
  Name = 
  11 active torsions:
  status: ('A' for Active; 'I' for Inactive)
    1  A    between atoms: C_1  and  O_32
    2  A    between atoms: C_1  and  C_34
    3  A    between atoms: C_2  and  C_6
    4  A    between atoms: C_2  and  C_13
    5  A    between atoms: C_3  and  N_4
    6  A    between atoms: C_3  and  C_12
    7  A    between atoms: C_6  and  C_12
    8  A    between atoms: N_11  and  C_14
    9  A    between atoms: C_14  and  C_22
   10  A    between atoms: C_19  and  C_37
   11  A    between atoms: O_32  and  C_35
                            x       y       z     vdW  Elec       q    Type
                         _______ _______ _______ _____ _____    ______ ____

>  <TORSDO>
F 11

$$$$
=
 OpenBabel10262422063D

 43 48  0  0  1  0  0  0  0  0999 V2000
  187.9400  177.4870  147.4150 C   0  0  0  0  0  0  0  0  0  0  0  0
  188.9820  178.1590  142.4310 C   0  0  0  0  0  0  0  0  0  0  0  0
  186.4250  178.6130  141.2960 C   0  0  0  0  0  0  0  0  0  0  0  0
  189.1240  177.7380  145.2030 C   0  0  0  0  0  0  0  0  0  0  0  0
  186.6660  177.6510  146.7040 C   0  0  0  0  0  3  0  0  0  0  0  0
  187.9300  177.3100  148.6600 O   0  0  0  0  0  0  0  0  0  0  0  0
  187.8670  177.8820  144.5790 C   0  0  0  0  0  0  0  0  0  0  0  0
  189.2540  177.5140  146.6860 C   0  0  0  0  0  2  0  0  0  0  0  0
  186.6330  177.8330  145.3850 C   0  0  0  0  0  3  0  0  0  0  0  0
  186.5260  178.2750  142.5470 N   0  0  0  0  0  0  0  0  0  0  0  0
  187.7960  178.0950  143.1900 C   0  0  0  0  0  0  0  0  0  0  0  0
  190.2230  178.0180  143.0620 C   0  0  0  0  0  3  0  0  0  0  0  0
  188.9180  178.3160  140.9380 C   0  0  2  0  0  3  0  0  0  0  0  0
  187.6100  178.8160  140.5140 N   0  0  0  0  0  2  0  0  0  0  0  0
  190.2910  177.8120  144.4390 C   0  0  0  0  0  3  0  0  0  0  0  0
  185.0990  178.8270  140.6970 C   0  0  0  0  0  0  0  0  0  0  0  0
  184.9260  179.7480  139.8570 O   0  0  0  0  0  0  0  0  0  0  0  0
  183.9360  177.9780  141.0910 C   0  0  0  0  0  2  0  0  0  0  0  0
  182.7900  178.8430  141.5910 C   0  0  2  0  0  3  0  0  0  0  0  0
  182.7130  178.7660  142.9810 O   0  0  0  0  0  1  0  0  0  0  0  0
  181.4780  178.3650  140.9930 C   0  0  0  0  0  2  0  0  0  0  0  0
  181.2480  178.9990  139.7030 N   0  0  0  0  0  0  0  0  0  0  0  0
  180.8840  179.2780  137.5190 N   0  0  0  0  0  0  0  0  0  0  0  0
  181.1350  180.3170  139.4790 C   0  0  0  0  0  3  0  0  0  0  0  0
  181.0900  178.3940  138.5130 C   0  0  0  0  0  0  0  0  0  0  0  0
  180.9090  180.4860  138.1230 C   0  0  0  0  0  3  0  0  0  0  0  0
  181.1480  176.9060  138.3140 C   0  0  1  0  0  3  0  0  0  0  0  0
  180.0850  176.4880  137.5340 F   0  0  0  0  0  0  0  0  0  0  0  0
  182.4070  176.5010  137.7020 N   0  0  0  0  0  0  0  0  0  0  0  0
  185.9000  177.4560  137.2420 C   0  0  0  0  0  1  0  0  0  0  0  0
  184.2640  175.3270  136.2290 S   0  0  0  0  0  0  0  0  0  0  0  0
  184.5700  176.7990  137.1950 C   0  0  0  0  0  0  0  0  0  0  0  0
  182.5290  175.3590  136.8070 C   0  0  0  0  0  2  0  0  0  0  0  0
  183.5680  177.2550  137.8580 N   0  0  0  0  0  0  0  0  0  0  0  0
  189.1940  176.9780  140.2700 C   0  0  0  0  0  2  0  0  0  0  0  0
  190.5310  176.9110  139.8700 O   0  0  0  0  0  0  0  0  0  0  0  0
  189.5120  176.4450  137.7780 C   0  0  0  0  0  2  0  0  0  0  0  0
  190.1520  176.1200  136.4520 C   0  0  2  0  0  3  0  0  0  0  0  0
  191.8620  176.1140  138.0610 C   0  0  0  0  0  2  0  0  0  0  0  0
  190.5390  176.0250  138.7920 C   0  0  1  0  0  3  0  0  0  0  0  0
  191.5990  176.1700  136.6260 N   0  0  0  0  0  2  0  0  0  0  0  0
  189.0740  178.2060  136.0300 O   0  0  0  0  0  1  0  0  0  0  0  0
  189.7140  177.1330  135.4110 C   0  0  0  0  0  2  0  0  0  0  0  0
  1  6  2  0  0  0  0
  2 12  2  0  0  0  0
  2 11  1  0  0  0  0
  3 10  2  0  0  0  0
  4  8  1  0  0  0  0
  5  1  1  0  0  0  0
  7  4  1  0  0  0  0
  7  9  1  0  0  0  0
  8  1  1  0  0  0  0
  9  5  2  0  0  0  0
 10 11  1  0  0  0  0
 11  7  2  0  0  0  0
 12 15  1  0  0  0  0
 13 35  1  6  0  0  0
 13  2  1  0  0  0  0
 14 13  1  0  0  0  0
 14  3  1  0  0  0  0
 15  4  2  0  0  0  0
 16 18  1  0  0  0  0
 16  3  1  0  0  0  0
 17 16  2  0  0  0  0
 18 19  1  0  0  0  0
 19 20  1  1  0  0  0
 21 19  1  0  0  0  0
 22 21  1  0  0  0  0
 23 26  1  0  0  0  0
 23 25  2  0  0  0  0
 24 22  1  0  0  0  0
 25 22  1  0  0  0  0
 26 24  2  0  0  0  0
 27 28  1  6  0  0  0
 27 25  1  0  0  0  0
 29 34  1  0  0  0  0
 29 27  1  0  0  0  0
 31 33  1  0  0  0  0
 31 32  1  0  0  0  0
 32 30  1  0  0  0  0
 32 34  2  0  0  0  0
 33 29  1  0  0  0  0
 36 35  1  0  0  0  0
 37 40  1  0  0  0  0
 38 43  1  6  0  0  0
 38 41  1  0  0  0  0
 38 37  1  0  0  0  0
 39 40  1  0  0  0  0
 40 36  1  1  0  0  0
 41 39  1  0  0  0  0
 43 42  1  0  0  0  0
M  END
>  <MODEL>
9

>  <REMARK>
 VINA RESULT:      -8.1      1.647      2.108
  Name = 
  11 active torsions:
  status: ('A' for Active; 'I' for Inactive)
    1  A    between atoms: C_1  and  O_32
    2  A    between atoms: C_1  and  C_34
    3  A    between atoms: C_2  and  C_6
    4  A    between atoms: C_2  and  C_13
    5  A    between atoms: C_3  and  N_4
    6  A    between atoms: C_3  and  C_12
    7  A    between atoms: C_6  and  C_12
    8  A    between atoms: N_11  and  C_14
    9  A    between atoms: C_14  and  C_22
   10  A    between atoms: C_19  and  C_37
   11  A    between atoms: O_32  and  C_35
                            x       y       z     vdW  Elec       q    Type
                         _______ _______ _______ _____ _____    ______ ____

>  <TORSDO>
F 11

$$$$
