=
 OpenBabel10262420093D

 27 30  0  0  1  0  0  0  0  0999 V2000
  188.1590  177.5660  142.2610 C   0  0  2  0  0  3  0  0  0  0  0  0
  185.7410  178.0570  141.9570 N   0  0  0  0  0  0  0  0  0  0  0  0
  182.9980  178.7390  144.3000 C   0  0  0  0  0  3  0  0  0  0  0  0
  180.6660  179.1980  143.8860 O   0  0  0  0  0  1  0  0  0  0  0  0
  186.6160  177.9890  144.1840 C   0  0  0  0  0  3  0  0  0  0  0  0
  183.4320  178.5120  141.5370 C   0  0  0  0  0  3  0  0  0  0  0  0
  182.1540  178.7990  142.0280 C   0  0  0  0  0  3  0  0  0  0  0  0
  184.4970  178.3380  142.4260 C   0  0  0  0  0  0  0  0  0  0  0  0
  181.9370  178.9120  143.4060 C   0  0  0  0  0  0  0  0  0  0  0  0
  184.2770  178.4520  143.8160 C   0  0  0  0  0  0  0  0  0  0  0  0
  186.7980  177.8830  142.8010 C   0  0  0  0  0  0  0  0  0  0  0  0
  185.3480  178.2760  144.6920 C   0  0  0  0  0  3  0  0  0  0  0  0
  191.6710  177.2190  144.7900 C   0  0  0  0  0  3  0  0  0  0  0  0
  189.1930  177.4140  143.3840 C   0  0  1  0  0  3  0  0  0  0  0  0
  190.0470  176.1610  143.1810 C   0  0  0  0  0  2  0  0  0  0  0  0
  190.9430  175.9560  144.4010 C   0  0  0  0  0  2  0  0  0  0  0  0
  191.2710  178.4340  144.3860 C   0  0  0  0  0  3  0  0  0  0  0  0
  190.1280  178.6270  143.4220 C   0  0  0  0  0  2  0  0  0  0  0  0
  188.6650  178.8660  141.0790 S   0  0  0  0  0  0  0  0  0  0  0  0
  191.4020  177.6360  140.6450 F   0  0  0  0  0  0  0  0  0  0  0  0
  189.8770  175.8300  137.8560 C   0  0  0  0  0  0  0  0  0  0  0  0
  190.2360  174.9100  136.8810 O   0  0  0  0  0  1  0  0  0  0  0  0
  189.1500  177.6810  139.8260 C   0  0  0  0  0  0  0  0  0  0  0  0
  190.8280  176.2820  138.7750 C   0  0  0  0  0  3  0  0  0  0  0  0
  188.5630  176.3040  137.9180 C   0  0  0  0  0  3  0  0  0  0  0  0
  188.2010  177.2300  138.9010 C   0  0  0  0  0  3  0  0  0  0  0  0
  190.4690  177.2080  139.7590 C   0  0  0  0  0  0  0  0  0  0  0  0
  1 19  1  6  0  0  0
  1 11  1  0  0  0  0
  2  8  2  0  0  0  0
  2 11  1  0  0  0  0
  5 12  1  0  0  0  0
  6  7  2  0  0  0  0
  6  8  1  0  0  0  0
  7  9  1  0  0  0  0
  8 10  1  0  0  0  0
  9  4  1  0  0  0  0
  9  3  2  0  0  0  0
 10  3  1  0  0  0  0
 10 12  2  0  0  0  0
 11  5  2  0  0  0  0
 14  1  1  6  0  0  0
 14 18  1  0  0  0  0
 15 14  1  0  0  0  0
 15 16  1  0  0  0  0
 16 13  1  0  0  0  0
 17 13  2  0  0  0  0
 18 17  1  0  0  0  0
 21 25  2  0  0  0  0
 21 24  1  0  0  0  0
 22 21  1  0  0  0  0
 23 19  1  0  0  0  0
 24 27  2  0  0  0  0
 25 26  1  0  0  0  0
 26 23  2  0  0  0  0
 27 23  1  0  0  0  0
 27 20  1  0  0  0  0
M  END
>  <MODEL>
1

>  <REMARK>
 VINA RESULT:      -8.0      0.000      0.000
  Name = 
  4 active torsions:
  status: ('A' for Active; 'I' for Inactive)
    1  A    between atoms: S_1  and  C_15
    2  A    between atoms: S_1  and  C_18
    3  A    between atoms: C_9  and  C_15
    4  A    between atoms: C_15  and  C_19
                            x       y       z     vdW  Elec       q    Type
                         _______ _______ _______ _____ _____    ______ ____

>  <TORSDO>
F 4

$$$$
=
 OpenBabel10262420093D

 27 30  0  0  1  0  0  0  0  0999 V2000
  189.2370  177.1770  144.0540 C   0  0  2  0  0  3  0  0  0  0  0  0
  186.9460  177.7560  143.2810 N   0  0  0  0  0  0  0  0  0  0  0  0
  183.8540  178.6730  145.0360 C   0  0  0  0  0  3  0  0  0  0  0  0
  181.6670  179.2100  144.1710 O   0  0  0  0  0  1  0  0  0  0  0  0
  187.3860  177.7640  145.6330 C   0  0  0  0  0  3  0  0  0  0  0  0
  184.7810  178.2880  142.4150 C   0  0  0  0  0  3  0  0  0  0  0  0
  183.4510  178.6540  142.6440 C   0  0  0  0  0  3  0  0  0  0  0  0
  185.6520  178.1130  143.4950 C   0  0  0  0  0  0  0  0  0  0  0  0
  182.9880  178.8460  143.9510 C   0  0  0  0  0  0  0  0  0  0  0  0
  185.1840  178.3080  144.8130 C   0  0  0  0  0  0  0  0  0  0  0  0
  187.8160  177.5790  144.3150 C   0  0  0  0  0  0  0  0  0  0  0  0
  186.0630  178.1300  145.8810 C   0  0  0  0  0  3  0  0  0  0  0  0
  191.6510  176.4670  147.5920 C   0  0  0  0  0  3  0  0  0  0  0  0
  189.9230  176.6650  145.3270 C   0  0  1  0  0  3  0  0  0  0  0  0
  191.4110  176.4080  145.0850 C   0  0  0  0  0  2  0  0  0  0  0  0
  192.0180  175.7450  146.3200 C   0  0  0  0  0  2  0  0  0  0  0  0
  190.6110  177.3120  147.6660 C   0  0  0  0  0  3  0  0  0  0  0  0
  189.7940  177.6910  146.4570 C   0  0  0  0  0  2  0  0  0  0  0  0
  190.1500  178.5920  143.3420 S   0  0  0  0  0  0  0  0  0  0  0  0
  192.3670  177.1400  141.8680 F   0  0  0  0  0  0  0  0  0  0  0  0
  190.0090  176.8680  139.0890 C   0  0  0  0  0  0  0  0  0  0  0  0
  189.9580  176.3470  137.8040 O   0  0  0  0  0  1  0  0  0  0  0  0
  190.1070  177.9140  141.6830 C   0  0  0  0  0  0  0  0  0  0  0  0
  191.1760  176.7450  139.8480 C   0  0  0  0  0  3  0  0  0  0  0  0
  188.8920  177.5170  139.6240 C   0  0  0  0  0  3  0  0  0  0  0  0
  188.9410  178.0410  140.9190 C   0  0  0  0  0  3  0  0  0  0  0  0
  191.2290  177.2690  141.1440 C   0  0  0  0  0  0  0  0  0  0  0  0
  1 19  1  1  0  0  0
  1 11  1  0  0  0  0
  2  8  2  0  0  0  0
  2 11  1  0  0  0  0
  5 12  1  0  0  0  0
  6  7  2  0  0  0  0
  6  8  1  0  0  0  0
  7  9  1  0  0  0  0
  8 10  1  0  0  0  0
  9  4  1  0  0  0  0
  9  3  2  0  0  0  0
 10  3  1  0  0  0  0
 10 12  2  0  0  0  0
 11  5  2  0  0  0  0
 13 17  2  0  0  0  0
 14  1  1  6  0  0  0
 14 18  1  0  0  0  0
 15 14  1  0  0  0  0
 15 16  1  0  0  0  0
 16 13  1  0  0  0  0
 18 17  1  0  0  0  0
 21 25  2  0  0  0  0
 21 24  1  0  0  0  0
 22 21  1  0  0  0  0
 23 19  1  0  0  0  0
 24 27  2  0  0  0  0
 25 26  1  0  0  0  0
 26 23  2  0  0  0  0
 27 23  1  0  0  0  0
 27 20  1  0  0  0  0
M  END
>  <MODEL>
2

>  <REMARK>
 VINA RESULT:      -8.0      1.607      2.010
  Name = 
  4 active torsions:
  status: ('A' for Active; 'I' for Inactive)
    1  A    between atoms: S_1  and  C_15
    2  A    between atoms: S_1  and  C_18
    3  A    between atoms: C_9  and  C_15
    4  A    between atoms: C_15  and  C_19
                            x       y       z     vdW  Elec       q    Type
                         _______ _______ _______ _____ _____    ______ ____

>  <TORSDO>
F 4

$$$$
=
 OpenBabel10262420093D

 27 30  0  0  1  0  0  0  0  0999 V2000
  189.2710  177.6590  143.6250 C   0  0  2  0  0  3  0  0  0  0  0  0
  189.7210  176.9930  141.2720 N   0  0  0  0  0  0  0  0  0  0  0  0
  192.7260  177.0740  139.1640 C   0  0  0  0  0  3  0  0  0  0  0  0
  193.0440  176.4030  136.8700 O   0  0  0  0  0  1  0  0  0  0  0  0
  191.5270  177.8810  142.5670 C   0  0  0  0  0  3  0  0  0  0  0  0
  190.0270  176.3250  138.9970 C   0  0  0  0  0  3  0  0  0  0  0  0
  190.8680  176.1780  137.8890 C   0  0  0  0  0  3  0  0  0  0  0  0
  190.5320  176.8460  140.1920 C   0  0  0  0  0  0  0  0  0  0  0  0
  192.2140  176.5510  137.9720 C   0  0  0  0  0  0  0  0  0  0  0  0
  191.8900  177.2220  140.2740 C   0  0  0  0  0  0  0  0  0  0  0  0
  190.1870  177.4980  142.4490 C   0  0  0  0  0  0  0  0  0  0  0  0
  192.3810  177.7420  141.4720 C   0  0  0  0  0  3  0  0  0  0  0  0
  191.1900  176.6610  147.3890 C   0  0  0  0  0  3  0  0  0  0  0  0
  190.0370  177.6040  144.9520 C   0  0  1  0  0  3  0  0  0  0  0  0
  189.1030  177.2660  146.1150 C   0  0  0  0  0  2  0  0  0  0  0  0
  189.8690  177.3870  147.4310 C   0  0  0  0  0  2  0  0  0  0  0  0
  191.7870  176.3180  146.2370 C   0  0  0  0  0  3  0  0  0  0  0  0
  191.1330  176.5340  144.8960 C   0  0  0  0  0  2  0  0  0  0  0  0
  187.9710  176.3730  143.5660 S   0  0  0  0  0  0  0  0  0  0  0  0
  186.8690  178.1150  141.3430 F   0  0  0  0  0  0  0  0  0  0  0  0
  184.5610  179.4330  143.8530 C   0  0  0  0  0  0  0  0  0  0  0  0
  183.5270  180.3540  143.9460 O   0  0  0  0  0  1  0  0  0  0  0  0
  186.6410  177.5700  143.6650 C   0  0  0  0  0  0  0  0  0  0  0  0
  185.2090  179.2300  142.6310 C   0  0  0  0  0  3  0  0  0  0  0  0
  184.9530  178.7080  144.9810 C   0  0  0  0  0  3  0  0  0  0  0  0
  185.9940  177.7790  144.8890 C   0  0  0  0  0  3  0  0  0  0  0  0
  186.2510  178.3020  142.5340 C   0  0  0  0  0  0  0  0  0  0  0  0
  1 19  1  1  0  0  0
  2 11  1  0  0  0  0
  3 10  1  0  0  0  0
  4  9  1  0  0  0  0
  6  8  1  0  0  0  0
  7  9  1  0  0  0  0
  7  6  2  0  0  0  0
  8 10  1  0  0  0  0
  8  2  2  0  0  0  0
  9  3  2  0  0  0  0
 10 12  2  0  0  0  0
 11  5  2  0  0  0  0
 11  1  1  0  0  0  0
 12  5  1  0  0  0  0
 13 16  1  0  0  0  0
 14  1  1  6  0  0  0
 14 15  1  0  0  0  0
 15 16  1  0  0  0  0
 17 13  2  0  0  0  0
 18 14  1  0  0  0  0
 18 17  1  0  0  0  0
 19 23  1  0  0  0  0
 20 27  1  0  0  0  0
 21 22  1  0  0  0  0
 21 25  1  0  0  0  0
 23 26  1  0  0  0  0
 24 21  2  0  0  0  0
 26 25  2  0  0  0  0
 27 24  1  0  0  0  0
 27 23  2  0  0  0  0
M  END
>  <MODEL>
3

>  <REMARK>
 VINA RESULT:      -7.8      2.195      7.103
  Name = 
  4 active torsions:
  status: ('A' for Active; 'I' for Inactive)
    1  A    between atoms: S_1  and  C_15
    2  A    between atoms: S_1  and  C_18
    3  A    between atoms: C_9  and  C_15
    4  A    between atoms: C_15  and  C_19
                            x       y       z     vdW  Elec       q    Type
                         _______ _______ _______ _____ _____    ______ ____

>  <TORSDO>
F 4

$$$$
=
 OpenBabel10262420093D

 27 30  0  0  1  0  0  0  0  0999 V2000
  189.2330  176.9460  139.7710 C   0  0  2  0  0  3  0  0  0  0  0  0
  188.0360  177.3880  141.9040 N   0  0  0  0  0  0  0  0  0  0  0  0
  189.0070  177.1280  145.4360 C   0  0  0  0  0  3  0  0  0  0  0  0
  187.7450  177.5800  147.4410 O   0  0  0  0  0  1  0  0  0  0  0  0
  190.3060  176.6390  142.0100 C   0  0  0  0  0  3  0  0  0  0  0  0
  186.7780  177.8390  143.8870 C   0  0  0  0  0  3  0  0  0  0  0  0
  186.7080  177.8850  145.2830 C   0  0  0  0  0  3  0  0  0  0  0  0
  187.9610  177.4370  143.2610 C   0  0  0  0  0  0  0  0  0  0  0  0
  187.8200  177.5310  146.0560 C   0  0  0  0  0  0  0  0  0  0  0  0
  189.0820  177.0800  144.0410 C   0  0  0  0  0  0  0  0  0  0  0  0
  189.1770  177.0000  141.2680 C   0  0  0  0  0  0  0  0  0  0  0  0
  190.2570  176.6800  143.4030 C   0  0  0  0  0  3  0  0  0  0  0  0
  192.7930  175.6030  137.6800 C   0  0  0  0  0  3  0  0  0  0  0  0
  190.5240  176.2820  139.2750 C   0  0  1  0  0  3  0  0  0  0  0  0
  190.2910  175.5350  137.9610 C   0  0  0  0  0  2  0  0  0  0  0  0
  191.5510  174.7540  137.5920 C   0  0  0  0  0  2  0  0  0  0  0  0
  192.8350  176.7490  138.3780 C   0  0  0  0  0  3  0  0  0  0  0  0
  191.6130  177.3330  139.0390 C   0  0  0  0  0  2  0  0  0  0  0  0
  189.0640  178.6350  139.0920 S   0  0  0  0  0  0  0  0  0  0  0  0
  189.4240  178.2580  136.1050 F   0  0  0  0  0  0  0  0  0  0  0  0
  185.8810  177.3630  136.0390 C   0  0  0  0  0  0  0  0  0  0  0  0
  184.9140  176.9760  135.1220 O   0  0  0  0  0  1  0  0  0  0  0  0
  187.8300  178.1390  137.8910 C   0  0  0  0  0  0  0  0  0  0  0  0
  187.1860  177.6220  135.6120 C   0  0  0  0  0  3  0  0  0  0  0  0
  185.5480  177.4950  137.3900 C   0  0  0  0  0  3  0  0  0  0  0  0
  186.5210  177.8840  138.3150 C   0  0  0  0  0  3  0  0  0  0  0  0
  188.1620  178.0120  136.5340 C   0  0  0  0  0  0  0  0  0  0  0  0
  1 19  1  6  0  0  0
  1 11  1  0  0  0  0
  2  8  1  0  0  0  0
  3  9  1  0  0  0  0
  5 12  2  0  0  0  0
  6  7  1  0  0  0  0
  7  9  2  0  0  0  0
  8  6  2  0  0  0  0
  8 10  1  0  0  0  0
  9  4  1  0  0  0  0
 10  3  2  0  0  0  0
 11  2  2  0  0  0  0
 11  5  1  0  0  0  0
 12 10  1  0  0  0  0
 13 17  2  0  0  0  0
 14  1  1  6  0  0  0
 15 14  1  0  0  0  0
 16 13  1  0  0  0  0
 16 15  1  0  0  0  0
 17 18  1  0  0  0  0
 18 14  1  0  0  0  0
 20 27  1  0  0  0  0
 21 25  1  0  0  0  0
 22 21  1  0  0  0  0
 23 26  1  0  0  0  0
 23 19  1  0  0  0  0
 24 21  2  0  0  0  0
 24 27  1  0  0  0  0
 25 26  2  0  0  0  0
 27 23  2  0  0  0  0
M  END
>  <MODEL>
4

>  <REMARK>
 VINA RESULT:      -7.2      3.112      4.982
  Name = 
  4 active torsions:
  status: ('A' for Active; 'I' for Inactive)
    1  A    between atoms: S_1  and  C_15
    2  A    between atoms: S_1  and  C_18
    3  A    between atoms: C_9  and  C_15
    4  A    between atoms: C_15  and  C_19
                            x       y       z     vdW  Elec       q    Type
                         _______ _______ _______ _____ _____    ______ ____

>  <TORSDO>
F 4

$$$$
=
 OpenBabel10262420093D

 27 30  0  0  1  0  0  0  0  0999 V2000
  189.2780  177.2810  142.7220 C   0  0  2  0  0  3  0  0  0  0  0  0
  189.5650  176.6210  140.3420 N   0  0  0  0  0  0  0  0  0  0  0  0
  192.4250  176.6800  138.0410 C   0  0  0  0  0  3  0  0  0  0  0  0
  192.5830  176.0140  135.7280 O   0  0  0  0  0  1  0  0  0  0  0  0
  191.4620  177.4850  141.5170 C   0  0  0  0  0  3  0  0  0  0  0  0
  189.7130  175.9580  138.0500 C   0  0  0  0  0  3  0  0  0  0  0  0
  190.4780  175.8080  136.8880 C   0  0  0  0  0  3  0  0  0  0  0  0
  190.3020  176.4700  139.2100 C   0  0  0  0  0  0  0  0  0  0  0  0
  191.8310  176.1670  136.8840 C   0  0  0  0  0  0  0  0  0  0  0  0
  191.6660  176.8320  139.2040 C   0  0  0  0  0  0  0  0  0  0  0  0
  190.1130  177.1160  141.4880 C   0  0  0  0  0  0  0  0  0  0  0  0
  192.2410  177.3420  140.3690 C   0  0  0  0  0  3  0  0  0  0  0  0
  185.1970  178.6110  142.0730 C   0  0  0  0  0  3  0  0  0  0  0  0
  187.7940  177.4640  142.3810 C   0  0  1  0  0  3  0  0  0  0  0  0
  186.9710  177.7470  143.6390 C   0  0  0  0  0  2  0  0  0  0  0  0
  185.4860  177.7560  143.2810 C   0  0  0  0  0  2  0  0  0  0  0  0
  186.1500  178.9700  141.2000 C   0  0  0  0  0  3  0  0  0  0  0  0
  187.6050  178.6380  141.4140 C   0  0  0  0  0  2  0  0  0  0  0  0
  189.9050  178.6950  143.6980 S   0  0  0  0  0  0  0  0  0  0  0  0
  188.5870  178.3150  146.4030 F   0  0  0  0  0  0  0  0  0  0  0  0
  191.3270  176.0110  147.1410 C   0  0  0  0  0  0  0  0  0  0  0  0
  191.7620  175.1960  148.1770 O   0  0  0  0  0  1  0  0  0  0  0  0
  190.4500  177.6500  145.0490 C   0  0  0  0  0  0  0  0  0  0  0  0
  190.1610  176.7670  147.2880 C   0  0  0  0  0  3  0  0  0  0  0  0
  192.0570  176.0760  145.9510 C   0  0  0  0  0  3  0  0  0  0  0  0
  191.6200  176.8960  144.9070 C   0  0  0  0  0  3  0  0  0  0  0  0
  189.7210  177.5890  146.2460 C   0  0  0  0  0  0  0  0  0  0  0  0
  1 19  1  6  0  0  0
  2 11  1  0  0  0  0
  3 10  1  0  0  0  0
  4  9  1  0  0  0  0
  6  8  1  0  0  0  0
  7  6  2  0  0  0  0
  8  2  2  0  0  0  0
  9  7  1  0  0  0  0
  9  3  2  0  0  0  0
 10  8  1  0  0  0  0
 10 12  2  0  0  0  0
 11  5  2  0  0  0  0
 11  1  1  0  0  0  0
 12  5  1  0  0  0  0
 13 16  1  0  0  0  0
 14  1  1  1  0  0  0
 14 15  1  0  0  0  0
 16 15  1  0  0  0  0
 17 18  1  0  0  0  0
 17 13  2  0  0  0  0
 18 14  1  0  0  0  0
 19 23  1  0  0  0  0
 21 24  1  0  0  0  0
 21 22  1  0  0  0  0
 23 27  1  0  0  0  0
 25 21  2  0  0  0  0
 26 23  2  0  0  0  0
 26 25  1  0  0  0  0
 27 20  1  0  0  0  0
 27 24  2  0  0  0  0
M  END
>  <MODEL>
5

>  <REMARK>
 VINA RESULT:      -7.2      3.303      7.711
  Name = 
  4 active torsions:
  status: ('A' for Active; 'I' for Inactive)
    1  A    between atoms: S_1  and  C_15
    2  A    between atoms: S_1  and  C_18
    3  A    between atoms: C_9  and  C_15
    4  A    between atoms: C_15  and  C_19
                            x       y       z     vdW  Elec       q    Type
                         _______ _______ _______ _____ _____    ______ ____

>  <TORSDO>
F 4

$$$$
=
 OpenBabel10262420093D

 27 30  0  0  1  0  0  0  0  0999 V2000
  182.1190  178.6290  140.7400 C   0  0  2  0  0  3  0  0  0  0  0  0
  184.1750  178.2600  142.0890 N   0  0  0  0  0  0  0  0  0  0  0  0
  184.9430  178.6280  145.6600 C   0  0  0  0  0  3  0  0  0  0  0  0
  186.9970  178.2440  146.8640 O   0  0  0  0  0  1  0  0  0  0  0  0
  182.1970  179.0030  143.2130 C   0  0  0  0  0  3  0  0  0  0  0  0
  186.2150  177.8770  143.2750 C   0  0  0  0  0  3  0  0  0  0  0  0
  186.9230  177.8750  144.4810 C   0  0  0  0  0  3  0  0  0  0  0  0
  184.8690  178.2540  143.2570 C   0  0  0  0  0  0  0  0  0  0  0  0
  186.2890  178.2490  145.6710 C   0  0  0  0  0  0  0  0  0  0  0  0
  184.2300  178.6320  144.4580 C   0  0  0  0  0  0  0  0  0  0  0  0
  182.8610  178.6230  142.0420 C   0  0  0  0  0  0  0  0  0  0  0  0
  182.8870  179.0060  144.4260 C   0  0  0  0  0  3  0  0  0  0  0  0
  179.5930  175.3360  139.4650 C   0  0  0  0  0  3  0  0  0  0  0  0
  181.2270  177.3910  140.5910 C   0  0  1  0  0  3  0  0  0  0  0  0
  179.8400  177.7690  140.0690 C   0  0  0  0  0  2  0  0  0  0  0  0
  178.9360  176.5380  140.0940 C   0  0  0  0  0  2  0  0  0  0  0  0
  180.9210  175.2500  139.2910 C   0  0  0  0  0  3  0  0  0  0  0  0
  181.8500  176.3940  139.6090 C   0  0  0  0  0  2  0  0  0  0  0  0
  183.3100  178.7480  139.3580 S   0  0  0  0  0  0  0  0  0  0  0  0
  181.6970  178.0230  136.8960 F   0  0  0  0  0  0  0  0  0  0  0  0
  180.5760  181.5030  136.9060 C   0  0  0  0  0  0  0  0  0  0  0  0
  179.7490  182.3400  136.1710 O   0  0  0  0  0  1  0  0  0  0  0  0
  182.2400  179.8130  138.3940 C   0  0  0  0  0  0  0  0  0  0  0  0
  180.7290  180.1650  136.5310 C   0  0  0  0  0  3  0  0  0  0  0  0
  181.2570  181.9980  138.0220 C   0  0  0  0  0  3  0  0  0  0  0  0
  182.0890  181.1550  138.7640 C   0  0  0  0  0  3  0  0  0  0  0  0
  181.5610  179.3190  137.2700 C   0  0  0  0  0  0  0  0  0  0  0  0
  1 19  1  6  0  0  0
  1 11  1  0  0  0  0
  2  8  1  0  0  0  0
  3  9  1  0  0  0  0
  5 12  2  0  0  0  0
  6  7  1  0  0  0  0
  7  9  2  0  0  0  0
  8  6  2  0  0  0  0
  8 10  1  0  0  0  0
  9  4  1  0  0  0  0
 10  3  2  0  0  0  0
 11  2  2  0  0  0  0
 11  5  1  0  0  0  0
 12 10  1  0  0  0  0
 13 16  1  0  0  0  0
 14  1  1  6  0  0  0
 15 16  1  0  0  0  0
 15 14  1  0  0  0  0
 17 13  2  0  0  0  0
 17 18  1  0  0  0  0
 18 14  1  0  0  0  0
 20 27  1  0  0  0  0
 21 25  1  0  0  0  0
 22 21  1  0  0  0  0
 23 26  1  0  0  0  0
 23 19  1  0  0  0  0
 24 21  2  0  0  0  0
 24 27  1  0  0  0  0
 25 26  2  0  0  0  0
 27 23  2  0  0  0  0
M  END
>  <MODEL>
6

>  <REMARK>
 VINA RESULT:      -7.2      4.796      8.164
  Name = 
  4 active torsions:
  status: ('A' for Active; 'I' for Inactive)
    1  A    between atoms: S_1  and  C_15
    2  A    between atoms: S_1  and  C_18
    3  A    between atoms: C_9  and  C_15
    4  A    between atoms: C_15  and  C_19
                            x       y       z     vdW  Elec       q    Type
                         _______ _______ _______ _____ _____    ______ ____

>  <TORSDO>
F 4

$$$$
=
 OpenBabel10262420093D

 27 30  0  0  1  0  0  0  0  0999 V2000
  189.3430  176.9050  139.7820 C   0  0  2  0  0  3  0  0  0  0  0  0
  190.4330  176.6260  141.9990 N   0  0  0  0  0  0  0  0  0  0  0  0
  189.3810  177.3850  145.4340 C   0  0  0  0  0  3  0  0  0  0  0  0
  190.5390  177.0750  147.5270 O   0  0  0  0  0  1  0  0  0  0  0  0
  188.2330  177.5640  141.9250 C   0  0  0  0  0  3  0  0  0  0  0  0
  191.5880  176.3150  144.0700 C   0  0  0  0  0  3  0  0  0  0  0  0
  191.6100  176.4310  145.4630 C   0  0  0  0  0  3  0  0  0  0  0  0
  190.4620  176.7340  143.3540 C   0  0  0  0  0  0  0  0  0  0  0  0
  190.5100  176.9640  146.1440 C   0  0  0  0  0  0  0  0  0  0  0  0
  189.3530  177.2720  144.0420 C   0  0  0  0  0  0  0  0  0  0  0  0
  189.3490  177.0260  141.2760 C   0  0  0  0  0  0  0  0  0  0  0  0
  188.2370  177.6860  143.3150 C   0  0  0  0  0  3  0  0  0  0  0  0
  192.8200  175.4380  137.6340 C   0  0  0  0  0  3  0  0  0  0  0  0
  190.6020  176.1970  139.2670 C   0  0  1  0  0  3  0  0  0  0  0  0
  190.3210  175.4560  137.9580 C   0  0  0  0  0  2  0  0  0  0  0  0
  191.5470  174.6310  137.5700 C   0  0  0  0  0  2  0  0  0  0  0  0
  192.9120  176.5830  138.3280 C   0  0  0  0  0  3  0  0  0  0  0  0
  191.7220  177.2100  139.0090 C   0  0  0  0  0  2  0  0  0  0  0  0
  189.1750  178.5660  139.0360 S   0  0  0  0  0  0  0  0  0  0  0  0
  186.2300  178.6000  139.7530 F   0  0  0  0  0  0  0  0  0  0  0  0
  185.6460  177.3020  136.3860 C   0  0  0  0  0  0  0  0  0  0  0  0
  184.5830  176.9210  135.5780 O   0  0  0  0  0  1  0  0  0  0  0  0
  187.7900  178.0760  138.0110 C   0  0  0  0  0  0  0  0  0  0  0  0
  185.4080  177.7660  137.6830 C   0  0  0  0  0  3  0  0  0  0  0  0
  186.9550  177.2220  135.9010 C   0  0  0  0  0  3  0  0  0  0  0  0
  188.0250  177.6070  136.7130 C   0  0  0  0  0  3  0  0  0  0  0  0
  186.4760  178.1510  138.4980 C   0  0  0  0  0  0  0  0  0  0  0  0
  1 19  1  6  0  0  0
  1 11  1  0  0  0  0
  2  8  1  0  0  0  0
  3  9  1  0  0  0  0
  5 12  2  0  0  0  0
  6  7  1  0  0  0  0
  7  9  2  0  0  0  0
  8 10  1  0  0  0  0
  8  6  2  0  0  0  0
  9  4  1  0  0  0  0
 10  3  2  0  0  0  0
 11  5  1  0  0  0  0
 11  2  2  0  0  0  0
 12 10  1  0  0  0  0
 13 17  2  0  0  0  0
 14  1  1  6  0  0  0
 15 14  1  0  0  0  0
 16 13  1  0  0  0  0
 16 15  1  0  0  0  0
 17 18  1  0  0  0  0
 18 14  1  0  0  0  0
 21 24  1  0  0  0  0
 22 21  1  0  0  0  0
 23 27  1  0  0  0  0
 23 19  1  0  0  0  0
 24 27  2  0  0  0  0
 25 21  2  0  0  0  0
 25 26  1  0  0  0  0
 26 23  2  0  0  0  0
 27 20  1  0  0  0  0
M  END
>  <MODEL>
7

>  <REMARK>
 VINA RESULT:      -7.1      3.701      5.889
  Name = 
  4 active torsions:
  status: ('A' for Active; 'I' for Inactive)
    1  A    between atoms: S_1  and  C_15
    2  A    between atoms: S_1  and  C_18
    3  A    between atoms: C_9  and  C_15
    4  A    between atoms: C_15  and  C_19
                            x       y       z     vdW  Elec       q    Type
                         _______ _______ _______ _____ _____    ______ ____

>  <TORSDO>
F 4

$$$$
=
 OpenBabel10262420093D

 27 30  0  0  1  0  0  0  0  0999 V2000
  188.7020  177.4030  142.7310 C   0  0  2  0  0  3  0  0  0  0  0  0
  188.2940  177.7740  140.3070 N   0  0  0  0  0  0  0  0  0  0  0  0
  190.1840  176.9210  137.2770 C   0  0  0  0  0  3  0  0  0  0  0  0
  189.6870  177.3450  134.9550 O   0  0  0  0  0  1  0  0  0  0  0  0
  190.2900  176.6260  140.9600 C   0  0  0  0  0  3  0  0  0  0  0  0
  187.7940  178.1980  138.0080 C   0  0  0  0  0  3  0  0  0  0  0  0
  188.1490  178.0880  136.6600 C   0  0  0  0  0  3  0  0  0  0  0  0
  188.6320  177.6700  138.9950 C   0  0  0  0  0  0  0  0  0  0  0  0
  189.3410  177.4510  136.2950 C   0  0  0  0  0  0  0  0  0  0  0  0
  189.8340  177.0280  138.6250 C   0  0  0  0  0  0  0  0  0  0  0  0
  189.0920  177.2680  141.2900 C   0  0  0  0  0  0  0  0  0  0  0  0
  190.6600  176.5060  139.6200 C   0  0  0  0  0  3  0  0  0  0  0  0
  184.6230  178.7250  143.4090 C   0  0  0  0  0  3  0  0  0  0  0  0
  187.1880  177.5780  142.8950 C   0  0  1  0  0  3  0  0  0  0  0  0
  186.8250  177.9300  144.3380 C   0  0  0  0  0  2  0  0  0  0  0  0
  185.3060  177.9310  144.4940 C   0  0  0  0  0  2  0  0  0  0  0  0
  185.2290  179.0320  142.2520 C   0  0  0  0  0  3  0  0  0  0  0  0
  186.6750  178.7020  141.9870 C   0  0  0  0  0  2  0  0  0  0  0  0
  189.6080  178.8040  143.4800 S   0  0  0  0  0  0  0  0  0  0  0  0
  192.0590  177.0210  143.3900 F   0  0  0  0  0  0  0  0  0  0  0  0
  191.3080  176.2280  146.8790 C   0  0  0  0  0  0  0  0  0  0  0  0
  191.8180  175.4530  147.9110 O   0  0  0  0  0  1  0  0  0  0  0  0
  190.2810  177.7950  144.7990 C   0  0  0  0  0  0  0  0  0  0  0  0
  191.9430  176.2390  145.6330 C   0  0  0  0  0  3  0  0  0  0  0  0
  190.1590  176.9970  147.0850 C   0  0  0  0  0  3  0  0  0  0  0  0
  189.6450  177.7770  146.0460 C   0  0  0  0  0  3  0  0  0  0  0  0
  191.4310  177.0190  144.5920 C   0  0  0  0  0  0  0  0  0  0  0  0
  1 19  1  6  0  0  0
  2 11  1  0  0  0  0
  3 10  1  0  0  0  0
  4  9  1  0  0  0  0
  5 11  2  0  0  0  0
  6  8  1  0  0  0  0
  7  6  2  0  0  0  0
  8  2  2  0  0  0  0
  9  7  1  0  0  0  0
  9  3  2  0  0  0  0
 10  8  1  0  0  0  0
 10 12  2  0  0  0  0
 11  1  1  0  0  0  0
 12  5  1  0  0  0  0
 13 16  1  0  0  0  0
 14  1  1  1  0  0  0
 14 15  1  0  0  0  0
 15 16  1  0  0  0  0
 17 13  2  0  0  0  0
 18 17  1  0  0  0  0
 18 14  1  0  0  0  0
 19 23  1  0  0  0  0
 20 27  1  0  0  0  0
 21 25  1  0  0  0  0
 21 22  1  0  0  0  0
 23 26  1  0  0  0  0
 24 21  2  0  0  0  0
 26 25  2  0  0  0  0
 27 23  2  0  0  0  0
 27 24  1  0  0  0  0
M  END
>  <MODEL>
8

>  <REMARK>
 VINA RESULT:      -7.1      2.924      6.910
  Name = 
  4 active torsions:
  status: ('A' for Active; 'I' for Inactive)
    1  A    between atoms: S_1  and  C_15
    2  A    between atoms: S_1  and  C_18
    3  A    between atoms: C_9  and  C_15
    4  A    between atoms: C_15  and  C_19
                            x       y       z     vdW  Elec       q    Type
                         _______ _______ _______ _____ _____    ______ ____

>  <TORSDO>
F 4

$$$$
=
 OpenBabel10262420093D

 27 30  0  0  1  0  0  0  0  0999 V2000
  188.0420  177.9170  142.5750 C   0  0  2  0  0  3  0  0  0  0  0  0
  186.3290  178.6110  140.9120 N   0  0  0  0  0  0  0  0  0  0  0  0
  182.6760  178.9530  141.0540 C   0  0  0  0  0  3  0  0  0  0  0  0
  181.1030  179.6340  139.3570 O   0  0  0  0  0  1  0  0  0  0  0  0
  185.6010  178.0210  143.1140 C   0  0  0  0  0  3  0  0  0  0  0  0
  184.7760  179.2870  139.2240 C   0  0  0  0  0  3  0  0  0  0  0  0
  183.4580  179.5430  138.8360 C   0  0  0  0  0  3  0  0  0  0  0  0
  185.0500  178.8630  140.5280 C   0  0  0  0  0  0  0  0  0  0  0  0
  182.4100  179.3770  139.7490 C   0  0  0  0  0  0  0  0  0  0  0  0
  183.9920  178.6960  141.4480 C   0  0  0  0  0  0  0  0  0  0  0  0
  186.6240  178.1970  142.1770 C   0  0  0  0  0  0  0  0  0  0  0  0
  184.2780  178.2720  142.7450 C   0  0  0  0  0  3  0  0  0  0  0  0
  190.7010  177.3660  139.1870 C   0  0  0  0  0  3  0  0  0  0  0  0
  188.9980  178.0320  141.3820 C   0  0  1  0  0  3  0  0  0  0  0  0
  190.3360  177.3530  141.6800 C   0  0  0  0  0  2  0  0  0  0  0  0
  191.3120  177.6350  140.5390 C   0  0  0  0  0  2  0  0  0  0  0  0
  189.3740  177.2940  138.9980 C   0  0  0  0  0  3  0  0  0  0  0  0
  188.3930  177.3680  140.1410 C   0  0  0  0  0  2  0  0  0  0  0  0
  188.1450  176.2580  143.3380 S   0  0  0  0  0  0  0  0  0  0  0  0
  190.8320  176.4610  144.7290 F   0  0  0  0  0  0  0  0  0  0  0  0
  189.0000  177.9560  147.5170 C   0  0  0  0  0  0  0  0  0  0  0  0
  189.2510  178.4720  148.7810 O   0  0  0  0  0  1  0  0  0  0  0  0
  188.4910  176.9190  144.9680 C   0  0  0  0  0  0  0  0  0  0  0  0
  190.0520  177.4590  146.7430 C   0  0  0  0  0  3  0  0  0  0  0  0
  187.6930  177.9320  147.0200 C   0  0  0  0  0  3  0  0  0  0  0  0
  187.4390  177.4120  145.7480 C   0  0  0  0  0  3  0  0  0  0  0  0
  189.8010  176.9380  145.4700 C   0  0  0  0  0  0  0  0  0  0  0  0
  1 19  1  6  0  0  0
  2 11  1  0  0  0  0
  3 10  1  0  0  0  0
  4  9  1  0  0  0  0
  6  8  1  0  0  0  0
  7  6  2  0  0  0  0
  7  9  1  0  0  0  0
  8  2  2  0  0  0  0
  8 10  1  0  0  0  0
  9  3  2  0  0  0  0
 10 12  2  0  0  0  0
 11  1  1  0  0  0  0
 11  5  2  0  0  0  0
 12  5  1  0  0  0  0
 13 16  1  0  0  0  0
 14 15  1  0  0  0  0
 14  1  1  1  0  0  0
 16 15  1  0  0  0  0
 17 13  2  0  0  0  0
 17 18  1  0  0  0  0
 18 14  1  0  0  0  0
 19 23  1  0  0  0  0
 20 27  1  0  0  0  0
 21 22  1  0  0  0  0
 23 27  2  0  0  0  0
 23 26  1  0  0  0  0
 24 21  2  0  0  0  0
 25 21  1  0  0  0  0
 26 25  2  0  0  0  0
 27 24  1  0  0  0  0
M  END
>  <MODEL>
9

>  <REMARK>
 VINA RESULT:      -7.0      2.919      5.225
  Name = 
  4 active torsions:
  status: ('A' for Active; 'I' for Inactive)
    1  A    between atoms: S_1  and  C_15
    2  A    between atoms: S_1  and  C_18
    3  A    between atoms: C_9  and  C_15
    4  A    between atoms: C_15  and  C_19
                            x       y       z     vdW  Elec       q    Type
                         _______ _______ _______ _____ _____    ______ ____

>  <TORSDO>
F 4

$$$$
