=
 OpenBabel10262420033D

 27 30  0  0  1  0  0  0  0  0999 V2000
  180.7080  176.9880  140.4240 C   0  0  2  0  0  3  0  0  0  0  0  0
  180.2820  179.4550  140.0520 C   0  0  1  0  0  3  0  0  0  0  0  0
  182.5330  179.6500  138.8380 C   0  0  0  0  0  2  0  0  0  0  0  0
  179.3050  182.9940  137.8880 C   0  0  0  0  0  3  0  0  0  0  0  0
  179.1630  184.2290  135.8200 O   0  0  0  0  0  1  0  0  0  0  0  0
  180.0430  180.7480  140.8380 C   0  0  0  0  0  2  0  0  0  0  0  0
  180.8410  181.0390  136.6070 C   0  0  0  0  0  3  0  0  0  0  0  0
  184.4670  178.5410  138.0220 O   0  0  0  0  0  1  0  0  0  0  0  0
  180.3860  182.1510  135.8930 C   0  0  0  0  0  3  0  0  0  0  0  0
  183.6210  176.0810  138.6560 F   0  0  0  0  0  0  0  0  0  0  0  0
  181.0140  179.6810  138.7120 C   0  0  2  0  0  3  0  0  0  0  0  0
  180.8890  178.3770  140.8620 N   0  0  0  0  0  0  0  0  0  0  0  0
  179.6180  183.1270  136.5320 C   0  0  0  0  0  0  0  0  0  0  0  0
  179.7670  181.8900  138.6100 C   0  0  0  0  0  0  0  0  0  0  0  0
  180.5380  180.9000  137.9680 C   0  0  0  0  0  0  0  0  0  0  0  0
  183.0970  178.3710  138.2240 C   0  0  1  0  0  3  0  0  0  0  0  0
  179.4140  181.7510  139.9880 N   0  0  0  0  0  2  0  0  0  0  0  0
  182.8560  177.1410  139.1080 C   0  0  1  0  0  3  0  0  0  0  0  0
  181.3890  176.7260  139.0790 C   0  0  0  0  0  2  0  0  0  0  0  0
  183.6050  179.0400  144.0780 C   0  0  0  0  0  3  0  0  0  0  0  0
  181.8200  178.6190  141.9440 C   0  0  0  0  0  0  0  0  0  0  0  0
  183.2090  178.6320  141.7260 C   0  0  0  0  0  3  0  0  0  0  0  0
  184.0960  178.8440  142.7850 C   0  0  0  0  0  3  0  0  0  0  0  0
  182.2290  179.0230  144.3120 C   0  0  0  0  0  3  0  0  0  0  0  0
  181.3430  178.8100  143.2520 C   0  0  0  0  0  3  0  0  0  0  0  0
  179.2310  176.6270  140.3650 C   0  0  0  0  0  2  0  0  0  0  0  0
  178.9310  175.6900  141.3550 O   0  0  0  0  0  1  0  0  0  0  0  0
  1 26  1  6  0  0  0
  1 12  1  0  0  0  0
  2  6  1  1  0  0  0
  2 12  1  0  0  0  0
  4 14  1  0  0  0  0
  5 13  1  0  0  0  0
  7 15  1  0  0  0  0
  9 13  1  0  0  0  0
  9  7  2  0  0  0  0
 11  3  1  1  0  0  0
 11  2  1  0  0  0  0
 12 21  1  0  0  0  0
 13  4  2  0  0  0  0
 14 17  1  0  0  0  0
 15 14  2  0  0  0  0
 15 11  1  0  0  0  0
 16  8  1  1  0  0  0
 16  3  1  0  0  0  0
 16 18  1  0  0  0  0
 17  6  1  0  0  0  0
 18 10  1  6  0  0  0
 19 18  1  0  0  0  0
 19  1  1  0  0  0  0
 20 24  1  0  0  0  0
 21 25  1  0  0  0  0
 22 21  2  0  0  0  0
 22 23  1  0  0  0  0
 23 20  2  0  0  0  0
 25 24  2  0  0  0  0
 26 27  1  0  0  0  0
M  END
>  <MODEL>
1

>  <REMARK>
 VINA RESULT:      -6.4      0.000      0.000
  Name = 
  2 active torsions:
  status: ('A' for Active; 'I' for Inactive)
    1  A    between atoms: C_1  and  C_18
    2  A    between atoms: C_9  and  N_15
                            x       y       z     vdW  Elec       q    Type
                         _______ _______ _______ _____ _____    ______ ____

>  <TORSDO>
F 2

$$$$
=
 OpenBabel10262420033D

 27 30  0  0  1  0  0  0  0  0999 V2000
  181.1240  177.1990  138.7840 C   0  0  2  0  0  3  0  0  0  0  0  0
  183.4230  178.1110  139.3230 C   0  0  1  0  0  3  0  0  0  0  0  0
  182.4520  179.3310  141.3590 C   0  0  0  0  0  2  0  0  0  0  0  0
  187.1180  178.4770  141.4160 C   0  0  0  0  0  3  0  0  0  0  0  0
  188.4460  178.2000  143.4100 O   0  0  0  0  0  1  0  0  0  0  0  0
  184.5230  178.9870  138.7140 C   0  0  0  0  0  2  0  0  0  0  0  0
  184.8020  177.9580  142.8950 C   0  0  0  0  0  3  0  0  0  0  0  0
  180.5470  179.7630  142.7100 O   0  0  0  0  0  1  0  0  0  0  0  0
  186.0500  177.9520  143.5240 C   0  0  0  0  0  3  0  0  0  0  0  0
  178.9420  178.0500  141.4210 F   0  0  0  0  0  0  0  0  0  0  0  0
  183.3500  178.2040  140.8620 C   0  0  2  0  0  3  0  0  0  0  0  0
  182.1060  178.2860  138.6750 N   0  0  0  0  0  0  0  0  0  0  0  0
  187.2060  178.2100  142.7850 C   0  0  0  0  0  0  0  0  0  0  0  0
  185.8710  178.4960  140.7840 C   0  0  0  0  0  0  0  0  0  0  0  0
  184.7010  178.2300  141.5250 C   0  0  0  0  0  0  0  0  0  0  0  0
  181.1590  178.7680  141.9460 C   0  0  1  0  0  3  0  0  0  0  0  0
  185.7960  178.7390  139.3780 N   0  0  0  0  0  2  0  0  0  0  0  0
  180.1880  178.2800  140.8650 C   0  0  1  0  0  3  0  0  0  0  0  0
  180.6820  176.9820  140.2330 C   0  0  0  0  0  2  0  0  0  0  0  0
  180.7110  181.9560  137.0160 C   0  0  0  0  0  3  0  0  0  0  0  0
  181.6510  179.5400  138.1130 C   0  0  0  0  0  0  0  0  0  0  0  0
  181.7850  180.7490  138.8180 C   0  0  0  0  0  3  0  0  0  0  0  0
  181.3210  181.9490  138.2730 C   0  0  0  0  0  3  0  0  0  0  0  0
  180.5640  180.7620  136.3070 C   0  0  0  0  0  3  0  0  0  0  0  0
  181.0290  179.5620  136.8530 C   0  0  0  0  0  3  0  0  0  0  0  0
  181.6710  175.9130  138.1840 C   0  0  0  0  0  2  0  0  0  0  0  0
  180.9880  174.8150  138.7080 O   0  0  0  0  0  1  0  0  0  0  0  0
  1 26  1  1  0  0  0
  1 19  1  0  0  0  0
  2  6  1  6  0  0  0
  2 11  1  0  0  0  0
  3 16  1  0  0  0  0
  4 13  1  0  0  0  0
  6 17  1  0  0  0  0
  7  9  1  0  0  0  0
 11  3  1  6  0  0  0
 11 15  1  0  0  0  0
 12  1  1  0  0  0  0
 12  2  1  0  0  0  0
 13  5  1  0  0  0  0
 13  9  2  0  0  0  0
 14  4  2  0  0  0  0
 14 15  1  0  0  0  0
 15  7  2  0  0  0  0
 16  8  1  6  0  0  0
 17 14  1  0  0  0  0
 18 10  1  1  0  0  0
 18 16  1  0  0  0  0
 19 18  1  0  0  0  0
 20 23  1  0  0  0  0
 21 12  1  0  0  0  0
 21 22  1  0  0  0  0
 23 22  2  0  0  0  0
 24 25  1  0  0  0  0
 24 20  2  0  0  0  0
 25 21  2  0  0  0  0
 26 27  1  0  0  0  0
M  END
>  <MODEL>
2

>  <REMARK>
 VINA RESULT:      -6.3      2.802      6.524
  Name = 
  2 active torsions:
  status: ('A' for Active; 'I' for Inactive)
    1  A    between atoms: C_1  and  C_18
    2  A    between atoms: C_9  and  N_15
                            x       y       z     vdW  Elec       q    Type
                         _______ _______ _______ _____ _____    ______ ____

>  <TORSDO>
F 2

$$$$
=
 OpenBabel10262420033D

 27 30  0  0  1  0  0  0  0  0999 V2000
  181.0110  179.5850  139.8650 C   0  0  2  0  0  3  0  0  0  0  0  0
  183.3400  178.8290  139.2220 C   0  0  1  0  0  3  0  0  0  0  0  0
  182.6290  176.3870  139.5570 C   0  0  0  0  0  2  0  0  0  0  0  0
  186.3910  177.1450  136.7680 C   0  0  0  0  0  3  0  0  0  0  0  0
  187.0890  175.6990  134.9680 O   0  0  0  0  0  1  0  0  0  0  0  0
  184.7980  178.9730  139.6690 C   0  0  0  0  0  2  0  0  0  0  0  0
  183.8480  175.9810  136.7080 C   0  0  0  0  0  3  0  0  0  0  0  0
  180.8800  174.8670  140.0760 O   0  0  0  0  0  1  0  0  0  0  0  0
  184.8380  175.5470  135.8220 C   0  0  0  0  0  3  0  0  0  0  0  0
  178.9620  176.7320  140.1820 F   0  0  0  0  0  0  0  0  0  0  0  0
  183.0350  177.4670  138.5610 C   0  0  2  0  0  3  0  0  0  0  0  0
  182.3640  179.1860  140.2730 N   0  0  0  0  0  0  0  0  0  0  0  0
  186.1070  176.1290  135.8510 C   0  0  0  0  0  0  0  0  0  0  0  0
  185.4080  177.5750  137.6640 C   0  0  0  0  0  0  0  0  0  0  0  0
  184.1240  176.9950  137.6350 C   0  0  0  0  0  0  0  0  0  0  0  0
  181.1370  176.0830  139.4400 C   0  0  1  0  0  3  0  0  0  0  0  0
  185.7000  178.6370  138.5760 N   0  0  0  0  0  2  0  0  0  0  0  0
  180.2640  177.1810  140.0580 C   0  0  1  0  0  3  0  0  0  0  0  0
  180.2640  178.4330  139.1880 C   0  0  0  0  0  2  0  0  0  0  0  0
  183.0920  178.6040  144.4320 C   0  0  0  0  0  3  0  0  0  0  0  0
  182.5970  178.9730  141.6860 C   0  0  0  0  0  0  0  0  0  0  0  0
  181.5520  179.0640  142.6230 C   0  0  0  0  0  3  0  0  0  0  0  0
  181.7970  178.8780  143.9860 C   0  0  0  0  0  3  0  0  0  0  0  0
  184.1410  178.5170  143.5160 C   0  0  0  0  0  3  0  0  0  0  0  0
  183.8950  178.7030  142.1520 C   0  0  0  0  0  3  0  0  0  0  0  0
  181.0570  180.8090  138.9630 C   0  0  0  0  0  2  0  0  0  0  0  0
  180.0880  181.7300  139.3610 O   0  0  0  0  0  1  0  0  0  0  0  0
  1 26  1  6  0  0  0
  1 12  1  0  0  0  0
  2  6  1  1  0  0  0
  2 12  1  0  0  0  0
  4 14  1  0  0  0  0
  5 13  1  0  0  0  0
  7 15  1  0  0  0  0
  9 13  1  0  0  0  0
  9  7  2  0  0  0  0
 11  2  1  0  0  0  0
 11  3  1  1  0  0  0
 12 21  1  0  0  0  0
 13  4  2  0  0  0  0
 14 17  1  0  0  0  0
 15 14  2  0  0  0  0
 15 11  1  0  0  0  0
 16  3  1  0  0  0  0
 16 18  1  0  0  0  0
 16  8  1  1  0  0  0
 17  6  1  0  0  0  0
 18 10  1  6  0  0  0
 19  1  1  0  0  0  0
 19 18  1  0  0  0  0
 21 25  2  0  0  0  0
 21 22  1  0  0  0  0
 22 23  2  0  0  0  0
 23 20  1  0  0  0  0
 24 20  2  0  0  0  0
 25 24  1  0  0  0  0
 26 27  1  0  0  0  0
M  END
>  <MODEL>
3

>  <REMARK>
 VINA RESULT:      -6.3      2.654      5.363
  Name = 
  2 active torsions:
  status: ('A' for Active; 'I' for Inactive)
    1  A    between atoms: C_1  and  C_18
    2  A    between atoms: C_9  and  N_15
                            x       y       z     vdW  Elec       q    Type
                         _______ _______ _______ _____ _____    ______ ____

>  <TORSDO>
F 2

$$$$
=
 OpenBabel10262420033D

 27 30  0  0  1  0  0  0  0  0999 V2000
  180.8920  179.7740  138.9990 C   0  0  2  0  0  3  0  0  0  0  0  0
  181.3480  179.0320  141.3750 C   0  0  1  0  0  3  0  0  0  0  0  0
  183.3360  177.6380  140.5480 C   0  0  0  0  0  2  0  0  0  0  0  0
  183.3620  178.8740  145.1280 C   0  0  0  0  0  3  0  0  0  0  0  0
  185.3470  179.1630  146.4680 O   0  0  0  0  0  1  0  0  0  0  0  0
  180.6800  178.2810  142.5300 C   0  0  0  0  0  2  0  0  0  0  0  0
  184.9020  179.1260  142.8070 C   0  0  0  0  0  3  0  0  0  0  0  0
  184.6940  176.9840  138.7130 O   0  0  0  0  0  1  0  0  0  0  0  0
  185.5100  179.2050  144.0620 C   0  0  0  0  0  3  0  0  0  0  0  0
  183.5170  178.6180  136.9470 F   0  0  0  0  0  0  0  0  0  0  0  0
  182.8820  178.8580  141.3400 C   0  0  2  0  0  3  0  0  0  0  0  0
  180.7140  178.7800  140.0640 N   0  0  0  0  0  0  0  0  0  0  0  0
  184.7410  179.0800  145.2210 C   0  0  0  0  0  0  0  0  0  0  0  0
  182.7500  178.7810  143.8740 C   0  0  0  0  0  0  0  0  0  0  0  0
  183.5220  178.9130  142.7020 C   0  0  0  0  0  0  0  0  0  0  0  0
  183.9710  178.0630  139.2250 C   0  0  1  0  0  3  0  0  0  0  0  0
  181.3350  178.6010  143.7920 N   0  0  0  0  0  2  0  0  0  0  0  0
  182.9310  178.5200  138.1960 C   0  0  1  0  0  3  0  0  0  0  0  0
  182.3570  179.8830  138.5690 C   0  0  0  0  0  2  0  0  0  0  0  0
  178.9370  175.0680  138.9540 C   0  0  0  0  0  3  0  0  0  0  0  0
  180.0970  177.5210  139.7030 C   0  0  0  0  0  0  0  0  0  0  0  0
  180.0690  176.4370  140.5980 C   0  0  0  0  0  3  0  0  0  0  0  0
  179.4900  175.2200  140.2280 C   0  0  0  0  0  3  0  0  0  0  0  0
  178.9640  176.1330  138.0510 C   0  0  0  0  0  3  0  0  0  0  0  0
  179.5430  177.3500  138.4230 C   0  0  0  0  0  3  0  0  0  0  0  0
  180.3480  181.1290  139.4260 C   0  0  0  0  0  2  0  0  0  0  0  0
  178.9660  181.0520  139.6040 O   0  0  0  0  0  1  0  0  0  0  0  0
  1 26  1  1  0  0  0
  1 12  1  0  0  0  0
  2  6  1  1  0  0  0
  4 13  1  0  0  0  0
  6 17  1  0  0  0  0
  7  9  1  0  0  0  0
  9 13  2  0  0  0  0
 11  3  1  1  0  0  0
 11  2  1  0  0  0  0
 11 15  1  0  0  0  0
 12  2  1  0  0  0  0
 13  5  1  0  0  0  0
 14  4  2  0  0  0  0
 15  7  2  0  0  0  0
 15 14  1  0  0  0  0
 16  8  1  6  0  0  0
 16  3  1  0  0  0  0
 17 14  1  0  0  0  0
 18 10  1  6  0  0  0
 18 19  1  0  0  0  0
 18 16  1  0  0  0  0
 19  1  1  0  0  0  0
 20 23  1  0  0  0  0
 21 12  1  0  0  0  0
 21 22  1  0  0  0  0
 23 22  2  0  0  0  0
 24 25  1  0  0  0  0
 24 20  2  0  0  0  0
 25 21  2  0  0  0  0
 26 27  1  0  0  0  0
M  END
>  <MODEL>
4

>  <REMARK>
 VINA RESULT:      -5.9      2.394      6.061
  Name = 
  2 active torsions:
  status: ('A' for Active; 'I' for Inactive)
    1  A    between atoms: C_1  and  C_18
    2  A    between atoms: C_9  and  N_15
                            x       y       z     vdW  Elec       q    Type
                         _______ _______ _______ _____ _____    ______ ____

>  <TORSDO>
F 2

$$$$
=
 OpenBabel10262420033D

 27 30  0  0  1  0  0  0  0  0999 V2000
  183.3210  177.6870  139.2750 C   0  0  2  0  0  3  0  0  0  0  0  0
  181.9520  178.8590  137.4990 C   0  0  1  0  0  3  0  0  0  0  0  0
  180.3520  179.7180  139.3110 C   0  0  0  0  0  2  0  0  0  0  0  0
  180.4310  182.1280  135.2260 C   0  0  0  0  0  3  0  0  0  0  0  0
  179.9060  184.4710  134.9950 O   0  0  0  0  0  1  0  0  0  0  0  0
  181.1350  178.5550  136.2390 C   0  0  0  0  0  2  0  0  0  0  0  0
  180.8410  182.4970  137.9680 C   0  0  0  0  0  3  0  0  0  0  0  0
  179.8400  179.8490  141.6250 O   0  0  0  0  0  1  0  0  0  0  0  0
  180.4720  183.5790  137.1630 C   0  0  0  0  0  3  0  0  0  0  0  0
  182.0790  178.6260  142.4400 F   0  0  0  0  0  0  0  0  0  0  0  0
  181.4240  180.0770  138.2890 C   0  0  2  0  0  3  0  0  0  0  0  0
  182.1770  177.6750  138.3540 N   0  0  0  0  0  0  0  0  0  0  0  0
  180.2680  183.3950  135.7940 C   0  0  0  0  0  0  0  0  0  0  0  0
  180.7870  181.0400  136.0280 C   0  0  0  0  0  0  0  0  0  0  0  0
  181.0000  181.2220  137.4090 C   0  0  0  0  0  0  0  0  0  0  0  0
  180.9090  179.8150  140.7290 C   0  0  1  0  0  3  0  0  0  0  0  0
  180.9810  179.7560  135.4300 N   0  0  0  0  0  2  0  0  0  0  0  0
  181.8350  178.6440  141.0780 C   0  0  1  0  0  3  0  0  0  0  0  0
  183.1690  178.7660  140.3490 C   0  0  0  0  0  2  0  0  0  0  0  0
  179.4210  174.4510  138.7720 C   0  0  0  0  0  3  0  0  0  0  0  0
  181.2270  176.5910  138.4860 C   0  0  0  0  0  0  0  0  0  0  0  0
  179.9880  176.7770  139.1250 C   0  0  0  0  0  3  0  0  0  0  0  0
  179.0900  175.7160  139.2640 C   0  0  0  0  0  3  0  0  0  0  0  0
  180.6500  174.2490  138.1410 C   0  0  0  0  0  3  0  0  0  0  0  0
  181.5480  175.3120  138.0020 C   0  0  0  0  0  3  0  0  0  0  0  0
  184.6270  177.8550  138.5150 C   0  0  0  0  0  2  0  0  0  0  0  0
  185.2870  179.0040  138.9520 O   0  0  0  0  0  1  0  0  0  0  0  0
  1 26  1  6  0  0  0
  1 19  1  0  0  0  0
  2  6  1  6  0  0  0
  2 11  1  0  0  0  0
  2 12  1  0  0  0  0
  3 16  1  0  0  0  0
  4 13  2  0  0  0  0
  4 14  1  0  0  0  0
  5 13  1  0  0  0  0
  9  7  2  0  0  0  0
 11  3  1  6  0  0  0
 12 21  1  0  0  0  0
 12  1  1  0  0  0  0
 13  9  1  0  0  0  0
 14 15  2  0  0  0  0
 15  7  1  0  0  0  0
 15 11  1  0  0  0  0
 16 18  1  0  0  0  0
 16  8  1  1  0  0  0
 17 14  1  0  0  0  0
 17  6  1  0  0  0  0
 18 10  1  1  0  0  0
 19 18  1  0  0  0  0
 20 23  1  0  0  0  0
 21 22  1  0  0  0  0
 22 23  2  0  0  0  0
 24 20  2  0  0  0  0
 25 24  1  0  0  0  0
 25 21  2  0  0  0  0
 26 27  1  0  0  0  0
M  END
>  <MODEL>
5

>  <REMARK>
 VINA RESULT:      -5.5      2.238      4.508
  Name = 
  2 active torsions:
  status: ('A' for Active; 'I' for Inactive)
    1  A    between atoms: C_1  and  C_18
    2  A    between atoms: C_9  and  N_15
                            x       y       z     vdW  Elec       q    Type
                         _______ _______ _______ _____ _____    ______ ____

>  <TORSDO>
F 2

$$$$
=
 OpenBabel10262420033D

 27 30  0  0  1  0  0  0  0  0999 V2000
  181.2670  179.6960  138.2810 C   0  0  2  0  0  3  0  0  0  0  0  0
  183.3430  178.9640  139.5310 C   0  0  1  0  0  3  0  0  0  0  0  0
  183.6490  177.0320  137.8710 C   0  0  0  0  0  2  0  0  0  0  0  0
  187.5060  178.4170  140.2610 C   0  0  0  0  0  3  0  0  0  0  0  0
  189.7740  178.1980  139.4680 O   0  0  0  0  0  1  0  0  0  0  0  0
  183.7830  178.4840  140.9170 C   0  0  0  0  0  2  0  0  0  0  0  0
  186.5690  178.1220  137.6420 C   0  0  0  0  0  3  0  0  0  0  0  0
  182.8770  175.9410  135.9090 O   0  0  0  0  0  1  0  0  0  0  0  0
  187.9420  178.0840  137.9030 C   0  0  0  0  0  3  0  0  0  0  0  0
  180.9910  177.7580  135.3470 F   0  0  0  0  0  0  0  0  0  0  0  0
  184.1830  178.3650  138.3820 C   0  0  2  0  0  3  0  0  0  0  0  0
  181.8880  178.8410  139.3000 N   0  0  0  0  0  0  0  0  0  0  0  0
  188.4090  178.2320  139.2110 C   0  0  0  0  0  0  0  0  0  0  0  0
  186.1310  178.4430  140.0070 C   0  0  0  0  0  0  0  0  0  0  0  0
  185.6550  178.3000  138.6890 C   0  0  0  0  0  0  0  0  0  0  0  0
  183.0120  177.2010  136.4940 C   0  0  1  0  0  3  0  0  0  0  0  0
  185.2190  178.6640  141.0850 N   0  0  0  0  0  2  0  0  0  0  0  0
  181.6410  177.8850  136.5620 C   0  0  1  0  0  3  0  0  0  0  0  0
  181.7870  179.3700  136.8790 C   0  0  0  0  0  2  0  0  0  0  0  0
  179.4400  175.7760  140.9690 C   0  0  0  0  0  3  0  0  0  0  0  0
  181.0730  177.7900  139.8740 C   0  0  0  0  0  0  0  0  0  0  0  0
  181.2450  176.4450  139.5010 C   0  0  0  0  0  3  0  0  0  0  0  0
  180.4360  175.4450  140.0460 C   0  0  0  0  0  3  0  0  0  0  0  0
  179.2530  177.1080  141.3430 C   0  0  0  0  0  3  0  0  0  0  0  0
  180.0630  178.1080  140.7970 C   0  0  0  0  0  3  0  0  0  0  0  0
  181.4730  181.1670  138.6090 C   0  0  0  0  0  2  0  0  0  0  0  0
  180.4310  181.6250  139.4150 O   0  0  0  0  0  1  0  0  0  0  0  0
  1 26  1  1  0  0  0
  1 12  1  0  0  0  0
  2  6  1  1  0  0  0
  6 17  1  0  0  0  0
  7  9  2  0  0  0  0
  7 15  1  0  0  0  0
  9 13  1  0  0  0  0
 11  3  1  1  0  0  0
 11 15  1  0  0  0  0
 11  2  1  0  0  0  0
 12  2  1  0  0  0  0
 12 21  1  0  0  0  0
 13  5  1  0  0  0  0
 13  4  2  0  0  0  0
 14  4  1  0  0  0  0
 14 17  1  0  0  0  0
 15 14  2  0  0  0  0
 16  8  1  1  0  0  0
 16 18  1  0  0  0  0
 16  3  1  0  0  0  0
 18 10  1  6  0  0  0
 18 19  1  0  0  0  0
 19  1  1  0  0  0  0
 20 24  1  0  0  0  0
 21 25  1  0  0  0  0
 22 21  2  0  0  0  0
 22 23  1  0  0  0  0
 23 20  2  0  0  0  0
 25 24  2  0  0  0  0
 26 27  1  0  0  0  0
M  END
>  <MODEL>
6

>  <REMARK>
 VINA RESULT:      -5.4      2.978      5.871
  Name = 
  2 active torsions:
  status: ('A' for Active; 'I' for Inactive)
    1  A    between atoms: C_1  and  C_18
    2  A    between atoms: C_9  and  N_15
                            x       y       z     vdW  Elec       q    Type
                         _______ _______ _______ _____ _____    ______ ____

>  <TORSDO>
F 2

$$$$
=
 OpenBabel10262420033D

 27 30  0  0  1  0  0  0  0  0999 V2000
  180.2480  179.3610  137.5620 C   0  0  2  0  0  3  0  0  0  0  0  0
  182.6180  179.1780  138.4290 C   0  0  1  0  0  3  0  0  0  0  0  0
  182.2950  176.6550  138.7540 C   0  0  0  0  0  2  0  0  0  0  0  0
  186.7650  178.1940  138.3660 C   0  0  0  0  0  3  0  0  0  0  0  0
  188.6070  176.8850  137.5220 O   0  0  0  0  0  1  0  0  0  0  0  0
  183.5100  179.7000  139.5600 C   0  0  0  0  0  2  0  0  0  0  0  0
  184.9660  176.4340  137.1460 C   0  0  0  0  0  3  0  0  0  0  0  0
  180.8670  174.7740  138.5030 O   0  0  0  0  0  1  0  0  0  0  0  0
  186.3420  176.2190  137.0320 C   0  0  0  0  0  3  0  0  0  0  0  0
  178.9320  176.1070  137.2190 F   0  0  0  0  0  0  0  0  0  0  0  0
  182.9930  177.7550  137.9640 C   0  0  2  0  0  3  0  0  0  0  0  0
  181.1730  179.3300  138.7010 N   0  0  0  0  0  0  0  0  0  0  0  0
  187.2400  177.0980  137.6400 C   0  0  0  0  0  0  0  0  0  0  0  0
  185.3890  178.4070  138.4930 C   0  0  0  0  0  0  0  0  0  0  0  0
  184.4790  177.5260  137.8760 C   0  0  0  0  0  0  0  0  0  0  0  0
  181.2180  175.9840  137.9030 C   0  0  1  0  0  3  0  0  0  0  0  0
  184.9160  179.5490  139.2110 N   0  0  0  0  0  2  0  0  0  0  0  0
  179.9680  176.8590  137.7430 C   0  0  1  0  0  3  0  0  0  0  0  0
  180.2390  178.0310  136.8050 C   0  0  0  0  0  2  0  0  0  0  0  0
  179.4210  179.1060  142.5790 C   0  0  0  0  0  3  0  0  0  0  0  0
  180.5960  179.2460  140.0260 C   0  0  0  0  0  0  0  0  0  0  0  0
  180.5360  178.0260  140.7220 C   0  0  0  0  0  3  0  0  0  0  0  0
  179.9550  177.9560  141.9910 C   0  0  0  0  0  3  0  0  0  0  0  0
  179.4670  180.3230  141.8970 C   0  0  0  0  0  3  0  0  0  0  0  0
  180.0480  180.3920  140.6280 C   0  0  0  0  0  3  0  0  0  0  0  0
  180.5780  180.5160  136.6270 C   0  0  0  0  0  2  0  0  0  0  0  0
  180.2760  181.7290  137.2460 O   0  0  0  0  0  1  0  0  0  0  0  0
  1 26  1  6  0  0  0
  1 12  1  0  0  0  0
  2 12  1  0  0  0  0
  2  6  1  1  0  0  0
  4 14  1  0  0  0  0
  5 13  1  0  0  0  0
  7 15  1  0  0  0  0
  9  7  2  0  0  0  0
  9 13  1  0  0  0  0
 11  2  1  0  0  0  0
 11  3  1  1  0  0  0
 12 21  1  0  0  0  0
 13  4  2  0  0  0  0
 14 17  1  0  0  0  0
 15 11  1  0  0  0  0
 15 14  2  0  0  0  0
 16  8  1  1  0  0  0
 16  3  1  0  0  0  0
 17  6  1  0  0  0  0
 18 10  1  6  0  0  0
 18 16  1  0  0  0  0
 19  1  1  0  0  0  0
 19 18  1  0  0  0  0
 21 25  2  0  0  0  0
 21 22  1  0  0  0  0
 22 23  2  0  0  0  0
 23 20  1  0  0  0  0
 24 20  2  0  0  0  0
 25 24  1  0  0  0  0
 26 27  1  0  0  0  0
M  END
>  <MODEL>
7

>  <REMARK>
 VINA RESULT:      -5.4      2.635      5.582
  Name = 
  2 active torsions:
  status: ('A' for Active; 'I' for Inactive)
    1  A    between atoms: C_1  and  C_18
    2  A    between atoms: C_9  and  N_15
                            x       y       z     vdW  Elec       q    Type
                         _______ _______ _______ _____ _____    ______ ____

>  <TORSDO>
F 2

$$$$
=
 OpenBabel10262420033D

 27 30  0  0  1  0  0  0  0  0999 V2000
  181.6670  177.0690  139.1730 C   0  0  2  0  0  3  0  0  0  0  0  0
  183.2090  177.1850  137.1700 C   0  0  1  0  0  3  0  0  0  0  0  0
  184.8270  178.6540  138.5130 C   0  0  0  0  0  2  0  0  0  0  0  0
  186.6460  176.3310  134.7970 C   0  0  0  0  0  3  0  0  0  0  0  0
  188.9470  175.6380  134.5950 O   0  0  0  0  0  1  0  0  0  0  0  0
  183.2250  177.6560  135.7120 C   0  0  0  0  0  2  0  0  0  0  0  0
  186.9750  176.5920  137.5620 C   0  0  0  0  0  3  0  0  0  0  0  0
  185.3390  179.6800  140.5910 O   0  0  0  0  0  1  0  0  0  0  0  0
  188.0470  176.1810  136.7650 C   0  0  0  0  0  3  0  0  0  0  0  0
  183.2870  178.5810  141.9160 F   0  0  0  0  0  0  0  0  0  0  0  0
  184.5840  177.2970  137.8630 C   0  0  2  0  0  3  0  0  0  0  0  0
  182.1160  177.7780  137.9680 N   0  0  0  0  0  0  0  0  0  0  0  0
  187.8820  176.0500  135.3850 C   0  0  0  0  0  0  0  0  0  0  0  0
  185.5730  176.7540  135.5880 C   0  0  0  0  0  0  0  0  0  0  0  0
  185.7340  176.8820  136.9830 C   0  0  0  0  0  0  0  0  0  0  0  0
  184.7580  178.5400  140.0340 C   0  0  1  0  0  3  0  0  0  0  0  0
  184.3050  177.0090  134.9800 N   0  0  0  0  0  2  0  0  0  0  0  0
  183.3200  178.3940  140.5460 C   0  0  1  0  0  3  0  0  0  0  0  0
  182.7680  177.0060  140.2340 C   0  0  0  0  0  2  0  0  0  0  0  0
  180.5360  181.6850  137.3360 C   0  0  0  0  0  3  0  0  0  0  0  0
  181.5980  179.1120  137.7490 C   0  0  0  0  0  0  0  0  0  0  0  0
  182.0790  180.2130  138.4800 C   0  0  0  0  0  3  0  0  0  0  0  0
  181.5540  181.4910  138.2730 C   0  0  0  0  0  3  0  0  0  0  0  0
  180.0440  180.6010  136.6070 C   0  0  0  0  0  3  0  0  0  0  0  0
  180.5700  179.3220  136.8150 C   0  0  0  0  0  3  0  0  0  0  0  0
  181.1660  175.6750  138.8260 C   0  0  0  0  0  2  0  0  0  0  0  0
  180.3440  175.1970  139.8470 O   0  0  0  0  0  1  0  0  0  0  0  0
  1 26  1  6  0  0  0
  1 19  1  0  0  0  0
  2  6  1  6  0  0  0
  2 11  1  0  0  0  0
  2 12  1  0  0  0  0
  3 16  1  0  0  0  0
  4 13  2  0  0  0  0
  4 14  1  0  0  0  0
  5 13  1  0  0  0  0
  9  7  2  0  0  0  0
 11  3  1  6  0  0  0
 12  1  1  0  0  0  0
 13  9  1  0  0  0  0
 14 15  2  0  0  0  0
 15  7  1  0  0  0  0
 15 11  1  0  0  0  0
 16 18  1  0  0  0  0
 16  8  1  1  0  0  0
 17 14  1  0  0  0  0
 17  6  1  0  0  0  0
 18 10  1  1  0  0  0
 19 18  1  0  0  0  0
 20 23  1  0  0  0  0
 21 12  1  0  0  0  0
 21 22  1  0  0  0  0
 23 22  2  0  0  0  0
 24 25  1  0  0  0  0
 24 20  2  0  0  0  0
 25 21  2  0  0  0  0
 26 27  1  0  0  0  0
M  END
>  <MODEL>
8

>  <REMARK>
 VINA RESULT:      -5.3      3.357      6.470
  Name = 
  2 active torsions:
  status: ('A' for Active; 'I' for Inactive)
    1  A    between atoms: C_1  and  C_18
    2  A    between atoms: C_9  and  N_15
                            x       y       z     vdW  Elec       q    Type
                         _______ _______ _______ _____ _____    ______ ____

>  <TORSDO>
F 2

$$$$
=
 OpenBabel10262420033D

 27 30  0  0  1  0  0  0  0  0999 V2000
  181.5670  178.6860  140.6830 C   0  0  2  0  0  3  0  0  0  0  0  0
  181.2590  177.0920  138.7410 C   0  0  1  0  0  3  0  0  0  0  0  0
  183.6390  177.6180  137.9430 C   0  0  0  0  0  2  0  0  0  0  0  0
  181.7550  173.5230  136.4660 C   0  0  0  0  0  3  0  0  0  0  0  0
  183.0190  171.5510  135.8880 O   0  0  0  0  0  1  0  0  0  0  0  0
  180.3720  176.8830  137.5100 C   0  0  0  0  0  2  0  0  0  0  0  0
  183.9570  174.5100  137.8810 C   0  0  0  0  0  3  0  0  0  0  0  0
  185.6700  178.7810  138.3430 O   0  0  0  0  0  1  0  0  0  0  0  0
  184.0380  173.2740  137.2330 C   0  0  0  0  0  3  0  0  0  0  0  0
  184.9290  179.7510  140.7270 F   0  0  0  0  0  0  0  0  0  0  0  0
  182.7020  176.5790  138.5490 C   0  0  2  0  0  3  0  0  0  0  0  0
  181.2070  178.4690  139.2760 N   0  0  0  0  0  0  0  0  0  0  0  0
  182.9380  172.7810  136.5280 C   0  0  0  0  0  0  0  0  0  0  0  0
  181.6730  174.7650  137.1020 C   0  0  0  0  0  0  0  0  0  0  0  0
  182.7780  175.2640  137.8200 C   0  0  0  0  0  0  0  0  0  0  0  0
  184.6180  178.1350  138.9950 C   0  0  1  0  0  3  0  0  0  0  0  0
  180.4470  175.5000  137.0580 N   0  0  0  0  0  2  0  0  0  0  0  0
  183.9580  179.1010  139.9860 C   0  0  1  0  0  3  0  0  0  0  0  0
  183.0380  178.3540  140.9460 C   0  0  0  0  0  2  0  0  0  0  0  0
  180.7010  181.9460  136.8640 C   0  0  0  0  0  3  0  0  0  0  0  0
  181.0180  179.6420  138.4490 C   0  0  0  0  0  0  0  0  0  0  0  0
  180.9660  179.5480  137.0470 C   0  0  0  0  0  3  0  0  0  0  0  0
  180.8060  180.6910  136.2600 C   0  0  0  0  0  3  0  0  0  0  0  0
  180.7590  182.0570  138.2540 C   0  0  0  0  0  3  0  0  0  0  0  0
  180.9190  180.9120  139.0410 C   0  0  0  0  0  3  0  0  0  0  0  0
  180.6560  177.8900  141.6050 C   0  0  0  0  0  2  0  0  0  0  0  0
  179.3540  178.3850  141.5300 O   0  0  0  0  0  1  0  0  0  0  0  0
  1 19  1  0  0  0  0
  1 26  1  1  0  0  0
  2  6  1  6  0  0  0
  2 12  1  0  0  0  0
  3 16  1  0  0  0  0
  4 13  2  0  0  0  0
  4 14  1  0  0  0  0
  5 13  1  0  0  0  0
  9  7  2  0  0  0  0
 11  3  1  6  0  0  0
 11  2  1  0  0  0  0
 12  1  1  0  0  0  0
 13  9  1  0  0  0  0
 14 15  2  0  0  0  0
 15  7  1  0  0  0  0
 15 11  1  0  0  0  0
 16  8  1  6  0  0  0
 16 18  1  0  0  0  0
 17 14  1  0  0  0  0
 17  6  1  0  0  0  0
 18 10  1  1  0  0  0
 18 19  1  0  0  0  0
 20 24  1  0  0  0  0
 21 25  1  0  0  0  0
 21 12  1  0  0  0  0
 22 21  2  0  0  0  0
 23 20  2  0  0  0  0
 23 22  1  0  0  0  0
 24 25  2  0  0  0  0
 27 26  1  0  0  0  0
M  END
>  <MODEL>
9

>  <REMARK>
 VINA RESULT:      -5.2      2.831      6.176
  Name = 
  2 active torsions:
  status: ('A' for Active; 'I' for Inactive)
    1  A    between atoms: C_1  and  C_18
    2  A    between atoms: C_9  and  N_15
                            x       y       z     vdW  Elec       q    Type
                         _______ _______ _______ _____ _____    ______ ____

>  <TORSDO>
F 2

$$$$
