=
 OpenBabel10252414573D

 34 38  0  0  1  0  0  0  0  0999 V2000
  191.2150  176.1970  136.9460 C   0  0  2  0  0  3  0  0  0  0  0  0
  193.0060  176.6690  138.6920 C   0  0  0  0  0  0  0  0  0  0  0  0
  190.6550  177.0740  139.3480 C   0  0  0  0  0  0  0  0  0  0  0  0
  190.5170  178.3090  142.9660 C   0  0  0  0  0  1  0  0  0  0  0  0
  193.9380  176.2060  137.7480 O   0  0  0  0  0  1  0  0  0  0  0  0
  192.4990  177.6550  140.8940 C   0  0  0  0  0  3  0  0  0  0  0  0
  191.6420  176.5510  138.4060 C   0  0  0  0  0  0  0  0  0  0  0  0
  190.0570  177.5470  141.7300 C   0  0  1  0  0  0  0  0  0  0  0  0
  189.2740  177.0820  139.0440 N   0  0  0  0  0  0  0  0  0  0  0  0
  189.6640  176.4210  136.6860 C   0  0  0  0  0  2  0  0  0  0  0  0
  193.4330  177.2890  139.8880 C   0  0  0  0  0  3  0  0  0  0  0  0
  188.8950  178.3690  141.1450 C   0  0  0  0  0  2  0  0  0  0  0  0
  188.2360  177.5290  140.0600 C   0  0  1  0  0  3  0  0  0  0  0  0
  191.1440  177.5240  140.6740 C   0  0  0  0  0  0  0  0  0  0  0  0
  188.8100  176.2170  137.9530 C   0  0  0  0  0  2  0  0  0  0  0  0
  184.6360  178.9330  139.6840 C   0  0  0  0  0  0  0  0  0  0  0  0
  184.4270  178.6030  138.2060 C   0  0  0  0  0  2  0  0  0  0  0  0
  187.0340  178.2170  139.4720 C   0  0  2  0  0  3  0  0  0  0  0  0
  185.6240  178.2050  137.3670 C   0  0  0  0  0  2  0  0  0  0  0  0
  185.9140  178.7580  140.4180 C   0  0  0  0  0  2  0  0  0  0  0  0
  186.5870  177.4080  138.2330 C   0  0  0  0  0  2  0  0  0  0  0  0
  183.5710  179.1250  140.4330 N   0  0  0  0  0  2  0  0  0  0  0  0
  191.7360  175.1470  135.1960 C   0  0  0  0  0  1  0  0  0  0  0  0
  191.6530  174.9330  136.5680 O   0  0  0  0  0  0  0  0  0  0  0  0
  189.5550  176.1130  142.1460 C   0  0  0  0  0  2  0  0  0  0  0  0
  189.0760  176.1530  143.5520 C   0  0  0  0  0  2  0  0  0  0  0  0
  187.6640  176.2640  143.5210 O   0  0  0  0  0  0  0  0  0  0  0  0
  184.7940  178.4200  144.5120 C   0  0  0  0  0  3  0  0  0  0  0  0
  187.0830  177.2560  144.2850 C   0  0  0  0  0  0  0  0  0  0  0  0
  186.0920  178.2890  143.7310 C   0  0  0  0  0  3  0  0  0  0  0  0
  185.8100  178.7940  146.8120 C   0  0  0  0  0  3  0  0  0  0  0  0
  187.0450  178.1880  146.6840 C   0  0  0  0  0  3  0  0  0  0  0  0
  187.4870  177.2450  145.6310 C   0  0  0  0  0  3  0  0  0  0  0  0
  184.6700  178.6350  145.8840 C   0  0  0  0  0  2  0  0  0  0  0  0
  1 24  1  1  0  0  0
  1  7  1  0  0  0  0
  2 11  1  0  0  0  0
  3 14  2  0  0  0  0
  5  2  1  0  0  0  0
  7  2  2  0  0  0  0
  7  3  1  0  0  0  0
  8 25  1  0  0  0  0
  8  4  1  1  0  0  0
  9  3  1  0  0  0  0
  9 13  1  0  0  0  0
 10  1  1  0  0  0  0
 10 15  1  0  0  0  0
 11  6  2  0  0  0  0
 12  8  1  0  0  0  0
 13 12  1  1  0  0  0
 14  6  1  0  0  0  0
 14  8  1  0  0  0  0
 15  9  1  0  0  0  0
 16 20  1  0  0  0  0
 16 22  2  0  0  0  0
 17 16  1  0  0  0  0
 18 21  1  6  0  0  0
 18 13  1  0  0  0  0
 18 20  1  0  0  0  0
 19 17  1  0  0  0  0
 19 21  1  0  0  0  0
 23 24  1  0  0  0  0
 25 26  1  0  0  0  0
 27 26  1  0  0  0  0
 27 29  1  0  0  0  0
 28 34  1  0  0  0  0
 29 33  2  0  0  0  0
 30 29  1  0  0  0  0
 30 28  2  0  0  0  0
 32 31  2  0  0  0  0
 33 32  1  0  0  0  0
 34 31  1  0  0  0  0
M  END
>  <MODEL>
1

>  <REMARK>
 VINA RESULT:      -8.2      0.000      0.000
  Name = 
  6 active torsions:
  status: ('A' for Active; 'I' for Inactive)
    1  A    between atoms: C_1  and  O_19
    2  A    between atoms: O_3  and  C_13
    3  A    between atoms: O_3  and  C_17
    4  A    between atoms: C_12  and  C_28
    5  A    between atoms: C_17  and  C_29
    6  A    between atoms: C_18  and  C_29
                            x       y       z     vdW  Elec       q    Type
                         _______ _______ _______ _____ _____    ______ ____

>  <TORSDO>
F 6

$$$$
=
 OpenBabel10252414573D

 34 38  0  0  1  0  0  0  0  0999 V2000
  187.7830  172.9750  135.5590 C   0  0  2  0  0  3  0  0  0  0  0  0
  189.9220  174.3040  135.1890 C   0  0  0  0  0  0  0  0  0  0  0  0
  188.0560  175.4610  136.3300 C   0  0  0  0  0  0  0  0  0  0  0  0
  189.1000  179.0320  137.2200 C   0  0  0  0  0  1  0  0  0  0  0  0
  190.4620  173.1330  134.6330 O   0  0  0  0  0  1  0  0  0  0  0  0
  190.1260  176.6940  135.7600 C   0  0  0  0  0  3  0  0  0  0  0  0
  188.6620  174.2450  135.7920 C   0  0  0  0  0  0  0  0  0  0  0  0
  188.4040  177.6910  137.4090 C   0  0  1  0  0  0  0  0  0  0  0  0
  186.7380  175.4680  136.8400 N   0  0  0  0  0  0  0  0  0  0  0  0
  186.2740  173.1780  136.0110 C   0  0  0  0  0  2  0  0  0  0  0  0
  190.6130  175.5340  135.1010 C   0  0  0  0  0  3  0  0  0  0  0  0
  186.9220  177.9430  137.0800 C   0  0  0  0  0  2  0  0  0  0  0  0
  186.1410  176.7040  137.4950 C   0  0  1  0  0  3  0  0  0  0  0  0
  188.9050  176.6760  136.4000 C   0  0  0  0  0  0  0  0  0  0  0  0
  186.1280  174.1760  137.1770 C   0  0  0  0  0  2  0  0  0  0  0  0
  182.7610  177.5660  135.7910 C   0  0  0  0  0  0  0  0  0  0  0  0
  182.0520  178.1670  137.0050 C   0  0  0  0  0  2  0  0  0  0  0  0
  184.6620  176.8780  137.2810 C   0  0  2  0  0  3  0  0  0  0  0  0
  182.6540  177.9630  138.3800 C   0  0  0  0  0  2  0  0  0  0  0  0
  184.0900  176.9070  135.8280 C   0  0  0  0  0  2  0  0  0  0  0  0
  184.1700  177.9690  138.2590 C   0  0  0  0  0  2  0  0  0  0  0  0
  182.3150  177.8810  134.5940 N   0  0  0  0  0  2  0  0  0  0  0  0
  187.7240  170.8840  135.3090 C   0  0  0  0  0  1  0  0  0  0  0  0
  188.3650  171.8340  136.0980 O   0  0  0  0  0  0  0  0  0  0  0  0
  188.5580  177.2190  138.9040 C   0  0  0  0  0  2  0  0  0  0  0  0
  188.5000  178.4040  139.7980 C   0  0  0  0  0  2  0  0  0  0  0  0
  188.8640  177.9760  141.0990 O   0  0  0  0  0  0  0  0  0  0  0  0
  187.5890  177.2350  144.5180 C   0  0  0  0  0  3  0  0  0  0  0  0
  187.8480  177.7500  142.0060 C   0  0  0  0  0  0  0  0  0  0  0  0
  187.9270  176.7100  143.1320 C   0  0  0  0  0  3  0  0  0  0  0  0
  185.3400  178.2780  143.9550 C   0  0  0  0  0  3  0  0  0  0  0  0
  185.4710  178.5350  142.6050 C   0  0  0  0  0  3  0  0  0  0  0  0
  186.7170  178.5580  141.8030 C   0  0  0  0  0  3  0  0  0  0  0  0
  186.4430  177.9410  144.8810 C   0  0  0  0  0  2  0  0  0  0  0  0
  1  7  1  0  0  0  0
  1 10  1  0  0  0  0
  1 24  1  1  0  0  0
  2  7  1  0  0  0  0
  3 14  1  0  0  0  0
  3  9  1  0  0  0  0
  5  2  1  0  0  0  0
  6 14  2  0  0  0  0
  7  3  2  0  0  0  0
  8  4  1  6  0  0  0
  8 25  1  0  0  0  0
  9 15  1  0  0  0  0
  9 13  1  0  0  0  0
 10 15  1  0  0  0  0
 11  2  2  0  0  0  0
 11  6  1  0  0  0  0
 12  8  1  0  0  0  0
 13 12  1  6  0  0  0
 14  8  1  0  0  0  0
 16 20  1  0  0  0  0
 16 17  1  0  0  0  0
 17 19  1  0  0  0  0
 18 20  1  6  0  0  0
 18 13  1  0  0  0  0
 18 21  1  0  0  0  0
 21 19  1  0  0  0  0
 22 16  2  0  0  0  0
 23 24  1  0  0  0  0
 25 26  1  0  0  0  0
 26 27  1  0  0  0  0
 27 29  1  0  0  0  0
 28 34  1  0  0  0  0
 29 30  1  0  0  0  0
 30 28  2  0  0  0  0
 31 34  1  0  0  0  0
 32 31  2  0  0  0  0
 33 29  2  0  0  0  0
 33 32  1  0  0  0  0
M  END
>  <MODEL>
2

>  <REMARK>
 VINA RESULT:      -7.8      2.690      4.339
  Name = 
  6 active torsions:
  status: ('A' for Active; 'I' for Inactive)
    1  A    between atoms: C_1  and  O_19
    2  A    between atoms: O_3  and  C_13
    3  A    between atoms: O_3  and  C_17
    4  A    between atoms: C_12  and  C_28
    5  A    between atoms: C_17  and  C_29
    6  A    between atoms: C_18  and  C_29
                            x       y       z     vdW  Elec       q    Type
                         _______ _______ _______ _____ _____    ______ ____

>  <TORSDO>
F 6

$$$$
=
 OpenBabel10252414573D

 34 38  0  0  1  0  0  0  0  0999 V2000
  180.1830  180.7890  137.5380 C   0  0  2  0  0  3  0  0  0  0  0  0
  179.3420  181.8760  139.6810 C   0  0  0  0  0  0  0  0  0  0  0  0
  180.3790  179.6380  139.8810 C   0  0  0  0  0  0  0  0  0  0  0  0
  180.3860  178.5390  143.5450 C   0  0  0  0  0  1  0  0  0  0  0  0
  179.0000  182.9860  138.8920 O   0  0  0  0  0  1  0  0  0  0  0  0
  179.3700  180.7260  141.8620 C   0  0  0  0  0  3  0  0  0  0  0  0
  180.0580  180.8270  139.0950 C   0  0  0  0  0  0  0  0  0  0  0  0
  180.9200  178.6770  142.1260 C   0  0  1  0  0  0  0  0  0  0  0  0
  180.9950  178.5080  139.2960 N   0  0  0  0  0  0  0  0  0  0  0  0
  180.7200  179.3950  136.9970 C   0  0  0  0  0  2  0  0  0  0  0  0
  178.9310  181.7910  141.0300 C   0  0  0  0  0  3  0  0  0  0  0  0
  180.6840  177.3100  141.4600 C   0  0  0  0  0  2  0  0  0  0  0  0
  181.4240  177.3110  140.1290 C   0  0  1  0  0  3  0  0  0  0  0  0
  180.1090  179.6870  141.3390 C   0  0  0  0  0  0  0  0  0  0  0  0
  181.6540  178.6860  137.9970 C   0  0  0  0  0  2  0  0  0  0  0  0
  181.9980  174.4820  137.5330 C   0  0  0  0  0  0  0  0  0  0  0  0
  180.5600  173.9690  137.4500 C   0  0  0  0  0  2  0  0  0  0  0  0
  181.3170  175.9850  139.4280 C   0  0  2  0  0  3  0  0  0  0  0  0
  179.5600  174.4140  138.4980 C   0  0  0  0  0  2  0  0  0  0  0  0
  182.4740  175.5120  138.4910 C   0  0  0  0  0  2  0  0  0  0  0  0
  179.8720  175.8480  138.8960 C   0  0  0  0  0  2  0  0  0  0  0  0
  182.8110  174.2130  136.5350 N   0  0  0  0  0  2  0  0  0  0  0  0
  180.6070  181.7180  135.6960 C   0  0  0  0  0  1  0  0  0  0  0  0
  180.8970  181.8760  137.0470 O   0  0  0  0  0  0  0  0  0  0  0  0
  182.4600  179.0040  142.1680 C   0  0  0  0  0  2  0  0  0  0  0  0
  182.9400  178.9150  143.5710 C   0  0  0  0  0  2  0  0  0  0  0  0
  184.2990  179.3160  143.5850 O   0  0  0  0  0  0  0  0  0  0  0  0
  187.5580  177.6430  144.2550 C   0  0  0  0  0  3  0  0  0  0  0  0
  185.1690  178.6030  144.3850 C   0  0  0  0  0  0  0  0  0  0  0  0
  186.0960  177.4980  143.8630 C   0  0  0  0  0  3  0  0  0  0  0  0
  187.2200  177.8890  146.7630 C   0  0  0  0  0  3  0  0  0  0  0  0
  185.9330  178.3840  146.8340 C   0  0  0  0  0  3  0  0  0  0  0  0
  185.1270  178.9750  145.7390 C   0  0  0  0  0  3  0  0  0  0  0  0
  188.0560  177.8280  145.5450 C   0  0  0  0  0  2  0  0  0  0  0  0
  1 24  1  1  0  0  0
  1  7  1  0  0  0  0
  2 11  1  0  0  0  0
  3 14  2  0  0  0  0
  5  2  1  0  0  0  0
  7  2  2  0  0  0  0
  7  3  1  0  0  0  0
  8 25  1  0  0  0  0
  8  4  1  1  0  0  0
  9  3  1  0  0  0  0
  9 13  1  0  0  0  0
 10  1  1  0  0  0  0
 10 15  1  0  0  0  0
 11  6  2  0  0  0  0
 12  8  1  0  0  0  0
 13 12  1  1  0  0  0
 14  6  1  0  0  0  0
 14  8  1  0  0  0  0
 15  9  1  0  0  0  0
 16 20  1  0  0  0  0
 17 16  1  0  0  0  0
 17 19  1  0  0  0  0
 18 20  1  6  0  0  0
 18 13  1  0  0  0  0
 19 21  1  0  0  0  0
 21 18  1  0  0  0  0
 22 16  2  0  0  0  0
 23 24  1  0  0  0  0
 25 26  1  0  0  0  0
 26 27  1  0  0  0  0
 27 29  1  0  0  0  0
 28 34  1  0  0  0  0
 29 33  2  0  0  0  0
 30 28  2  0  0  0  0
 30 29  1  0  0  0  0
 31 32  2  0  0  0  0
 33 32  1  0  0  0  0
 34 31  1  0  0  0  0
M  END
>  <MODEL>
3

>  <REMARK>
 VINA RESULT:      -7.7      5.507      8.949
  Name = 
  6 active torsions:
  status: ('A' for Active; 'I' for Inactive)
    1  A    between atoms: C_1  and  O_19
    2  A    between atoms: O_3  and  C_13
    3  A    between atoms: O_3  and  C_17
    4  A    between atoms: C_12  and  C_28
    5  A    between atoms: C_17  and  C_29
    6  A    between atoms: C_18  and  C_29
                            x       y       z     vdW  Elec       q    Type
                         _______ _______ _______ _____ _____    ______ ____

>  <TORSDO>
F 6

$$$$
=
 OpenBabel10252414573D

 34 38  0  0  1  0  0  0  0  0999 V2000
  185.9450  177.3010  137.2950 C   0  0  2  0  0  3  0  0  0  0  0  0
  183.7050  176.3430  136.5570 C   0  0  0  0  0  0  0  0  0  0  0  0
  183.7480  177.6040  138.6860 C   0  0  0  0  0  0  0  0  0  0  0  0
  180.2360  177.7070  140.1990 C   0  0  0  0  0  1  0  0  0  0  0  0
  184.3660  175.8920  135.4030 O   0  0  0  0  0  1  0  0  0  0  0  0
  181.6720  176.4790  137.9450 C   0  0  0  0  0  3  0  0  0  0  0  0
  184.3970  177.1650  137.4520 C   0  0  0  0  0  0  0  0  0  0  0  0
  181.6210  178.2310  139.8430 C   0  0  1  0  0  0  0  0  0  0  0  0
  184.4500  178.3360  139.6700 N   0  0  0  0  0  0  0  0  0  0  0  0
  186.6350  177.9820  138.5540 C   0  0  0  0  0  2  0  0  0  0  0  0
  182.3820  175.9360  136.8410 C   0  0  0  0  0  3  0  0  0  0  0  0
  182.4450  178.1410  141.1390 C   0  0  0  0  0  2  0  0  0  0  0  0
  183.7540  178.8820  140.9070 C   0  0  1  0  0  3  0  0  0  0  0  0
  182.2990  177.3240  138.8350 C   0  0  0  0  0  0  0  0  0  0  0  0
  185.7090  178.9790  139.2770 C   0  0  0  0  0  2  0  0  0  0  0  0
  186.3760  177.8560  143.5800 C   0  0  0  0  0  0  0  0  0  0  0  0
  185.5980  178.2860  144.8240 C   0  0  0  0  0  2  0  0  0  0  0  0
  184.6050  178.9160  142.1460 C   0  0  2  0  0  3  0  0  0  0  0  0
  184.3760  179.1650  144.6570 C   0  0  0  0  0  2  0  0  0  0  0  0
  185.9470  178.1160  142.1820 C   0  0  0  0  0  2  0  0  0  0  0  0
  183.6670  178.7820  143.3670 C   0  0  0  0  0  2  0  0  0  0  0  0
  187.3380  176.9710  143.7250 N   0  0  0  0  0  2  0  0  0  0  0  0
  187.6700  177.6990  136.1530 C   0  0  0  0  0  1  0  0  0  0  0  0
  186.2950  177.9010  136.0910 O   0  0  0  0  0  0  0  0  0  0  0  0
  181.5160  179.7290  139.3670 C   0  0  0  0  0  2  0  0  0  0  0  0
  180.5580  179.8160  138.2350 C   0  0  0  0  0  2  0  0  0  0  0  0
  181.2210  180.4630  137.1630 O   0  0  0  0  0  0  0  0  0  0  0  0
  181.2910  184.1860  137.1900 C   0  0  0  0  0  3  0  0  0  0  0  0
  180.7500  181.7000  136.7720 C   0  0  0  0  0  0  0  0  0  0  0  0
  180.6510  182.9100  137.7120 C   0  0  0  0  0  2  0  0  0  0  0  0
  180.1110  184.2700  134.9400 C   0  0  0  0  0  3  0  0  0  0  0  0
  179.8030  182.9420  134.7260 C   0  0  0  0  0  3  0  0  0  0  0  0
  180.3560  181.7580  135.4250 C   0  0  0  0  0  3  0  0  0  0  0  0
  181.0580  184.7850  135.9520 C   0  0  0  0  0  3  0  0  0  0  0  0
  1 24  1  6  0  0  0
  1  7  1  0  0  0  0
  1 10  1  0  0  0  0
  2 11  2  0  0  0  0
  2  7  1  0  0  0  0
  3 14  1  0  0  0  0
  3  9  1  0  0  0  0
  5  2  1  0  0  0  0
  6 14  2  0  0  0  0
  7  3  2  0  0  0  0
  8  4  1  1  0  0  0
  8 12  1  0  0  0  0
  9 13  1  0  0  0  0
 10 15  1  0  0  0  0
 11  6  1  0  0  0  0
 13 12  1  1  0  0  0
 13 18  1  0  0  0  0
 14  8  1  0  0  0  0
 15  9  1  0  0  0  0
 16 22  2  0  0  0  0
 16 17  1  0  0  0  0
 18 20  1  6  0  0  0
 18 21  1  0  0  0  0
 19 17  1  0  0  0  0
 20 16  1  0  0  0  0
 21 19  1  0  0  0  0
 24 23  1  0  0  0  0
 25  8  1  0  0  0  0
 26 25  1  0  0  0  0
 27 26  1  0  0  0  0
 28 30  1  0  0  0  0
 29 27  1  0  0  0  0
 29 30  1  0  0  0  0
 31 34  1  0  0  0  0
 32 31  2  0  0  0  0
 32 33  1  0  0  0  0
 33 29  2  0  0  0  0
 34 28  2  0  0  0  0
M  END
>  <MODEL>
4

>  <REMARK>
 VINA RESULT:      -7.4      4.388      8.725
  Name = 
  6 active torsions:
  status: ('A' for Active; 'I' for Inactive)
    1  A    between atoms: C_1  and  O_19
    2  A    between atoms: O_3  and  C_13
    3  A    between atoms: O_3  and  C_17
    4  A    between atoms: C_12  and  C_28
    5  A    between atoms: C_17  and  C_29
    6  A    between atoms: C_18  and  C_29
                            x       y       z     vdW  Elec       q    Type
                         _______ _______ _______ _____ _____    ______ ____

>  <TORSDO>
F 6

$$$$
=
 OpenBabel10252414573D

 34 38  0  0  1  0  0  0  0  0999 V2000
  185.4750  178.9380  141.7590 C   0  0  2  0  0  3  0  0  0  0  0  0
  184.1250  178.7860  143.9120 C   0  0  0  0  0  0  0  0  0  0  0  0
  182.8580  178.9860  141.7960 C   0  0  0  0  0  0  0  0  0  0  0  0
  179.1040  178.9670  142.5310 C   0  0  0  0  0  1  0  0  0  0  0  0
  185.3530  178.6460  144.5800 O   0  0  0  0  0  1  0  0  0  0  0  0
  181.6700  179.0020  143.9680 C   0  0  0  0  0  3  0  0  0  0  0  0
  184.1160  178.7880  142.5130 C   0  0  0  0  0  0  0  0  0  0  0  0
  180.3790  178.6590  141.7560 C   0  0  1  0  0  0  0  0  0  0  0  0
  182.8210  179.1120  140.3880 N   0  0  0  0  0  0  0  0  0  0  0  0
  185.2900  179.2570  140.2130 C   0  0  0  0  0  2  0  0  0  0  0  0
  182.9240  178.9730  144.6330 C   0  0  0  0  0  3  0  0  0  0  0  0
  180.3920  179.6440  140.5740 C   0  0  0  0  0  2  0  0  0  0  0  0
  181.5070  179.2160  139.6300 C   0  0  1  0  0  3  0  0  0  0  0  0
  181.6060  178.9680  142.5910 C   0  0  0  0  0  0  0  0  0  0  0  0
  183.9940  178.6610  139.6310 C   0  0  0  0  0  2  0  0  0  0  0  0
  181.1470  182.2940  137.2920 C   0  0  0  0  0  0  0  0  0  0  0  0
  180.6760  181.5600  136.0370 C   0  0  0  0  0  2  0  0  0  0  0  0
  181.5570  180.0750  138.3970 C   0  0  2  0  0  3  0  0  0  0  0  0
  180.8040  180.0510  135.9780 C   0  0  0  0  0  2  0  0  0  0  0  0
  181.5980  181.6300  138.5410 C   0  0  0  0  0  2  0  0  0  0  0  0
  180.5660  179.4840  137.3690 C   0  0  0  0  0  2  0  0  0  0  0  0
  180.8890  183.5800  137.3920 N   0  0  0  0  0  2  0  0  0  0  0  0
  187.5140  178.4450  141.5750 C   0  0  0  0  0  1  0  0  0  0  0  0
  186.3230  177.8630  141.9950 O   0  0  0  0  0  0  0  0  0  0  0  0
  180.3350  177.1750  141.2290 C   0  0  0  0  0  2  0  0  0  0  0  0
  179.0010  176.9080  140.6320 C   0  0  0  0  0  2  0  0  0  0  0  0
  178.9310  175.5220  140.3460 O   0  0  0  0  0  0  0  0  0  0  0  0
  181.2910  175.8500  137.4840 C   0  0  0  0  0  3  0  0  0  0  0  0
  179.4900  175.0840  139.1630 C   0  0  0  0  0  0  0  0  0  0  0  0
  179.8720  176.0150  138.0040 C   0  0  0  0  0  2  0  0  0  0  0  0
  181.2220  173.3400  137.0810 C   0  0  0  0  0  3  0  0  0  0  0  0
  180.2430  172.9330  137.9660 C   0  0  0  0  0  3  0  0  0  0  0  0
  179.6770  173.6920  139.1050 C   0  0  0  0  0  3  0  0  0  0  0  0
  181.8940  174.6570  137.0840 C   0  0  0  0  0  3  0  0  0  0  0  0
  1 24  1  6  0  0  0
  1  7  1  0  0  0  0
  2  5  1  0  0  0  0
  2 11  1  0  0  0  0
  3  7  1  0  0  0  0
  3 14  2  0  0  0  0
  6 11  2  0  0  0  0
  7  2  2  0  0  0  0
  8  4  1  1  0  0  0
  8 14  1  0  0  0  0
  9  3  1  0  0  0  0
 10  1  1  0  0  0  0
 12  8  1  0  0  0  0
 13  9  1  0  0  0  0
 13 12  1  1  0  0  0
 14  6  1  0  0  0  0
 15 10  1  0  0  0  0
 15  9  1  0  0  0  0
 16 22  2  0  0  0  0
 16 20  1  0  0  0  0
 17 16  1  0  0  0  0
 18 21  1  6  0  0  0
 18 20  1  0  0  0  0
 18 13  1  0  0  0  0
 19 17  1  0  0  0  0
 19 21  1  0  0  0  0
 23 24  1  0  0  0  0
 25  8  1  0  0  0  0
 26 25  1  0  0  0  0
 27 26  1  0  0  0  0
 28 30  1  0  0  0  0
 29 27  1  0  0  0  0
 30 29  1  0  0  0  0
 31 34  1  0  0  0  0
 31 32  2  0  0  0  0
 32 33  1  0  0  0  0
 33 29  2  0  0  0  0
 34 28  2  0  0  0  0
M  END
>  <MODEL>
5

>  <REMARK>
 VINA RESULT:      -7.4      4.531      8.866
  Name = 
  6 active torsions:
  status: ('A' for Active; 'I' for Inactive)
    1  A    between atoms: C_1  and  O_19
    2  A    between atoms: O_3  and  C_13
    3  A    between atoms: O_3  and  C_17
    4  A    between atoms: C_12  and  C_28
    5  A    between atoms: C_17  and  C_29
    6  A    between atoms: C_18  and  C_29
                            x       y       z     vdW  Elec       q    Type
                         _______ _______ _______ _____ _____    ______ ____

>  <TORSDO>
F 6

$$$$
=
 OpenBabel10252414573D

 34 38  0  0  1  0  0  0  0  0999 V2000
  188.5350  178.2320  139.2570 C   0  0  2  0  0  3  0  0  0  0  0  0
  186.7550  177.7130  137.5130 C   0  0  0  0  0  0  0  0  0  0  0  0
  188.7950  176.3130  137.4950 C   0  0  0  0  0  0  0  0  0  0  0  0
  188.5410  173.6920  134.7200 C   0  0  0  0  0  1  0  0  0  0  0  0
  185.9870  178.7270  138.1080 O   0  0  0  0  0  1  0  0  0  0  0  0
  187.0680  176.0220  135.7460 C   0  0  0  0  0  3  0  0  0  0  0  0
  187.9530  177.3280  138.1240 C   0  0  0  0  0  0  0  0  0  0  0  0
  188.9170  174.2500  136.0870 C   0  0  1  0  0  0  0  0  0  0  0  0
  190.0660  175.9810  138.0160 N   0  0  0  0  0  0  0  0  0  0  0  0
  190.0370  177.8680  139.6230 C   0  0  0  0  0  2  0  0  0  0  0  0
  186.3560  177.1240  136.2920 C   0  0  0  0  0  3  0  0  0  0  0  0
  190.4270  174.5360  136.0160 C   0  0  0  0  0  2  0  0  0  0  0  0
  190.9020  174.8550  137.4260 C   0  0  1  0  0  3  0  0  0  0  0  0
  188.2340  175.5810  136.3330 C   0  0  0  0  0  0  0  0  0  0  0  0
  190.3650  176.3790  139.3960 C   0  0  0  0  0  2  0  0  0  0  0  0
  194.4450  176.1560  136.5180 C   0  0  0  0  0  0  0  0  0  0  0  0
  195.2290  174.8780  136.8170 C   0  0  0  0  0  2  0  0  0  0  0  0
  192.3880  175.0800  137.4790 C   0  0  2  0  0  3  0  0  0  0  0  0
  194.5510  173.7650  137.5890 C   0  0  0  0  0  2  0  0  0  0  0  0
  193.0010  176.3480  136.8030 C   0  0  0  0  0  2  0  0  0  0  0  0
  193.0800  173.7250  137.2040 C   0  0  0  0  0  2  0  0  0  0  0  0
  194.9910  177.0450  135.7180 N   0  0  0  0  0  2  0  0  0  0  0  0
  188.6750  178.3210  141.3570 C   0  0  0  0  0  1  0  0  0  0  0  0
  187.6990  178.2780  140.3660 O   0  0  0  0  0  0  0  0  0  0  0  0
  188.6170  173.1760  137.1990 C   0  0  0  0  0  2  0  0  0  0  0  0
  187.3770  172.4390  136.8440 C   0  0  0  0  0  2  0  0  0  0  0  0
  186.3570  172.8660  137.7310 O   0  0  0  0  0  0  0  0  0  0  0  0
  183.0610  171.3780  136.8440 C   0  0  0  0  0  3  0  0  0  0  0  0
  185.0710  172.9440  137.2370 C   0  0  0  0  0  0  0  0  0  0  0  0
  184.4240  171.8560  136.3690 C   0  0  0  0  0  3  0  0  0  0  0  0
  181.9370  173.6520  137.0150 C   0  0  0  0  0  3  0  0  0  0  0  0
  183.0150  174.4930  137.2060 C   0  0  0  0  0  3  0  0  0  0  0  0
  184.3960  174.1230  137.5950 C   0  0  0  0  0  3  0  0  0  0  0  0
  181.9580  172.1790  137.1410 C   0  0  0  0  0  2  0  0  0  0  0  0
  1 10  1  0  0  0  0
  1 24  1  1  0  0  0
  2  5  1  0  0  0  0
  2  7  1  0  0  0  0
  3  9  1  0  0  0  0
  3  7  2  0  0  0  0
  6 11  1  0  0  0  0
  6 14  2  0  0  0  0
  7  1  1  0  0  0  0
  8  4  1  6  0  0  0
  8 14  1  0  0  0  0
  8 25  1  0  0  0  0
  9 15  1  0  0  0  0
 11  2  2  0  0  0  0
 12  8  1  0  0  0  0
 13 12  1  6  0  0  0
 13 18  1  0  0  0  0
 13  9  1  0  0  0  0
 14  3  1  0  0  0  0
 15 10  1  0  0  0  0
 16 20  1  0  0  0  0
 16 17  1  0  0  0  0
 17 19  1  0  0  0  0
 18 20  1  6  0  0  0
 21 18  1  0  0  0  0
 21 19  1  0  0  0  0
 22 16  2  0  0  0  0
 24 23  1  0  0  0  0
 26 25  1  0  0  0  0
 26 27  1  0  0  0  0
 28 34  1  0  0  0  0
 29 33  2  0  0  0  0
 29 27  1  0  0  0  0
 30 28  2  0  0  0  0
 30 29  1  0  0  0  0
 31 34  1  0  0  0  0
 31 32  2  0  0  0  0
 32 33  1  0  0  0  0
M  END
>  <MODEL>
6

>  <REMARK>
 VINA RESULT:      -7.3      3.743      8.014
  Name = 
  6 active torsions:
  status: ('A' for Active; 'I' for Inactive)
    1  A    between atoms: C_1  and  O_19
    2  A    between atoms: O_3  and  C_13
    3  A    between atoms: O_3  and  C_17
    4  A    between atoms: C_12  and  C_28
    5  A    between atoms: C_17  and  C_29
    6  A    between atoms: C_18  and  C_29
                            x       y       z     vdW  Elec       q    Type
                         _______ _______ _______ _____ _____    ______ ____

>  <TORSDO>
F 6

$$$$
=
 OpenBabel10252414573D

 34 38  0  0  1  0  0  0  0  0999 V2000
  186.4020  174.4480  136.5900 C   0  0  2  0  0  3  0  0  0  0  0  0
  187.4360  176.7330  137.0230 C   0  0  0  0  0  0  0  0  0  0  0  0
  185.0340  176.4610  137.5510 C   0  0  0  0  0  0  0  0  0  0  0  0
  183.6360  179.7400  138.9400 C   0  0  0  0  0  1  0  0  0  0  0  0
  188.6560  176.1730  136.6080 O   0  0  0  0  0  1  0  0  0  0  0  0
  186.1150  178.6770  137.7670 C   0  0  0  0  0  3  0  0  0  0  0  0
  186.3260  175.8940  137.1720 C   0  0  0  0  0  0  0  0  0  0  0  0
  183.7950  178.2310  138.8110 C   0  0  1  0  0  0  0  0  0  0  0  0
  183.8640  175.6690  137.5970 N   0  0  0  0  0  0  0  0  0  0  0  0
  184.9850  173.7320  136.5310 C   0  0  0  0  0  2  0  0  0  0  0  0
  187.3120  178.1240  137.2390 C   0  0  0  0  0  3  0  0  0  0  0  0
  182.5600  177.7500  138.0280 C   0  0  0  0  0  2  0  0  0  0  0  0
  182.5390  176.2290  138.0890 C   0  0  1  0  0  3  0  0  0  0  0  0
  185.0050  177.8850  137.9670 C   0  0  0  0  0  0  0  0  0  0  0  0
  184.0270  174.2110  137.6390 C   0  0  0  0  0  2  0  0  0  0  0  0
  179.8250  173.6940  136.9580 C   0  0  0  0  0  0  0  0  0  0  0  0
  179.6750  174.1670  135.5120 C   0  0  0  0  0  2  0  0  0  0  0  0
  181.3230  175.6590  137.4110 C   0  0  2  0  0  3  0  0  0  0  0  0
  180.2770  175.4970  135.1090 C   0  0  0  0  0  2  0  0  0  0  0  0
  180.6490  174.3740  137.9890 C   0  0  0  0  0  2  0  0  0  0  0  0
  181.5680  175.7070  135.8860 C   0  0  0  0  0  2  0  0  0  0  0  0
  179.4350  172.4730  137.2550 N   0  0  0  0  0  2  0  0  0  0  0  0
  187.6620  172.8100  136.1780 C   0  0  0  0  0  1  0  0  0  0  0  0
  187.3740  173.6820  137.2230 O   0  0  0  0  0  0  0  0  0  0  0  0
  183.8200  177.5760  140.2430 C   0  0  0  0  0  2  0  0  0  0  0  0
  184.4790  178.5070  141.1950 C   0  0  0  0  0  2  0  0  0  0  0  0
  184.1800  178.0620  142.5060 O   0  0  0  0  0  0  0  0  0  0  0  0
  185.2340  178.5990  146.0370 C   0  0  0  0  0  3  0  0  0  0  0  0
  185.1350  178.2620  143.4830 C   0  0  0  0  0  0  0  0  0  0  0  0
  184.9470  179.2110  144.6750 C   0  0  0  0  0  3  0  0  0  0  0  0
  187.5560  177.6970  145.5300 C   0  0  0  0  0  3  0  0  0  0  0  0
  187.5100  177.5360  144.1590 C   0  0  0  0  0  3  0  0  0  0  0  0
  186.3110  177.5200  143.2880 C   0  0  0  0  0  3  0  0  0  0  0  0
  186.3910  177.9170  146.4130 C   0  0  0  0  0  2  0  0  0  0  0  0
  1  7  1  0  0  0  0
  1 24  1  1  0  0  0
  2  7  2  0  0  0  0
  2 11  1  0  0  0  0
  3  9  1  0  0  0  0
  3 14  2  0  0  0  0
  5  2  1  0  0  0  0
  6 14  1  0  0  0  0
  7  3  1  0  0  0  0
  8  4  1  1  0  0  0
  8 25  1  0  0  0  0
  9 15  1  0  0  0  0
  9 13  1  0  0  0  0
 10  1  1  0  0  0  0
 10 15  1  0  0  0  0
 11  6  2  0  0  0  0
 12  8  1  0  0  0  0
 13 12  1  6  0  0  0
 14  8  1  0  0  0  0
 16 22  2  0  0  0  0
 16 20  1  0  0  0  0
 17 16  1  0  0  0  0
 18 21  1  6  0  0  0
 18 20  1  0  0  0  0
 18 13  1  0  0  0  0
 19 17  1  0  0  0  0
 19 21  1  0  0  0  0
 23 24  1  0  0  0  0
 25 26  1  0  0  0  0
 26 27  1  0  0  0  0
 27 29  1  0  0  0  0
 28 34  1  0  0  0  0
 29 30  1  0  0  0  0
 30 28  2  0  0  0  0
 31 34  1  0  0  0  0
 32 31  2  0  0  0  0
 33 29  2  0  0  0  0
 33 32  1  0  0  0  0
M  END
>  <MODEL>
7

>  <REMARK>
 VINA RESULT:      -7.1      3.623      5.697
  Name = 
  6 active torsions:
  status: ('A' for Active; 'I' for Inactive)
    1  A    between atoms: C_1  and  O_19
    2  A    between atoms: O_3  and  C_13
    3  A    between atoms: O_3  and  C_17
    4  A    between atoms: C_12  and  C_28
    5  A    between atoms: C_17  and  C_29
    6  A    between atoms: C_18  and  C_29
                            x       y       z     vdW  Elec       q    Type
                         _______ _______ _______ _____ _____    ______ ____

>  <TORSDO>
F 6

$$$$
=
 OpenBabel10252414573D

 34 38  0  0  1  0  0  0  0  0999 V2000
  184.2910  173.3850  136.7430 C   0  0  2  0  0  3  0  0  0  0  0  0
  186.6540  173.7950  135.8890 C   0  0  0  0  0  0  0  0  0  0  0  0
  185.5090  175.6880  136.9960 C   0  0  0  0  0  0  0  0  0  0  0  0
  187.8230  178.7340  137.0710 C   0  0  0  0  0  1  0  0  0  0  0  0
  186.6660  172.4440  135.5050 O   0  0  0  0  0  1  0  0  0  0  0  0
  187.7400  176.0070  135.9720 C   0  0  0  0  0  3  0  0  0  0  0  0
  185.5700  174.2750  136.6310 C   0  0  0  0  0  0  0  0  0  0  0  0
  186.7620  177.7700  137.5880 C   0  0  1  0  0  0  0  0  0  0  0  0
  184.3770  176.2370  137.6420 N   0  0  0  0  0  0  0  0  0  0  0  0
  183.0390  174.1760  137.3180 C   0  0  0  0  0  2  0  0  0  0  0  0
  187.6900  174.6710  135.4920 C   0  0  0  0  0  3  0  0  0  0  0  0
  185.4170  178.4890  137.3880 C   0  0  0  0  0  2  0  0  0  0  0  0
  184.3500  177.6820  138.1150 C   0  0  1  0  0  3  0  0  0  0  0  0
  186.7130  176.5150  136.7380 C   0  0  0  0  0  0  0  0  0  0  0  0
  183.4390  175.3090  138.2830 C   0  0  0  0  0  2  0  0  0  0  0  0
  181.1690  179.3670  136.6620 C   0  0  0  0  0  0  0  0  0  0  0  0
  180.9650  180.4220  137.7500 C   0  0  0  0  0  2  0  0  0  0  0  0
  183.0010  178.3430  138.0430 C   0  0  2  0  0  3  0  0  0  0  0  0
  181.7360  180.2950  139.0480 C   0  0  0  0  0  2  0  0  0  0  0  0
  182.1830  178.2840  136.7130 C   0  0  0  0  0  2  0  0  0  0  0  0
  183.1100  179.7140  138.7480 C   0  0  0  0  0  2  0  0  0  0  0  0
  180.6140  179.5720  135.4870 N   0  0  0  0  0  2  0  0  0  0  0  0
  183.4740  171.4520  136.9270 C   0  0  0  0  0  1  0  0  0  0  0  0
  184.5420  172.1960  137.4180 O   0  0  0  0  0  0  0  0  0  0  0  0
  187.0060  177.4840  139.1170 C   0  0  0  0  0  2  0  0  0  0  0  0
  188.3750  177.9270  139.4850 C   0  0  0  0  0  2  0  0  0  0  0  0
  188.2680  178.7190  140.6560 O   0  0  0  0  0  0  0  0  0  0  0  0
  190.2800  178.2830  143.7590 C   0  0  0  0  0  3  0  0  0  0  0  0
  188.5390  178.1110  141.8660 C   0  0  0  0  0  0  0  0  0  0  0  0
  189.9560  177.7880  142.3590 C   0  0  0  0  0  3  0  0  0  0  0  0
  188.2900  177.2530  144.9600 C   0  0  0  0  0  3  0  0  0  0  0  0
  187.3640  177.1420  143.9410 C   0  0  0  0  0  3  0  0  0  0  0  0
  187.3910  177.8030  142.6150 C   0  0  0  0  0  3  0  0  0  0  0  0
  189.5320  178.0530  144.9140 C   0  0  0  0  0  2  0  0  0  0  0  0
  1 10  1  0  0  0  0
  1 24  1  1  0  0  0
  2  7  1  0  0  0  0
  3  9  1  0  0  0  0
  5  2  1  0  0  0  0
  6 14  2  0  0  0  0
  7  1  1  0  0  0  0
  7  3  2  0  0  0  0
  8  4  1  6  0  0  0
  8 25  1  0  0  0  0
  9 13  1  0  0  0  0
  9 15  1  0  0  0  0
 10 15  1  0  0  0  0
 11  2  2  0  0  0  0
 11  6  1  0  0  0  0
 12  8  1  0  0  0  0
 13 12  1  6  0  0  0
 14  3  1  0  0  0  0
 14  8  1  0  0  0  0
 16 20  1  0  0  0  0
 16 17  1  0  0  0  0
 17 19  1  0  0  0  0
 18 20  1  6  0  0  0
 18 13  1  0  0  0  0
 18 21  1  0  0  0  0
 21 19  1  0  0  0  0
 22 16  2  0  0  0  0
 23 24  1  0  0  0  0
 25 26  1  0  0  0  0
 26 27  1  0  0  0  0
 27 29  1  0  0  0  0
 28 34  1  0  0  0  0
 29 30  1  0  0  0  0
 29 33  2  0  0  0  0
 30 28  2  0  0  0  0
 32 31  2  0  0  0  0
 33 32  1  0  0  0  0
 34 31  1  0  0  0  0
M  END
>  <MODEL>
8

>  <REMARK>
 VINA RESULT:      -7.0      3.348      5.671
  Name = 
  6 active torsions:
  status: ('A' for Active; 'I' for Inactive)
    1  A    between atoms: C_1  and  O_19
    2  A    between atoms: O_3  and  C_13
    3  A    between atoms: O_3  and  C_17
    4  A    between atoms: C_12  and  C_28
    5  A    between atoms: C_17  and  C_29
    6  A    between atoms: C_18  and  C_29
                            x       y       z     vdW  Elec       q    Type
                         _______ _______ _______ _____ _____    ______ ____

>  <TORSDO>
F 6

$$$$
=
 OpenBabel10252414573D

 34 38  0  0  1  0  0  0  0  0999 V2000
  180.4310  180.1410  136.3360 C   0  0  2  0  0  3  0  0  0  0  0  0
  180.1100  181.0650  138.6860 C   0  0  0  0  0  0  0  0  0  0  0  0
  181.4590  179.0030  138.4570 C   0  0  0  0  0  0  0  0  0  0  0  0
  182.6890  177.8730  141.8980 C   0  0  0  0  0  1  0  0  0  0  0  0
  179.4030  182.1220  138.0900 O   0  0  0  0  0  1  0  0  0  0  0  0
  180.9330  179.9060  140.7010 C   0  0  0  0  0  3  0  0  0  0  0  0
  180.7610  180.1410  137.8620 C   0  0  0  0  0  0  0  0  0  0  0  0
  182.7610  178.1060  140.3950 C   0  0  1  0  0  0  0  0  0  0  0  0
  182.0280  177.9850  137.6580 N   0  0  0  0  0  0  0  0  0  0  0  0
  180.9740  178.8490  135.5870 C   0  0  0  0  0  2  0  0  0  0  0  0
  180.1270  180.9030  140.0900 C   0  0  0  0  0  3  0  0  0  0  0  0
  182.5320  176.7270  139.7510 C   0  0  0  0  0  2  0  0  0  0  0  0
  182.8430  176.8540  138.2660 C   0  0  1  0  0  3  0  0  0  0  0  0
  181.6230  178.9940  139.9310 C   0  0  0  0  0  0  0  0  0  0  0  0
  182.2480  178.2740  136.2360 C   0  0  0  0  0  2  0  0  0  0  0  0
  181.4910  173.3710  137.2110 C   0  0  0  0  0  0  0  0  0  0  0  0
  182.8330  172.6580  137.0470 C   0  0  0  0  0  2  0  0  0  0  0  0
  182.7200  175.5360  137.5530 C   0  0  2  0  0  3  0  0  0  0  0  0
  184.1030  173.4830  137.0100 C   0  0  0  0  0  2  0  0  0  0  0  0
  181.3320  174.8220  137.4840 C   0  0  0  0  0  2  0  0  0  0  0  0
  183.9430  174.6730  137.9430 C   0  0  0  0  0  2  0  0  0  0  0  0
  180.4160  172.6360  137.3970 N   0  0  0  0  0  2  0  0  0  0  0  0
  179.8840  181.3290  134.6840 C   0  0  0  0  0  1  0  0  0  0  0  0
  180.8120  181.3280  135.7210 O   0  0  0  0  0  0  0  0  0  0  0  0
  184.1850  178.6570  140.0100 C   0  0  0  0  0  2  0  0  0  0  0  0
  184.9200  179.0190  141.2500 C   0  0  0  0  0  2  0  0  0  0  0  0
  186.2770  178.6560  141.0640 O   0  0  0  0  0  0  0  0  0  0  0  0
  189.3260  177.8640  143.0490 C   0  0  0  0  0  3  0  0  0  0  0  0
  186.9290  178.0520  142.1210 C   0  0  0  0  0  0  0  0  0  0  0  0
  188.3170  177.4070  142.0090 C   0  0  0  0  0  3  0  0  0  0  0  0
  187.9180  177.4150  145.1180 C   0  0  0  0  0  3  0  0  0  0  0  0
  186.6340  177.4960  144.6170 C   0  0  0  0  0  3  0  0  0  0  0  0
  186.2010  178.0720  143.3220 C   0  0  0  0  0  3  0  0  0  0  0  0
  189.1440  177.8770  144.4320 C   0  0  0  0  0  2  0  0  0  0  0  0
  1 24  1  6  0  0  0
  1  7  1  0  0  0  0
  2 11  1  0  0  0  0
  3 14  2  0  0  0  0
  5  2  1  0  0  0  0
  7  3  1  0  0  0  0
  7  2  2  0  0  0  0
  8  4  1  1  0  0  0
  9 13  1  0  0  0  0
  9  3  1  0  0  0  0
 10 15  1  0  0  0  0
 10  1  1  0  0  0  0
 11  6  2  0  0  0  0
 12  8  1  0  0  0  0
 13 12  1  1  0  0  0
 14  8  1  0  0  0  0
 14  6  1  0  0  0  0
 15  9  1  0  0  0  0
 16 22  2  0  0  0  0
 16 20  1  0  0  0  0
 17 16  1  0  0  0  0
 18 20  1  1  0  0  0
 18 21  1  0  0  0  0
 18 13  1  0  0  0  0
 19 17  1  0  0  0  0
 19 21  1  0  0  0  0
 23 24  1  0  0  0  0
 25  8  1  0  0  0  0
 25 26  1  0  0  0  0
 27 26  1  0  0  0  0
 27 29  1  0  0  0  0
 28 34  1  0  0  0  0
 29 33  2  0  0  0  0
 30 29  1  0  0  0  0
 30 28  2  0  0  0  0
 32 31  2  0  0  0  0
 33 32  1  0  0  0  0
 34 31  1  0  0  0  0
M  END
>  <MODEL>
9

>  <REMARK>
 VINA RESULT:      -6.9      4.646      8.325
  Name = 
  6 active torsions:
  status: ('A' for Active; 'I' for Inactive)
    1  A    between atoms: C_1  and  O_19
    2  A    between atoms: O_3  and  C_13
    3  A    between atoms: O_3  and  C_17
    4  A    between atoms: C_12  and  C_28
    5  A    between atoms: C_17  and  C_29
    6  A    between atoms: C_18  and  C_29
                            x       y       z     vdW  Elec       q    Type
                         _______ _______ _______ _____ _____    ______ ____

>  <TORSDO>
F 6

$$$$
