=
 OpenBabel10252414583D

 34 38  0  0  1  0  0  0  0  0999 V2000
  185.9190  178.2010  138.9560 C   0  0  2  0  0  3  0  0  0  0  0  0
  183.8020  177.5790  137.6920 C   0  0  0  0  0  0  0  0  0  0  0  0
  182.0320  177.3360  136.0450 O   0  0  0  0  0  0  0  0  0  0  0  0
  183.6720  179.4180  139.4580 C   0  0  2  0  0  3  0  0  0  0  0  0
  180.2850  181.2060  138.7820 C   0  0  0  0  0  2  0  0  0  0  0  0
  184.3810  176.5630  137.3330 O   0  0  0  0  0  0  0  0  0  0  0  0
  181.9200  179.2350  137.5730 C   0  0  1  0  0  3  0  0  0  0  0  0
  181.9430  175.7020  138.7920 N   0  0  0  0  0  2  0  0  0  0  0  0
  181.2930  176.2600  136.5740 C   0  0  1  0  0  3  0  0  0  0  0  0
  181.3810  176.7690  137.9820 C   0  0  2  0  0  3  0  0  0  0  0  0
  184.5550  178.6850  138.4040 C   0  0  1  0  0  3  0  0  0  0  0  0
  180.2070  180.9160  137.4050 O   0  0  0  0  0  0  0  0  0  0  0  0
  181.7270  181.0760  139.2860 C   0  0  2  0  0  3  0  0  0  0  0  0
  180.0400  173.9100  137.8930 S   0  0  0  0  0  0  0  0  0  0  0  0
  183.7900  178.7740  140.8280 C   0  0  0  0  0  0  0  0  0  0  0  0
  179.0550  175.2910  137.1610 C   0  0  0  0  0  2  0  0  0  0  0  0
  186.2020  178.6720  140.3860 C   0  0  0  0  0  2  0  0  0  0  0  0
  182.3350  177.7730  137.3530 C   0  0  2  0  0  0  0  0  0  0  0  0
  182.5420  182.0030  138.6310 O   0  0  0  0  0  1  0  0  0  0  0  0
  180.4500  179.5360  137.2560 C   0  0  0  0  0  2  0  0  0  0  0  0
  182.2090  179.6490  139.0200 C   0  0  2  0  0  3  0  0  0  0  0  0
  185.0060  178.4040  141.2490 C   0  0  0  0  0  3  0  0  0  0  0  0
  179.8400  176.1540  136.1500 C   0  0  0  0  0  2  0  0  0  0  0  0
  180.8000  174.9060  139.2510 C   0  0  0  0  0  2  0  0  0  0  0  0
  188.1040  178.0410  138.6340 C   0  0  0  0  0  1  0  0  0  0  0  0
  186.9470  178.6190  138.1090 O   0  0  0  0  0  0  0  0  0  0  0  0
  182.5780  178.4310  141.6560 C   0  0  0  0  0  2  0  0  0  0  0  0
  182.5470  179.1030  143.0330 C   0  0  1  0  0  3  0  0  0  0  0  0
  180.1190  179.7040  143.4120 C   0  0  0  0  0  0  0  0  0  0  0  0
  178.9320  179.4680  144.0910 O   0  0  0  0  0  1  0  0  0  0  0  0
  181.2630  178.8940  143.6860 N   0  0  0  0  0  2  0  0  0  0  0  0
  180.1750  180.6280  142.5570 O   0  0  0  0  0  0  0  0  0  0  0  0
  184.5500  180.2120  144.3190 C   0  0  0  0  0  1  0  0  0  0  0  0
  183.9100  178.5270  144.0990 S   0  0  0  0  0  0  0  0  0  0  0  0
  1 26  1  6  0  0  0
  1 17  1  0  0  0  0
  3  9  1  0  0  0  0
  4 15  1  1  0  0  0
  5 13  1  0  0  0  0
  6  2  2  0  0  0  0
  7 20  1  1  0  0  0
  7 21  1  0  0  0  0
  8 24  1  0  0  0  0
  9 23  1  6  0  0  0
  9 10  1  0  0  0  0
 10  8  1  1  0  0  0
 11  2  1  1  0  0  0
 11  1  1  0  0  0  0
 11  4  1  0  0  0  0
 12  5  1  0  0  0  0
 13 19  1  6  0  0  0
 14 24  1  0  0  0  0
 15 22  2  0  0  0  0
 15 27  1  0  0  0  0
 16 14  1  0  0  0  0
 17 22  1  0  0  0  0
 18  3  1  6  0  0  0
 18  7  1  0  0  0  0
 18  2  1  0  0  0  0
 18 10  1  0  0  0  0
 20 12  1  0  0  0  0
 21 13  1  0  0  0  0
 21  4  1  0  0  0  0
 23 16  1  0  0  0  0
 26 25  1  0  0  0  0
 27 28  1  0  0  0  0
 28 31  1  0  0  0  0
 28 34  1  0  0  0  0
 29 31  1  0  0  0  0
 29 30  1  0  0  0  0
 32 29  2  0  0  0  0
 34 33  1  0  0  0  0
M  END
>  <MODEL>
1

>  <REMARK>
 VINA RESULT:      -5.3      0.000      0.000
  Name = 
  5 active torsions:
  status: ('A' for Active; 'I' for Inactive)
    1  A    between atoms: C_1  and  O_19
    2  A    between atoms: C_12  and  N_23
    3  A    between atoms: C_12  and  S_27
    4  A    between atoms: C_12  and  C_28
    5  A    between atoms: C_21  and  C_28
                            x       y       z     vdW  Elec       q    Type
                         _______ _______ _______ _____ _____    ______ ____

>  <TORSDO>
F 5

$$$$
=
 OpenBabel10252414583D

 34 38  0  0  1  0  0  0  0  0999 V2000
  185.3880  178.3390  139.0080 C   0  0  2  0  0  3  0  0  0  0  0  0
  183.4500  177.6540  137.5100 C   0  0  0  0  0  0  0  0  0  0  0  0
  181.8730  177.3830  135.6830 O   0  0  0  0  0  0  0  0  0  0  0  0
  183.0310  179.4020  139.3240 C   0  0  2  0  0  3  0  0  0  0  0  0
  179.6240  181.0200  138.3740 C   0  0  0  0  0  2  0  0  0  0  0  0
  184.1240  176.6900  137.1730 O   0  0  0  0  0  0  0  0  0  0  0  0
  181.4910  179.2020  137.2640 C   0  0  1  0  0  3  0  0  0  0  0  0
  181.6100  175.6260  138.3410 N   0  0  0  0  0  2  0  0  0  0  0  0
  181.1520  176.2430  136.0910 C   0  0  1  0  0  3  0  0  0  0  0  0
  181.0670  176.6930  137.5190 C   0  0  2  0  0  3  0  0  0  0  0  0
  184.0590  178.7680  138.3390 C   0  0  1  0  0  3  0  0  0  0  0  0
  179.7030  180.7870  136.9860 O   0  0  0  0  0  0  0  0  0  0  0  0
  181.0140  180.9510  139.0170 C   0  0  2  0  0  3  0  0  0  0  0  0
  179.9210  173.7690  137.1830 S   0  0  0  0  0  0  0  0  0  0  0  0
  183.0510  178.7040  140.6720 C   0  0  0  0  0  0  0  0  0  0  0  0
  178.9310  175.1220  136.4080 C   0  0  0  0  0  2  0  0  0  0  0  0
  185.4970  178.7620  140.4770 C   0  0  0  0  0  2  0  0  0  0  0  0
  182.0150  177.7780  137.0310 C   0  0  2  0  0  0  0  0  0  0  0  0
  181.8320  181.9520  138.4860 O   0  0  0  0  0  1  0  0  0  0  0  0
  180.0440  179.4330  136.8090 C   0  0  0  0  0  2  0  0  0  0  0  0
  181.6080  179.5670  138.7470 C   0  0  2  0  0  3  0  0  0  0  0  0
  184.2400  178.3860  141.2020 C   0  0  0  0  0  3  0  0  0  0  0  0
  179.7580  176.0730  135.5170 C   0  0  0  0  0  2  0  0  0  0  0  0
  180.4790  174.7450  138.6490 C   0  0  0  0  0  2  0  0  0  0  0  0
  187.5180  177.9660  138.5290 C   0  0  0  0  0  1  0  0  0  0  0  0
  186.4680  178.8540  138.2870 O   0  0  0  0  0  0  0  0  0  0  0  0
  181.7860  178.2560  141.3580 C   0  0  0  0  0  2  0  0  0  0  0  0
  181.5190  178.9470  142.6990 C   0  0  1  0  0  3  0  0  0  0  0  0
  183.4950  179.4280  144.2040 C   0  0  0  0  0  0  0  0  0  0  0  0
  184.5470  180.2660  144.5480 O   0  0  0  0  0  0  0  0  0  0  0  0
  182.6560  179.7640  143.1000 N   0  0  0  0  0  2  0  0  0  0  0  0
  183.2950  178.3750  144.8670 O   0  0  0  0  0  1  0  0  0  0  0  0
  179.2930  179.0740  144.0860 C   0  0  0  0  0  1  0  0  0  0  0  0
  179.9940  179.9460  142.6570 S   0  0  0  0  0  0  0  0  0  0  0  0
  1 26  1  6  0  0  0
  1 17  1  0  0  0  0
  3  9  1  0  0  0  0
  4 15  1  1  0  0  0
  5 13  1  0  0  0  0
  6  2  2  0  0  0  0
  7 20  1  1  0  0  0
  7 21  1  0  0  0  0
  8 24  1  0  0  0  0
  9 23  1  6  0  0  0
  9 10  1  0  0  0  0
 10  8  1  1  0  0  0
 11  2  1  1  0  0  0
 11  1  1  0  0  0  0
 11  4  1  0  0  0  0
 12  5  1  0  0  0  0
 13 19  1  6  0  0  0
 14 24  1  0  0  0  0
 15 22  2  0  0  0  0
 15 27  1  0  0  0  0
 16 14  1  0  0  0  0
 17 22  1  0  0  0  0
 18  3  1  6  0  0  0
 18  7  1  0  0  0  0
 18  2  1  0  0  0  0
 18 10  1  0  0  0  0
 20 12  1  0  0  0  0
 21 13  1  0  0  0  0
 21  4  1  0  0  0  0
 23 16  1  0  0  0  0
 26 25  1  0  0  0  0
 27 28  1  0  0  0  0
 28 31  1  0  0  0  0
 29 30  2  0  0  0  0
 29 32  1  0  0  0  0
 31 29  1  0  0  0  0
 34 28  1  0  0  0  0
 34 33  1  0  0  0  0
M  END
>  <MODEL>
2

>  <REMARK>
 VINA RESULT:      -5.3      1.545      1.942
  Name = 
  5 active torsions:
  status: ('A' for Active; 'I' for Inactive)
    1  A    between atoms: C_1  and  O_19
    2  A    between atoms: C_12  and  N_23
    3  A    between atoms: C_12  and  S_27
    4  A    between atoms: C_12  and  C_28
    5  A    between atoms: C_21  and  C_28
                            x       y       z     vdW  Elec       q    Type
                         _______ _______ _______ _____ _____    ______ ____

>  <TORSDO>
F 5

$$$$
=
 OpenBabel10252414583D

 34 38  0  0  1  0  0  0  0  0999 V2000
  181.1080  180.1080  136.3760 C   0  0  2  0  0  3  0  0  0  0  0  0
  181.9560  177.7510  135.9310 C   0  0  0  0  0  0  0  0  0  0  0  0
  182.2150  175.4390  135.2340 O   0  0  0  0  0  0  0  0  0  0  0  0
  181.0470  178.3020  138.2530 C   0  0  2  0  0  3  0  0  0  0  0  0
  180.4850  174.8450  139.9440 C   0  0  0  0  0  2  0  0  0  0  0  0
  182.4940  178.1950  134.9260 O   0  0  0  0  0  0  0  0  0  0  0  0
  181.1640  175.8720  137.3940 C   0  0  1  0  0  3  0  0  0  0  0  0
  184.6350  177.0120  136.6090 N   0  0  0  0  0  2  0  0  0  0  0  0
  183.5980  175.2370  135.4140 C   0  0  1  0  0  3  0  0  0  0  0  0
  183.6290  175.9700  136.7220 C   0  0  2  0  0  3  0  0  0  0  0  0
  180.9860  178.6030  136.7250 C   0  0  1  0  0  3  0  0  0  0  0  0
  180.2720  174.1070  138.7620 O   0  0  0  0  0  0  0  0  0  0  0  0
  180.2570  176.3410  139.7000 C   0  0  2  0  0  3  0  0  0  0  0  0
  186.5440  175.1880  135.7910 S   0  0  0  0  0  0  0  0  0  0  0  0
  182.0490  179.2000  138.9560 C   0  0  0  0  0  0  0  0  0  0  0  0
  185.4480  173.7860  136.2870 C   0  0  0  0  0  2  0  0  0  0  0  0
  181.1100  181.0220  137.6060 C   0  0  0  0  0  2  0  0  0  0  0  0
  182.1960  176.3110  136.3450 C   0  0  2  0  0  0  0  0  0  0  0  0
  178.9310  176.5620  139.3190 O   0  0  0  0  0  1  0  0  0  0  0  0
  181.3200  174.4250  137.8770 C   0  0  0  0  0  2  0  0  0  0  0  0
  181.2190  176.8080  138.6050 C   0  0  2  0  0  3  0  0  0  0  0  0
  182.0800  180.4970  138.6210 C   0  0  0  0  0  3  0  0  0  0  0  0
  184.0610  173.8060  135.6100 C   0  0  0  0  0  2  0  0  0  0  0  0
  185.8980  176.3950  137.0310 C   0  0  0  0  0  2  0  0  0  0  0  0
  180.3450  181.8070  135.1790 C   0  0  0  0  0  1  0  0  0  0  0  0
  180.0750  180.4790  135.5140 O   0  0  0  0  0  0  0  0  0  0  0  0
  183.0770  178.6530  139.9140 C   0  0  0  0  0  2  0  0  0  0  0  0
  182.8290  179.0240  141.3800 C   0  0  1  0  0  3  0  0  0  0  0  0
  180.4890  179.0280  142.3430 C   0  0  0  0  0  0  0  0  0  0  0  0
  179.4170  178.3100  142.8550 O   0  0  0  0  0  1  0  0  0  0  0  0
  181.6570  178.3350  141.9020 N   0  0  0  0  0  2  0  0  0  0  0  0
  180.4190  180.2840  142.2670 O   0  0  0  0  0  0  0  0  0  0  0  0
  185.4300  178.9300  141.0320 C   0  0  0  0  0  1  0  0  0  0  0  0
  184.2880  178.6880  142.4220 S   0  0  0  0  0  0  0  0  0  0  0  0
  1 26  1  6  0  0  0
  1 11  1  0  0  0  0
  1 17  1  0  0  0  0
  2 18  1  0  0  0  0
  3  9  1  0  0  0  0
  4 21  1  0  0  0  0
  4 15  1  6  0  0  0
  6  2  2  0  0  0  0
  7 20  1  1  0  0  0
  7 21  1  0  0  0  0
  8 24  1  0  0  0  0
  9 23  1  1  0  0  0
  9 10  1  0  0  0  0
 10  8  1  6  0  0  0
 11  2  1  6  0  0  0
 11  4  1  0  0  0  0
 12  5  1  0  0  0  0
 13 19  1  6  0  0  0
 13  5  1  0  0  0  0
 14 16  1  0  0  0  0
 14 24  1  0  0  0  0
 15 27  1  0  0  0  0
 17 22  1  0  0  0  0
 18  3  1  6  0  0  0
 18 10  1  0  0  0  0
 18  7  1  0  0  0  0
 20 12  1  0  0  0  0
 21 13  1  0  0  0  0
 22 15  2  0  0  0  0
 23 16  1  0  0  0  0
 25 26  1  0  0  0  0
 27 28  1  0  0  0  0
 28 31  1  0  0  0  0
 28 34  1  0  0  0  0
 29 30  1  0  0  0  0
 31 29  1  0  0  0  0
 32 29  2  0  0  0  0
 33 34  1  0  0  0  0
M  END
>  <MODEL>
3

>  <REMARK>
 VINA RESULT:      -5.3      2.467      4.567
  Name = 
  5 active torsions:
  status: ('A' for Active; 'I' for Inactive)
    1  A    between atoms: C_1  and  O_19
    2  A    between atoms: C_12  and  N_23
    3  A    between atoms: C_12  and  S_27
    4  A    between atoms: C_12  and  C_28
    5  A    between atoms: C_21  and  C_28
                            x       y       z     vdW  Elec       q    Type
                         _______ _______ _______ _____ _____    ______ ____

>  <TORSDO>
F 5

$$$$
=
 OpenBabel10252414583D

 34 38  0  0  1  0  0  0  0  0999 V2000
  182.5330  174.5280  137.7720 C   0  0  2  0  0  3  0  0  0  0  0  0
  180.9860  176.1120  139.0240 C   0  0  0  0  0  0  0  0  0  0  0  0
  179.0790  177.3590  139.8680 O   0  0  0  0  0  0  0  0  0  0  0  0
  182.3760  177.0380  137.0920 C   0  0  2  0  0  3  0  0  0  0  0  0
  180.7620  180.4790  136.2680 C   0  0  0  0  0  2  0  0  0  0  0  0
  180.9160  175.2620  139.9010 O   0  0  0  0  0  0  0  0  0  0  0  0
  180.2330  178.2260  137.9000 C   0  0  1  0  0  3  0  0  0  0  0  0
  181.9770  177.7290  141.1670 N   0  0  0  0  0  2  0  0  0  0  0  0
  179.6140  177.9520  141.0280 C   0  0  1  0  0  3  0  0  0  0  0  0
  180.9110  178.3030  140.3640 C   0  0  2  0  0  3  0  0  0  0  0  0
  181.6500  175.7990  137.6980 C   0  0  1  0  0  3  0  0  0  0  0  0
  179.4610  180.1720  136.7150 O   0  0  0  0  0  0  0  0  0  0  0  0
  181.5580  179.1990  135.9870 C   0  0  2  0  0  3  0  0  0  0  0  0
  181.0120  178.9430  143.4550 S   0  0  0  0  0  0  0  0  0  0  0  0
  183.8260  177.1040  137.5370 C   0  0  0  0  0  0  0  0  0  0  0  0
  179.8880  180.0050  142.4440 C   0  0  0  0  0  2  0  0  0  0  0  0
  183.8970  174.6920  137.0940 C   0  0  0  0  0  2  0  0  0  0  0  0
  180.3350  177.4680  139.2310 C   0  0  2  0  0  0  0  0  0  0  0  0
  180.9400  178.4720  134.9660 O   0  0  0  0  0  1  0  0  0  0  0  0
  179.5840  179.6120  138.0020 C   0  0  0  0  0  2  0  0  0  0  0  0
  181.6230  178.3740  137.2740 C   0  0  2  0  0  3  0  0  0  0  0  0
  184.5360  175.9690  137.5510 C   0  0  0  0  0  3  0  0  0  0  0  0
  178.9310  179.2110  141.5300 C   0  0  0  0  0  2  0  0  0  0  0  0
  182.3190  178.7490  142.1640 C   0  0  0  0  0  2  0  0  0  0  0  0
  182.8070  172.7850  136.4340 C   0  0  0  0  0  1  0  0  0  0  0  0
  181.8530  173.4460  137.2090 O   0  0  0  0  0  0  0  0  0  0  0  0
  184.4390  178.3730  138.0730 C   0  0  0  0  0  2  0  0  0  0  0  0
  185.7310  178.1590  138.8700 C   0  0  1  0  0  3  0  0  0  0  0  0
  187.8140  177.9300  137.4520 C   0  0  0  0  0  0  0  0  0  0  0  0
  188.8970  178.5350  136.8300 O   0  0  0  0  0  0  0  0  0  0  0  0
  186.8740  178.7290  138.1700 N   0  0  0  0  0  2  0  0  0  0  0  0
  187.6680  176.6810  137.3720 O   0  0  0  0  0  1  0  0  0  0  0  0
  187.3760  178.5740  140.8730 C   0  0  0  0  0  1  0  0  0  0  0  0
  185.6080  178.8370  140.5580 S   0  0  0  0  0  0  0  0  0  0  0  0
  1 26  1  6  0  0  0
  2  6  2  0  0  0  0
  3  9  1  0  0  0  0
  4 21  1  0  0  0  0
  4 15  1  1  0  0  0
  4 11  1  0  0  0  0
  5 12  1  0  0  0  0
  7 20  1  1  0  0  0
  7 18  1  0  0  0  0
  8 24  1  0  0  0  0
  9 23  1  6  0  0  0
 10  9  1  0  0  0  0
 10  8  1  1  0  0  0
 11  1  1  0  0  0  0
 11  2  1  1  0  0  0
 12 20  1  0  0  0  0
 13 19  1  6  0  0  0
 13  5  1  0  0  0  0
 13 21  1  0  0  0  0
 15 22  2  0  0  0  0
 15 27  1  0  0  0  0
 16 14  1  0  0  0  0
 17 22  1  0  0  0  0
 17  1  1  0  0  0  0
 18  2  1  6  0  0  0
 18  3  1  0  0  0  0
 18 10  1  0  0  0  0
 21  7  1  0  0  0  0
 23 16  1  0  0  0  0
 24 14  1  0  0  0  0
 25 26  1  0  0  0  0
 27 28  1  0  0  0  0
 28 34  1  0  0  0  0
 29 31  1  0  0  0  0
 30 29  2  0  0  0  0
 31 28  1  0  0  0  0
 32 29  1  0  0  0  0
 34 33  1  0  0  0  0
M  END
>  <MODEL>
4

>  <REMARK>
 VINA RESULT:      -5.0      2.609      5.613
  Name = 
  5 active torsions:
  status: ('A' for Active; 'I' for Inactive)
    1  A    between atoms: C_1  and  O_19
    2  A    between atoms: C_12  and  N_23
    3  A    between atoms: C_12  and  S_27
    4  A    between atoms: C_12  and  C_28
    5  A    between atoms: C_21  and  C_28
                            x       y       z     vdW  Elec       q    Type
                         _______ _______ _______ _____ _____    ______ ____

>  <TORSDO>
F 5

$$$$
=
 OpenBabel10252414583D

 34 38  0  0  1  0  0  0  0  0999 V2000
  181.7110  180.2310  137.5170 C   0  0  2  0  0  3  0  0  0  0  0  0
  181.3990  177.7390  137.1100 C   0  0  0  0  0  0  0  0  0  0  0  0
  180.5320  175.5360  136.5660 O   0  0  0  0  0  0  0  0  0  0  0  0
  181.3030  178.6030  139.5100 C   0  0  2  0  0  3  0  0  0  0  0  0
  179.7330  175.6900  141.5520 C   0  0  0  0  0  2  0  0  0  0  0  0
  181.8510  177.9230  135.9870 O   0  0  0  0  0  0  0  0  0  0  0  0
  180.2270  176.3550  138.8440 C   0  0  1  0  0  3  0  0  0  0  0  0
  183.6130  175.9380  137.3180 N   0  0  0  0  0  2  0  0  0  0  0  0
  181.7130  174.7720  136.4930 C   0  0  1  0  0  3  0  0  0  0  0  0
  182.3150  175.4140  137.7060 C   0  0  2  0  0  3  0  0  0  0  0  0
  181.0550  178.9140  138.0040 C   0  0  1  0  0  3  0  0  0  0  0  0
  178.9930  175.1180  140.4970 O   0  0  0  0  0  0  0  0  0  0  0  0
  180.0960  177.1450  141.2360 C   0  0  2  0  0  3  0  0  0  0  0  0
  184.3850  173.4870  136.3000 S   0  0  0  0  0  0  0  0  0  0  0  0
  182.7090  178.9930  139.9330 C   0  0  0  0  0  0  0  0  0  0  0  0
  182.9380  172.6720  137.1080 C   0  0  0  0  0  2  0  0  0  0  0  0
  182.3450  181.0500  138.6460 C   0  0  0  0  0  2  0  0  0  0  0  0
  181.1050  176.3280  137.5850 C   0  0  2  0  0  0  0  0  0  0  0  0
  178.9310  177.9050  141.1000 O   0  0  0  0  0  1  0  0  0  0  0  0
  179.8700  174.9730  139.4040 C   0  0  0  0  0  2  0  0  0  0  0  0
  180.9140  177.1730  139.9430 C   0  0  2  0  0  3  0  0  0  0  0  0
  183.2010  180.1590  139.4950 C   0  0  0  0  0  3  0  0  0  0  0  0
  181.5750  173.2770  136.7110 C   0  0  0  0  0  2  0  0  0  0  0  0
  184.5670  174.8450  137.5390 C   0  0  0  0  0  2  0  0  0  0  0  0
  180.4090  182.0070  137.7480 C   0  0  0  0  0  1  0  0  0  0  0  0
  180.7680  181.0070  136.8420 O   0  0  0  0  0  0  0  0  0  0  0  0
  183.5940  178.0580  140.7180 C   0  0  0  0  0  2  0  0  0  0  0  0
  184.5820  178.7650  141.6520 C   0  0  1  0  0  3  0  0  0  0  0  0
  183.3010  179.0050  143.8210 C   0  0  0  0  0  0  0  0  0  0  0  0
  183.1380  178.6340  145.1480 O   0  0  0  0  0  1  0  0  0  0  0  0
  184.3350  178.4040  143.0410 N   0  0  0  0  0  2  0  0  0  0  0  0
  182.5330  179.8660  143.3150 O   0  0  0  0  0  0  0  0  0  0  0  0
  186.7590  178.0030  142.9070 C   0  0  0  0  0  1  0  0  0  0  0  0
  186.3140  178.4180  141.1970 S   0  0  0  0  0  0  0  0  0  0  0  0
  1 26  1  1  0  0  0
  1 11  1  0  0  0  0
  1 17  1  0  0  0  0
  2 18  1  0  0  0  0
  4 15  1  6  0  0  0
  4 21  1  0  0  0  0
  6  2  2  0  0  0  0
  7 20  1  1  0  0  0
  7 21  1  0  0  0  0
  8 24  1  0  0  0  0
  9  3  1  0  0  0  0
  9 23  1  1  0  0  0
  9 10  1  0  0  0  0
 10  8  1  6  0  0  0
 11  2  1  6  0  0  0
 11  4  1  0  0  0  0
 12  5  1  0  0  0  0
 13 19  1  6  0  0  0
 13  5  1  0  0  0  0
 14 16  1  0  0  0  0
 14 24  1  0  0  0  0
 15 27  1  0  0  0  0
 17 22  1  0  0  0  0
 18  3  1  6  0  0  0
 18 10  1  0  0  0  0
 18  7  1  0  0  0  0
 20 12  1  0  0  0  0
 21 13  1  0  0  0  0
 22 15  2  0  0  0  0
 23 16  1  0  0  0  0
 26 25  1  0  0  0  0
 27 28  1  0  0  0  0
 28 31  1  0  0  0  0
 29 30  1  0  0  0  0
 31 29  1  0  0  0  0
 32 29  2  0  0  0  0
 34 28  1  0  0  0  0
 34 33  1  0  0  0  0
M  END
>  <MODEL>
5

>  <REMARK>
 VINA RESULT:      -4.7      2.450      4.117
  Name = 
  5 active torsions:
  status: ('A' for Active; 'I' for Inactive)
    1  A    between atoms: C_1  and  O_19
    2  A    between atoms: C_12  and  N_23
    3  A    between atoms: C_12  and  S_27
    4  A    between atoms: C_12  and  C_28
    5  A    between atoms: C_21  and  C_28
                            x       y       z     vdW  Elec       q    Type
                         _______ _______ _______ _____ _____    ______ ____

>  <TORSDO>
F 5

$$$$
=
 OpenBabel10252414583D

 34 38  0  0  1  0  0  0  0  0999 V2000
  192.9560  176.3710  137.6340 C   0  0  2  0  0  3  0  0  0  0  0  0
  190.9540  175.5410  136.3030 C   0  0  0  0  0  0  0  0  0  0  0  0
  189.2760  175.1170  134.5980 O   0  0  0  0  0  0  0  0  0  0  0  0
  190.5870  177.3740  138.0420 C   0  0  2  0  0  3  0  0  0  0  0  0
  187.0720  178.8250  137.2280 C   0  0  0  0  0  2  0  0  0  0  0  0
  191.6400  174.5820  135.9760 O   0  0  0  0  0  0  0  0  0  0  0  0
  188.9290  177.0090  136.1000 C   0  0  1  0  0  3  0  0  0  0  0  0
  189.2430  173.5050  137.3590 N   0  0  0  0  0  2  0  0  0  0  0  0
  188.6240  173.9800  135.1130 C   0  0  1  0  0  3  0  0  0  0  0  0
  188.6120  174.5060  136.5170 C   0  0  2  0  0  3  0  0  0  0  0  0
  191.5730  176.7190  137.0290 C   0  0  1  0  0  3  0  0  0  0  0  0
  187.0720  178.5180  135.8520 O   0  0  0  0  0  0  0  0  0  0  0  0
  188.5010  178.8370  137.7830 C   0  0  2  0  0  3  0  0  0  0  0  0
  187.5530  171.5320  136.4140 S   0  0  0  0  0  0  0  0  0  0  0  0
  190.7160  176.7540  139.4230 C   0  0  0  0  0  0  0  0  0  0  0  0
  186.4680  172.8070  135.6320 C   0  0  0  0  0  2  0  0  0  0  0  0
  193.1410  176.8790  139.0680 C   0  0  0  0  0  2  0  0  0  0  0  0
  189.4880  175.5920  135.9110 C   0  0  2  0  0  0  0  0  0  0  0  0
  189.2480  179.8320  137.1470 O   0  0  0  0  0  1  0  0  0  0  0  0
  187.4500  177.1670  135.7270 C   0  0  0  0  0  2  0  0  0  0  0  0
  189.1250  177.4600  137.5500 C   0  0  2  0  0  3  0  0  0  0  0  0
  191.9460  176.5050  139.8910 C   0  0  0  0  0  3  0  0  0  0  0  0
  187.2030  173.7320  134.6400 C   0  0  0  0  0  2  0  0  0  0  0  0
  188.1650  172.6060  137.7870 C   0  0  0  0  0  2  0  0  0  0  0  0
  194.6960  175.7600  136.4080 C   0  0  0  0  0  1  0  0  0  0  0  0
  193.9700  176.8790  136.8190 O   0  0  0  0  0  0  0  0  0  0  0  0
  189.5130  176.3040  140.2120 C   0  0  0  0  0  2  0  0  0  0  0  0
  189.4000  176.9380  141.6020 C   0  0  1  0  0  3  0  0  0  0  0  0
  187.3550  178.4290  141.6010 C   0  0  0  0  0  0  0  0  0  0  0  0
  186.0350  178.6300  141.9790 O   0  0  0  0  0  1  0  0  0  0  0  0
  188.0090  177.2060  141.9410 N   0  0  0  0  0  2  0  0  0  0  0  0
  187.9620  179.3250  140.9560 O   0  0  0  0  0  0  0  0  0  0  0  0
  191.2110  177.2860  143.4710 C   0  0  0  0  0  1  0  0  0  0  0  0
  190.1860  175.9070  142.8840 S   0  0  0  0  0  0  0  0  0  0  0  0
  1 26  1  6  0  0  0
  1 17  1  0  0  0  0
  3  9  1  0  0  0  0
  4 15  1  1  0  0  0
  5 13  1  0  0  0  0
  6  2  2  0  0  0  0
  7 20  1  1  0  0  0
  7 21  1  0  0  0  0
  8 24  1  0  0  0  0
  9 23  1  6  0  0  0
  9 10  1  0  0  0  0
 10  8  1  1  0  0  0
 11  2  1  1  0  0  0
 11  1  1  0  0  0  0
 11  4  1  0  0  0  0
 12  5  1  0  0  0  0
 13 19  1  6  0  0  0
 14 24  1  0  0  0  0
 15 22  2  0  0  0  0
 15 27  1  0  0  0  0
 16 14  1  0  0  0  0
 17 22  1  0  0  0  0
 18  3  1  6  0  0  0
 18  7  1  0  0  0  0
 18  2  1  0  0  0  0
 18 10  1  0  0  0  0
 20 12  1  0  0  0  0
 21 13  1  0  0  0  0
 21  4  1  0  0  0  0
 23 16  1  0  0  0  0
 25 26  1  0  0  0  0
 27 28  1  0  0  0  0
 28 31  1  0  0  0  0
 28 34  1  0  0  0  0
 29 31  1  0  0  0  0
 29 30  1  0  0  0  0
 32 29  2  0  0  0  0
 34 33  1  0  0  0  0
M  END
>  <MODEL>
6

>  <REMARK>
 VINA RESULT:      -4.7      5.664      7.513
  Name = 
  5 active torsions:
  status: ('A' for Active; 'I' for Inactive)
    1  A    between atoms: C_1  and  O_19
    2  A    between atoms: C_12  and  N_23
    3  A    between atoms: C_12  and  S_27
    4  A    between atoms: C_12  and  C_28
    5  A    between atoms: C_21  and  C_28
                            x       y       z     vdW  Elec       q    Type
                         _______ _______ _______ _____ _____    ______ ____

>  <TORSDO>
F 5

$$$$
=
 OpenBabel10252414583D

 34 38  0  0  1  0  0  0  0  0999 V2000
  192.8250  176.3940  137.7940 C   0  0  2  0  0  3  0  0  0  0  0  0
  190.8820  175.5390  136.3930 C   0  0  0  0  0  0  0  0  0  0  0  0
  189.2690  175.0990  134.6310 O   0  0  0  0  0  0  0  0  0  0  0  0
  190.4250  177.3490  138.1340 C   0  0  2  0  0  3  0  0  0  0  0  0
  186.9120  178.7430  137.2190 C   0  0  0  0  0  2  0  0  0  0  0  0
  191.5960  174.5960  136.0800 O   0  0  0  0  0  0  0  0  0  0  0  0
  188.8380  176.9710  136.1360 C   0  0  1  0  0  3  0  0  0  0  0  0
  189.1770  173.4620  137.3750 N   0  0  0  0  0  2  0  0  0  0  0  0
  188.6210  173.9460  135.1150 C   0  0  1  0  0  3  0  0  0  0  0  0
  188.5550  174.4590  136.5220 C   0  0  2  0  0  3  0  0  0  0  0  0
  191.4560  176.7220  137.1480 C   0  0  1  0  0  3  0  0  0  0  0  0
  186.9620  178.4470  135.8410 O   0  0  0  0  0  0  0  0  0  0  0  0
  188.3210  178.7760  137.8200 C   0  0  2  0  0  3  0  0  0  0  0  0
  187.5550  171.4670  136.3600 S   0  0  0  0  0  0  0  0  0  0  0  0
  190.5220  176.7190  139.5130 C   0  0  0  0  0  0  0  0  0  0  0  0
  186.4720  172.7290  135.5540 C   0  0  0  0  0  2  0  0  0  0  0  0
  192.9540  176.8930  139.2380 C   0  0  0  0  0  2  0  0  0  0  0  0
  189.4300  175.5660  135.9540 C   0  0  2  0  0  0  0  0  0  0  0  0
  189.0700  179.7900  137.2160 O   0  0  0  0  0  1  0  0  0  0  0  0
  187.3680  177.1050  135.7170 C   0  0  0  0  0  2  0  0  0  0  0  0
  188.9790  177.4130  137.5960 C   0  0  2  0  0  3  0  0  0  0  0  0
  191.7400  176.4890  140.0190 C   0  0  0  0  0  3  0  0  0  0  0  0
  187.2220  173.6760  134.5940 C   0  0  0  0  0  2  0  0  0  0  0  0
  188.1030  172.5400  137.7600 C   0  0  0  0  0  2  0  0  0  0  0  0
  194.5670  175.8200  136.5540 C   0  0  0  0  0  1  0  0  0  0  0  0
  193.8540  176.9280  137.0170 O   0  0  0  0  0  0  0  0  0  0  0  0
  189.3020  176.2400  140.2590 C   0  0  0  0  0  2  0  0  0  0  0  0
  189.0580  176.9570  141.5910 C   0  0  1  0  0  3  0  0  0  0  0  0
  190.2680  176.8410  143.8100 C   0  0  0  0  0  0  0  0  0  0  0  0
  191.4620  176.9170  144.5150 O   0  0  0  0  0  1  0  0  0  0  0  0
  190.2740  176.9970  142.3910 N   0  0  0  0  0  2  0  0  0  0  0  0
  189.1910  176.6310  144.4290 O   0  0  0  0  0  0  0  0  0  0  0  0
  186.8300  178.2220  142.1660 C   0  0  0  0  0  1  0  0  0  0  0  0
  188.3950  178.6380  141.3470 S   0  0  0  0  0  0  0  0  0  0  0  0
  1 26  1  6  0  0  0
  1 17  1  0  0  0  0
  3  9  1  0  0  0  0
  4 15  1  1  0  0  0
  5 13  1  0  0  0  0
  6  2  2  0  0  0  0
  7 20  1  1  0  0  0
  7 21  1  0  0  0  0
  8 24  1  0  0  0  0
  9 23  1  6  0  0  0
  9 10  1  0  0  0  0
 10  8  1  1  0  0  0
 11  2  1  1  0  0  0
 11  1  1  0  0  0  0
 11  4  1  0  0  0  0
 12  5  1  0  0  0  0
 13 19  1  6  0  0  0
 14 24  1  0  0  0  0
 15 22  2  0  0  0  0
 15 27  1  0  0  0  0
 16 14  1  0  0  0  0
 17 22  1  0  0  0  0
 18  3  1  6  0  0  0
 18  7  1  0  0  0  0
 18  2  1  0  0  0  0
 18 10  1  0  0  0  0
 20 12  1  0  0  0  0
 21 13  1  0  0  0  0
 21  4  1  0  0  0  0
 23 16  1  0  0  0  0
 25 26  1  0  0  0  0
 27 28  1  0  0  0  0
 28 31  1  0  0  0  0
 29 32  2  0  0  0  0
 29 30  1  0  0  0  0
 31 29  1  0  0  0  0
 34 28  1  0  0  0  0
 34 33  1  0  0  0  0
M  END
>  <MODEL>
7

>  <REMARK>
 VINA RESULT:      -4.3      5.925      7.765
  Name = 
  5 active torsions:
  status: ('A' for Active; 'I' for Inactive)
    1  A    between atoms: C_1  and  O_19
    2  A    between atoms: C_12  and  N_23
    3  A    between atoms: C_12  and  S_27
    4  A    between atoms: C_12  and  C_28
    5  A    between atoms: C_21  and  C_28
                            x       y       z     vdW  Elec       q    Type
                         _______ _______ _______ _____ _____    ______ ____

>  <TORSDO>
F 5

$$$$
=
 OpenBabel10252414583D

 34 38  0  0  1  0  0  0  0  0999 V2000
  181.1410  180.4230  137.0500 C   0  0  2  0  0  3  0  0  0  0  0  0
  181.2830  178.0370  136.1790 C   0  0  0  0  0  0  0  0  0  0  0  0
  180.8210  175.8510  135.2250 O   0  0  0  0  0  0  0  0  0  0  0  0
  181.0980  178.4070  138.6990 C   0  0  2  0  0  3  0  0  0  0  0  0
  180.1520  174.9240  140.1460 C   0  0  0  0  0  2  0  0  0  0  0  0
  181.6610  178.5080  135.1140 O   0  0  0  0  0  0  0  0  0  0  0  0
  180.4370  176.1610  137.6150 C   0  0  1  0  0  3  0  0  0  0  0  0
  183.7960  176.6740  136.0600 N   0  0  0  0  0  2  0  0  0  0  0  0
  182.1210  175.3480  135.0170 C   0  0  1  0  0  3  0  0  0  0  0  0
  182.6290  175.8540  136.3340 C   0  0  2  0  0  3  0  0  0  0  0  0
  180.7540  178.9400  137.2760 C   0  0  1  0  0  3  0  0  0  0  0  0
  179.5010  174.4300  138.9970 O   0  0  0  0  0  0  0  0  0  0  0  0
  180.2310  176.4540  140.1110 C   0  0  2  0  0  3  0  0  0  0  0  0
  184.9770  174.6430  134.6040 S   0  0  0  0  0  0  0  0  0  0  0  0
  182.4190  178.9670  139.1970 C   0  0  0  0  0  0  0  0  0  0  0  0
  183.7290  173.4360  135.2350 C   0  0  0  0  0  2  0  0  0  0  0  0
  181.6460  181.1230  138.3160 C   0  0  0  0  0  2  0  0  0  0  0  0
  181.2680  176.5330  136.3790 C   0  0  2  0  0  0  0  0  0  0  0  0
  178.9430  176.9960  140.1130 O   0  0  0  0  0  1  0  0  0  0  0  0
  180.3570  174.6570  137.9030 C   0  0  0  0  0  2  0  0  0  0  0  0
  180.9920  176.8740  138.8520 C   0  0  2  0  0  3  0  0  0  0  0  0
  182.6750  180.2650  138.9880 C   0  0  0  0  0  3  0  0  0  0  0  0
  182.2680  173.8390  134.9500 C   0  0  0  0  0  2  0  0  0  0  0  0
  184.9410  175.7570  136.0780 C   0  0  0  0  0  2  0  0  0  0  0  0
  180.5830  181.8950  135.4920 C   0  0  0  0  0  1  0  0  0  0  0  0
  180.0520  181.1220  136.5260 O   0  0  0  0  0  0  0  0  0  0  0  0
  183.4840  178.0840  139.7970 C   0  0  0  0  0  2  0  0  0  0  0  0
  183.4260  177.9800  141.3250 C   0  0  1  0  0  3  0  0  0  0  0  0
  185.8350  178.7320  141.1410 C   0  0  0  0  0  0  0  0  0  0  0  0
  187.0370  179.0240  141.7710 O   0  0  0  0  0  1  0  0  0  0  0  0
  184.7090  178.3280  141.9200 N   0  0  0  0  0  2  0  0  0  0  0  0
  185.7480  178.8320  139.8880 O   0  0  0  0  0  0  0  0  0  0  0  0
  182.8670  179.0260  143.6670 C   0  0  0  0  0  1  0  0  0  0  0  0
  182.0930  179.0080  142.0260 S   0  0  0  0  0  0  0  0  0  0  0  0
  1 26  1  1  0  0  0
  1 11  1  0  0  0  0
  1 17  1  0  0  0  0
  2 18  1  0  0  0  0
  4 21  1  0  0  0  0
  4 15  1  6  0  0  0
  6  2  2  0  0  0  0
  7 20  1  1  0  0  0
  7 21  1  0  0  0  0
  8 24  1  0  0  0  0
  9 23  1  1  0  0  0
  9  3  1  0  0  0  0
  9 10  1  0  0  0  0
 10  8  1  6  0  0  0
 10 18  1  0  0  0  0
 11  2  1  6  0  0  0
 11  4  1  0  0  0  0
 12  5  1  0  0  0  0
 13 19  1  6  0  0  0
 13  5  1  0  0  0  0
 14 16  1  0  0  0  0
 14 24  1  0  0  0  0
 15 27  1  0  0  0  0
 17 22  1  0  0  0  0
 18  3  1  6  0  0  0
 18  7  1  0  0  0  0
 20 12  1  0  0  0  0
 21 13  1  0  0  0  0
 22 15  2  0  0  0  0
 23 16  1  0  0  0  0
 25 26  1  0  0  0  0
 27 28  1  0  0  0  0
 28 31  1  0  0  0  0
 28 34  1  0  0  0  0
 29 30  1  0  0  0  0
 29 31  1  0  0  0  0
 32 29  2  0  0  0  0
 34 33  1  0  0  0  0
M  END
>  <MODEL>
8

>  <REMARK>
 VINA RESULT:      -4.1      2.484      4.810
  Name = 
  5 active torsions:
  status: ('A' for Active; 'I' for Inactive)
    1  A    between atoms: C_1  and  O_19
    2  A    between atoms: C_12  and  N_23
    3  A    between atoms: C_12  and  S_27
    4  A    between atoms: C_12  and  C_28
    5  A    between atoms: C_21  and  C_28
                            x       y       z     vdW  Elec       q    Type
                         _______ _______ _______ _____ _____    ______ ____

>  <TORSDO>
F 5

$$$$
=
 OpenBabel10252414583D

 34 38  0  0  1  0  0  0  0  0999 V2000
  184.6550  177.9180  138.5280 C   0  0  2  0  0  3  0  0  0  0  0  0
  183.3150  176.4490  136.9420 C   0  0  0  0  0  0  0  0  0  0  0  0
  182.3570  175.3510  134.9980 O   0  0  0  0  0  0  0  0  0  0  0  0
  182.1880  178.5110  137.9410 C   0  0  2  0  0  3  0  0  0  0  0  0
  179.0030  179.0490  135.7750 C   0  0  0  0  0  2  0  0  0  0  0  0
  184.1740  175.5920  137.0990 O   0  0  0  0  0  0  0  0  0  0  0  0
  181.3210  177.4220  135.7690 C   0  0  1  0  0  3  0  0  0  0  0  0
  181.5910  174.4020  137.9540 N   0  0  0  0  0  2  0  0  0  0  0  0
  181.7030  174.2490  135.5840 C   0  0  1  0  0  3  0  0  0  0  0  0
  181.1670  175.0560  136.7280 C   0  0  2  0  0  3  0  0  0  0  0  0
  183.5210  177.8540  137.4750 C   0  0  1  0  0  3  0  0  0  0  0  0
  179.4940  178.4550  134.5940 O   0  0  0  0  0  0  0  0  0  0  0  0
  180.1560  179.4550  136.7000 C   0  0  2  0  0  3  0  0  0  0  0  0
  180.5430  171.9850  137.1180 S   0  0  0  0  0  0  0  0  0  0  0  0
  181.9210  178.2430  139.4110 C   0  0  0  0  0  0  0  0  0  0  0  0
  179.6430  172.8260  135.7420 C   0  0  0  0  0  2  0  0  0  0  0  0
  184.2960  178.7510  139.7630 C   0  0  0  0  0  2  0  0  0  0  0  0
  182.0670  176.1320  136.1390 C   0  0  2  0  0  0  0  0  0  0  0  0
  180.9550  180.4130  136.0690 O   0  0  0  0  0  1  0  0  0  0  0  0
  180.0410  177.2080  134.9510 C   0  0  0  0  0  2  0  0  0  0  0  0
  180.9730  178.2070  137.0380 C   0  0  2  0  0  3  0  0  0  0  0  0
  182.9450  178.3430  140.2690 C   0  0  0  0  0  3  0  0  0  0  0  0
  180.5570  173.6370  134.7990 C   0  0  0  0  0  2  0  0  0  0  0  0
  180.5400  173.4290  138.2710 C   0  0  0  0  0  2  0  0  0  0  0  0
  186.8620  177.9110  138.7150 C   0  0  0  0  0  1  0  0  0  0  0  0
  185.8180  178.4210  137.9410 O   0  0  0  0  0  0  0  0  0  0  0  0
  180.5820  177.7540  139.9030 C   0  0  0  0  0  2  0  0  0  0  0  0
  179.6230  178.8700  140.3300 C   0  0  1  0  0  3  0  0  0  0  0  0
  179.8040  178.6840  142.8470 C   0  0  0  0  0  0  0  0  0  0  0  0
  179.2010  178.3770  144.0590 O   0  0  0  0  0  1  0  0  0  0  0  0
  179.0490  178.5900  141.6390 N   0  0  0  0  0  2  0  0  0  0  0  0
  181.0100  179.0470  142.8260 O   0  0  0  0  0  0  0  0  0  0  0  0
  178.9310  181.3300  139.7290 C   0  0  0  0  0  1  0  0  0  0  0  0
  180.4340  180.5030  140.3200 S   0  0  0  0  0  0  0  0  0  0  0  0
  1 26  1  6  0  0  0
  1 17  1  0  0  0  0
  2  6  2  0  0  0  0
  3  9  1  0  0  0  0
  4 15  1  1  0  0  0
  5 13  1  0  0  0  0
  7 20  1  1  0  0  0
  7 18  1  0  0  0  0
  7 21  1  0  0  0  0
  8 24  1  0  0  0  0
  9 23  1  6  0  0  0
  9 10  1  0  0  0  0
 10  8  1  1  0  0  0
 11  2  1  1  0  0  0
 11  4  1  0  0  0  0
 11  1  1  0  0  0  0
 12 20  1  0  0  0  0
 12  5  1  0  0  0  0
 13 19  1  6  0  0  0
 13 21  1  0  0  0  0
 14 24  1  0  0  0  0
 15 27  1  0  0  0  0
 15 22  2  0  0  0  0
 16 14  1  0  0  0  0
 17 22  1  0  0  0  0
 18  3  1  6  0  0  0
 18 10  1  0  0  0  0
 18  2  1  0  0  0  0
 21  4  1  0  0  0  0
 23 16  1  0  0  0  0
 26 25  1  0  0  0  0
 27 28  1  0  0  0  0
 28 31  1  0  0  0  0
 29 30  1  0  0  0  0
 31 29  1  0  0  0  0
 32 29  2  0  0  0  0
 33 34  1  0  0  0  0
 34 28  1  0  0  0  0
M  END
>  <MODEL>
9

>  <REMARK>
 VINA RESULT:      -3.9      2.088      2.863
  Name = 
  5 active torsions:
  status: ('A' for Active; 'I' for Inactive)
    1  A    between atoms: C_1  and  O_19
    2  A    between atoms: C_12  and  N_23
    3  A    between atoms: C_12  and  S_27
    4  A    between atoms: C_12  and  C_28
    5  A    between atoms: C_21  and  C_28
                            x       y       z     vdW  Elec       q    Type
                         _______ _______ _______ _____ _____    ______ ____

>  <TORSDO>
F 5

$$$$
