=
 OpenBabel10262420093D

 27 30  0  0  1  0  0  0  0  0999 V2000
  189.3800  176.6390  140.5650 N   0  0  0  0  0  0  0  0  0  0  0  0
  187.6900  177.9270  141.8300 C   0  0  0  0  0  0  0  0  0  0  0  0
  187.5180  178.7120  139.4770 O   0  0  0  0  0  0  0  0  0  0  0  0
  187.0820  177.7980  143.0420 N   0  0  0  0  0  0  0  0  0  0  0  0
  188.5340  178.7030  136.6740 C   0  0  0  0  0  2  0  0  0  0  0  0
  189.1310  177.4090  136.1590 C   0  0  0  0  0  2  0  0  0  0  0  0
  185.6020  178.8710  140.9610 C   0  0  0  0  0  0  0  0  0  0  0  0
  189.0420  177.4230  141.6850 N   0  0  0  0  0  0  0  0  0  0  0  0
  185.0450  178.7270  142.2390 C   0  0  0  0  0  0  0  0  0  0  0  0
  189.2840  177.0950  139.3590 C   0  0  0  0  0  0  0  0  0  0  0  0
  186.9520  178.4910  140.7440 C   0  0  0  0  0  0  0  0  0  0  0  0
  189.3140  179.1990  137.8780 C   0  0  0  0  0  2  0  0  0  0  0  0
  185.8030  178.1820  143.2680 C   0  0  0  0  0  3  0  0  0  0  0  0
  188.6940  176.2460  137.0270 C   0  0  0  0  0  2  0  0  0  0  0  0
  189.4590  176.1890  138.2650 N   0  0  0  0  0  2  0  0  0  0  0  0
  188.8900  178.5290  139.1820 C   0  0  1  0  0  3  0  0  0  0  0  0
  191.8080  177.4840  144.8810 C   0  0  0  0  0  3  0  0  0  0  0  0
  189.9680  177.4620  142.7910 C   0  0  0  0  0  0  0  0  0  0  0  0
  190.5130  178.6750  143.2400 C   0  0  0  0  0  3  0  0  0  0  0  0
  191.4320  178.6890  144.2890 C   0  0  0  0  0  3  0  0  0  0  0  0
  191.2850  176.3110  144.4320 N   0  0  0  0  0  0  0  0  0  0  0  0
  190.3880  176.2770  143.4090 C   0  0  0  0  0  3  0  0  0  0  0  0
  184.7770  179.4050  139.9530 O   0  0  0  0  0  0  0  0  0  0  0  0
  184.1590  178.6570  138.9150 C   0  0  0  0  0  1  0  0  0  0  0  0
  183.6290  179.1080  142.5130 C   0  0  0  0  0  2  0  0  0  0  0  0
  181.8860  178.8800  143.8450 C   0  0  0  0  0  1  0  0  0  0  0  0
  183.2650  178.6890  143.7930 O   0  0  0  0  0  0  0  0  0  0  0  0
  1  8  1  0  0  0  0
  2  4  1  0  0  0  0
  3 11  1  0  0  0  0
  4 13  2  0  0  0  0
  5 12  1  0  0  0  0
  6  5  1  0  0  0  0
  6 14  1  0  0  0  0
  7  9  2  0  0  0  0
  8  2  1  0  0  0  0
  8 18  1  0  0  0  0
  9 25  1  0  0  0  0
  9 13  1  0  0  0  0
 10  1  2  0  0  0  0
 11  7  1  0  0  0  0
 11  2  2  0  0  0  0
 14 15  1  0  0  0  0
 15 10  1  0  0  0  0
 16 12  1  6  0  0  0
 16 10  1  0  0  0  0
 16  3  1  0  0  0  0
 18 19  2  0  0  0  0
 18 22  1  0  0  0  0
 19 20  1  0  0  0  0
 20 17  2  0  0  0  0
 21 17  1  0  0  0  0
 22 21  2  0  0  0  0
 23  7  1  0  0  0  0
 24 23  1  0  0  0  0
 25 27  1  0  0  0  0
 27 26  1  0  0  0  0
M  END
>  <MODEL>
1

>  <REMARK>
 VINA RESULT:      -7.5      0.000      0.000
  Name = 
  4 active torsions:
  status: ('A' for Active; 'I' for Inactive)
    1  A    between atoms: C_4  and  O_16
    2  A    between atoms: C_4  and  C_17
    3  A    between atoms: O_8  and  C_14
    4  A    between atoms: C_9  and  N_15
                            x       y       z     vdW  Elec       q    Type
                         _______ _______ _______ _____ _____    ______ ____

>  <TORSDO>
F 4

$$$$
=
 OpenBabel10262420093D

 27 30  0  0  1  0  0  0  0  0999 V2000
  189.7390  178.4870  141.0380 N   0  0  0  0  0  0  0  0  0  0  0  0
  187.2770  178.2590  141.1070 C   0  0  0  0  0  0  0  0  0  0  0  0
  188.1130  177.2110  143.2010 O   0  0  0  0  0  0  0  0  0  0  0  0
  186.2330  178.8400  140.4550 N   0  0  0  0  0  0  0  0  0  0  0  0
  190.3880  176.3020  144.9010 C   0  0  0  0  0  2  0  0  0  0  0  0
  191.6620  177.1200  144.8460 C   0  0  0  0  0  2  0  0  0  0  0  0
  185.8640  178.1240  143.1050 C   0  0  0  0  0  0  0  0  0  0  0  0
  188.5360  178.1240  140.4000 N   0  0  0  0  0  0  0  0  0  0  0  0
  184.8260  178.7090  142.3680 C   0  0  0  0  0  0  0  0  0  0  0  0
  190.1370  177.9050  142.1210 C   0  0  0  0  0  0  0  0  0  0  0  0
  187.1080  177.8670  142.4710 C   0  0  0  0  0  0  0  0  0  0  0  0
  190.0580  175.7510  143.5260 C   0  0  0  0  0  2  0  0  0  0  0  0
  185.0330  179.0650  141.0410 C   0  0  0  0  0  3  0  0  0  0  0  0
  191.3810  178.4940  144.2700 C   0  0  0  0  0  2  0  0  0  0  0  0
  191.2630  178.4480  142.8190 N   0  0  0  0  0  2  0  0  0  0  0  0
  189.3290  176.7550  142.6390 C   0  0  1  0  0  3  0  0  0  0  0  0
  188.5320  177.4570  136.2260 C   0  0  0  0  0  3  0  0  0  0  0  0
  188.5640  177.9030  138.9750 C   0  0  0  0  0  0  0  0  0  0  0  0
  188.9700  178.9140  138.0900 C   0  0  0  0  0  3  0  0  0  0  0  0
  188.9590  178.6920  136.7130 C   0  0  0  0  0  3  0  0  0  0  0  0
  188.1290  176.4860  137.0890 N   0  0  0  0  0  0  0  0  0  0  0  0
  188.1310  176.6840  138.4350 C   0  0  0  0  0  3  0  0  0  0  0  0
  185.6040  177.8090  144.4510 O   0  0  0  0  0  0  0  0  0  0  0  0
  186.0120  178.5830  145.5710 C   0  0  0  0  0  1  0  0  0  0  0  0
  183.5040  179.0030  142.9940 C   0  0  0  0  0  2  0  0  0  0  0  0
  181.3150  179.1010  142.7490 C   0  0  0  0  0  1  0  0  0  0  0  0
  182.4790  178.6940  142.1000 O   0  0  0  0  0  0  0  0  0  0  0  0
  1 10  2  0  0  0  0
  2 11  1  0  0  0  0
  4 13  1  0  0  0  0
  4  2  2  0  0  0  0
  6  5  1  0  0  0  0
  7 23  1  0  0  0  0
  8  1  1  0  0  0  0
  8  2  1  0  0  0  0
  9 25  1  0  0  0  0
  9  7  1  0  0  0  0
 10 16  1  0  0  0  0
 10 15  1  0  0  0  0
 11  7  2  0  0  0  0
 11  3  1  0  0  0  0
 12  5  1  0  0  0  0
 13  9  2  0  0  0  0
 14  6  1  0  0  0  0
 15 14  1  0  0  0  0
 16  3  1  0  0  0  0
 16 12  1  1  0  0  0
 17 20  2  0  0  0  0
 17 21  1  0  0  0  0
 18  8  1  0  0  0  0
 19 18  2  0  0  0  0
 20 19  1  0  0  0  0
 21 22  2  0  0  0  0
 22 18  1  0  0  0  0
 23 24  1  0  0  0  0
 27 26  1  0  0  0  0
 27 25  1  0  0  0  0
M  END
>  <MODEL>
2

>  <REMARK>
 VINA RESULT:      -6.7      1.621      5.212
  Name = 
  4 active torsions:
  status: ('A' for Active; 'I' for Inactive)
    1  A    between atoms: C_4  and  O_16
    2  A    between atoms: C_4  and  C_17
    3  A    between atoms: O_8  and  C_14
    4  A    between atoms: C_9  and  N_15
                            x       y       z     vdW  Elec       q    Type
                         _______ _______ _______ _____ _____    ______ ____

>  <TORSDO>
F 4

$$$$
=
 OpenBabel10262420093D

 27 30  0  0  1  0  0  0  0  0999 V2000
  191.7160  177.5660  140.5910 N   0  0  0  0  0  0  0  0  0  0  0  0
  189.8330  177.3410  139.0030 C   0  0  0  0  0  0  0  0  0  0  0  0
  188.8280  177.1890  141.2720 O   0  0  0  0  0  0  0  0  0  0  0  0
  189.6440  177.6110  137.6820 N   0  0  0  0  0  0  0  0  0  0  0  0
  189.1520  177.0380  144.2320 C   0  0  0  0  0  2  0  0  0  0  0  0
  190.3160  177.7940  144.8400 C   0  0  0  0  0  2  0  0  0  0  0  0
  187.4940  177.9580  139.3940 C   0  0  0  0  0  0  0  0  0  0  0  0
  191.1640  176.9670  139.4410 N   0  0  0  0  0  0  0  0  0  0  0  0
  187.3640  178.1990  138.0190 C   0  0  0  0  0  0  0  0  0  0  0  0
  191.1620  177.4500  141.7520 C   0  0  0  0  0  0  0  0  0  0  0  0
  188.7360  177.4990  139.9040 C   0  0  0  0  0  0  0  0  0  0  0  0
  189.6560  175.9970  143.2500 C   0  0  0  0  0  2  0  0  0  0  0  0
  188.4560  178.0230  137.1780 C   0  0  0  0  0  3  0  0  0  0  0  0
  190.8310  178.8370  143.8680 C   0  0  0  0  0  2  0  0  0  0  0  0
  191.6650  178.2370  142.8370 N   0  0  0  0  0  2  0  0  0  0  0  0
  189.9530  176.5730  141.8680 C   0  0  1  0  0  3  0  0  0  0  0  0
  193.7990  174.7650  136.9760 C   0  0  0  0  0  3  0  0  0  0  0  0
  192.0430  176.2170  138.5780 C   0  0  0  0  0  0  0  0  0  0  0  0
  191.6270  175.0180  137.9800 C   0  0  0  0  0  3  0  0  0  0  0  0
  192.5020  174.2900  137.1740 C   0  0  0  0  0  3  0  0  0  0  0  0
  194.1990  175.9220  137.5680 N   0  0  0  0  0  0  0  0  0  0  0  0
  193.3600  176.6450  138.3580 C   0  0  0  0  0  3  0  0  0  0  0  0
  186.3610  178.1780  140.1990 O   0  0  0  0  0  0  0  0  0  0  0  0
  186.3220  179.0020  141.3550 C   0  0  0  0  0  1  0  0  0  0  0  0
  186.0800  178.6880  137.4380 C   0  0  0  0  0  2  0  0  0  0  0  0
  184.2240  177.4990  137.4980 C   0  0  0  0  0  1  0  0  0  0  0  0
  185.4200  177.6390  136.7990 O   0  0  0  0  0  0  0  0  0  0  0  0
  1 10  2  0  0  0  0
  2  8  1  0  0  0  0
  2 11  1  0  0  0  0
  3 16  1  0  0  0  0
  4  2  2  0  0  0  0
  5  6  1  0  0  0  0
  7 11  2  0  0  0  0
  7 23  1  0  0  0  0
  8  1  1  0  0  0  0
  9  7  1  0  0  0  0
 10 16  1  0  0  0  0
 10 15  1  0  0  0  0
 11  3  1  0  0  0  0
 12  5  1  0  0  0  0
 13  4  1  0  0  0  0
 13  9  2  0  0  0  0
 14  6  1  0  0  0  0
 15 14  1  0  0  0  0
 16 12  1  1  0  0  0
 17 20  2  0  0  0  0
 17 21  1  0  0  0  0
 18  8  1  0  0  0  0
 19 18  2  0  0  0  0
 20 19  1  0  0  0  0
 21 22  2  0  0  0  0
 22 18  1  0  0  0  0
 23 24  1  0  0  0  0
 25  9  1  0  0  0  0
 27 25  1  0  0  0  0
 27 26  1  0  0  0  0
M  END
>  <MODEL>
3

>  <REMARK>
 VINA RESULT:      -6.4      2.563      5.732
  Name = 
  4 active torsions:
  status: ('A' for Active; 'I' for Inactive)
    1  A    between atoms: C_4  and  O_16
    2  A    between atoms: C_4  and  C_17
    3  A    between atoms: O_8  and  C_14
    4  A    between atoms: C_9  and  N_15
                            x       y       z     vdW  Elec       q    Type
                         _______ _______ _______ _____ _____    ______ ____

>  <TORSDO>
F 4

$$$$
=
 OpenBabel10262420093D

 27 30  0  0  1  0  0  0  0  0999 V2000
  189.2230  175.4390  137.6850 N   0  0  0  0  0  0  0  0  0  0  0  0
  190.0660  176.6270  139.6840 C   0  0  0  0  0  0  0  0  0  0  0  0
  188.0740  177.9060  138.9240 O   0  0  0  0  0  0  0  0  0  0  0  0
  190.9070  176.3200  140.7090 N   0  0  0  0  0  0  0  0  0  0  0  0
  185.9120  178.3650  136.9220 C   0  0  0  0  0  2  0  0  0  0  0  0
  185.3500  177.1460  136.2190 C   0  0  0  0  0  2  0  0  0  0  0  0
  188.7590  177.9810  141.2530 C   0  0  0  0  0  0  0  0  0  0  0  0
  190.3010  176.0040  138.3950 N   0  0  0  0  0  0  0  0  0  0  0  0
  189.6750  177.6400  142.2570 C   0  0  0  0  0  0  0  0  0  0  0  0
  188.2130  176.1470  137.3020 C   0  0  0  0  0  0  0  0  0  0  0  0
  188.9580  177.4940  139.9350 C   0  0  0  0  0  0  0  0  0  0  0  0
  187.3970  178.4960  136.6400 C   0  0  0  0  0  2  0  0  0  0  0  0
  190.7430  176.8020  141.9640 C   0  0  0  0  0  3  0  0  0  0  0  0
  185.6940  175.8880  136.9920 C   0  0  0  0  0  2  0  0  0  0  0  0
  187.0710  175.4790  136.7560 N   0  0  0  0  0  2  0  0  0  0  0  0
  188.2570  177.6240  137.5500 C   0  0  1  0  0  3  0  0  0  0  0  0
  194.2550  175.1280  137.1880 C   0  0  0  0  0  3  0  0  0  0  0  0
  191.6400  175.6950  137.9570 C   0  0  0  0  0  0  0  0  0  0  0  0
  191.9970  174.3930  137.5730 C   0  0  0  0  0  3  0  0  0  0  0  0
  193.3050  174.1070  137.1830 C   0  0  0  0  0  3  0  0  0  0  0  0
  193.9050  176.3840  137.5720 N   0  0  0  0  0  0  0  0  0  0  0  0
  192.6340  176.6830  137.9560 C   0  0  0  0  0  3  0  0  0  0  0  0
  187.6830  178.8130  141.6150 O   0  0  0  0  0  0  0  0  0  0  0  0
  186.3600  178.3730  141.8930 C   0  0  0  0  0  1  0  0  0  0  0  0
  189.5030  178.1250  143.6570 C   0  0  0  0  0  2  0  0  0  0  0  0
  187.9990  177.4990  145.1440 C   0  0  0  0  0  1  0  0  0  0  0  0
  189.1450  177.0610  144.4850 O   0  0  0  0  0  0  0  0  0  0  0  0
  1  8  1  0  0  0  0
  2 11  2  0  0  0  0
  2  4  1  0  0  0  0
  3 11  1  0  0  0  0
  4 13  2  0  0  0  0
  6  5  1  0  0  0  0
  6 14  1  0  0  0  0
  7 23  1  0  0  0  0
  7  9  2  0  0  0  0
  8  2  1  0  0  0  0
  9 25  1  0  0  0  0
 10 16  1  0  0  0  0
 10  1  2  0  0  0  0
 11  7  1  0  0  0  0
 12  5  1  0  0  0  0
 13  9  1  0  0  0  0
 15 14  1  0  0  0  0
 15 10  1  0  0  0  0
 16 12  1  6  0  0  0
 16  3  1  0  0  0  0
 17 21  1  0  0  0  0
 18  8  1  0  0  0  0
 19 18  2  0  0  0  0
 20 17  2  0  0  0  0
 20 19  1  0  0  0  0
 21 22  2  0  0  0  0
 22 18  1  0  0  0  0
 23 24  1  0  0  0  0
 25 27  1  0  0  0  0
 27 26  1  0  0  0  0
M  END
>  <MODEL>
4

>  <REMARK>
 VINA RESULT:      -6.4      2.807      4.865
  Name = 
  4 active torsions:
  status: ('A' for Active; 'I' for Inactive)
    1  A    between atoms: C_4  and  O_16
    2  A    between atoms: C_4  and  C_17
    3  A    between atoms: O_8  and  C_14
    4  A    between atoms: C_9  and  N_15
                            x       y       z     vdW  Elec       q    Type
                         _______ _______ _______ _____ _____    ______ ____

>  <TORSDO>
F 4

$$$$
=
 OpenBabel10262420093D

 27 30  0  0  1  0  0  0  0  0999 V2000
  187.2640  176.9370  143.1620 N   0  0  0  0  0  0  0  0  0  0  0  0
  186.7280  178.1370  141.0660 C   0  0  0  0  0  0  0  0  0  0  0  0
  189.1980  178.2790  141.3160 O   0  0  0  0  0  0  0  0  0  0  0  0
  185.6570  178.1880  140.2270 N   0  0  0  0  0  0  0  0  0  0  0  0
  191.6600  177.7900  142.9260 C   0  0  0  0  0  2  0  0  0  0  0  0
  191.6810  176.5530  143.8000 C   0  0  0  0  0  2  0  0  0  0  0  0
  188.1830  178.4140  139.1140 C   0  0  0  0  0  0  0  0  0  0  0  0
  186.4840  177.8880  142.4740 N   0  0  0  0  0  0  0  0  0  0  0  0
  187.0360  178.4770  138.3120 C   0  0  0  0  0  0  0  0  0  0  0  0
  188.5450  177.0600  143.2740 C   0  0  0  0  0  0  0  0  0  0  0  0
  188.0420  178.2650  140.5180 C   0  0  0  0  0  0  0  0  0  0  0  0
  190.5220  178.7060  143.3380 C   0  0  0  0  0  2  0  0  0  0  0  0
  185.7790  178.3580  138.8890 C   0  0  0  0  0  3  0  0  0  0  0  0
  190.6170  175.5720  143.3490 C   0  0  0  0  0  2  0  0  0  0  0  0
  189.2960  175.9690  143.8170 N   0  0  0  0  0  2  0  0  0  0  0  0
  189.1810  178.3030  142.7310 C   0  0  1  0  0  3  0  0  0  0  0  0
  182.9300  179.2430  144.3180 C   0  0  0  0  0  3  0  0  0  0  0  0
  185.2860  178.3740  143.1140 C   0  0  0  0  0  0  0  0  0  0  0  0
  185.2440  178.6080  144.4970 C   0  0  0  0  0  3  0  0  0  0  0  0
  184.0660  179.0480  145.1020 C   0  0  0  0  0  3  0  0  0  0  0  0
  182.9750  179.0030  142.9800 N   0  0  0  0  0  0  0  0  0  0  0  0
  184.1140  178.5730  142.3710 C   0  0  0  0  0  3  0  0  0  0  0  0
  189.4300  178.5150  138.4690 O   0  0  0  0  0  0  0  0  0  0  0  0
  190.2620  177.4210  138.1110 C   0  0  0  0  0  1  0  0  0  0  0  0
  187.1370  178.6280  136.8300 C   0  0  0  0  0  2  0  0  0  0  0  0
  187.3300  176.6370  135.9000 C   0  0  0  0  0  1  0  0  0  0  0  0
  186.3960  177.6260  136.2020 O   0  0  0  0  0  0  0  0  0  0  0  0
  1 10  2  0  0  0  0
  2  8  1  0  0  0  0
  3 16  1  0  0  0  0
  4  2  2  0  0  0  0
  5 12  1  0  0  0  0
  5  6  1  0  0  0  0
  7 11  2  0  0  0  0
  8 18  1  0  0  0  0
  8  1  1  0  0  0  0
  9 13  2  0  0  0  0
  9  7  1  0  0  0  0
 10 15  1  0  0  0  0
 11  2  1  0  0  0  0
 11  3  1  0  0  0  0
 13  4  1  0  0  0  0
 14  6  1  0  0  0  0
 14 15  1  0  0  0  0
 16 10  1  0  0  0  0
 16 12  1  1  0  0  0
 17 20  1  0  0  0  0
 18 19  1  0  0  0  0
 19 20  2  0  0  0  0
 21 17  2  0  0  0  0
 22 21  1  0  0  0  0
 22 18  2  0  0  0  0
 23  7  1  0  0  0  0
 24 23  1  0  0  0  0
 25  9  1  0  0  0  0
 26 27  1  0  0  0  0
 27 25  1  0  0  0  0
M  END
>  <MODEL>
5

>  <REMARK>
 VINA RESULT:      -6.0      2.286      5.857
  Name = 
  4 active torsions:
  status: ('A' for Active; 'I' for Inactive)
    1  A    between atoms: C_4  and  O_16
    2  A    between atoms: C_4  and  C_17
    3  A    between atoms: O_8  and  C_14
    4  A    between atoms: C_9  and  N_15
                            x       y       z     vdW  Elec       q    Type
                         _______ _______ _______ _____ _____    ______ ____

>  <TORSDO>
F 4

$$$$
=
 OpenBabel10262420093D

 27 30  0  0  1  0  0  0  0  0999 V2000
  190.9590  177.6390  140.6090 N   0  0  0  0  0  0  0  0  0  0  0  0
  188.5700  177.6520  139.9680 C   0  0  0  0  0  0  0  0  0  0  0  0
  188.6060  177.4520  142.4460 O   0  0  0  0  0  0  0  0  0  0  0  0
  187.8670  178.0090  138.8580 N   0  0  0  0  0  0  0  0  0  0  0  0
  190.1330  177.1100  144.9840 C   0  0  0  0  0  2  0  0  0  0  0  0
  191.5100  177.7370  145.0530 C   0  0  0  0  0  2  0  0  0  0  0  0
  186.6840  178.4270  141.3270 C   0  0  0  0  0  0  0  0  0  0  0  0
  189.9200  177.1510  139.7920 N   0  0  0  0  0  0  0  0  0  0  0  0
  186.0100  178.7540  140.1430 C   0  0  0  0  0  0  0  0  0  0  0  0
  190.9380  177.5020  141.8940 C   0  0  0  0  0  0  0  0  0  0  0  0
  187.9750  177.8440  141.2540 C   0  0  0  0  0  0  0  0  0  0  0  0
  190.0750  176.0890  143.8630 C   0  0  0  0  0  2  0  0  0  0  0  0
  186.6230  178.5410  138.9150 C   0  0  0  0  0  3  0  0  0  0  0  0
  191.6630  178.7900  143.9730 C   0  0  0  0  0  2  0  0  0  0  0  0
  191.9240  178.1850  142.6740 N   0  0  0  0  0  2  0  0  0  0  0  0
  189.8140  176.7170  142.4970 C   0  0  1  0  0  3  0  0  0  0  0  0
  190.9050  174.9480  136.3220 C   0  0  0  0  0  3  0  0  0  0  0  0
  190.2770  176.3850  138.6240 C   0  0  0  0  0  0  0  0  0  0  0  0
  191.5810  176.4140  138.1060 C   0  0  0  0  0  3  0  0  0  0  0  0
  191.9000  175.6920  136.9560 C   0  0  0  0  0  3  0  0  0  0  0  0
  189.6410  174.9330  136.8230 N   0  0  0  0  0  0  0  0  0  0  0  0
  189.3110  175.6310  137.9430 C   0  0  0  0  0  3  0  0  0  0  0  0
  186.0220  178.6890  142.5410 O   0  0  0  0  0  0  0  0  0  0  0  0
  184.9880  177.8930  143.1030 C   0  0  0  0  0  1  0  0  0  0  0  0
  184.6530  179.3740  140.1720 C   0  0  0  0  0  2  0  0  0  0  0  0
  183.1240  180.0900  138.7530 C   0  0  0  0  0  1  0  0  0  0  0  0
  184.4810  180.1880  139.0530 O   0  0  0  0  0  0  0  0  0  0  0  0
  1 10  2  0  0  0  0
  2 11  1  0  0  0  0
  3 16  1  0  0  0  0
  4 13  1  0  0  0  0
  4  2  2  0  0  0  0
  5  6  1  0  0  0  0
  7 23  1  0  0  0  0
  8  2  1  0  0  0  0
  8  1  1  0  0  0  0
  9 25  1  0  0  0  0
  9  7  1  0  0  0  0
 10 16  1  0  0  0  0
 10 15  1  0  0  0  0
 11  7  2  0  0  0  0
 11  3  1  0  0  0  0
 12  5  1  0  0  0  0
 13  9  2  0  0  0  0
 14  6  1  0  0  0  0
 15 14  1  0  0  0  0
 16 12  1  1  0  0  0
 17 21  2  0  0  0  0
 17 20  1  0  0  0  0
 18  8  1  0  0  0  0
 19 18  1  0  0  0  0
 20 19  2  0  0  0  0
 21 22  1  0  0  0  0
 22 18  2  0  0  0  0
 23 24  1  0  0  0  0
 26 27  1  0  0  0  0
 27 25  1  0  0  0  0
M  END
>  <MODEL>
6

>  <REMARK>
 VINA RESULT:      -5.9      1.995      5.343
  Name = 
  4 active torsions:
  status: ('A' for Active; 'I' for Inactive)
    1  A    between atoms: C_4  and  O_16
    2  A    between atoms: C_4  and  C_17
    3  A    between atoms: O_8  and  C_14
    4  A    between atoms: C_9  and  N_15
                            x       y       z     vdW  Elec       q    Type
                         _______ _______ _______ _____ _____    ______ ____

>  <TORSDO>
F 4

$$$$
=
 OpenBabel10262420093D

 27 30  0  0  1  0  0  0  0  0999 V2000
  184.2530  179.4980  140.6420 N   0  0  0  0  0  0  0  0  0  0  0  0
  186.4020  178.4720  139.9730 C   0  0  0  0  0  0  0  0  0  0  0  0
  184.7480  177.7600  138.2590 O   0  0  0  0  0  0  0  0  0  0  0  0
  187.7110  178.6770  140.2860 N   0  0  0  0  0  0  0  0  0  0  0  0
  181.9340  177.6510  137.2770 C   0  0  0  0  0  2  0  0  0  0  0  0
  181.0490  178.8430  137.5810 C   0  0  0  0  0  2  0  0  0  0  0  0
  187.1080  177.8810  137.7020 C   0  0  0  0  0  0  0  0  0  0  0  0
  185.4030  178.7600  140.9840 N   0  0  0  0  0  0  0  0  0  0  0  0
  188.4360  178.0910  138.0980 C   0  0  0  0  0  0  0  0  0  0  0  0
  183.4160  179.0810  139.7510 C   0  0  0  0  0  0  0  0  0  0  0  0
  186.0660  178.0470  138.6500 C   0  0  0  0  0  0  0  0  0  0  0  0
  182.4280  177.0210  138.5670 C   0  0  0  0  0  2  0  0  0  0  0  0
  188.7170  178.4950  139.3970 C   0  0  0  0  0  3  0  0  0  0  0  0
  181.8950  180.0470  137.9440 C   0  0  0  0  0  2  0  0  0  0  0  0
  182.3770  179.9640  139.3160 N   0  0  0  0  0  2  0  0  0  0  0  0
  183.6480  177.7290  139.1490 C   0  0  1  0  0  3  0  0  0  0  0  0
  186.1590  178.1500  145.0980 C   0  0  0  0  0  3  0  0  0  0  0  0
  185.6890  178.5600  142.3840 C   0  0  0  0  0  0  0  0  0  0  0  0
  186.6750  177.6530  142.8020 C   0  0  0  0  0  3  0  0  0  0  0  0
  186.9160  177.4480  144.1610 C   0  0  0  0  0  3  0  0  0  0  0  0
  185.1970  179.0190  144.6860 N   0  0  0  0  0  0  0  0  0  0  0  0
  184.9470  179.2310  143.3660 C   0  0  0  0  0  3  0  0  0  0  0  0
  186.8840  177.4970  136.3670 O   0  0  0  0  0  0  0  0  0  0  0  0
  186.6670  176.1670  135.9190 C   0  0  0  0  0  1  0  0  0  0  0  0
  189.5640  177.9330  137.1340 C   0  0  0  0  0  2  0  0  0  0  0  0
  190.2190  175.8290  137.2360 C   0  0  0  0  0  1  0  0  0  0  0  0
  190.5440  177.1080  137.6850 O   0  0  0  0  0  0  0  0  0  0  0  0
  1  8  1  0  0  0  0
  2  4  1  0  0  0  0
  2  8  1  0  0  0  0
  3 11  1  0  0  0  0
  3 16  1  0  0  0  0
  5  6  1  0  0  0  0
  5 12  1  0  0  0  0
  6 14  1  0  0  0  0
  7  9  2  0  0  0  0
  7 11  1  0  0  0  0
  8 18  1  0  0  0  0
  9 13  1  0  0  0  0
 10  1  2  0  0  0  0
 11  2  2  0  0  0  0
 13  4  2  0  0  0  0
 14 15  1  0  0  0  0
 15 10  1  0  0  0  0
 16 12  1  6  0  0  0
 16 10  1  0  0  0  0
 18 19  2  0  0  0  0
 18 22  1  0  0  0  0
 19 20  1  0  0  0  0
 20 17  2  0  0  0  0
 21 17  1  0  0  0  0
 22 21  2  0  0  0  0
 23  7  1  0  0  0  0
 24 23  1  0  0  0  0
 25 27  1  0  0  0  0
 25  9  1  0  0  0  0
 26 27  1  0  0  0  0
M  END
>  <MODEL>
7

>  <REMARK>
 VINA RESULT:      -5.7      2.948      6.094
  Name = 
  4 active torsions:
  status: ('A' for Active; 'I' for Inactive)
    1  A    between atoms: C_4  and  O_16
    2  A    between atoms: C_4  and  C_17
    3  A    between atoms: O_8  and  C_14
    4  A    between atoms: C_9  and  N_15
                            x       y       z     vdW  Elec       q    Type
                         _______ _______ _______ _____ _____    ______ ____

>  <TORSDO>
F 4

$$$$
=
 OpenBabel10262420093D

 27 30  0  0  1  0  0  0  0  0999 V2000
  188.6810  178.1850  139.3030 N   0  0  0  0  0  0  0  0  0  0  0  0
  190.8120  176.9500  139.0810 C   0  0  0  0  0  0  0  0  0  0  0  0
  189.3770  176.1690  137.2070 O   0  0  0  0  0  0  0  0  0  0  0  0
  192.0730  177.0980  139.5730 N   0  0  0  0  0  0  0  0  0  0  0  0
  186.7410  176.1440  135.8130 C   0  0  0  0  0  2  0  0  0  0  0  0
  185.9240  177.4190  135.8580 C   0  0  0  0  0  2  0  0  0  0  0  0
  191.7960  176.0690  137.0160 C   0  0  0  0  0  0  0  0  0  0  0  0
  189.7020  177.4120  139.8910 N   0  0  0  0  0  0  0  0  0  0  0  0
  193.0640  176.2310  137.5930 C   0  0  0  0  0  0  0  0  0  0  0  0
  187.9530  177.7300  138.3370 C   0  0  0  0  0  0  0  0  0  0  0  0
  190.6420  176.4070  137.7690 C   0  0  0  0  0  0  0  0  0  0  0  0
  186.9840  175.6260  137.2180 C   0  0  0  0  0  2  0  0  0  0  0  0
  193.1810  176.7530  138.8740 C   0  0  0  0  0  3  0  0  0  0  0  0
  186.8030  178.5960  136.2300 C   0  0  0  0  0  2  0  0  0  0  0  0
  187.0680  178.6300  137.6620 N   0  0  0  0  0  2  0  0  0  0  0  0
  188.1590  176.3090  137.9120 C   0  0  1  0  0  3  0  0  0  0  0  0
  189.7840  177.2110  144.1120 C   0  0  0  0  0  3  0  0  0  0  0  0
  189.7600  177.3460  141.3310 C   0  0  0  0  0  0  0  0  0  0  0  0
  190.4950  176.3450  141.9840 C   0  0  0  0  0  3  0  0  0  0  0  0
  190.5130  176.2770  143.3770 C   0  0  0  0  0  3  0  0  0  0  0  0
  189.0640  178.1710  143.4730 N   0  0  0  0  0  0  0  0  0  0  0  0
  189.0340  178.2530  142.1150 C   0  0  0  0  0  3  0  0  0  0  0  0
  191.7420  175.5590  135.7060 O   0  0  0  0  0  0  0  0  0  0  0  0
  191.4860  174.2050  135.3600 C   0  0  0  0  0  1  0  0  0  0  0  0
  194.3050  175.8940  136.8360 C   0  0  0  0  0  2  0  0  0  0  0  0
  195.2890  176.4550  134.9440 C   0  0  0  0  0  1  0  0  0  0  0  0
  194.7210  176.9990  136.0940 O   0  0  0  0  0  0  0  0  0  0  0  0
  1  8  1  0  0  0  0
  2  4  1  0  0  0  0
  2  8  1  0  0  0  0
  3 11  1  0  0  0  0
  3 16  1  0  0  0  0
  5  6  1  0  0  0  0
  5 12  1  0  0  0  0
  6 14  1  0  0  0  0
  7  9  2  0  0  0  0
  7 11  1  0  0  0  0
  8 18  1  0  0  0  0
  9 13  1  0  0  0  0
 10  1  2  0  0  0  0
 11  2  2  0  0  0  0
 13  4  2  0  0  0  0
 14 15  1  0  0  0  0
 15 10  1  0  0  0  0
 16 12  1  6  0  0  0
 16 10  1  0  0  0  0
 18 19  2  0  0  0  0
 18 22  1  0  0  0  0
 19 20  1  0  0  0  0
 20 17  2  0  0  0  0
 21 17  1  0  0  0  0
 22 21  2  0  0  0  0
 23  7  1  0  0  0  0
 24 23  1  0  0  0  0
 25  9  1  0  0  0  0
 26 27  1  0  0  0  0
 27 25  1  0  0  0  0
M  END
>  <MODEL>
8

>  <REMARK>
 VINA RESULT:      -5.7      3.577      6.742
  Name = 
  4 active torsions:
  status: ('A' for Active; 'I' for Inactive)
    1  A    between atoms: C_4  and  O_16
    2  A    between atoms: C_4  and  C_17
    3  A    between atoms: O_8  and  C_14
    4  A    between atoms: C_9  and  N_15
                            x       y       z     vdW  Elec       q    Type
                         _______ _______ _______ _____ _____    ______ ____

>  <TORSDO>
F 4

$$$$
=
 OpenBabel10262420093D

 27 30  0  0  1  0  0  0  0  0999 V2000
  189.9740  176.7730  135.9780 N   0  0  0  0  0  0  0  0  0  0  0  0
  188.8380  177.0030  138.1630 C   0  0  0  0  0  0  0  0  0  0  0  0
  190.8720  175.6410  138.5970 O   0  0  0  0  0  0  0  0  0  0  0  0
  187.8780  177.8240  138.6730 N   0  0  0  0  0  0  0  0  0  0  0  0
  193.2640  174.1800  137.5800 C   0  0  0  0  0  2  0  0  0  0  0  0
  193.9510  174.7470  136.3550 C   0  0  0  0  0  2  0  0  0  0  0  0
  189.8830  176.9630  140.3790 C   0  0  0  0  0  0  0  0  0  0  0  0
  188.7950  176.6980  136.7460 N   0  0  0  0  0  0  0  0  0  0  0  0
  188.8530  177.7930  140.8420 C   0  0  0  0  0  0  0  0  0  0  0  0
  191.0030  176.0350  136.2370 C   0  0  0  0  0  0  0  0  0  0  0  0
  189.8750  176.5340  139.0270 C   0  0  0  0  0  0  0  0  0  0  0  0
  191.8250  173.8200  137.2570 C   0  0  0  0  0  2  0  0  0  0  0  0
  187.8600  178.2170  139.9690 C   0  0  0  0  0  3  0  0  0  0  0  0
  193.5480  176.1930  136.1480 C   0  0  0  0  0  2  0  0  0  0  0  0
  192.2280  176.2960  135.5430 N   0  0  0  0  0  2  0  0  0  0  0  0
  190.8800  175.0160  137.3280 C   0  0  1  0  0  3  0  0  0  0  0  0
  185.0650  176.3970  134.7800 C   0  0  0  0  0  3  0  0  0  0  0  0
  187.5360  176.5990  136.0490 C   0  0  0  0  0  0  0  0  0  0  0  0
  187.0720  177.6440  135.2360 C   0  0  0  0  0  3  0  0  0  0  0  0
  185.8360  177.5440  134.5950 C   0  0  0  0  0  3  0  0  0  0  0  0
  185.5160  175.3930  135.5790 N   0  0  0  0  0  0  0  0  0  0  0  0
  186.7180  175.4730  136.2130 C   0  0  0  0  0  3  0  0  0  0  0  0
  190.8750  176.5860  141.3040 O   0  0  0  0  0  0  0  0  0  0  0  0
  192.0800  177.2980  141.5520 C   0  0  0  0  0  1  0  0  0  0  0  0
  188.8230  178.2730  142.2540 C   0  0  0  0  0  2  0  0  0  0  0  0
  187.9630  176.6960  143.5340 C   0  0  0  0  0  1  0  0  0  0  0  0
  187.6340  177.8730  142.8650 O   0  0  0  0  0  0  0  0  0  0  0  0
  1 10  2  0  0  0  0
  1  8  1  0  0  0  0
  2  4  2  0  0  0  0
  2 11  1  0  0  0  0
  3 11  1  0  0  0  0
  4 13  1  0  0  0  0
  6  5  1  0  0  0  0
  7  9  1  0  0  0  0
  7 23  1  0  0  0  0
  8  2  1  0  0  0  0
  9 25  1  0  0  0  0
 10 16  1  0  0  0  0
 11  7  2  0  0  0  0
 12  5  1  0  0  0  0
 13  9  2  0  0  0  0
 14  6  1  0  0  0  0
 15 14  1  0  0  0  0
 15 10  1  0  0  0  0
 16 12  1  1  0  0  0
 16  3  1  0  0  0  0
 17 21  1  0  0  0  0
 18 22  1  0  0  0  0
 18  8  1  0  0  0  0
 19 18  2  0  0  0  0
 20 17  2  0  0  0  0
 20 19  1  0  0  0  0
 21 22  2  0  0  0  0
 23 24  1  0  0  0  0
 25 27  1  0  0  0  0
 27 26  1  0  0  0  0
M  END
>  <MODEL>
9

>  <REMARK>
 VINA RESULT:      -5.6      3.348      6.519
  Name = 
  4 active torsions:
  status: ('A' for Active; 'I' for Inactive)
    1  A    between atoms: C_4  and  O_16
    2  A    between atoms: C_4  and  C_17
    3  A    between atoms: O_8  and  C_14
    4  A    between atoms: C_9  and  N_15
                            x       y       z     vdW  Elec       q    Type
                         _______ _______ _______ _____ _____    ______ ____

>  <TORSDO>
F 4

$$$$
