=
 OpenBabel10262420113D

 27 29  0  0  0  0  0  0  0  0999 V2000
  189.1470  178.2490  140.4050 N   0  0  0  0  0  2  0  0  0  0  0  0
  187.9180  177.3090  142.1770 N   0  0  0  0  0  0  0  0  0  0  0  0
  189.0940  177.6430  141.7060 C   0  0  0  0  0  0  0  0  0  0  0  0
  191.5810  177.5980  141.4960 C   0  0  0  0  0  1  0  0  0  0  0  0
  191.6730  176.7500  145.0660 C   0  0  0  0  0  2  0  0  0  0  0  0
  190.4050  177.4250  142.4540 C   0  0  0  0  0  0  0  0  0  0  0  0
  190.4640  175.9870  143.0120 C   0  0  0  0  0  2  0  0  0  0  0  0
  191.6770  175.7540  143.9140 C   0  0  0  0  0  2  0  0  0  0  0  0
  191.7030  178.1710  144.5190 C   0  0  0  0  0  2  0  0  0  0  0  0
  190.4840  178.4150  143.6290 C   0  0  0  0  0  2  0  0  0  0  0  0
  187.6040  175.3950  143.5080 O   0  0  0  0  0  0  0  0  0  0  0  0
  187.5270  176.6490  143.3940 C   0  0  0  0  0  0  0  0  0  0  0  0
  185.8300  178.9730  146.5810 C   0  0  0  0  0  3  0  0  0  0  0  0
  187.6480  178.3330  148.1550 C   0  0  0  0  0  1  0  0  0  0  0  0
  187.5810  177.4930  145.7860 C   0  0  0  0  0  0  0  0  0  0  0  0
  188.7180  176.7960  146.0420 F   0  0  0  0  0  0  0  0  0  0  0  0
  186.9650  177.4380  144.5150 C   0  0  0  0  0  0  0  0  0  0  0  0
  187.0100  178.2640  146.8110 C   0  0  0  0  0  0  0  0  0  0  0  0
  185.7760  178.1570  144.3070 C   0  0  0  0  0  3  0  0  0  0  0  0
  185.2120  178.9190  145.3310 C   0  0  0  0  0  3  0  0  0  0  0  0
  187.9790  178.4350  139.5510 C   0  0  0  0  0  2  0  0  0  0  0  0
  187.6760  178.0040  135.8000 C   0  0  0  0  0  3  0  0  0  0  0  0
  188.9040  177.4130  135.4890 C   0  0  0  0  0  3  0  0  0  0  0  0
  187.3770  178.3410  137.1230 C   0  0  0  0  0  3  0  0  0  0  0  0
  189.8340  177.1590  136.5020 C   0  0  0  0  0  3  0  0  0  0  0  0
  189.5360  177.4950  137.8250 C   0  0  0  0  0  3  0  0  0  0  0  0
  188.3070  178.0880  138.1380 C   0  0  0  0  0  0  0  0  0  0  0  0
  1  3  1  0  0  0  0
  2 12  1  0  0  0  0
  3  2  2  0  0  0  0
  3  6  1  0  0  0  0
  4  6  1  0  0  0  0
  6  7  1  0  0  0  0
  6 10  1  0  0  0  0
  7  8  1  0  0  0  0
  8  5  1  0  0  0  0
  9  5  1  0  0  0  0
 10  9  1  0  0  0  0
 12 11  2  0  0  0  0
 12 17  1  0  0  0  0
 13 18  1  0  0  0  0
 15 16  1  0  0  0  0
 15 18  2  0  0  0  0
 17 15  1  0  0  0  0
 18 14  1  0  0  0  0
 19 17  2  0  0  0  0
 19 20  1  0  0  0  0
 20 13  2  0  0  0  0
 21  1  1  0  0  0  0
 22 24  1  0  0  0  0
 23 22  2  0  0  0  0
 23 25  1  0  0  0  0
 24 27  2  0  0  0  0
 25 26  2  0  0  0  0
 26 27  1  0  0  0  0
 27 21  1  0  0  0  0
M  END
>  <MODEL>
1

>  <REMARK>
 VINA RESULT:      -8.9      0.000      0.000
  Name = 
  5 active torsions:
  status: ('A' for Active; 'I' for Inactive)
    1  A    between atoms: N_1  and  C_18
    2  A    between atoms: N_2  and  C_19
    3  A    between atoms: C_9  and  C_15
    4  A    between atoms: C_14  and  C_19
    5  A    between atoms: C_18  and  C_26
                            x       y       z     vdW  Elec       q    Type
                         _______ _______ _______ _____ _____    ______ ____

>  <TORSDO>
F 5

$$$$
=
 OpenBabel10262420113D

 27 29  0  0  0  0  0  0  0  0999 V2000
  189.4730  178.1670  140.2350 N   0  0  0  0  0  2  0  0  0  0  0  0
  188.0920  177.3250  141.9420 N   0  0  0  0  0  0  0  0  0  0  0  0
  189.3070  177.6210  141.5520 C   0  0  0  0  0  0  0  0  0  0  0  0
  191.8030  177.6050  141.5590 C   0  0  0  0  0  1  0  0  0  0  0  0
  191.5950  176.7590  145.1250 C   0  0  0  0  0  2  0  0  0  0  0  0
  190.5510  177.4190  142.4120 C   0  0  0  0  0  0  0  0  0  0  0  0
  190.5770  175.9820  142.9750 C   0  0  0  0  0  2  0  0  0  0  0  0
  191.7110  175.7630  143.9790 C   0  0  0  0  0  2  0  0  0  0  0  0
  191.6560  178.1800  144.5800 C   0  0  0  0  0  2  0  0  0  0  0  0
  190.5160  178.4090  143.5880 C   0  0  0  0  0  2  0  0  0  0  0  0
  187.7960  175.5060  143.4050 O   0  0  0  0  0  0  0  0  0  0  0  0
  187.5940  176.7250  143.1520 C   0  0  0  0  0  0  0  0  0  0  0  0
  185.2940  179.0290  145.9520 C   0  0  0  0  0  3  0  0  0  0  0  0
  183.4420  179.3540  144.3220 C   0  0  0  0  0  1  0  0  0  0  0  0
  185.5130  178.0500  143.7420 C   0  0  0  0  0  0  0  0  0  0  0  0
  184.9950  177.8560  142.5010 F   0  0  0  0  0  0  0  0  0  0  0  0
  186.7780  177.5270  144.0930 C   0  0  0  0  0  0  0  0  0  0  0  0
  184.7770  178.7960  144.6760 C   0  0  0  0  0  0  0  0  0  0  0  0
  187.2800  177.7760  145.3820 C   0  0  0  0  0  3  0  0  0  0  0  0
  186.5450  178.5210  146.3040 C   0  0  0  0  0  3  0  0  0  0  0  0
  188.3800  178.3310  139.2830 C   0  0  0  0  0  2  0  0  0  0  0  0
  188.3900  177.7300  135.5430 C   0  0  0  0  0  3  0  0  0  0  0  0
  189.5520  176.9690  135.3880 C   0  0  0  0  0  3  0  0  0  0  0  0
  188.0110  178.1770  136.8120 C   0  0  0  0  0  3  0  0  0  0  0  0
  190.3360  176.6560  136.5030 C   0  0  0  0  0  3  0  0  0  0  0  0
  189.9580  177.1030  137.7720 C   0  0  0  0  0  3  0  0  0  0  0  0
  188.7940  177.8650  137.9290 C   0  0  0  0  0  0  0  0  0  0  0  0
  1  3  1  0  0  0  0
  2 12  1  0  0  0  0
  3  2  2  0  0  0  0
  3  6  1  0  0  0  0
  4  6  1  0  0  0  0
  6  7  1  0  0  0  0
  6 10  1  0  0  0  0
  7  8  1  0  0  0  0
  8  5  1  0  0  0  0
  9  5  1  0  0  0  0
 10  9  1  0  0  0  0
 12 11  2  0  0  0  0
 12 17  1  0  0  0  0
 13 20  1  0  0  0  0
 14 18  1  0  0  0  0
 15 17  2  0  0  0  0
 15 18  1  0  0  0  0
 16 15  1  0  0  0  0
 17 19  1  0  0  0  0
 18 13  2  0  0  0  0
 19 20  2  0  0  0  0
 21  1  1  0  0  0  0
 22 24  1  0  0  0  0
 23 22  2  0  0  0  0
 23 25  1  0  0  0  0
 24 27  2  0  0  0  0
 25 26  2  0  0  0  0
 26 27  1  0  0  0  0
 27 21  1  0  0  0  0
M  END
>  <MODEL>
2

>  <REMARK>
 VINA RESULT:      -8.8      1.191      1.832
  Name = 
  5 active torsions:
  status: ('A' for Active; 'I' for Inactive)
    1  A    between atoms: N_1  and  C_18
    2  A    between atoms: N_2  and  C_19
    3  A    between atoms: C_9  and  C_15
    4  A    between atoms: C_14  and  C_19
    5  A    between atoms: C_18  and  C_26
                            x       y       z     vdW  Elec       q    Type
                         _______ _______ _______ _____ _____    ______ ____

>  <TORSDO>
F 5

$$$$
=
 OpenBabel10262420113D

 27 29  0  0  0  0  0  0  0  0999 V2000
  187.6480  177.7310  143.7420 N   0  0  0  0  0  2  0  0  0  0  0  0
  189.2740  177.4970  142.0580 N   0  0  0  0  0  0  0  0  0  0  0  0
  189.0210  177.6020  143.3390 C   0  0  0  0  0  0  0  0  0  0  0  0
  191.0330  178.7850  144.2230 C   0  0  0  0  0  1  0  0  0  0  0  0
  191.1790  176.1910  146.8160 C   0  0  0  0  0  2  0  0  0  0  0  0
  190.0930  177.5990  144.4230 C   0  0  0  0  0  0  0  0  0  0  0  0
  190.9380  176.3110  144.3280 C   0  0  0  0  0  2  0  0  0  0  0  0
  191.9240  176.1650  145.4890 C   0  0  0  0  0  2  0  0  0  0  0  0
  190.4130  177.5000  146.9510 C   0  0  0  0  0  2  0  0  0  0  0  0
  189.4140  177.6430  145.8030 C   0  0  0  0  0  2  0  0  0  0  0  0
  191.6220  177.5150  141.9210 O   0  0  0  0  0  0  0  0  0  0  0  0
  190.5130  177.4100  141.3310 C   0  0  0  0  0  0  0  0  0  0  0  0
  190.5450  176.9030  137.0670 C   0  0  0  0  0  3  0  0  0  0  0  0
  188.7620  178.6100  136.7470 C   0  0  0  0  0  1  0  0  0  0  0  0
  189.6330  178.0060  139.0280 C   0  0  0  0  0  0  0  0  0  0  0  0
  188.7530  178.8950  139.5560 F   0  0  0  0  0  0  0  0  0  0  0  0
  190.4960  177.2560  139.8570 C   0  0  0  0  0  0  0  0  0  0  0  0
  189.6650  177.8260  137.6350 C   0  0  0  0  0  0  0  0  0  0  0  0
  191.3720  176.3310  139.2640 C   0  0  0  0  0  3  0  0  0  0  0  0
  191.3970  176.1550  137.8800 C   0  0  0  0  0  3  0  0  0  0  0  0
  186.5360  177.8340  142.8040 C   0  0  0  0  0  2  0  0  0  0  0  0
  182.9580  178.9000  143.4480 C   0  0  0  0  0  3  0  0  0  0  0  0
  182.9700  179.0840  144.8330 C   0  0  0  0  0  3  0  0  0  0  0  0
  184.1190  178.4880  142.7880 C   0  0  0  0  0  3  0  0  0  0  0  0
  184.1430  178.8570  145.5600 C   0  0  0  0  0  3  0  0  0  0  0  0
  185.3050  178.4440  144.9000 C   0  0  0  0  0  3  0  0  0  0  0  0
  185.2950  178.2590  143.5130 C   0  0  0  0  0  0  0  0  0  0  0  0
  2  3  2  0  0  0  0
  3  1  1  0  0  0  0
  3  6  1  0  0  0  0
  4  6  1  0  0  0  0
  5  9  1  0  0  0  0
  6 10  1  0  0  0  0
  7  6  1  0  0  0  0
  7  8  1  0  0  0  0
  8  5  1  0  0  0  0
 10  9  1  0  0  0  0
 12 11  2  0  0  0  0
 12  2  1  0  0  0  0
 13 18  2  0  0  0  0
 13 20  1  0  0  0  0
 14 18  1  0  0  0  0
 15 16  1  0  0  0  0
 15 17  2  0  0  0  0
 17 12  1  0  0  0  0
 18 15  1  0  0  0  0
 19 17  1  0  0  0  0
 20 19  2  0  0  0  0
 21 27  1  0  0  0  0
 21  1  1  0  0  0  0
 22 23  1  0  0  0  0
 23 25  2  0  0  0  0
 24 22  2  0  0  0  0
 24 27  1  0  0  0  0
 26 25  1  0  0  0  0
 27 26  2  0  0  0  0
M  END
>  <MODEL>
3

>  <REMARK>
 VINA RESULT:      -7.7      2.275      6.695
  Name = 
  5 active torsions:
  status: ('A' for Active; 'I' for Inactive)
    1  A    between atoms: N_1  and  C_18
    2  A    between atoms: N_2  and  C_19
    3  A    between atoms: C_9  and  C_15
    4  A    between atoms: C_14  and  C_19
    5  A    between atoms: C_18  and  C_26
                            x       y       z     vdW  Elec       q    Type
                         _______ _______ _______ _____ _____    ______ ____

>  <TORSDO>
F 5

$$$$
=
 OpenBabel10262420113D

 27 29  0  0  0  0  0  0  0  0999 V2000
  187.5380  177.8920  143.5230 N   0  0  0  0  0  2  0  0  0  0  0  0
  189.3020  177.5690  141.9990 N   0  0  0  0  0  0  0  0  0  0  0  0
  188.9390  177.7330  143.2480 C   0  0  0  0  0  0  0  0  0  0  0  0
  190.7990  179.0060  144.3190 C   0  0  0  0  0  1  0  0  0  0  0  0
  190.8640  176.3770  146.8800 C   0  0  0  0  0  2  0  0  0  0  0  0
  189.9120  177.7680  144.4210 C   0  0  0  0  0  0  0  0  0  0  0  0
  190.8320  176.5290  144.3820 C   0  0  0  0  0  2  0  0  0  0  0  0
  191.7210  176.4160  145.6220 C   0  0  0  0  0  2  0  0  0  0  0  0
  190.0180  177.6400  146.9660 C   0  0  0  0  0  2  0  0  0  0  0  0
  189.1150  177.7500  145.7370 C   0  0  0  0  0  2  0  0  0  0  0  0
  191.6500  177.7000  142.0330 O   0  0  0  0  0  0  0  0  0  0  0  0
  190.5980  177.4380  141.3890 C   0  0  0  0  0  0  0  0  0  0  0  0
  190.8170  176.3000  137.2540 C   0  0  0  0  0  3  0  0  0  0  0  0
  193.3050  176.3610  137.2620 C   0  0  0  0  0  1  0  0  0  0  0  0
  191.9530  176.9010  139.3130 C   0  0  0  0  0  0  0  0  0  0  0  0
  193.1180  177.1330  139.9720 F   0  0  0  0  0  0  0  0  0  0  0  0
  190.7080  177.0510  139.9630 C   0  0  0  0  0  0  0  0  0  0  0  0
  192.0000  176.5230  137.9610 C   0  0  0  0  0  0  0  0  0  0  0  0
  189.5300  176.8230  139.2310 C   0  0  0  0  0  3  0  0  0  0  0  0
  189.5840  176.4510  137.8880 C   0  0  0  0  0  3  0  0  0  0  0  0
  186.5130  177.9630  142.4870 C   0  0  0  0  0  2  0  0  0  0  0  0
  183.8580  178.9020  145.0200 C   0  0  0  0  0  3  0  0  0  0  0  0
  182.7250  179.0060  144.2080 C   0  0  0  0  0  3  0  0  0  0  0  0
  185.0930  178.5660  144.4580 C   0  0  0  0  0  3  0  0  0  0  0  0
  182.8270  178.7750  142.8330 C   0  0  0  0  0  3  0  0  0  0  0  0
  184.0620  178.4400  142.2690 C   0  0  0  0  0  3  0  0  0  0  0  0
  185.1970  178.3350  143.0820 C   0  0  0  0  0  0  0  0  0  0  0  0
  2  3  2  0  0  0  0
  3  1  1  0  0  0  0
  3  6  1  0  0  0  0
  4  6  1  0  0  0  0
  5  9  1  0  0  0  0
  6 10  1  0  0  0  0
  7  6  1  0  0  0  0
  7  8  1  0  0  0  0
  8  5  1  0  0  0  0
 10  9  1  0  0  0  0
 12  2  1  0  0  0  0
 12 11  2  0  0  0  0
 13 20  2  0  0  0  0
 13 18  1  0  0  0  0
 14 18  1  0  0  0  0
 15 17  1  0  0  0  0
 15 16  1  0  0  0  0
 17 12  1  0  0  0  0
 18 15  2  0  0  0  0
 19 17  2  0  0  0  0
 20 19  1  0  0  0  0
 21 27  1  0  0  0  0
 21  1  1  0  0  0  0
 23 22  2  0  0  0  0
 24 22  1  0  0  0  0
 25 23  1  0  0  0  0
 26 25  2  0  0  0  0
 26 27  1  0  0  0  0
 27 24  2  0  0  0  0
M  END
>  <MODEL>
4

>  <REMARK>
 VINA RESULT:      -7.5      2.541      6.704
  Name = 
  5 active torsions:
  status: ('A' for Active; 'I' for Inactive)
    1  A    between atoms: N_1  and  C_18
    2  A    between atoms: N_2  and  C_19
    3  A    between atoms: C_9  and  C_15
    4  A    between atoms: C_14  and  C_19
    5  A    between atoms: C_18  and  C_26
                            x       y       z     vdW  Elec       q    Type
                         _______ _______ _______ _____ _____    ______ ____

>  <TORSDO>
F 5

$$$$
=
 OpenBabel10262420113D

 27 29  0  0  0  0  0  0  0  0999 V2000
  187.1440  178.0780  142.6560 N   0  0  0  0  0  2  0  0  0  0  0  0
  188.6090  177.7150  140.8520 N   0  0  0  0  0  0  0  0  0  0  0  0
  188.4220  177.6660  142.1480 C   0  0  0  0  0  0  0  0  0  0  0  0
  190.0110  175.8320  142.7320 C   0  0  0  0  0  1  0  0  0  0  0  0
  190.9620  177.8490  145.6480 C   0  0  0  0  0  2  0  0  0  0  0  0
  189.4790  177.2020  143.1440 C   0  0  0  0  0  0  0  0  0  0  0  0
  188.8560  177.0610  144.5490 C   0  0  0  0  0  2  0  0  0  0  0  0
  189.8990  176.7590  145.6280 C   0  0  0  0  0  2  0  0  0  0  0  0
  191.6390  177.9320  144.2870 C   0  0  0  0  0  2  0  0  0  0  0  0
  190.6050  178.2490  143.2070 C   0  0  0  0  0  2  0  0  0  0  0  0
  190.8820  177.9500  140.2970 O   0  0  0  0  0  0  0  0  0  0  0  0
  189.7620  177.4320  140.0390 C   0  0  0  0  0  0  0  0  0  0  0  0
  189.4740  174.9040  136.5800 C   0  0  0  0  0  3  0  0  0  0  0  0
  187.1830  175.7170  136.0490 C   0  0  0  0  0  1  0  0  0  0  0  0
  188.4680  176.5640  138.0370 C   0  0  0  0  0  0  0  0  0  0  0  0
  187.4010  177.3450  138.3450 F   0  0  0  0  0  0  0  0  0  0  0  0
  189.6290  176.5690  138.8420 C   0  0  0  0  0  0  0  0  0  0  0  0
  188.3990  175.7330  136.9080 C   0  0  0  0  0  0  0  0  0  0  0  0
  190.6980  175.7240  138.4950 C   0  0  0  0  0  3  0  0  0  0  0  0
  190.6210  174.8980  137.3740 C   0  0  0  0  0  3  0  0  0  0  0  0
  186.0780  178.6220  141.8210 C   0  0  0  0  0  2  0  0  0  0  0  0
  182.3820  178.7520  142.6420 C   0  0  0  0  0  3  0  0  0  0  0  0
  182.4110  178.8930  144.0310 C   0  0  0  0  0  3  0  0  0  0  0  0
  183.5770  178.6590  141.9230 C   0  0  0  0  0  3  0  0  0  0  0  0
  183.6370  178.9410  144.7040 C   0  0  0  0  0  3  0  0  0  0  0  0
  184.8330  178.8480  143.9850 C   0  0  0  0  0  3  0  0  0  0  0  0
  184.8050  178.7060  142.5930 C   0  0  0  0  0  0  0  0  0  0  0  0
  2  3  2  0  0  0  0
  3  1  1  0  0  0  0
  3  6  1  0  0  0  0
  4  6  1  0  0  0  0
  6 10  1  0  0  0  0
  6  7  1  0  0  0  0
  7  8  1  0  0  0  0
  8  5  1  0  0  0  0
  9  5  1  0  0  0  0
 10  9  1  0  0  0  0
 12 11  2  0  0  0  0
 12  2  1  0  0  0  0
 13 18  2  0  0  0  0
 13 20  1  0  0  0  0
 14 18  1  0  0  0  0
 15 16  1  0  0  0  0
 15 17  2  0  0  0  0
 17 12  1  0  0  0  0
 18 15  1  0  0  0  0
 19 17  1  0  0  0  0
 20 19  2  0  0  0  0
 21 27  1  0  0  0  0
 21  1  1  0  0  0  0
 22 23  1  0  0  0  0
 23 25  2  0  0  0  0
 24 27  1  0  0  0  0
 24 22  2  0  0  0  0
 26 25  1  0  0  0  0
 27 26  2  0  0  0  0
M  END
>  <MODEL>
5

>  <REMARK>
 VINA RESULT:      -7.4      2.625      6.800
  Name = 
  5 active torsions:
  status: ('A' for Active; 'I' for Inactive)
    1  A    between atoms: N_1  and  C_18
    2  A    between atoms: N_2  and  C_19
    3  A    between atoms: C_9  and  C_15
    4  A    between atoms: C_14  and  C_19
    5  A    between atoms: C_18  and  C_26
                            x       y       z     vdW  Elec       q    Type
                         _______ _______ _______ _____ _____    ______ ____

>  <TORSDO>
F 5

$$$$
=
 OpenBabel10262420113D

 27 29  0  0  0  0  0  0  0  0999 V2000
  188.0730  178.1370  141.1220 N   0  0  0  0  0  2  0  0  0  0  0  0
  189.9120  178.3410  142.5750 N   0  0  0  0  0  0  0  0  0  0  0  0
  188.6450  178.0400  142.4360 C   0  0  0  0  0  0  0  0  0  0  0  0
  187.6560  176.0740  143.6130 C   0  0  0  0  0  1  0  0  0  0  0  0
  186.0030  178.4810  145.8370 C   0  0  0  0  0  2  0  0  0  0  0  0
  187.7430  177.5970  143.5840 C   0  0  0  0  0  0  0  0  0  0  0  0
  186.3150  178.1450  143.3770 C   0  0  0  0  0  2  0  0  0  0  0  0
  185.4020  177.8780  144.5750 C   0  0  0  0  0  2  0  0  0  0  0  0
  187.3780  177.8780  146.0920 C   0  0  0  0  0  2  0  0  0  0  0  0
  188.3000  178.1560  144.9040 C   0  0  0  0  0  2  0  0  0  0  0  0
  191.1220  179.5070  144.2210 O   0  0  0  0  0  0  0  0  0  0  0  0
  190.7600  178.4010  143.7350 C   0  0  0  0  0  0  0  0  0  0  0  0
  192.2410  174.7310  145.4010 C   0  0  0  0  0  3  0  0  0  0  0  0
  192.1630  175.6310  147.7200 C   0  0  0  0  0  1  0  0  0  0  0  0
  191.4700  177.0080  145.7330 C   0  0  0  0  0  0  0  0  0  0  0  0
  191.2160  178.0360  146.5840 F   0  0  0  0  0  0  0  0  0  0  0  0
  191.2740  177.1500  144.3410 C   0  0  0  0  0  0  0  0  0  0  0  0
  191.9510  175.7960  146.2550 C   0  0  0  0  0  0  0  0  0  0  0  0
  191.5750  176.0650  143.5000 C   0  0  0  0  0  3  0  0  0  0  0  0
  192.0550  174.8650  144.0250 C   0  0  0  0  0  3  0  0  0  0  0  0
  188.8010  178.6280  139.9570 C   0  0  0  0  0  2  0  0  0  0  0  0
  188.8540  175.8420  137.3900 C   0  0  0  0  0  3  0  0  0  0  0  0
  190.1420  175.3290  137.5640 C   0  0  0  0  0  3  0  0  0  0  0  0
  188.4190  176.9200  138.1670 C   0  0  0  0  0  3  0  0  0  0  0  0
  190.9970  175.8940  138.5160 C   0  0  0  0  0  3  0  0  0  0  0  0
  190.5630  176.9720  139.2940 C   0  0  0  0  0  3  0  0  0  0  0  0
  189.2730  177.4880  139.1200 C   0  0  0  0  0  0  0  0  0  0  0  0
  1  3  1  0  0  0  0
  2 12  1  0  0  0  0
  3  2  2  0  0  0  0
  3  6  1  0  0  0  0
  5  9  1  0  0  0  0
  6  4  1  0  0  0  0
  6 10  1  0  0  0  0
  7  6  1  0  0  0  0
  7  8  1  0  0  0  0
  8  5  1  0  0  0  0
 10  9  1  0  0  0  0
 12 11  2  0  0  0  0
 12 17  1  0  0  0  0
 13 18  1  0  0  0  0
 15 18  2  0  0  0  0
 15 16  1  0  0  0  0
 17 15  1  0  0  0  0
 18 14  1  0  0  0  0
 19 20  1  0  0  0  0
 19 17  2  0  0  0  0
 20 13  2  0  0  0  0
 21  1  1  0  0  0  0
 22 23  2  0  0  0  0
 22 24  1  0  0  0  0
 23 25  1  0  0  0  0
 24 27  2  0  0  0  0
 25 26  2  0  0  0  0
 27 26  1  0  0  0  0
 27 21  1  0  0  0  0
M  END
>  <MODEL>
6

>  <REMARK>
 VINA RESULT:      -7.4      1.822      4.359
  Name = 
  5 active torsions:
  status: ('A' for Active; 'I' for Inactive)
    1  A    between atoms: N_1  and  C_18
    2  A    between atoms: N_2  and  C_19
    3  A    between atoms: C_9  and  C_15
    4  A    between atoms: C_14  and  C_19
    5  A    between atoms: C_18  and  C_26
                            x       y       z     vdW  Elec       q    Type
                         _______ _______ _______ _____ _____    ______ ____

>  <TORSDO>
F 5

$$$$
=
 OpenBabel10262420113D

 27 29  0  0  0  0  0  0  0  0999 V2000
  186.8250  178.2530  142.5430 N   0  0  0  0  0  2  0  0  0  0  0  0
  188.2570  177.9370  140.7030 N   0  0  0  0  0  0  0  0  0  0  0  0
  188.0910  177.8480  142.0000 C   0  0  0  0  0  0  0  0  0  0  0  0
  189.7080  176.0050  142.4690 C   0  0  0  0  0  1  0  0  0  0  0  0
  190.6480  177.8610  145.4930 C   0  0  0  0  0  2  0  0  0  0  0  0
  189.1600  177.3410  142.9630 C   0  0  0  0  0  0  0  0  0  0  0  0
  188.5470  177.1090  144.3600 C   0  0  0  0  0  2  0  0  0  0  0  0
  189.6000  176.7600  145.4140 C   0  0  0  0  0  2  0  0  0  0  0  0
  191.3160  178.0340  144.1360 C   0  0  0  0  0  2  0  0  0  0  0  0
  190.2720  178.3990  143.0810 C   0  0  0  0  0  2  0  0  0  0  0  0
  190.4960  178.2520  140.0570 O   0  0  0  0  0  0  0  0  0  0  0  0
  189.3940  177.6720  139.8630 C   0  0  0  0  0  0  0  0  0  0  0  0
  188.9160  175.0260  136.5140 C   0  0  0  0  0  3  0  0  0  0  0  0
  191.1930  174.0680  136.8140 C   0  0  0  0  0  1  0  0  0  0  0  0
  190.2950  175.8650  138.3270 C   0  0  0  0  0  0  0  0  0  0  0  0
  191.4780  175.8400  138.9930 F   0  0  0  0  0  0  0  0  0  0  0  0
  189.2620  176.7500  138.7100 C   0  0  0  0  0  0  0  0  0  0  0  0
  190.1140  175.0060  137.2310 C   0  0  0  0  0  0  0  0  0  0  0  0
  188.0660  176.7550  137.9730 C   0  0  0  0  0  3  0  0  0  0  0  0
  187.8930  175.9000  136.8840 C   0  0  0  0  0  3  0  0  0  0  0  0
  185.7510  178.8340  141.7450 C   0  0  0  0  0  2  0  0  0  0  0  0
  183.2980  179.0020  144.6270 C   0  0  0  0  0  3  0  0  0  0  0  0
  182.0820  178.8090  143.9680 C   0  0  0  0  0  3  0  0  0  0  0  0
  184.4930  179.0150  143.9020 C   0  0  0  0  0  3  0  0  0  0  0  0
  182.0600  178.6280  142.5810 C   0  0  0  0  0  3  0  0  0  0  0  0
  183.2540  178.6410  141.8540 C   0  0  0  0  0  3  0  0  0  0  0  0
  184.4730  178.8350  142.5140 C   0  0  0  0  0  0  0  0  0  0  0  0
  2  3  2  0  0  0  0
  3  1  1  0  0  0  0
  3  6  1  0  0  0  0
  4  6  1  0  0  0  0
  6 10  1  0  0  0  0
  6  7  1  0  0  0  0
  7  8  1  0  0  0  0
  8  5  1  0  0  0  0
  9  5  1  0  0  0  0
 10  9  1  0  0  0  0
 12 11  2  0  0  0  0
 12  2  1  0  0  0  0
 13 20  2  0  0  0  0
 13 18  1  0  0  0  0
 14 18  1  0  0  0  0
 15 17  1  0  0  0  0
 15 16  1  0  0  0  0
 17 12  1  0  0  0  0
 18 15  2  0  0  0  0
 19 17  2  0  0  0  0
 20 19  1  0  0  0  0
 21 27  1  0  0  0  0
 21  1  1  0  0  0  0
 23 22  1  0  0  0  0
 24 22  2  0  0  0  0
 25 23  2  0  0  0  0
 26 27  2  0  0  0  0
 26 25  1  0  0  0  0
 27 24  1  0  0  0  0
M  END
>  <MODEL>
7

>  <REMARK>
 VINA RESULT:      -7.3      2.723      6.820
  Name = 
  5 active torsions:
  status: ('A' for Active; 'I' for Inactive)
    1  A    between atoms: N_1  and  C_18
    2  A    between atoms: N_2  and  C_19
    3  A    between atoms: C_9  and  C_15
    4  A    between atoms: C_14  and  C_19
    5  A    between atoms: C_18  and  C_26
                            x       y       z     vdW  Elec       q    Type
                         _______ _______ _______ _____ _____    ______ ____

>  <TORSDO>
F 5

$$$$
=
 OpenBabel10262420113D

 27 29  0  0  0  0  0  0  0  0999 V2000
  184.3690  178.2120  142.8010 N   0  0  0  0  0  2  0  0  0  0  0  0
  184.5960  178.9500  140.5790 N   0  0  0  0  0  0  0  0  0  0  0  0
  183.7860  178.6160  141.5520 C   0  0  0  0  0  0  0  0  0  0  0  0
  181.7880  177.3440  140.7640 C   0  0  0  0  0  1  0  0  0  0  0  0
  179.7630  180.1640  141.9570 C   0  0  0  0  0  2  0  0  0  0  0  0
  182.2650  178.6280  141.4370 C   0  0  0  0  0  0  0  0  0  0  0  0
  181.8100  179.8140  140.5600 C   0  0  0  0  0  2  0  0  0  0  0  0
  180.2900  179.9830  140.5400 C   0  0  0  0  0  2  0  0  0  0  0  0
  180.1360  178.9540  142.8030 C   0  0  0  0  0  2  0  0  0  0  0  0
  181.6550  178.7900  142.8400 C   0  0  0  0  0  2  0  0  0  0  0  0
  184.1660  180.5490  138.9090 O   0  0  0  0  0  0  0  0  0  0  0  0
  184.3470  179.3400  139.2170 C   0  0  0  0  0  0  0  0  0  0  0  0
  183.9300  176.3560  136.1570 C   0  0  0  0  0  3  0  0  0  0  0  0
  186.3600  175.8200  136.2050 C   0  0  0  0  0  1  0  0  0  0  0  0
  185.3540  177.5750  137.6990 C   0  0  0  0  0  0  0  0  0  0  0  0
  186.5970  177.8070  138.1960 F   0  0  0  0  0  0  0  0  0  0  0  0
  184.2370  178.3070  138.1600 C   0  0  0  0  0  0  0  0  0  0  0  0
  185.1930  176.6010  136.7010 C   0  0  0  0  0  0  0  0  0  0  0  0
  182.9770  178.0470  137.5960 C   0  0  0  0  0  3  0  0  0  0  0  0
  182.8240  177.0790  136.6030 C   0  0  0  0  0  3  0  0  0  0  0  0
  185.8050  178.0750  143.0160 C   0  0  0  0  0  2  0  0  0  0  0  0
  185.5030  178.7270  146.7360 C   0  0  0  0  0  3  0  0  0  0  0  0
  186.7130  178.2110  147.2070 C   0  0  0  0  0  3  0  0  0  0  0  0
  185.2060  178.6780  145.3710 C   0  0  0  0  0  3  0  0  0  0  0  0
  187.6280  177.6460  146.3120 C   0  0  0  0  0  3  0  0  0  0  0  0
  187.3310  177.5960  144.9460 C   0  0  0  0  0  3  0  0  0  0  0  0
  186.1190  178.1120  144.4740 C   0  0  0  0  0  0  0  0  0  0  0  0
  1 21  1  0  0  0  0
  2  3  2  0  0  0  0
  3  1  1  0  0  0  0
  4  6  1  0  0  0  0
  5  9  1  0  0  0  0
  6  3  1  0  0  0  0
  6 10  1  0  0  0  0
  7  6  1  0  0  0  0
  8  7  1  0  0  0  0
  8  5  1  0  0  0  0
  9 10  1  0  0  0  0
 11 12  2  0  0  0  0
 12  2  1  0  0  0  0
 13 20  2  0  0  0  0
 13 18  1  0  0  0  0
 14 18  1  0  0  0  0
 15 17  1  0  0  0  0
 15 16  1  0  0  0  0
 17 12  1  0  0  0  0
 18 15  2  0  0  0  0
 19 17  2  0  0  0  0
 20 19  1  0  0  0  0
 21 27  1  0  0  0  0
 22 23  1  0  0  0  0
 24 22  2  0  0  0  0
 25 23  2  0  0  0  0
 26 25  1  0  0  0  0
 27 26  2  0  0  0  0
 27 24  1  0  0  0  0
M  END
>  <MODEL>
8

>  <REMARK>
 VINA RESULT:      -7.1      4.299      9.086
  Name = 
  5 active torsions:
  status: ('A' for Active; 'I' for Inactive)
    1  A    between atoms: N_1  and  C_18
    2  A    between atoms: N_2  and  C_19
    3  A    between atoms: C_9  and  C_15
    4  A    between atoms: C_14  and  C_19
    5  A    between atoms: C_18  and  C_26
                            x       y       z     vdW  Elec       q    Type
                         _______ _______ _______ _____ _____    ______ ____

>  <TORSDO>
F 5

$$$$
=
 OpenBabel10262420113D

 27 29  0  0  0  0  0  0  0  0999 V2000
  187.1350  178.7140  140.7030 N   0  0  0  0  0  2  0  0  0  0  0  0
  188.4520  177.4340  142.1740 N   0  0  0  0  0  0  0  0  0  0  0  0
  188.3070  177.9280  140.9690 C   0  0  0  0  0  0  0  0  0  0  0  0
  189.1700  178.8390  138.8110 C   0  0  0  0  0  1  0  0  0  0  0  0
  191.4440  175.9580  138.7280 C   0  0  0  0  0  2  0  0  0  0  0  0
  189.3040  177.7150  139.8350 C   0  0  0  0  0  0  0  0  0  0  0  0
  189.0070  176.3840  139.1110 C   0  0  0  0  0  2  0  0  0  0  0  0
  190.0720  176.0290  138.0710 C   0  0  0  0  0  2  0  0  0  0  0  0
  191.7770  177.2990  139.3690 C   0  0  0  0  0  2  0  0  0  0  0  0
  190.7250  177.6510  140.4210 C   0  0  0  0  0  2  0  0  0  0  0  0
  189.9550  175.6280  142.0800 O   0  0  0  0  0  0  0  0  0  0  0  0
  189.4580  176.5780  142.7430 C   0  0  0  0  0  0  0  0  0  0  0  0
  190.7770  177.0980  146.7960 C   0  0  0  0  0  3  0  0  0  0  0  0
  188.4820  177.6590  147.5800 C   0  0  0  0  0  1  0  0  0  0  0  0
  188.9740  177.1250  145.1720 C   0  0  0  0  0  0  0  0  0  0  0  0
  187.6590  177.3330  144.8990 F   0  0  0  0  0  0  0  0  0  0  0  0
  189.8820  176.7690  144.1500 C   0  0  0  0  0  0  0  0  0  0  0  0
  189.4270  177.2850  146.4910 C   0  0  0  0  0  0  0  0  0  0  0  0
  191.2360  176.5890  144.4800 C   0  0  0  0  0  3  0  0  0  0  0  0
  191.6800  176.7520  145.7920 C   0  0  0  0  0  3  0  0  0  0  0  0
  186.0640  178.9220  141.6720 C   0  0  0  0  0  2  0  0  0  0  0  0
  183.3930  178.9510  138.9850 C   0  0  0  0  0  3  0  0  0  0  0  0
  182.2380  178.7320  139.7400 C   0  0  0  0  0  3  0  0  0  0  0  0
  184.6400  179.0080  139.6140 C   0  0  0  0  0  3  0  0  0  0  0  0
  182.3290  178.5700  141.1270 C   0  0  0  0  0  3  0  0  0  0  0  0
  183.5760  178.6270  141.7570 C   0  0  0  0  0  3  0  0  0  0  0  0
  184.7340  178.8460  141.0010 C   0  0  0  0  0  0  0  0  0  0  0  0
  1  3  1  0  0  0  0
  1 21  1  0  0  0  0
  2 12  1  0  0  0  0
  3  2  2  0  0  0  0
  4  6  1  0  0  0  0
  5  9  1  0  0  0  0
  6 10  1  0  0  0  0
  6  3  1  0  0  0  0
  7  6  1  0  0  0  0
  8  5  1  0  0  0  0
  8  7  1  0  0  0  0
  9 10  1  0  0  0  0
 11 12  2  0  0  0  0
 12 17  1  0  0  0  0
 15 18  2  0  0  0  0
 16 15  1  0  0  0  0
 17 19  2  0  0  0  0
 17 15  1  0  0  0  0
 18 13  1  0  0  0  0
 18 14  1  0  0  0  0
 19 20  1  0  0  0  0
 20 13  2  0  0  0  0
 22 24  2  0  0  0  0
 22 23  1  0  0  0  0
 23 25  2  0  0  0  0
 24 27  1  0  0  0  0
 25 26  1  0  0  0  0
 27 21  1  0  0  0  0
 27 26  2  0  0  0  0
M  END
>  <MODEL>
9

>  <REMARK>
 VINA RESULT:      -7.0      2.539      4.607
  Name = 
  5 active torsions:
  status: ('A' for Active; 'I' for Inactive)
    1  A    between atoms: N_1  and  C_18
    2  A    between atoms: N_2  and  C_19
    3  A    between atoms: C_9  and  C_15
    4  A    between atoms: C_14  and  C_19
    5  A    between atoms: C_18  and  C_26
                            x       y       z     vdW  Elec       q    Type
                         _______ _______ _______ _____ _____    ______ ____

>  <TORSDO>
F 5

$$$$
