=
 OpenBabel10262421073D

 32 37  0  0  1  0  0  0  0  0999 V2000
  186.3650  178.2100  144.9100 C   0  0  0  0  0  0  0  0  0  0  0  0
  188.7070  177.7000  144.5530 C   0  0  0  0  0  0  0  0  0  0  0  0
  185.2440  178.6020  145.8430 C   0  0  0  0  0  2  0  0  0  0  0  0
  187.6600  177.9860  145.4210 C   0  0  0  0  0  0  0  0  0  0  0  0
  190.0550  177.4860  145.1080 C   0  0  0  0  0  0  0  0  0  0  0  0
  190.6820  177.1000  140.0530 C   0  0  0  0  0  2  0  0  0  0  0  0
  188.4710  177.5970  143.1790 C   0  0  0  0  0  0  0  0  0  0  0  0
  191.9880  176.9740  142.0910 O   0  0  0  0  0  0  0  0  0  0  0  0
  190.9520  177.5880  142.8150 C   0  0  2  0  0  3  0  0  0  0  0  0
  187.9250  177.8570  146.9060 C   0  0  1  0  0  3  0  0  0  0  0  0
  191.1120  177.3680  144.2970 C   0  0  0  0  0  3  0  0  0  0  0  0
  189.2380  178.2740  147.2440 O   0  0  0  0  0  0  0  0  0  0  0  0
  186.8950  178.6250  147.7250 C   0  0  0  0  0  2  0  0  0  0  0  0
  187.2130  177.7940  142.6990 N   0  0  0  0  0  0  0  0  0  0  0  0
  186.1660  178.1250  143.5100 C   0  0  0  0  0  0  0  0  0  0  0  0
  189.5850  177.1010  142.2930 C   0  0  2  0  0  3  0  0  0  0  0  0
  190.2000  177.4400  146.6040 C   0  0  1  0  0  3  0  0  0  0  0  0
  185.5000  178.1910  147.2940 C   0  0  0  0  0  2  0  0  0  0  0  0
  191.9510  177.5360  140.7980 C   0  0  0  0  0  2  0  0  0  0  0  0
  189.4480  177.5450  140.8400 C   0  0  0  0  0  2  0  0  0  0  0  0
  183.4420  178.9040  140.9730 C   0  0  0  0  0  0  0  0  0  0  0  0
  183.2870  179.1560  139.6150 O   0  0  0  0  0  1  0  0  0  0  0  0
  184.8450  178.3740  142.8900 C   0  0  0  0  0  0  0  0  0  0  0  0
  182.3170  178.9150  141.8010 C   0  0  0  0  0  3  0  0  0  0  0  0
  183.7060  178.3940  143.7060 C   0  0  0  0  0  3  0  0  0  0  0  0
  184.7110  178.6370  141.5090 C   0  0  0  0  0  0  0  0  0  0  0  0
  186.1030  178.5890  140.4260 Cl  0  0  0  0  0  0  0  0  0  0  0  0
  182.4440  178.6590  143.1730 C   0  0  0  0  0  0  0  0  0  0  0  0
  179.9990  178.6050  143.5460 C   0  0  0  0  0  1  0  0  0  0  0  0
  181.3350  178.6640  144.0250 O   0  0  0  0  0  0  0  0  0  0  0  0
  190.1760  176.0090  147.1330 C   0  0  0  0  0  2  0  0  0  0  0  0
  191.4630  175.6170  147.4970 O   0  0  0  0  0  1  0  0  0  0  0  0
  1  4  1  0  0  0  0
  1  3  1  0  0  0  0
  2  5  1  0  0  0  0
  2  4  2  0  0  0  0
  3 18  1  0  0  0  0
  4 10  1  0  0  0  0
  5 17  1  0  0  0  0
  6 19  1  0  0  0  0
  6 20  1  0  0  0  0
  7  2  1  0  0  0  0
  8  9  1  0  0  0  0
  9 11  1  1  0  0  0
 10 12  1  0  0  0  0
 10 13  1  1  0  0  0
 11  5  2  0  0  0  0
 14  7  2  0  0  0  0
 14 15  1  0  0  0  0
 15  1  2  0  0  0  0
 16 20  1  6  0  0  0
 16  9  1  0  0  0  0
 16  7  1  0  0  0  0
 17 31  1  1  0  0  0
 17 12  1  0  0  0  0
 18 13  1  0  0  0  0
 19  8  1  0  0  0  0
 21 26  2  0  0  0  0
 21 24  1  0  0  0  0
 22 21  1  0  0  0  0
 23 15  1  0  0  0  0
 23 25  2  0  0  0  0
 24 28  2  0  0  0  0
 26 23  1  0  0  0  0
 27 26  1  0  0  0  0
 28 25  1  0  0  0  0
 28 30  1  0  0  0  0
 29 30  1  0  0  0  0
 31 32  1  0  0  0  0
M  END
>  <MODEL>
1

>  <REMARK>
 VINA RESULT:     -10.5      0.000      0.000
  Name = 
  3 active torsions:
  status: ('A' for Active; 'I' for Inactive)
    1  A    between atoms: C_13  and  C_29
    2  A    between atoms: O_15  and  C_26
    3  A    between atoms: C_16  and  C_27
                            x       y       z     vdW  Elec       q    Type
                         _______ _______ _______ _____ _____    ______ ____

>  <TORSDO>
F 3

$$$$
=
 OpenBabel10262421073D

 32 37  0  0  1  0  0  0  0  0999 V2000
  189.3920  177.3020  143.4410 C   0  0  0  0  0  0  0  0  0  0  0  0
  187.5600  177.7830  144.9520 C   0  0  0  0  0  0  0  0  0  0  0  0
  190.7810  176.7540  143.2070 C   0  0  0  0  0  2  0  0  0  0  0  0
  188.8650  177.3490  144.7470 C   0  0  0  0  0  0  0  0  0  0  0  0
  187.0250  177.8080  146.3240 C   0  0  0  0  0  0  0  0  0  0  0  0
  183.1160  179.3160  143.4010 C   0  0  0  0  0  2  0  0  0  0  0  0
  186.7840  178.2080  143.8690 C   0  0  0  0  0  0  0  0  0  0  0  0
  183.6300  178.9170  145.7360 O   0  0  0  0  0  0  0  0  0  0  0  0
  184.7820  178.1970  145.3790 C   0  0  2  0  0  3  0  0  0  0  0  0
  189.7290  177.1240  145.9700 C   0  0  1  0  0  3  0  0  0  0  0  0
  185.7300  178.0650  146.5420 C   0  0  0  0  0  3  0  0  0  0  0  0
  188.9820  176.5860  147.0500 O   0  0  0  0  0  0  0  0  0  0  0  0
  190.9220  176.2320  145.6530 C   0  0  0  0  0  2  0  0  0  0  0  0
  187.3110  178.1780  142.6150 N   0  0  0  0  0  0  0  0  0  0  0  0
  188.5700  177.7140  142.3630 C   0  0  0  0  0  0  0  0  0  0  0  0
  185.4480  178.8470  144.1500 C   0  0  2  0  0  3  0  0  0  0  0  0
  187.9690  177.5040  147.4540 C   0  0  1  0  0  3  0  0  0  0  0  0
  191.6650  176.8100  144.4540 C   0  0  0  0  0  2  0  0  0  0  0  0
  182.6800  178.6690  144.7230 C   0  0  0  0  0  2  0  0  0  0  0  0
  184.4740  178.7530  142.9780 C   0  0  0  0  0  2  0  0  0  0  0  0
  188.6590  177.8960  138.5660 C   0  0  0  0  0  0  0  0  0  0  0  0
  187.8370  178.2140  137.4910 O   0  0  0  0  0  1  0  0  0  0  0  0
  189.0370  177.6690  140.9600 C   0  0  0  0  0  0  0  0  0  0  0  0
  189.9710  177.4840  138.3210 C   0  0  0  0  0  3  0  0  0  0  0  0
  190.3490  177.2520  140.6940 C   0  0  0  0  0  3  0  0  0  0  0  0
  188.1820  177.9880  139.8820 C   0  0  0  0  0  0  0  0  0  0  0  0
  186.5330  178.5540  140.1560 Cl  0  0  0  0  0  0  0  0  0  0  0  0
  190.8230  177.1610  139.3850 C   0  0  0  0  0  0  0  0  0  0  0  0
  192.6320  176.3890  137.8840 C   0  0  0  0  0  1  0  0  0  0  0  0
  192.1410  176.7450  139.1690 O   0  0  0  0  0  0  0  0  0  0  0  0
  188.5460  178.7760  148.0690 C   0  0  0  0  0  2  0  0  0  0  0  0
  189.4750  178.4460  149.0540 O   0  0  0  0  0  1  0  0  0  0  0  0
  1  4  1  0  0  0  0
  2  5  1  0  0  0  0
  3  1  1  0  0  0  0
  3 18  1  0  0  0  0
  4  2  2  0  0  0  0
  4 10  1  0  0  0  0
  5 11  2  0  0  0  0
  5 17  1  0  0  0  0
  6 19  1  0  0  0  0
  7 16  1  0  0  0  0
  7  2  1  0  0  0  0
  9  8  1  0  0  0  0
  9 11  1  1  0  0  0
 10 13  1  6  0  0  0
 10 12  1  0  0  0  0
 12 17  1  0  0  0  0
 14  7  2  0  0  0  0
 15 14  1  0  0  0  0
 15  1  2  0  0  0  0
 16 20  1  6  0  0  0
 16  9  1  0  0  0  0
 17 31  1  6  0  0  0
 18 13  1  0  0  0  0
 19  8  1  0  0  0  0
 20  6  1  0  0  0  0
 21 26  1  0  0  0  0
 22 21  1  0  0  0  0
 23 15  1  0  0  0  0
 24 21  2  0  0  0  0
 24 28  1  0  0  0  0
 25 23  1  0  0  0  0
 26 27  1  0  0  0  0
 26 23  2  0  0  0  0
 28 25  2  0  0  0  0
 29 30  1  0  0  0  0
 30 28  1  0  0  0  0
 31 32  1  0  0  0  0
M  END
>  <MODEL>
2

>  <REMARK>
 VINA RESULT:     -10.3      1.707      6.227
  Name = 
  3 active torsions:
  status: ('A' for Active; 'I' for Inactive)
    1  A    between atoms: C_13  and  C_29
    2  A    between atoms: O_15  and  C_26
    3  A    between atoms: C_16  and  C_27
                            x       y       z     vdW  Elec       q    Type
                         _______ _______ _______ _____ _____    ______ ____

>  <TORSDO>
F 3

$$$$
=
 OpenBabel10262421073D

 32 37  0  0  1  0  0  0  0  0999 V2000
  187.6080  177.9910  142.1430 C   0  0  0  0  0  0  0  0  0  0  0  0
  185.4080  178.3640  141.1970 C   0  0  0  0  0  0  0  0  0  0  0  0
  189.1060  177.9050  141.9670 C   0  0  0  0  0  2  0  0  0  0  0  0
  186.7790  178.2090  141.0240 C   0  0  0  0  0  0  0  0  0  0  0  0
  184.5640  178.6070  140.0150 C   0  0  0  0  0  0  0  0  0  0  0  0
  181.3190  178.7740  143.9570 C   0  0  0  0  0  2  0  0  0  0  0  0
  184.8480  178.2680  142.4740 C   0  0  0  0  0  0  0  0  0  0  0  0
  181.3060  178.9940  141.5440 O   0  0  0  0  0  0  0  0  0  0  0  0
  182.7010  179.1580  141.5320 C   0  0  2  0  0  3  0  0  0  0  0  0
  187.2980  178.0920  139.6060 C   0  0  1  0  0  3  0  0  0  0  0  0
  183.2710  178.9200  140.1580 C   0  0  0  0  0  3  0  0  0  0  0  0
  186.5770  178.9250  138.7120 O   0  0  0  0  0  0  0  0  0  0  0  0
  188.7880  178.3960  139.5320 C   0  0  0  0  0  2  0  0  0  0  0  0
  185.6550  178.0360  143.5450 N   0  0  0  0  0  0  0  0  0  0  0  0
  187.0100  177.9270  143.4260 C   0  0  0  0  0  0  0  0  0  0  0  0
  183.3450  178.2510  142.6000 C   0  0  2  0  0  3  0  0  0  0  0  0
  185.2100  178.5250  138.6600 C   0  0  1  0  0  3  0  0  0  0  0  0
  189.5200  177.5240  140.5440 C   0  0  0  0  0  2  0  0  0  0  0  0
  180.8500  179.5840  142.7410 C   0  0  0  0  0  2  0  0  0  0  0  0
  182.8470  178.7060  143.9690 C   0  0  0  0  0  2  0  0  0  0  0  0
  188.1010  177.8490  147.0690 C   0  0  0  0  0  0  0  0  0  0  0  0
  187.6040  178.1170  148.3390 O   0  0  0  0  0  1  0  0  0  0  0  0
  187.8120  177.7290  144.6540 C   0  0  0  0  0  0  0  0  0  0  0  0
  189.4180  177.4070  146.9320 C   0  0  0  0  0  3  0  0  0  0  0  0
  189.1380  177.2910  144.5360 C   0  0  0  0  0  3  0  0  0  0  0  0
  187.2910  178.0160  145.9350 C   0  0  0  0  0  0  0  0  0  0  0  0
  185.6180  178.5360  146.1500 Cl  0  0  0  0  0  0  0  0  0  0  0  0
  189.9440  177.1240  145.6640 C   0  0  0  0  0  0  0  0  0  0  0  0
  191.9840  176.0230  146.5270 C   0  0  0  0  0  1  0  0  0  0  0  0
  191.2590  176.6810  145.4970 O   0  0  0  0  0  0  0  0  0  0  0  0
  185.0280  177.1480  138.0270 C   0  0  0  0  0  2  0  0  0  0  0  0
  185.4200  177.1870  136.6900 O   0  0  0  0  0  1  0  0  0  0  0  0
  1 15  1  0  0  0  0
  2  7  2  0  0  0  0
  3  1  1  0  0  0  0
  4  2  1  0  0  0  0
  4  1  2  0  0  0  0
  5 11  2  0  0  0  0
  5  2  1  0  0  0  0
  6 20  1  0  0  0  0
  7 16  1  0  0  0  0
  7 14  1  0  0  0  0
  8 19  1  0  0  0  0
  9 11  1  6  0  0  0
  9  8  1  0  0  0  0
  9 16  1  0  0  0  0
 10 13  1  1  0  0  0
 10  4  1  0  0  0  0
 12 10  1  0  0  0  0
 13 18  1  0  0  0  0
 15 14  2  0  0  0  0
 15 23  1  0  0  0  0
 16 20  1  1  0  0  0
 17 31  1  1  0  0  0
 17 12  1  0  0  0  0
 17  5  1  0  0  0  0
 18  3  1  0  0  0  0
 19  6  1  0  0  0  0
 21 22  1  0  0  0  0
 23 26  1  0  0  0  0
 24 21  1  0  0  0  0
 25 23  2  0  0  0  0
 25 28  1  0  0  0  0
 26 27  1  0  0  0  0
 26 21  2  0  0  0  0
 28 24  2  0  0  0  0
 30 28  1  0  0  0  0
 30 29  1  0  0  0  0
 32 31  1  0  0  0  0
M  END
>  <MODEL>
3

>  <REMARK>
 VINA RESULT:      -9.7      2.072      8.006
  Name = 
  3 active torsions:
  status: ('A' for Active; 'I' for Inactive)
    1  A    between atoms: C_13  and  C_29
    2  A    between atoms: O_15  and  C_26
    3  A    between atoms: C_16  and  C_27
                            x       y       z     vdW  Elec       q    Type
                         _______ _______ _______ _____ _____    ______ ____

>  <TORSDO>
F 3

$$$$
=
 OpenBabel10262421073D

 32 37  0  0  1  0  0  0  0  0999 V2000
  187.1250  178.1390  141.7090 C   0  0  0  0  0  0  0  0  0  0  0  0
  185.3470  178.3880  140.0820 C   0  0  0  0  0  0  0  0  0  0  0  0
  188.6010  178.0750  142.0300 C   0  0  0  0  0  2  0  0  0  0  0  0
  186.7010  178.2530  140.3700 C   0  0  0  0  0  0  0  0  0  0  0  0
  184.9280  178.5220  138.6760 C   0  0  0  0  0  0  0  0  0  0  0  0
  180.5890  178.9060  141.3440 C   0  0  0  0  0  2  0  0  0  0  0  0
  184.4060  178.3740  141.1150 C   0  0  0  0  0  0  0  0  0  0  0  0
  181.3530  178.9450  139.0440 O   0  0  0  0  0  0  0  0  0  0  0  0
  182.6780  179.1400  139.4680 C   0  0  2  0  0  3  0  0  0  0  0  0
  187.6480  178.0430  139.2080 C   0  0  1  0  0  3  0  0  0  0  0  0
  183.6590  178.8140  138.3720 C   0  0  0  0  0  3  0  0  0  0  0  0
  187.2540  178.7890  138.0670 O   0  0  0  0  0  0  0  0  0  0  0  0
  189.0840  178.3750  139.5910 C   0  0  0  0  0  2  0  0  0  0  0  0
  184.8260  178.2430  142.4030 N   0  0  0  0  0  0  0  0  0  0  0  0
  186.1470  178.1570  142.7340 C   0  0  0  0  0  0  0  0  0  0  0  0
  182.9430  178.3320  140.7530 C   0  0  2  0  0  3  0  0  0  0  0  0
  185.9760  178.3550  137.6110 C   0  0  1  0  0  3  0  0  0  0  0  0
  189.4500  177.5990  140.8500 C   0  0  0  0  0  2  0  0  0  0  0  0
  180.5370  179.6120  139.9810 C   0  0  0  0  0  2  0  0  0  0  0  0
  182.0320  178.8760  141.8500 C   0  0  0  0  0  2  0  0  0  0  0  0
  186.0990  178.5560  146.5160 C   0  0  0  0  0  0  0  0  0  0  0  0
  185.3060  179.0910  147.5240 O   0  0  0  0  0  1  0  0  0  0  0  0
  186.5110  178.0710  144.1660 C   0  0  0  0  0  0  0  0  0  0  0  0
  187.3060  177.9390  146.8530 C   0  0  0  0  0  3  0  0  0  0  0  0
  187.7210  177.4600  144.5230 C   0  0  0  0  0  3  0  0  0  0  0  0
  185.6940  178.6290  145.1740 C   0  0  0  0  0  0  0  0  0  0  0  0
  184.1430  179.3780  144.7890 Cl  0  0  0  0  0  0  0  0  0  0  0  0
  188.1230  177.3870  145.8580 C   0  0  0  0  0  0  0  0  0  0  0  0
  190.0750  177.0640  147.3430 C   0  0  0  0  0  1  0  0  0  0  0  0
  189.3360  176.7640  146.1670 O   0  0  0  0  0  0  0  0  0  0  0  0
  186.0050  176.9300  137.0630 C   0  0  0  0  0  2  0  0  0  0  0  0
  186.8180  176.8740  135.9320 O   0  0  0  0  0  1  0  0  0  0  0  0
  1  3  1  0  0  0  0
  1 15  1  0  0  0  0
  2  4  1  0  0  0  0
  2  7  2  0  0  0  0
  4  1  2  0  0  0  0
  5  2  1  0  0  0  0
  6 20  1  0  0  0  0
  7 14  1  0  0  0  0
  8  9  1  0  0  0  0
  8 19  1  0  0  0  0
  9 11  1  6  0  0  0
  9 16  1  0  0  0  0
 10 13  1  1  0  0  0
 10  4  1  0  0  0  0
 11  5  2  0  0  0  0
 12 10  1  0  0  0  0
 13 18  1  0  0  0  0
 14 15  2  0  0  0  0
 15 23  1  0  0  0  0
 16  7  1  0  0  0  0
 16 20  1  1  0  0  0
 17 31  1  1  0  0  0
 17 12  1  0  0  0  0
 17  5  1  0  0  0  0
 18  3  1  0  0  0  0
 19  6  1  0  0  0  0
 21 24  1  0  0  0  0
 21 22  1  0  0  0  0
 23 25  2  0  0  0  0
 23 26  1  0  0  0  0
 25 28  1  0  0  0  0
 26 21  2  0  0  0  0
 27 26  1  0  0  0  0
 28 30  1  0  0  0  0
 28 24  2  0  0  0  0
 30 29  1  0  0  0  0
 32 31  1  0  0  0  0
M  END
>  <MODEL>
4

>  <REMARK>
 VINA RESULT:      -9.6      2.503      7.788
  Name = 
  3 active torsions:
  status: ('A' for Active; 'I' for Inactive)
    1  A    between atoms: C_13  and  C_29
    2  A    between atoms: O_15  and  C_26
    3  A    between atoms: C_16  and  C_27
                            x       y       z     vdW  Elec       q    Type
                         _______ _______ _______ _____ _____    ______ ____

>  <TORSDO>
F 3

$$$$
=
 OpenBabel10262421073D

 32 37  0  0  1  0  0  0  0  0999 V2000
  189.5980  177.5990  142.8110 C   0  0  0  0  0  0  0  0  0  0  0  0
  187.6830  178.0120  141.3840 C   0  0  0  0  0  0  0  0  0  0  0  0
  191.0930  177.4600  142.9800 C   0  0  0  0  0  2  0  0  0  0  0  0
  189.0510  177.8090  141.5290 C   0  0  0  0  0  0  0  0  0  0  0  0
  187.1360  178.2470  140.0370 C   0  0  0  0  0  0  0  0  0  0  0  0
  183.0950  178.6280  143.1380 C   0  0  0  0  0  2  0  0  0  0  0  0
  186.8460  177.9700  142.5030 C   0  0  0  0  0  0  0  0  0  0  0  0
  183.6340  178.7790  140.7800 O   0  0  0  0  0  0  0  0  0  0  0  0
  185.0010  178.8990  141.0810 C   0  0  2  0  0  3  0  0  0  0  0  0
  189.8710  177.6350  140.2680 C   0  0  1  0  0  3  0  0  0  0  0  0
  185.8570  178.6040  139.8770 C   0  0  0  0  0  3  0  0  0  0  0  0
  189.4020  178.4640  139.2170 O   0  0  0  0  0  0  0  0  0  0  0  0
  191.3500  177.8910  140.5260 C   0  0  0  0  0  2  0  0  0  0  0  0
  187.3820  177.7450  143.7340 N   0  0  0  0  0  0  0  0  0  0  0  0
  188.7240  177.5900  143.9270 C   0  0  0  0  0  0  0  0  0  0  0  0
  185.3550  178.0040  142.2860 C   0  0  2  0  0  3  0  0  0  0  0  0
  188.0680  178.1060  138.8650 C   0  0  1  0  0  3  0  0  0  0  0  0
  191.8030  177.0260  141.6970 C   0  0  0  0  0  2  0  0  0  0  0  0
  182.9420  179.4170  141.8300 C   0  0  0  0  0  2  0  0  0  0  0  0
  184.5770  178.5130  143.4970 C   0  0  0  0  0  2  0  0  0  0  0  0
  188.9570  177.5710  147.7220 C   0  0  0  0  0  0  0  0  0  0  0  0
  188.1920  177.8780  148.8410 O   0  0  0  0  0  1  0  0  0  0  0  0
  189.2210  177.4030  145.3080 C   0  0  0  0  0  0  0  0  0  0  0  0
  190.2590  177.0970  147.8960 C   0  0  0  0  0  3  0  0  0  0  0  0
  190.5280  176.9340  145.5020 C   0  0  0  0  0  3  0  0  0  0  0  0
  188.4300  177.7300  146.4320 C   0  0  0  0  0  0  0  0  0  0  0  0
  186.7660  178.2890  146.2510 Cl  0  0  0  0  0  0  0  0  0  0  0  0
  191.0510  176.7760  146.7860 C   0  0  0  0  0  0  0  0  0  0  0  0
  192.8060  175.6280  148.1000 C   0  0  0  0  0  1  0  0  0  0  0  0
  192.3580  176.3010  146.9310 O   0  0  0  0  0  0  0  0  0  0  0  0
  187.9830  176.7180  138.2370 C   0  0  0  0  0  2  0  0  0  0  0  0
  187.3680  176.8000  136.9880 O   0  0  0  0  0  1  0  0  0  0  0  0
  1  3  1  0  0  0  0
  1 15  1  0  0  0  0
  2  4  1  0  0  0  0
  2  7  2  0  0  0  0
  4  1  2  0  0  0  0
  5  2  1  0  0  0  0
  6 20  1  0  0  0  0
  7 14  1  0  0  0  0
  8  9  1  0  0  0  0
  8 19  1  0  0  0  0
  9 11  1  6  0  0  0
  9 16  1  0  0  0  0
 10 13  1  1  0  0  0
 10  4  1  0  0  0  0
 11  5  2  0  0  0  0
 12 10  1  0  0  0  0
 13 18  1  0  0  0  0
 14 15  2  0  0  0  0
 15 23  1  0  0  0  0
 16  7  1  0  0  0  0
 16 20  1  1  0  0  0
 17 31  1  1  0  0  0
 17 12  1  0  0  0  0
 17  5  1  0  0  0  0
 18  3  1  0  0  0  0
 19  6  1  0  0  0  0
 21 24  1  0  0  0  0
 21 22  1  0  0  0  0
 23 25  2  0  0  0  0
 23 26  1  0  0  0  0
 25 28  1  0  0  0  0
 26 21  2  0  0  0  0
 27 26  1  0  0  0  0
 28 30  1  0  0  0  0
 28 24  2  0  0  0  0
 30 29  1  0  0  0  0
 32 31  1  0  0  0  0
M  END
>  <MODEL>
5

>  <REMARK>
 VINA RESULT:      -9.5      2.102      7.707
  Name = 
  3 active torsions:
  status: ('A' for Active; 'I' for Inactive)
    1  A    between atoms: C_13  and  C_29
    2  A    between atoms: O_15  and  C_26
    3  A    between atoms: C_16  and  C_27
                            x       y       z     vdW  Elec       q    Type
                         _______ _______ _______ _____ _____    ______ ____

>  <TORSDO>
F 3

$$$$
=
 OpenBabel10262421073D

 32 37  0  0  1  0  0  0  0  0999 V2000
  182.6280  178.7110  139.6080 C   0  0  0  0  0  0  0  0  0  0  0  0
  182.5310  178.9660  142.0160 C   0  0  0  0  0  0  0  0  0  0  0  0
  181.9980  178.9110  138.2490 C   0  0  0  0  0  2  0  0  0  0  0  0
  181.9220  179.0790  140.7720 C   0  0  0  0  0  0  0  0  0  0  0  0
  181.7800  179.3720  143.2170 C   0  0  0  0  0  0  0  0  0  0  0  0
  186.3700  177.9960  144.9870 C   0  0  0  0  0  2  0  0  0  0  0  0
  183.8280  178.4540  142.1180 C   0  0  0  0  0  0  0  0  0  0  0  0
  184.2480  178.8310  145.8080 O   0  0  0  0  0  0  0  0  0  0  0  0
  183.8730  179.2090  144.5080 C   0  0  2  0  0  3  0  0  0  0  0  0
  180.4460  179.4180  140.7420 C   0  0  1  0  0  3  0  0  0  0  0  0
  182.3860  179.4300  144.4080 C   0  0  0  0  0  3  0  0  0  0  0  0
  180.0960  180.3310  141.7700 O   0  0  0  0  0  0  0  0  0  0  0  0
  180.0270  179.9620  139.3820 C   0  0  0  0  0  2  0  0  0  0  0  0
  184.4930  178.0830  140.9890 N   0  0  0  0  0  0  0  0  0  0  0  0
  183.9500  178.2220  139.7450 C   0  0  0  0  0  0  0  0  0  0  0  0
  184.3830  178.1700  143.4900 C   0  0  2  0  0  3  0  0  0  0  0  0
  180.3350  179.7490  143.0480 C   0  0  1  0  0  3  0  0  0  0  0  0
  180.4710  178.9830  138.3020 C   0  0  0  0  0  2  0  0  0  0  0  0
  185.6450  179.0100  145.8830 C   0  0  0  0  0  2  0  0  0  0  0  0
  185.9080  178.1680  143.5390 C   0  0  0  0  0  2  0  0  0  0  0  0
  185.3370  176.3220  136.7570 C   0  0  0  0  0  0  0  0  0  0  0  0
  185.0960  175.1710  136.0170 O   0  0  0  0  0  1  0  0  0  0  0  0
  184.7690  177.8410  138.5720 C   0  0  0  0  0  0  0  0  0  0  0  0
  186.4130  177.1420  136.4090 C   0  0  0  0  0  3  0  0  0  0  0  0
  185.8570  178.6490  138.2120 C   0  0  0  0  0  3  0  0  0  0  0  0
  184.5110  176.6620  137.8390 C   0  0  0  0  0  0  0  0  0  0  0  0
  183.1350  175.6250  138.2220 Cl  0  0  0  0  0  0  0  0  0  0  0  0
  186.6780  178.3110  137.1350 C   0  0  0  0  0  0  0  0  0  0  0  0
  189.0530  178.9700  137.3430 C   0  0  0  0  0  1  0  0  0  0  0  0
  187.7480  179.1500  136.8100 O   0  0  0  0  0  0  0  0  0  0  0  0
  179.4050  178.5730  143.3370 C   0  0  0  0  0  2  0  0  0  0  0  0
  178.9450  178.6450  144.6510 O   0  0  0  0  0  1  0  0  0  0  0  0
  1 15  2  0  0  0  0
  1  4  1  0  0  0  0
  2  7  1  0  0  0  0
  2  5  1  0  0  0  0
  3 18  1  0  0  0  0
  3  1  1  0  0  0  0
  4  2  2  0  0  0  0
  5 11  2  0  0  0  0
  6 19  1  0  0  0  0
  7 16  1  0  0  0  0
  8 19  1  0  0  0  0
  9 11  1  1  0  0  0
  9  8  1  0  0  0  0
 10 13  1  6  0  0  0
 10  4  1  0  0  0  0
 10 12  1  0  0  0  0
 12 17  1  0  0  0  0
 14  7  2  0  0  0  0
 15 14  1  0  0  0  0
 16 20  1  6  0  0  0
 16  9  1  0  0  0  0
 17  5  1  0  0  0  0
 17 31  1  6  0  0  0
 18 13  1  0  0  0  0
 20  6  1  0  0  0  0
 21 26  1  0  0  0  0
 22 21  1  0  0  0  0
 23 15  1  0  0  0  0
 24 21  2  0  0  0  0
 24 28  1  0  0  0  0
 25 23  1  0  0  0  0
 26 27  1  0  0  0  0
 26 23  2  0  0  0  0
 28 25  2  0  0  0  0
 30 28  1  0  0  0  0
 30 29  1  0  0  0  0
 31 32  1  0  0  0  0
M  END
>  <MODEL>
6

>  <REMARK>
 VINA RESULT:      -9.4      3.548      8.009
  Name = 
  3 active torsions:
  status: ('A' for Active; 'I' for Inactive)
    1  A    between atoms: C_13  and  C_29
    2  A    between atoms: O_15  and  C_26
    3  A    between atoms: C_16  and  C_27
                            x       y       z     vdW  Elec       q    Type
                         _______ _______ _______ _____ _____    ______ ____

>  <TORSDO>
F 3

$$$$
=
 OpenBabel10262421073D

 32 37  0  0  1  0  0  0  0  0999 V2000
  185.9690  178.3480  142.8250 C   0  0  0  0  0  0  0  0  0  0  0  0
  185.9280  178.4030  140.4020 C   0  0  0  0  0  0  0  0  0  0  0  0
  185.2310  178.3820  144.1430 C   0  0  0  0  0  2  0  0  0  0  0  0
  185.2600  178.5090  141.6170 C   0  0  0  0  0  0  0  0  0  0  0  0
  185.1640  178.5590  139.1530 C   0  0  0  0  0  0  0  0  0  0  0  0
  189.9190  177.5030  137.6160 C   0  0  0  0  0  2  0  0  0  0  0  0
  187.3060  178.1720  140.3780 C   0  0  0  0  0  0  0  0  0  0  0  0
  187.7360  177.9720  136.6750 O   0  0  0  0  0  0  0  0  0  0  0  0
  187.1270  177.7270  137.9170 C   0  0  2  0  0  3  0  0  0  0  0  0
  183.8230  178.9860  141.5880 C   0  0  1  0  0  3  0  0  0  0  0  0
  185.7370  178.3040  137.9720 C   0  0  0  0  0  3  0  0  0  0  0  0
  183.1270  178.4880  140.4560 O   0  0  0  0  0  0  0  0  0  0  0  0
  183.0870  178.6180  142.8690 C   0  0  0  0  0  2  0  0  0  0  0  0
  187.9840  178.0390  141.5510 N   0  0  0  0  0  0  0  0  0  0  0  0
  187.3600  178.0880  142.7640 C   0  0  0  0  0  0  0  0  0  0  0  0
  188.0250  178.2510  139.0560 C   0  0  2  0  0  3  0  0  0  0  0  0
  183.7230  178.9760  139.2570 C   0  0  1  0  0  3  0  0  0  0  0  0
  183.8930  179.1190  144.0620 C   0  0  0  0  0  2  0  0  0  0  0  0
  188.8420  177.1010  136.6000 C   0  0  0  0  0  2  0  0  0  0  0  0
  189.3320  177.4630  139.0280 C   0  0  0  0  0  2  0  0  0  0  0  0
  190.2980  177.4930  145.1040 C   0  0  0  0  0  0  0  0  0  0  0  0
  191.6810  177.3510  145.0690 O   0  0  0  0  0  1  0  0  0  0  0  0
  188.1720  177.8780  143.9840 C   0  0  0  0  0  0  0  0  0  0  0  0
  189.6350  177.4030  146.3290 C   0  0  0  0  0  3  0  0  0  0  0  0
  187.5230  177.7790  145.2220 C   0  0  0  0  0  3  0  0  0  0  0  0
  189.5750  177.7270  143.9250 C   0  0  0  0  0  0  0  0  0  0  0  0
  190.4510  177.8780  142.4000 Cl  0  0  0  0  0  0  0  0  0  0  0  0
  188.2430  177.5470  146.3950 C   0  0  0  0  0  0  0  0  0  0  0  0
  188.1180  177.8780  148.8430 C   0  0  0  0  0  1  0  0  0  0  0  0
  187.5530  177.4610  147.6080 O   0  0  0  0  0  0  0  0  0  0  0  0
  183.5560  180.4840  139.0930 C   0  0  0  0  0  2  0  0  0  0  0  0
  182.2520  180.7760  138.6970 O   0  0  0  0  0  1  0  0  0  0  0  0
  1  3  1  0  0  0  0
  2  4  1  0  0  0  0
  4  1  2  0  0  0  0
  5 17  1  0  0  0  0
  5  2  1  0  0  0  0
  6 20  1  0  0  0  0
  7  2  2  0  0  0  0
  7 14  1  0  0  0  0
  8  9  1  0  0  0  0
  9 11  1  6  0  0  0
  9 16  1  0  0  0  0
 10  4  1  0  0  0  0
 10 13  1  1  0  0  0
 11  5  2  0  0  0  0
 12 10  1  0  0  0  0
 13 18  1  0  0  0  0
 14 15  2  0  0  0  0
 15  1  1  0  0  0  0
 15 23  1  0  0  0  0
 16 20  1  1  0  0  0
 16  7  1  0  0  0  0
 17 31  1  1  0  0  0
 17 12  1  0  0  0  0
 18  3  1  0  0  0  0
 19  8  1  0  0  0  0
 19  6  1  0  0  0  0
 21 24  1  0  0  0  0
 22 21  1  0  0  0  0
 23 25  2  0  0  0  0
 24 28  2  0  0  0  0
 25 28  1  0  0  0  0
 26 23  1  0  0  0  0
 26 21  2  0  0  0  0
 27 26  1  0  0  0  0
 28 30  1  0  0  0  0
 30 29  1  0  0  0  0
 32 31  1  0  0  0  0
M  END
>  <MODEL>
7

>  <REMARK>
 VINA RESULT:      -9.3      2.279      6.744
  Name = 
  3 active torsions:
  status: ('A' for Active; 'I' for Inactive)
    1  A    between atoms: C_13  and  C_29
    2  A    between atoms: O_15  and  C_26
    3  A    between atoms: C_16  and  C_27
                            x       y       z     vdW  Elec       q    Type
                         _______ _______ _______ _____ _____    ______ ____

>  <TORSDO>
F 3

$$$$
=
 OpenBabel10262421073D

 32 37  0  0  1  0  0  0  0  0999 V2000
  189.1540  177.6280  142.8660 C   0  0  0  0  0  0  0  0  0  0  0  0
  188.0570  177.8800  140.7190 C   0  0  0  0  0  0  0  0  0  0  0  0
  190.4210  177.4520  143.6700 C   0  0  0  0  0  2  0  0  0  0  0  0
  189.2120  177.6430  141.4570 C   0  0  0  0  0  0  0  0  0  0  0  0
  188.1450  177.9070  139.2490 C   0  0  0  0  0  0  0  0  0  0  0  0
  183.2560  178.9940  140.2580 C   0  0  0  0  0  2  0  0  0  0  0  0
  186.8350  178.0670  141.3710 C   0  0  0  0  0  0  0  0  0  0  0  0
  184.7320  178.7170  138.3560 O   0  0  0  0  0  0  0  0  0  0  0  0
  185.8580  178.8240  139.1890 C   0  0  2  0  0  3  0  0  0  0  0  0
  190.4530  177.2190  140.7000 C   0  0  1  0  0  3  0  0  0  0  0  0
  187.0940  178.2890  138.5150 C   0  0  0  0  0  3  0  0  0  0  0  0
  190.5550  177.8780  139.4480 O   0  0  0  0  0  0  0  0  0  0  0  0
  191.7130  177.4470  141.5250 C   0  0  0  0  0  2  0  0  0  0  0  0
  186.7880  178.0300  142.7310 N   0  0  0  0  0  0  0  0  0  0  0  0
  187.9040  177.8490  143.4950 C   0  0  0  0  0  0  0  0  0  0  0  0
  185.5800  178.1320  140.5390 C   0  0  2  0  0  3  0  0  0  0  0  0
  189.4540  177.5260  138.6150 C   0  0  1  0  0  3  0  0  0  0  0  0
  191.5420  176.7740  142.8820 C   0  0  0  0  0  2  0  0  0  0  0  0
  183.7460  179.5560  138.9160 C   0  0  0  0  0  2  0  0  0  0  0  0
  184.4360  178.8750  141.2240 C   0  0  0  0  0  2  0  0  0  0  0  0
  186.4760  178.3010  146.9900 C   0  0  0  0  0  0  0  0  0  0  0  0
  185.2910  178.6590  147.6230 O   0  0  0  0  0  1  0  0  0  0  0  0
  187.7630  177.8770  144.9680 C   0  0  0  0  0  0  0  0  0  0  0  0
  187.5940  177.9850  147.7660 C   0  0  0  0  0  3  0  0  0  0  0  0
  188.8760  177.5690  145.7620 C   0  0  0  0  0  3  0  0  0  0  0  0
  186.5520  178.2520  145.5900 C   0  0  0  0  0  0  0  0  0  0  0  0
  185.1070  178.6160  144.6430 Cl  0  0  0  0  0  0  0  0  0  0  0  0
  188.8000  177.6170  147.1550 C   0  0  0  0  0  0  0  0  0  0  0  0
  191.1070  176.7400  147.3270 C   0  0  0  0  0  1  0  0  0  0  0  0
  189.9350  177.2960  147.9070 O   0  0  0  0  0  0  0  0  0  0  0  0
  189.4780  176.0570  138.2040 C   0  0  0  0  0  2  0  0  0  0  0  0
  190.6020  175.8040  137.4190 O   0  0  0  0  0  1  0  0  0  0  0  0
  1 15  1  0  0  0  0
  1  3  1  0  0  0  0
  2  7  2  0  0  0  0
  2  4  1  0  0  0  0
  4  1  2  0  0  0  0
  5  2  1  0  0  0  0
  6 20  1  0  0  0  0
  7 14  1  0  0  0  0
  8 19  1  0  0  0  0
  8  9  1  0  0  0  0
  9 11  1  6  0  0  0
  9 16  1  0  0  0  0
 10  4  1  0  0  0  0
 10 13  1  1  0  0  0
 11  5  2  0  0  0  0
 12 10  1  0  0  0  0
 13 18  1  0  0  0  0
 14 15  2  0  0  0  0
 15 23  1  0  0  0  0
 16 20  1  1  0  0  0
 16  7  1  0  0  0  0
 17 31  1  1  0  0  0
 17  5  1  0  0  0  0
 17 12  1  0  0  0  0
 18  3  1  0  0  0  0
 19  6  1  0  0  0  0
 21 22  1  0  0  0  0
 21 24  1  0  0  0  0
 23 26  1  0  0  0  0
 23 25  2  0  0  0  0
 25 28  1  0  0  0  0
 26 21  2  0  0  0  0
 27 26  1  0  0  0  0
 28 24  2  0  0  0  0
 28 30  1  0  0  0  0
 29 30  1  0  0  0  0
 32 31  1  0  0  0  0
M  END
>  <MODEL>
8

>  <REMARK>
 VINA RESULT:      -9.2      2.039      6.836
  Name = 
  3 active torsions:
  status: ('A' for Active; 'I' for Inactive)
    1  A    between atoms: C_13  and  C_29
    2  A    between atoms: O_15  and  C_26
    3  A    between atoms: C_16  and  C_27
                            x       y       z     vdW  Elec       q    Type
                         _______ _______ _______ _____ _____    ______ ____

>  <TORSDO>
F 3

$$$$
=
 OpenBabel10262421073D

 32 37  0  0  1  0  0  0  0  0999 V2000
  184.4690  178.7410  140.2400 C   0  0  0  0  0  0  0  0  0  0  0  0
  183.7660  178.7640  142.5590 C   0  0  0  0  0  0  0  0  0  0  0  0
  184.1610  178.9870  138.7810 C   0  0  0  0  0  2  0  0  0  0  0  0
  183.4620  178.9170  141.2100 C   0  0  0  0  0  0  0  0  0  0  0  0
  182.7020  178.9690  143.5560 C   0  0  0  0  0  0  0  0  0  0  0  0
  186.8780  177.9880  146.3290 C   0  0  0  0  0  2  0  0  0  0  0  0
  185.0580  178.4020  142.9490 C   0  0  0  0  0  0  0  0  0  0  0  0
  184.5280  178.4900  146.6440 O   0  0  0  0  0  0  0  0  0  0  0  0
  184.4270  178.9380  145.3160 C   0  0  2  0  0  3  0  0  0  0  0  0
  182.0040  179.0810  140.8340 C   0  0  1  0  0  3  0  0  0  0  0  0
  182.9910  178.9890  144.8620 C   0  0  0  0  0  3  0  0  0  0  0  0
  181.2970  179.8490  141.7950 O   0  0  0  0  0  0  0  0  0  0  0  0
  181.8520  179.6910  139.4480 C   0  0  0  0  0  2  0  0  0  0  0  0
  186.0170  178.2140  142.0020 N   0  0  0  0  0  0  0  0  0  0  0  0
  185.7740  178.4010  140.6720 C   0  0  0  0  0  0  0  0  0  0  0  0
  185.3020  178.0610  144.3980 C   0  0  2  0  0  3  0  0  0  0  0  0
  181.3000  179.1860  143.0560 C   0  0  1  0  0  3  0  0  0  0  0  0
  182.6700  178.8740  138.4560 C   0  0  0  0  0  2  0  0  0  0  0  0
  185.8290  178.8250  147.0740 C   0  0  0  0  0  2  0  0  0  0  0  0
  186.7570  178.2360  144.8240 C   0  0  0  0  0  2  0  0  0  0  0  0
  189.2620  177.9730  139.2180 C   0  0  0  0  0  0  0  0  0  0  0  0
  190.5830  177.8370  139.6310 O   0  0  0  0  0  1  0  0  0  0  0  0
  186.8930  178.2260  139.7200 C   0  0  0  0  0  0  0  0  0  0  0  0
  188.9720  177.9780  137.8520 C   0  0  0  0  0  3  0  0  0  0  0  0
  186.6230  178.2350  138.3440 C   0  0  0  0  0  3  0  0  0  0  0  0
  188.2300  178.0990  140.1600 C   0  0  0  0  0  0  0  0  0  0  0  0
  188.6280  178.0440  141.8780 Cl  0  0  0  0  0  0  0  0  0  0  0  0
  187.6500  178.1090  137.4080 C   0  0  0  0  0  0  0  0  0  0  0  0
  186.2560  177.3630  135.5050 C   0  0  0  0  0  1  0  0  0  0  0  0
  187.3310  178.1180  136.0470 O   0  0  0  0  0  0  0  0  0  0  0  0
  180.4980  177.8880  143.0350 C   0  0  0  0  0  2  0  0  0  0  0  0
  179.6410  177.8430  144.1340 O   0  0  0  0  0  1  0  0  0  0  0  0
  1 15  2  0  0  0  0
  1  4  1  0  0  0  0
  2  7  1  0  0  0  0
  2  5  1  0  0  0  0
  3  1  1  0  0  0  0
  4  2  2  0  0  0  0
  5 11  2  0  0  0  0
  6 19  1  0  0  0  0
  7 16  1  0  0  0  0
  8 19  1  0  0  0  0
  9 11  1  6  0  0  0
  9  8  1  0  0  0  0
 10 13  1  6  0  0  0
 10  4  1  0  0  0  0
 10 12  1  0  0  0  0
 12 17  1  0  0  0  0
 14  7  2  0  0  0  0
 15 14  1  0  0  0  0
 16 20  1  1  0  0  0
 16  9  1  0  0  0  0
 17 31  1  6  0  0  0
 17  5  1  0  0  0  0
 18  3  1  0  0  0  0
 18 13  1  0  0  0  0
 20  6  1  0  0  0  0
 21 22  1  0  0  0  0
 21 26  1  0  0  0  0
 23 26  2  0  0  0  0
 23 15  1  0  0  0  0
 24 21  2  0  0  0  0
 25 23  1  0  0  0  0
 26 27  1  0  0  0  0
 28 24  1  0  0  0  0
 28 25  2  0  0  0  0
 29 30  1  0  0  0  0
 30 28  1  0  0  0  0
 31 32  1  0  0  0  0
M  END
>  <MODEL>
9

>  <REMARK>
 VINA RESULT:      -9.1      2.690      7.525
  Name = 
  3 active torsions:
  status: ('A' for Active; 'I' for Inactive)
    1  A    between atoms: C_13  and  C_29
    2  A    between atoms: O_15  and  C_26
    3  A    between atoms: C_16  and  C_27
                            x       y       z     vdW  Elec       q    Type
                         _______ _______ _______ _____ _____    ______ ____

>  <TORSDO>
F 3

$$$$
