=
 OpenBabel10252414493D

 34 39  0  0  1  0  0  0  0  0999 V2000
  189.1640  177.3100  146.5350 C   0  0  0  0  0  0  0  0  0  0  0  0
  190.9730  176.6950  145.0210 C   0  0  0  0  0  0  0  0  0  0  0  0
  188.8030  177.4010  144.1180 C   0  0  0  0  0  0  0  0  0  0  0  0
  188.4430  177.6070  141.7330 C   0  0  0  0  0  0  0  0  0  0  0  0
  191.3230  176.6650  147.4190 C   0  0  0  0  0  3  0  0  0  0  0  0
  191.7990  176.4550  146.1220 C   0  0  0  0  0  3  0  0  0  0  0  0
  190.7930  177.1950  142.5760 C   0  0  0  0  0  2  0  0  0  0  0  0
  189.6490  177.1390  145.2190 C   0  0  0  0  0  0  0  0  0  0  0  0
  190.0070  177.0850  147.6260 C   0  0  0  0  0  3  0  0  0  0  0  0
  187.4450  177.7420  144.3390 C   0  0  0  0  0  0  0  0  0  0  0  0
  187.8400  177.6900  146.7450 C   0  0  0  0  0  3  0  0  0  0  0  0
  191.4520  176.3290  143.6480 C   0  0  0  0  0  2  0  0  0  0  0  0
  187.1380  177.8960  141.9710 N   0  0  0  0  0  0  0  0  0  0  0  0
  186.6020  177.9660  143.2210 C   0  0  0  0  0  0  0  0  0  0  0  0
  189.3100  177.3510  142.8060 C   0  0  0  0  0  0  0  0  0  0  0  0
  186.9890  177.8970  145.6590 C   0  0  0  0  0  3  0  0  0  0  0  0
  182.9480  178.5980  142.3490 C   0  0  0  0  0  0  0  0  0  0  0  0
  182.4440  178.9970  143.5890 C   0  0  0  0  0  3  0  0  0  0  0  0
  185.1550  178.2920  143.3330 C   0  0  0  0  0  0  0  0  0  0  0  0
  183.2880  179.0530  144.6990 C   0  0  0  0  0  3  0  0  0  0  0  0
  184.2970  178.2540  142.2210 C   0  0  0  0  0  3  0  0  0  0  0  0
  184.6360  178.7080  144.5700 C   0  0  0  0  0  3  0  0  0  0  0  0
  182.1320  178.5480  141.2690 F   0  0  0  0  0  0  0  0  0  0  0  0
  188.9360  177.6110  140.3240 C   0  0  0  0  0  2  0  0  0  0  0  0
  187.9430  178.3330  139.4290 C   0  0  0  0  0  2  0  0  0  0  0  0
  187.6980  177.5330  138.1640 C   0  0  0  0  0  2  0  0  0  0  0  0
  186.7340  178.2740  137.2520 C   0  0  0  0  0  2  0  0  0  0  0  0
  184.4020  179.2190  138.8510 C   0  0  0  0  0  1  0  0  0  0  0  0
  185.4250  177.5060  137.1360 C   0  0  2  0  0  3  0  0  0  0  0  0
  184.4350  177.8610  138.2340 C   0  0  0  0  0  0  0  0  0  0  0  0
  183.4350  175.6450  137.9670 C   0  0  0  0  0  3  0  0  0  0  0  0
  184.4710  175.1900  137.2580 C   0  0  0  0  0  3  0  0  0  0  0  0
  185.7300  176.0040  137.1390 C   0  0  0  0  0  2  0  0  0  0  0  0
  183.4750  176.9910  138.5680 C   0  0  0  0  0  3  0  0  0  0  0  0
  1 11  1  0  0  0  0
  1  9  2  0  0  0  0
  2  8  2  0  0  0  0
  2  6  1  0  0  0  0
  3 10  1  0  0  0  0
  3  8  1  0  0  0  0
  4 13  2  0  0  0  0
  4 15  1  0  0  0  0
  5  9  1  0  0  0  0
  6  5  2  0  0  0  0
  7 15  1  0  0  0  0
  7 12  1  0  0  0  0
  8  1  1  0  0  0  0
 10 16  1  0  0  0  0
 12  2  1  0  0  0  0
 13 14  1  0  0  0  0
 14 19  1  0  0  0  0
 14 10  2  0  0  0  0
 15  3  2  0  0  0  0
 16 11  2  0  0  0  0
 17 18  1  0  0  0  0
 18 20  2  0  0  0  0
 19 22  2  0  0  0  0
 21 17  2  0  0  0  0
 21 19  1  0  0  0  0
 22 20  1  0  0  0  0
 23 17  1  0  0  0  0
 24  4  1  0  0  0  0
 25 24  1  0  0  0  0
 26 25  1  0  0  0  0
 27 26  1  0  0  0  0
 29 33  1  0  0  0  0
 29 27  1  1  0  0  0
 29 30  1  0  0  0  0
 30 34  2  0  0  0  0
 30 28  1  0  0  0  0
 31 34  1  0  0  0  0
 32 31  2  0  0  0  0
 33 32  1  0  0  0  0
M  END
>  <MODEL>
1

>  <REMARK>
 VINA RESULT:     -11.2      0.000      0.000
  Name = 
  6 active torsions:
  status: ('A' for Active; 'I' for Inactive)
    1  A    between atoms: C_3  and  C_13
    2  A    between atoms: C_3  and  C_17
    3  A    between atoms: C_5  and  C_18
    4  A    between atoms: C_12  and  C_28
    5  A    between atoms: C_17  and  C_29
    6  A    between atoms: C_18  and  C_29
                            x       y       z     vdW  Elec       q    Type
                         _______ _______ _______ _____ _____    ______ ____

>  <TORSDO>
F 6

$$$$
=
 OpenBabel10252414493D

 34 39  0  0  1  0  0  0  0  0999 V2000
  189.0040  177.1480  146.2990 C   0  0  0  0  0  0  0  0  0  0  0  0
  190.8930  176.8630  144.7840 C   0  0  0  0  0  0  0  0  0  0  0  0
  188.7170  177.5880  143.9110 C   0  0  0  0  0  0  0  0  0  0  0  0
  188.4240  178.1390  141.5720 C   0  0  0  0  0  0  0  0  0  0  0  0
  191.1660  176.4830  147.1630 C   0  0  0  0  0  3  0  0  0  0  0  0
  191.6950  176.4980  145.8690 C   0  0  0  0  0  3  0  0  0  0  0  0
  190.7640  177.7210  142.4380 C   0  0  0  0  0  2  0  0  0  0  0  0
  189.5410  177.2040  144.9920 C   0  0  0  0  0  0  0  0  0  0  0  0
  189.8220  176.8000  147.3770 C   0  0  0  0  0  3  0  0  0  0  0  0
  187.3360  177.8240  144.1260 C   0  0  0  0  0  0  0  0  0  0  0  0
  187.6550  177.4240  146.5100 C   0  0  0  0  0  3  0  0  0  0  0  0
  191.4360  176.7350  143.3920 C   0  0  0  0  0  2  0  0  0  0  0  0
  187.0970  178.3230  141.7980 N   0  0  0  0  0  0  0  0  0  0  0  0
  186.5180  178.1740  143.0210 C   0  0  0  0  0  0  0  0  0  0  0  0
  189.2680  177.7660  142.6280 C   0  0  0  0  0  0  0  0  0  0  0  0
  186.8290  177.7520  145.4340 C   0  0  0  0  0  3  0  0  0  0  0  0
  182.8400  178.5830  142.1200 C   0  0  0  0  0  0  0  0  0  0  0  0
  182.3000  178.9350  143.3590 C   0  0  0  0  0  3  0  0  0  0  0  0
  185.0520  178.4060  143.1220 C   0  0  0  0  0  0  0  0  0  0  0  0
  183.1290  179.0330  144.4770 C   0  0  0  0  0  3  0  0  0  0  0  0
  184.2080  178.3260  142.0020 C   0  0  0  0  0  3  0  0  0  0  0  0
  184.4970  178.7750  144.3580 C   0  0  0  0  0  3  0  0  0  0  0  0
  182.0380  178.4920  141.0320 F   0  0  0  0  0  0  0  0  0  0  0  0
  188.9610  178.3830  140.2010 C   0  0  0  0  0  2  0  0  0  0  0  0
  188.1310  177.6280  139.1760 C   0  0  0  0  0  2  0  0  0  0  0  0
  189.0320  176.8060  138.2740 C   0  0  0  0  0  2  0  0  0  0  0  0
  190.2640  176.3500  139.0360 C   0  0  0  0  0  2  0  0  0  0  0  0
  193.1300  177.0500  139.4630 C   0  0  0  0  0  1  0  0  0  0  0  0
  191.2950  175.7760  138.0750 C   0  0  2  0  0  3  0  0  0  0  0  0
  192.6450  176.4660  138.1790 C   0  0  0  0  0  0  0  0  0  0  0  0
  193.0780  175.8390  135.8550 C   0  0  0  0  0  3  0  0  0  0  0  0
  191.7990  175.5280  135.6310 C   0  0  0  0  0  3  0  0  0  0  0  0
  190.7430  175.8650  136.6470 C   0  0  0  0  0  2  0  0  0  0  0  0
  193.4880  176.4340  137.1410 C   0  0  0  0  0  3  0  0  0  0  0  0
  1 11  1  0  0  0  0
  1  9  2  0  0  0  0
  2  8  2  0  0  0  0
  2  6  1  0  0  0  0
  3 10  1  0  0  0  0
  3  8  1  0  0  0  0
  4 13  2  0  0  0  0
  4 15  1  0  0  0  0
  5  9  1  0  0  0  0
  6  5  2  0  0  0  0
  7 15  1  0  0  0  0
  7 12  1  0  0  0  0
  8  1  1  0  0  0  0
 10 16  1  0  0  0  0
 12  2  1  0  0  0  0
 13 14  1  0  0  0  0
 14 19  1  0  0  0  0
 14 10  2  0  0  0  0
 15  3  2  0  0  0  0
 16 11  2  0  0  0  0
 17 18  1  0  0  0  0
 18 20  2  0  0  0  0
 19 22  2  0  0  0  0
 21 17  2  0  0  0  0
 21 19  1  0  0  0  0
 22 20  1  0  0  0  0
 23 17  1  0  0  0  0
 24  4  1  0  0  0  0
 25 24  1  0  0  0  0
 26 27  1  0  0  0  0
 26 25  1  0  0  0  0
 29 30  1  0  0  0  0
 29 27  1  1  0  0  0
 30 28  1  0  0  0  0
 31 34  1  0  0  0  0
 32 31  2  0  0  0  0
 32 33  1  0  0  0  0
 33 29  1  0  0  0  0
 34 30  2  0  0  0  0
M  END
>  <MODEL>
2

>  <REMARK>
 VINA RESULT:     -11.0      2.244      3.822
  Name = 
  6 active torsions:
  status: ('A' for Active; 'I' for Inactive)
    1  A    between atoms: C_3  and  C_13
    2  A    between atoms: C_3  and  C_17
    3  A    between atoms: C_5  and  C_18
    4  A    between atoms: C_12  and  C_28
    5  A    between atoms: C_17  and  C_29
    6  A    between atoms: C_18  and  C_29
                            x       y       z     vdW  Elec       q    Type
                         _______ _______ _______ _____ _____    ______ ____

>  <TORSDO>
F 6

$$$$
=
 OpenBabel10252414493D

 34 39  0  0  1  0  0  0  0  0999 V2000
  190.9800  176.7720  145.0540 C   0  0  0  0  0  0  0  0  0  0  0  0
  189.0840  177.2940  146.4960 C   0  0  0  0  0  0  0  0  0  0  0  0
  188.8300  177.3740  144.0560 C   0  0  0  0  0  0  0  0  0  0  0  0
  186.6900  177.8580  143.0330 C   0  0  0  0  0  0  0  0  0  0  0  0
  191.2110  176.6430  147.4610 C   0  0  0  0  0  3  0  0  0  0  0  0
  189.8830  177.0490  147.6170 C   0  0  0  0  0  3  0  0  0  0  0  0
  186.7830  177.4750  145.5320 C   0  0  0  0  0  2  0  0  0  0  0  0
  189.6240  177.1440  145.2020 C   0  0  0  0  0  0  0  0  0  0  0  0
  191.7600  176.5110  146.1830 C   0  0  0  0  0  3  0  0  0  0  0  0
  189.4190  177.3220  142.7680 C   0  0  0  0  0  0  0  0  0  0  0  0
  191.5420  176.6790  143.7820 C   0  0  0  0  0  3  0  0  0  0  0  0
  187.7100  177.8640  146.6820 C   0  0  0  0  0  2  0  0  0  0  0  0
  187.2870  177.8390  141.8130 N   0  0  0  0  0  0  0  0  0  0  0  0
  188.6140  177.5920  141.6320 C   0  0  0  0  0  0  0  0  0  0  0  0
  187.4520  177.6250  144.1880 C   0  0  0  0  0  0  0  0  0  0  0  0
  190.7720  176.9580  142.6530 C   0  0  0  0  0  3  0  0  0  0  0  0
  189.2360  178.5600  138.0010 C   0  0  0  0  0  0  0  0  0  0  0  0
  190.0840  177.5280  137.5920 C   0  0  0  0  0  3  0  0  0  0  0  0
  189.1330  177.6030  140.2380 C   0  0  0  0  0  0  0  0  0  0  0  0
  190.4520  176.5290  138.4950 C   0  0  0  0  0  3  0  0  0  0  0  0
  188.7600  178.5930  139.3150 C   0  0  0  0  0  3  0  0  0  0  0  0
  189.9750  176.5640  139.8080 C   0  0  0  0  0  3  0  0  0  0  0  0
  188.8740  179.5270  137.1250 F   0  0  0  0  0  0  0  0  0  0  0  0
  185.2170  178.0870  143.1090 C   0  0  0  0  0  2  0  0  0  0  0  0
  184.9350  179.5410  143.4480 C   0  0  0  0  0  2  0  0  0  0  0  0
  183.5880  179.6690  144.1330 C   0  0  0  0  0  2  0  0  0  0  0  0
  182.6650  178.5460  143.6900 C   0  0  0  0  0  2  0  0  0  0  0  0
  179.7630  178.3520  144.3450 C   0  0  0  0  0  1  0  0  0  0  0  0
  181.6620  179.0610  142.6680 C   0  0  2  0  0  3  0  0  0  0  0  0
  180.2410  178.6020  142.9540 C   0  0  0  0  0  0  0  0  0  0  0  0
  179.7530  178.8230  140.5680 C   0  0  0  0  0  3  0  0  0  0  0  0
  181.0460  178.9000  140.2430 C   0  0  0  0  0  3  0  0  0  0  0  0
  182.1080  178.6210  141.2690 C   0  0  0  0  0  2  0  0  0  0  0  0
  179.3480  178.5510  141.9600 C   0  0  0  0  0  3  0  0  0  0  0  0
  1  8  1  0  0  0  0
  1  9  2  0  0  0  0
  2 12  1  0  0  0  0
  2  6  1  0  0  0  0
  3 15  1  0  0  0  0
  3  8  1  0  0  0  0
  4 24  1  0  0  0  0
  4 15  2  0  0  0  0
  5  6  2  0  0  0  0
  7 12  1  0  0  0  0
  8  2  2  0  0  0  0
  9  5  1  0  0  0  0
 10  3  2  0  0  0  0
 11  1  1  0  0  0  0
 13  4  1  0  0  0  0
 14 13  2  0  0  0  0
 14 10  1  0  0  0  0
 15  7  1  0  0  0  0
 16 10  1  0  0  0  0
 16 11  2  0  0  0  0
 17 21  1  0  0  0  0
 18 17  2  0  0  0  0
 18 20  1  0  0  0  0
 19 14  1  0  0  0  0
 20 22  2  0  0  0  0
 21 19  2  0  0  0  0
 22 19  1  0  0  0  0
 23 17  1  0  0  0  0
 24 25  1  0  0  0  0
 25 26  1  0  0  0  0
 27 26  1  0  0  0  0
 29 30  1  0  0  0  0
 29 27  1  1  0  0  0
 30 28  1  0  0  0  0
 31 34  1  0  0  0  0
 32 31  2  0  0  0  0
 32 33  1  0  0  0  0
 33 29  1  0  0  0  0
 34 30  2  0  0  0  0
M  END
>  <MODEL>
3

>  <REMARK>
 VINA RESULT:     -11.0      2.495      5.442
  Name = 
  6 active torsions:
  status: ('A' for Active; 'I' for Inactive)
    1  A    between atoms: C_3  and  C_13
    2  A    between atoms: C_3  and  C_17
    3  A    between atoms: C_5  and  C_18
    4  A    between atoms: C_12  and  C_28
    5  A    between atoms: C_17  and  C_29
    6  A    between atoms: C_18  and  C_29
                            x       y       z     vdW  Elec       q    Type
                         _______ _______ _______ _____ _____    ______ ____

>  <TORSDO>
F 6

$$$$
=
 OpenBabel10252414493D

 34 39  0  0  1  0  0  0  0  0999 V2000
  189.0020  177.1460  146.2970 C   0  0  0  0  0  0  0  0  0  0  0  0
  190.8950  176.8590  144.7880 C   0  0  0  0  0  0  0  0  0  0  0  0
  188.7200  177.5790  143.9070 C   0  0  0  0  0  0  0  0  0  0  0  0
  188.4330  178.1220  141.5650 C   0  0  0  0  0  0  0  0  0  0  0  0
  191.1620  176.4870  147.1680 C   0  0  0  0  0  3  0  0  0  0  0  0
  191.6940  176.4980  145.8760 C   0  0  0  0  0  3  0  0  0  0  0  0
  190.7720  177.7090  142.4380 C   0  0  0  0  0  2  0  0  0  0  0  0
  189.5420  177.1990  144.9920 C   0  0  0  0  0  0  0  0  0  0  0  0
  189.8170  176.8030  147.3780 C   0  0  0  0  0  3  0  0  0  0  0  0
  187.3390  177.8140  144.1170 C   0  0  0  0  0  0  0  0  0  0  0  0
  187.6510  177.4220  146.5030 C   0  0  0  0  0  3  0  0  0  0  0  0
  191.4420  176.7270  143.3980 C   0  0  0  0  0  2  0  0  0  0  0  0
  187.1060  178.3050  141.7870 N   0  0  0  0  0  0  0  0  0  0  0  0
  186.5240  178.1590  143.0080 C   0  0  0  0  0  0  0  0  0  0  0  0
  189.2750  177.7530  142.6250 C   0  0  0  0  0  0  0  0  0  0  0  0
  186.8280  177.7450  145.4240 C   0  0  0  0  0  3  0  0  0  0  0  0
  182.8480  178.5690  142.0950 C   0  0  0  0  0  0  0  0  0  0  0  0
  182.3030  178.9150  143.3330 C   0  0  0  0  0  3  0  0  0  0  0  0
  185.0570  178.3890  143.1050 C   0  0  0  0  0  0  0  0  0  0  0  0
  183.1280  179.0080  144.4560 C   0  0  0  0  0  3  0  0  0  0  0  0
  184.2180  178.3140  141.9810 C   0  0  0  0  0  3  0  0  0  0  0  0
  184.4970  178.7520  144.3400 C   0  0  0  0  0  3  0  0  0  0  0  0
  182.0510  178.4840  141.0040 F   0  0  0  0  0  0  0  0  0  0  0  0
  188.9740  178.3620  140.1940 C   0  0  0  0  0  2  0  0  0  0  0  0
  189.1290  177.0410  139.4590 C   0  0  0  0  0  2  0  0  0  0  0  0
  189.1820  177.2780  137.9620 C   0  0  0  0  0  2  0  0  0  0  0  0
  188.4680  178.5720  137.6080 C   0  0  0  0  0  2  0  0  0  0  0  0
  185.6200  178.3200  138.4520 C   0  0  0  0  0  1  0  0  0  0  0  0
  187.4210  178.3190  136.5340 C   0  0  2  0  0  3  0  0  0  0  0  0
  186.0860  177.8710  137.1070 C   0  0  0  0  0  0  0  0  0  0  0  0
  185.6270  176.7310  134.9930 C   0  0  0  0  0  3  0  0  0  0  0  0
  186.8990  176.8190  134.5930 C   0  0  0  0  0  3  0  0  0  0  0  0
  187.9660  177.2820  135.5450 C   0  0  0  0  0  2  0  0  0  0  0  0
  185.2370  177.1740  136.3450 C   0  0  0  0  0  3  0  0  0  0  0  0
  1 11  1  0  0  0  0
  1  9  2  0  0  0  0
  2  8  2  0  0  0  0
  2  6  1  0  0  0  0
  3 10  1  0  0  0  0
  3  8  1  0  0  0  0
  4 13  2  0  0  0  0
  4 15  1  0  0  0  0
  5  9  1  0  0  0  0
  6  5  2  0  0  0  0
  7 15  1  0  0  0  0
  7 12  1  0  0  0  0
  8  1  1  0  0  0  0
 10 16  1  0  0  0  0
 12  2  1  0  0  0  0
 13 14  1  0  0  0  0
 14 19  1  0  0  0  0
 14 10  2  0  0  0  0
 15  3  2  0  0  0  0
 16 11  2  0  0  0  0
 17 18  1  0  0  0  0
 18 20  2  0  0  0  0
 19 22  2  0  0  0  0
 21 17  2  0  0  0  0
 21 19  1  0  0  0  0
 22 20  1  0  0  0  0
 23 17  1  0  0  0  0
 24  4  1  0  0  0  0
 25 24  1  0  0  0  0
 26 25  1  0  0  0  0
 27 26  1  0  0  0  0
 29 30  1  0  0  0  0
 29 27  1  1  0  0  0
 30 28  1  0  0  0  0
 31 34  1  0  0  0  0
 32 31  2  0  0  0  0
 32 33  1  0  0  0  0
 33 29  1  0  0  0  0
 34 30  2  0  0  0  0
M  END
>  <MODEL>
4

>  <REMARK>
 VINA RESULT:     -10.9      1.009      1.448
  Name = 
  6 active torsions:
  status: ('A' for Active; 'I' for Inactive)
    1  A    between atoms: C_3  and  C_13
    2  A    between atoms: C_3  and  C_17
    3  A    between atoms: C_5  and  C_18
    4  A    between atoms: C_12  and  C_28
    5  A    between atoms: C_17  and  C_29
    6  A    between atoms: C_18  and  C_29
                            x       y       z     vdW  Elec       q    Type
                         _______ _______ _______ _____ _____    ______ ____

>  <TORSDO>
F 6

$$$$
=
 OpenBabel10252414493D

 34 39  0  0  1  0  0  0  0  0999 V2000
  189.1520  177.3170  146.5780 C   0  0  0  0  0  0  0  0  0  0  0  0
  191.0340  176.6280  145.1900 C   0  0  0  0  0  0  0  0  0  0  0  0
  188.9420  177.3680  144.1420 C   0  0  0  0  0  0  0  0  0  0  0  0
  188.7350  177.5350  141.7350 C   0  0  0  0  0  0  0  0  0  0  0  0
  191.2360  176.6370  147.6050 C   0  0  0  0  0  3  0  0  0  0  0  0
  191.7850  176.3890  146.3440 C   0  0  0  0  0  3  0  0  0  0  0  0
  191.0170  177.0830  142.7290 C   0  0  0  0  0  2  0  0  0  0  0  0
  189.7130  177.1080  145.2970 C   0  0  0  0  0  0  0  0  0  0  0  0
  189.9210  177.0930  147.7220 C   0  0  0  0  0  3  0  0  0  0  0  0
  187.5820  177.7470  144.2720 C   0  0  0  0  0  0  0  0  0  0  0  0
  187.8280  177.7340  146.6980 C   0  0  0  0  0  3  0  0  0  0  0  0
  191.5870  176.2220  143.8560 C   0  0  0  0  0  2  0  0  0  0  0  0
  187.4250  177.8610  141.8870 N   0  0  0  0  0  0  0  0  0  0  0  0
  186.8150  177.9690  143.1000 C   0  0  0  0  0  0  0  0  0  0  0  0
  189.5270  177.2800  142.8650 C   0  0  0  0  0  0  0  0  0  0  0  0
  187.0500  177.9390  145.5580 C   0  0  0  0  0  3  0  0  0  0  0  0
  183.3310  178.9340  144.3000 C   0  0  0  0  0  0  0  0  0  0  0  0
  182.6250  178.9340  143.0950 C   0  0  0  0  0  3  0  0  0  0  0  0
  185.3730  178.3320  143.1160 C   0  0  0  0  0  0  0  0  0  0  0  0
  183.2820  178.6270  141.9030 C   0  0  0  0  0  3  0  0  0  0  0  0
  184.6950  178.6290  144.3100 C   0  0  0  0  0  3  0  0  0  0  0  0
  184.6460  178.3230  141.9150 C   0  0  0  0  0  3  0  0  0  0  0  0
  182.6950  179.2270  145.4590 F   0  0  0  0  0  0  0  0  0  0  0  0
  189.3120  177.4990  140.3600 C   0  0  0  0  0  2  0  0  0  0  0  0
  188.4920  178.3760  139.4290 C   0  0  0  0  0  2  0  0  0  0  0  0
  189.2130  178.5550  138.1060 C   0  0  0  0  0  2  0  0  0  0  0  0
  188.5210  177.7510  137.0180 C   0  0  0  0  0  2  0  0  0  0  0  0
  187.3870  174.9950  137.0960 C   0  0  0  0  0  1  0  0  0  0  0  0
  189.4080  176.5960  136.5740 C   0  0  2  0  0  3  0  0  0  0  0  0
  188.8540  175.2390  136.9780 C   0  0  0  0  0  0  0  0  0  0  0  0
  191.1390  174.3680  136.9580 C   0  0  0  0  0  3  0  0  0  0  0  0
  191.6760  175.5900  136.9350 C   0  0  0  0  0  3  0  0  0  0  0  0
  190.8160  176.8050  137.1440 C   0  0  0  0  0  2  0  0  0  0  0  0
  189.6810  174.1950  137.0980 C   0  0  0  0  0  3  0  0  0  0  0  0
  1 11  1  0  0  0  0
  1  9  2  0  0  0  0
  2  8  2  0  0  0  0
  2  6  1  0  0  0  0
  3 10  1  0  0  0  0
  3  8  1  0  0  0  0
  4 13  2  0  0  0  0
  4 15  1  0  0  0  0
  5  9  1  0  0  0  0
  6  5  2  0  0  0  0
  7 15  1  0  0  0  0
  7 12  1  0  0  0  0
  8  1  1  0  0  0  0
 10 16  1  0  0  0  0
 12  2  1  0  0  0  0
 13 14  1  0  0  0  0
 14 19  1  0  0  0  0
 14 10  2  0  0  0  0
 15  3  2  0  0  0  0
 16 11  2  0  0  0  0
 17 21  1  0  0  0  0
 17 23  1  0  0  0  0
 18 17  2  0  0  0  0
 19 21  2  0  0  0  0
 20 22  2  0  0  0  0
 20 18  1  0  0  0  0
 22 19  1  0  0  0  0
 24  4  1  0  0  0  0
 25 24  1  0  0  0  0
 26 25  1  0  0  0  0
 27 26  1  0  0  0  0
 29 30  1  0  0  0  0
 29 27  1  1  0  0  0
 29 33  1  0  0  0  0
 30 28  1  0  0  0  0
 30 34  2  0  0  0  0
 31 34  1  0  0  0  0
 32 31  2  0  0  0  0
 32 33  1  0  0  0  0
M  END
>  <MODEL>
5

>  <REMARK>
 VINA RESULT:     -10.8      1.847      3.042
  Name = 
  6 active torsions:
  status: ('A' for Active; 'I' for Inactive)
    1  A    between atoms: C_3  and  C_13
    2  A    between atoms: C_3  and  C_17
    3  A    between atoms: C_5  and  C_18
    4  A    between atoms: C_12  and  C_28
    5  A    between atoms: C_17  and  C_29
    6  A    between atoms: C_18  and  C_29
                            x       y       z     vdW  Elec       q    Type
                         _______ _______ _______ _____ _____    ______ ____

>  <TORSDO>
F 6

$$$$
=
 OpenBabel10252414493D

 34 39  0  0  1  0  0  0  0  0999 V2000
  190.8500  176.7680  145.0140 C   0  0  0  0  0  0  0  0  0  0  0  0
  189.1360  177.2830  146.6700 C   0  0  0  0  0  0  0  0  0  0  0  0
  188.6250  177.4680  144.2770 C   0  0  0  0  0  0  0  0  0  0  0  0
  186.4040  178.0520  143.5100 C   0  0  0  0  0  0  0  0  0  0  0  0
  191.3320  176.5360  147.3740 C   0  0  0  0  0  3  0  0  0  0  0  0
  190.0420  176.9710  147.6880 C   0  0  0  0  0  3  0  0  0  0  0  0
  186.7520  177.5660  145.9690 C   0  0  0  0  0  2  0  0  0  0  0  0
  189.5300  177.1710  145.3210 C   0  0  0  0  0  0  0  0  0  0  0  0
  191.7380  176.4410  146.0410 C   0  0  0  0  0  3  0  0  0  0  0  0
  189.0710  177.4530  142.9320 C   0  0  0  0  0  0  0  0  0  0  0  0
  191.2690  176.7120  143.6860 C   0  0  0  0  0  3  0  0  0  0  0  0
  187.8090  177.8830  147.0250 C   0  0  0  0  0  2  0  0  0  0  0  0
  186.8660  178.0660  142.2330 N   0  0  0  0  0  0  0  0  0  0  0  0
  188.1570  177.7900  141.9010 C   0  0  0  0  0  0  0  0  0  0  0  0
  187.2770  177.7520  144.5670 C   0  0  0  0  0  0  0  0  0  0  0  0
  190.3910  177.0570  142.6580 C   0  0  0  0  0  3  0  0  0  0  0  0
  187.9650  178.2340  138.1220 C   0  0  0  0  0  0  0  0  0  0  0  0
  189.2520  177.8480  137.7430 C   0  0  0  0  0  3  0  0  0  0  0  0
  188.5250  177.8430  140.4600 C   0  0  0  0  0  0  0  0  0  0  0  0
  190.1750  177.4510  138.7130 C   0  0  0  0  0  3  0  0  0  0  0  0
  187.6030  178.2260  139.4720 C   0  0  0  0  0  3  0  0  0  0  0  0
  189.8110  177.4440  140.0620 C   0  0  0  0  0  3  0  0  0  0  0  0
  187.0670  178.6140  137.1830 F   0  0  0  0  0  0  0  0  0  0  0  0
  184.9560  178.3180  143.7540 C   0  0  0  0  0  2  0  0  0  0  0  0
  184.3130  178.8820  142.4980 C   0  0  0  0  0  2  0  0  0  0  0  0
  182.8390  178.5280  142.4590 C   0  0  0  0  0  2  0  0  0  0  0  0
  182.3340  178.5340  141.0250 C   0  0  0  0  0  2  0  0  0  0  0  0
  184.1200  179.7050  138.9450 C   0  0  0  0  0  1  0  0  0  0  0  0
  183.1630  177.5850  140.1720 C   0  0  2  0  0  3  0  0  0  0  0  0
  183.7540  178.2590  138.9450 C   0  0  0  0  0  0  0  0  0  0  0  0
  183.7840  176.0800  137.8350 C   0  0  0  0  0  3  0  0  0  0  0  0
  182.9760  175.5310  138.7460 C   0  0  0  0  0  3  0  0  0  0  0  0
  182.2910  176.3880  139.7730 C   0  0  0  0  0  2  0  0  0  0  0  0
  184.0880  177.5220  137.8800 C   0  0  0  0  0  3  0  0  0  0  0  0
  1  8  1  0  0  0  0
  1  9  2  0  0  0  0
  2 12  1  0  0  0  0
  2  6  1  0  0  0  0
  3 15  1  0  0  0  0
  3  8  1  0  0  0  0
  4 24  1  0  0  0  0
  4 15  2  0  0  0  0
  5  6  2  0  0  0  0
  7 12  1  0  0  0  0
  8  2  2  0  0  0  0
  9  5  1  0  0  0  0
 10  3  2  0  0  0  0
 11  1  1  0  0  0  0
 13  4  1  0  0  0  0
 14 13  2  0  0  0  0
 14 10  1  0  0  0  0
 15  7  1  0  0  0  0
 16 10  1  0  0  0  0
 16 11  2  0  0  0  0
 17 21  1  0  0  0  0
 18 17  2  0  0  0  0
 18 20  1  0  0  0  0
 19 14  1  0  0  0  0
 20 22  2  0  0  0  0
 21 19  2  0  0  0  0
 22 19  1  0  0  0  0
 23 17  1  0  0  0  0
 25 24  1  0  0  0  0
 26 25  1  0  0  0  0
 27 26  1  0  0  0  0
 29 27  1  6  0  0  0
 30 28  1  0  0  0  0
 30 29  1  0  0  0  0
 31 34  1  0  0  0  0
 31 32  2  0  0  0  0
 32 33  1  0  0  0  0
 33 29  1  0  0  0  0
 34 30  2  0  0  0  0
M  END
>  <MODEL>
6

>  <REMARK>
 VINA RESULT:     -10.7      1.368      4.384
  Name = 
  6 active torsions:
  status: ('A' for Active; 'I' for Inactive)
    1  A    between atoms: C_3  and  C_13
    2  A    between atoms: C_3  and  C_17
    3  A    between atoms: C_5  and  C_18
    4  A    between atoms: C_12  and  C_28
    5  A    between atoms: C_17  and  C_29
    6  A    between atoms: C_18  and  C_29
                            x       y       z     vdW  Elec       q    Type
                         _______ _______ _______ _____ _____    ______ ____

>  <TORSDO>
F 6

$$$$
=
 OpenBabel10252414493D

 34 39  0  0  1  0  0  0  0  0999 V2000
  189.2660  177.3940  146.0900 C   0  0  0  0  0  0  0  0  0  0  0  0
  187.0910  178.1130  146.9250 C   0  0  0  0  0  0  0  0  0  0  0  0
  187.4850  177.9460  144.5080 C   0  0  0  0  0  0  0  0  0  0  0  0
  185.7130  178.3780  142.9150 C   0  0  0  0  0  0  0  0  0  0  0  0
  188.8560  177.5100  148.4730 C   0  0  0  0  0  3  0  0  0  0  0  0
  187.5570  177.9640  148.2340 C   0  0  0  0  0  3  0  0  0  0  0  0
  185.1320  178.2540  145.3750 C   0  0  0  0  0  2  0  0  0  0  0  0
  187.9400  177.8160  145.8390 C   0  0  0  0  0  0  0  0  0  0  0  0
  189.7110  177.2320  147.4040 C   0  0  0  0  0  3  0  0  0  0  0  0
  188.3850  177.7460  143.4320 C   0  0  0  0  0  0  0  0  0  0  0  0
  190.1340  177.1560  145.0260 C   0  0  0  0  0  3  0  0  0  0  0  0
  185.7480  178.7360  146.6870 C   0  0  0  0  0  2  0  0  0  0  0  0
  186.6050  178.2170  141.9040 N   0  0  0  0  0  0  0  0  0  0  0  0
  187.9180  177.9170  142.1030 C   0  0  0  0  0  0  0  0  0  0  0  0
  186.1350  178.2460  144.2470 C   0  0  0  0  0  0  0  0  0  0  0  0
  189.7000  177.3360  143.7120 C   0  0  0  0  0  3  0  0  0  0  0  0
  189.4220  178.3980  138.6370 C   0  0  0  0  0  0  0  0  0  0  0  0
  190.3920  177.3930  138.6260 C   0  0  0  0  0  3  0  0  0  0  0  0
  188.7820  177.7700  140.9010 C   0  0  0  0  0  0  0  0  0  0  0  0
  190.5550  176.5700  139.7420 C   0  0  0  0  0  3  0  0  0  0  0  0
  188.6190  178.5810  139.7660 C   0  0  0  0  0  3  0  0  0  0  0  0
  189.7510  176.7550  140.8700 C   0  0  0  0  0  3  0  0  0  0  0  0
  189.2590  179.1940  137.5540 F   0  0  0  0  0  0  0  0  0  0  0  0
  184.2850  178.6530  142.5790 C   0  0  0  0  0  2  0  0  0  0  0  0
  183.9170  177.9630  141.2760 C   0  0  0  0  0  2  0  0  0  0  0  0
  183.9820  178.9480  140.1240 C   0  0  0  0  0  2  0  0  0  0  0  0
  183.0630  178.5020  138.9990 C   0  0  0  0  0  2  0  0  0  0  0  0
  182.4860  175.6460  138.3660 C   0  0  0  0  0  1  0  0  0  0  0  0
  183.8690  177.8340  137.8950 C   0  0  2  0  0  3  0  0  0  0  0  0
  183.7330  176.3200  137.9000 C   0  0  0  0  0  0  0  0  0  0  0  0
  185.9310  176.1780  136.8370 C   0  0  0  0  0  3  0  0  0  0  0  0
  186.2220  177.4520  137.1160 C   0  0  0  0  0  3  0  0  0  0  0  0
  185.3380  178.2520  138.0310 C   0  0  0  0  0  2  0  0  0  0  0  0
  184.6900  175.5660  137.3470 C   0  0  0  0  0  3  0  0  0  0  0  0
  1  9  2  0  0  0  0
  2  6  1  0  0  0  0
  3  8  1  0  0  0  0
  4 15  2  0  0  0  0
  6  5  2  0  0  0  0
  7 12  1  0  0  0  0
  8  1  1  0  0  0  0
  8  2  2  0  0  0  0
  9  5  1  0  0  0  0
 10 16  1  0  0  0  0
 10  3  2  0  0  0  0
 11  1  1  0  0  0  0
 12  2  1  0  0  0  0
 13 14  2  0  0  0  0
 13  4  1  0  0  0  0
 14 10  1  0  0  0  0
 15  3  1  0  0  0  0
 15  7  1  0  0  0  0
 16 11  2  0  0  0  0
 17 21  1  0  0  0  0
 18 17  2  0  0  0  0
 18 20  1  0  0  0  0
 19 14  1  0  0  0  0
 20 22  2  0  0  0  0
 21 19  2  0  0  0  0
 22 19  1  0  0  0  0
 23 17  1  0  0  0  0
 24  4  1  0  0  0  0
 25 24  1  0  0  0  0
 26 25  1  0  0  0  0
 27 26  1  0  0  0  0
 29 30  1  0  0  0  0
 29 33  1  0  0  0  0
 29 27  1  1  0  0  0
 30 28  1  0  0  0  0
 31 32  2  0  0  0  0
 31 34  1  0  0  0  0
 32 33  1  0  0  0  0
 34 30  2  0  0  0  0
M  END
>  <MODEL>
7

>  <REMARK>
 VINA RESULT:     -10.6      1.789      4.575
  Name = 
  6 active torsions:
  status: ('A' for Active; 'I' for Inactive)
    1  A    between atoms: C_3  and  C_13
    2  A    between atoms: C_3  and  C_17
    3  A    between atoms: C_5  and  C_18
    4  A    between atoms: C_12  and  C_28
    5  A    between atoms: C_17  and  C_29
    6  A    between atoms: C_18  and  C_29
                            x       y       z     vdW  Elec       q    Type
                         _______ _______ _______ _____ _____    ______ ____

>  <TORSDO>
F 6

$$$$
=
 OpenBabel10252414493D

 34 39  0  0  1  0  0  0  0  0999 V2000
  187.1190  178.2380  147.2250 C   0  0  0  0  0  0  0  0  0  0  0  0
  189.3020  177.4930  146.4380 C   0  0  0  0  0  0  0  0  0  0  0  0
  187.4890  177.8910  144.8330 C   0  0  0  0  0  0  0  0  0  0  0  0
  187.8500  177.6640  142.4500 C   0  0  0  0  0  0  0  0  0  0  0  0
  188.9260  177.8950  148.7980 C   0  0  0  0  0  3  0  0  0  0  0  0
  189.7680  177.4980  147.7550 C   0  0  0  0  0  3  0  0  0  0  0  0
  189.8490  177.5550  143.9970 C   0  0  0  0  0  2  0  0  0  0  0  0
  187.9740  177.8770  146.1590 C   0  0  0  0  0  0  0  0  0  0  0  0
  187.6030  178.2580  148.5350 C   0  0  0  0  0  3  0  0  0  0  0  0
  186.1230  178.1760  144.5850 C   0  0  0  0  0  0  0  0  0  0  0  0
  185.7870  178.5610  146.9700 C   0  0  0  0  0  3  0  0  0  0  0  0
  190.1710  176.9290  145.3530 C   0  0  0  0  0  2  0  0  0  0  0  0
  186.5290  177.9040  142.2430 N   0  0  0  0  0  0  0  0  0  0  0  0
  185.6460  178.1500  143.2500 C   0  0  0  0  0  0  0  0  0  0  0  0
  188.3620  177.6510  143.7560 C   0  0  0  0  0  0  0  0  0  0  0  0
  185.2940  178.5240  145.6650 C   0  0  0  0  0  3  0  0  0  0  0  0
  182.4600  178.6280  141.2160 C   0  0  0  0  0  0  0  0  0  0  0  0
  181.5470  178.9480  142.2240 C   0  0  0  0  0  3  0  0  0  0  0  0
  184.2270  178.3960  142.8770 C   0  0  0  0  0  0  0  0  0  0  0  0
  181.9680  179.0030  143.5540 C   0  0  0  0  0  3  0  0  0  0  0  0
  183.7930  178.3600  141.5410 C   0  0  0  0  0  3  0  0  0  0  0  0
  183.3000  178.7330  143.8770 C   0  0  0  0  0  3  0  0  0  0  0  0
  182.0550  178.5800  139.9250 F   0  0  0  0  0  0  0  0  0  0  0  0
  188.7370  177.4590  141.2680 C   0  0  0  0  0  2  0  0  0  0  0  0
  188.6000  178.6280  140.3060 C   0  0  0  0  0  2  0  0  0  0  0  0
  188.1910  178.1330  138.9320 C   0  0  0  0  0  2  0  0  0  0  0  0
  188.8290  176.7830  138.6490 C   0  0  0  0  0  2  0  0  0  0  0  0
  188.9630  176.2490  135.7190 C   0  0  0  0  0  1  0  0  0  0  0  0
  190.1650  176.9700  137.9450 C   0  0  2  0  0  3  0  0  0  0  0  0
  190.1920  176.3470  136.5580 C   0  0  0  0  0  0  0  0  0  0  0  0
  192.6170  176.1110  136.7770 C   0  0  0  0  0  3  0  0  0  0  0  0
  192.5870  176.3360  138.0930 C   0  0  0  0  0  3  0  0  0  0  0  0
  191.2760  176.3890  138.8270 C   0  0  0  0  0  2  0  0  0  0  0  0
  191.3620  176.0030  136.0090 C   0  0  0  0  0  3  0  0  0  0  0  0
  1  9  2  0  0  0  0
  2  6  1  0  0  0  0
  3  8  1  0  0  0  0
  4 15  1  0  0  0  0
  6  5  2  0  0  0  0
  7 12  1  0  0  0  0
  8  2  2  0  0  0  0
  8  1  1  0  0  0  0
  9  5  1  0  0  0  0
 10  3  1  0  0  0  0
 10 16  1  0  0  0  0
 11  1  1  0  0  0  0
 12  2  1  0  0  0  0
 13  4  2  0  0  0  0
 13 14  1  0  0  0  0
 14 10  2  0  0  0  0
 15  7  1  0  0  0  0
 15  3  2  0  0  0  0
 16 11  2  0  0  0  0
 17 21  2  0  0  0  0
 17 18  1  0  0  0  0
 18 20  2  0  0  0  0
 19 14  1  0  0  0  0
 19 22  2  0  0  0  0
 20 22  1  0  0  0  0
 21 19  1  0  0  0  0
 23 17  1  0  0  0  0
 24  4  1  0  0  0  0
 25 24  1  0  0  0  0
 26 25  1  0  0  0  0
 27 26  1  0  0  0  0
 28 30  1  0  0  0  0
 29 27  1  1  0  0  0
 29 33  1  0  0  0  0
 30 29  1  0  0  0  0
 31 32  2  0  0  0  0
 32 33  1  0  0  0  0
 34 30  2  0  0  0  0
 34 31  1  0  0  0  0
M  END
>  <MODEL>
8

>  <REMARK>
 VINA RESULT:     -10.6      1.990      3.632
  Name = 
  6 active torsions:
  status: ('A' for Active; 'I' for Inactive)
    1  A    between atoms: C_3  and  C_13
    2  A    between atoms: C_3  and  C_17
    3  A    between atoms: C_5  and  C_18
    4  A    between atoms: C_12  and  C_28
    5  A    between atoms: C_17  and  C_29
    6  A    between atoms: C_18  and  C_29
                            x       y       z     vdW  Elec       q    Type
                         _______ _______ _______ _____ _____    ______ ____

>  <TORSDO>
F 6

$$$$
=
 OpenBabel10252414493D

 34 39  0  0  1  0  0  0  0  0999 V2000
  182.9260  178.9630  140.5470 C   0  0  0  0  0  0  0  0  0  0  0  0
  181.8060  178.9640  142.7130 C   0  0  0  0  0  0  0  0  0  0  0  0
  184.2270  178.5870  142.5830 C   0  0  0  0  0  0  0  0  0  0  0  0
  185.5640  178.3210  144.5850 C   0  0  0  0  0  0  0  0  0  0  0  0
  180.5470  179.3860  140.6850 C   0  0  0  0  0  3  0  0  0  0  0  0
  180.5920  179.2290  142.0720 C   0  0  0  0  0  3  0  0  0  0  0  0
  183.1470  179.0290  144.8240 C   0  0  0  0  0  2  0  0  0  0  0  0
  182.9880  178.8410  141.9540 C   0  0  0  0  0  0  0  0  0  0  0  0
  181.7100  179.2470  139.9230 C   0  0  0  0  0  3  0  0  0  0  0  0
  185.3850  178.3620  141.7970 C   0  0  0  0  0  0  0  0  0  0  0  0
  184.0770  178.7840  139.7820 C   0  0  0  0  0  3  0  0  0  0  0  0
  181.8120  178.6570  144.1800 C   0  0  0  0  0  2  0  0  0  0  0  0
  186.6500  178.0720  143.8070 N   0  0  0  0  0  0  0  0  0  0  0  0
  186.6120  178.0720  142.4460 C   0  0  0  0  0  0  0  0  0  0  0  0
  184.3220  178.5850  143.9880 C   0  0  0  0  0  0  0  0  0  0  0  0
  185.2900  178.4800  140.4000 C   0  0  0  0  0  3  0  0  0  0  0  0
  189.4070  178.1350  139.8590 C   0  0  0  0  0  0  0  0  0  0  0  0
  190.2470  177.1340  140.3500 C   0  0  0  0  0  3  0  0  0  0  0  0
  187.8780  177.7820  141.7210 C   0  0  0  0  0  0  0  0  0  0  0  0
  189.9060  176.4490  141.5180 C   0  0  0  0  0  3  0  0  0  0  0  0
  188.2270  178.4520  140.5380 C   0  0  0  0  0  3  0  0  0  0  0  0
  188.7260  176.7680  142.1950 C   0  0  0  0  0  3  0  0  0  0  0  0
  189.7340  178.7970  138.7240 F   0  0  0  0  0  0  0  0  0  0  0  0
  185.7320  178.3490  146.0670 C   0  0  0  0  0  2  0  0  0  0  0  0
  186.8490  177.4040  146.4810 C   0  0  0  0  0  2  0  0  0  0  0  0
  187.6480  178.0030  147.6220 C   0  0  0  0  0  2  0  0  0  0  0  0
  189.0130  177.3420  147.7130 C   0  0  0  0  0  2  0  0  0  0  0  0
  191.4730  175.6870  147.4040 C   0  0  0  0  0  1  0  0  0  0  0  0
  189.6390  177.2370  146.3300 C   0  0  2  0  0  3  0  0  0  0  0  0
  191.0490  176.6680  146.3630 C   0  0  0  0  0  0  0  0  0  0  0  0
  191.5200  177.8720  144.2870 C   0  0  0  0  0  3  0  0  0  0  0  0
  190.4300  178.6350  144.4050 C   0  0  0  0  0  3  0  0  0  0  0  0
  189.6230  178.6220  145.6730 C   0  0  0  0  0  2  0  0  0  0  0  0
  191.8950  176.9360  145.3640 C   0  0  0  0  0  3  0  0  0  0  0  0
  1  8  1  0  0  0  0
  2 12  1  0  0  0  0
  3 15  1  0  0  0  0
  4 24  1  0  0  0  0
  5  6  2  0  0  0  0
  6  2  1  0  0  0  0
  8  3  1  0  0  0  0
  8  2  2  0  0  0  0
  9  1  2  0  0  0  0
  9  5  1  0  0  0  0
 10 14  1  0  0  0  0
 10  3  2  0  0  0  0
 11 16  2  0  0  0  0
 11  1  1  0  0  0  0
 12  7  1  0  0  0  0
 13  4  1  0  0  0  0
 14 13  2  0  0  0  0
 15  4  2  0  0  0  0
 15  7  1  0  0  0  0
 16 10  1  0  0  0  0
 17 18  2  0  0  0  0
 17 21  1  0  0  0  0
 18 20  1  0  0  0  0
 19 22  1  0  0  0  0
 19 14  1  0  0  0  0
 20 22  2  0  0  0  0
 21 19  2  0  0  0  0
 23 17  1  0  0  0  0
 24 25  1  0  0  0  0
 25 26  1  0  0  0  0
 26 27  1  0  0  0  0
 29 30  1  0  0  0  0
 29 27  1  1  0  0  0
 30 28  1  0  0  0  0
 31 32  2  0  0  0  0
 31 34  1  0  0  0  0
 32 33  1  0  0  0  0
 33 29  1  0  0  0  0
 34 30  2  0  0  0  0
M  END
>  <MODEL>
9

>  <REMARK>
 VINA RESULT:     -10.5      2.324      8.401
  Name = 
  6 active torsions:
  status: ('A' for Active; 'I' for Inactive)
    1  A    between atoms: C_3  and  C_13
    2  A    between atoms: C_3  and  C_17
    3  A    between atoms: C_5  and  C_18
    4  A    between atoms: C_12  and  C_28
    5  A    between atoms: C_17  and  C_29
    6  A    between atoms: C_18  and  C_29
                            x       y       z     vdW  Elec       q    Type
                         _______ _______ _______ _____ _____    ______ ____

>  <TORSDO>
F 6

$$$$
