=
 OpenBabel10262420173D

 55 62  0  0  1  0  0  0  0  0999 V2000
  184.5480  177.3350  136.9280 C   0  0  0  0  0  2  0  0  0  0  0  0
  186.1450  178.9040  141.5690 C   0  0  0  0  0  2  0  0  0  0  0  0
  183.5860  177.2780  141.7080 O   0  0  0  0  0  1  0  0  0  0  0  0
  180.5610  174.6020  140.6380 C   0  0  0  0  0  2  0  0  0  0  0  0
  179.2240  174.3540  139.9670 C   0  0  0  0  0  3  0  0  0  0  0  0
  180.2560  176.9780  139.7420 C   0  0  0  0  0  2  0  0  0  0  0  0
  179.9120  175.3640  137.7880 C   0  0  0  0  0  2  0  0  0  0  0  0
  183.1490  178.0580  139.6240 C   0  0  0  0  0  2  0  0  0  0  0  0
  178.9320  174.6760  138.6960 C   0  0  0  0  0  3  0  0  0  0  0  0
  186.3110  177.5030  135.2650 O   0  0  0  0  0  0  0  0  0  0  0  0
  181.2340  175.9630  140.3540 C   0  0  2  0  0  3  0  0  0  0  0  0
  188.2220  178.1690  137.1150 C   0  0  2  0  0  3  0  0  0  0  0  0
  184.0640  176.3670  138.0050 C   0  0  0  0  0  2  0  0  0  0  0  0
  186.9280  177.5660  137.6680 C   0  0  0  0  0  2  0  0  0  0  0  0
  181.6670  177.1280  137.7200 C   0  0  2  0  0  3  0  0  0  0  0  0
  187.0900  178.5140  140.4800 C   0  0  0  0  0  3  0  0  0  0  0  0
  180.2580  176.8010  138.2280 C   0  0  2  0  0  3  0  0  0  0  0  0
  184.7480  179.0680  140.9890 C   0  0  0  0  0  2  0  0  0  0  0  0
  184.1950  177.7780  140.6040 N   0  0  0  0  0  0  0  0  0  0  0  0
  186.5800  178.8810  135.3170 C   0  0  0  0  0  2  0  0  0  0  0  0
  188.4230  178.4990  140.6000 C   0  0  0  0  0  0  0  0  0  0  0  0
  185.9960  177.0380  136.5660 C   0  0  1  0  0  3  0  0  0  0  0  0
  182.4140  175.7310  139.5810 O   0  0  0  0  0  0  0  0  0  0  0  0
  182.8030  176.8250  138.7550 C   0  0  2  0  0  0  0  0  0  0  0  0
  189.2620  178.0700  139.4280 C   0  0  0  0  0  2  0  0  0  0  0  0
  188.9830  178.9310  138.2000 C   0  0  0  0  0  2  0  0  0  0  0  0
  187.9460  179.1260  135.9540 C   0  0  0  0  0  2  0  0  0  0  0  0
  181.3720  178.3320  135.5440 C   0  0  0  0  0  3  0  0  0  0  0  0
  180.7740  180.6740  135.4570 N   0  0  0  0  0  0  0  0  0  0  0  0
  180.9310  179.5860  137.6650 C   0  0  0  0  0  2  0  0  0  0  0  0
  181.1070  180.8780  136.8730 C   0  0  0  0  0  2  0  0  0  0  0  0
  180.9400  179.3870  134.8420 C   0  0  0  0  0  3  0  0  0  0  0  0
  181.7490  178.4810  136.9930 C   0  0  1  0  0  3  0  0  0  0  0  0
  180.4560  181.8060  134.5950 C   0  0  0  0  0  3  0  0  0  0  0  0
  178.9690  182.1010  134.6070 C   0  0  0  0  0  1  0  0  0  0  0  0
  181.2390  183.0290  135.0130 C   0  0  0  0  0  1  0  0  0  0  0  0
  189.0860  178.8680  141.9020 C   0  0  0  0  0  2  0  0  0  0  0  0
  189.9250  177.7400  142.5210 C   0  0  2  0  0  3  0  0  0  0  0  0
  192.2760  177.9650  141.7340 C   0  0  0  0  0  2  0  0  0  0  0  0
  190.9670  177.2210  141.5340 C   0  0  0  0  0  3  0  0  0  0  0  0
  192.1130  176.5690  142.2890 C   0  0  0  0  0  2  0  0  0  0  0  0
  189.0430  176.6060  143.0370 C   0  0  0  0  0  2  0  0  0  0  0  0
  189.8590  178.4060  146.5930 O   0  0  0  0  0  0  0  0  0  0  0  0
  188.9550  176.6220  144.5550 C   0  0  1  0  0  3  0  0  0  0  0  0
  190.3470  177.0890  146.6170 C   0  0  2  0  0  3  0  0  0  0  0  0
  190.3650  176.5570  145.1710 C   0  0  0  0  0  2  0  0  0  0  0  0
  188.2600  176.9870  147.3970 C   0  0  1  0  0  3  0  0  0  0  0  0
  188.4820  178.1950  146.5100 C   0  0  2  0  0  3  0  0  0  0  0  0
  189.4850  176.2990  147.4100 O   0  0  0  0  0  0  0  0  0  0  0  0
  188.1580  177.8570  145.0360 C   0  0  2  0  0  3  0  0  0  0  0  0
  186.6840  177.6980  144.8050 C   0  0  0  0  0  0  0  0  0  0  0  0
  185.8530  178.3790  145.4650 O   0  0  0  0  0  1  0  0  0  0  0  0
  186.2320  176.8020  143.8470 O   0  0  0  0  0  0  0  0  0  0  0  0
  187.8960  177.4360  148.8030 C   0  0  0  0  0  2  0  0  0  0  0  0
  188.5300  178.7800  149.1000 C   0  0  0  0  0  1  0  0  0  0  0  0
  1 13  1  0  0  0  0
  5  4  1  0  0  0  0
  7  9  1  0  0  0  0
  8 19  1  0  0  0  0
  9  5  2  0  0  0  0
 10 20  1  0  0  0  0
 10 22  1  0  0  0  0
 11  6  1  6  0  0  0
 11  4  1  0  0  0  0
 12 27  1  6  0  0  0
 12 14  1  0  0  0  0
 12 26  1  0  0  0  0
 15 33  1  1  0  0  0
 15 17  1  0  0  0  0
 15 24  1  0  0  0  0
 16 21  2  0  0  0  0
 16  2  1  0  0  0  0
 17  7  1  1  0  0  0
 17  6  1  0  0  0  0
 18  2  1  0  0  0  0
 19 18  1  0  0  0  0
 19  3  1  0  0  0  0
 20 27  1  0  0  0  0
 21 37  1  0  0  0  0
 22  1  1  1  0  0  0
 22 14  1  0  0  0  0
 23 11  1  0  0  0  0
 24 13  1  6  0  0  0
 24 23  1  0  0  0  0
 24  8  1  0  0  0  0
 25 21  1  0  0  0  0
 26 25  1  0  0  0  0
 29 31  1  0  0  0  0
 31 30  1  0  0  0  0
 32 29  1  0  0  0  0
 32 28  2  0  0  0  0
 33 28  1  6  0  0  0
 33 30  1  0  0  0  0
 34 35  1  0  0  0  0
 34 36  1  0  0  0  0
 34 29  1  0  0  0  0
 38 37  1  6  0  0  0
 38 42  1  0  0  0  0
 39 41  1  0  0  0  0
 40 39  1  0  0  0  0
 40 41  1  0  0  0  0
 40 38  1  0  0  0  0
 43 45  1  0  0  0  0
 44 42  1  6  0  0  0
 44 50  1  0  0  0  0
 44 46  1  0  0  0  0
 45 46  1  6  0  0  0
 45 49  1  0  0  0  0
 47 49  1  0  0  0  0
 47 54  1  1  0  0  0
 48 43  1  6  0  0  0
 48 47  1  0  0  0  0
 50 51  1  1  0  0  0
 50 48  1  0  0  0  0
 51 52  1  0  0  0  0
 53 51  2  0  0  0  0
 54 55  1  0  0  0  0
M  END
>  <MODEL>
1

>  <REMARK>
 VINA RESULT:      -6.1      0.000      0.000
  Name = 
  9 active torsions:
  status: ('A' for Active; 'I' for Inactive)
    1  A    between atoms: C_1  and  C_53
    2  A    between atoms: C_6  and  C_46
    3  A    between atoms: C_8  and  C_22
    4  A    between atoms: C_8  and  C_43
    5  A    between atoms: C_10  and  N_32
    6  A    between atoms: C_11  and  C_29
    7  A    between atoms: C_20  and  C_22
    8  A    between atoms: C_22  and  C_46
    9  A    between atoms: C_33  and  C_52
                            x       y       z     vdW  Elec       q    Type
                         _______ _______ _______ _____ _____    ______ ____

>  <TORSDO>
F 9

$$$$
=
 OpenBabel10262420173D

 55 62  0  0  1  0  0  0  0  0999 V2000
  187.6480  176.7230  136.4870 C   0  0  0  0  0  2  0  0  0  0  0  0
  188.4610  177.3100  141.5410 C   0  0  0  0  0  2  0  0  0  0  0  0
  191.0440  177.0260  139.9740 O   0  0  0  0  0  1  0  0  0  0  0  0
  193.7250  177.0530  136.7700 C   0  0  0  0  0  2  0  0  0  0  0  0
  194.3980  176.3090  135.6330 C   0  0  0  0  0  3  0  0  0  0  0  0
  192.4160  174.8750  137.0510 C   0  0  0  0  0  2  0  0  0  0  0  0
  192.2510  175.5640  134.5940 C   0  0  0  0  0  2  0  0  0  0  0  0
  189.8430  175.7880  138.5000 C   0  0  0  0  0  2  0  0  0  0  0  0
  193.7500  175.6580  134.6520 C   0  0  0  0  0  3  0  0  0  0  0  0
  185.3950  177.3770  135.8550 O   0  0  0  0  0  0  0  0  0  0  0  0
  192.5060  176.3640  137.4200 C   0  0  2  0  0  3  0  0  0  0  0  0
  184.8020  178.3580  138.3460 C   0  0  2  0  0  3  0  0  0  0  0  0
  189.0120  177.3660  136.7280 C   0  0  0  0  0  2  0  0  0  0  0  0
  186.2860  178.1300  138.0460 C   0  0  0  0  0  2  0  0  0  0  0  0
  190.2160  175.2640  135.9950 C   0  0  2  0  0  3  0  0  0  0  0  0
  187.3480  177.9950  140.8180 C   0  0  0  0  0  3  0  0  0  0  0  0
  191.6380  174.7450  135.7470 C   0  0  2  0  0  3  0  0  0  0  0  0
  189.0490  176.2270  140.6490 C   0  0  0  0  0  2  0  0  0  0  0  0
  189.7770  176.8170  139.5350 N   0  0  0  0  0  0  0  0  0  0  0  0
  184.6420  176.4870  136.6400 C   0  0  0  0  0  2  0  0  0  0  0  0
  186.4800  178.8430  141.3860 C   0  0  0  0  0  0  0  0  0  0  0  0
  186.5500  177.7740  136.5750 C   0  0  1  0  0  3  0  0  0  0  0  0
  191.3370  177.1270  137.1100 O   0  0  0  0  0  0  0  0  0  0  0  0
  190.1280  176.3740  137.0960 C   0  0  2  0  0  0  0  0  0  0  0  0
  185.4130  179.4780  140.5390 C   0  0  0  0  0  2  0  0  0  0  0  0
  184.5480  178.4260  139.8520 C   0  0  0  0  0  2  0  0  0  0  0  0
  183.9320  177.2450  137.7580 C   0  0  0  0  0  2  0  0  0  0  0  0
  188.0290  174.4070  135.1260 C   0  0  0  0  0  3  0  0  0  0  0  0
  187.5200  172.0440  135.0690 N   0  0  0  0  0  0  0  0  0  0  0  0
  189.7520  172.7430  135.8530 C   0  0  0  0  0  2  0  0  0  0  0  0
  188.6290  171.7180  135.9750 C   0  0  0  0  0  2  0  0  0  0  0  0
  187.2570  173.4050  134.6900 C   0  0  0  0  0  3  0  0  0  0  0  0
  189.1670  174.1410  136.0730 C   0  0  1  0  0  3  0  0  0  0  0  0
  186.5440  171.0290  134.6870 C   0  0  0  0  0  3  0  0  0  0  0  0
  186.9980  169.6480  135.1130 C   0  0  0  0  0  1  0  0  0  0  0  0
  185.1910  171.3460  135.2800 C   0  0  0  0  0  1  0  0  0  0  0  0
  186.5870  179.1930  142.8480 C   0  0  0  0  0  2  0  0  0  0  0  0
  185.8900  178.1950  143.7850 C   0  0  2  0  0  3  0  0  0  0  0  0
  183.7420  178.6310  144.9660 C   0  0  0  0  0  2  0  0  0  0  0  0
  184.3730  178.2630  143.6340 C   0  0  0  0  0  3  0  0  0  0  0  0
  183.8930  179.6810  143.8900 C   0  0  0  0  0  2  0  0  0  0  0  0
  186.3080  178.4060  145.2380 C   0  0  0  0  0  2  0  0  0  0  0  0
  190.3620  178.6090  145.5250 O   0  0  0  0  0  0  0  0  0  0  0  0
  187.6420  177.7380  145.5310 C   0  0  1  0  0  3  0  0  0  0  0  0
  190.0100  177.5670  144.6510 C   0  0  2  0  0  3  0  0  0  0  0  0
  188.5260  177.7400  144.2700 C   0  0  0  0  0  2  0  0  0  0  0  0
  190.1310  176.6550  146.6830 C   0  0  1  0  0  3  0  0  0  0  0  0
  189.8560  178.1430  146.7390 C   0  0  2  0  0  3  0  0  0  0  0  0
  190.1960  176.3350  145.3170 O   0  0  0  0  0  0  0  0  0  0  0  0
  188.3340  178.4180  146.7370 C   0  0  2  0  0  3  0  0  0  0  0  0
  187.6910  178.0390  148.0380 C   0  0  0  0  0  0  0  0  0  0  0  0
  188.3030  178.2000  149.1280 O   0  0  0  0  0  1  0  0  0  0  0  0
  186.4050  177.5180  148.0430 O   0  0  0  0  0  0  0  0  0  0  0  0
  191.4580  176.3480  147.3570 C   0  0  0  0  0  2  0  0  0  0  0  0
  192.1880  175.2610  146.5950 C   0  0  0  0  0  1  0  0  0  0  0  0
  1 13  1  0  0  0  0
  5  4  1  0  0  0  0
  6 11  1  0  0  0  0
  7  9  1  0  0  0  0
  8 19  1  0  0  0  0
  9  5  2  0  0  0  0
 10 22  1  0  0  0  0
 10 20  1  0  0  0  0
 11  4  1  6  0  0  0
 12 27  1  1  0  0  0
 12 26  1  0  0  0  0
 14 12  1  0  0  0  0
 15 33  1  1  0  0  0
 15 24  1  0  0  0  0
 16 21  2  0  0  0  0
 16  2  1  0  0  0  0
 17  7  1  6  0  0  0
 17 15  1  0  0  0  0
 17  6  1  0  0  0  0
 18  2  1  0  0  0  0
 19  3  1  0  0  0  0
 19 18  1  0  0  0  0
 20 27  1  0  0  0  0
 21 37  1  0  0  0  0
 22  1  1  1  0  0  0
 22 14  1  0  0  0  0
 23 11  1  0  0  0  0
 24 13  1  6  0  0  0
 24 23  1  0  0  0  0
 24  8  1  0  0  0  0
 25 21  1  0  0  0  0
 26 25  1  0  0  0  0
 29 31  1  0  0  0  0
 30 31  1  0  0  0  0
 30 33  1  0  0  0  0
 32 29  1  0  0  0  0
 32 28  2  0  0  0  0
 33 28  1  6  0  0  0
 34 29  1  0  0  0  0
 34 35  1  0  0  0  0
 34 36  1  0  0  0  0
 38 37  1  6  0  0  0
 38 42  1  0  0  0  0
 40 38  1  0  0  0  0
 40 41  1  0  0  0  0
 40 39  1  0  0  0  0
 41 39  1  0  0  0  0
 44 42  1  6  0  0  0
 44 50  1  0  0  0  0
 45 46  1  1  0  0  0
 45 49  1  0  0  0  0
 45 43  1  0  0  0  0
 46 44  1  0  0  0  0
 47 48  1  0  0  0  0
 47 54  1  1  0  0  0
 48 43  1  6  0  0  0
 49 47  1  0  0  0  0
 50 48  1  0  0  0  0
 50 51  1  1  0  0  0
 51 53  2  0  0  0  0
 51 52  1  0  0  0  0
 55 54  1  0  0  0  0
M  END
>  <MODEL>
2

>  <REMARK>
 VINA RESULT:      -5.5      3.698      7.771
  Name = 
  9 active torsions:
  status: ('A' for Active; 'I' for Inactive)
    1  A    between atoms: C_1  and  C_53
    2  A    between atoms: C_6  and  C_46
    3  A    between atoms: C_8  and  C_22
    4  A    between atoms: C_8  and  C_43
    5  A    between atoms: C_10  and  N_32
    6  A    between atoms: C_11  and  C_29
    7  A    between atoms: C_20  and  C_22
    8  A    between atoms: C_22  and  C_46
    9  A    between atoms: C_33  and  C_52
                            x       y       z     vdW  Elec       q    Type
                         _______ _______ _______ _____ _____    ______ ____

>  <TORSDO>
F 9

$$$$
=
 OpenBabel10262420173D

 55 62  0  0  1  0  0  0  0  0999 V2000
  179.9150  179.7850  140.9440 C   0  0  0  0  0  2  0  0  0  0  0  0
  185.0260  179.1340  140.9320 C   0  0  0  0  0  2  0  0  0  0  0  0
  184.0780  180.9260  138.6750 O   0  0  0  0  0  1  0  0  0  0  0  0
  181.6640  183.5160  136.4560 C   0  0  0  0  0  2  0  0  0  0  0  0
  180.5840  183.7080  135.4090 C   0  0  0  0  0  3  0  0  0  0  0  0
  181.1670  181.0310  136.1120 C   0  0  0  0  0  2  0  0  0  0  0  0
  178.9420  182.2110  136.5530 C   0  0  0  0  0  2  0  0  0  0  0  0
  182.1390  179.7520  138.7530 C   0  0  0  0  0  2  0  0  0  0  0  0
  179.3650  183.1440  135.4530 C   0  0  0  0  0  3  0  0  0  0  0  0
  178.9310  179.1440  143.0710 O   0  0  0  0  0  0  0  0  0  0  0  0
  181.8530  182.0830  136.9990 C   0  0  2  0  0  3  0  0  0  0  0  0
  181.3650  178.7560  144.2710 C   0  0  2  0  0  3  0  0  0  0  0  0
  180.5970  180.9920  140.3030 C   0  0  0  0  0  2  0  0  0  0  0  0
  181.3760  179.5520  142.9620 C   0  0  0  0  0  2  0  0  0  0  0  0
  179.7360  180.3560  138.0090 C   0  0  2  0  0  3  0  0  0  0  0  0
  184.2260  179.2160  142.1910 C   0  0  0  0  0  3  0  0  0  0  0  0
  179.7210  180.8810  136.5690 C   0  0  2  0  0  3  0  0  0  0  0  0
  184.0880  178.9470  139.7500 C   0  0  0  0  0  2  0  0  0  0  0  0
  183.3230  180.1610  139.5030 N   0  0  0  0  0  0  0  0  0  0  0  0
  179.3130  177.7940  143.1320 C   0  0  0  0  0  2  0  0  0  0  0  0
  184.7430  179.1630  143.4250 C   0  0  0  0  0  0  0  0  0  0  0  0
  179.9650  179.8970  142.4610 C   0  0  1  0  0  3  0  0  0  0  0  0
  181.4490  182.0620  138.3700 O   0  0  0  0  0  0  0  0  0  0  0  0
  180.9960  180.7920  138.8320 C   0  0  2  0  0  0  0  0  0  0  0  0
  183.8260  179.2730  144.6110 C   0  0  0  0  0  2  0  0  0  0  0  0
  182.7500  178.1920  144.5850 C   0  0  0  0  0  2  0  0  0  0  0  0
  180.3700  177.5950  144.2150 C   0  0  0  0  0  2  0  0  0  0  0  0
  179.1260  178.2770  136.7540 C   0  0  0  0  0  3  0  0  0  0  0  0
  179.5530  176.0740  137.6560 N   0  0  0  0  0  0  0  0  0  0  0  0
  180.2990  178.0360  138.9510 C   0  0  0  0  0  2  0  0  0  0  0  0
  179.7830  176.6010  139.0070 C   0  0  0  0  0  2  0  0  0  0  0  0
  179.2130  176.9540  136.5720 C   0  0  0  0  0  3  0  0  0  0  0  0
  179.3290  178.8760  138.1180 C   0  0  1  0  0  3  0  0  0  0  0  0
  179.4720  174.6370  137.4190 C   0  0  0  0  0  3  0  0  0  0  0  0
  180.7160  174.1280  136.7190 C   0  0  0  0  0  1  0  0  0  0  0  0
  179.2570  173.8970  138.7180 C   0  0  0  0  0  1  0  0  0  0  0  0
  186.2300  179.0350  143.6360 C   0  0  0  0  0  2  0  0  0  0  0  0
  186.9070  178.0060  142.7160 C   0  0  2  0  0  3  0  0  0  0  0  0
  188.4480  177.0770  144.4370 C   0  0  0  0  0  2  0  0  0  0  0  0
  187.3050  176.7530  143.4900 C   0  0  0  0  0  3  0  0  0  0  0  0
  187.0400  176.9550  144.9720 C   0  0  0  0  0  2  0  0  0  0  0  0
  188.1080  178.6100  141.9910 C   0  0  0  0  0  2  0  0  0  0  0  0
  189.6950  178.4230  138.2500 O   0  0  0  0  0  0  0  0  0  0  0  0
  188.4660  177.8050  140.7530 C   0  0  1  0  0  3  0  0  0  0  0  0
  188.3840  177.9150  138.2240 C   0  0  2  0  0  3  0  0  0  0  0  0
  187.6840  178.3300  139.5330 C   0  0  0  0  0  2  0  0  0  0  0  0
  189.7130  176.1730  138.6380 C   0  0  1  0  0  3  0  0  0  0  0  0
  190.3450  177.4850  139.0530 C   0  0  2  0  0  3  0  0  0  0  0  0
  188.4450  176.5070  138.1350 O   0  0  0  0  0  0  0  0  0  0  0  0
  189.9950  177.8190  140.5220 C   0  0  2  0  0  3  0  0  0  0  0  0
  190.7160  176.9260  141.4890 C   0  0  0  0  0  0  0  0  0  0  0  0
  190.1550  175.8960  141.9510 O   0  0  0  0  0  1  0  0  0  0  0  0
  192.0150  177.2310  141.8680 O   0  0  0  0  0  0  0  0  0  0  0  0
  190.5500  175.5150  137.5520 C   0  0  0  0  0  2  0  0  0  0  0  0
  191.7820  176.3500  137.2690 C   0  0  0  0  0  1  0  0  0  0  0  0
  2 16  1  0  0  0  0
  3 19  1  0  0  0  0
  4 11  1  0  0  0  0
  5  9  2  0  0  0  0
  5  4  1  0  0  0  0
  7 17  1  0  0  0  0
  8 19  1  0  0  0  0
  9  7  1  0  0  0  0
 10 20  1  0  0  0  0
 11  6  1  6  0  0  0
 11 23  1  0  0  0  0
 12 14  1  6  0  0  0
 12 26  1  0  0  0  0
 13  1  1  0  0  0  0
 15 33  1  6  0  0  0
 15 24  1  0  0  0  0
 16 21  2  0  0  0  0
 17  6  1  1  0  0  0
 17 15  1  0  0  0  0
 18  2  1  0  0  0  0
 19 18  1  0  0  0  0
 20 27  1  0  0  0  0
 21 37  1  0  0  0  0
 21 25  1  0  0  0  0
 22  1  1  6  0  0  0
 22 14  1  0  0  0  0
 22 10  1  0  0  0  0
 23 24  1  0  0  0  0
 24  8  1  6  0  0  0
 24 13  1  0  0  0  0
 26 25  1  0  0  0  0
 27 12  1  0  0  0  0
 29 31  1  0  0  0  0
 30 31  1  0  0  0  0
 32 28  2  0  0  0  0
 32 29  1  0  0  0  0
 33 28  1  6  0  0  0
 33 30  1  0  0  0  0
 34 29  1  0  0  0  0
 34 36  1  0  0  0  0
 35 34  1  0  0  0  0
 38 42  1  1  0  0  0
 38 40  1  0  0  0  0
 38 37  1  0  0  0  0
 39 41  1  0  0  0  0
 40 39  1  0  0  0  0
 40 41  1  0  0  0  0
 44 42  1  1  0  0  0
 45 43  1  0  0  0  0
 45 46  1  1  0  0  0
 46 44  1  0  0  0  0
 47 54  1  6  0  0  0
 47 48  1  0  0  0  0
 48 43  1  6  0  0  0
 48 50  1  0  0  0  0
 49 45  1  0  0  0  0
 49 47  1  0  0  0  0
 50 44  1  0  0  0  0
 50 51  1  1  0  0  0
 51 53  2  0  0  0  0
 51 52  1  0  0  0  0
 55 54  1  0  0  0  0
M  END
>  <MODEL>
3

>  <REMARK>
 VINA RESULT:      -5.0      2.815      6.971
  Name = 
  9 active torsions:
  status: ('A' for Active; 'I' for Inactive)
    1  A    between atoms: C_1  and  C_53
    2  A    between atoms: C_6  and  C_46
    3  A    between atoms: C_8  and  C_22
    4  A    between atoms: C_8  and  C_43
    5  A    between atoms: C_10  and  N_32
    6  A    between atoms: C_11  and  C_29
    7  A    between atoms: C_20  and  C_22
    8  A    between atoms: C_22  and  C_46
    9  A    between atoms: C_33  and  C_52
                            x       y       z     vdW  Elec       q    Type
                         _______ _______ _______ _____ _____    ______ ____

>  <TORSDO>
F 9

$$$$
=
 OpenBabel10262420173D

 55 62  0  0  1  0  0  0  0  0999 V2000
  186.0770  178.6010  138.7040 C   0  0  0  0  0  2  0  0  0  0  0  0
  185.4020  174.0660  136.3520 C   0  0  0  0  0  2  0  0  0  0  0  0
  182.8710  175.7400  136.3970 O   0  0  0  0  0  1  0  0  0  0  0  0
  180.3600  179.0700  136.6480 C   0  0  0  0  0  2  0  0  0  0  0  0
  179.5140  179.9980  137.4990 C   0  0  0  0  0  3  0  0  0  0  0  0
  180.9700  178.0160  138.8970 C   0  0  0  0  0  2  0  0  0  0  0  0
  181.3630  180.5350  139.0920 C   0  0  0  0  0  2  0  0  0  0  0  0
  183.6760  176.6430  138.3150 C   0  0  0  0  0  2  0  0  0  0  0  0
  179.9570  180.6650  138.5780 C   0  0  0  0  0  3  0  0  0  0  0  0
  188.4310  179.1570  138.9270 O   0  0  0  0  0  0  0  0  0  0  0  0
  181.3150  178.1190  137.4030 C   0  0  2  0  0  3  0  0  0  0  0  0
  189.2510  177.0240  137.4120 C   0  0  2  0  0  3  0  0  0  0  0  0
  184.9580  178.7060  137.6700 C   0  0  0  0  0  2  0  0  0  0  0  0
  187.7700  177.3970  137.3070 C   0  0  0  0  0  2  0  0  0  0  0  0
  183.2000  178.9020  139.4810 C   0  0  2  0  0  3  0  0  0  0  0  0
  186.6770  174.8390  136.2630 C   0  0  0  0  0  3  0  0  0  0  0  0
  181.6930  179.1330  139.6400 C   0  0  2  0  0  3  0  0  0  0  0  0
  184.5340  174.6510  137.4550 C   0  0  0  0  0  2  0  0  0  0  0  0
  184.0270  175.9600  137.0730 N   0  0  0  0  0  0  0  0  0  0  0  0
  188.8790  178.0680  139.6940 C   0  0  0  0  0  2  0  0  0  0  0  0
  187.7470  174.4620  135.5520 C   0  0  0  0  0  0  0  0  0  0  0  0
  187.4340  178.7150  138.0230 C   0  0  1  0  0  3  0  0  0  0  0  0
  182.6600  178.5180  137.1280 O   0  0  0  0  0  0  0  0  0  0  0  0
  183.5950  178.1790  138.1480 C   0  0  2  0  0  0  0  0  0  0  0  0
  188.9650  175.3420  135.5340 C   0  0  0  0  0  2  0  0  0  0  0  0
  189.4930  175.5900  136.9440 C   0  0  0  0  0  2  0  0  0  0  0  0
  189.7650  177.1580  138.8470 C   0  0  0  0  0  2  0  0  0  0  0  0
  185.2320  179.0020  140.9410 C   0  0  0  0  0  3  0  0  0  0  0  0
  185.1090  178.5940  143.3220 N   0  0  0  0  0  0  0  0  0  0  0  0
  183.0150  178.5650  142.0190 C   0  0  0  0  0  2  0  0  0  0  0  0
  183.7710  177.9980  143.2160 C   0  0  0  0  0  2  0  0  0  0  0  0
  185.7980  179.0650  142.1520 C   0  0  0  0  0  3  0  0  0  0  0  0
  183.8720  178.3830  140.7640 C   0  0  1  0  0  3  0  0  0  0  0  0
  185.8500  178.5470  144.5770 C   0  0  0  0  0  3  0  0  0  0  0  0
  184.9180  178.6640  145.7660 C   0  0  0  0  0  1  0  0  0  0  0  0
  186.6620  177.2750  144.6660 C   0  0  0  0  0  1  0  0  0  0  0  0
  187.7270  173.1900  134.7420 C   0  0  0  0  0  2  0  0  0  0  0  0
  189.0590  172.4240  134.7450 C   0  0  2  0  0  3  0  0  0  0  0  0
  187.6360  170.9280  136.1340 C   0  0  0  0  0  2  0  0  0  0  0  0
  189.0640  171.3290  135.8070 C   0  0  0  0  0  3  0  0  0  0  0  0
  188.4750  170.0520  135.2330 C   0  0  0  0  0  2  0  0  0  0  0  0
  190.2470  173.3680  134.9210 C   0  0  0  0  0  2  0  0  0  0  0  0
  194.0620  171.9930  134.5940 O   0  0  0  0  0  0  0  0  0  0  0  0
  191.4410  172.6450  135.5220 C   0  0  1  0  0  3  0  0  0  0  0  0
  193.2150  170.9300  134.9500 C   0  0  2  0  0  3  0  0  0  0  0  0
  191.7590  171.3750  134.7080 C   0  0  0  0  0  2  0  0  0  0  0  0
  193.9320  171.8180  136.8660 C   0  0  1  0  0  3  0  0  0  0  0  0
  193.9820  172.8100  135.7230 C   0  0  2  0  0  3  0  0  0  0  0  0
  193.4080  170.6350  136.3180 O   0  0  0  0  0  0  0  0  0  0  0  0
  192.6550  173.5980  135.6250 C   0  0  2  0  0  3  0  0  0  0  0  0
  192.5000  174.5820  136.7470 C   0  0  0  0  0  0  0  0  0  0  0  0
  191.9400  174.2450  137.8240 O   0  0  0  0  0  1  0  0  0  0  0  0
  192.9910  175.8720  136.6010 O   0  0  0  0  0  0  0  0  0  0  0  0
  195.3340  171.5720  137.4010 C   0  0  0  0  0  2  0  0  0  0  0  0
  196.1930  172.8020  137.1920 C   0  0  0  0  0  1  0  0  0  0  0  0
  2 18  1  0  0  0  0
  3 19  1  0  0  0  0
  4  5  1  0  0  0  0
  5  9  2  0  0  0  0
  7 17  1  0  0  0  0
  9  7  1  0  0  0  0
 10 20  1  0  0  0  0
 11  4  1  1  0  0  0
 11  6  1  0  0  0  0
 12 26  1  1  0  0  0
 12 27  1  0  0  0  0
 13  1  1  0  0  0  0
 14 12  1  0  0  0  0
 15 17  1  0  0  0  0
 15 33  1  1  0  0  0
 16  2  1  0  0  0  0
 17  6  1  6  0  0  0
 19 18  1  0  0  0  0
 19  8  1  0  0  0  0
 21 16  2  0  0  0  0
 22 14  1  1  0  0  0
 22  1  1  0  0  0  0
 22 10  1  0  0  0  0
 23 11  1  0  0  0  0
 23 24  1  0  0  0  0
 24 13  1  6  0  0  0
 24  8  1  0  0  0  0
 24 15  1  0  0  0  0
 25 21  1  0  0  0  0
 25 26  1  0  0  0  0
 27 20  1  0  0  0  0
 28 32  2  0  0  0  0
 29 34  1  0  0  0  0
 30 31  1  0  0  0  0
 31 29  1  0  0  0  0
 32 29  1  0  0  0  0
 33 28  1  1  0  0  0
 33 30  1  0  0  0  0
 34 36  1  0  0  0  0
 34 35  1  0  0  0  0
 37 21  1  0  0  0  0
 38 37  1  1  0  0  0
 38 42  1  0  0  0  0
 38 40  1  0  0  0  0
 40 39  1  0  0  0  0
 41 40  1  0  0  0  0
 41 39  1  0  0  0  0
 43 45  1  0  0  0  0
 44 42  1  6  0  0  0
 44 50  1  0  0  0  0
 45 46  1  1  0  0  0
 45 49  1  0  0  0  0
 46 44  1  0  0  0  0
 47 54  1  6  0  0  0
 48 43  1  6  0  0  0
 48 47  1  0  0  0  0
 49 47  1  0  0  0  0
 50 48  1  0  0  0  0
 50 51  1  1  0  0  0
 51 52  1  0  0  0  0
 53 51  2  0  0  0  0
 55 54  1  0  0  0  0
M  END
>  <MODEL>
4

>  <REMARK>
 VINA RESULT:      -3.9      4.628      8.388
  Name = 
  9 active torsions:
  status: ('A' for Active; 'I' for Inactive)
    1  A    between atoms: C_1  and  C_53
    2  A    between atoms: C_6  and  C_46
    3  A    between atoms: C_8  and  C_22
    4  A    between atoms: C_8  and  C_43
    5  A    between atoms: C_10  and  N_32
    6  A    between atoms: C_11  and  C_29
    7  A    between atoms: C_20  and  C_22
    8  A    between atoms: C_22  and  C_46
    9  A    between atoms: C_33  and  C_52
                            x       y       z     vdW  Elec       q    Type
                         _______ _______ _______ _____ _____    ______ ____

>  <TORSDO>
F 9

$$$$
=
 OpenBabel10262420173D

 55 62  0  0  1  0  0  0  0  0999 V2000
  179.9390  179.3470  140.8180 C   0  0  0  0  0  2  0  0  0  0  0  0
  185.0370  178.5950  140.8570 C   0  0  0  0  0  2  0  0  0  0  0  0
  184.0800  179.9410  138.3110 O   0  0  0  0  0  1  0  0  0  0  0  0
  181.6750  182.1090  135.6710 C   0  0  0  0  0  2  0  0  0  0  0  0
  180.5790  182.1200  134.6230 C   0  0  0  0  0  3  0  0  0  0  0  0
  181.1250  179.6160  135.8190 C   0  0  0  0  0  2  0  0  0  0  0  0
  178.9310  180.9070  136.0560 C   0  0  0  0  0  2  0  0  0  0  0  0
  182.1220  178.8470  138.6410 C   0  0  0  0  0  2  0  0  0  0  0  0
  179.3510  181.6020  134.7920 C   0  0  0  0  0  3  0  0  0  0  0  0
  178.9830  179.1480  143.0420 O   0  0  0  0  0  0  0  0  0  0  0  0
  181.8470  180.8030  136.4770 C   0  0  2  0  0  3  0  0  0  0  0  0
  181.4310  178.9450  144.2590 C   0  0  2  0  0  3  0  0  0  0  0  0
  180.6320  180.3940  139.9470 C   0  0  0  0  0  2  0  0  0  0  0  0
  181.4330  179.4740  142.8220 C   0  0  0  0  0  2  0  0  0  0  0  0
  179.7170  179.3490  137.8310 C   0  0  2  0  0  3  0  0  0  0  0  0
  184.2620  178.9340  142.0880 C   0  0  0  0  0  3  0  0  0  0  0  0
  179.6850  179.5880  136.3170 C   0  0  2  0  0  3  0  0  0  0  0  0
  184.0730  178.2060  139.7460 C   0  0  0  0  0  2  0  0  0  0  0  0
  183.3270  179.3660  139.2820 N   0  0  0  0  0  0  0  0  0  0  0  0
  179.3410  177.8270  143.3560 C   0  0  0  0  0  2  0  0  0  0  0  0
  184.8000  179.1080  143.3020 C   0  0  0  0  0  0  0  0  0  0  0  0
  180.0200  179.7470  142.2840 C   0  0  1  0  0  3  0  0  0  0  0  0
  181.4680  181.0540  137.8320 O   0  0  0  0  0  0  0  0  0  0  0  0
  181.0000  179.9070  138.5360 C   0  0  2  0  0  0  0  0  0  0  0  0
  183.9080  179.4640  144.4580 C   0  0  0  0  0  2  0  0  0  0  0  0
  182.8110  178.4210  144.6550 C   0  0  0  0  0  2  0  0  0  0  0  0
  180.4140  177.8170  144.4420 C   0  0  0  0  0  2  0  0  0  0  0  0
  178.9310  177.1170  137.0110 C   0  0  0  0  0  3  0  0  0  0  0  0
  179.3890  175.0800  138.2310 N   0  0  0  0  0  0  0  0  0  0  0  0
  180.3110  177.1970  139.0980 C   0  0  0  0  0  2  0  0  0  0  0  0
  179.7650  175.8150  139.4450 C   0  0  0  0  0  2  0  0  0  0  0  0
  178.9660  175.7800  137.0490 C   0  0  0  0  0  3  0  0  0  0  0  0
  179.2850  177.9270  138.2280 C   0  0  1  0  0  3  0  0  0  0  0  0
  179.2470  173.6280  138.2510 C   0  0  0  0  0  3  0  0  0  0  0  0
  179.2800  173.0580  136.8470 C   0  0  0  0  0  1  0  0  0  0  0  0
  180.3270  173.0020  139.1010 C   0  0  0  0  0  1  0  0  0  0  0  0
  186.2880  178.9900  143.5110 C   0  0  0  0  0  2  0  0  0  0  0  0
  186.6990  177.8700  144.4790 C   0  0  2  0  0  3  0  0  0  0  0  0
  186.7180  178.6530  146.8420 C   0  0  0  0  0  2  0  0  0  0  0  0
  187.5710  178.4100  145.6090 C   0  0  0  0  0  3  0  0  0  0  0  0
  187.5890  177.4210  146.7630 C   0  0  0  0  0  2  0  0  0  0  0  0
  187.3930  176.7240  143.7470 C   0  0  0  0  0  2  0  0  0  0  0  0
  191.1180  175.5070  142.6540 O   0  0  0  0  0  0  0  0  0  0  0  0
  188.8590  177.0380  143.4960 C   0  0  1  0  0  3  0  0  0  0  0  0
  191.1830  176.1240  143.9150 C   0  0  2  0  0  3  0  0  0  0  0  0
  189.7480  176.2390  144.4670 C   0  0  0  0  0  2  0  0  0  0  0  0
  191.5110  177.7440  142.4180 C   0  0  1  0  0  3  0  0  0  0  0  0
  190.7440  176.5740  141.8360 C   0  0  2  0  0  3  0  0  0  0  0  0
  191.7450  177.4110  143.7620 O   0  0  0  0  0  0  0  0  0  0  0  0
  189.2210  176.7770  142.0150 C   0  0  2  0  0  3  0  0  0  0  0  0
  188.6850  177.8470  141.1100 C   0  0  0  0  0  0  0  0  0  0  0  0
  189.0290  179.0500  141.2640 O   0  0  0  0  0  1  0  0  0  0  0  0
  187.8140  177.5070  140.0850 O   0  0  0  0  0  0  0  0  0  0  0  0
  192.8310  177.9150  141.6830 C   0  0  0  0  0  2  0  0  0  0  0  0
  192.7190  177.3600  140.2780 C   0  0  0  0  0  1  0  0  0  0  0  0
  2 16  1  0  0  0  0
  3 19  1  0  0  0  0
  5  9  2  0  0  0  0
  5  4  1  0  0  0  0
  6 11  1  0  0  0  0
  7 17  1  0  0  0  0
  8 19  1  0  0  0  0
  9  7  1  0  0  0  0
 10 20  1  0  0  0  0
 11  4  1  6  0  0  0
 11 23  1  0  0  0  0
 12 14  1  6  0  0  0
 12 27  1  0  0  0  0
 12 26  1  0  0  0  0
 13  1  1  0  0  0  0
 15 33  1  6  0  0  0
 15 24  1  0  0  0  0
 16 21  2  0  0  0  0
 17  6  1  1  0  0  0
 17 15  1  0  0  0  0
 18  2  1  0  0  0  0
 19 18  1  0  0  0  0
 20 27  1  0  0  0  0
 21 37  1  0  0  0  0
 21 25  1  0  0  0  0
 22  1  1  6  0  0  0
 22 14  1  0  0  0  0
 22 10  1  0  0  0  0
 23 24  1  0  0  0  0
 24  8  1  1  0  0  0
 24 13  1  0  0  0  0
 25 26  1  0  0  0  0
 28 32  2  0  0  0  0
 29 34  1  0  0  0  0
 29 31  1  0  0  0  0
 30 31  1  0  0  0  0
 32 29  1  0  0  0  0
 33 28  1  6  0  0  0
 33 30  1  0  0  0  0
 34 36  1  0  0  0  0
 35 34  1  0  0  0  0
 38 37  1  6  0  0  0
 38 40  1  0  0  0  0
 40 41  1  0  0  0  0
 40 39  1  0  0  0  0
 41 39  1  0  0  0  0
 42 38  1  0  0  0  0
 43 45  1  0  0  0  0
 44 42  1  6  0  0  0
 44 46  1  0  0  0  0
 45 46  1  6  0  0  0
 47 54  1  6  0  0  0
 47 49  1  0  0  0  0
 48 50  1  0  0  0  0
 48 47  1  0  0  0  0
 48 43  1  1  0  0  0
 49 45  1  0  0  0  0
 50 51  1  6  0  0  0
 50 44  1  0  0  0  0
 51 52  1  0  0  0  0
 53 51  2  0  0  0  0
 55 54  1  0  0  0  0
M  END
>  <MODEL>
5

>  <REMARK>
 VINA RESULT:      -3.8      2.643      6.329
  Name = 
  9 active torsions:
  status: ('A' for Active; 'I' for Inactive)
    1  A    between atoms: C_1  and  C_53
    2  A    between atoms: C_6  and  C_46
    3  A    between atoms: C_8  and  C_22
    4  A    between atoms: C_8  and  C_43
    5  A    between atoms: C_10  and  N_32
    6  A    between atoms: C_11  and  C_29
    7  A    between atoms: C_20  and  C_22
    8  A    between atoms: C_22  and  C_46
    9  A    between atoms: C_33  and  C_52
                            x       y       z     vdW  Elec       q    Type
                         _______ _______ _______ _____ _____    ______ ____

>  <TORSDO>
F 9

$$$$
=
 OpenBabel10262420173D

 55 62  0  0  1  0  0  0  0  0999 V2000
  184.3240  178.9880  139.4290 C   0  0  0  0  0  2  0  0  0  0  0  0
  185.8910  174.7500  136.9530 C   0  0  0  0  0  2  0  0  0  0  0  0
  183.4600  176.0210  135.6560 O   0  0  0  0  0  1  0  0  0  0  0  0
  180.6170  178.8930  134.5950 C   0  0  0  0  0  2  0  0  0  0  0  0
  179.2880  179.5700  134.8710 C   0  0  0  0  0  3  0  0  0  0  0  0
  180.1230  177.6530  136.7760 C   0  0  0  0  0  2  0  0  0  0  0  0
  179.8600  180.1550  137.2320 C   0  0  0  0  0  2  0  0  0  0  0  0
  182.9280  176.7720  137.7290 C   0  0  0  0  0  2  0  0  0  0  0  0
  178.9500  180.1470  136.0360 C   0  0  0  0  0  3  0  0  0  0  0  0
  186.0380  179.8440  140.9230 O   0  0  0  0  0  0  0  0  0  0  0  0
  181.1840  177.9990  135.7190 C   0  0  2  0  0  3  0  0  0  0  0  0
  187.9310  178.0670  140.0390 C   0  0  2  0  0  3  0  0  0  0  0  0
  183.9320  179.0650  137.9550 C   0  0  0  0  0  2  0  0  0  0  0  0
  186.6940  178.2340  139.1510 C   0  0  0  0  0  2  0  0  0  0  0  0
  181.4810  178.7670  138.5130 C   0  0  2  0  0  3  0  0  0  0  0  0
  186.8410  175.7030  137.6000 C   0  0  0  0  0  3  0  0  0  0  0  0
  180.1090  178.7550  137.8280 C   0  0  2  0  0  3  0  0  0  0  0  0
  184.4760  175.0540  137.4180 C   0  0  0  0  0  2  0  0  0  0  0  0
  184.0100  176.3160  136.8610 N   0  0  0  0  0  0  0  0  0  0  0  0
  186.2080  178.7400  141.7750 C   0  0  0  0  0  2  0  0  0  0  0  0
  188.1740  175.5800  137.5800 C   0  0  0  0  0  0  0  0  0  0  0  0
  185.7830  179.3840  139.6070 C   0  0  1  0  0  3  0  0  0  0  0  0
  182.3630  178.6200  136.2380 O   0  0  0  0  0  0  0  0  0  0  0  0
  182.6550  178.2890  137.5930 C   0  0  2  0  0  0  0  0  0  0  0  0
  189.0190  176.6210  138.2600 C   0  0  0  0  0  2  0  0  0  0  0  0
  188.6550  176.7570  139.7350 C   0  0  0  0  0  2  0  0  0  0  0  0
  187.5640  178.0860  141.5240 C   0  0  0  0  0  2  0  0  0  0  0  0
  182.1660  179.0970  140.8990 C   0  0  0  0  0  3  0  0  0  0  0  0
  180.8850  178.1730  142.7300 N   0  0  0  0  0  0  0  0  0  0  0  0
  180.0410  177.8600  140.4340 C   0  0  0  0  0  2  0  0  0  0  0  0
  180.1390  177.2750  141.8390 C   0  0  0  0  0  2  0  0  0  0  0  0
  181.8970  179.0500  142.2090 C   0  0  0  0  0  3  0  0  0  0  0  0
  181.4510  178.1880  139.9380 C   0  0  1  0  0  3  0  0  0  0  0  0
  180.7610  178.0600  144.1790 C   0  0  0  0  0  3  0  0  0  0  0  0
  181.9810  178.6270  144.8770 C   0  0  0  0  0  1  0  0  0  0  0  0
  179.5080  178.7550  144.6590 C   0  0  0  0  0  1  0  0  0  0  0  0
  188.8340  174.4360  136.8530 C   0  0  0  0  0  2  0  0  0  0  0  0
  190.2130  174.7760  136.2690 C   0  0  2  0  0  3  0  0  0  0  0  0
  189.8760  176.8570  134.9440 C   0  0  0  0  0  2  0  0  0  0  0  0
  190.0890  175.3550  134.8620 C   0  0  0  0  0  3  0  0  0  0  0  0
  191.2400  176.3100  134.5950 C   0  0  0  0  0  2  0  0  0  0  0  0
  191.1410  173.5640  136.2850 C   0  0  0  0  0  2  0  0  0  0  0  0
  194.3550  174.2700  138.6770 O   0  0  0  0  0  0  0  0  0  0  0  0
  192.5930  173.9830  136.4480 C   0  0  1  0  0  3  0  0  0  0  0  0
  194.0930  175.4140  137.9030 C   0  0  2  0  0  3  0  0  0  0  0  0
  192.6840  175.2670  137.2940 C   0  0  0  0  0  2  0  0  0  0  0  0
  195.5230  174.1800  136.7170 C   0  0  1  0  0  3  0  0  0  0  0  0
  194.7270  173.3470  137.7000 C   0  0  2  0  0  3  0  0  0  0  0  0
  195.0570  175.4960  136.8740 O   0  0  0  0  0  0  0  0  0  0  0  0
  193.4270  172.8240  137.0450 C   0  0  2  0  0  3  0  0  0  0  0  0
  193.6970  171.7500  136.0330 C   0  0  0  0  0  0  0  0  0  0  0  0
  194.1650  170.6350  136.3900 O   0  0  0  0  0  1  0  0  0  0  0  0
  193.4180  171.9820  134.6940 O   0  0  0  0  0  0  0  0  0  0  0  0
  197.0030  174.1050  137.0540 C   0  0  0  0  0  2  0  0  0  0  0  0
  197.4230  172.6600  137.2320 C   0  0  0  0  0  1  0  0  0  0  0  0
  1 22  1  0  0  0  0
  2 18  1  0  0  0  0
  2 16  1  0  0  0  0
  3 19  1  0  0  0  0
  4  5  1  0  0  0  0
  5  9  2  0  0  0  0
  7 17  1  0  0  0  0
  9  7  1  0  0  0  0
 10 20  1  0  0  0  0
 11  4  1  6  0  0  0
 11 23  1  0  0  0  0
 11  6  1  0  0  0  0
 12 14  1  6  0  0  0
 12 27  1  0  0  0  0
 13  1  1  0  0  0  0
 15 33  1  1  0  0  0
 17  6  1  6  0  0  0
 17 15  1  0  0  0  0
 19 18  1  0  0  0  0
 19  8  1  0  0  0  0
 21 16  2  0  0  0  0
 21 25  1  0  0  0  0
 22 14  1  1  0  0  0
 22 10  1  0  0  0  0
 23 24  1  0  0  0  0
 24  8  1  1  0  0  0
 24 13  1  0  0  0  0
 24 15  1  0  0  0  0
 25 26  1  0  0  0  0
 26 12  1  0  0  0  0
 27 20  1  0  0  0  0
 28 32  2  0  0  0  0
 29 34  1  0  0  0  0
 30 31  1  0  0  0  0
 31 29  1  0  0  0  0
 32 29  1  0  0  0  0
 33 30  1  1  0  0  0
 33 28  1  0  0  0  0
 34 36  1  0  0  0  0
 34 35  1  0  0  0  0
 37 21  1  0  0  0  0
 38 42  1  6  0  0  0
 38 37  1  0  0  0  0
 40 39  1  0  0  0  0
 40 38  1  0  0  0  0
 41 40  1  0  0  0  0
 41 39  1  0  0  0  0
 44 42  1  1  0  0  0
 44 50  1  0  0  0  0
 44 46  1  0  0  0  0
 45 46  1  6  0  0  0
 45 43  1  0  0  0  0
 47 49  1  0  0  0  0
 47 54  1  1  0  0  0
 47 48  1  0  0  0  0
 48 43  1  1  0  0  0
 49 45  1  0  0  0  0
 50 51  1  6  0  0  0
 50 48  1  0  0  0  0
 51 52  1  0  0  0  0
 53 51  2  0  0  0  0
 54 55  1  0  0  0  0
M  END
>  <MODEL>
6

>  <REMARK>
 VINA RESULT:      -3.5      4.459      7.825
  Name = 
  9 active torsions:
  status: ('A' for Active; 'I' for Inactive)
    1  A    between atoms: C_1  and  C_53
    2  A    between atoms: C_6  and  C_46
    3  A    between atoms: C_8  and  C_22
    4  A    between atoms: C_8  and  C_43
    5  A    between atoms: C_10  and  N_32
    6  A    between atoms: C_11  and  C_29
    7  A    between atoms: C_20  and  C_22
    8  A    between atoms: C_22  and  C_46
    9  A    between atoms: C_33  and  C_52
                            x       y       z     vdW  Elec       q    Type
                         _______ _______ _______ _____ _____    ______ ____

>  <TORSDO>
F 9

$$$$
