=
 OpenBabel10262420593D

 28 29  0  0  1  0  0  0  0  0999 V2000
  189.3760  176.5570  146.4530 C   0  0  0  0  0  3  0  0  0  0  0  0
  191.0850  175.5300  144.3590 O   0  0  0  0  0  1  0  0  0  0  0  0
  191.7230  176.7580  144.5610 C   0  0  1  0  0  3  0  0  0  0  0  0
  186.0320  178.2290  146.5580 O   0  0  0  0  0  1  0  0  0  0  0  0
  192.2460  176.2500  146.8610 O   0  0  0  0  0  1  0  0  0  0  0  0
  190.6760  177.2710  142.2440 C   0  0  0  0  0  2  0  0  0  0  0  0
  189.1470  177.3650  142.2220 C   0  0  2  0  0  3  0  0  0  0  0  0
  191.3220  177.8310  143.5220 C   0  0  1  0  0  3  0  0  0  0  0  0
  187.6340  178.2790  144.7750 C   0  0  0  0  0  2  0  0  0  0  0  0
  188.5140  176.3520  143.1810 C   0  0  0  0  0  2  0  0  0  0  0  0
  187.9220  176.9300  148.2820 O   0  0  0  0  0  1  0  0  0  0  0  0
  186.8980  176.9210  143.8090 S   0  0  0  0  0  0  0  0  0  0  0  0
  187.3960  178.1340  146.2790 C   0  0  2  0  0  3  0  0  0  0  0  0
  187.9710  176.8500  146.8900 C   0  0  1  0  0  3  0  0  0  0  0  0
  190.2890  177.4630  146.4730 N   0  0  0  0  0  0  0  0  0  0  0  0
  191.6450  177.2010  146.0330 C   0  0  2  0  0  3  0  0  0  0  0  0
  187.6890  178.6810  139.1640 O   0  0  0  0  0  0  0  0  0  0  0  0
  189.7100  177.5810  139.7670 C   0  0  1  0  0  3  0  0  0  0  0  0
  189.0830  178.7680  139.0310 C   0  0  1  0  0  3  0  0  0  0  0  0
  188.6520  177.2300  140.7760 C   0  0  2  0  0  3  0  0  0  0  0  0
  187.4850  178.1490  140.4470 C   0  0  0  0  0  2  0  0  0  0  0  0
  190.0610  176.3400  138.9280 C   0  0  0  0  0  3  0  0  0  0  0  0
  191.4020  176.4980  138.2360 C   0  0  0  0  0  1  0  0  0  0  0  0
  188.9840  175.9430  137.9280 C   0  0  0  0  0  1  0  0  0  0  0  0
  188.2530  179.1100  136.8700 C   0  0  0  0  0  1  0  0  0  0  0  0
  189.4630  178.8450  137.6270 N   0  0  0  0  0  2  0  0  0  0  0  0
  191.4700  179.9710  144.0850 C   0  0  0  0  0  1  0  0  0  0  0  0
  190.5850  178.8920  144.0650 O   0  0  0  0  0  0  0  0  0  0  0  0
  1 15  2  0  0  0  0
  1 14  1  0  0  0  0
  3  2  1  1  0  0  0
  3 16  1  0  0  0  0
  6  8  1  0  0  0  0
  7  6  1  6  0  0  0
  7 10  1  0  0  0  0
  8 28  1  1  0  0  0
  8  3  1  0  0  0  0
  9 13  1  0  0  0  0
 10 12  1  0  0  0  0
 12  9  1  0  0  0  0
 13  4  1  6  0  0  0
 13 14  1  0  0  0  0
 14 11  1  1  0  0  0
 16 15  1  0  0  0  0
 16  5  1  1  0  0  0
 17 21  1  0  0  0  0
 18 22  1  6  0  0  0
 18 20  1  0  0  0  0
 19 26  1  6  0  0  0
 19 17  1  0  0  0  0
 19 18  1  0  0  0  0
 20 21  1  1  0  0  0
 20  7  1  0  0  0  0
 23 22  1  0  0  0  0
 24 22  1  0  0  0  0
 25 26  1  0  0  0  0
 28 27  1  0  0  0  0
M  END
>  <MODEL>
1

>  <REMARK>
 VINA RESULT:      -6.5      0.000      0.000
  Name = 
  4 active torsions:
  status: ('A' for Active; 'I' for Inactive)
    1  A    between atoms: C_9  and  C_14
    2  A    between atoms: C_10  and  C_13
    3  A    between atoms: C_11  and  O_22
    4  A    between atoms: C_12  and  N_23
                            x       y       z     vdW  Elec       q    Type
                         _______ _______ _______ _____ _____    ______ ____

>  <TORSDO>
F 4

$$$$
=
 OpenBabel10262420593D

 28 29  0  0  1  0  0  0  0  0999 V2000
  192.4830  173.4580  136.1330 C   0  0  0  0  0  3  0  0  0  0  0  0
  189.9030  173.4360  137.4390 O   0  0  0  0  0  1  0  0  0  0  0  0
  189.4980  173.9210  136.1920 C   0  0  1  0  0  3  0  0  0  0  0  0
  195.4250  175.7680  136.1230 O   0  0  0  0  0  1  0  0  0  0  0  0
  190.2490  171.9400  135.0380 O   0  0  0  0  0  1  0  0  0  0  0  0
  189.1850  176.1090  137.5510 C   0  0  0  0  0  2  0  0  0  0  0  0
  190.4760  176.7470  138.0720 C   0  0  2  0  0  3  0  0  0  0  0  0
  189.3210  175.4570  136.1640 C   0  0  1  0  0  3  0  0  0  0  0  0
  193.1270  176.3320  136.5100 C   0  0  0  0  0  2  0  0  0  0  0  0
  191.4920  175.6800  138.4930 C   0  0  0  0  0  2  0  0  0  0  0  0
  194.6900  173.1020  135.3580 O   0  0  0  0  0  1  0  0  0  0  0  0
  193.2110  176.2710  138.3290 S   0  0  0  0  0  0  0  0  0  0  0  0
  194.1160  175.3770  135.8380 C   0  0  2  0  0  3  0  0  0  0  0  0
  193.9150  173.9000  136.2000 C   0  0  1  0  0  3  0  0  0  0  0  0
  191.7400  173.7350  135.1210 N   0  0  0  0  0  0  0  0  0  0  0  0
  190.3490  173.3330  135.0510 C   0  0  2  0  0  3  0  0  0  0  0  0
  188.2460  179.0500  139.7850 O   0  0  0  0  0  0  0  0  0  0  0  0
  189.4530  177.0820  140.3600 C   0  0  1  0  0  3  0  0  0  0  0  0
  188.1000  177.7960  140.3980 C   0  0  1  0  0  3  0  0  0  0  0  0
  190.1340  177.7400  139.1910 C   0  0  2  0  0  3  0  0  0  0  0  0
  189.1740  178.8370  138.7540 C   0  0  0  0  0  2  0  0  0  0  0  0
  190.3440  177.1970  141.6100 C   0  0  0  0  0  3  0  0  0  0  0  0
  191.7540  177.6240  141.2490 C   0  0  0  0  0  1  0  0  0  0  0  0
  190.3660  175.9420  142.4710 C   0  0  0  0  0  1  0  0  0  0  0  0
  186.4020  178.8130  141.6470 C   0  0  0  0  0  1  0  0  0  0  0  0
  187.5580  177.9390  141.7420 N   0  0  0  0  0  2  0  0  0  0  0  0
  189.5110  177.0110  134.5940 C   0  0  0  0  0  1  0  0  0  0  0  0
  190.2600  176.1170  135.3600 O   0  0  0  0  0  0  0  0  0  0  0  0
  1 14  1  0  0  0  0
  3  2  1  1  0  0  0
  7  6  1  1  0  0  0
  7 10  1  0  0  0  0
  7 20  1  0  0  0  0
  8 28  1  1  0  0  0
  8  3  1  0  0  0  0
  8  6  1  0  0  0  0
  9 12  1  0  0  0  0
 12 10  1  0  0  0  0
 13  4  1  1  0  0  0
 13 14  1  0  0  0  0
 13  9  1  0  0  0  0
 14 11  1  6  0  0  0
 15  1  2  0  0  0  0
 16  5  1  1  0  0  0
 16 15  1  0  0  0  0
 16  3  1  0  0  0  0
 17 19  1  0  0  0  0
 18 19  1  0  0  0  0
 18 22  1  1  0  0  0
 19 26  1  1  0  0  0
 20 21  1  6  0  0  0
 20 18  1  0  0  0  0
 21 17  1  0  0  0  0
 22 24  1  0  0  0  0
 23 22  1  0  0  0  0
 25 26  1  0  0  0  0
 27 28  1  0  0  0  0
M  END
>  <MODEL>
2

>  <REMARK>
 VINA RESULT:      -6.4      4.380      8.581
  Name = 
  4 active torsions:
  status: ('A' for Active; 'I' for Inactive)
    1  A    between atoms: C_9  and  C_14
    2  A    between atoms: C_10  and  C_13
    3  A    between atoms: C_11  and  O_22
    4  A    between atoms: C_12  and  N_23
                            x       y       z     vdW  Elec       q    Type
                         _______ _______ _______ _____ _____    ______ ____

>  <TORSDO>
F 4

$$$$
=
 OpenBabel10262420593D

 28 29  0  0  1  0  0  0  0  0999 V2000
  187.6570  177.1540  143.6750 C   0  0  0  0  0  3  0  0  0  0  0  0
  190.0580  175.5800  143.3330 O   0  0  0  0  0  1  0  0  0  0  0  0
  190.6230  176.6720  143.9980 C   0  0  1  0  0  3  0  0  0  0  0  0
  185.6670  179.4530  141.4960 O   0  0  0  0  0  1  0  0  0  0  0  0
  189.2660  176.3360  145.9640 O   0  0  0  0  0  1  0  0  0  0  0  0
  191.6340  177.1150  141.6500 C   0  0  0  0  0  2  0  0  0  0  0  0
  190.6270  177.5050  140.5650 C   0  0  2  0  0  3  0  0  0  0  0  0
  191.3080  177.6780  143.0440 C   0  0  1  0  0  3  0  0  0  0  0  0
  188.0150  178.9830  141.3630 C   0  0  0  0  0  2  0  0  0  0  0  0
  189.3040  176.7520  140.7390 C   0  0  0  0  0  2  0  0  0  0  0  0
  185.4720  178.0110  143.9700 O   0  0  0  0  0  1  0  0  0  0  0  0
  187.8880  177.6960  140.0810 S   0  0  0  0  0  0  0  0  0  0  0  0
  186.7720  179.0600  142.2530 C   0  0  2  0  0  3  0  0  0  0  0  0
  186.4580  177.7660  143.0130 C   0  0  1  0  0  3  0  0  0  0  0  0
  188.4660  177.8590  144.3850 N   0  0  0  0  0  0  0  0  0  0  0  0
  189.6410  177.2870  145.0120 C   0  0  2  0  0  3  0  0  0  0  0  0
  193.2020  176.2180  138.3470 O   0  0  0  0  0  0  0  0  0  0  0  0
  190.8380  176.0220  138.5290 C   0  0  1  0  0  3  0  0  0  0  0  0
  192.1640  175.2740  138.3720 C   0  0  1  0  0  3  0  0  0  0  0  0
  191.2660  177.3060  139.1850 C   0  0  2  0  0  3  0  0  0  0  0  0
  192.7860  177.2290  139.2270 C   0  0  0  0  0  2  0  0  0  0  0  0
  190.0500  176.3330  137.2440 C   0  0  0  0  0  3  0  0  0  0  0  0
  189.7680  177.8180  137.1130 C   0  0  0  0  0  1  0  0  0  0  0  0
  188.7680  175.5270  137.0940 C   0  0  0  0  0  1  0  0  0  0  0  0
  193.5540  173.8710  137.1170 C   0  0  0  0  0  1  0  0  0  0  0  0
  192.2130  174.4230  137.1910 N   0  0  0  0  0  2  0  0  0  0  0  0
  191.3240  179.7250  143.8980 C   0  0  0  0  0  1  0  0  0  0  0  0
  190.6590  178.9180  142.9740 O   0  0  0  0  0  0  0  0  0  0  0  0
  1 15  2  0  0  0  0
  3  2  1  6  0  0  0
  3 16  1  0  0  0  0
  6  8  1  0  0  0  0
  7 10  1  6  0  0  0
  7  6  1  0  0  0  0
  8 28  1  6  0  0  0
  8  3  1  0  0  0  0
  9 13  1  0  0  0  0
 12 10  1  0  0  0  0
 12  9  1  0  0  0  0
 13  4  1  6  0  0  0
 13 14  1  0  0  0  0
 14  1  1  0  0  0  0
 14 11  1  1  0  0  0
 15 16  1  0  0  0  0
 16  5  1  1  0  0  0
 17 19  1  0  0  0  0
 17 21  1  0  0  0  0
 18 22  1  6  0  0  0
 18 20  1  0  0  0  0
 19 26  1  6  0  0  0
 19 18  1  0  0  0  0
 20 21  1  1  0  0  0
 20  7  1  0  0  0  0
 23 22  1  0  0  0  0
 24 22  1  0  0  0  0
 25 26  1  0  0  0  0
 28 27  1  0  0  0  0
M  END
>  <MODEL>
3

>  <REMARK>
 VINA RESULT:      -6.0      2.411      3.610
  Name = 
  4 active torsions:
  status: ('A' for Active; 'I' for Inactive)
    1  A    between atoms: C_9  and  C_14
    2  A    between atoms: C_10  and  C_13
    3  A    between atoms: C_11  and  O_22
    4  A    between atoms: C_12  and  N_23
                            x       y       z     vdW  Elec       q    Type
                         _______ _______ _______ _____ _____    ______ ____

>  <TORSDO>
F 4

$$$$
=
 OpenBabel10262420593D

 28 29  0  0  1  0  0  0  0  0999 V2000
  190.8280  175.2400  137.4510 C   0  0  0  0  0  3  0  0  0  0  0  0
  188.0220  175.3780  138.1350 O   0  0  0  0  0  1  0  0  0  0  0  0
  188.0520  176.4020  137.1830 C   0  0  1  0  0  3  0  0  0  0  0  0
  193.9920  176.5160  138.9840 O   0  0  0  0  0  1  0  0  0  0  0  0
  188.7610  174.9140  135.4210 O   0  0  0  0  0  1  0  0  0  0  0  0
  187.7360  177.8780  139.2930 C   0  0  0  0  0  2  0  0  0  0  0  0
  188.9220  177.9000  140.2620 C   0  0  2  0  0  3  0  0  0  0  0  0
  188.1360  177.8130  137.8090 C   0  0  1  0  0  3  0  0  0  0  0  0
  191.7960  177.4590  139.1710 C   0  0  0  0  0  2  0  0  0  0  0  0
  189.6040  176.5290  140.3370 C   0  0  0  0  0  2  0  0  0  0  0  0
  193.0760  174.6580  136.9990 O   0  0  0  0  0  1  0  0  0  0  0  0
  191.3740  176.6680  140.7560 S   0  0  0  0  0  0  0  0  0  0  0  0
  192.7640  176.6240  138.3300 C   0  0  2  0  0  3  0  0  0  0  0  0
  192.2400  175.2320  137.9570 C   0  0  1  0  0  3  0  0  0  0  0  0
  190.4400  176.0760  136.5530 N   0  0  0  0  0  0  0  0  0  0  0  0
  189.0750  176.1110  136.0700 C   0  0  2  0  0  3  0  0  0  0  0  0
  186.4040  178.4580  142.8220 O   0  0  0  0  0  0  0  0  0  0  0  0
  188.5190  177.3760  142.7010 C   0  0  1  0  0  3  0  0  0  0  0  0
  187.0560  177.2560  143.1350 C   0  0  1  0  0  3  0  0  0  0  0  0
  188.4530  178.4240  141.6250 C   0  0  2  0  0  3  0  0  0  0  0  0
  187.0040  178.8900  141.6290 C   0  0  0  0  0  2  0  0  0  0  0  0
  189.5380  177.7990  143.7750 C   0  0  0  0  0  3  0  0  0  0  0  0
  190.3950  178.9570  143.3010 C   0  0  0  0  0  1  0  0  0  0  0  0
  190.4090  176.6590  144.2850 C   0  0  0  0  0  1  0  0  0  0  0  0
  186.0970  177.9920  145.1380 C   0  0  0  0  0  1  0  0  0  0  0  0
  186.8950  176.9340  144.5460 N   0  0  0  0  0  2  0  0  0  0  0  0
  188.9880  179.7410  137.1190 C   0  0  0  0  0  1  0  0  0  0  0  0
  189.3500  178.4670  137.5610 O   0  0  0  0  0  0  0  0  0  0  0  0
  1 14  1  0  0  0  0
  3  8  1  0  0  0  0
  3  2  1  1  0  0  0
  7  6  1  6  0  0  0
  7 10  1  0  0  0  0
  7 20  1  0  0  0  0
  8 28  1  1  0  0  0
  8  6  1  0  0  0  0
  9 12  1  0  0  0  0
 10 12  1  0  0  0  0
 13  4  1  1  0  0  0
 13  9  1  0  0  0  0
 14 11  1  6  0  0  0
 14 13  1  0  0  0  0
 15  1  2  0  0  0  0
 16  5  1  1  0  0  0
 16 15  1  0  0  0  0
 16  3  1  0  0  0  0
 17 19  1  0  0  0  0
 18 19  1  0  0  0  0
 18 22  1  1  0  0  0
 19 26  1  1  0  0  0
 20 21  1  6  0  0  0
 20 18  1  0  0  0  0
 21 17  1  0  0  0  0
 22 24  1  0  0  0  0
 23 22  1  0  0  0  0
 26 25  1  0  0  0  0
 27 28  1  0  0  0  0
M  END
>  <MODEL>
4

>  <REMARK>
 VINA RESULT:      -6.0      3.077      7.486
  Name = 
  4 active torsions:
  status: ('A' for Active; 'I' for Inactive)
    1  A    between atoms: C_9  and  C_14
    2  A    between atoms: C_10  and  C_13
    3  A    between atoms: C_11  and  O_22
    4  A    between atoms: C_12  and  N_23
                            x       y       z     vdW  Elec       q    Type
                         _______ _______ _______ _____ _____    ______ ____

>  <TORSDO>
F 4

$$$$
=
 OpenBabel10262420593D

 28 29  0  0  1  0  0  0  0  0999 V2000
  188.7820  177.8370  137.8170 C   0  0  0  0  0  3  0  0  0  0  0  0
  189.5450  177.3150  135.0770 O   0  0  0  0  0  1  0  0  0  0  0  0
  188.7120  176.2090  135.2720 C   0  0  1  0  0  3  0  0  0  0  0  0
  190.3710  177.2860  141.1570 O   0  0  0  0  0  1  0  0  0  0  0  0
  186.7790  177.5830  135.7140 O   0  0  0  0  0  1  0  0  0  0  0  0
  190.9810  174.9510  135.2180 C   0  0  0  0  0  2  0  0  0  0  0  0
  191.9170  175.2360  136.3970 C   0  0  2  0  0  3  0  0  0  0  0  0
  189.4900  174.9110  135.5950 C   0  0  1  0  0  3  0  0  0  0  0  0
  190.7150  176.0190  139.1510 C   0  0  0  0  0  2  0  0  0  0  0  0
  191.8220  176.7000  136.8400 C   0  0  0  0  0  2  0  0  0  0  0  0
  188.2140  178.7280  139.9330 O   0  0  0  0  0  1  0  0  0  0  0  0
  192.2120  176.9050  138.6100 S   0  0  0  0  0  0  0  0  0  0  0  0
  189.7630  176.9010  139.9620 C   0  0  2  0  0  3  0  0  0  0  0  0
  189.2500  178.1360  139.2100 C   0  0  1  0  0  3  0  0  0  0  0  0
  187.9920  176.8510  137.5700 N   0  0  0  0  0  0  0  0  0  0  0  0
  187.5490  176.5360  136.2270 C   0  0  2  0  0  3  0  0  0  0  0  0
  195.5330  175.3960  136.7150 O   0  0  0  0  0  0  0  0  0  0  0  0
  193.8640  173.7150  136.9290 C   0  0  1  0  0  3  0  0  0  0  0  0
  195.0850  174.3790  137.5710 C   0  0  1  0  0  3  0  0  0  0  0  0
  193.3410  174.8000  136.0290 C   0  0  2  0  0  3  0  0  0  0  0  0
  194.3650  175.9210  136.1410 C   0  0  0  0  0  2  0  0  0  0  0  0
  194.1090  172.4350  136.1110 C   0  0  0  0  0  3  0  0  0  0  0  0
  194.7730  172.7440  134.7830 C   0  0  0  0  0  1  0  0  0  0  0  0
  192.8640  171.5840  135.9040 C   0  0  0  0  0  1  0  0  0  0  0  0
  197.4120  174.1450  137.6370 C   0  0  0  0  0  1  0  0  0  0  0  0
  196.1620  173.4450  137.8700 N   0  0  0  0  0  2  0  0  0  0  0  0
  188.8710  173.1200  136.7460 C   0  0  0  0  0  1  0  0  0  0  0  0
  189.2870  174.4430  136.8990 O   0  0  0  0  0  0  0  0  0  0  0  0
  1 14  1  0  0  0  0
  3  2  1  1  0  0  0
  3  8  1  0  0  0  0
  3 16  1  0  0  0  0
  6  8  1  0  0  0  0
  7  6  1  6  0  0  0
  7 10  1  0  0  0  0
  8 28  1  1  0  0  0
  9 13  1  0  0  0  0
 10 12  1  0  0  0  0
 12  9  1  0  0  0  0
 13  4  1  1  0  0  0
 14 11  1  1  0  0  0
 14 13  1  0  0  0  0
 15  1  2  0  0  0  0
 16  5  1  6  0  0  0
 16 15  1  0  0  0  0
 17 19  1  0  0  0  0
 18 22  1  6  0  0  0
 18 19  1  0  0  0  0
 19 26  1  6  0  0  0
 20 21  1  1  0  0  0
 20  7  1  0  0  0  0
 20 18  1  0  0  0  0
 21 17  1  0  0  0  0
 23 22  1  0  0  0  0
 24 22  1  0  0  0  0
 25 26  1  0  0  0  0
 27 28  1  0  0  0  0
M  END
>  <MODEL>
5

>  <REMARK>
 VINA RESULT:      -5.6      4.767      8.353
  Name = 
  4 active torsions:
  status: ('A' for Active; 'I' for Inactive)
    1  A    between atoms: C_9  and  C_14
    2  A    between atoms: C_10  and  C_13
    3  A    between atoms: C_11  and  O_22
    4  A    between atoms: C_12  and  N_23
                            x       y       z     vdW  Elec       q    Type
                         _______ _______ _______ _____ _____    ______ ____

>  <TORSDO>
F 4

$$$$
=
 OpenBabel10262420593D

 28 29  0  0  1  0  0  0  0  0999 V2000
  179.3450  180.6850  139.9910 C   0  0  0  0  0  3  0  0  0  0  0  0
  179.2320  177.8640  140.6120 O   0  0  0  0  0  1  0  0  0  0  0  0
  180.2910  178.2170  141.4550 C   0  0  1  0  0  3  0  0  0  0  0  0
  180.8090  182.7300  137.2220 O   0  0  0  0  0  1  0  0  0  0  0  0
  178.9320  179.7550  142.7230 O   0  0  0  0  0  1  0  0  0  0  0  0
  181.6550  176.8780  139.7000 C   0  0  0  0  0  2  0  0  0  0  0  0
  181.7340  177.5120  138.3080 C   0  0  2  0  0  3  0  0  0  0  0  0
  181.6790  177.8930  140.8560 C   0  0  1  0  0  3  0  0  0  0  0  0
  181.5660  180.6000  138.0230 C   0  0  0  0  0  2  0  0  0  0  0  0
  180.4210  178.2110  137.9400 C   0  0  0  0  0  2  0  0  0  0  0  0
  178.9610  182.9460  139.4070 O   0  0  0  0  0  1  0  0  0  0  0  0
  180.6840  179.5970  136.7840 S   0  0  0  0  0  0  0  0  0  0  0  0
  180.8450  181.9090  138.3500 C   0  0  2  0  0  3  0  0  0  0  0  0
  179.4300  181.7270  138.9150 C   0  0  1  0  0  3  0  0  0  0  0  0
  180.1810  180.6580  140.9680 N   0  0  0  0  0  0  0  0  0  0  0  0
  180.1250  179.6460  142.0040 C   0  0  2  0  0  3  0  0  0  0  0  0
  184.2290  175.5090  136.5850 O   0  0  0  0  0  0  0  0  0  0  0  0
  182.2950  175.0820  137.9030 C   0  0  1  0  0  3  0  0  0  0  0  0
  183.7740  174.7570  137.6780 C   0  0  1  0  0  3  0  0  0  0  0  0
  182.1670  176.4490  137.2910 C   0  0  2  0  0  3  0  0  0  0  0  0
  183.5300  176.7230  136.6710 C   0  0  0  0  0  2  0  0  0  0  0  0
  181.2630  174.1310  137.2710 C   0  0  0  0  0  3  0  0  0  0  0  0
  180.6890  174.7070  135.9910 C   0  0  0  0  0  1  0  0  0  0  0  0
  180.1480  173.7090  138.2180 C   0  0  0  0  0  1  0  0  0  0  0  0
  185.4530  173.1260  137.6770 C   0  0  0  0  0  1  0  0  0  0  0  0
  184.0310  173.3380  137.4710 N   0  0  0  0  0  2  0  0  0  0  0  0
  183.6990  178.7790  141.0870 C   0  0  0  0  0  1  0  0  0  0  0  0
  182.4370  179.0290  140.5450 O   0  0  0  0  0  0  0  0  0  0  0  0
  1 15  2  0  0  0  0
  3  2  1  6  0  0  0
  3 16  1  0  0  0  0
  6  8  1  0  0  0  0
  7 10  1  6  0  0  0
  7  6  1  0  0  0  0
  8 28  1  6  0  0  0
  8  3  1  0  0  0  0
  9 13  1  0  0  0  0
 12 10  1  0  0  0  0
 12  9  1  0  0  0  0
 13  4  1  6  0  0  0
 13 14  1  0  0  0  0
 14 11  1  1  0  0  0
 14  1  1  0  0  0  0
 15 16  1  0  0  0  0
 16  5  1  6  0  0  0
 17 21  1  0  0  0  0
 17 19  1  0  0  0  0
 18 22  1  6  0  0  0
 19 26  1  6  0  0  0
 19 18  1  0  0  0  0
 20 21  1  1  0  0  0
 20 18  1  0  0  0  0
 20  7  1  0  0  0  0
 22 24  1  0  0  0  0
 23 22  1  0  0  0  0
 26 25  1  0  0  0  0
 28 27  1  0  0  0  0
M  END
>  <MODEL>
6

>  <REMARK>
 VINA RESULT:      -5.5      7.676     10.151
  Name = 
  4 active torsions:
  status: ('A' for Active; 'I' for Inactive)
    1  A    between atoms: C_9  and  C_14
    2  A    between atoms: C_10  and  C_13
    3  A    between atoms: C_11  and  O_22
    4  A    between atoms: C_12  and  N_23
                            x       y       z     vdW  Elec       q    Type
                         _______ _______ _______ _____ _____    ______ ____

>  <TORSDO>
F 4

$$$$
=
 OpenBabel10262420593D

 28 29  0  0  1  0  0  0  0  0999 V2000
  188.2030  175.0050  135.0150 C   0  0  0  0  0  3  0  0  0  0  0  0
  187.5720  177.8240  134.8900 O   0  0  0  0  0  1  0  0  0  0  0  0
  188.4740  177.8630  135.9570 C   0  0  1  0  0  3  0  0  0  0  0  0
  186.5440  171.9850  136.4690 O   0  0  0  0  0  1  0  0  0  0  0  0
  190.2880  177.0030  134.6200 O   0  0  0  0  0  1  0  0  0  0  0  0
  186.3040  178.3370  137.2980 C   0  0  0  0  0  2  0  0  0  0  0  0
  185.3110  177.1730  137.3700 C   0  0  2  0  0  3  0  0  0  0  0  0
  187.7800  177.9070  137.3390 C   0  0  1  0  0  3  0  0  0  0  0  0
  186.3600  174.2540  137.2190 C   0  0  0  0  0  2  0  0  0  0  0  0
  185.2860  176.3820  136.0580 C   0  0  0  0  0  2  0  0  0  0  0  0
  188.6340  172.7090  134.6410 O   0  0  0  0  0  1  0  0  0  0  0  0
  184.8230  174.6370  136.3200 S   0  0  0  0  0  0  0  0  0  0  0  0
  187.2180  173.2060  136.5090 C   0  0  2  0  0  3  0  0  0  0  0  0
  187.6670  173.6060  135.0980 C   0  0  1  0  0  3  0  0  0  0  0  0
  189.0680  175.4450  135.8590 N   0  0  0  0  0  0  0  0  0  0  0  0
  189.5780  176.8000  135.8060 C   0  0  2  0  0  3  0  0  0  0  0  0
  181.6890  176.9610  137.5940 O   0  0  0  0  0  0  0  0  0  0  0  0
  183.4940  177.1870  139.1270 C   0  0  1  0  0  3  0  0  0  0  0  0
  182.2120  176.4260  138.7810 C   0  0  1  0  0  3  0  0  0  0  0  0
  183.9340  177.7080  137.7870 C   0  0  2  0  0  3  0  0  0  0  0  0
  182.8160  177.3100  136.8340 C   0  0  0  0  0  2  0  0  0  0  0  0
  183.3710  178.3540  140.1230 C   0  0  0  0  0  3  0  0  0  0  0  0
  183.5290  179.6940  139.4290 C   0  0  0  0  0  1  0  0  0  0  0  0
  184.3120  178.2530  141.3160 C   0  0  0  0  0  1  0  0  0  0  0  0
  180.4150  175.2520  139.7130 C   0  0  0  0  0  1  0  0  0  0  0  0
  181.2150  176.4560  139.8420 N   0  0  0  0  0  2  0  0  0  0  0  0
  188.6830  177.1700  139.2250 C   0  0  0  0  0  1  0  0  0  0  0  0
  187.9720  176.7470  138.1010 O   0  0  0  0  0  0  0  0  0  0  0  0
  1 14  1  0  0  0  0
  1 15  2  0  0  0  0
  3  2  1  6  0  0  0
  3  8  1  0  0  0  0
  6  8  1  0  0  0  0
  6  7  1  0  0  0  0
  7 10  1  6  0  0  0
  7 20  1  0  0  0  0
  8 28  1  6  0  0  0
 10 12  1  0  0  0  0
 12  9  1  0  0  0  0
 13  4  1  6  0  0  0
 13  9  1  0  0  0  0
 14 11  1  1  0  0  0
 14 13  1  0  0  0  0
 16  5  1  6  0  0  0
 16 15  1  0  0  0  0
 16  3  1  0  0  0  0
 17 19  1  0  0  0  0
 18 22  1  1  0  0  0
 19 18  1  0  0  0  0
 19 26  1  1  0  0  0
 20 21  1  6  0  0  0
 20 18  1  0  0  0  0
 21 17  1  0  0  0  0
 22 24  1  0  0  0  0
 23 22  1  0  0  0  0
 25 26  1  0  0  0  0
 28 27  1  0  0  0  0
M  END
>  <MODEL>
7

>  <REMARK>
 VINA RESULT:      -5.4      5.849      9.007
  Name = 
  4 active torsions:
  status: ('A' for Active; 'I' for Inactive)
    1  A    between atoms: C_9  and  C_14
    2  A    between atoms: C_10  and  C_13
    3  A    between atoms: C_11  and  O_22
    4  A    between atoms: C_12  and  N_23
                            x       y       z     vdW  Elec       q    Type
                         _______ _______ _______ _____ _____    ______ ____

>  <TORSDO>
F 4

$$$$
=
 OpenBabel10262420593D

 28 29  0  0  1  0  0  0  0  0999 V2000
  180.9660  174.8450  136.8170 C   0  0  0  0  0  3  0  0  0  0  0  0
  182.9080  175.0660  134.6860 O   0  0  0  0  0  1  0  0  0  0  0  0
  183.3590  173.8690  135.2500 C   0  0  1  0  0  3  0  0  0  0  0  0
  180.5850  176.3550  140.2170 O   0  0  0  0  0  1  0  0  0  0  0  0
  181.2710  172.7370  134.8260 O   0  0  0  0  0  1  0  0  0  0  0  0
  185.3210  175.3880  136.0070 C   0  0  0  0  0  2  0  0  0  0  0  0
  184.9600  176.4600  137.0390 C   0  0  2  0  0  3  0  0  0  0  0  0
  184.5700  174.0580  136.1920 C   0  0  1  0  0  3  0  0  0  0  0  0
  182.6220  175.9530  139.0190 C   0  0  0  0  0  2  0  0  0  0  0  0
  183.5590  177.0280  136.7840 C   0  0  0  0  0  2  0  0  0  0  0  0
  179.0860  174.8970  138.2520 O   0  0  0  0  0  1  0  0  0  0  0  0
  182.7740  177.6270  138.3170 S   0  0  0  0  0  0  0  0  0  0  0  0
  181.1680  175.5360  139.2500 C   0  0  2  0  0  3  0  0  0  0  0  0
  180.3050  175.5200  137.9820 C   0  0  1  0  0  3  0  0  0  0  0  0
  181.5340  173.6970  136.9380 N   0  0  0  0  0  0  0  0  0  0  0  0
  182.1960  173.0420  135.8280 C   0  0  2  0  0  3  0  0  0  0  0  0
  187.4100  178.5480  138.7270 O   0  0  0  0  0  0  0  0  0  0  0  0
  187.4390  176.9460  136.9690 C   0  0  1  0  0  3  0  0  0  0  0  0
  188.0780  177.3960  138.2850 C   0  0  1  0  0  3  0  0  0  0  0  0
  186.0580  177.5320  137.0610 C   0  0  2  0  0  3  0  0  0  0  0  0
  186.0740  178.3550  138.3410 C   0  0  0  0  0  2  0  0  0  0  0  0
  188.1140  177.4100  135.6650 C   0  0  0  0  0  3  0  0  0  0  0  0
  187.1730  178.2520  134.8240 C   0  0  0  0  0  1  0  0  0  0  0  0
  188.7070  176.2780  134.8380 C   0  0  0  0  0  1  0  0  0  0  0  0
  190.0660  177.5030  139.5140 C   0  0  0  0  0  1  0  0  0  0  0  0
  189.5100  177.6400  138.1800 N   0  0  0  0  0  2  0  0  0  0  0  0
  185.3060  172.9520  137.9680 C   0  0  0  0  0  1  0  0  0  0  0  0
  184.2820  173.7980  137.5380 O   0  0  0  0  0  0  0  0  0  0  0  0
  1 15  2  0  0  0  0
  1 14  1  0  0  0  0
  3  2  1  1  0  0  0
  3 16  1  0  0  0  0
  3  8  1  0  0  0  0
  6  8  1  0  0  0  0
  7  6  1  6  0  0  0
  7 20  1  0  0  0  0
  8 28  1  1  0  0  0
  9 13  1  0  0  0  0
 10  7  1  0  0  0  0
 10 12  1  0  0  0  0
 12  9  1  0  0  0  0
 13  4  1  1  0  0  0
 14 11  1  1  0  0  0
 14 13  1  0  0  0  0
 16  5  1  6  0  0  0
 16 15  1  0  0  0  0
 18 22  1  6  0  0  0
 18 20  1  0  0  0  0
 18 19  1  0  0  0  0
 19 26  1  6  0  0  0
 19 17  1  0  0  0  0
 20 21  1  1  0  0  0
 21 17  1  0  0  0  0
 23 22  1  0  0  0  0
 24 22  1  0  0  0  0
 26 25  1  0  0  0  0
 28 27  1  0  0  0  0
M  END
>  <MODEL>
8

>  <REMARK>
 VINA RESULT:      -5.3      5.788      9.278
  Name = 
  4 active torsions:
  status: ('A' for Active; 'I' for Inactive)
    1  A    between atoms: C_9  and  C_14
    2  A    between atoms: C_10  and  C_13
    3  A    between atoms: C_11  and  O_22
    4  A    between atoms: C_12  and  N_23
                            x       y       z     vdW  Elec       q    Type
                         _______ _______ _______ _____ _____    ______ ____

>  <TORSDO>
F 4

$$$$
=
 OpenBabel10262420593D

 28 29  0  0  1  0  0  0  0  0999 V2000
  180.7340  175.4120  139.4610 C   0  0  0  0  0  3  0  0  0  0  0  0
  183.0450  176.9190  140.3270 O   0  0  0  0  0  1  0  0  0  0  0  0
  182.3060  177.9730  139.7790 C   0  0  1  0  0  3  0  0  0  0  0  0
  179.9330  173.2570  136.5110 O   0  0  0  0  0  1  0  0  0  0  0  0
  180.4710  177.6500  141.3110 O   0  0  0  0  0  1  0  0  0  0  0  0
  184.1610  177.8490  137.9690 C   0  0  0  0  0  2  0  0  0  0  0  0
  184.1580  176.5800  137.1120 C   0  0  2  0  0  3  0  0  0  0  0  0
  182.7590  178.3550  138.3500 C   0  0  1  0  0  3  0  0  0  0  0  0
  181.4850  175.0820  136.6080 C   0  0  0  0  0  2  0  0  0  0  0  0
  183.7620  175.3520  137.9390 C   0  0  0  0  0  2  0  0  0  0  0  0
  178.9500  173.8940  139.1310 O   0  0  0  0  0  1  0  0  0  0  0  0
  182.9660  174.0670  136.9180 S   0  0  0  0  0  0  0  0  0  0  0  0
  180.2080  174.4550  137.1710 C   0  0  2  0  0  3  0  0  0  0  0  0
  180.2300  174.2300  138.6880 C   0  0  1  0  0  3  0  0  0  0  0  0
  180.2990  176.6010  139.2320 N   0  0  0  0  0  0  0  0  0  0  0  0
  180.7920  177.7550  139.9560 C   0  0  2  0  0  3  0  0  0  0  0  0
  187.5870  177.5970  136.4650 O   0  0  0  0  0  0  0  0  0  0  0  0
  186.4950  175.6230  137.2210 C   0  0  1  0  0  3  0  0  0  0  0  0
  187.6250  176.6240  137.4750 C   0  0  1  0  0  3  0  0  0  0  0  0
  185.5180  176.4350  136.4160 C   0  0  2  0  0  3  0  0  0  0  0  0
  186.2220  177.7640  136.1820 C   0  0  0  0  0  2  0  0  0  0  0  0
  186.8550  174.3370  136.4550 C   0  0  0  0  0  3  0  0  0  0  0  0
  186.2070  174.3090  135.0840 C   0  0  0  0  0  1  0  0  0  0  0  0
  186.5510  173.0560  137.2200 C   0  0  0  0  0  1  0  0  0  0  0  0
  189.9190  177.0520  137.3060 C   0  0  0  0  0  1  0  0  0  0  0  0
  188.9420  176.0060  137.5460 N   0  0  0  0  0  2  0  0  0  0  0  0
  181.5170  179.3000  136.7750 C   0  0  0  0  0  1  0  0  0  0  0  0
  181.8080  178.0680  137.3630 O   0  0  0  0  0  0  0  0  0  0  0  0
  3 16  1  0  0  0  0
  3  2  1  6  0  0  0
  6  8  1  0  0  0  0
  7 10  1  1  0  0  0
  7  6  1  0  0  0  0
  8 28  1  6  0  0  0
  8  3  1  0  0  0  0
  9 12  1  0  0  0  0
  9 13  1  0  0  0  0
 12 10  1  0  0  0  0
 13  4  1  6  0  0  0
 13 14  1  0  0  0  0
 14 11  1  1  0  0  0
 14  1  1  0  0  0  0
 15  1  2  0  0  0  0
 15 16  1  0  0  0  0
 16  5  1  1  0  0  0
 17 19  1  0  0  0  0
 18 22  1  6  0  0  0
 18 19  1  0  0  0  0
 19 26  1  6  0  0  0
 20 21  1  1  0  0  0
 20  7  1  0  0  0  0
 20 18  1  0  0  0  0
 21 17  1  0  0  0  0
 22 24  1  0  0  0  0
 23 22  1  0  0  0  0
 25 26  1  0  0  0  0
 27 28  1  0  0  0  0
M  END
>  <MODEL>
9

>  <REMARK>
 VINA RESULT:      -5.2      6.657      9.111
  Name = 
  4 active torsions:
  status: ('A' for Active; 'I' for Inactive)
    1  A    between atoms: C_9  and  C_14
    2  A    between atoms: C_10  and  C_13
    3  A    between atoms: C_11  and  O_22
    4  A    between atoms: C_12  and  N_23
                            x       y       z     vdW  Elec       q    Type
                         _______ _______ _______ _____ _____    ______ ____

>  <TORSDO>
F 4

$$$$
