=
 OpenBabel10262423313D

 34 39  0  0  1  0  0  0  0  0999 V2000
  189.2420  176.3030  143.1950 C   0  0  1  0  0  3  0  0  0  0  0  0
  188.4190  178.4660  146.2190 C   0  0  0  0  0  2  0  0  0  0  0  0
  190.5290  178.1220  145.0730 C   0  0  0  0  0  2  0  0  0  0  0  0
  189.7980  177.0130  140.9040 C   0  0  2  0  0  3  0  0  0  0  0  0
  188.7040  176.3890  141.7630 C   0  0  0  0  0  2  0  0  0  0  0  0
  191.4000  175.3460  142.8230 O   0  0  0  0  0  0  0  0  0  0  0  0
  191.9710  174.9190  144.0410 C   0  0  0  0  0  2  0  0  0  0  0  0
  190.8750  177.4920  141.8530 C   0  0  2  0  0  3  0  0  0  0  0  0
  192.2480  177.4410  141.1940 C   0  0  0  0  0  1  0  0  0  0  0  0
  191.4270  177.1980  144.2770 C   0  0  2  0  0  3  0  0  0  0  0  0
  190.7580  176.5800  143.0660 C   0  0  1  0  0  0  0  0  0  0  0  0
  191.8840  176.0210  145.0730 C   0  0  0  0  0  2  0  0  0  0  0  0
  187.2840  177.7700  146.9570 C   0  0  0  0  0  2  0  0  0  0  0  0
  185.9730  177.7630  146.1620 C   0  0  2  0  0  3  0  0  0  0  0  0
  186.1310  177.5450  144.6560 C   0  0  0  0  0  2  0  0  0  0  0  0
  189.1800  177.4790  145.3320 C   0  0  2  0  0  3  0  0  0  0  0  0
  187.2280  176.5450  144.3280 C   0  0  0  0  0  2  0  0  0  0  0  0
  188.4870  177.2400  144.0510 N   0  0  2  0  0  0  0  0  0  0  0  0
  187.2700  177.0830  138.8850 C   0  0  0  0  0  3  0  0  0  0  0  0
  190.1960  178.3510  138.7680 C   0  0  0  0  0  3  0  0  0  0  0  0
  188.7760  174.7110  135.7890 C   0  0  0  0  0  0  0  0  0  0  0  0
  187.5260  174.4170  136.4190 N   0  0  0  0  0  0  0  0  0  0  0  0
  186.8430  175.4310  137.2160 C   0  0  0  0  0  2  0  0  0  0  0  0
  189.2310  173.9680  134.8770 O   0  0  0  0  0  0  0  0  0  0  0  0
  187.7900  176.4150  137.8500 C   0  0  0  0  0  0  0  0  0  0  0  0
  186.7970  173.2070  136.0760 C   0  0  0  0  0  1  0  0  0  0  0  0
  189.1370  176.6550  137.2290 C   0  0  0  0  0  0  0  0  0  0  0  0
  190.1020  177.7030  137.6100 C   0  0  0  0  0  3  0  0  0  0  0  0
  189.5550  175.8610  136.2420 C   0  0  0  0  0  2  0  0  0  0  0  0
  189.3280  178.1260  139.9550 C   0  0  0  0  0  0  0  0  0  0  0  0
  187.8470  178.2410  139.6320 C   0  0  0  0  0  2  0  0  0  0  0  0
  185.1890  179.0050  146.4240 C   0  0  0  0  0  0  0  0  0  0  0  0
  185.6220  179.8540  147.2450 O   0  0  0  0  0  1  0  0  0  0  0  0
  183.9890  179.2340  145.7620 O   0  0  0  0  0  0  0  0  0  0  0  0
  1  5  1  6  0  0  0
  1 18  1  0  0  0  0
  2 13  1  0  0  0  0
  4 30  1  1  0  0  0
  4  5  1  0  0  0  0
  4  8  1  0  0  0  0
  6  7  1  0  0  0  0
  7 12  1  0  0  0  0
  8  9  1  6  0  0  0
  8 11  1  0  0  0  0
 10 12  1  1  0  0  0
 10  3  1  0  0  0  0
 11  6  1  6  0  0  0
 11  1  1  0  0  0  0
 11 10  1  0  0  0  0
 14 32  1  6  0  0  0
 14 13  1  0  0  0  0
 15 14  1  0  0  0  0
 16  3  1  6  0  0  0
 16  2  1  0  0  0  0
 17 15  1  0  0  0  0
 18 17  1  1  0  0  0
 18 16  1  0  0  0  0
 19 31  1  0  0  0  0
 20 30  2  3  0  0  0
 21 29  1  0  0  0  0
 21 22  1  0  0  0  0
 22 23  1  0  0  0  0
 23 25  1  0  0  0  0
 24 21  2  0  0  0  0
 25 19  2  0  0  0  0
 26 22  1  0  0  0  0
 27 28  2  0  0  0  0
 27 25  1  0  0  0  0
 28 20  1  0  0  0  0
 29 27  1  0  0  0  0
 31 30  1  0  0  0  0
 32 33  1  0  0  0  0
 34 32  2  0  0  0  0
M  END
>  <MODEL>
1

>  <REMARK>
 VINA RESULT:      -7.4      0.000      0.000
  Name = 
  2 active torsions:
  status: ('A' for Active; 'I' for Inactive)
    1  A    between atoms: C_3  and  C_25
    2  A    between atoms: C_8  and  C_30
                            x       y       z     vdW  Elec       q    Type
                         _______ _______ _______ _____ _____    ______ ____

>  <TORSDO>
F 2

$$$$
=
 OpenBabel10262423313D

 34 39  0  0  1  0  0  0  0  0999 V2000
  182.8890  175.7170  138.3380 C   0  0  1  0  0  3  0  0  0  0  0  0
  184.1480  176.4700  134.8250 C   0  0  0  0  0  2  0  0  0  0  0  0
  181.8830  176.2060  135.6480 C   0  0  0  0  0  2  0  0  0  0  0  0
  181.7140  177.2120  139.9030 C   0  0  2  0  0  3  0  0  0  0  0  0
  183.0510  176.5330  139.6250 C   0  0  0  0  0  2  0  0  0  0  0  0
  180.8370  174.5710  138.7720 O   0  0  0  0  0  0  0  0  0  0  0  0
  180.6340  173.5420  137.8270 C   0  0  0  0  0  2  0  0  0  0  0  0
  180.8480  176.9820  138.6840 C   0  0  2  0  0  3  0  0  0  0  0  0
  179.3740  176.9230  139.0620 C   0  0  0  0  0  1  0  0  0  0  0  0
  180.9380  175.5490  136.6330 C   0  0  2  0  0  3  0  0  0  0  0  0
  181.3650  175.6830  138.0800 C   0  0  1  0  0  0  0  0  0  0  0  0
  180.8330  174.0740  136.4250 C   0  0  0  0  0  2  0  0  0  0  0  0
  185.5040  175.7900  134.6920 C   0  0  0  0  0  2  0  0  0  0  0  0
  186.5750  176.4160  135.5930 C   0  0  2  0  0  3  0  0  0  0  0  0
  186.0860  176.8470  136.9770 C   0  0  0  0  0  2  0  0  0  0  0  0
  183.3220  175.8280  135.9400 C   0  0  2  0  0  3  0  0  0  0  0  0
  185.0720  175.8760  137.5600 C   0  0  0  0  0  2  0  0  0  0  0  0
  183.7090  176.3280  137.2730 N   0  0  2  0  0  0  0  0  0  0  0  0
  184.2960  179.1580  140.0560 C   0  0  0  0  0  3  0  0  0  0  0  0
  181.5720  179.0060  141.7120 C   0  0  0  0  0  3  0  0  0  0  0  0
  185.9280  177.8770  143.6860 C   0  0  0  0  0  0  0  0  0  0  0  0
  186.7020  177.9050  142.4840 N   0  0  0  0  0  0  0  0  0  0  0  0
  186.2560  178.6850  141.3340 C   0  0  0  0  0  2  0  0  0  0  0  0
  186.4260  177.4600  144.7660 O   0  0  0  0  0  0  0  0  0  0  0  0
  184.7570  178.8240  141.2660 C   0  0  1  0  0  3  0  0  0  0  0  0
  188.0540  177.3710  142.4680 C   0  0  0  0  0  1  0  0  0  0  0  0
  183.9430  178.7090  142.5230 C   0  0  0  0  0  0  0  0  0  0  0  0
  182.5030  178.9960  142.6620 C   0  0  0  0  0  3  0  0  0  0  0  0
  184.5290  178.2960  143.6480 C   0  0  0  0  0  2  0  0  0  0  0  0
  181.8030  178.7000  140.2750 C   0  0  0  0  0  0  0  0  0  0  0  0
  182.9080  179.5470  139.6630 C   0  0  0  0  0  3  0  0  0  0  0  0
  187.2430  177.5590  134.9030 C   0  0  0  0  0  0  0  0  0  0  0  0
  186.5760  178.5840  134.6060 O   0  0  0  0  0  1  0  0  0  0  0  0
  188.5960  177.5020  134.5940 O   0  0  0  0  0  0  0  0  0  0  0  0
  1  5  1  1  0  0  0
  3 16  1  0  0  0  0
  4 30  1  6  0  0  0
  5  4  1  0  0  0  0
  7  6  1  0  0  0  0
  8  9  1  1  0  0  0
  8  4  1  0  0  0  0
 10  3  1  6  0  0  0
 10 11  1  0  0  0  0
 11  1  1  0  0  0  0
 11  8  1  0  0  0  0
 11  6  1  1  0  0  0
 12 10  1  0  0  0  0
 12  7  1  0  0  0  0
 13  2  1  0  0  0  0
 13 14  1  0  0  0  0
 14 32  1  6  0  0  0
 14 15  1  0  0  0  0
 15 17  1  0  0  0  0
 16  2  1  6  0  0  0
 16 18  1  0  0  0  0
 18 17  1  1  0  0  0
 18  1  1  0  0  0  0
 20 28  1  0  0  0  0
 21 24  2  0  0  0  0
 22 21  1  0  0  0  0
 23 22  1  0  0  0  0
 25 19  1  1  0  0  0
 25 23  1  0  0  0  0
 25 27  1  0  0  0  0
 26 22  1  0  0  0  0
 27 28  2  0  0  0  0
 27 29  1  0  0  0  0
 29 21  1  0  0  0  0
 30 20  2  3  0  0  0
 31 19  2  0  0  0  0
 31 30  1  0  0  0  0
 33 32  1  0  0  0  0
 34 32  2  0  0  0  0
M  END
>  <MODEL>
2

>  <REMARK>
 VINA RESULT:      -6.9      4.584      9.929
  Name = 
  2 active torsions:
  status: ('A' for Active; 'I' for Inactive)
    1  A    between atoms: C_3  and  C_25
    2  A    between atoms: C_8  and  C_30
                            x       y       z     vdW  Elec       q    Type
                         _______ _______ _______ _____ _____    ______ ____

>  <TORSDO>
F 2

$$$$
=
 OpenBabel10262423313D

 34 39  0  0  1  0  0  0  0  0999 V2000
  189.6740  174.6750  137.4910 C   0  0  1  0  0  3  0  0  0  0  0  0
  192.4480  174.8510  134.8900 C   0  0  0  0  0  2  0  0  0  0  0  0
  190.0580  174.5550  134.6050 C   0  0  0  0  0  2  0  0  0  0  0  0
  187.9220  176.3340  137.9850 C   0  0  2  0  0  3  0  0  0  0  0  0
  189.2230  175.7310  138.5050 C   0  0  0  0  0  2  0  0  0  0  0  0
  187.6430  173.4610  137.1540 O   0  0  0  0  0  0  0  0  0  0  0  0
  187.8930  172.2570  136.4600 C   0  0  0  0  0  2  0  0  0  0  0  0
  187.7280  175.8020  136.5810 C   0  0  2  0  0  3  0  0  0  0  0  0
  186.2490  175.6910  136.2380 C   0  0  0  0  0  1  0  0  0  0  0  0
  188.7520  174.0190  135.1540 C   0  0  2  0  0  3  0  0  0  0  0  0
  188.4500  174.4620  136.5710 C   0  0  1  0  0  0  0  0  0  0  0  0
  188.7360  172.5280  135.2330 C   0  0  0  0  0  2  0  0  0  0  0  0
  193.6980  174.2770  135.5440 C   0  0  0  0  0  2  0  0  0  0  0  0
  194.2280  175.1530  136.6850 C   0  0  2  0  0  3  0  0  0  0  0  0
  193.1510  175.7950  137.5620 C   0  0  0  0  0  2  0  0  0  0  0  0
  191.1860  174.3640  135.6020 C   0  0  2  0  0  3  0  0  0  0  0  0
  191.9690  174.8700  137.7970 C   0  0  0  0  0  2  0  0  0  0  0  0
  190.9070  175.1410  136.8250 N   0  0  2  0  0  0  0  0  0  0  0  0
  189.3220  178.4090  140.0370 C   0  0  0  0  0  3  0  0  0  0  0  0
  186.5380  178.4210  138.4770 C   0  0  0  0  0  3  0  0  0  0  0  0
  186.8280  177.9060  143.3550 C   0  0  0  0  0  0  0  0  0  0  0  0
  188.2470  177.7530  143.4530 N   0  0  0  0  0  0  0  0  0  0  0  0
  189.1210  178.2830  142.4120 C   0  0  0  0  0  2  0  0  0  0  0  0
  186.0870  177.7210  144.3580 O   0  0  0  0  0  0  0  0  0  0  0  0
  188.4630  178.3280  141.0590 C   0  0  1  0  0  3  0  0  0  0  0  0
  188.8530  177.2980  144.6930 C   0  0  0  0  0  1  0  0  0  0  0  0
  186.9650  178.4030  140.9630 C   0  0  0  0  0  0  0  0  0  0  0  0
  186.1770  178.6350  139.7390 C   0  0  0  0  0  3  0  0  0  0  0  0
  186.2290  178.2360  142.0640 C   0  0  0  0  0  2  0  0  0  0  0  0
  187.8470  177.8680  138.0360 C   0  0  0  0  0  0  0  0  0  0  0  0
  189.0310  178.6450  138.5910 C   0  0  0  0  0  3  0  0  0  0  0  0
  195.1580  176.1960  136.1620 C   0  0  0  0  0  0  0  0  0  0  0  0
  194.7130  177.3360  135.8660 O   0  0  0  0  0  0  0  0  0  0  0  0
  196.5100  175.9210  136.0070 O   0  0  0  0  0  1  0  0  0  0  0  0
  1  5  1  1  0  0  0
  2 13  1  0  0  0  0
  2 16  1  0  0  0  0
  4 30  1  6  0  0  0
  4  5  1  0  0  0  0
  7  6  1  0  0  0  0
  8  9  1  1  0  0  0
  8  4  1  0  0  0  0
 10  3  1  1  0  0  0
 10 12  1  0  0  0  0
 10 11  1  0  0  0  0
 11  8  1  0  0  0  0
 11  6  1  1  0  0  0
 11  1  1  0  0  0  0
 12  7  1  0  0  0  0
 13 14  1  0  0  0  0
 14 32  1  6  0  0  0
 14 15  1  0  0  0  0
 15 17  1  0  0  0  0
 16  3  1  6  0  0  0
 16 18  1  0  0  0  0
 18  1  1  0  0  0  0
 18 17  1  1  0  0  0
 20 28  1  0  0  0  0
 21 22  1  0  0  0  0
 21 24  2  0  0  0  0
 22 26  1  0  0  0  0
 23 22  1  0  0  0  0
 25 19  1  1  0  0  0
 25 23  1  0  0  0  0
 27 25  1  0  0  0  0
 27 29  1  0  0  0  0
 28 27  2  0  0  0  0
 29 21  1  0  0  0  0
 30 20  2  3  0  0  0
 30 31  1  0  0  0  0
 31 19  2  0  0  0  0
 33 32  2  0  0  0  0
 34 32  1  0  0  0  0
M  END
>  <MODEL>
3

>  <REMARK>
 VINA RESULT:      -6.5      2.914      8.991
  Name = 
  2 active torsions:
  status: ('A' for Active; 'I' for Inactive)
    1  A    between atoms: C_3  and  C_25
    2  A    between atoms: C_8  and  C_30
                            x       y       z     vdW  Elec       q    Type
                         _______ _______ _______ _____ _____    ______ ____

>  <TORSDO>
F 2

$$$$
=
 OpenBabel10262423313D

 34 39  0  0  1  0  0  0  0  0999 V2000
  182.2210  179.1950  139.2300 C   0  0  1  0  0  3  0  0  0  0  0  0
  183.7310  178.4700  142.6490 C   0  0  0  0  0  2  0  0  0  0  0  0
  181.4270  178.3470  141.9030 C   0  0  0  0  0  2  0  0  0  0  0  0
  181.2940  177.6080  137.5910 C   0  0  2  0  0  3  0  0  0  0  0  0
  182.4860  178.5120  137.8850 C   0  0  0  0  0  2  0  0  0  0  0  0
  179.9730  179.9510  138.9290 O   0  0  0  0  0  0  0  0  0  0  0  0
  179.6130  180.8570  139.9500 C   0  0  0  0  0  2  0  0  0  0  0  0
  180.4460  177.5870  138.8450 C   0  0  2  0  0  3  0  0  0  0  0  0
  178.9750  177.3850  138.5070 C   0  0  0  0  0  1  0  0  0  0  0  0
  180.3380  178.8720  140.9900 C   0  0  2  0  0  3  0  0  0  0  0  0
  180.7280  178.9180  139.5270 C   0  0  1  0  0  0  0  0  0  0  0  0
  179.9620  180.2820  141.3050 C   0  0  0  0  0  2  0  0  0  0  0  0
  184.9370  179.3880  142.7970 C   0  0  0  0  0  2  0  0  0  0  0  0
  186.0730  179.0400  141.8280 C   0  0  2  0  0  3  0  0  0  0  0  0
  185.6230  178.6150  140.4290 C   0  0  0  0  0  2  0  0  0  0  0  0
  182.7560  179.0130  141.6030 C   0  0  2  0  0  3  0  0  0  0  0  0
  184.4220  179.4090  139.9420 C   0  0  0  0  0  2  0  0  0  0  0  0
  183.1810  178.6840  140.2290 N   0  0  2  0  0  0  0  0  0  0  0  0
  183.9690  175.8600  138.1040 C   0  0  0  0  0  3  0  0  0  0  0  0
  181.9320  176.0710  135.6560 C   0  0  0  0  0  3  0  0  0  0  0  0
  186.5530  177.7200  135.3940 C   0  0  0  0  0  0  0  0  0  0  0  0
  186.8930  177.5750  136.7760 N   0  0  0  0  0  0  0  0  0  0  0  0
  186.1790  176.6210  137.6170 C   0  0  0  0  0  2  0  0  0  0  0  0
  187.3300  178.3100  134.5950 O   0  0  0  0  0  0  0  0  0  0  0  0
  184.7620  176.3830  137.1630 C   0  0  0  0  0  0  0  0  0  0  0  0
  188.1040  178.1820  137.3020 C   0  0  0  0  0  1  0  0  0  0  0  0
  184.3940  176.6190  135.7260 C   0  0  0  0  0  0  0  0  0  0  0  0
  183.1160  176.2670  135.0810 C   0  0  0  0  0  3  0  0  0  0  0  0
  185.2680  177.2160  134.9140 C   0  0  0  0  0  2  0  0  0  0  0  0
  181.6500  176.1920  137.1120 C   0  0  0  0  0  0  0  0  0  0  0  0
  182.5760  175.3380  137.9640 C   0  0  0  0  0  2  0  0  0  0  0  0
  186.9710  178.0040  142.4180 C   0  0  0  0  0  0  0  0  0  0  0  0
  187.9360  177.5590  141.7450 O   0  0  0  0  0  0  0  0  0  0  0  0
  186.7540  177.5350  143.7080 O   0  0  0  0  0  1  0  0  0  0  0  0
  1  5  1  6  0  0  0
  1 11  1  0  0  0  0
  1 18  1  0  0  0  0
  2 13  1  0  0  0  0
  4 30  1  1  0  0  0
  4  5  1  0  0  0  0
  4  8  1  0  0  0  0
  6  7  1  0  0  0  0
  7 12  1  0  0  0  0
  8  9  1  6  0  0  0
  8 11  1  0  0  0  0
 10 12  1  1  0  0  0
 10  3  1  0  0  0  0
 11  6  1  6  0  0  0
 11 10  1  0  0  0  0
 14 32  1  1  0  0  0
 14 13  1  0  0  0  0
 15 14  1  0  0  0  0
 16  3  1  1  0  0  0
 16  2  1  0  0  0  0
 17 15  1  0  0  0  0
 18 17  1  6  0  0  0
 18 16  1  0  0  0  0
 20 30  2  3  0  0  0
 21 22  1  0  0  0  0
 22 26  1  0  0  0  0
 22 23  1  0  0  0  0
 24 21  2  0  0  0  0
 25 23  1  0  0  0  0
 25 19  2  0  0  0  0
 27 25  1  0  0  0  0
 28 20  1  0  0  0  0
 28 27  2  0  0  0  0
 29 21  1  0  0  0  0
 29 27  1  0  0  0  0
 30 31  1  0  0  0  0
 31 19  1  0  0  0  0
 32 34  1  0  0  0  0
 33 32  2  0  0  0  0
M  END
>  <MODEL>
4

>  <REMARK>
 VINA RESULT:      -6.4      5.004      7.898
  Name = 
  2 active torsions:
  status: ('A' for Active; 'I' for Inactive)
    1  A    between atoms: C_3  and  C_25
    2  A    between atoms: C_8  and  C_30
                            x       y       z     vdW  Elec       q    Type
                         _______ _______ _______ _____ _____    ______ ____

>  <TORSDO>
F 2

$$$$
=
 OpenBabel10262423313D

 34 39  0  0  1  0  0  0  0  0999 V2000
  183.5640  174.6560  137.5490 C   0  0  1  0  0  3  0  0  0  0  0  0
  185.8060  175.5140  134.5940 C   0  0  0  0  0  2  0  0  0  0  0  0
  183.5780  174.5580  134.6360 C   0  0  0  0  0  2  0  0  0  0  0  0
  181.5010  175.7800  138.2890 C   0  0  2  0  0  3  0  0  0  0  0  0
  182.9760  175.5770  138.6220 C   0  0  0  0  0  2  0  0  0  0  0  0
  181.9260  172.9170  137.4830 O   0  0  0  0  0  0  0  0  0  0  0  0
  182.4070  171.8090  136.7520 C   0  0  0  0  0  2  0  0  0  0  0  0
  181.2780  175.1720  136.9220 C   0  0  2  0  0  3  0  0  0  0  0  0
  179.8560  174.6440  136.7830 C   0  0  0  0  0  1  0  0  0  0  0  0
  182.5580  173.6990  135.3540 C   0  0  2  0  0  3  0  0  0  0  0  0
  182.3370  174.0840  136.8020 C   0  0  1  0  0  0  0  0  0  0  0  0
  182.9700  172.2650  135.4240 C   0  0  0  0  0  2  0  0  0  0  0  0
  187.2420  175.3290  135.0670 C   0  0  0  0  0  2  0  0  0  0  0  0
  187.6540  176.3530  136.1310 C   0  0  2  0  0  3  0  0  0  0  0  0
  186.5680  176.6990  137.1520 C   0  0  0  0  0  2  0  0  0  0  0  0
  184.8360  174.7180  135.4680 C   0  0  2  0  0  3  0  0  0  0  0  0
  185.7330  175.4890  137.5390 C   0  0  0  0  0  2  0  0  0  0  0  0
  184.5180  175.4250  136.7240 N   0  0  2  0  0  0  0  0  0  0  0  0
  183.1890  178.5410  138.2800 C   0  0  0  0  0  3  0  0  0  0  0  0
  180.4650  177.6490  139.6830 C   0  0  0  0  0  3  0  0  0  0  0  0
  184.5770  178.5290  142.2240 C   0  0  0  0  0  0  0  0  0  0  0  0
  185.4710  178.6560  141.1150 N   0  0  0  0  0  0  0  0  0  0  0  0
  184.9660  179.0290  139.7970 C   0  0  0  0  0  2  0  0  0  0  0  0
  185.0140  178.4970  143.4060 O   0  0  0  0  0  0  0  0  0  0  0  0
  183.5430  178.5920  139.5690 C   0  0  1  0  0  3  0  0  0  0  0  0
  186.9090  178.6650  141.3270 C   0  0  0  0  0  1  0  0  0  0  0  0
  182.6340  178.3780  140.7460 C   0  0  0  0  0  0  0  0  0  0  0  0
  181.1810  178.1310  140.6950 C   0  0  0  0  0  3  0  0  0  0  0  0
  183.1440  178.3890  141.9780 C   0  0  0  0  0  2  0  0  0  0  0  0
  181.0090  177.2330  138.3620 C   0  0  0  0  0  0  0  0  0  0  0  0
  181.8320  178.3230  137.6950 C   0  0  0  0  0  3  0  0  0  0  0  0
  188.1770  177.5960  135.4930 C   0  0  0  0  0  0  0  0  0  0  0  0
  189.3820  177.6540  135.1340 O   0  0  0  0  0  0  0  0  0  0  0  0
  187.3430  178.6870  135.2860 O   0  0  0  0  0  1  0  0  0  0  0  0
  1  5  1  1  0  0  0
  2 13  1  0  0  0  0
  3 16  1  0  0  0  0
  4 30  1  6  0  0  0
  4  5  1  0  0  0  0
  7  6  1  0  0  0  0
  8  9  1  1  0  0  0
  8  4  1  0  0  0  0
 10  3  1  1  0  0  0
 10 12  1  0  0  0  0
 10 11  1  0  0  0  0
 11  8  1  0  0  0  0
 11  6  1  1  0  0  0
 11  1  1  0  0  0  0
 12  7  1  0  0  0  0
 13 14  1  0  0  0  0
 14 32  1  6  0  0  0
 14 15  1  0  0  0  0
 15 17  1  0  0  0  0
 16  2  1  6  0  0  0
 16 18  1  0  0  0  0
 18 17  1  1  0  0  0
 18  1  1  0  0  0  0
 20 28  1  0  0  0  0
 21 24  2  0  0  0  0
 22 26  1  0  0  0  0
 22 21  1  0  0  0  0
 23 22  1  0  0  0  0
 25 19  1  6  0  0  0
 25 23  1  0  0  0  0
 25 27  1  0  0  0  0
 27 29  1  0  0  0  0
 28 27  2  0  0  0  0
 29 21  1  0  0  0  0
 30 20  2  3  0  0  0
 31 19  2  0  0  0  0
 31 30  1  0  0  0  0
 33 32  2  0  0  0  0
 34 32  1  0  0  0  0
M  END
>  <MODEL>
5

>  <REMARK>
 VINA RESULT:      -5.9      4.397      9.891
  Name = 
  2 active torsions:
  status: ('A' for Active; 'I' for Inactive)
    1  A    between atoms: C_3  and  C_25
    2  A    between atoms: C_8  and  C_30
                            x       y       z     vdW  Elec       q    Type
                         _______ _______ _______ _____ _____    ______ ____

>  <TORSDO>
F 2

$$$$
=
 OpenBabel10262423313D

 34 39  0  0  1  0  0  0  0  0999 V2000
  183.3560  178.6430  138.4100 C   0  0  1  0  0  3  0  0  0  0  0  0
  184.1750  178.1920  142.1010 C   0  0  0  0  0  2  0  0  0  0  0  0
  182.0740  177.9160  140.9240 C   0  0  0  0  0  2  0  0  0  0  0  0
  182.8330  176.9190  136.7310 C   0  0  2  0  0  3  0  0  0  0  0  0
  183.9100  177.8950  137.1930 C   0  0  0  0  0  2  0  0  0  0  0  0
  181.1900  179.2720  137.6210 O   0  0  0  0  0  0  0  0  0  0  0  0
  180.6010  180.2180  138.4880 C   0  0  0  0  0  2  0  0  0  0  0  0
  181.7520  176.9320  137.7900 C   0  0  2  0  0  3  0  0  0  0  0  0
  180.3870  176.6410  137.1830 C   0  0  0  0  0  1  0  0  0  0  0  0
  181.1720  178.3340  139.7810 C   0  0  2  0  0  3  0  0  0  0  0  0
  181.8460  178.3130  138.4240 C   0  0  1  0  0  0  0  0  0  0  0  0
  180.6920  179.7410  139.9200 C   0  0  0  0  0  2  0  0  0  0  0  0
  185.2940  179.1740  142.4230 C   0  0  0  0  0  2  0  0  0  0  0  0
  186.6130  178.8240  141.7230 C   0  0  2  0  0  3  0  0  0  0  0  0
  186.4680  178.2960  140.2950 C   0  0  0  0  0  2  0  0  0  0  0  0
  183.4120  178.6260  140.8490 C   0  0  2  0  0  3  0  0  0  0  0  0
  185.3610  179.0020  139.5280 C   0  0  0  0  0  2  0  0  0  0  0  0
  184.1140  178.2380  139.6110 N   0  0  2  0  0  0  0  0  0  0  0  0
  185.4850  175.3830  137.7700 C   0  0  0  0  0  3  0  0  0  0  0  0
  183.8300  175.2850  135.0430 C   0  0  0  0  0  3  0  0  0  0  0  0
  188.3500  177.1910  135.3220 C   0  0  0  0  0  0  0  0  0  0  0  0
  188.4860  177.1710  136.7450 N   0  0  0  0  0  0  0  0  0  0  0  0
  187.7020  176.2400  137.5500 C   0  0  0  0  0  2  0  0  0  0  0  0
  189.2080  177.7670  134.5990 O   0  0  0  0  0  0  0  0  0  0  0  0
  186.3830  175.8820  136.9150 C   0  0  0  0  0  0  0  0  0  0  0  0
  189.5720  177.8890  137.3900 C   0  0  0  0  0  1  0  0  0  0  0  0
  186.2230  175.9870  135.4250 C   0  0  0  0  0  0  0  0  0  0  0  0
  185.0750  175.5100  134.6320 C   0  0  0  0  0  3  0  0  0  0  0  0
  187.1790  176.5750  134.7030 C   0  0  0  0  0  2  0  0  0  0  0  0
  183.3270  175.4970  136.4280 C   0  0  0  0  0  0  0  0  0  0  0  0
  184.1570  174.7670  137.4730 C   0  0  0  0  0  2  0  0  0  0  0  0
  187.4100  177.8680  142.5480 C   0  0  0  0  0  0  0  0  0  0  0  0
  187.2600  177.8470  143.7970 O   0  0  0  0  0  1  0  0  0  0  0  0
  188.3100  176.9980  141.9450 O   0  0  0  0  0  0  0  0  0  0  0  0
  1  5  1  6  0  0  0
  1 11  1  0  0  0  0
  1 18  1  0  0  0  0
  2 13  1  0  0  0  0
  4 30  1  1  0  0  0
  4  5  1  0  0  0  0
  4  8  1  0  0  0  0
  6  7  1  0  0  0  0
  7 12  1  0  0  0  0
  8  9  1  6  0  0  0
  8 11  1  0  0  0  0
 10 12  1  1  0  0  0
 10  3  1  0  0  0  0
 11  6  1  6  0  0  0
 11 10  1  0  0  0  0
 14 13  1  0  0  0  0
 14 32  1  1  0  0  0
 15 14  1  0  0  0  0
 16  3  1  6  0  0  0
 16  2  1  0  0  0  0
 17 15  1  0  0  0  0
 18 17  1  6  0  0  0
 18 16  1  0  0  0  0
 20 30  2  3  0  0  0
 21 22  1  0  0  0  0
 22 26  1  0  0  0  0
 22 23  1  0  0  0  0
 24 21  2  0  0  0  0
 25 23  1  0  0  0  0
 25 19  2  0  0  0  0
 27 25  1  0  0  0  0
 28 20  1  0  0  0  0
 28 27  2  0  0  0  0
 29 21  1  0  0  0  0
 29 27  1  0  0  0  0
 30 31  1  0  0  0  0
 31 19  1  0  0  0  0
 32 33  1  0  0  0  0
 34 32  2  0  0  0  0
M  END
>  <MODEL>
6

>  <REMARK>
 VINA RESULT:      -5.8      4.256      7.361
  Name = 
  2 active torsions:
  status: ('A' for Active; 'I' for Inactive)
    1  A    between atoms: C_3  and  C_25
    2  A    between atoms: C_8  and  C_30
                            x       y       z     vdW  Elec       q    Type
                         _______ _______ _______ _____ _____    ______ ____

>  <TORSDO>
F 2

$$$$
=
 OpenBabel10262423313D

 34 39  0  0  1  0  0  0  0  0999 V2000
  184.6670  176.0870  135.5800 C   0  0  1  0  0  3  0  0  0  0  0  0
  185.5320  172.4540  136.3230 C   0  0  0  0  0  2  0  0  0  0  0  0
  186.4800  174.4990  137.2190 C   0  0  0  0  0  2  0  0  0  0  0  0
  183.5250  177.7210  137.0250 C   0  0  2  0  0  3  0  0  0  0  0  0
  183.3490  176.8360  135.7960 C   0  0  0  0  0  2  0  0  0  0  0  0
  186.2490  177.8700  135.7660 O   0  0  0  0  0  0  0  0  0  0  0  0
  187.5220  177.4520  135.3220 C   0  0  0  0  0  2  0  0  0  0  0  0
  184.8460  177.3330  137.6540 C   0  0  2  0  0  3  0  0  0  0  0  0
  185.4850  178.5190  138.3640 C   0  0  0  0  0  1  0  0  0  0  0  0
  186.8340  175.9560  137.0060 C   0  0  2  0  0  3  0  0  0  0  0  0
  185.6850  176.8030  136.4990 C   0  0  1  0  0  0  0  0  0  0  0  0
  187.8970  176.1390  135.9740 C   0  0  0  0  0  2  0  0  0  0  0  0
  185.2620  171.6710  135.0450 C   0  0  0  0  0  2  0  0  0  0  0  0
  183.7720  171.6130  134.6860 C   0  0  2  0  0  3  0  0  0  0  0  0
  182.9910  172.9010  134.9540 C   0  0  0  0  0  2  0  0  0  0  0  0
  185.7370  173.9390  136.0200 C   0  0  2  0  0  3  0  0  0  0  0  0
  183.8040  174.1460  134.6390 C   0  0  0  0  0  2  0  0  0  0  0  0
  184.4560  174.6510  135.8500 N   0  0  2  0  0  0  0  0  0  0  0  0
  180.4970  178.8330  136.7640 C   0  0  0  0  0  3  0  0  0  0  0  0
  182.5240  178.5680  139.2150 C   0  0  0  0  0  3  0  0  0  0  0  0
  181.1930  182.9130  137.3460 C   0  0  0  0  0  0  0  0  0  0  0  0
  180.4970  182.4290  136.1950 N   0  0  0  0  0  0  0  0  0  0  0  0
  179.9410  181.0800  136.1800 C   0  0  0  0  0  2  0  0  0  0  0  0
  181.4210  184.1450  137.4930 O   0  0  0  0  0  0  0  0  0  0  0  0
  180.7050  180.1210  137.0560 C   0  0  0  0  0  0  0  0  0  0  0  0
  180.1150  183.3400  135.1290 C   0  0  0  0  0  1  0  0  0  0  0  0
  181.5030  180.6480  138.2150 C   0  0  0  0  0  0  0  0  0  0  0  0
  182.1520  179.8450  139.2670 C   0  0  0  0  0  3  0  0  0  0  0  0
  181.6840  181.9630  138.3420 C   0  0  0  0  0  2  0  0  0  0  0  0
  182.3690  177.6730  138.0360 C   0  0  0  0  0  0  0  0  0  0  0  0
  180.9400  177.6220  137.5190 C   0  0  0  0  0  2  0  0  0  0  0  0
  183.1110  170.4580  135.3620 C   0  0  0  0  0  0  0  0  0  0  0  0
  183.8070  169.6280  136.0010 O   0  0  0  0  0  1  0  0  0  0  0  0
  181.7320  170.2990  135.2970 O   0  0  0  0  0  0  0  0  0  0  0  0
  1  5  1  1  0  0  0
  1 18  1  0  0  0  0
  1 11  1  0  0  0  0
  4  8  1  0  0  0  0
  4 30  1  1  0  0  0
  5  4  1  0  0  0  0
  7  6  1  0  0  0  0
  7 12  1  0  0  0  0
  8  9  1  6  0  0  0
 10 12  1  6  0  0  0
 10  3  1  0  0  0  0
 11  6  1  6  0  0  0
 11 10  1  0  0  0  0
 11  8  1  0  0  0  0
 13  2  1  0  0  0  0
 14 15  1  0  0  0  0
 14 13  1  0  0  0  0
 14 32  1  1  0  0  0
 16  2  1  1  0  0  0
 16  3  1  0  0  0  0
 17 15  1  0  0  0  0
 18 17  1  6  0  0  0
 18 16  1  0  0  0  0
 19 25  2  0  0  0  0
 19 31  1  0  0  0  0
 20 28  1  0  0  0  0
 21 24  2  0  0  0  0
 21 29  1  0  0  0  0
 22 21  1  0  0  0  0
 23 22  1  0  0  0  0
 23 25  1  0  0  0  0
 25 27  1  0  0  0  0
 26 22  1  0  0  0  0
 27 29  1  0  0  0  0
 27 28  2  0  0  0  0
 30 20  2  3  0  0  0
 31 30  1  0  0  0  0
 32 33  1  0  0  0  0
 34 32  2  0  0  0  0
M  END
>  <MODEL>
7

>  <REMARK>
 VINA RESULT:      -5.7      6.575     10.241
  Name = 
  2 active torsions:
  status: ('A' for Active; 'I' for Inactive)
    1  A    between atoms: C_3  and  C_25
    2  A    between atoms: C_8  and  C_30
                            x       y       z     vdW  Elec       q    Type
                         _______ _______ _______ _____ _____    ______ ____

>  <TORSDO>
F 2

$$$$
=
 OpenBabel10262423313D

 34 39  0  0  1  0  0  0  0  0999 V2000
  187.2990  176.9150  136.0440 C   0  0  1  0  0  3  0  0  0  0  0  0
  189.4610  173.9360  137.0160 C   0  0  0  0  0  2  0  0  0  0  0  0
  188.8140  175.8820  138.3100 C   0  0  0  0  0  2  0  0  0  0  0  0
  185.0260  177.4780  136.8070 C   0  0  2  0  0  3  0  0  0  0  0  0
  185.8280  176.9520  135.6210 C   0  0  0  0  0  2  0  0  0  0  0  0
  187.5560  179.0860  137.0130 O   0  0  0  0  0  0  0  0  0  0  0  0
  188.9210  179.3770  137.2240 C   0  0  0  0  0  2  0  0  0  0  0  0
  185.9790  177.5390  137.9810 C   0  0  2  0  0  3  0  0  0  0  0  0
  185.5940  178.6560  138.9410 C   0  0  0  0  0  1  0  0  0  0  0  0
  188.4500  177.3520  138.3320 C   0  0  2  0  0  3  0  0  0  0  0  0
  187.3540  177.7310  137.3570 C   0  0  1  0  0  0  0  0  0  0  0  0
  189.5950  178.2280  137.9410 C   0  0  0  0  0  2  0  0  0  0  0  0
  190.1600  173.4710  135.7450 C   0  0  0  0  0  2  0  0  0  0  0  0
  189.1900  172.8820  134.7140 C   0  0  2  0  0  3  0  0  0  0  0  0
  187.8430  173.6000  134.6080 C   0  0  0  0  0  2  0  0  0  0  0  0
  189.0060  175.3900  136.8880 C   0  0  2  0  0  3  0  0  0  0  0  0
  187.9790  175.1070  134.7540 C   0  0  0  0  0  2  0  0  0  0  0  0
  187.7390  175.5090  136.1420 N   0  0  2  0  0  0  0  0  0  0  0  0
  182.0140  177.8360  135.6790 C   0  0  0  0  0  3  0  0  0  0  0  0
  183.1980  176.9210  138.4980 C   0  0  0  0  0  3  0  0  0  0  0  0
  180.8300  181.1830  137.8870 C   0  0  0  0  0  0  0  0  0  0  0  0
  180.7400  181.1560  136.4600 N   0  0  0  0  0  0  0  0  0  0  0  0
  180.7970  179.8890  135.7390 C   0  0  0  0  0  2  0  0  0  0  0  0
  180.4960  182.2110  138.5370 O   0  0  0  0  0  0  0  0  0  0  0  0
  181.5990  178.8380  136.4610 C   0  0  1  0  0  3  0  0  0  0  0  0
  180.3430  182.3460  135.7260 C   0  0  0  0  0  1  0  0  0  0  0  0
  181.7590  178.9210  137.9530 C   0  0  0  0  0  0  0  0  0  0  0  0
  182.3500  177.8920  138.8280 C   0  0  0  0  0  3  0  0  0  0  0  0
  181.3570  180.0190  138.5950 C   0  0  0  0  0  2  0  0  0  0  0  0
  183.7520  176.6860  137.1370 C   0  0  0  0  0  0  0  0  0  0  0  0
  182.6710  176.5550  136.0760 C   0  0  0  0  0  3  0  0  0  0  0  0
  188.9800  171.4250  134.9590 C   0  0  0  0  0  0  0  0  0  0  0  0
  189.8550  170.5980  134.5940 O   0  0  0  0  0  0  0  0  0  0  0  0
  187.8290  170.9760  135.5960 O   0  0  0  0  0  1  0  0  0  0  0  0
  1  5  1  1  0  0  0
  1 18  1  0  0  0  0
  1 11  1  0  0  0  0
  3 10  1  0  0  0  0
  4 30  1  1  0  0  0
  4  8  1  0  0  0  0
  5  4  1  0  0  0  0
  6  7  1  0  0  0  0
  7 12  1  0  0  0  0
  8  9  1  1  0  0  0
 10 12  1  6  0  0  0
 11  6  1  6  0  0  0
 11  8  1  0  0  0  0
 11 10  1  0  0  0  0
 13  2  1  0  0  0  0
 14 32  1  1  0  0  0
 14 13  1  0  0  0  0
 15 14  1  0  0  0  0
 15 17  1  0  0  0  0
 16  2  1  1  0  0  0
 16  3  1  0  0  0  0
 18 17  1  6  0  0  0
 18 16  1  0  0  0  0
 19 31  2  0  0  0  0
 20 28  1  0  0  0  0
 21 24  2  0  0  0  0
 21 29  1  0  0  0  0
 22 21  1  0  0  0  0
 23 22  1  0  0  0  0
 23 25  1  0  0  0  0
 25 19  1  1  0  0  0
 25 27  1  0  0  0  0
 26 22  1  0  0  0  0
 27 29  1  0  0  0  0
 27 28  2  0  0  0  0
 30 20  2  3  0  0  0
 31 30  1  0  0  0  0
 32 34  1  0  0  0  0
 33 32  2  0  0  0  0
M  END
>  <MODEL>
8

>  <REMARK>
 VINA RESULT:      -5.7      5.437      9.362
  Name = 
  2 active torsions:
  status: ('A' for Active; 'I' for Inactive)
    1  A    between atoms: C_3  and  C_25
    2  A    between atoms: C_8  and  C_30
                            x       y       z     vdW  Elec       q    Type
                         _______ _______ _______ _____ _____    ______ ____

>  <TORSDO>
F 2

$$$$
=
 OpenBabel10262423313D

 34 39  0  0  1  0  0  0  0  0999 V2000
  185.6660  176.2410  135.9390 C   0  0  1  0  0  3  0  0  0  0  0  0
  186.0370  172.4880  136.4630 C   0  0  0  0  0  2  0  0  0  0  0  0
  187.5530  174.2980  137.0160 C   0  0  0  0  0  2  0  0  0  0  0  0
  185.2980  177.9990  137.6240 C   0  0  2  0  0  3  0  0  0  0  0  0
  184.6220  177.2040  136.5110 C   0  0  0  0  0  2  0  0  0  0  0  0
  187.5300  177.7060  135.6340 O   0  0  0  0  0  0  0  0  0  0  0  0
  188.5270  177.0850  134.8510 C   0  0  0  0  0  2  0  0  0  0  0  0
  186.6500  177.3600  137.8530 C   0  0  2  0  0  3  0  0  0  0  0  0
  187.6680  178.3870  138.3310 C   0  0  0  0  0  1  0  0  0  0  0  0
  188.0890  175.6760  136.6870 C   0  0  2  0  0  3  0  0  0  0  0  0
  187.0150  176.7310  136.5150 C   0  0  1  0  0  0  0  0  0  0  0  0
  188.8290  175.7050  135.3900 C   0  0  0  0  0  2  0  0  0  0  0  0
  185.2770  171.8120  135.3300 C   0  0  0  0  0  2  0  0  0  0  0  0
  183.7620  172.0330  135.4140 C   0  0  2  0  0  3  0  0  0  0  0  0
  183.3350  173.4280  135.8730 C   0  0  0  0  0  2  0  0  0  0  0  0
  186.4120  173.9230  136.0900 C   0  0  2  0  0  3  0  0  0  0  0  0
  184.2350  174.5200  135.3170 C   0  0  0  0  0  2  0  0  0  0  0  0
  185.2850  174.8560  136.2820 N   0  0  2  0  0  0  0  0  0  0  0  0
  182.2920  177.0030  138.2930 C   0  0  0  0  0  3  0  0  0  0  0  0
  184.0340  179.4970  139.2580 C   0  0  0  0  0  3  0  0  0  0  0  0
  180.1120  179.9880  136.3390 C   0  0  0  0  0  0  0  0  0  0  0  0
  179.8900  178.6000  136.0720 N   0  0  0  0  0  0  0  0  0  0  0  0
  180.3710  177.5820  137.0000 C   0  0  0  0  0  2  0  0  0  0  0  0
  179.4660  180.8770  135.7200 O   0  0  0  0  0  0  0  0  0  0  0  0
  181.5970  178.0140  137.7610 C   0  0  0  0  0  0  0  0  0  0  0  0
  178.9750  178.1920  135.0180 C   0  0  0  0  0  1  0  0  0  0  0  0
  181.8680  179.4780  137.9640 C   0  0  0  0  0  0  0  0  0  0  0  0
  182.9090  180.0630  138.8280 C   0  0  0  0  0  3  0  0  0  0  0  0
  181.1310  180.3780  137.3100 C   0  0  0  0  0  2  0  0  0  0  0  0
  184.4890  178.1200  138.9240 C   0  0  0  0  0  0  0  0  0  0  0  0
  183.4440  177.0620  139.2420 C   0  0  0  0  0  2  0  0  0  0  0  0
  183.1230  170.9900  136.2700 C   0  0  0  0  0  0  0  0  0  0  0  0
  183.5420  169.8040  136.2260 O   0  0  0  0  0  0  0  0  0  0  0  0
  182.0760  171.3210  137.1200 O   0  0  0  0  0  1  0  0  0  0  0  0
  1 18  1  0  0  0  0
  1  5  1  1  0  0  0
  1 11  1  0  0  0  0
  4  8  1  0  0  0  0
  4 30  1  1  0  0  0
  5  4  1  0  0  0  0
  7 12  1  0  0  0  0
  7  6  1  0  0  0  0
  8  9  1  6  0  0  0
 10 12  1  6  0  0  0
 10  3  1  0  0  0  0
 11  6  1  6  0  0  0
 11 10  1  0  0  0  0
 11  8  1  0  0  0  0
 13 14  1  0  0  0  0
 13  2  1  0  0  0  0
 14 15  1  0  0  0  0
 14 32  1  1  0  0  0
 16 18  1  0  0  0  0
 16  2  1  1  0  0  0
 16  3  1  0  0  0  0
 17 15  1  0  0  0  0
 18 17  1  6  0  0  0
 19 31  1  0  0  0  0
 21 29  1  0  0  0  0
 22 21  1  0  0  0  0
 22 23  1  0  0  0  0
 23 25  1  0  0  0  0
 24 21  2  0  0  0  0
 25 27  1  0  0  0  0
 25 19  2  0  0  0  0
 26 22  1  0  0  0  0
 27 28  2  0  0  0  0
 28 20  1  0  0  0  0
 29 27  1  0  0  0  0
 30 31  1  0  0  0  0
 30 20  2  3  0  0  0
 32 34  1  0  0  0  0
 33 32  2  0  0  0  0
M  END
>  <MODEL>
9

>  <REMARK>
 VINA RESULT:      -5.4      5.987      9.238
  Name = 
  2 active torsions:
  status: ('A' for Active; 'I' for Inactive)
    1  A    between atoms: C_3  and  C_25
    2  A    between atoms: C_8  and  C_30
                            x       y       z     vdW  Elec       q    Type
                         _______ _______ _______ _____ _____    ______ ____

>  <TORSDO>
F 2

$$$$
