=
 OpenBabel10262421383D

 32 36  0  0  1  0  0  0  0  0999 V2000
  184.8650  178.7790  146.6360 C   0  0  0  0  0  3  0  0  0  0  0  0
  186.1590  178.4120  147.0000 C   0  0  0  0  0  3  0  0  0  0  0  0
  184.4410  178.6290  145.3150 C   0  0  0  0  0  3  0  0  0  0  0  0
  185.3010  178.1170  144.3370 C   0  0  0  0  0  0  0  0  0  0  0  0
  187.0280  177.8910  146.0410 C   0  0  0  0  0  3  0  0  0  0  0  0
  186.6170  177.7320  144.7080 C   0  0  0  0  0  0  0  0  0  0  0  0
  188.7990  177.4870  141.7130 C   0  0  2  0  0  3  0  0  0  0  0  0
  190.1000  177.9030  142.4090 C   0  0  2  0  0  3  0  0  0  0  0  0
  191.4130  177.4540  144.2710 C   0  0  2  0  0  3  0  0  0  0  0  0
  187.5770  177.1140  143.7350 C   0  0  2  0  0  3  0  0  0  0  0  0
  191.8720  176.6070  143.1830 N   0  0  0  0  0  2  0  0  0  0  0  0
  191.1970  177.0220  142.0150 N   0  0  0  0  0  2  0  0  0  0  0  0
  188.9470  176.8590  144.3900 C   0  0  0  0  0  2  0  0  0  0  0  0
  188.7280  178.1140  140.3350 C   0  0  0  0  0  1  0  0  0  0  0  0
  191.5590  176.7480  145.6120 C   0  0  0  0  0  1  0  0  0  0  0  0
  187.6520  177.9180  142.5070 N   0  0  0  0  0  2  0  0  0  0  0  0
  190.0060  177.8740  143.9240 C   0  0  2  0  0  3  0  0  0  0  0  0
  184.7800  178.0010  143.0030 N   0  0  0  0  0  2  0  0  0  0  0  0
  182.6510  178.4810  137.8560 C   0  0  0  0  0  2  0  0  0  0  0  0
  182.6080  178.4940  140.6230 C   0  0  2  0  0  3  0  0  0  0  0  0
  184.7990  179.1760  140.9230 N   0  0  0  0  0  2  0  0  0  0  0  0
  183.9650  178.8300  138.6000 C   0  0  0  0  0  2  0  0  0  0  0  0
  184.1410  179.0560  142.2290 C   0  0  1  0  0  3  0  0  0  0  0  0
  181.3720  179.0910  138.4860 C   0  0  1  0  0  3  0  0  0  0  0  0
  183.6860  179.3170  140.0160 C   0  0  1  0  0  3  0  0  0  0  0  0
  181.2700  178.9050  140.0200 C   0  0  0  0  0  2  0  0  0  0  0  0
  182.7160  178.7450  142.0400 N   0  0  0  0  0  2  0  0  0  0  0  0
  181.2470  180.8570  138.0730 S   0  0  0  0  0  0  0  0  0  0  0  0
  180.8400  180.4930  136.3430 C   0  0  0  0  0  2  0  0  0  0  0  0
  180.4260  181.7740  135.6470 C   0  0  0  0  0  2  0  0  0  0  0  0
  181.0940  184.1030  135.8720 N   0  0  0  0  0  1  0  0  0  0  0  0
  180.5680  182.9540  136.5900 C   0  0  0  0  0  2  0  0  0  0  0  0
  1  2  1  0  0  0  0
  3  1  2  0  0  0  0
  4  6  2  0  0  0  0
  4  3  1  0  0  0  0
  5  2  2  0  0  0  0
  6  5  1  0  0  0  0
  7 14  1  6  0  0  0
  7  8  1  0  0  0  0
  7 16  1  0  0  0  0
  8 12  1  1  0  0  0
  8 17  1  0  0  0  0
  9 15  1  1  0  0  0
 10 13  1  0  0  0  0
 10  6  1  1  0  0  0
 11  9  1  0  0  0  0
 12 11  1  0  0  0  0
 16 10  1  0  0  0  0
 17  9  1  0  0  0  0
 17 13  1  6  0  0  0
 18  4  1  0  0  0  0
 19 24  1  0  0  0  0
 19 22  1  0  0  0  0
 20 26  1  6  0  0  0
 20 27  1  0  0  0  0
 21 23  1  0  0  0  0
 23 18  1  1  0  0  0
 24 28  1  1  0  0  0
 24 26  1  0  0  0  0
 25 22  1  6  0  0  0
 25 20  1  0  0  0  0
 25 21  1  0  0  0  0
 27 23  1  0  0  0  0
 29 28  1  0  0  0  0
 30 29  1  0  0  0  0
 30 32  1  0  0  0  0
 31 32  1  0  0  0  0
M  END
>  <MODEL>
1

>  <REMARK>
 VINA RESULT:      -8.8      0.000      0.000
  Name = 
  7 active torsions:
  status: ('A' for Active; 'I' for Inactive)
    1  A    between atoms: N_3  and  C_14
    2  A    between atoms: N_3  and  C_15
    3  A    between atoms: C_10  and  C_20
    4  A    between atoms: C_10  and  S_24
    5  A    between atoms: C_16  and  C_26
    6  A    between atoms: C_17  and  C_20
    7  A    between atoms: C_19  and  S_24
                            x       y       z     vdW  Elec       q    Type
                         _______ _______ _______ _____ _____    ______ ____

>  <TORSDO>
F 7

$$$$
=
 OpenBabel10262421383D

 32 36  0  0  1  0  0  0  0  0999 V2000
  184.3450  179.0020  145.8510 C   0  0  0  0  0  3  0  0  0  0  0  0
  185.2700  178.2960  146.6170 C   0  0  0  0  0  3  0  0  0  0  0  0
  184.4930  179.0720  144.4650 C   0  0  0  0  0  3  0  0  0  0  0  0
  185.5680  178.4440  143.8240 C   0  0  0  0  0  0  0  0  0  0  0  0
  186.3420  177.6560  145.9960 C   0  0  0  0  0  3  0  0  0  0  0  0
  186.5050  177.7140  144.6030 C   0  0  0  0  0  0  0  0  0  0  0  0
  189.3580  177.0500  142.3200 C   0  0  2  0  0  3  0  0  0  0  0  0
  190.4600  177.5190  143.2760 C   0  0  2  0  0  3  0  0  0  0  0  0
  191.2330  177.2720  145.4520 C   0  0  2  0  0  3  0  0  0  0  0  0
  187.6450  176.9590  143.9860 C   0  0  2  0  0  3  0  0  0  0  0  0
  191.9060  176.2870  144.6220 N   0  0  0  0  0  2  0  0  0  0  0  0
  191.5730  176.5700  143.2810 N   0  0  0  0  0  2  0  0  0  0  0  0
  188.7890  176.7540  144.9980 C   0  0  0  0  0  2  0  0  0  0  0  0
  189.6730  177.5040  140.9080 C   0  0  0  0  0  1  0  0  0  0  0  0
  190.9970  176.7340  146.8560 C   0  0  0  0  0  1  0  0  0  0  0  0
  188.0720  177.6030  142.7370 N   0  0  0  0  0  2  0  0  0  0  0  0
  189.9850  177.6790  144.7090 C   0  0  2  0  0  3  0  0  0  0  0  0
  185.6420  178.5710  142.3950 N   0  0  0  0  0  2  0  0  0  0  0  0
  183.8280  177.1570  137.3000 C   0  0  0  0  0  2  0  0  0  0  0  0
  183.6590  177.5010  140.0400 C   0  0  2  0  0  3  0  0  0  0  0  0
  185.1190  179.2910  140.1780 N   0  0  0  0  0  2  0  0  0  0  0  0
  184.7110  178.2530  137.9490 C   0  0  0  0  0  2  0  0  0  0  0  0
  184.5710  179.0040  141.5090 C   0  0  1  0  0  3  0  0  0  0  0  0
  182.3950  177.0550  137.8830 C   0  0  1  0  0  3  0  0  0  0  0  0
  184.1490  178.6900  139.2960 C   0  0  1  0  0  3  0  0  0  0  0  0
  182.3400  177.0420  139.4300 C   0  0  0  0  0  2  0  0  0  0  0  0
  183.5500  177.9500  141.4070 N   0  0  0  0  0  2  0  0  0  0  0  0
  181.3560  178.4010  137.2430 S   0  0  0  0  0  0  0  0  0  0  0  0
  179.8580  177.3820  137.3330 C   0  0  0  0  0  2  0  0  0  0  0  0
  180.1200  176.0490  136.6610 C   0  0  0  0  0  2  0  0  0  0  0  0
  179.8030  174.5430  138.5450 N   0  0  0  0  0  1  0  0  0  0  0  0
  179.2470  174.9700  137.2720 C   0  0  0  0  0  2  0  0  0  0  0  0
  1  2  1  0  0  0  0
  3  1  2  0  0  0  0
  4  3  1  0  0  0  0
  4  6  2  0  0  0  0
  5  2  2  0  0  0  0
  6  5  1  0  0  0  0
  7 14  1  6  0  0  0
  7 16  1  0  0  0  0
  7  8  1  0  0  0  0
  8 12  1  1  0  0  0
  8 17  1  0  0  0  0
  9 15  1  1  0  0  0
 10  6  1  1  0  0  0
 10 13  1  0  0  0  0
 11  9  1  0  0  0  0
 12 11  1  0  0  0  0
 16 10  1  0  0  0  0
 17 13  1  1  0  0  0
 17  9  1  0  0  0  0
 18  4  1  0  0  0  0
 19 24  1  0  0  0  0
 19 22  1  0  0  0  0
 20 26  1  6  0  0  0
 20 27  1  0  0  0  0
 21 23  1  0  0  0  0
 23 18  1  1  0  0  0
 24 28  1  1  0  0  0
 24 26  1  0  0  0  0
 25 22  1  6  0  0  0
 25 20  1  0  0  0  0
 25 21  1  0  0  0  0
 27 23  1  0  0  0  0
 28 29  1  0  0  0  0
 30 32  1  0  0  0  0
 30 29  1  0  0  0  0
 32 31  1  0  0  0  0
M  END
>  <MODEL>
2

>  <REMARK>
 VINA RESULT:      -8.0      2.262      2.840
  Name = 
  7 active torsions:
  status: ('A' for Active; 'I' for Inactive)
    1  A    between atoms: N_3  and  C_14
    2  A    between atoms: N_3  and  C_15
    3  A    between atoms: C_10  and  C_20
    4  A    between atoms: C_10  and  S_24
    5  A    between atoms: C_16  and  C_26
    6  A    between atoms: C_17  and  C_20
    7  A    between atoms: C_19  and  S_24
                            x       y       z     vdW  Elec       q    Type
                         _______ _______ _______ _____ _____    ______ ____

>  <TORSDO>
F 7

$$$$
=
 OpenBabel10262421383D

 32 36  0  0  1  0  0  0  0  0999 V2000
  184.5500  178.7300  146.2480 C   0  0  0  0  0  3  0  0  0  0  0  0
  185.6610  177.9980  146.6630 C   0  0  0  0  0  3  0  0  0  0  0  0
  184.3560  178.9970  144.8920 C   0  0  0  0  0  3  0  0  0  0  0  0
  185.2690  178.5430  143.9310 C   0  0  0  0  0  0  0  0  0  0  0  0
  186.5770  177.5300  145.7200 C   0  0  0  0  0  3  0  0  0  0  0  0
  186.3950  177.7880  144.3520 C   0  0  0  0  0  0  0  0  0  0  0  0
  188.6640  177.6680  141.4140 C   0  0  2  0  0  3  0  0  0  0  0  0
  189.9440  178.0520  142.1650 C   0  0  2  0  0  3  0  0  0  0  0  0
  191.2020  177.5200  144.0430 C   0  0  2  0  0  3  0  0  0  0  0  0
  187.3830  177.2120  143.3810 C   0  0  2  0  0  3  0  0  0  0  0  0
  191.6920  176.7200  142.9330 N   0  0  0  0  0  2  0  0  0  0  0  0
  191.0520  177.1860  141.7650 N   0  0  0  0  0  2  0  0  0  0  0  0
  188.7330  176.9250  144.0650 C   0  0  0  0  0  2  0  0  0  0  0  0
  188.6330  178.3540  140.0630 C   0  0  0  0  0  1  0  0  0  0  0  0
  191.3090  176.7570  145.3560 C   0  0  0  0  0  1  0  0  0  0  0  0
  187.4940  178.0670  142.1930 N   0  0  0  0  0  2  0  0  0  0  0  0
  189.8060  177.9570  143.6740 C   0  0  2  0  0  3  0  0  0  0  0  0
  184.9900  178.8680  142.5600 N   0  0  0  0  0  2  0  0  0  0  0  0
  180.8400  180.2570  139.0820 C   0  0  0  0  0  2  0  0  0  0  0  0
  183.2980  179.2070  139.7940 C   0  0  2  0  0  3  0  0  0  0  0  0
  182.7050  178.5590  141.9350 N   0  0  0  0  0  2  0  0  0  0  0  0
  181.0060  179.7130  140.5230 C   0  0  0  0  0  2  0  0  0  0  0  0
  184.0890  178.1520  141.6680 C   0  0  1  0  0  3  0  0  0  0  0  0
  181.5260  179.3990  137.9860 C   0  0  1  0  0  3  0  0  0  0  0  0
  182.1570  178.7190  140.6100 C   0  0  1  0  0  3  0  0  0  0  0  0
  182.9820  178.9930  138.3190 C   0  0  0  0  0  2  0  0  0  0  0  0
  184.4320  178.4490  140.2680 N   0  0  0  0  0  2  0  0  0  0  0  0
  180.5380  177.9140  137.6390 S   0  0  0  0  0  0  0  0  0  0  0  0
  181.9440  177.0800  136.8510 C   0  0  0  0  0  2  0  0  0  0  0  0
  181.7270  175.5810  136.9020 C   0  0  0  0  0  2  0  0  0  0  0  0
  182.8770  175.5040  139.0440 N   0  0  0  0  0  1  0  0  0  0  0  0
  182.8220  174.9180  137.7160 C   0  0  0  0  0  2  0  0  0  0  0  0
  1  2  1  0  0  0  0
  3  1  2  0  0  0  0
  4  6  2  0  0  0  0
  4  3  1  0  0  0  0
  5  2  2  0  0  0  0
  6  5  1  0  0  0  0
  7 14  1  6  0  0  0
  7  8  1  0  0  0  0
  7 16  1  0  0  0  0
  8 12  1  6  0  0  0
  8 17  1  0  0  0  0
  9 15  1  1  0  0  0
 10 13  1  0  0  0  0
 10  6  1  1  0  0  0
 11  9  1  0  0  0  0
 12 11  1  0  0  0  0
 16 10  1  0  0  0  0
 17  9  1  0  0  0  0
 17 13  1  6  0  0  0
 18  4  1  0  0  0  0
 19 22  1  0  0  0  0
 20 26  1  6  0  0  0
 20 27  1  0  0  0  0
 20 25  1  0  0  0  0
 23 21  1  0  0  0  0
 23 18  1  1  0  0  0
 24 28  1  1  0  0  0
 24 26  1  0  0  0  0
 24 19  1  0  0  0  0
 25 22  1  1  0  0  0
 25 21  1  0  0  0  0
 27 23  1  0  0  0  0
 29 30  1  0  0  0  0
 29 28  1  0  0  0  0
 30 32  1  0  0  0  0
 32 31  1  0  0  0  0
M  END
>  <MODEL>
3

>  <REMARK>
 VINA RESULT:      -8.0      1.873      2.915
  Name = 
  7 active torsions:
  status: ('A' for Active; 'I' for Inactive)
    1  A    between atoms: N_3  and  C_14
    2  A    between atoms: N_3  and  C_15
    3  A    between atoms: C_10  and  C_20
    4  A    between atoms: C_10  and  S_24
    5  A    between atoms: C_16  and  C_26
    6  A    between atoms: C_17  and  C_20
    7  A    between atoms: C_19  and  S_24
                            x       y       z     vdW  Elec       q    Type
                         _______ _______ _______ _____ _____    ______ ____

>  <TORSDO>
F 7

$$$$
=
 OpenBabel10262421383D

 32 36  0  0  1  0  0  0  0  0999 V2000
  184.6880  179.0650  142.1890 C   0  0  0  0  0  3  0  0  0  0  0  0
  184.8220  178.5000  143.4550 C   0  0  0  0  0  3  0  0  0  0  0  0
  185.7690  179.0690  141.3070 C   0  0  0  0  0  3  0  0  0  0  0  0
  187.0010  178.5150  141.6760 C   0  0  0  0  0  0  0  0  0  0  0  0
  186.0390  177.9340  143.8380 C   0  0  0  0  0  3  0  0  0  0  0  0
  187.1360  177.9280  142.9620 C   0  0  0  0  0  0  0  0  0  0  0  0
  190.7650  177.5260  143.6370 C   0  0  2  0  0  3  0  0  0  0  0  0
  190.7170  177.9470  145.1100 C   0  0  2  0  0  3  0  0  0  0  0  0
  189.5870  177.5500  147.1000 C   0  0  2  0  0  3  0  0  0  0  0  0
  188.4000  177.2560  143.4080 C   0  0  2  0  0  3  0  0  0  0  0  0
  190.7290  176.6530  147.0450 N   0  0  0  0  0  2  0  0  0  0  0  0
  191.5080  177.0320  145.9310 N   0  0  0  0  0  2  0  0  0  0  0  0
  188.3890  177.0030  144.9280 C   0  0  0  0  0  2  0  0  0  0  0  0
  192.0030  178.0990  142.9770 C   0  0  0  0  0  1  0  0  0  0  0  0
  188.4120  176.8960  147.8120 C   0  0  0  0  0  1  0  0  0  0  0  0
  189.5730  178.0080  142.9450 N   0  0  0  0  0  2  0  0  0  0  0  0
  189.3100  177.9800  145.6800 C   0  0  2  0  0  3  0  0  0  0  0  0
  188.0580  178.5660  140.7050 N   0  0  0  0  0  2  0  0  0  0  0  0
  187.3170  177.9720  135.1960 C   0  0  0  0  0  2  0  0  0  0  0  0
  188.7620  178.1830  137.5450 C   0  0  2  0  0  3  0  0  0  0  0  0
  187.1680  177.2380  138.9300 N   0  0  0  0  0  2  0  0  0  0  0  0
  186.6380  177.5080  136.5090 C   0  0  0  0  0  2  0  0  0  0  0  0
  188.3700  177.5490  139.7110 C   0  0  1  0  0  3  0  0  0  0  0  0
  188.8160  177.5910  135.0770 C   0  0  1  0  0  3  0  0  0  0  0  0
  187.6700  177.1770  137.5790 C   0  0  1  0  0  3  0  0  0  0  0  0
  189.6530  177.9110  136.3390 C   0  0  0  0  0  2  0  0  0  0  0  0
  189.4310  178.0340  138.8150 N   0  0  0  0  0  2  0  0  0  0  0  0
  188.9880  175.8320  134.6550 S   0  0  0  0  0  0  0  0  0  0  0  0
  190.7120  175.7950  135.2160 C   0  0  0  0  0  2  0  0  0  0  0  0
  191.0360  174.4120  135.7450 C   0  0  0  0  0  2  0  0  0  0  0  0
  190.7510  174.8820  138.1150 N   0  0  0  0  0  1  0  0  0  0  0  0
  190.2250  174.1230  136.9930 C   0  0  0  0  0  2  0  0  0  0  0  0
  1  2  1  0  0  0  0
  2  5  2  0  0  0  0
  3  4  1  0  0  0  0
  3  1  2  0  0  0  0
  4  6  2  0  0  0  0
  6  5  1  0  0  0  0
  7 14  1  6  0  0  0
  7  8  1  0  0  0  0
  8 17  1  0  0  0  0
  8 12  1  1  0  0  0
  9 15  1  6  0  0  0
 10  6  1  1  0  0  0
 10 13  1  0  0  0  0
 11  9  1  0  0  0  0
 12 11  1  0  0  0  0
 16 10  1  0  0  0  0
 16  7  1  0  0  0  0
 17 13  1  6  0  0  0
 17  9  1  0  0  0  0
 18  4  1  0  0  0  0
 19 22  1  0  0  0  0
 20 26  1  6  0  0  0
 20 25  1  0  0  0  0
 20 27  1  0  0  0  0
 21 23  1  0  0  0  0
 23 18  1  1  0  0  0
 24 28  1  1  0  0  0
 24 19  1  0  0  0  0
 24 26  1  0  0  0  0
 25 22  1  6  0  0  0
 25 21  1  0  0  0  0
 27 23  1  0  0  0  0
 28 29  1  0  0  0  0
 29 30  1  0  0  0  0
 30 32  1  0  0  0  0
 32 31  1  0  0  0  0
M  END
>  <MODEL>
4

>  <REMARK>
 VINA RESULT:      -7.9      4.144      6.356
  Name = 
  7 active torsions:
  status: ('A' for Active; 'I' for Inactive)
    1  A    between atoms: N_3  and  C_14
    2  A    between atoms: N_3  and  C_15
    3  A    between atoms: C_10  and  C_20
    4  A    between atoms: C_10  and  S_24
    5  A    between atoms: C_16  and  C_26
    6  A    between atoms: C_17  and  C_20
    7  A    between atoms: C_19  and  S_24
                            x       y       z     vdW  Elec       q    Type
                         _______ _______ _______ _____ _____    ______ ____

>  <TORSDO>
F 7

$$$$
=
 OpenBabel10262421383D

 32 36  0  0  1  0  0  0  0  0999 V2000
  189.2100  177.0330  138.0790 C   0  0  0  0  0  3  0  0  0  0  0  0
  190.1240  176.9410  139.1260 C   0  0  0  0  0  3  0  0  0  0  0  0
  187.9410  177.5690  138.3030 C   0  0  0  0  0  3  0  0  0  0  0  0
  187.5640  178.0170  139.5750 C   0  0  0  0  0  0  0  0  0  0  0  0
  189.7700  177.3910  140.3990 C   0  0  0  0  0  3  0  0  0  0  0  0
  188.4980  177.9350  140.6410 C   0  0  0  0  0  0  0  0  0  0  0  0
  186.7420  178.2170  143.9010 C   0  0  2  0  0  3  0  0  0  0  0  0
  187.6770  177.2900  144.6850 C   0  0  2  0  0  3  0  0  0  0  0  0
  189.9210  176.8910  145.1310 C   0  0  2  0  0  3  0  0  0  0  0  0
  188.1950  178.4520  142.0160 C   0  0  2  0  0  3  0  0  0  0  0  0
  189.4140  177.7950  146.1500 N   0  0  0  0  0  2  0  0  0  0  0  0
  188.0160  177.8780  145.9800 N   0  0  0  0  0  2  0  0  0  0  0  0
  189.3410  178.1370  142.9950 C   0  0  0  0  0  2  0  0  0  0  0  0
  185.3060  177.9750  144.3190 C   0  0  0  0  0  1  0  0  0  0  0  0
  191.3780  177.1930  144.8090 C   0  0  0  0  0  1  0  0  0  0  0  0
  186.8840  177.9690  142.4690 N   0  0  0  0  0  2  0  0  0  0  0  0
  188.9770  176.9930  143.9590 C   0  0  2  0  0  3  0  0  0  0  0  0
  186.2370  178.5510  139.7130 N   0  0  0  0  0  2  0  0  0  0  0  0
  180.7350  178.4320  138.7320 C   0  0  0  0  0  2  0  0  0  0  0  0
  183.2110  179.6050  139.1190 C   0  0  2  0  0  3  0  0  0  0  0  0
  184.4710  177.8670  138.2570 N   0  0  0  0  0  2  0  0  0  0  0  0
  181.9940  177.6110  138.3540 C   0  0  0  0  0  2  0  0  0  0  0  0
  185.3580  178.9740  138.6320 C   0  0  1  0  0  3  0  0  0  0  0  0
  180.8110  179.9350  138.3580 C   0  0  1  0  0  3  0  0  0  0  0  0
  183.1930  178.5170  138.1080 C   0  0  1  0  0  3  0  0  0  0  0  0
  182.1330  180.6250  138.7720 C   0  0  0  0  0  2  0  0  0  0  0  0
  184.5550  180.1280  139.0640 N   0  0  0  0  0  2  0  0  0  0  0  0
  180.5350  180.1560  136.5750 S   0  0  0  0  0  0  0  0  0  0  0  0
  180.5580  181.9640  136.7260 C   0  0  0  0  0  2  0  0  0  0  0  0
  180.6880  182.5780  135.3470 C   0  0  0  0  0  2  0  0  0  0  0  0
  181.5550  184.4460  136.6430 N   0  0  0  0  0  1  0  0  0  0  0  0
  180.8060  184.0870  135.4520 C   0  0  0  0  0  2  0  0  0  0  0  0
  1  3  2  0  0  0  0
  1  2  1  0  0  0  0
  2  5  2  0  0  0  0
  3  4  1  0  0  0  0
  4 18  1  0  0  0  0
  4  6  2  0  0  0  0
  5  6  1  0  0  0  0
  7 14  1  1  0  0  0
  7  8  1  0  0  0  0
  8 12  1  1  0  0  0
  9 15  1  6  0  0  0
  9 11  1  0  0  0  0
 10  6  1  6  0  0  0
 10 16  1  0  0  0  0
 10 13  1  0  0  0  0
 12 11  1  0  0  0  0
 16  7  1  0  0  0  0
 17 13  1  6  0  0  0
 17  8  1  0  0  0  0
 17  9  1  0  0  0  0
 20 26  1  6  0  0  0
 21 23  1  0  0  0  0
 22 19  1  0  0  0  0
 23 27  1  0  0  0  0
 23 18  1  1  0  0  0
 24 28  1  6  0  0  0
 24 19  1  0  0  0  0
 24 26  1  0  0  0  0
 25 21  1  0  0  0  0
 25 22  1  1  0  0  0
 25 20  1  0  0  0  0
 27 20  1  0  0  0  0
 28 29  1  0  0  0  0
 30 32  1  0  0  0  0
 30 29  1  0  0  0  0
 32 31  1  0  0  0  0
M  END
>  <MODEL>
5

>  <REMARK>
 VINA RESULT:      -7.5      1.856      4.021
  Name = 
  7 active torsions:
  status: ('A' for Active; 'I' for Inactive)
    1  A    between atoms: N_3  and  C_14
    2  A    between atoms: N_3  and  C_15
    3  A    between atoms: C_10  and  C_20
    4  A    between atoms: C_10  and  S_24
    5  A    between atoms: C_16  and  C_26
    6  A    between atoms: C_17  and  C_20
    7  A    between atoms: C_19  and  S_24
                            x       y       z     vdW  Elec       q    Type
                         _______ _______ _______ _____ _____    ______ ____

>  <TORSDO>
F 7

$$$$
=
 OpenBabel10262421383D

 32 36  0  0  1  0  0  0  0  0999 V2000
  181.8980  178.9610  143.9820 C   0  0  0  0  0  3  0  0  0  0  0  0
  180.7440  178.9030  143.2040 C   0  0  0  0  0  3  0  0  0  0  0  0
  183.1530  178.8480  143.3810 C   0  0  0  0  0  3  0  0  0  0  0  0
  183.2750  178.6710  141.9970 C   0  0  0  0  0  0  0  0  0  0  0  0
  180.8450  178.7360  141.8220 C   0  0  0  0  0  3  0  0  0  0  0  0
  182.1000  178.6240  141.2020 C   0  0  0  0  0  0  0  0  0  0  0  0
  181.0420  177.5770  137.7990 C   0  0  2  0  0  3  0  0  0  0  0  0
  180.2550  178.8480  137.4610 C   0  0  2  0  0  3  0  0  0  0  0  0
  180.4170  181.1650  137.4620 C   0  0  2  0  0  3  0  0  0  0  0  0
  182.1470  178.5020  139.7070 C   0  0  2  0  0  3  0  0  0  0  0  0
  180.8520  180.6840  136.1610 N   0  0  0  0  0  2  0  0  0  0  0  0
  180.5720  179.3020  136.1080 N   0  0  0  0  0  2  0  0  0  0  0  0
  181.9380  179.8710  139.0310 C   0  0  0  0  0  2  0  0  0  0  0  0
  180.3020  176.3590  137.2810 C   0  0  0  0  0  1  0  0  0  0  0  0
  181.1930  182.4070  137.8730 C   0  0  0  0  0  1  0  0  0  0  0  0
  181.2110  177.4680  139.2460 N   0  0  0  0  0  2  0  0  0  0  0  0
  180.5350  179.9980  138.4120 C   0  0  2  0  0  3  0  0  0  0  0  0
  184.6050  178.5620  141.4670 N   0  0  0  0  0  2  0  0  0  0  0  0
  189.3390  175.9160  142.8250 C   0  0  0  0  0  2  0  0  0  0  0  0
  187.7810  177.8360  141.5840 C   0  0  2  0  0  3  0  0  0  0  0  0
  186.1250  177.9240  143.1970 N   0  0  0  0  0  2  0  0  0  0  0  0
  188.0030  176.3150  143.5020 C   0  0  0  0  0  2  0  0  0  0  0  0
  185.8410  178.9140  142.1510 C   0  0  1  0  0  3  0  0  0  0  0  0
  190.1290  177.1000  142.2110 C   0  0  1  0  0  3  0  0  0  0  0  0
  187.5390  177.6910  143.0420 C   0  0  1  0  0  3  0  0  0  0  0  0
  189.2700  178.0540  141.3450 C   0  0  0  0  0  2  0  0  0  0  0  0
  186.9530  178.9500  141.1890 N   0  0  0  0  0  2  0  0  0  0  0  0
  190.9670  178.0450  143.5180 S   0  0  0  0  0  0  0  0  0  0  0  0
  191.6480  176.5380  144.2650 C   0  0  0  0  0  2  0  0  0  0  0  0
  191.5070  176.6210  145.7720 C   0  0  0  0  0  2  0  0  0  0  0  0
  189.6120  176.7840  147.2890 N   0  0  0  0  0  1  0  0  0  0  0  0
  190.2590  177.3990  146.1420 C   0  0  0  0  0  2  0  0  0  0  0  0
  2  1  2  0  0  0  0
  3  1  1  0  0  0  0
  4  3  2  0  0  0  0
  5  2  1  0  0  0  0
  6  5  2  0  0  0  0
  6  4  1  0  0  0  0
  7 14  1  1  0  0  0
  7 16  1  0  0  0  0
  8 12  1  6  0  0  0
  8  7  1  0  0  0  0
  8 17  1  0  0  0  0
  9 15  1  1  0  0  0
  9 17  1  0  0  0  0
 10  6  1  1  0  0  0
 11  9  1  0  0  0  0
 12 11  1  0  0  0  0
 13 10  1  0  0  0  0
 16 10  1  0  0  0  0
 17 13  1  6  0  0  0
 18  4  1  0  0  0  0
 19 22  1  0  0  0  0
 20 26  1  1  0  0  0
 20 25  1  0  0  0  0
 23 18  1  6  0  0  0
 23 21  1  0  0  0  0
 24 19  1  0  0  0  0
 24 28  1  1  0  0  0
 25 21  1  0  0  0  0
 25 22  1  6  0  0  0
 26 24  1  0  0  0  0
 27 20  1  0  0  0  0
 27 23  1  0  0  0  0
 28 29  1  0  0  0  0
 29 30  1  0  0  0  0
 30 32  1  0  0  0  0
 32 31  1  0  0  0  0
M  END
>  <MODEL>
6

>  <REMARK>
 VINA RESULT:      -7.5      2.990      9.523
  Name = 
  7 active torsions:
  status: ('A' for Active; 'I' for Inactive)
    1  A    between atoms: N_3  and  C_14
    2  A    between atoms: N_3  and  C_15
    3  A    between atoms: C_10  and  C_20
    4  A    between atoms: C_10  and  S_24
    5  A    between atoms: C_16  and  C_26
    6  A    between atoms: C_17  and  C_20
    7  A    between atoms: C_19  and  S_24
                            x       y       z     vdW  Elec       q    Type
                         _______ _______ _______ _____ _____    ______ ____

>  <TORSDO>
F 7

$$$$
=
 OpenBabel10262421383D

 32 36  0  0  1  0  0  0  0  0999 V2000
  189.4330  178.0860  140.2120 C   0  0  0  0  0  3  0  0  0  0  0  0
  189.9760  177.4780  141.3430 C   0  0  0  0  0  3  0  0  0  0  0  0
  188.0790  178.4210  140.1810 C   0  0  0  0  0  3  0  0  0  0  0  0
  187.2450  178.1510  141.2730 C   0  0  0  0  0  0  0  0  0  0  0  0
  189.1630  177.2090  142.4440 C   0  0  0  0  0  3  0  0  0  0  0  0
  187.7990  177.5410  142.4300 C   0  0  0  0  0  0  0  0  0  0  0  0
  186.8170  177.7330  146.0060 C   0  0  2  0  0  3  0  0  0  0  0  0
  185.8220  178.8880  145.8530 C   0  0  2  0  0  3  0  0  0  0  0  0
  184.0050  179.5950  144.5900 C   0  0  2  0  0  3  0  0  0  0  0  0
  186.9890  177.2790  143.6650 C   0  0  2  0  0  3  0  0  0  0  0  0
  183.4960  178.8640  145.7390 N   0  0  0  0  0  2  0  0  0  0  0  0
  184.5910  178.6070  146.5910 N   0  0  0  0  0  2  0  0  0  0  0  0
  185.5830  177.8980  143.5500 C   0  0  0  0  0  2  0  0  0  0  0  0
  187.6140  177.9050  147.2840 C   0  0  0  0  0  1  0  0  0  0  0  0
  183.1170  179.3860  143.3720 C   0  0  0  0  0  1  0  0  0  0  0  0
  187.7240  177.7050  144.8630 N   0  0  0  0  0  2  0  0  0  0  0  0
  185.4410  179.1660  144.4100 C   0  0  2  0  0  3  0  0  0  0  0  0
  185.8640  178.5280  141.1510 N   0  0  0  0  0  2  0  0  0  0  0  0
  180.5020  179.4550  139.8720 C   0  0  0  0  0  2  0  0  0  0  0  0
  183.2410  179.8110  139.7030 C   0  0  2  0  0  3  0  0  0  0  0  0
  183.8290  177.6450  140.2650 N   0  0  0  0  0  2  0  0  0  0  0  0
  181.4130  178.2550  140.2320 C   0  0  0  0  0  2  0  0  0  0  0  0
  185.0390  178.4150  139.9570 C   0  0  1  0  0  3  0  0  0  0  0  0
  180.9790  180.2820  138.6490 C   0  0  1  0  0  3  0  0  0  0  0  0
  182.7930  178.3980  139.6030 C   0  0  1  0  0  3  0  0  0  0  0  0
  182.4830  180.6470  138.6790 C   0  0  0  0  0  2  0  0  0  0  0  0
  184.6660  179.7550  139.4790 N   0  0  0  0  0  2  0  0  0  0  0  0
  180.5910  179.4040  137.1050 S   0  0  0  0  0  0  0  0  0  0  0  0
  179.5590  180.7710  136.5070 C   0  0  0  0  0  2  0  0  0  0  0  0
  180.4260  181.7600  135.7560 C   0  0  0  0  0  2  0  0  0  0  0  0
  181.1680  183.6640  137.0760 N   0  0  0  0  0  1  0  0  0  0  0  0
  180.1160  183.1770  136.2010 C   0  0  0  0  0  2  0  0  0  0  0  0
  1  2  1  0  0  0  0
  2  5  2  0  0  0  0
  3  1  2  0  0  0  0
  3  4  1  0  0  0  0
  4  6  2  0  0  0  0
  6  5  1  0  0  0  0
  7 14  1  1  0  0  0
  8  7  1  0  0  0  0
  8 12  1  1  0  0  0
  9 15  1  6  0  0  0
  9 11  1  0  0  0  0
 10  6  1  6  0  0  0
 10 16  1  0  0  0  0
 11 12  1  0  0  0  0
 13 10  1  0  0  0  0
 16  7  1  0  0  0  0
 17 13  1  6  0  0  0
 17  9  1  0  0  0  0
 17  8  1  0  0  0  0
 18  4  1  0  0  0  0
 19 22  1  0  0  0  0
 20 26  1  6  0  0  0
 23 21  1  0  0  0  0
 23 18  1  1  0  0  0
 24 28  1  6  0  0  0
 24 26  1  0  0  0  0
 24 19  1  0  0  0  0
 25 20  1  0  0  0  0
 25 22  1  1  0  0  0
 25 21  1  0  0  0  0
 27 20  1  0  0  0  0
 27 23  1  0  0  0  0
 29 28  1  0  0  0  0
 30 32  1  0  0  0  0
 30 29  1  0  0  0  0
 32 31  1  0  0  0  0
M  END
>  <MODEL>
7

>  <REMARK>
 VINA RESULT:      -7.3      1.939      4.642
  Name = 
  7 active torsions:
  status: ('A' for Active; 'I' for Inactive)
    1  A    between atoms: N_3  and  C_14
    2  A    between atoms: N_3  and  C_15
    3  A    between atoms: C_10  and  C_20
    4  A    between atoms: C_10  and  S_24
    5  A    between atoms: C_16  and  C_26
    6  A    between atoms: C_17  and  C_20
    7  A    between atoms: C_19  and  S_24
                            x       y       z     vdW  Elec       q    Type
                         _______ _______ _______ _____ _____    ______ ____

>  <TORSDO>
F 7

$$$$
=
 OpenBabel10262421383D

 32 36  0  0  1  0  0  0  0  0999 V2000
  189.2840  177.0920  138.4930 C   0  0  0  0  0  3  0  0  0  0  0  0
  190.1500  176.8870  139.5650 C   0  0  0  0  0  3  0  0  0  0  0  0
  188.0560  177.7230  138.6980 C   0  0  0  0  0  3  0  0  0  0  0  0
  187.6710  178.1520  139.9730 C   0  0  0  0  0  0  0  0  0  0  0  0
  189.7880  177.3160  140.8430 C   0  0  0  0  0  3  0  0  0  0  0  0
  188.5570  177.9540  141.0650 C   0  0  0  0  0  0  0  0  0  0  0  0
  186.8280  178.1260  144.3470 C   0  0  2  0  0  3  0  0  0  0  0  0
  187.8100  177.2300  145.1100 C   0  0  2  0  0  3  0  0  0  0  0  0
  190.0740  176.9220  145.5270 C   0  0  2  0  0  3  0  0  0  0  0  0
  188.2480  178.4430  142.4490 C   0  0  2  0  0  3  0  0  0  0  0  0
  189.5410  177.7920  146.5620 N   0  0  0  0  0  2  0  0  0  0  0  0
  188.1390  177.8180  146.4080 N   0  0  0  0  0  2  0  0  0  0  0  0
  189.4180  178.1650  143.4120 C   0  0  0  0  0  2  0  0  0  0  0  0
  185.4080  177.8200  144.7790 C   0  0  0  0  0  1  0  0  0  0  0  0
  191.5130  177.2880  145.1920 C   0  0  0  0  0  1  0  0  0  0  0  0
  186.9640  177.9000  142.9110 N   0  0  0  0  0  2  0  0  0  0  0  0
  189.1130  176.9970  144.3660 C   0  0  2  0  0  3  0  0  0  0  0  0
  186.3880  178.7890  140.0900 N   0  0  0  0  0  2  0  0  0  0  0  0
  180.8790  179.5510  140.6550 C   0  0  0  0  0  2  0  0  0  0  0  0
  183.3680  179.8580  139.4870 C   0  0  2  0  0  3  0  0  0  0  0  0
  184.2150  177.7970  140.1100 N   0  0  0  0  0  2  0  0  0  0  0  0
  181.9130  178.4110  140.8400 C   0  0  0  0  0  2  0  0  0  0  0  0
  185.2050  178.5040  139.2900 C   0  0  1  0  0  3  0  0  0  0  0  0
  180.8620  180.1810  139.2380 C   0  0  1  0  0  3  0  0  0  0  0  0
  182.9790  178.4500  139.7540 C   0  0  1  0  0  3  0  0  0  0  0  0
  182.2640  180.5370  138.6860 C   0  0  0  0  0  2  0  0  0  0  0  0
  184.6270  179.7600  138.7880 N   0  0  0  0  0  2  0  0  0  0  0  0
  180.0020  179.0850  138.0710 S   0  0  0  0  0  0  0  0  0  0  0  0
  180.9850  179.6900  136.6710 C   0  0  0  0  0  2  0  0  0  0  0  0
  181.2410  178.5470  135.7090 C   0  0  0  0  0  2  0  0  0  0  0  0
  181.9330  176.3250  136.4180 N   0  0  0  0  0  1  0  0  0  0  0  0
  182.3880  177.6890  136.2060 C   0  0  0  0  0  2  0  0  0  0  0  0
  1  3  2  0  0  0  0
  1  2  1  0  0  0  0
  2  5  2  0  0  0  0
  3  4  1  0  0  0  0
  4 18  1  0  0  0  0
  4  6  2  0  0  0  0
  5  6  1  0  0  0  0
  7 14  1  1  0  0  0
  7  8  1  0  0  0  0
  8 12  1  1  0  0  0
  9 15  1  6  0  0  0
  9 11  1  0  0  0  0
 10  6  1  6  0  0  0
 10 16  1  0  0  0  0
 10 13  1  0  0  0  0
 12 11  1  0  0  0  0
 16  7  1  0  0  0  0
 17 13  1  6  0  0  0
 17  8  1  0  0  0  0
 17  9  1  0  0  0  0
 19 22  1  0  0  0  0
 20 26  1  6  0  0  0
 20 25  1  0  0  0  0
 23 18  1  1  0  0  0
 23 21  1  0  0  0  0
 24 28  1  6  0  0  0
 24 19  1  0  0  0  0
 25 21  1  0  0  0  0
 25 22  1  1  0  0  0
 26 24  1  0  0  0  0
 27 23  1  0  0  0  0
 27 20  1  0  0  0  0
 29 28  1  0  0  0  0
 30 32  1  0  0  0  0
 30 29  1  0  0  0  0
 32 31  1  0  0  0  0
M  END
>  <MODEL>
8

>  <REMARK>
 VINA RESULT:      -7.1      2.191      4.314
  Name = 
  7 active torsions:
  status: ('A' for Active; 'I' for Inactive)
    1  A    between atoms: N_3  and  C_14
    2  A    between atoms: N_3  and  C_15
    3  A    between atoms: C_10  and  C_20
    4  A    between atoms: C_10  and  S_24
    5  A    between atoms: C_16  and  C_26
    6  A    between atoms: C_17  and  C_20
    7  A    between atoms: C_19  and  S_24
                            x       y       z     vdW  Elec       q    Type
                         _______ _______ _______ _____ _____    ______ ____

>  <TORSDO>
F 7

$$$$
=
 OpenBabel10262421383D

 32 36  0  0  1  0  0  0  0  0999 V2000
  191.6730  178.1700  143.9470 C   0  0  0  0  0  3  0  0  0  0  0  0
  191.0710  177.9200  145.1780 C   0  0  0  0  0  3  0  0  0  0  0  0
  190.9150  178.1260  142.7760 C   0  0  0  0  0  3  0  0  0  0  0  0
  189.5480  177.8270  142.8150 C   0  0  0  0  0  0  0  0  0  0  0  0
  189.7080  177.6300  145.2390 C   0  0  0  0  0  3  0  0  0  0  0  0
  188.9300  177.5840  144.0710 C   0  0  0  0  0  0  0  0  0  0  0  0
  185.4740  177.9530  145.3800 C   0  0  2  0  0  3  0  0  0  0  0  0
  184.9880  178.9420  144.3140 C   0  0  2  0  0  3  0  0  0  0  0  0
  184.9060  179.2770  142.0180 C   0  0  2  0  0  3  0  0  0  0  0  0
  187.4590  177.3220  144.2040 C   0  0  2  0  0  3  0  0  0  0  0  0
  183.6900  178.5880  142.4150 N   0  0  0  0  0  2  0  0  0  0  0  0
  183.6650  178.5600  143.8250 N   0  0  0  0  0  2  0  0  0  0  0  0
  186.7030  177.7280  142.9250 C   0  0  0  0  0  2  0  0  0  0  0  0
  184.9260  178.3460  146.7370 C   0  0  0  0  0  1  0  0  0  0  0  0
  185.3530  178.8410  140.6300 C   0  0  0  0  0  1  0  0  0  0  0  0
  186.9340  177.9500  145.4240 N   0  0  0  0  0  2  0  0  0  0  0  0
  185.9140  179.0360  143.1150 C   0  0  2  0  0  3  0  0  0  0  0  0
  188.8480  177.8010  141.5610 N   0  0  0  0  0  2  0  0  0  0  0  0
  187.6690  175.8370  136.4620 C   0  0  0  0  0  2  0  0  0  0  0  0
  188.0920  177.7750  138.3900 C   0  0  2  0  0  3  0  0  0  0  0  0
  189.6020  176.5670  139.6600 N   0  0  0  0  0  2  0  0  0  0  0  0
  188.6070  175.4900  137.6450 C   0  0  0  0  0  2  0  0  0  0  0  0
  189.4420  177.9070  140.2360 C   0  0  1  0  0  3  0  0  0  0  0  0
  187.8290  177.2790  135.9140 C   0  0  1  0  0  3  0  0  0  0  0  0
  189.1620  176.7480  138.2990 C   0  0  1  0  0  3  0  0  0  0  0  0
  187.8570  178.3730  137.0080 C   0  0  0  0  0  2  0  0  0  0  0  0
  188.5810  178.7210  139.3650 N   0  0  0  0  0  2  0  0  0  0  0  0
  189.3230  177.4000  134.8860 S   0  0  0  0  0  0  0  0  0  0  0  0
  189.3610  175.6080  134.6090 C   0  0  0  0  0  2  0  0  0  0  0  0
  190.8010  175.1350  134.5940 C   0  0  0  0  0  2  0  0  0  0  0  0
  193.0330  175.6330  135.4240 N   0  0  0  0  0  1  0  0  0  0  0  0
  191.6180  175.9040  135.6140 C   0  0  0  0  0  2  0  0  0  0  0  0
  1  2  1  0  0  0  0
  2  5  2  0  0  0  0
  3  4  1  0  0  0  0
  3  1  2  0  0  0  0
  4  6  2  0  0  0  0
  6  5  1  0  0  0  0
  7 16  1  0  0  0  0
  7 14  1  1  0  0  0
  8 12  1  6  0  0  0
  8  7  1  0  0  0  0
  9 15  1  6  0  0  0
  9 11  1  0  0  0  0
  9 17  1  0  0  0  0
 10  6  1  6  0  0  0
 10 16  1  0  0  0  0
 11 12  1  0  0  0  0
 13 10  1  0  0  0  0
 17 13  1  6  0  0  0
 17  8  1  0  0  0  0
 18  4  1  0  0  0  0
 19 22  1  0  0  0  0
 20 26  1  6  0  0  0
 20 27  1  0  0  0  0
 21 23  1  0  0  0  0
 23 18  1  1  0  0  0
 24 28  1  1  0  0  0
 24 19  1  0  0  0  0
 24 26  1  0  0  0  0
 25 22  1  1  0  0  0
 25 20  1  0  0  0  0
 25 21  1  0  0  0  0
 27 23  1  0  0  0  0
 29 28  1  0  0  0  0
 30 29  1  0  0  0  0
 30 32  1  0  0  0  0
 31 32  1  0  0  0  0
M  END
>  <MODEL>
9

>  <REMARK>
 VINA RESULT:      -7.1      3.697      7.209
  Name = 
  7 active torsions:
  status: ('A' for Active; 'I' for Inactive)
    1  A    between atoms: N_3  and  C_14
    2  A    between atoms: N_3  and  C_15
    3  A    between atoms: C_10  and  C_20
    4  A    between atoms: C_10  and  S_24
    5  A    between atoms: C_16  and  C_26
    6  A    between atoms: C_17  and  C_20
    7  A    between atoms: C_19  and  S_24
                            x       y       z     vdW  Elec       q    Type
                         _______ _______ _______ _____ _____    ______ ____

>  <TORSDO>
F 7

$$$$
