=
 OpenBabel10262419143D

 34 38  0  0  1  0  0  0  0  0999 V2000
  189.6840  176.9820  146.4820 C   0  0  0  0  0  0  0  0  0  0  0  0
  191.3770  176.1480  144.8150 C   0  0  2  0  0  3  0  0  0  0  0  0
  189.1480  177.2960  144.1080 C   0  0  0  0  0  0  0  0  0  0  0  0
  188.5010  177.7430  141.7880 C   0  0  0  0  0  0  0  0  0  0  0  0
  190.6150  176.7580  147.4960 O   0  0  0  0  0  0  0  0  0  0  0  0
  192.2380  175.7900  146.0350 C   0  0  0  0  0  2  0  0  0  0  0  0
  190.8090  177.2500  142.2530 C   0  0  0  0  0  3  0  0  0  0  0  0
  190.0560  176.8500  145.1270 C   0  0  0  0  0  0  0  0  0  0  0  0
  191.1000  177.3670  140.8960 C   0  0  0  0  0  3  0  0  0  0  0  0
  188.8070  177.8440  140.4660 N   0  0  0  0  0  0  0  0  0  0  0  0
  192.0030  176.7290  147.2020 C   0  0  0  0  0  2  0  0  0  0  0  0
  187.8180  177.6510  144.4890 C   0  0  0  0  0  0  0  0  0  0  0  0
  188.3900  177.3440  146.8300 C   0  0  0  0  0  3  0  0  0  0  0  0
  191.1070  174.8450  144.0800 C   0  0  0  0  0  1  0  0  0  0  0  0
  187.2370  177.9990  142.1930 N   0  0  0  0  0  0  0  0  0  0  0  0
  186.8600  177.9880  143.4980 C   0  0  0  0  0  0  0  0  0  0  0  0
  190.0710  177.6620  140.0050 C   0  0  0  0  0  0  0  0  0  0  0  0
  189.4980  177.4090  142.7300 C   0  0  0  0  0  0  0  0  0  0  0  0
  187.4640  177.6460  145.8440 C   0  0  0  0  0  3  0  0  0  0  0  0
  183.1810  178.7240  143.0120 C   0  0  0  0  0  0  0  0  0  0  0  0
  182.8030  179.0630  144.3120 C   0  0  0  0  0  3  0  0  0  0  0  0
  185.4440  178.3340  143.7980 C   0  0  0  0  0  0  0  0  0  0  0  0
  183.7220  179.0450  145.3130 N   0  0  0  0  0  0  0  0  0  0  0  0
  184.5040  178.3660  142.7580 C   0  0  0  0  0  3  0  0  0  0  0  0
  185.0170  178.6980  145.0840 C   0  0  0  0  0  3  0  0  0  0  0  0
  182.1850  178.7500  141.9110 C   0  0  0  0  0  1  0  0  0  0  0  0
  190.3530  177.7620  138.5480 C   0  0  0  0  0  2  0  0  0  0  0  0
  189.1210  177.3660  137.7540 C   0  0  0  0  0  2  0  0  0  0  0  0
  188.9890  179.7360  137.4650 O   0  0  0  0  0  1  0  0  0  0  0  0
  188.6630  178.5170  136.8730 C   0  0  2  0  0  3  0  0  0  0  0  0
  187.1660  178.4530  136.5290 C   0  0  0  0  0  2  0  0  0  0  0  0
  185.9310  178.6930  138.5940 O   0  0  0  0  0  1  0  0  0  0  0  0
  186.2700  177.7940  137.5830 C   0  0  0  0  0  3  0  0  0  0  0  0
  185.1150  177.2630  137.0060 O   0  0  0  0  0  1  0  0  0  0  0  0
  1 13  1  0  0  0  0
  1  5  1  0  0  0  0
  2 14  1  1  0  0  0
  2  8  1  0  0  0  0
  2  6  1  0  0  0  0
  3 12  2  0  0  0  0
  3  8  1  0  0  0  0
  4 15  1  0  0  0  0
  4 18  1  0  0  0  0
  6 11  1  0  0  0  0
  7 18  2  0  0  0  0
  8  1  2  0  0  0  0
  9  7  1  0  0  0  0
 10  4  2  0  0  0  0
 11  5  1  0  0  0  0
 12 19  1  0  0  0  0
 15 16  2  0  0  0  0
 16 22  1  0  0  0  0
 16 12  1  0  0  0  0
 17 10  1  0  0  0  0
 17  9  2  0  0  0  0
 18  3  1  0  0  0  0
 19 13  2  0  0  0  0
 20 21  1  0  0  0  0
 21 23  2  0  0  0  0
 22 25  2  0  0  0  0
 24 20  2  0  0  0  0
 24 22  1  0  0  0  0
 25 23  1  0  0  0  0
 26 20  1  0  0  0  0
 27 17  1  0  0  0  0
 28 27  1  0  0  0  0
 30 29  1  1  0  0  0
 30 28  1  0  0  0  0
 31 30  1  0  0  0  0
 31 33  1  0  0  0  0
 33 32  1  0  0  0  0
 34 33  1  0  0  0  0
M  END
>  <MODEL>
1

>  <REMARK>
 VINA RESULT:     -10.0      0.000      0.000
  Name = 
  6 active torsions:
  status: ('A' for Active; 'I' for Inactive)
    1  A    between atoms: C_3  and  C_13
    2  A    between atoms: C_3  and  C_29
    3  A    between atoms: C_12  and  C_28
    4  A    between atoms: C_13  and  C_33
    5  A    between atoms: C_20  and  C_22
    6  A    between atoms: C_22  and  C_33
                            x       y       z     vdW  Elec       q    Type
                         _______ _______ _______ _____ _____    ______ ____

>  <TORSDO>
F 6

$$$$
=
 OpenBabel10262419143D

 34 38  0  0  1  0  0  0  0  0999 V2000
  189.1090  177.1520  145.7460 C   0  0  0  0  0  0  0  0  0  0  0  0
  190.7200  176.5140  143.9180 C   0  0  2  0  0  3  0  0  0  0  0  0
  188.4130  177.6260  143.4400 C   0  0  0  0  0  0  0  0  0  0  0  0
  187.6040  178.2230  141.2070 C   0  0  0  0  0  0  0  0  0  0  0  0
  190.1100  176.8880  146.6810 O   0  0  0  0  0  0  0  0  0  0  0  0
  191.6680  176.0970  145.0520 C   0  0  0  0  0  2  0  0  0  0  0  0
  189.9520  177.7850  141.4900 C   0  0  0  0  0  3  0  0  0  0  0  0
  189.3990  177.1390  144.3640 C   0  0  0  0  0  0  0  0  0  0  0  0
  190.1520  178.0170  140.1310 C   0  0  0  0  0  3  0  0  0  0  0  0
  187.8220  178.4370  139.8810 N   0  0  0  0  0  0  0  0  0  0  0  0
  191.4760  176.9350  146.3010 C   0  0  0  0  0  2  0  0  0  0  0  0
  187.0990  177.9000  143.9290 C   0  0  0  0  0  0  0  0  0  0  0  0
  187.8290  177.4370  146.1990 C   0  0  0  0  0  3  0  0  0  0  0  0
  190.4480  175.2610  143.1000 C   0  0  0  0  0  1  0  0  0  0  0  0
  186.3610  178.3990  141.7070 N   0  0  0  0  0  0  0  0  0  0  0  0
  186.0690  178.2730  143.0270 C   0  0  0  0  0  0  0  0  0  0  0  0
  189.0590  178.3390  139.3300 C   0  0  0  0  0  0  0  0  0  0  0  0
  188.6700  177.8570  142.0570 C   0  0  0  0  0  0  0  0  0  0  0  0
  186.8320  177.7780  145.2980 C   0  0  0  0  0  3  0  0  0  0  0  0
  182.3270  178.8050  142.8360 C   0  0  0  0  0  0  0  0  0  0  0  0
  182.0360  179.1230  144.1630 C   0  0  0  0  0  3  0  0  0  0  0  0
  184.6640  178.5410  143.4390 C   0  0  0  0  0  0  0  0  0  0  0  0
  183.0300  179.1570  145.0880 N   0  0  0  0  0  0  0  0  0  0  0  0
  183.6450  178.5200  142.4770 C   0  0  0  0  0  3  0  0  0  0  0  0
  184.3200  178.8820  144.7570 C   0  0  0  0  0  3  0  0  0  0  0  0
  181.2480  178.7740  141.8170 C   0  0  0  0  0  1  0  0  0  0  0  0
  189.2450  178.5600  137.8710 C   0  0  0  0  0  2  0  0  0  0  0  0
  188.0800  177.9590  137.1050 C   0  0  0  0  0  2  0  0  0  0  0  0
  187.7240  176.5540  135.2020 O   0  0  0  0  0  1  0  0  0  0  0  0
  188.5320  176.7350  136.3240 C   0  0  2  0  0  3  0  0  0  0  0  0
  188.5800  175.4590  137.1800 C   0  0  0  0  0  2  0  0  0  0  0  0
  190.6860  175.2270  138.3470 O   0  0  0  0  0  1  0  0  0  0  0  0
  189.9440  174.7650  137.2600 C   0  0  0  0  0  3  0  0  0  0  0  0
  189.8030  173.3780  137.3310 O   0  0  0  0  0  1  0  0  0  0  0  0
  1 13  1  0  0  0  0
  1  5  1  0  0  0  0
  2 14  1  1  0  0  0
  2  8  1  0  0  0  0
  2  6  1  0  0  0  0
  3 12  2  0  0  0  0
  3  8  1  0  0  0  0
  4 15  1  0  0  0  0
  4 18  1  0  0  0  0
  6 11  1  0  0  0  0
  7 18  2  0  0  0  0
  8  1  2  0  0  0  0
  9  7  1  0  0  0  0
 10  4  2  0  0  0  0
 11  5  1  0  0  0  0
 12 19  1  0  0  0  0
 15 16  2  0  0  0  0
 16 22  1  0  0  0  0
 16 12  1  0  0  0  0
 17 10  1  0  0  0  0
 17  9  2  0  0  0  0
 18  3  1  0  0  0  0
 19 13  2  0  0  0  0
 20 21  1  0  0  0  0
 21 23  2  0  0  0  0
 22 25  2  0  0  0  0
 24 20  2  0  0  0  0
 24 22  1  0  0  0  0
 25 23  1  0  0  0  0
 26 20  1  0  0  0  0
 27 17  1  0  0  0  0
 28 27  1  0  0  0  0
 30 29  1  6  0  0  0
 30 28  1  0  0  0  0
 30 31  1  0  0  0  0
 31 33  1  0  0  0  0
 33 34  1  0  0  0  0
 33 32  1  0  0  0  0
M  END
>  <MODEL>
2

>  <REMARK>
 VINA RESULT:      -9.9      1.803      2.165
  Name = 
  6 active torsions:
  status: ('A' for Active; 'I' for Inactive)
    1  A    between atoms: C_3  and  C_13
    2  A    between atoms: C_3  and  C_29
    3  A    between atoms: C_12  and  C_28
    4  A    between atoms: C_13  and  C_33
    5  A    between atoms: C_20  and  C_22
    6  A    between atoms: C_22  and  C_33
                            x       y       z     vdW  Elec       q    Type
                         _______ _______ _______ _____ _____    ______ ____

>  <TORSDO>
F 6

$$$$
=
 OpenBabel10262419143D

 34 38  0  0  1  0  0  0  0  0999 V2000
  189.2140  177.2020  145.9070 C   0  0  0  0  0  0  0  0  0  0  0  0
  190.9600  176.3900  144.2840 C   0  0  2  0  0  3  0  0  0  0  0  0
  188.7130  177.4600  143.5180 C   0  0  0  0  0  0  0  0  0  0  0  0
  188.0940  177.8470  141.1800 C   0  0  0  0  0  0  0  0  0  0  0  0
  190.1330  177.0240  146.9410 O   0  0  0  0  0  0  0  0  0  0  0  0
  191.8090  176.0780  145.5260 C   0  0  0  0  0  2  0  0  0  0  0  0
  190.4070  177.4300  141.6940 C   0  0  0  0  0  3  0  0  0  0  0  0
  189.6150  177.0580  144.5600 C   0  0  0  0  0  0  0  0  0  0  0  0
  190.7190  177.5320  140.3400 C   0  0  0  0  0  3  0  0  0  0  0  0
  188.4210  177.9350  139.8620 N   0  0  0  0  0  0  0  0  0  0  0  0
  191.5260  177.0300  146.6710 C   0  0  0  0  0  2  0  0  0  0  0  0
  187.3660  177.7830  143.8700 C   0  0  0  0  0  0  0  0  0  0  0  0
  187.9050  177.5330  146.2250 C   0  0  0  0  0  3  0  0  0  0  0  0
  190.7420  175.0670  143.5680 C   0  0  0  0  0  1  0  0  0  0  0  0
  186.8160  178.0740  141.5580 N   0  0  0  0  0  0  0  0  0  0  0  0
  186.4170  178.0740  142.8560 C   0  0  0  0  0  0  0  0  0  0  0  0
  189.6980  177.7820  139.4260 C   0  0  0  0  0  0  0  0  0  0  0  0
  189.0830  177.5590  142.1450 C   0  0  0  0  0  0  0  0  0  0  0  0
  186.9880  177.7910  145.2180 C   0  0  0  0  0  3  0  0  0  0  0  0
  182.7240  178.6820  142.2960 C   0  0  0  0  0  0  0  0  0  0  0  0
  182.3160  179.0440  143.5800 C   0  0  0  0  0  3  0  0  0  0  0  0
  184.9860  178.3840  143.1250 C   0  0  0  0  0  0  0  0  0  0  0  0
  183.2190  179.0820  144.5940 N   0  0  0  0  0  0  0  0  0  0  0  0
  184.0630  178.3580  142.0710 C   0  0  0  0  0  3  0  0  0  0  0  0
  184.5280  178.7690  144.3950 C   0  0  0  0  0  3  0  0  0  0  0  0
  181.7460  178.6460  141.1790 C   0  0  0  0  0  1  0  0  0  0  0  0
  190.0030  177.8640  137.9730 C   0  0  0  0  0  2  0  0  0  0  0  0
  189.6370  176.5560  137.2930 C   0  0  0  0  0  2  0  0  0  0  0  0
  190.9300  174.7520  138.1840 O   0  0  0  0  0  1  0  0  0  0  0  0
  190.8640  175.6740  137.1390 C   0  0  2  0  0  3  0  0  0  0  0  0
  192.1710  176.4750  137.0270 C   0  0  0  0  0  2  0  0  0  0  0  0
  194.4840  175.7710  136.9450 O   0  0  0  0  0  1  0  0  0  0  0  0
  193.3730  175.8940  137.7790 C   0  0  0  0  0  3  0  0  0  0  0  0
  193.6960  176.6680  138.8940 O   0  0  0  0  0  1  0  0  0  0  0  0
  1 13  1  0  0  0  0
  1  5  1  0  0  0  0
  2 14  1  1  0  0  0
  2  8  1  0  0  0  0
  2  6  1  0  0  0  0
  3 12  2  0  0  0  0
  3  8  1  0  0  0  0
  4 15  1  0  0  0  0
  4 18  1  0  0  0  0
  6 11  1  0  0  0  0
  7 18  2  0  0  0  0
  8  1  2  0  0  0  0
  9  7  1  0  0  0  0
 10  4  2  0  0  0  0
 11  5  1  0  0  0  0
 12 19  1  0  0  0  0
 15 16  2  0  0  0  0
 16 22  1  0  0  0  0
 16 12  1  0  0  0  0
 17 10  1  0  0  0  0
 17  9  2  0  0  0  0
 18  3  1  0  0  0  0
 19 13  2  0  0  0  0
 20 21  1  0  0  0  0
 21 23  2  0  0  0  0
 22 25  2  0  0  0  0
 24 20  2  0  0  0  0
 24 22  1  0  0  0  0
 25 23  1  0  0  0  0
 26 20  1  0  0  0  0
 27 17  1  0  0  0  0
 28 27  1  0  0  0  0
 30 28  1  0  0  0  0
 30 29  1  1  0  0  0
 31 30  1  0  0  0  0
 31 33  1  0  0  0  0
 32 33  1  0  0  0  0
 33 34  1  0  0  0  0
M  END
>  <MODEL>
3

>  <REMARK>
 VINA RESULT:      -9.9      2.128      2.993
  Name = 
  6 active torsions:
  status: ('A' for Active; 'I' for Inactive)
    1  A    between atoms: C_3  and  C_13
    2  A    between atoms: C_3  and  C_29
    3  A    between atoms: C_12  and  C_28
    4  A    between atoms: C_13  and  C_33
    5  A    between atoms: C_20  and  C_22
    6  A    between atoms: C_22  and  C_33
                            x       y       z     vdW  Elec       q    Type
                         _______ _______ _______ _____ _____    ______ ____

>  <TORSDO>
F 6

$$$$
=
 OpenBabel10262419143D

 34 38  0  0  1  0  0  0  0  0999 V2000
  184.5300  178.7280  145.0920 C   0  0  0  0  0  0  0  0  0  0  0  0
  186.9050  177.9660  144.7470 C   0  0  2  0  0  3  0  0  0  0  0  0
  185.3100  178.5480  142.7710 C   0  0  0  0  0  0  0  0  0  0  0  0
  185.9570  178.4850  140.4100 C   0  0  0  0  0  0  0  0  0  0  0  0
  184.7970  178.8490  146.4550 O   0  0  0  0  0  0  0  0  0  0  0  0
  187.0130  177.9770  146.2790 C   0  0  0  0  0  2  0  0  0  0  0  0
  187.6980  178.5130  142.0690 C   0  0  0  0  0  3  0  0  0  0  0  0
  185.5720  178.4510  144.1800 C   0  0  0  0  0  0  0  0  0  0  0  0
  188.6540  178.4610  141.0570 C   0  0  0  0  0  3  0  0  0  0  0  0
  186.9080  178.4260  139.4380 N   0  0  0  0  0  0  0  0  0  0  0  0
  186.1280  179.0320  146.9120 C   0  0  0  0  0  2  0  0  0  0  0  0
  183.9580  178.7060  142.3390 C   0  0  0  0  0  0  0  0  0  0  0  0
  183.2250  178.8940  144.6470 C   0  0  0  0  0  3  0  0  0  0  0  0
  187.1630  176.5340  144.3070 C   0  0  0  0  0  1  0  0  0  0  0  0
  184.6560  178.5630  140.0540 N   0  0  0  0  0  0  0  0  0  0  0  0
  183.6480  178.6930  140.9550 C   0  0  0  0  0  0  0  0  0  0  0  0
  188.2340  178.4110  139.7300 C   0  0  0  0  0  0  0  0  0  0  0  0
  186.3260  178.4990  141.7730 C   0  0  0  0  0  0  0  0  0  0  0  0
  182.9420  178.8550  143.2920 C   0  0  0  0  0  3  0  0  0  0  0  0
  180.0720  177.8380  140.0600 C   0  0  0  0  0  0  0  0  0  0  0  0
  179.6990  178.9720  139.3380 C   0  0  0  0  0  3  0  0  0  0  0  0
  182.2660  178.8130  140.4130 C   0  0  0  0  0  0  0  0  0  0  0  0
  180.5880  179.9840  139.1560 N   0  0  0  0  0  0  0  0  0  0  0  0
  181.3590  177.7600  140.5910 C   0  0  0  0  0  3  0  0  0  0  0  0
  181.8480  179.9260  139.6670 C   0  0  0  0  0  3  0  0  0  0  0  0
  179.1100  176.7230  140.2560 C   0  0  0  0  0  1  0  0  0  0  0  0
  189.2370  178.3230  138.6350 C   0  0  0  0  0  2  0  0  0  0  0  0
  189.2040  176.9380  138.0130 C   0  0  0  0  0  2  0  0  0  0  0  0
  190.5160  174.9390  138.0950 O   0  0  0  0  0  1  0  0  0  0  0  0
  190.5970  176.3280  138.0000 C   0  0  2  0  0  3  0  0  0  0  0  0
  191.5160  176.9040  139.0890 C   0  0  0  0  0  2  0  0  0  0  0  0
  193.4510  176.8790  137.6370 O   0  0  0  0  0  1  0  0  0  0  0  0
  193.0090  176.5940  138.9290 C   0  0  0  0  0  3  0  0  0  0  0  0
  193.7740  177.2950  139.8620 O   0  0  0  0  0  1  0  0  0  0  0  0
  1  5  1  0  0  0  0
  2 14  1  1  0  0  0
  2  6  1  0  0  0  0
  3  8  1  0  0  0  0
  4 18  1  0  0  0  0
  5 11  1  0  0  0  0
  6 11  1  0  0  0  0
  8  2  1  0  0  0  0
  8  1  2  0  0  0  0
  9  7  1  0  0  0  0
 10 17  1  0  0  0  0
 10  4  2  0  0  0  0
 12  3  2  0  0  0  0
 12 19  1  0  0  0  0
 13  1  1  0  0  0  0
 15  4  1  0  0  0  0
 15 16  2  0  0  0  0
 16 12  1  0  0  0  0
 17  9  2  0  0  0  0
 18  7  2  0  0  0  0
 18  3  1  0  0  0  0
 19 13  2  0  0  0  0
 20 26  1  0  0  0  0
 20 24  1  0  0  0  0
 21 20  2  0  0  0  0
 22 24  2  0  0  0  0
 22 16  1  0  0  0  0
 23 21  1  0  0  0  0
 23 25  2  0  0  0  0
 25 22  1  0  0  0  0
 27 17  1  0  0  0  0
 28 27  1  0  0  0  0
 30 28  1  0  0  0  0
 30 29  1  1  0  0  0
 30 31  1  0  0  0  0
 32 33  1  0  0  0  0
 33 31  1  0  0  0  0
 33 34  1  0  0  0  0
M  END
>  <MODEL>
4

>  <REMARK>
 VINA RESULT:      -9.8      3.184      4.972
  Name = 
  6 active torsions:
  status: ('A' for Active; 'I' for Inactive)
    1  A    between atoms: C_3  and  C_13
    2  A    between atoms: C_3  and  C_29
    3  A    between atoms: C_12  and  C_28
    4  A    between atoms: C_13  and  C_33
    5  A    between atoms: C_20  and  C_22
    6  A    between atoms: C_22  and  C_33
                            x       y       z     vdW  Elec       q    Type
                         _______ _______ _______ _____ _____    ______ ____

>  <TORSDO>
F 6

$$$$
=
 OpenBabel10262419143D

 34 38  0  0  1  0  0  0  0  0999 V2000
  188.7690  177.3680  146.2400 C   0  0  0  0  0  0  0  0  0  0  0  0
  186.6400  178.3950  147.1070 C   0  0  2  0  0  3  0  0  0  0  0  0
  187.0620  177.9520  144.5750 C   0  0  0  0  0  0  0  0  0  0  0  0
  185.4370  178.4150  142.8030 C   0  0  0  0  0  0  0  0  0  0  0  0
  189.1310  177.0790  147.5550 O   0  0  0  0  0  0  0  0  0  0  0  0
  187.2350  178.1760  148.5060 C   0  0  0  0  0  2  0  0  0  0  0  0
  184.6500  178.3170  145.0740 C   0  0  0  0  0  3  0  0  0  0  0  0
  187.4830  177.8710  145.9460 C   0  0  0  0  0  0  0  0  0  0  0  0
  183.3610  178.6040  144.6320 C   0  0  0  0  0  3  0  0  0  0  0  0
  184.1710  178.7030  142.3950 N   0  0  0  0  0  0  0  0  0  0  0  0
  188.1390  176.9610  148.5630 C   0  0  0  0  0  2  0  0  0  0  0  0
  188.0320  177.7290  143.5510 C   0  0  0  0  0  0  0  0  0  0  0  0
  189.6900  177.1430  145.2270 C   0  0  0  0  0  3  0  0  0  0  0  0
  186.4310  179.8940  146.9580 C   0  0  0  0  0  1  0  0  0  0  0  0
  186.4090  178.2640  141.8750 N   0  0  0  0  0  0  0  0  0  0  0  0
  187.6820  177.9100  142.1880 C   0  0  0  0  0  0  0  0  0  0  0  0
  183.1390  178.8030  143.2710 C   0  0  0  0  0  0  0  0  0  0  0  0
  185.7250  178.2410  144.1740 C   0  0  0  0  0  0  0  0  0  0  0  0
  189.3330  177.3480  143.9040 C   0  0  0  0  0  3  0  0  0  0  0  0
  189.2810  178.2560  138.7760 C   0  0  0  0  0  0  0  0  0  0  0  0
  190.3510  177.3680  138.8920 C   0  0  0  0  0  3  0  0  0  0  0  0
  188.6340  177.7370  141.0570 C   0  0  0  0  0  0  0  0  0  0  0  0
  190.5430  176.6840  140.0500 N   0  0  0  0  0  0  0  0  0  0  0  0
  188.4210  178.4330  139.8600 C   0  0  0  0  0  3  0  0  0  0  0  0
  189.7160  176.8440  141.1180 C   0  0  0  0  0  3  0  0  0  0  0  0
  189.0570  179.0000  137.5110 C   0  0  0  0  0  1  0  0  0  0  0  0
  181.7760  179.1420  142.7820 C   0  0  0  0  0  2  0  0  0  0  0  0
  181.5830  178.6040  141.3750 C   0  0  0  0  0  2  0  0  0  0  0  0
  179.7070  179.5590  140.2400 O   0  0  0  0  0  1  0  0  0  0  0  0
  181.0790  179.7000  140.4500 C   0  0  2  0  0  3  0  0  0  0  0  0
  181.8380  179.7580  139.1150 C   0  0  0  0  0  2  0  0  0  0  0  0
  183.4190  178.2630  138.0580 O   0  0  0  0  0  1  0  0  0  0  0  0
  183.2430  179.1460  139.1240 C   0  0  0  0  0  3  0  0  0  0  0  0
  184.2270  180.1350  139.0930 O   0  0  0  0  0  1  0  0  0  0  0  0
  1  5  1  0  0  0  0
  2 14  1  6  0  0  0
  2  6  1  0  0  0  0
  3  8  2  0  0  0  0
  4 18  1  0  0  0  0
  5 11  1  0  0  0  0
  6 11  1  0  0  0  0
  8  1  1  0  0  0  0
  8  2  1  0  0  0  0
  9  7  1  0  0  0  0
 10  4  2  0  0  0  0
 10 17  1  0  0  0  0
 12 19  2  0  0  0  0
 12  3  1  0  0  0  0
 13  1  2  0  0  0  0
 15 16  2  0  0  0  0
 15  4  1  0  0  0  0
 16 12  1  0  0  0  0
 17  9  2  0  0  0  0
 18  3  1  0  0  0  0
 18  7  2  0  0  0  0
 19 13  1  0  0  0  0
 20 21  2  0  0  0  0
 20 24  1  0  0  0  0
 21 23  1  0  0  0  0
 22 25  1  0  0  0  0
 22 16  1  0  0  0  0
 23 25  2  0  0  0  0
 24 22  2  0  0  0  0
 26 20  1  0  0  0  0
 27 17  1  0  0  0  0
 28 27  1  0  0  0  0
 30 29  1  6  0  0  0
 30 28  1  0  0  0  0
 31 33  1  0  0  0  0
 31 30  1  0  0  0  0
 32 33  1  0  0  0  0
 34 33  1  0  0  0  0
M  END
>  <MODEL>
5

>  <REMARK>
 VINA RESULT:      -9.6      1.915      5.905
  Name = 
  6 active torsions:
  status: ('A' for Active; 'I' for Inactive)
    1  A    between atoms: C_3  and  C_13
    2  A    between atoms: C_3  and  C_29
    3  A    between atoms: C_12  and  C_28
    4  A    between atoms: C_13  and  C_33
    5  A    between atoms: C_20  and  C_22
    6  A    between atoms: C_22  and  C_33
                            x       y       z     vdW  Elec       q    Type
                         _______ _______ _______ _____ _____    ______ ____

>  <TORSDO>
F 6

$$$$
=
 OpenBabel10262419143D

 34 38  0  0  1  0  0  0  0  0999 V2000
  191.2840  176.3950  144.9200 C   0  0  0  0  0  0  0  0  0  0  0  0
  189.7790  177.2380  146.7550 C   0  0  2  0  0  3  0  0  0  0  0  0
  189.0750  177.2280  144.2480 C   0  0  0  0  0  0  0  0  0  0  0  0
  186.8870  177.9600  143.4260 C   0  0  0  0  0  0  0  0  0  0  0  0
  192.1460  175.8950  145.8960 O   0  0  0  0  0  0  0  0  0  0  0  0
  190.8910  176.7950  147.7180 C   0  0  0  0  0  2  0  0  0  0  0  0
  187.1200  177.4750  145.7700 C   0  0  0  0  0  3  0  0  0  0  0  0
  190.0250  176.9250  145.2800 C   0  0  0  0  0  0  0  0  0  0  0  0
  185.7840  177.8160  145.9670 C   0  0  0  0  0  3  0  0  0  0  0  0
  185.5870  178.2970  143.6420 N   0  0  0  0  0  0  0  0  0  0  0  0
  191.6620  175.5980  147.1960 C   0  0  0  0  0  2  0  0  0  0  0  0
  189.5110  177.1910  142.8880 C   0  0  0  0  0  0  0  0  0  0  0  0
  191.6810  176.3540  143.5910 C   0  0  0  0  0  3  0  0  0  0  0  0
  189.6170  178.7370  146.9450 C   0  0  0  0  0  1  0  0  0  0  0  0
  187.3700  177.9780  142.1630 N   0  0  0  0  0  0  0  0  0  0  0  0
  188.6340  177.5930  141.8480 C   0  0  0  0  0  0  0  0  0  0  0  0
  185.0240  178.2370  144.8770 C   0  0  0  0  0  0  0  0  0  0  0  0
  187.7120  177.5630  144.5000 C   0  0  0  0  0  0  0  0  0  0  0  0
  190.8150  176.7730  142.5930 C   0  0  0  0  0  3  0  0  0  0  0  0
  190.2910  176.6900  138.5690 C   0  0  0  0  0  0  0  0  0  0  0  0
  189.8080  177.7020  137.7390 C   0  0  0  0  0  3  0  0  0  0  0  0
  189.0120  177.6230  140.4090 C   0  0  0  0  0  0  0  0  0  0  0  0
  188.9640  178.6440  138.2360 N   0  0  0  0  0  0  0  0  0  0  0  0
  189.8960  176.6580  139.9060 C   0  0  0  0  0  3  0  0  0  0  0  0
  188.5660  178.6280  139.5370 C   0  0  0  0  0  3  0  0  0  0  0  0
  191.2210  175.6620  138.0370 C   0  0  0  0  0  1  0  0  0  0  0  0
  183.6050  178.6360  145.0700 C   0  0  0  0  0  2  0  0  0  0  0  0
  183.1610  179.5340  143.9280 C   0  0  0  0  0  2  0  0  0  0  0  0
  182.6460  178.6280  141.7750 O   0  0  0  0  0  1  0  0  0  0  0  0
  182.1370  178.8220  143.0590 C   0  0  2  0  0  3  0  0  0  0  0  0
  180.7810  179.5450  143.0110 C   0  0  0  0  0  2  0  0  0  0  0  0
  179.3040  177.8670  142.0880 O   0  0  0  0  0  1  0  0  0  0  0  0
  179.5480  178.6580  143.2110 C   0  0  0  0  0  3  0  0  0  0  0  0
  179.6810  177.8530  144.3430 O   0  0  0  0  0  1  0  0  0  0  0  0
  1  8  1  0  0  0  0
  1  5  1  0  0  0  0
  2 14  1  6  0  0  0
  2  6  1  0  0  0  0
  3 18  1  0  0  0  0
  3  8  2  0  0  0  0
  4 10  2  0  0  0  0
  4 18  1  0  0  0  0
  5 11  1  0  0  0  0
  7  9  1  0  0  0  0
  8  2  1  0  0  0  0
 10 17  1  0  0  0  0
 11  6  1  0  0  0  0
 12  3  1  0  0  0  0
 13  1  2  0  0  0  0
 15  4  1  0  0  0  0
 16 15  2  0  0  0  0
 16 12  1  0  0  0  0
 17 27  1  0  0  0  0
 17  9  2  0  0  0  0
 18  7  2  0  0  0  0
 19 12  2  0  0  0  0
 19 13  1  0  0  0  0
 20 24  1  0  0  0  0
 21 23  1  0  0  0  0
 21 20  2  0  0  0  0
 22 16  1  0  0  0  0
 23 25  2  0  0  0  0
 24 22  2  0  0  0  0
 25 22  1  0  0  0  0
 26 20  1  0  0  0  0
 28 27  1  0  0  0  0
 30 29  1  6  0  0  0
 30 28  1  0  0  0  0
 31 30  1  0  0  0  0
 31 33  1  0  0  0  0
 32 33  1  0  0  0  0
 33 34  1  0  0  0  0
M  END
>  <MODEL>
6

>  <REMARK>
 VINA RESULT:      -9.6      2.463      6.280
  Name = 
  6 active torsions:
  status: ('A' for Active; 'I' for Inactive)
    1  A    between atoms: C_3  and  C_13
    2  A    between atoms: C_3  and  C_29
    3  A    between atoms: C_12  and  C_28
    4  A    between atoms: C_13  and  C_33
    5  A    between atoms: C_20  and  C_22
    6  A    between atoms: C_22  and  C_33
                            x       y       z     vdW  Elec       q    Type
                         _______ _______ _______ _____ _____    ______ ____

>  <TORSDO>
F 6

$$$$
=
 OpenBabel10262419143D

 34 38  0  0  1  0  0  0  0  0999 V2000
  184.3750  178.6510  145.1530 C   0  0  0  0  0  0  0  0  0  0  0  0
  186.7800  178.0030  144.7850 C   0  0  2  0  0  3  0  0  0  0  0  0
  185.1490  178.5390  142.8260 C   0  0  0  0  0  0  0  0  0  0  0  0
  185.7840  178.5380  140.4610 C   0  0  0  0  0  0  0  0  0  0  0  0
  184.6440  178.7660  146.5160 O   0  0  0  0  0  0  0  0  0  0  0  0
  186.8970  177.9980  146.3160 C   0  0  0  0  0  2  0  0  0  0  0  0
  187.5320  178.6220  142.1110 C   0  0  0  0  0  3  0  0  0  0  0  0
  185.4230  178.4340  144.2320 C   0  0  0  0  0  0  0  0  0  0  0  0
  188.4830  178.6280  141.0930 C   0  0  0  0  0  3  0  0  0  0  0  0
  186.7300  178.5360  139.4830 N   0  0  0  0  0  0  0  0  0  0  0  0
  185.9680  179.0030  146.9680 C   0  0  0  0  0  2  0  0  0  0  0  0
  183.7880  178.6420  142.4030 C   0  0  0  0  0  0  0  0  0  0  0  0
  183.0620  178.7640  144.7180 C   0  0  0  0  0  3  0  0  0  0  0  0
  187.1000  176.5900  144.3230 C   0  0  0  0  0  1  0  0  0  0  0  0
  184.4780  178.5620  140.1120 N   0  0  0  0  0  0  0  0  0  0  0  0
  183.4710  178.6330  141.0200 C   0  0  0  0  0  0  0  0  0  0  0  0
  188.0580  178.5770  139.7670 C   0  0  0  0  0  0  0  0  0  0  0  0
  186.1600  178.5500  141.8210 C   0  0  0  0  0  0  0  0  0  0  0  0
  182.7720  178.7310  143.3630 C   0  0  0  0  0  3  0  0  0  0  0  0
  180.1780  180.0280  139.7840 C   0  0  0  0  0  0  0  0  0  0  0  0
  179.4530  178.8550  139.5740 C   0  0  0  0  0  3  0  0  0  0  0  0
  182.0820  178.6980  140.4880 C   0  0  0  0  0  0  0  0  0  0  0  0
  180.0270  177.6480  139.8240 N   0  0  0  0  0  0  0  0  0  0  0  0
  181.4910  179.9460  140.2480 C   0  0  0  0  0  3  0  0  0  0  0  0
  181.3060  177.5480  140.2750 C   0  0  0  0  0  3  0  0  0  0  0  0
  179.5560  181.3520  139.5230 C   0  0  0  0  0  1  0  0  0  0  0  0
  189.0570  178.5500  138.6660 C   0  0  0  0  0  2  0  0  0  0  0  0
  190.1190  177.5050  138.9570 C   0  0  0  0  0  2  0  0  0  0  0  0
  190.8270  175.2910  138.3940 O   0  0  0  0  0  1  0  0  0  0  0  0
  189.7570  176.1810  138.3040 C   0  0  2  0  0  3  0  0  0  0  0  0
  189.2890  176.3360  136.8480 C   0  0  0  0  0  2  0  0  0  0  0  0
  186.9260  175.9790  137.2190 O   0  0  0  0  0  1  0  0  0  0  0  0
  188.0250  175.5570  136.4700 C   0  0  0  0  0  3  0  0  0  0  0  0
  187.7480  175.6710  135.1070 O   0  0  0  0  0  1  0  0  0  0  0  0
  1  5  1  0  0  0  0
  2 14  1  1  0  0  0
  2  6  1  0  0  0  0
  3  8  1  0  0  0  0
  4 18  1  0  0  0  0
  5 11  1  0  0  0  0
  6 11  1  0  0  0  0
  8  2  1  0  0  0  0
  8  1  2  0  0  0  0
  9  7  1  0  0  0  0
 10 17  1  0  0  0  0
 10  4  2  0  0  0  0
 12  3  2  0  0  0  0
 12 19  1  0  0  0  0
 13  1  1  0  0  0  0
 15  4  1  0  0  0  0
 15 16  2  0  0  0  0
 16 12  1  0  0  0  0
 17  9  2  0  0  0  0
 18  7  2  0  0  0  0
 18  3  1  0  0  0  0
 19 13  2  0  0  0  0
 20 24  1  0  0  0  0
 21 20  2  0  0  0  0
 21 23  1  0  0  0  0
 22 16  1  0  0  0  0
 23 25  2  0  0  0  0
 24 22  2  0  0  0  0
 25 22  1  0  0  0  0
 26 20  1  0  0  0  0
 27 28  1  0  0  0  0
 27 17  1  0  0  0  0
 30 29  1  6  0  0  0
 30 28  1  0  0  0  0
 31 30  1  0  0  0  0
 33 31  1  0  0  0  0
 33 32  1  0  0  0  0
 34 33  1  0  0  0  0
M  END
>  <MODEL>
7

>  <REMARK>
 VINA RESULT:      -9.3      2.914      4.488
  Name = 
  6 active torsions:
  status: ('A' for Active; 'I' for Inactive)
    1  A    between atoms: C_3  and  C_13
    2  A    between atoms: C_3  and  C_29
    3  A    between atoms: C_12  and  C_28
    4  A    between atoms: C_13  and  C_33
    5  A    between atoms: C_20  and  C_22
    6  A    between atoms: C_22  and  C_33
                            x       y       z     vdW  Elec       q    Type
                         _______ _______ _______ _____ _____    ______ ____

>  <TORSDO>
F 6

$$$$
=
 OpenBabel10262419143D

 34 38  0  0  1  0  0  0  0  0999 V2000
  186.3070  178.0710  145.4330 C   0  0  0  0  0  0  0  0  0  0  0  0
  188.4160  177.3530  144.2580 C   0  0  2  0  0  3  0  0  0  0  0  0
  186.3260  178.2430  142.9840 C   0  0  0  0  0  0  0  0  0  0  0  0
  186.2110  178.5390  140.5560 C   0  0  0  0  0  0  0  0  0  0  0  0
  186.9870  177.9790  146.6470 O   0  0  0  0  0  0  0  0  0  0  0  0
  188.9910  177.1280  145.6650 C   0  0  0  0  0  2  0  0  0  0  0  0
  188.3770  178.2980  141.5750 C   0  0  0  0  0  3  0  0  0  0  0  0
  187.0020  177.9290  144.2120 C   0  0  0  0  0  0  0  0  0  0  0  0
  188.9710  178.3960  140.3180 C   0  0  0  0  0  3  0  0  0  0  0  0
  186.8130  178.6230  139.3380 N   0  0  0  0  0  0  0  0  0  0  0  0
  188.4020  178.0800  146.6870 C   0  0  0  0  0  2  0  0  0  0  0  0
  184.9170  178.4760  143.0230 C   0  0  0  0  0  0  0  0  0  0  0  0
  184.9410  178.3130  145.4470 C   0  0  0  0  0  3  0  0  0  0  0  0
  188.4470  176.0040  143.5590 C   0  0  0  0  0  1  0  0  0  0  0  0
  184.8700  178.6800  140.6390 N   0  0  0  0  0  0  0  0  0  0  0  0
  184.1960  178.6780  141.8180 C   0  0  0  0  0  0  0  0  0  0  0  0
  188.1610  178.5530  139.1960 C   0  0  0  0  0  0  0  0  0  0  0  0
  186.9820  178.3410  141.7220 C   0  0  0  0  0  0  0  0  0  0  0  0
  184.2530  178.4840  144.2560 C   0  0  0  0  0  3  0  0  0  0  0  0
  180.5880  179.0240  142.9020 C   0  0  0  0  0  0  0  0  0  0  0  0
  179.9550  179.1990  141.6710 C   0  0  0  0  0  3  0  0  0  0  0  0
  182.7240  178.8900  141.7580 C   0  0  0  0  0  0  0  0  0  0  0  0
  180.6880  179.2080  140.5260 N   0  0  0  0  0  0  0  0  0  0  0  0
  181.9730  178.8640  142.9410 C   0  0  0  0  0  3  0  0  0  0  0  0
  182.0390  179.0540  140.5440 C   0  0  0  0  0  3  0  0  0  0  0  0
  179.7940  179.0030  144.1570 C   0  0  0  0  0  1  0  0  0  0  0  0
  188.7730  178.6280  137.8420 C   0  0  0  0  0  2  0  0  0  0  0  0
  187.8460  177.9910  136.8210 C   0  0  0  0  0  2  0  0  0  0  0  0
  187.4440  175.6750  137.2600 O   0  0  0  0  0  1  0  0  0  0  0  0
  188.2600  176.5540  136.5490 C   0  0  2  0  0  3  0  0  0  0  0  0
  189.7450  176.2900  136.8440 C   0  0  0  0  0  2  0  0  0  0  0  0
  190.5160  174.0840  137.4700 O   0  0  0  0  0  1  0  0  0  0  0  0
  190.0300  175.2920  137.9710 C   0  0  0  0  0  3  0  0  0  0  0  0
  190.9280  175.8200  138.9000 O   0  0  0  0  0  1  0  0  0  0  0  0
  1 13  1  0  0  0  0
  1  5  1  0  0  0  0
  2 14  1  1  0  0  0
  2  6  1  0  0  0  0
  3 12  2  0  0  0  0
  3  8  1  0  0  0  0
  4 15  1  0  0  0  0
  4 18  1  0  0  0  0
  5 11  1  0  0  0  0
  6 11  1  0  0  0  0
  7 18  2  0  0  0  0
  8  2  1  0  0  0  0
  8  1  2  0  0  0  0
  9  7  1  0  0  0  0
 10  4  2  0  0  0  0
 12 19  1  0  0  0  0
 15 16  2  0  0  0  0
 16 12  1  0  0  0  0
 17 10  1  0  0  0  0
 17  9  2  0  0  0  0
 18  3  1  0  0  0  0
 19 13  2  0  0  0  0
 20 24  1  0  0  0  0
 20 26  1  0  0  0  0
 21 20  2  0  0  0  0
 22 16  1  0  0  0  0
 22 24  2  0  0  0  0
 23 25  2  0  0  0  0
 23 21  1  0  0  0  0
 25 22  1  0  0  0  0
 27 17  1  0  0  0  0
 28 27  1  0  0  0  0
 30 28  1  0  0  0  0
 30 31  1  0  0  0  0
 30 29  1  1  0  0  0
 31 33  1  0  0  0  0
 32 33  1  0  0  0  0
 33 34  1  0  0  0  0
M  END
>  <MODEL>
8

>  <REMARK>
 VINA RESULT:      -9.3      2.338      3.651
  Name = 
  6 active torsions:
  status: ('A' for Active; 'I' for Inactive)
    1  A    between atoms: C_3  and  C_13
    2  A    between atoms: C_3  and  C_29
    3  A    between atoms: C_12  and  C_28
    4  A    between atoms: C_13  and  C_33
    5  A    between atoms: C_20  and  C_22
    6  A    between atoms: C_22  and  C_33
                            x       y       z     vdW  Elec       q    Type
                         _______ _______ _______ _____ _____    ______ ____

>  <TORSDO>
F 6

$$$$
=
 OpenBabel10262419143D

 34 38  0  0  1  0  0  0  0  0999 V2000
  181.1680  178.7600  141.4180 C   0  0  0  0  0  0  0  0  0  0  0  0
  181.8930  179.2260  139.0520 C   0  0  2  0  0  3  0  0  0  0  0  0
  183.5780  178.6730  140.9590 C   0  0  0  0  0  0  0  0  0  0  0  0
  186.0000  178.4830  140.6500 C   0  0  0  0  0  0  0  0  0  0  0  0
  179.8460  178.7160  140.9740 O   0  0  0  0  0  0  0  0  0  0  0  0
  180.3940  179.3220  138.7290 C   0  0  0  0  0  2  0  0  0  0  0  0
  184.5900  178.3910  138.7030 C   0  0  0  0  0  3  0  0  0  0  0  0
  182.2310  178.8500  140.4930 C   0  0  0  0  0  0  0  0  0  0  0  0
  185.7210  178.2590  137.9000 C   0  0  0  0  0  3  0  0  0  0  0  0
  187.0900  178.3610  139.8450 N   0  0  0  0  0  0  0  0  0  0  0  0
  179.5550  178.4230  139.6160 C   0  0  0  0  0  2  0  0  0  0  0  0
  183.8110  178.6330  142.3680 C   0  0  0  0  0  0  0  0  0  0  0  0
  181.4180  178.7050  142.7820 C   0  0  0  0  0  3  0  0  0  0  0  0
  182.4920  180.5830  138.7190 C   0  0  0  0  0  1  0  0  0  0  0  0
  186.1720  178.5210  141.9900 N   0  0  0  0  0  0  0  0  0  0  0  0
  185.1370  178.5730  142.8680 C   0  0  0  0  0  0  0  0  0  0  0  0
  186.9800  178.2520  138.4960 C   0  0  0  0  0  0  0  0  0  0  0  0
  184.7020  178.5330  140.0950 C   0  0  0  0  0  0  0  0  0  0  0  0
  182.7220  178.6710  143.2490 C   0  0  0  0  0  3  0  0  0  0  0  0
  186.9990  177.9340  146.0990 C   0  0  0  0  0  0  0  0  0  0  0  0
  186.1020  178.4570  147.0320 C   0  0  0  0  0  3  0  0  0  0  0  0
  185.4770  178.5650  144.3180 C   0  0  0  0  0  0  0  0  0  0  0  0
  184.9300  179.0030  146.6140 N   0  0  0  0  0  0  0  0  0  0  0  0
  186.6800  177.9850  144.7430 C   0  0  0  0  0  3  0  0  0  0  0  0
  184.6020  179.0620  145.2960 C   0  0  0  0  0  3  0  0  0  0  0  0
  188.2790  177.3270  146.5470 C   0  0  0  0  0  1  0  0  0  0  0  0
  188.2010  178.1440  137.6550 C   0  0  0  0  0  2  0  0  0  0  0  0
  189.4310  178.4720  138.4840 C   0  0  0  0  0  2  0  0  0  0  0  0
  189.5500  176.0840  138.3960 O   0  0  0  0  0  1  0  0  0  0  0  0
  190.2910  177.2330  138.6730 C   0  0  2  0  0  3  0  0  0  0  0  0
  190.9320  177.1520  140.0680 C   0  0  0  0  0  2  0  0  0  0  0  0
  190.5550  175.8460  142.0690 O   0  0  0  0  0  1  0  0  0  0  0  0
  189.9820  176.7880  141.2150 C   0  0  0  0  0  3  0  0  0  0  0  0
  189.6030  177.9200  141.9370 O   0  0  0  0  0  1  0  0  0  0  0  0
  1 13  1  0  0  0  0
  2 14  1  1  0  0  0
  2  8  1  0  0  0  0
  3 12  2  0  0  0  0
  4 15  1  0  0  0  0
  5  1  1  0  0  0  0
  6  2  1  0  0  0  0
  6 11  1  0  0  0  0
  7 18  2  0  0  0  0
  8  3  1  0  0  0  0
  8  1  2  0  0  0  0
  9 17  2  0  0  0  0
  9  7  1  0  0  0  0
 10  4  2  0  0  0  0
 11  5  1  0  0  0  0
 12 16  1  0  0  0  0
 12 19  1  0  0  0  0
 13 19  2  0  0  0  0
 15 16  2  0  0  0  0
 16 22  1  0  0  0  0
 17 10  1  0  0  0  0
 18  4  1  0  0  0  0
 18  3  1  0  0  0  0
 20 26  1  0  0  0  0
 20 21  1  0  0  0  0
 22 24  1  0  0  0  0
 22 25  2  0  0  0  0
 23 21  2  0  0  0  0
 24 20  2  0  0  0  0
 25 23  1  0  0  0  0
 27 28  1  0  0  0  0
 27 17  1  0  0  0  0
 28 30  1  0  0  0  0
 30 29  1  1  0  0  0
 30 31  1  0  0  0  0
 31 33  1  0  0  0  0
 33 34  1  0  0  0  0
 33 32  1  0  0  0  0
M  END
>  <MODEL>
9

>  <REMARK>
 VINA RESULT:      -9.2      2.476      6.950
  Name = 
  6 active torsions:
  status: ('A' for Active; 'I' for Inactive)
    1  A    between atoms: C_3  and  C_13
    2  A    between atoms: C_3  and  C_29
    3  A    between atoms: C_12  and  C_28
    4  A    between atoms: C_13  and  C_33
    5  A    between atoms: C_20  and  C_22
    6  A    between atoms: C_22  and  C_33
                            x       y       z     vdW  Elec       q    Type
                         _______ _______ _______ _____ _____    ______ ____

>  <TORSDO>
F 6

$$$$
