=
 OpenBabel10262420063D

 27 28  0  0  1  0  0  0  0  0999 V2000
  186.9290  177.9610  143.4620 C   0  0  1  0  0  3  0  0  0  0  0  0
  186.9640  178.2560  147.7550 C   0  0  0  0  0  3  0  0  0  0  0  0
  186.9660  178.0680  144.9590 C   0  0  0  0  0  0  0  0  0  0  0  0
  188.0170  177.5140  145.7060 C   0  0  0  0  0  3  0  0  0  0  0  0
  188.0150  177.6090  147.1010 C   0  0  0  0  0  3  0  0  0  0  0  0
  185.9130  178.8080  147.0150 C   0  0  0  0  0  3  0  0  0  0  0  0
  185.9150  178.7130  145.6210 C   0  0  0  0  0  3  0  0  0  0  0  0
  187.9650  177.0830  142.9110 N   0  0  0  0  0  0  0  0  0  0  0  0
  187.9910  175.7270  143.2690 N   0  0  0  0  0  1  0  0  0  0  0  0
  188.3870  178.7980  139.8770 O   0  0  0  0  0  0  0  0  0  0  0  0
  188.9920  177.6020  142.0480 C   0  0  0  0  0  0  0  0  0  0  0  0
  188.6810  178.2180  140.9300 C   0  0  0  0  0  0  0  0  0  0  0  0
  191.4480  175.6470  143.8170 C   0  0  0  0  0  3  0  0  0  0  0  0
  191.7360  177.1060  145.7900 C   0  0  0  0  0  2  0  0  0  0  0  0
  190.6960  177.9320  143.7690 N   0  0  0  0  0  0  0  0  0  0  0  0
  190.6490  179.3420  144.1240 C   0  0  0  0  0  1  0  0  0  0  0  0
  191.2840  176.9160  144.5570 C   0  0  0  0  0  0  0  0  0  0  0  0
  190.4400  177.4330  142.4300 C   0  0  1  0  0  3  0  0  0  0  0  0
  190.8470  175.9500  142.4400 C   0  0  0  0  0  3  0  0  0  0  0  0
  185.5510  177.7830  142.7920 C   0  0  0  0  0  2  0  0  0  0  0  0
  184.8230  179.0410  142.2940 C   0  0  2  0  0  3  0  0  0  0  0  0
  183.3120  178.8370  142.2580 C   0  0  0  0  0  2  0  0  0  0  0  0
  181.1820  178.9320  143.5520 C   0  0  0  0  0  1  0  0  0  0  0  0
  182.6960  178.9850  143.6390 C   0  0  0  0  0  2  0  0  0  0  0  0
  185.3290  179.4880  141.0060 N   0  0  0  0  0  2  0  0  0  0  0  0
  184.2620  180.2370  139.0820 O   0  0  0  0  0  1  0  0  0  0  0  0
  184.2970  179.2080  140.0220 C   0  0  0  0  0  2  0  0  0  0  0  0
  1 20  1  1  0  0  0
  1  3  1  0  0  0  0
  3  7  2  0  0  0  0
  3  4  1  0  0  0  0
  4  5  2  0  0  0  0
  5  2  1  0  0  0  0
  6  2  2  0  0  0  0
  7  6  1  0  0  0  0
  8  9  1  0  0  0  0
  8  1  1  0  0  0  0
 10 12  2  0  0  0  0
 11  8  1  0  0  0  0
 12 11  2  0  0  0  0
 13 17  1  0  0  0  0
 15 16  1  0  0  0  0
 15 17  1  0  0  0  0
 17 14  2  0  0  0  0
 18 11  1  1  0  0  0
 18 19  1  0  0  0  0
 18 15  1  0  0  0  0
 19 13  2  0  0  0  0
 21 22  1  6  0  0  0
 21 20  1  0  0  0  0
 22 24  1  0  0  0  0
 23 24  1  0  0  0  0
 25 21  1  0  0  0  0
 26 27  1  0  0  0  0
 27 25  1  0  0  0  0
M  END
>  <MODEL>
1

>  <REMARK>
 VINA RESULT:      -8.0      0.000      0.000
  Name = 
  10 active torsions:
  status: ('A' for Active; 'I' for Inactive)
    1  A    between atoms: C_1  and  C_15
    2  A    between atoms: C_1  and  C_18
    3  A    between atoms: N_2  and  C_14
    4  A    between atoms: N_2  and  C_15
    5  A    between atoms: C_9  and  C_15
    6  A    between atoms: C_14  and  C_17
    7  A    between atoms: C_18  and  C_24
    8  A    between atoms: C_18  and  N_26
    9  A    between atoms: C_20  and  N_26
   10  A    between atoms: C_22  and  C_24
                            x       y       z     vdW  Elec       q    Type
                         _______ _______ _______ _____ _____    ______ ____

>  <TORSDO>
F 10

$$$$
=
 OpenBabel10262420063D

 27 28  0  0  1  0  0  0  0  0999 V2000
  187.6910  177.8100  143.7650 C   0  0  1  0  0  3  0  0  0  0  0  0
  188.2030  177.4880  148.0250 C   0  0  0  0  0  3  0  0  0  0  0  0
  187.8450  177.6930  145.2540 C   0  0  0  0  0  0  0  0  0  0  0  0
  186.8720  178.1930  146.1320 C   0  0  0  0  0  3  0  0  0  0  0  0
  187.0510  178.0910  147.5140 C   0  0  0  0  0  3  0  0  0  0  0  0
  189.1770  176.9880  147.1540 C   0  0  0  0  0  3  0  0  0  0  0  0
  188.9980  177.0920  145.7730 C   0  0  0  0  0  3  0  0  0  0  0  0
  188.7730  177.1690  143.0120 N   0  0  0  0  0  0  0  0  0  0  0  0
  188.7740  175.7760  142.8450 N   0  0  0  0  0  1  0  0  0  0  0  0
  191.7050  178.8160  144.0200 O   0  0  0  0  0  0  0  0  0  0  0  0
  189.8660  177.9420  142.4840 C   0  0  0  0  0  0  0  0  0  0  0  0
  190.8130  178.3920  143.2750 C   0  0  0  0  0  0  0  0  0  0  0  0
  188.7370  177.0690  139.1750 C   0  0  0  0  0  3  0  0  0  0  0  0
  190.7640  175.8990  138.3850 C   0  0  0  0  0  2  0  0  0  0  0  0
  190.8350  177.3490  140.3200 N   0  0  0  0  0  0  0  0  0  0  0  0
  192.2790  177.3870  140.4960 C   0  0  0  0  0  1  0  0  0  0  0  0
  190.1620  176.6900  139.2640 C   0  0  0  0  0  0  0  0  0  0  0  0
  189.9190  178.2410  141.0080 C   0  0  1  0  0  3  0  0  0  0  0  0
  188.5460  178.0400  140.3450 C   0  0  0  0  0  3  0  0  0  0  0  0
  186.2920  177.5590  143.1680 C   0  0  0  0  0  2  0  0  0  0  0  0
  185.3830  178.7720  142.9210 C   0  0  2  0  0  3  0  0  0  0  0  0
  183.9090  178.3830  142.9430 C   0  0  0  0  0  2  0  0  0  0  0  0
  183.6610  178.9340  145.3630 C   0  0  0  0  0  1  0  0  0  0  0  0
  183.1340  179.1980  143.9650 C   0  0  0  0  0  2  0  0  0  0  0  0
  185.7300  179.4680  141.6910 N   0  0  0  0  0  2  0  0  0  0  0  0
  184.8410  179.8330  139.5750 O   0  0  0  0  0  1  0  0  0  0  0  0
  184.8680  178.9420  140.6460 C   0  0  0  0  0  2  0  0  0  0  0  0
  1 20  1  6  0  0  0
  1  3  1  0  0  0  0
  3  7  2  0  0  0  0
  3  4  1  0  0  0  0
  4  5  2  0  0  0  0
  5  2  1  0  0  0  0
  6  2  2  0  0  0  0
  7  6  1  0  0  0  0
  8  1  1  0  0  0  0
  9  8  1  0  0  0  0
 11  8  1  0  0  0  0
 11 12  2  0  0  0  0
 12 10  2  0  0  0  0
 13 17  1  0  0  0  0
 13 19  2  0  0  0  0
 14 17  2  0  0  0  0
 15 16  1  0  0  0  0
 15 18  1  0  0  0  0
 17 15  1  0  0  0  0
 18 11  1  1  0  0  0
 19 18  1  0  0  0  0
 21 22  1  6  0  0  0
 21 20  1  0  0  0  0
 22 24  1  0  0  0  0
 24 23  1  0  0  0  0
 25 21  1  0  0  0  0
 26 27  1  0  0  0  0
 27 25  1  0  0  0  0
M  END
>  <MODEL>
2

>  <REMARK>
 VINA RESULT:      -7.8      1.888      3.073
  Name = 
  10 active torsions:
  status: ('A' for Active; 'I' for Inactive)
    1  A    between atoms: C_1  and  C_15
    2  A    between atoms: C_1  and  C_18
    3  A    between atoms: N_2  and  C_14
    4  A    between atoms: N_2  and  C_15
    5  A    between atoms: C_9  and  C_15
    6  A    between atoms: C_14  and  C_17
    7  A    between atoms: C_18  and  C_24
    8  A    between atoms: C_18  and  N_26
    9  A    between atoms: C_20  and  N_26
   10  A    between atoms: C_22  and  C_24
                            x       y       z     vdW  Elec       q    Type
                         _______ _______ _______ _____ _____    ______ ____

>  <TORSDO>
F 10

$$$$
=
 OpenBabel10262420063D

 27 28  0  0  1  0  0  0  0  0999 V2000
  188.3750  178.2880  143.8570 C   0  0  1  0  0  3  0  0  0  0  0  0
  188.3240  177.0660  147.9830 C   0  0  0  0  0  3  0  0  0  0  0  0
  188.3820  177.8690  145.2990 C   0  0  0  0  0  0  0  0  0  0  0  0
  189.4890  177.2200  145.8670 C   0  0  0  0  0  3  0  0  0  0  0  0
  189.4590  176.8200  147.2060 C   0  0  0  0  0  3  0  0  0  0  0  0
  187.2180  177.7110  147.4210 C   0  0  0  0  0  3  0  0  0  0  0  0
  187.2470  178.1100  146.0820 C   0  0  0  0  0  3  0  0  0  0  0  0
  189.6990  178.2460  143.2290 N   0  0  0  0  0  0  0  0  0  0  0  0
  190.6670  179.1980  143.5810 N   0  0  0  0  0  1  0  0  0  0  0  0
  190.3150  174.8140  142.8240 O   0  0  0  0  0  0  0  0  0  0  0  0
  190.0060  177.2710  142.2160 C   0  0  0  0  0  0  0  0  0  0  0  0
  190.1650  176.0050  142.5280 C   0  0  0  0  0  0  0  0  0  0  0  0
  189.5980  176.4330  138.7350 C   0  0  0  0  0  3  0  0  0  0  0  0
  191.9600  175.9610  138.1850 C   0  0  0  0  0  2  0  0  0  0  0  0
  191.3650  177.1830  140.1860 N   0  0  0  0  0  0  0  0  0  0  0  0
  192.7020  177.6090  140.5710 C   0  0  0  0  0  1  0  0  0  0  0  0
  191.0500  176.4640  139.0090 C   0  0  0  0  0  0  0  0  0  0  0  0
  190.1510  177.7120  140.7820 C   0  0  1  0  0  3  0  0  0  0  0  0
  188.9900  177.1960  139.9170 C   0  0  0  0  0  3  0  0  0  0  0  0
  187.2490  177.7390  142.9580 C   0  0  0  0  0  2  0  0  0  0  0  0
  186.1940  178.7260  142.4390 C   0  0  2  0  0  3  0  0  0  0  0  0
  184.7830  178.2910  142.8180 C   0  0  0  0  0  2  0  0  0  0  0  0
  183.9160  178.7910  145.1030 C   0  0  0  0  0  1  0  0  0  0  0  0
  184.0970  179.3260  143.6940 C   0  0  0  0  0  2  0  0  0  0  0  0
  186.3140  178.9460  141.0060 N   0  0  0  0  0  2  0  0  0  0  0  0
  184.6640  179.8610  139.6480 O   0  0  0  0  0  1  0  0  0  0  0  0
  184.9920  178.7570  140.4330 C   0  0  0  0  0  2  0  0  0  0  0  0
  1 20  1  6  0  0  0
  1  3  1  0  0  0  0
  3  4  2  0  0  0  0
  3  7  1  0  0  0  0
  4  5  1  0  0  0  0
  5  2  2  0  0  0  0
  6  2  1  0  0  0  0
  7  6  2  0  0  0  0
  8  9  1  0  0  0  0
  8  1  1  0  0  0  0
 11 12  2  0  0  0  0
 11  8  1  0  0  0  0
 12 10  2  0  0  0  0
 13 17  1  0  0  0  0
 13 19  2  0  0  0  0
 14 17  2  0  0  0  0
 15 16  1  0  0  0  0
 15 18  1  0  0  0  0
 17 15  1  0  0  0  0
 18 11  1  1  0  0  0
 19 18  1  0  0  0  0
 21 22  1  6  0  0  0
 21 20  1  0  0  0  0
 22 24  1  0  0  0  0
 24 23  1  0  0  0  0
 25 21  1  0  0  0  0
 26 27  1  0  0  0  0
 27 25  1  0  0  0  0
M  END
>  <MODEL>
3

>  <REMARK>
 VINA RESULT:      -7.6      2.117      3.171
  Name = 
  10 active torsions:
  status: ('A' for Active; 'I' for Inactive)
    1  A    between atoms: C_1  and  C_15
    2  A    between atoms: C_1  and  C_18
    3  A    between atoms: N_2  and  C_14
    4  A    between atoms: N_2  and  C_15
    5  A    between atoms: C_9  and  C_15
    6  A    between atoms: C_14  and  C_17
    7  A    between atoms: C_18  and  C_24
    8  A    between atoms: C_18  and  N_26
    9  A    between atoms: C_20  and  N_26
   10  A    between atoms: C_22  and  C_24
                            x       y       z     vdW  Elec       q    Type
                         _______ _______ _______ _____ _____    ______ ____

>  <TORSDO>
F 10

$$$$
=
 OpenBabel10262420063D

 27 28  0  0  1  0  0  0  0  0999 V2000
  188.1170  177.7110  143.8540 C   0  0  1  0  0  3  0  0  0  0  0  0
  184.0580  178.6820  144.9060 C   0  0  0  0  0  3  0  0  0  0  0  0
  186.6920  178.0310  144.2050 C   0  0  0  0  0  0  0  0  0  0  0  0
  185.6810  178.0310  143.2330 C   0  0  0  0  0  3  0  0  0  0  0  0
  184.3670  178.3550  143.5840 C   0  0  0  0  0  3  0  0  0  0  0  0
  185.0630  178.6850  145.8790 C   0  0  0  0  0  3  0  0  0  0  0  0
  186.3760  178.3620  145.5280 C   0  0  0  0  0  3  0  0  0  0  0  0
  188.4610  178.0230  142.4630 N   0  0  0  0  0  0  0  0  0  0  0  0
  187.8300  179.0940  141.8130 N   0  0  0  0  0  1  0  0  0  0  0  0
  190.3990  175.1140  142.7860 O   0  0  0  0  0  0  0  0  0  0  0  0
  189.4010  177.2120  141.7350 C   0  0  0  0  0  0  0  0  0  0  0  0
  189.9150  176.1310  142.2760 C   0  0  0  0  0  0  0  0  0  0  0  0
  189.6560  176.2640  138.2680 C   0  0  0  0  0  3  0  0  0  0  0  0
  192.0850  175.8270  138.1780 C   0  0  0  0  0  2  0  0  0  0  0  0
  191.1120  177.0930  139.9950 N   0  0  0  0  0  0  0  0  0  0  0  0
  192.3480  177.5590  140.6050 C   0  0  0  0  0  1  0  0  0  0  0  0
  191.0310  176.3340  138.8040 C   0  0  0  0  0  0  0  0  0  0  0  0
  189.8010  177.6130  140.3390 C   0  0  1  0  0  3  0  0  0  0  0  0
  188.8270  177.0470  139.2920 C   0  0  0  0  0  3  0  0  0  0  0  0
  189.2100  178.1120  144.8640 C   0  0  0  0  0  2  0  0  0  0  0  0
  189.8850  176.9990  145.6780 C   0  0  2  0  0  3  0  0  0  0  0  0
  189.1930  176.7870  147.0210 C   0  0  0  0  0  2  0  0  0  0  0  0
  188.0640  178.0570  148.8460 C   0  0  0  0  0  1  0  0  0  0  0  0
  189.2250  178.0480  147.8690 C   0  0  0  0  0  2  0  0  0  0  0  0
  191.3100  177.2370  145.8470 N   0  0  0  0  0  2  0  0  0  0  0  0
  192.5030  176.2060  147.5540 O   0  0  0  0  0  1  0  0  0  0  0  0
  191.8970  175.9940  146.3170 C   0  0  0  0  0  2  0  0  0  0  0  0
  1  3  1  0  0  0  0
  1 20  1  1  0  0  0
  2  6  1  0  0  0  0
  3  7  1  0  0  0  0
  4  5  1  0  0  0  0
  4  3  2  0  0  0  0
  5  2  2  0  0  0  0
  7  6  2  0  0  0  0
  8  1  1  0  0  0  0
  9  8  1  0  0  0  0
 11 12  2  0  0  0  0
 11  8  1  0  0  0  0
 12 10  2  0  0  0  0
 13 17  1  0  0  0  0
 13 19  2  0  0  0  0
 14 17  2  0  0  0  0
 15 18  1  0  0  0  0
 15 16  1  0  0  0  0
 17 15  1  0  0  0  0
 18 11  1  1  0  0  0
 19 18  1  0  0  0  0
 21 20  1  1  0  0  0
 21 25  1  0  0  0  0
 21 22  1  0  0  0  0
 22 24  1  0  0  0  0
 24 23  1  0  0  0  0
 25 27  1  0  0  0  0
 27 26  1  0  0  0  0
M  END
>  <MODEL>
4

>  <REMARK>
 VINA RESULT:      -7.6      2.845      5.695
  Name = 
  10 active torsions:
  status: ('A' for Active; 'I' for Inactive)
    1  A    between atoms: C_1  and  C_15
    2  A    between atoms: C_1  and  C_18
    3  A    between atoms: N_2  and  C_14
    4  A    between atoms: N_2  and  C_15
    5  A    between atoms: C_9  and  C_15
    6  A    between atoms: C_14  and  C_17
    7  A    between atoms: C_18  and  C_24
    8  A    between atoms: C_18  and  N_26
    9  A    between atoms: C_20  and  N_26
   10  A    between atoms: C_22  and  C_24
                            x       y       z     vdW  Elec       q    Type
                         _______ _______ _______ _____ _____    ______ ____

>  <TORSDO>
F 10

$$$$
=
 OpenBabel10262420063D

 27 28  0  0  1  0  0  0  0  0999 V2000
  189.6490  176.9430  141.3450 C   0  0  1  0  0  3  0  0  0  0  0  0
  192.9610  176.7120  138.6070 C   0  0  0  0  0  3  0  0  0  0  0  0
  190.8210  176.8590  140.4090 C   0  0  0  0  0  0  0  0  0  0  0  0
  192.0430  177.4790  140.7100 C   0  0  0  0  0  3  0  0  0  0  0  0
  193.1110  177.4050  139.8110 C   0  0  0  0  0  3  0  0  0  0  0  0
  191.7440  176.0940  138.3010 C   0  0  0  0  0  3  0  0  0  0  0  0
  190.6770  176.1690  139.2000 C   0  0  0  0  0  3  0  0  0  0  0  0
  189.9550  176.4950  142.7070 N   0  0  0  0  0  0  0  0  0  0  0  0
  190.4970  175.2180  142.9150 N   0  0  0  0  0  1  0  0  0  0  0  0
  190.8270  179.5760  144.1460 O   0  0  0  0  0  0  0  0  0  0  0  0
  189.6600  177.3280  143.8430 C   0  0  0  0  0  0  0  0  0  0  0  0
  190.2610  178.4860  144.0000 C   0  0  0  0  0  0  0  0  0  0  0  0
  186.8850  178.1930  145.9720 C   0  0  0  0  0  3  0  0  0  0  0  0
  188.0920  178.3250  148.1240 C   0  0  0  0  0  2  0  0  0  0  0  0
  189.0690  177.2120  146.2110 N   0  0  0  0  0  0  0  0  0  0  0  0
  190.2060  176.6040  146.8860 C   0  0  0  0  0  1  0  0  0  0  0  0
  188.0520  177.9600  146.8480 C   0  0  0  0  0  0  0  0  0  0  0  0
  188.6550  176.8630  144.8640 C   0  0  1  0  0  3  0  0  0  0  0  0
  187.2870  177.5320  144.6500 C   0  0  0  0  0  3  0  0  0  0  0  0
  188.7830  178.2170  141.2950 C   0  0  0  0  0  2  0  0  0  0  0  0
  187.4320  178.1440  140.5680 C   0  0  2  0  0  3  0  0  0  0  0  0
  187.6080  178.1620  139.0540 C   0  0  0  0  0  2  0  0  0  0  0  0
  189.0400  178.8920  137.1470 C   0  0  0  0  0  1  0  0  0  0  0  0
  188.8000  179.0090  138.6410 C   0  0  0  0  0  2  0  0  0  0  0  0
  186.5210  179.1890  141.0090 N   0  0  0  0  0  2  0  0  0  0  0  0
  184.7000  179.8500  139.7260 O   0  0  0  0  0  1  0  0  0  0  0  0
  185.1970  178.8290  140.5340 C   0  0  0  0  0  2  0  0  0  0  0  0
  1 20  1  1  0  0  0
  1  8  1  0  0  0  0
  2  5  1  0  0  0  0
  3  4  1  0  0  0  0
  3  1  1  0  0  0  0
  5  4  2  0  0  0  0
  6  2  2  0  0  0  0
  6  7  1  0  0  0  0
  7  3  2  0  0  0  0
  8  9  1  0  0  0  0
  8 11  1  0  0  0  0
 11 12  2  0  0  0  0
 12 10  2  0  0  0  0
 13 17  1  0  0  0  0
 15 17  1  0  0  0  0
 15 16  1  0  0  0  0
 17 14  2  0  0  0  0
 18 11  1  6  0  0  0
 18 15  1  0  0  0  0
 19 18  1  0  0  0  0
 19 13  2  0  0  0  0
 21 22  1  6  0  0  0
 21 25  1  0  0  0  0
 21 20  1  0  0  0  0
 23 24  1  0  0  0  0
 24 22  1  0  0  0  0
 26 27  1  0  0  0  0
 27 25  1  0  0  0  0
M  END
>  <MODEL>
5

>  <REMARK>
 VINA RESULT:      -7.4      2.440      5.695
  Name = 
  10 active torsions:
  status: ('A' for Active; 'I' for Inactive)
    1  A    between atoms: C_1  and  C_15
    2  A    between atoms: C_1  and  C_18
    3  A    between atoms: N_2  and  C_14
    4  A    between atoms: N_2  and  C_15
    5  A    between atoms: C_9  and  C_15
    6  A    between atoms: C_14  and  C_17
    7  A    between atoms: C_18  and  C_24
    8  A    between atoms: C_18  and  N_26
    9  A    between atoms: C_20  and  N_26
   10  A    between atoms: C_22  and  C_24
                            x       y       z     vdW  Elec       q    Type
                         _______ _______ _______ _____ _____    ______ ____

>  <TORSDO>
F 10

$$$$
=
 OpenBabel10262420063D

 27 28  0  0  1  0  0  0  0  0999 V2000
  187.6330  178.0630  142.4730 C   0  0  1  0  0  3  0  0  0  0  0  0
  183.6280  178.7690  143.8810 C   0  0  0  0  0  3  0  0  0  0  0  0
  186.2440  178.3240  142.9830 C   0  0  0  0  0  0  0  0  0  0  0  0
  185.9690  178.3880  144.3570 C   0  0  0  0  0  3  0  0  0  0  0  0
  184.6640  178.6100  144.8050 C   0  0  0  0  0  3  0  0  0  0  0  0
  183.8960  178.7060  142.5100 C   0  0  0  0  0  3  0  0  0  0  0  0
  185.2010  178.4830  142.0630 C   0  0  0  0  0  3  0  0  0  0  0  0
  188.3770  177.0880  143.2760 N   0  0  0  0  0  0  0  0  0  0  0  0
  188.1710  175.7160  143.0720 N   0  0  0  0  0  1  0  0  0  0  0  0
  190.7780  179.5540  143.9670 O   0  0  0  0  0  0  0  0  0  0  0  0
  189.2800  177.5180  144.3100 C   0  0  0  0  0  0  0  0  0  0  0  0
  190.0520  178.5670  144.1340 C   0  0  0  0  0  0  0  0  0  0  0  0
  189.5190  177.6620  147.9030 C   0  0  0  0  0  3  0  0  0  0  0  0
  191.9030  177.0600  148.1430 C   0  0  0  0  0  2  0  0  0  0  0  0
  190.7100  176.6310  146.0830 N   0  0  0  0  0  0  0  0  0  0  0  0
  191.7220  175.8210  145.4240 C   0  0  0  0  0  1  0  0  0  0  0  0
  190.8060  177.1390  147.4000 C   0  0  0  0  0  0  0  0  0  0  0  0
  189.3440  176.7530  145.6070 C   0  0  1  0  0  3  0  0  0  0  0  0
  188.5640  177.4710  146.7200 C   0  0  0  0  0  3  0  0  0  0  0  0
  187.8130  177.8750  140.9540 C   0  0  0  0  0  2  0  0  0  0  0  0
  189.2130  178.0910  140.3600 C   0  0  2  0  0  3  0  0  0  0  0  0
  189.1420  178.5720  138.9150 C   0  0  0  0  0  2  0  0  0  0  0  0
  187.6820  178.7050  136.8980 C   0  0  0  0  0  1  0  0  0  0  0  0
  187.9790  177.9370  138.1730 C   0  0  0  0  0  2  0  0  0  0  0  0
  190.0440  176.9030  140.4850 N   0  0  0  0  0  2  0  0  0  0  0  0
  192.0610  177.4510  141.4990 O   0  0  0  0  0  1  0  0  0  0  0  0
  191.4190  177.3210  140.2700 C   0  0  0  0  0  2  0  0  0  0  0  0
  1 20  1  6  0  0  0
  1  3  1  0  0  0  0
  1  8  1  0  0  0  0
  2  5  1  0  0  0  0
  3  4  1  0  0  0  0
  4  5  2  0  0  0  0
  6  2  2  0  0  0  0
  7  6  1  0  0  0  0
  7  3  2  0  0  0  0
  8 11  1  0  0  0  0
  9  8  1  0  0  0  0
 10 12  2  0  0  0  0
 12 11  2  0  0  0  0
 15 17  1  0  0  0  0
 16 15  1  0  0  0  0
 17 13  1  0  0  0  0
 17 14  2  0  0  0  0
 18 11  1  6  0  0  0
 18 15  1  0  0  0  0
 18 19  1  0  0  0  0
 19 13  2  0  0  0  0
 21 22  1  6  0  0  0
 21 25  1  0  0  0  0
 21 20  1  0  0  0  0
 23 24  1  0  0  0  0
 24 22  1  0  0  0  0
 27 25  1  0  0  0  0
 27 26  1  0  0  0  0
M  END
>  <MODEL>
6

>  <REMARK>
 VINA RESULT:      -7.2      2.466      4.771
  Name = 
  10 active torsions:
  status: ('A' for Active; 'I' for Inactive)
    1  A    between atoms: C_1  and  C_15
    2  A    between atoms: C_1  and  C_18
    3  A    between atoms: N_2  and  C_14
    4  A    between atoms: N_2  and  C_15
    5  A    between atoms: C_9  and  C_15
    6  A    between atoms: C_14  and  C_17
    7  A    between atoms: C_18  and  C_24
    8  A    between atoms: C_18  and  N_26
    9  A    between atoms: C_20  and  N_26
   10  A    between atoms: C_22  and  C_24
                            x       y       z     vdW  Elec       q    Type
                         _______ _______ _______ _____ _____    ______ ____

>  <TORSDO>
F 10

$$$$
=
 OpenBabel10262420063D

 27 28  0  0  1  0  0  0  0  0999 V2000
  189.4850  177.2230  141.5220 C   0  0  1  0  0  3  0  0  0  0  0  0
  192.5690  176.7840  138.5530 C   0  0  0  0  0  3  0  0  0  0  0  0
  190.5780  177.0630  140.5040 C   0  0  0  0  0  0  0  0  0  0  0  0
  191.8880  177.4900  140.7650 C   0  0  0  0  0  3  0  0  0  0  0  0
  192.8810  177.3500  139.7910 C   0  0  0  0  0  3  0  0  0  0  0  0
  191.2640  176.3570  138.2880 C   0  0  0  0  0  3  0  0  0  0  0  0
  190.2710  176.4980  139.2610 C   0  0  0  0  0  3  0  0  0  0  0  0
  189.8010  176.6200  142.8200 N   0  0  0  0  0  0  0  0  0  0  0  0
  190.1320  175.2590  142.8940 N   0  0  0  0  0  1  0  0  0  0  0  0
  190.9400  179.6300  144.2240 O   0  0  0  0  0  0  0  0  0  0  0  0
  189.7280  177.3930  144.0320 C   0  0  0  0  0  0  0  0  0  0  0  0
  190.3520  178.5450  144.1310 C   0  0  0  0  0  0  0  0  0  0  0  0
  187.3190  178.1070  146.6130 C   0  0  0  0  0  3  0  0  0  0  0  0
  188.8640  178.2690  148.5330 C   0  0  0  0  0  2  0  0  0  0  0  0
  189.5520  177.2230  146.4630 N   0  0  0  0  0  0  0  0  0  0  0  0
  190.8110  176.6600  146.9250 C   0  0  0  0  0  1  0  0  0  0  0  0
  188.6250  177.9170  147.2760 C   0  0  0  0  0  0  0  0  0  0  0  0
  188.9310  176.8710  145.1990 C   0  0  1  0  0  3  0  0  0  0  0  0
  187.5190  177.4790  145.2300 C   0  0  0  0  0  3  0  0  0  0  0  0
  188.8060  178.6020  141.6320 C   0  0  0  0  0  2  0  0  0  0  0  0
  187.3940  178.7610  141.0500 C   0  0  2  0  0  3  0  0  0  0  0  0
  186.3460  178.0830  141.9270 C   0  0  0  0  0  2  0  0  0  0  0  0
  184.3710  178.4000  143.4160 C   0  0  0  0  0  1  0  0  0  0  0  0
  185.4570  179.1010  142.6210 C   0  0  0  0  0  2  0  0  0  0  0  0
  187.3170  178.2950  139.6740 N   0  0  0  0  0  2  0  0  0  0  0  0
  185.7490  177.8610  138.0150 O   0  0  0  0  0  1  0  0  0  0  0  0
  185.9580  178.5310  139.2190 C   0  0  0  0  0  2  0  0  0  0  0  0
  1 20  1  1  0  0  0
  1  8  1  0  0  0  0
  2  5  1  0  0  0  0
  3  4  1  0  0  0  0
  3  1  1  0  0  0  0
  5  4  2  0  0  0  0
  6  2  2  0  0  0  0
  6  7  1  0  0  0  0
  7  3  2  0  0  0  0
  8  9  1  0  0  0  0
  8 11  1  0  0  0  0
 11 12  2  0  0  0  0
 12 10  2  0  0  0  0
 13 17  1  0  0  0  0
 15 16  1  0  0  0  0
 15 17  1  0  0  0  0
 17 14  2  0  0  0  0
 18 11  1  6  0  0  0
 18 19  1  0  0  0  0
 18 15  1  0  0  0  0
 19 13  2  0  0  0  0
 21 20  1  1  0  0  0
 21 22  1  0  0  0  0
 22 24  1  0  0  0  0
 24 23  1  0  0  0  0
 25 21  1  0  0  0  0
 26 27  1  0  0  0  0
 27 25  1  0  0  0  0
M  END
>  <MODEL>
7

>  <REMARK>
 VINA RESULT:      -7.0      2.350      5.077
  Name = 
  10 active torsions:
  status: ('A' for Active; 'I' for Inactive)
    1  A    between atoms: C_1  and  C_15
    2  A    between atoms: C_1  and  C_18
    3  A    between atoms: N_2  and  C_14
    4  A    between atoms: N_2  and  C_15
    5  A    between atoms: C_9  and  C_15
    6  A    between atoms: C_14  and  C_17
    7  A    between atoms: C_18  and  C_24
    8  A    between atoms: C_18  and  N_26
    9  A    between atoms: C_20  and  N_26
   10  A    between atoms: C_22  and  C_24
                            x       y       z     vdW  Elec       q    Type
                         _______ _______ _______ _____ _____    ______ ____

>  <TORSDO>
F 10

$$$$
=
 OpenBabel10262420063D

 27 28  0  0  1  0  0  0  0  0999 V2000
  188.0400  178.4460  142.0590 C   0  0  1  0  0  3  0  0  0  0  0  0
  183.7550  178.5860  141.6890 C   0  0  0  0  0  3  0  0  0  0  0  0
  186.5430  178.5060  141.9530 C   0  0  0  0  0  0  0  0  0  0  0  0
  185.7200  178.2620  143.0630 C   0  0  0  0  0  3  0  0  0  0  0  0
  184.3290  178.3020  142.9300 C   0  0  0  0  0  3  0  0  0  0  0  0
  184.5700  178.8280  140.5790 C   0  0  0  0  0  3  0  0  0  0  0  0
  185.9610  178.7870  140.7110 C   0  0  0  0  0  3  0  0  0  0  0  0
  188.5200  177.4070  142.9750 N   0  0  0  0  0  0  0  0  0  0  0  0
  188.2900  176.0560  142.6770 N   0  0  0  0  0  1  0  0  0  0  0  0
  191.1180  179.4130  144.2200 O   0  0  0  0  0  0  0  0  0  0  0  0
  189.1810  177.7540  144.2060 C   0  0  0  0  0  0  0  0  0  0  0  0
  190.1780  178.6080  144.2140 C   0  0  0  0  0  0  0  0  0  0  0  0
  187.5660  178.2170  147.3940 C   0  0  0  0  0  3  0  0  0  0  0  0
  189.5750  178.2390  148.8300 C   0  0  0  0  0  2  0  0  0  0  0  0
  189.6670  177.3790  146.5710 N   0  0  0  0  0  0  0  0  0  0  0  0
  190.9990  176.7970  146.6270 C   0  0  0  0  0  1  0  0  0  0  0  0
  189.0020  177.9900  147.6600 C   0  0  0  0  0  0  0  0  0  0  0  0
  188.7240  177.1260  145.4970 C   0  0  1  0  0  3  0  0  0  0  0  0
  187.3790  177.7100  145.9600 C   0  0  0  0  0  3  0  0  0  0  0  0
  188.8540  178.5400  140.7530 C   0  0  0  0  0  2  0  0  0  0  0  0
  189.0050  177.2700  139.9030 C   0  0  2  0  0  3  0  0  0  0  0  0
  190.4710  176.9210  139.6720 C   0  0  0  0  0  2  0  0  0  0  0  0
  192.8120  177.4850  140.3190 C   0  0  0  0  0  1  0  0  0  0  0  0
  191.3600  177.4990  140.7600 C   0  0  0  0  0  2  0  0  0  0  0  0
  188.2780  177.3680  138.6470 N   0  0  0  0  0  2  0  0  0  0  0  0
  188.7630  179.3660  137.5640 O   0  0  0  0  0  1  0  0  0  0  0  0
  189.1530  178.0350  137.6980 C   0  0  0  0  0  2  0  0  0  0  0  0
  1 20  1  6  0  0  0
  1  8  1  0  0  0  0
  2  5  1  0  0  0  0
  3  1  1  0  0  0  0
  3  4  1  0  0  0  0
  5  4  2  0  0  0  0
  6  7  1  0  0  0  0
  6  2  2  0  0  0  0
  7  3  2  0  0  0  0
  8 11  1  0  0  0  0
  9  8  1  0  0  0  0
 11 12  2  0  0  0  0
 12 10  2  0  0  0  0
 13 17  1  0  0  0  0
 15 16  1  0  0  0  0
 15 17  1  0  0  0  0
 17 14  2  0  0  0  0
 18 11  1  6  0  0  0
 18 19  1  0  0  0  0
 18 15  1  0  0  0  0
 19 13  2  0  0  0  0
 21 22  1  6  0  0  0
 21 20  1  0  0  0  0
 22 24  1  0  0  0  0
 23 24  1  0  0  0  0
 25 21  1  0  0  0  0
 26 27  1  0  0  0  0
 27 25  1  0  0  0  0
M  END
>  <MODEL>
8

>  <REMARK>
 VINA RESULT:      -6.9      2.098      5.286
  Name = 
  10 active torsions:
  status: ('A' for Active; 'I' for Inactive)
    1  A    between atoms: C_1  and  C_15
    2  A    between atoms: C_1  and  C_18
    3  A    between atoms: N_2  and  C_14
    4  A    between atoms: N_2  and  C_15
    5  A    between atoms: C_9  and  C_15
    6  A    between atoms: C_14  and  C_17
    7  A    between atoms: C_18  and  C_24
    8  A    between atoms: C_18  and  N_26
    9  A    between atoms: C_20  and  N_26
   10  A    between atoms: C_22  and  C_24
                            x       y       z     vdW  Elec       q    Type
                         _______ _______ _______ _____ _____    ______ ____

>  <TORSDO>
F 10

$$$$
=
 OpenBabel10262420063D

 27 28  0  0  1  0  0  0  0  0999 V2000
  187.9550  177.4030  144.7230 C   0  0  1  0  0  3  0  0  0  0  0  0
  183.9490  178.8870  144.2010 C   0  0  0  0  0  3  0  0  0  0  0  0
  186.5510  177.9000  144.5260 C   0  0  0  0  0  0  0  0  0  0  0  0
  185.9050  177.7940  143.2860 C   0  0  0  0  0  3  0  0  0  0  0  0
  184.6060  178.2870  143.1250 C   0  0  0  0  0  3  0  0  0  0  0  0
  184.5900  178.9960  145.4400 C   0  0  0  0  0  3  0  0  0  0  0  0
  185.8880  178.5050  145.6000 C   0  0  0  0  0  3  0  0  0  0  0  0
  188.6260  177.0340  143.4720 N   0  0  0  0  0  0  0  0  0  0  0  0
  188.3080  175.8220  142.8430 N   0  0  0  0  0  1  0  0  0  0  0  0
  191.8260  178.3030  144.1580 O   0  0  0  0  0  0  0  0  0  0  0  0
  189.6460  177.8760  142.9050 C   0  0  0  0  0  0  0  0  0  0  0  0
  190.7690  178.0960  143.5500 C   0  0  0  0  0  0  0  0  0  0  0  0
  187.4650  178.2540  140.0630 C   0  0  0  0  0  3  0  0  0  0  0  0
  188.6550  176.7790  138.4790 C   0  0  0  0  0  2  0  0  0  0  0  0
  189.7420  177.5970  140.4790 N   0  0  0  0  0  0  0  0  0  0  0  0
  191.0950  177.1600  140.1720 C   0  0  0  0  0  1  0  0  0  0  0  0
  188.6280  177.4600  139.6170 C   0  0  0  0  0  0  0  0  0  0  0  0
  189.4200  178.5130  141.5590 C   0  0  1  0  0  3  0  0  0  0  0  0
  187.9450  178.9040  141.3640 C   0  0  0  0  0  3  0  0  0  0  0  0
  188.8580  178.1800  145.7010 C   0  0  0  0  0  2  0  0  0  0  0  0
  189.3160  177.4670  146.9830 C   0  0  2  0  0  3  0  0  0  0  0  0
  190.3650  176.4010  146.6890 C   0  0  0  0  0  2  0  0  0  0  0  0
  192.4370  175.4730  147.7200 C   0  0  0  0  0  1  0  0  0  0  0  0
  191.7000  176.7410  147.3320 C   0  0  0  0  0  2  0  0  0  0  0  0
  188.1940  176.9160  147.7280 N   0  0  0  0  0  2  0  0  0  0  0  0
  189.0100  178.4800  149.2410 O   0  0  0  0  0  1  0  0  0  0  0  0
  187.8480  177.8830  148.7550 C   0  0  0  0  0  2  0  0  0  0  0  0
  1 20  1  6  0  0  0
  2  6  1  0  0  0  0
  3  1  1  0  0  0  0
  3  7  1  0  0  0  0
  4  3  2  0  0  0  0
  5  4  1  0  0  0  0
  5  2  2  0  0  0  0
  6  7  2  0  0  0  0
  8  1  1  0  0  0  0
  9  8  1  0  0  0  0
 11  8  1  0  0  0  0
 11 12  2  0  0  0  0
 12 10  2  0  0  0  0
 13 19  2  0  0  0  0
 14 17  2  0  0  0  0
 15 18  1  0  0  0  0
 16 15  1  0  0  0  0
 17 13  1  0  0  0  0
 17 15  1  0  0  0  0
 18 11  1  1  0  0  0
 19 18  1  0  0  0  0
 21 20  1  6  0  0  0
 21 25  1  0  0  0  0
 22 21  1  0  0  0  0
 22 24  1  0  0  0  0
 24 23  1  0  0  0  0
 25 27  1  0  0  0  0
 27 26  1  0  0  0  0
M  END
>  <MODEL>
9

>  <REMARK>
 VINA RESULT:      -6.8      2.734      6.000
  Name = 
  10 active torsions:
  status: ('A' for Active; 'I' for Inactive)
    1  A    between atoms: C_1  and  C_15
    2  A    between atoms: C_1  and  C_18
    3  A    between atoms: N_2  and  C_14
    4  A    between atoms: N_2  and  C_15
    5  A    between atoms: C_9  and  C_15
    6  A    between atoms: C_14  and  C_17
    7  A    between atoms: C_18  and  C_24
    8  A    between atoms: C_18  and  N_26
    9  A    between atoms: C_20  and  N_26
   10  A    between atoms: C_22  and  C_24
                            x       y       z     vdW  Elec       q    Type
                         _______ _______ _______ _____ _____    ______ ____

>  <TORSDO>
F 10

$$$$
