=
 OpenBabel10262419223D

 31 35  0  0  1  0  0  0  0  0999 V2000
  185.1890  178.4440  142.8300 C   0  0  0  0  0  0  0  0  0  0  0  0
  188.6680  177.8890  141.4900 C   0  0  0  0  0  0  0  0  0  0  0  0
  189.4790  177.4970  142.6060 C   0  0  0  0  0  0  0  0  0  0  0  0
  189.7910  177.0190  144.9850 C   0  0  0  0  0  0  0  0  0  0  0  0
  187.2740  178.1930  141.5780 C   0  0  0  0  0  0  0  0  0  0  0  0
  184.5100  178.7780  141.6600 C   0  0  0  0  0  3  0  0  0  0  0  0
  188.9780  177.4050  143.9180 C   0  0  0  0  0  3  0  0  0  0  0  0
  188.5330  178.3650  139.0760 C   0  0  0  0  0  0  0  0  0  0  0  0
  184.4600  178.3930  144.1230 C   0  0  0  0  0  1  0  0  0  0  0  0
  191.4100  177.2480  141.1380 C   0  0  0  0  0  3  0  0  0  0  0  0
  189.2620  176.9390  146.2660 O   0  0  0  0  0  1  0  0  0  0  0  0
  187.2060  178.6020  139.2110 N   0  0  0  0  0  0  0  0  0  0  0  0
  189.2850  177.9670  140.2040 C   0  0  0  0  0  0  0  0  0  0  0  0
  186.5530  178.1530  142.7860 C   0  0  0  0  0  3  0  0  0  0  0  0
  191.1320  176.7130  144.7650 C   0  0  0  0  0  3  0  0  0  0  0  0
  186.5680  178.5400  140.4000 C   0  0  0  0  0  0  0  0  0  0  0  0
  185.1990  178.8250  140.4480 C   0  0  0  0  0  3  0  0  0  0  0  0
  190.6370  177.6360  140.0530 C   0  0  0  0  0  3  0  0  0  0  0  0
  190.8500  177.1810  142.4050 C   0  0  0  0  0  0  0  0  0  0  0  0
  191.6600  176.7940  143.4770 C   0  0  0  0  0  3  0  0  0  0  0  0
  189.8850  176.9480  135.8380 O   0  0  0  0  0  1  0  0  0  0  0  0
  188.0320  178.3330  136.6230 C   0  0  0  0  0  2  0  0  0  0  0  0
  188.9380  177.1510  136.8460 C   0  0  2  0  0  0  0  0  0  0  0  0
  189.1320  178.4170  137.6870 C   0  0  2  0  0  3  0  0  0  0  0  0
  188.3260  175.9600  137.4730 N   0  0  0  0  0  0  0  0  0  0  0  0
  187.0130  175.6220  136.8770 C   0  0  0  0  0  0  0  0  0  0  0  0
  187.0370  175.8480  135.5110 F   0  0  0  0  0  0  0  0  0  0  0  0
  185.9980  176.3870  137.4310 F   0  0  0  0  0  0  0  0  0  0  0  0
  186.6930  174.1500  137.0770 C   0  0  0  0  0  1  0  0  0  0  0  0
  190.3170  174.9380  138.1570 O   0  0  0  0  0  1  0  0  0  0  0  0
  189.2450  174.8390  137.2700 C   0  0  0  0  0  2  0  0  0  0  0  0
  1  9  1  0  0  0  0
  2  5  1  0  0  0  0
  2  3  1  0  0  0  0
  3  7  1  0  0  0  0
  4 11  1  0  0  0  0
  5 14  2  0  0  0  0
  6  1  2  0  0  0  0
  7  4  2  0  0  0  0
  8 12  2  0  0  0  0
  8 13  1  0  0  0  0
 10 19  1  0  0  0  0
 12 16  1  0  0  0  0
 13  2  2  0  0  0  0
 14  1  1  0  0  0  0
 15  4  1  0  0  0  0
 16 17  2  0  0  0  0
 16  5  1  0  0  0  0
 17  6  1  0  0  0  0
 18 13  1  0  0  0  0
 18 10  2  0  0  0  0
 19  3  2  0  0  0  0
 19 20  1  0  0  0  0
 20 15  2  0  0  0  0
 22 23  1  0  0  0  0
 22 24  1  0  0  0  0
 23 21  1  6  0  0  0
 23 25  1  0  0  0  0
 23 24  1  0  0  0  0
 24  8  1  1  0  0  0
 26 29  1  0  0  0  0
 26 28  1  0  0  0  0
 26 25  1  0  0  0  0
 27 26  1  0  0  0  0
 31 25  1  0  0  0  0
 31 30  1  0  0  0  0
M  END
>  <MODEL>
1

>  <REMARK>
 VINA RESULT:      -9.1      0.000      0.000
  Name = 
  4 active torsions:
  status: ('A' for Active; 'I' for Inactive)
    1  A    between atoms: C_1  and  N_19
    2  A    between atoms: C_7  and  N_19
    3  A    between atoms: C_15  and  C_23
    4  A    between atoms: N_19  and  C_22
                            x       y       z     vdW  Elec       q    Type
                         _______ _______ _______ _____ _____    ______ ____

>  <TORSDO>
F 4

$$$$
=
 OpenBabel10262419223D

 31 35  0  0  1  0  0  0  0  0999 V2000
  189.5350  177.4610  141.6260 C   0  0  0  0  0  0  0  0  0  0  0  0
  186.0260  178.3910  142.6410 C   0  0  0  0  0  0  0  0  0  0  0  0
  185.9650  178.2660  144.0680 C   0  0  0  0  0  0  0  0  0  0  0  0
  186.9710  177.7220  146.2320 C   0  0  0  0  0  0  0  0  0  0  0  0
  187.1940  178.1260  141.8600 C   0  0  0  0  0  0  0  0  0  0  0  0
  189.4680  177.6560  140.2490 C   0  0  0  0  0  3  0  0  0  0  0  0
  187.0580  177.8330  144.8430 C   0  0  0  0  0  3  0  0  0  0  0  0
  184.8540  178.9440  140.5450 C   0  0  0  0  0  0  0  0  0  0  0  0
  190.8040  177.0070  142.2520 C   0  0  0  0  0  1  0  0  0  0  0  0
  183.6470  179.0220  144.0540 C   0  0  0  0  0  3  0  0  0  0  0  0
  188.0690  177.2920  146.9640 O   0  0  0  0  0  1  0  0  0  0  0  0
  186.0010  178.7190  139.8600 N   0  0  0  0  0  0  0  0  0  0  0  0
  184.8510  178.8210  141.9520 C   0  0  0  0  0  0  0  0  0  0  0  0
  188.4110  177.6960  142.4200 C   0  0  0  0  0  3  0  0  0  0  0  0
  185.7820  178.0440  146.8830 C   0  0  0  0  0  3  0  0  0  0  0  0
  187.1440  178.3140  140.4570 C   0  0  0  0  0  0  0  0  0  0  0  0
  188.2740  178.0830  139.6660 C   0  0  0  0  0  3  0  0  0  0  0  0
  183.6920  179.1370  142.6730 C   0  0  0  0  0  3  0  0  0  0  0  0
  184.7630  178.5870  144.7540 C   0  0  0  0  0  0  0  0  0  0  0  0
  184.6810  178.4760  146.1450 C   0  0  0  0  0  3  0  0  0  0  0  0
  182.3970  179.0700  137.6690 O   0  0  0  0  0  1  0  0  0  0  0  0
  182.4290  178.5530  140.0570 C   0  0  0  0  0  2  0  0  0  0  0  0
  183.1090  178.4750  138.7160 C   0  0  2  0  0  0  0  0  0  0  0  0
  183.6480  179.4400  139.7770 C   0  0  2  0  0  3  0  0  0  0  0  0
  183.8590  177.2340  138.4270 N   0  0  0  0  0  0  0  0  0  0  0  0
  183.0330  176.0200  138.6210 C   0  0  0  0  0  0  0  0  0  0  0  0
  181.7910  176.1890  138.0320 F   0  0  0  0  0  0  0  0  0  0  0  0
  182.8470  175.7480  139.9680 F   0  0  0  0  0  0  0  0  0  0  0  0
  183.6790  174.8160  137.9550 C   0  0  0  0  0  1  0  0  0  0  0  0
  185.6770  177.4520  136.9700 O   0  0  0  0  0  1  0  0  0  0  0  0
  184.2910  177.3000  137.0310 C   0  0  0  0  0  2  0  0  0  0  0  0
  1  9  1  0  0  0  0
  1 14  1  0  0  0  0
  2  3  1  0  0  0  0
  3 19  2  0  0  0  0
  3  7  1  0  0  0  0
  4 15  1  0  0  0  0
  4 11  1  0  0  0  0
  5 14  2  0  0  0  0
  5  2  1  0  0  0  0
  6  1  2  0  0  0  0
  7  4  2  0  0  0  0
  8 13  1  0  0  0  0
 10 19  1  0  0  0  0
 12 16  1  0  0  0  0
 12  8  2  0  0  0  0
 13  2  2  0  0  0  0
 13 18  1  0  0  0  0
 16  5  1  0  0  0  0
 17  6  1  0  0  0  0
 17 16  2  0  0  0  0
 18 10  2  0  0  0  0
 19 20  1  0  0  0  0
 20 15  2  0  0  0  0
 23 21  1  6  0  0  0
 23 24  1  0  0  0  0
 23 22  1  0  0  0  0
 24 22  1  0  0  0  0
 24  8  1  1  0  0  0
 25 26  1  0  0  0  0
 25 23  1  0  0  0  0
 26 28  1  0  0  0  0
 27 26  1  0  0  0  0
 29 26  1  0  0  0  0
 30 31  1  0  0  0  0
 31 25  1  0  0  0  0
M  END
>  <MODEL>
2

>  <REMARK>
 VINA RESULT:      -9.0      2.704      5.090
  Name = 
  4 active torsions:
  status: ('A' for Active; 'I' for Inactive)
    1  A    between atoms: C_1  and  N_19
    2  A    between atoms: C_7  and  N_19
    3  A    between atoms: C_15  and  C_23
    4  A    between atoms: N_19  and  C_22
                            x       y       z     vdW  Elec       q    Type
                         _______ _______ _______ _____ _____    ______ ____

>  <TORSDO>
F 4

$$$$
=
 OpenBabel10262419223D

 31 35  0  0  1  0  0  0  0  0999 V2000
  189.1520  177.6450  141.1080 C   0  0  0  0  0  0  0  0  0  0  0  0
  186.5120  178.1490  143.7510 C   0  0  0  0  0  0  0  0  0  0  0  0
  187.1450  177.9040  145.0150 C   0  0  0  0  0  0  0  0  0  0  0  0
  189.0850  177.2890  146.3730 C   0  0  0  0  0  0  0  0  0  0  0  0
  187.1770  178.0610  142.4890 C   0  0  0  0  0  0  0  0  0  0  0  0
  188.4270  177.9430  139.9570 C   0  0  0  0  0  3  0  0  0  0  0  0
  188.4940  177.5190  145.1300 C   0  0  0  0  0  3  0  0  0  0  0  0
  184.4580  178.7510  142.5310 C   0  0  0  0  0  0  0  0  0  0  0  0
  190.5850  177.2680  141.0080 C   0  0  0  0  0  1  0  0  0  0  0  0
  185.0680  178.4320  146.1780 C   0  0  0  0  0  3  0  0  0  0  0  0
  190.4180  176.9100  146.4490 O   0  0  0  0  0  1  0  0  0  0  0  0
  185.1490  178.6940  141.3670 N   0  0  0  0  0  0  0  0  0  0  0  0
  185.1320  178.5170  143.7510 C   0  0  0  0  0  0  0  0  0  0  0  0
  188.5330  177.7070  142.3580 C   0  0  0  0  0  3  0  0  0  0  0  0
  188.3370  177.4420  147.5400 C   0  0  0  0  0  3  0  0  0  0  0  0
  186.4560  178.3540  141.3070 C   0  0  0  0  0  0  0  0  0  0  0  0
  187.0810  178.2970  140.0570 C   0  0  0  0  0  3  0  0  0  0  0  0
  184.4440  178.6610  144.9620 C   0  0  0  0  0  3  0  0  0  0  0  0
  186.4020  178.0530  146.2170 C   0  0  0  0  0  0  0  0  0  0  0  0
  186.9990  177.8230  147.4600 C   0  0  0  0  0  3  0  0  0  0  0  0
  181.2400  179.8830  140.8920 O   0  0  0  0  0  1  0  0  0  0  0  0
  182.0970  177.9940  142.1830 C   0  0  0  0  0  2  0  0  0  0  0  0
  182.3280  179.0340  141.1190 C   0  0  2  0  0  0  0  0  0  0  0  0
  183.0100  179.1880  142.4830 C   0  0  2  0  0  3  0  0  0  0  0  0
  183.1380  178.6170  139.9550 N   0  0  0  0  0  0  0  0  0  0  0  0
  182.6440  177.3620  139.3460 C   0  0  0  0  0  0  0  0  0  0  0  0
  181.2620  177.3870  139.2560 F   0  0  0  0  0  0  0  0  0  0  0  0
  183.0140  176.2580  140.0980 F   0  0  0  0  0  0  0  0  0  0  0  0
  183.1760  177.2020  137.9320 C   0  0  0  0  0  1  0  0  0  0  0  0
  184.2410  180.4380  138.9820 O   0  0  0  0  0  1  0  0  0  0  0  0
  183.0620  179.6920  138.9640 C   0  0  0  0  0  2  0  0  0  0  0  0
  1 14  1  0  0  0  0
  2 13  2  0  0  0  0
  2  3  1  0  0  0  0
  3  7  2  0  0  0  0
  3 19  1  0  0  0  0
  4 11  1  0  0  0  0
  4 15  2  0  0  0  0
  5  2  1  0  0  0  0
  6 17  1  0  0  0  0
  6  1  2  0  0  0  0
  7  4  1  0  0  0  0
  8 13  1  0  0  0  0
  9  1  1  0  0  0  0
 10 19  1  0  0  0  0
 12  8  2  0  0  0  0
 13 18  1  0  0  0  0
 14  5  2  0  0  0  0
 16 12  1  0  0  0  0
 16  5  1  0  0  0  0
 17 16  2  0  0  0  0
 18 10  2  0  0  0  0
 19 20  2  0  0  0  0
 20 15  1  0  0  0  0
 22 24  1  0  0  0  0
 23 21  1  6  0  0  0
 23 22  1  0  0  0  0
 23 24  1  0  0  0  0
 24  8  1  6  0  0  0
 25 23  1  0  0  0  0
 26 25  1  0  0  0  0
 26 28  1  0  0  0  0
 27 26  1  0  0  0  0
 29 26  1  0  0  0  0
 31 30  1  0  0  0  0
 31 25  1  0  0  0  0
M  END
>  <MODEL>
3

>  <REMARK>
 VINA RESULT:      -8.9      3.284      5.686
  Name = 
  4 active torsions:
  status: ('A' for Active; 'I' for Inactive)
    1  A    between atoms: C_1  and  N_19
    2  A    between atoms: C_7  and  N_19
    3  A    between atoms: C_15  and  C_23
    4  A    between atoms: N_19  and  C_22
                            x       y       z     vdW  Elec       q    Type
                         _______ _______ _______ _____ _____    ______ ____

>  <TORSDO>
F 4

$$$$
=
 OpenBabel10262419223D

 31 35  0  0  1  0  0  0  0  0999 V2000
  184.9480  178.6040  143.1240 C   0  0  0  0  0  0  0  0  0  0  0  0
  188.5510  177.8560  142.3080 C   0  0  0  0  0  0  0  0  0  0  0  0
  189.1860  177.4990  143.5430 C   0  0  0  0  0  0  0  0  0  0  0  0
  189.1500  177.1430  145.9640 C   0  0  0  0  0  0  0  0  0  0  0  0
  187.1720  178.2130  142.1860 C   0  0  0  0  0  0  0  0  0  0  0  0
  184.4490  178.8950  141.8560 C   0  0  0  0  0  3  0  0  0  0  0  0
  188.5070  177.4970  144.7760 C   0  0  0  0  0  3  0  0  0  0  0  0
  188.7670  178.2030  139.8780 C   0  0  0  0  0  0  0  0  0  0  0  0
  184.0480  178.6480  144.3050 C   0  0  0  0  0  1  0  0  0  0  0  0
  191.2870  177.1040  142.3710 C   0  0  0  0  0  3  0  0  0  0  0  0
  188.4490  177.1520  147.1620 O   0  0  0  0  0  1  0  0  0  0  0  0
  187.4450  178.4920  139.8150 N   0  0  0  0  0  0  0  0  0  0  0  0
  189.3400  177.8420  141.1170 C   0  0  0  0  0  0  0  0  0  0  0  0
  186.2920  178.2640  143.2840 C   0  0  0  0  0  3  0  0  0  0  0  0
  190.4950  176.7800  145.9470 C   0  0  0  0  0  3  0  0  0  0  0  0
  186.6480  178.5180  140.9070 C   0  0  0  0  0  0  0  0  0  0  0  0
  185.2980  178.8520  140.7500 C   0  0  0  0  0  3  0  0  0  0  0  0
  190.6860  177.4570  141.1720 C   0  0  0  0  0  3  0  0  0  0  0  0
  190.5570  177.1260  143.5500 C   0  0  0  0  0  0  0  0  0  0  0  0
  191.1960  176.7720  144.7420 C   0  0  0  0  0  3  0  0  0  0  0  0
  189.5620  177.0770  136.3530 O   0  0  0  0  0  1  0  0  0  0  0  0
  188.9420  179.1130  137.5520 C   0  0  0  0  0  2  0  0  0  0  0  0
  188.7780  177.6270  137.3720 C   0  0  2  0  0  0  0  0  0  0  0  0
  189.5510  178.1580  138.5840 C   0  0  2  0  0  3  0  0  0  0  0  0
  187.4170  177.0850  137.5690 N   0  0  0  0  0  0  0  0  0  0  0  0
  186.4060  177.7890  136.7490 C   0  0  0  0  0  0  0  0  0  0  0  0
  186.9830  178.2600  135.5810 F   0  0  0  0  0  0  0  0  0  0  0  0
  185.8620  178.8650  137.4350 F   0  0  0  0  0  0  0  0  0  0  0  0
  185.2890  176.8430  136.3400 C   0  0  0  0  0  1  0  0  0  0  0  0
  188.4150  174.9990  137.9280 O   0  0  0  0  0  1  0  0  0  0  0  0
  187.4490  175.6740  137.1820 C   0  0  0  0  0  2  0  0  0  0  0  0
  1 14  1  0  0  0  0
  1  9  1  0  0  0  0
  2  3  1  0  0  0  0
  3 19  2  0  0  0  0
  3  7  1  0  0  0  0
  4 11  1  0  0  0  0
  5  2  1  0  0  0  0
  5 14  2  0  0  0  0
  6  1  2  0  0  0  0
  7  4  2  0  0  0  0
  8 13  1  0  0  0  0
 10 19  1  0  0  0  0
 12  8  2  0  0  0  0
 12 16  1  0  0  0  0
 13 18  1  0  0  0  0
 13  2  2  0  0  0  0
 15  4  1  0  0  0  0
 16  5  1  0  0  0  0
 17 16  2  0  0  0  0
 17  6  1  0  0  0  0
 18 10  2  0  0  0  0
 19 20  1  0  0  0  0
 20 15  2  0  0  0  0
 22 24  1  0  0  0  0
 23 21  1  6  0  0  0
 23 22  1  0  0  0  0
 23 25  1  0  0  0  0
 23 24  1  0  0  0  0
 24  8  1  1  0  0  0
 26 28  1  0  0  0  0
 26 25  1  0  0  0  0
 27 26  1  0  0  0  0
 29 26  1  0  0  0  0
 31 25  1  0  0  0  0
 31 30  1  0  0  0  0
M  END
>  <MODEL>
4

>  <REMARK>
 VINA RESULT:      -8.7      1.130      1.365
  Name = 
  4 active torsions:
  status: ('A' for Active; 'I' for Inactive)
    1  A    between atoms: C_1  and  N_19
    2  A    between atoms: C_7  and  N_19
    3  A    between atoms: C_15  and  C_23
    4  A    between atoms: N_19  and  C_22
                            x       y       z     vdW  Elec       q    Type
                         _______ _______ _______ _____ _____    ______ ____

>  <TORSDO>
F 4

$$$$
=
 OpenBabel10262419223D

 31 35  0  0  1  0  0  0  0  0999 V2000
  185.0120  178.4540  145.5340 C   0  0  0  0  0  0  0  0  0  0  0  0
  186.6390  178.2550  142.1400 C   0  0  0  0  0  0  0  0  0  0  0  0
  187.9960  177.8430  142.3590 C   0  0  0  0  0  0  0  0  0  0  0  0
  189.8500  177.2160  143.8270 C   0  0  0  0  0  0  0  0  0  0  0  0
  185.6800  178.4490  143.1820 C   0  0  0  0  0  0  0  0  0  0  0  0
  183.7160  178.8220  145.1790 C   0  0  0  0  0  3  0  0  0  0  0  0
  188.5260  177.6190  143.6430 C   0  0  0  0  0  3  0  0  0  0  0  0
  184.8900  178.8960  140.5270 C   0  0  0  0  0  0  0  0  0  0  0  0
  185.3630  178.2540  146.9630 C   0  0  0  0  0  1  0  0  0  0  0  0
  188.4030  177.8460  139.9550 C   0  0  0  0  0  3  0  0  0  0  0  0
  190.3390  177.0040  145.1080 O   0  0  0  0  0  1  0  0  0  0  0  0
  184.0120  179.0240  141.5500 N   0  0  0  0  0  0  0  0  0  0  0  0
  186.2110  178.4720  140.7940 C   0  0  0  0  0  0  0  0  0  0  0  0
  185.9790  178.2680  144.5450 C   0  0  0  0  0  3  0  0  0  0  0  0
  190.6800  177.0260  142.7240 C   0  0  0  0  0  3  0  0  0  0  0  0
  184.3590  178.8290  142.8420 C   0  0  0  0  0  0  0  0  0  0  0  0
  183.3900  179.0080  143.8360 C   0  0  0  0  0  3  0  0  0  0  0  0
  187.0970  178.2540  139.7320 C   0  0  0  0  0  3  0  0  0  0  0  0
  188.8600  177.6440  141.2490 C   0  0  0  0  0  0  0  0  0  0  0  0
  190.1850  177.2400  141.4380 C   0  0  0  0  0  3  0  0  0  0  0  0
  182.5960  178.3350  137.5690 O   0  0  0  0  0  1  0  0  0  0  0  0
  183.2480  180.1290  139.0940 C   0  0  0  0  0  2  0  0  0  0  0  0
  182.9230  178.6740  138.8860 C   0  0  2  0  0  0  0  0  0  0  0  0
  184.3790  179.0940  139.1160 C   0  0  2  0  0  3  0  0  0  0  0  0
  182.1890  178.0000  139.9790 N   0  0  0  0  0  0  0  0  0  0  0  0
  180.9220  178.6880  140.3140 C   0  0  0  0  0  0  0  0  0  0  0  0
  180.3250  179.1750  139.1630 F   0  0  0  0  0  0  0  0  0  0  0  0
  181.1390  179.7490  141.1790 F   0  0  0  0  0  0  0  0  0  0  0  0
  179.9350  177.7220  140.9490 C   0  0  0  0  0  1  0  0  0  0  0  0
  183.0560  175.8720  139.5330 O   0  0  0  0  0  1  0  0  0  0  0  0
  181.8910  176.6390  139.5290 C   0  0  0  0  0  2  0  0  0  0  0  0
  1  9  1  0  0  0  0
  2  3  1  0  0  0  0
  2  5  1  0  0  0  0
  3  7  2  0  0  0  0
  4 11  1  0  0  0  0
  5 14  1  0  0  0  0
  6  1  1  0  0  0  0
  7  4  1  0  0  0  0
  8 13  1  0  0  0  0
  8 12  2  0  0  0  0
 10 19  1  0  0  0  0
 12 16  1  0  0  0  0
 13  2  2  0  0  0  0
 14  1  2  0  0  0  0
 15  4  2  0  0  0  0
 16  5  2  0  0  0  0
 16 17  1  0  0  0  0
 17  6  2  0  0  0  0
 18 10  2  0  0  0  0
 18 13  1  0  0  0  0
 19 20  2  0  0  0  0
 19  3  1  0  0  0  0
 20 15  1  0  0  0  0
 22 24  1  0  0  0  0
 23 21  1  6  0  0  0
 23 22  1  0  0  0  0
 23 24  1  0  0  0  0
 23 25  1  0  0  0  0
 24  8  1  1  0  0  0
 25 26  1  0  0  0  0
 26 29  1  0  0  0  0
 26 28  1  0  0  0  0
 27 26  1  0  0  0  0
 31 30  1  0  0  0  0
 31 25  1  0  0  0  0
M  END
>  <MODEL>
5

>  <REMARK>
 VINA RESULT:      -8.3      3.537      4.856
  Name = 
  4 active torsions:
  status: ('A' for Active; 'I' for Inactive)
    1  A    between atoms: C_1  and  N_19
    2  A    between atoms: C_7  and  N_19
    3  A    between atoms: C_15  and  C_23
    4  A    between atoms: N_19  and  C_22
                            x       y       z     vdW  Elec       q    Type
                         _______ _______ _______ _____ _____    ______ ____

>  <TORSDO>
F 4

$$$$
=
 OpenBabel10262419223D

 31 35  0  0  1  0  0  0  0  0999 V2000
  190.4610  176.9860  143.3700 C   0  0  0  0  0  0  0  0  0  0  0  0
  186.9430  178.1080  142.6160 C   0  0  0  0  0  0  0  0  0  0  0  0
  186.2780  178.2500  143.8790 C   0  0  0  0  0  0  0  0  0  0  0  0
  186.2330  178.1110  146.3210 C   0  0  0  0  0  0  0  0  0  0  0  0
  188.3030  177.6960  142.4660 C   0  0  0  0  0  0  0  0  0  0  0  0
  190.9950  176.9230  142.0850 C   0  0  0  0  0  3  0  0  0  0  0  0
  186.9040  177.9620  145.1060 C   0  0  0  0  0  3  0  0  0  0  0  0
  186.8100  178.2700  140.1610 C   0  0  0  0  0  0  0  0  0  0  0  0
  191.3070  176.6490  144.5440 C   0  0  0  0  0  1  0  0  0  0  0  0
  184.2530  179.0040  142.7490 C   0  0  0  0  0  3  0  0  0  0  0  0
  186.8810  177.8180  147.5130 O   0  0  0  0  0  1  0  0  0  0  0  0
  188.1150  177.9160  140.0800 N   0  0  0  0  0  0  0  0  0  0  0  0
  186.2060  178.4100  141.4300 C   0  0  0  0  0  0  0  0  0  0  0  0
  189.1320  177.3710  143.5560 C   0  0  0  0  0  3  0  0  0  0  0  0
  184.9120  178.5550  146.3380 C   0  0  0  0  0  3  0  0  0  0  0  0
  188.8630  177.6210  141.1670 C   0  0  0  0  0  0  0  0  0  0  0  0
  190.1970  177.2410  140.9860 C   0  0  0  0  0  3  0  0  0  0  0  0
  184.8830  178.8610  141.5220 C   0  0  0  0  0  3  0  0  0  0  0  0
  184.9310  178.7000  143.9200 C   0  0  0  0  0  0  0  0  0  0  0  0
  184.2630  178.8480  145.1390 C   0  0  0  0  0  3  0  0  0  0  0  0
  186.4650  178.9260  136.4490 O   0  0  0  0  0  1  0  0  0  0  0  0
  185.6590  177.3520  138.1350 C   0  0  0  0  0  2  0  0  0  0  0  0
  186.7890  178.1860  137.5910 C   0  0  2  0  0  0  0  0  0  0  0  0
  186.0840  178.6220  138.8800 C   0  0  2  0  0  3  0  0  0  0  0  0
  188.1430  177.5990  137.6760 N   0  0  0  0  0  0  0  0  0  0  0  0
  188.2150  176.2570  137.0530 C   0  0  0  0  0  0  0  0  0  0  0  0
  187.6980  176.3000  135.7690 F   0  0  0  0  0  0  0  0  0  0  0  0
  187.4970  175.3240  137.7850 F   0  0  0  0  0  0  0  0  0  0  0  0
  189.6580  175.7950  136.9350 C   0  0  0  0  0  1  0  0  0  0  0  0
  189.0550  179.7520  137.5930 O   0  0  0  0  0  1  0  0  0  0  0  0
  189.0550  178.5020  136.9740 C   0  0  0  0  0  2  0  0  0  0  0  0
  1 14  1  0  0  0  0
  1  9  1  0  0  0  0
  2  3  1  0  0  0  0
  3 19  2  0  0  0  0
  3  7  1  0  0  0  0
  4 15  1  0  0  0  0
  4 11  1  0  0  0  0
  5  2  1  0  0  0  0
  5 14  2  0  0  0  0
  6  1  2  0  0  0  0
  7  4  2  0  0  0  0
  8 13  1  0  0  0  0
 10 19  1  0  0  0  0
 12  8  2  0  0  0  0
 12 16  1  0  0  0  0
 13 18  1  0  0  0  0
 13  2  2  0  0  0  0
 16  5  1  0  0  0  0
 17 16  2  0  0  0  0
 17  6  1  0  0  0  0
 18 10  2  0  0  0  0
 19 20  1  0  0  0  0
 20 15  2  0  0  0  0
 22 24  1  0  0  0  0
 23 21  1  6  0  0  0
 23 25  1  0  0  0  0
 23 22  1  0  0  0  0
 23 24  1  0  0  0  0
 24  8  1  1  0  0  0
 26 25  1  0  0  0  0
 26 28  1  0  0  0  0
 27 26  1  0  0  0  0
 29 26  1  0  0  0  0
 31 30  1  0  0  0  0
 31 25  1  0  0  0  0
M  END
>  <MODEL>
6

>  <REMARK>
 VINA RESULT:      -8.2      1.684      4.305
  Name = 
  4 active torsions:
  status: ('A' for Active; 'I' for Inactive)
    1  A    between atoms: C_1  and  N_19
    2  A    between atoms: C_7  and  N_19
    3  A    between atoms: C_15  and  C_23
    4  A    between atoms: N_19  and  C_22
                            x       y       z     vdW  Elec       q    Type
                         _______ _______ _______ _____ _____    ______ ____

>  <TORSDO>
F 4

$$$$
=
 OpenBabel10262419223D

 31 35  0  0  1  0  0  0  0  0999 V2000
  185.2500  178.9120  142.9270 C   0  0  0  0  0  0  0  0  0  0  0  0
  188.7200  177.4890  143.3100 C   0  0  0  0  0  0  0  0  0  0  0  0
  188.9750  177.4040  144.7190 C   0  0  0  0  0  0  0  0  0  0  0  0
  188.3230  177.7390  147.0540 C   0  0  0  0  0  0  0  0  0  0  0  0
  187.5040  177.9810  142.7420 C   0  0  0  0  0  0  0  0  0  0  0  0
  185.1190  178.9070  141.5400 C   0  0  0  0  0  3  0  0  0  0  0  0
  188.0490  177.8350  145.6890 C   0  0  0  0  0  3  0  0  0  0  0  0
  189.5420  177.1180  141.0170 C   0  0  0  0  0  0  0  0  0  0  0  0
  184.1360  179.4030  143.7780 C   0  0  0  0  0  1  0  0  0  0  0  0
  191.1620  176.4210  144.2830 C   0  0  0  0  0  3  0  0  0  0  0  0
  187.3870  178.1730  147.9820 O   0  0  0  0  0  1  0  0  0  0  0  0
  188.3540  177.5550  140.5350 N   0  0  0  0  0  0  0  0  0  0  0  0
  189.7370  177.0400  142.4140 C   0  0  0  0  0  0  0  0  0  0  0  0
  186.4280  178.4520  143.5180 C   0  0  0  0  0  3  0  0  0  0  0  0
  189.5370  177.2060  147.4860 C   0  0  0  0  0  3  0  0  0  0  0  0
  187.3530  177.9890  141.3340 C   0  0  0  0  0  0  0  0  0  0  0  0
  186.1690  178.4460  140.7460 C   0  0  0  0  0  3  0  0  0  0  0  0
  190.9300  176.5070  142.9180 C   0  0  0  0  0  3  0  0  0  0  0  0
  190.2050  176.8660  145.1820 C   0  0  0  0  0  0  0  0  0  0  0  0
  190.4750  176.7710  146.5510 C   0  0  0  0  0  3  0  0  0  0  0  0
  190.8040  175.8340  137.6890 O   0  0  0  0  0  1  0  0  0  0  0  0
  191.0940  177.7620  139.1610 C   0  0  0  0  0  2  0  0  0  0  0  0
  190.1750  176.7340  138.5560 C   0  0  2  0  0  0  0  0  0  0  0  0
  190.5720  176.6120  140.0310 C   0  0  2  0  0  3  0  0  0  0  0  0
  188.8110  177.1880  138.2140 N   0  0  0  0  0  0  0  0  0  0  0  0
  188.8160  178.4380  137.4190 C   0  0  0  0  0  0  0  0  0  0  0  0
  189.6670  178.3090  136.3340 F   0  0  0  0  0  0  0  0  0  0  0  0
  189.2370  179.5170  138.1820 F   0  0  0  0  0  0  0  0  0  0  0  0
  187.4320  178.7290  136.8640 C   0  0  0  0  0  1  0  0  0  0  0  0
  186.8850  175.8990  137.8940 O   0  0  0  0  0  1  0  0  0  0  0  0
  188.1800  176.1260  137.4300 C   0  0  0  0  0  2  0  0  0  0  0  0
  1 14  1  0  0  0  0
  1  9  1  0  0  0  0
  2  3  1  0  0  0  0
  3 19  2  0  0  0  0
  3  7  1  0  0  0  0
  4 15  1  0  0  0  0
  4 11  1  0  0  0  0
  5  2  1  0  0  0  0
  5 14  2  0  0  0  0
  6  1  2  0  0  0  0
  7  4  2  0  0  0  0
  8 13  1  0  0  0  0
 10 19  1  0  0  0  0
 12  8  2  0  0  0  0
 12 16  1  0  0  0  0
 13 18  1  0  0  0  0
 13  2  2  0  0  0  0
 16  5  1  0  0  0  0
 17 16  2  0  0  0  0
 17  6  1  0  0  0  0
 18 10  2  0  0  0  0
 19 20  1  0  0  0  0
 20 15  2  0  0  0  0
 22 24  1  0  0  0  0
 23 21  1  6  0  0  0
 23 22  1  0  0  0  0
 23 24  1  0  0  0  0
 24  8  1  1  0  0  0
 25 23  1  0  0  0  0
 26 28  1  0  0  0  0
 26 25  1  0  0  0  0
 27 26  1  0  0  0  0
 29 26  1  0  0  0  0
 31 30  1  0  0  0  0
 31 25  1  0  0  0  0
M  END
>  <MODEL>
7

>  <REMARK>
 VINA RESULT:      -8.2      1.791      2.680
  Name = 
  4 active torsions:
  status: ('A' for Active; 'I' for Inactive)
    1  A    between atoms: C_1  and  N_19
    2  A    between atoms: C_7  and  N_19
    3  A    between atoms: C_15  and  C_23
    4  A    between atoms: N_19  and  C_22
                            x       y       z     vdW  Elec       q    Type
                         _______ _______ _______ _____ _____    ______ ____

>  <TORSDO>
F 4

$$$$
=
 OpenBabel10262419223D

 31 35  0  0  1  0  0  0  0  0999 V2000
  186.5390  178.3340  139.3300 C   0  0  0  0  0  0  0  0  0  0  0  0
  185.5310  178.3080  142.9630 C   0  0  0  0  0  0  0  0  0  0  0  0
  184.1270  178.5990  143.0010 C   0  0  0  0  0  0  0  0  0  0  0  0
  182.0060  179.1450  141.9090 C   0  0  0  0  0  0  0  0  0  0  0  0
  186.3020  178.2250  141.7620 C   0  0  0  0  0  0  0  0  0  0  0  0
  187.8900  178.0080  139.4340 C   0  0  0  0  0  3  0  0  0  0  0  0
  183.3720  178.8660  141.8430 C   0  0  0  0  0  3  0  0  0  0  0  0
  187.5880  177.7970  144.2190 C   0  0  0  0  0  0  0  0  0  0  0  0
  185.9300  178.5660  137.9960 C   0  0  0  0  0  1  0  0  0  0  0  0
  184.1260  178.3690  145.4280 C   0  0  0  0  0  3  0  0  0  0  0  0
  181.2930  179.4030  140.7460 O   0  0  0  0  0  1  0  0  0  0  0  0
  188.2610  177.6890  143.0470 N   0  0  0  0  0  0  0  0  0  0  0  0
  186.2020  178.0710  144.2010 C   0  0  0  0  0  0  0  0  0  0  0  0
  185.7570  178.4380  140.4820 C   0  0  0  0  0  3  0  0  0  0  0  0
  181.3580  179.1630  143.1420 C   0  0  0  0  0  3  0  0  0  0  0  0
  187.6780  177.8990  141.8460 C   0  0  0  0  0  0  0  0  0  0  0  0
  188.4570  177.7900  140.6890 C   0  0  0  0  0  3  0  0  0  0  0  0
  185.4860  178.0960  145.4040 C   0  0  0  0  0  3  0  0  0  0  0  0
  183.4460  178.6240  144.2470 C   0  0  0  0  0  0  0  0  0  0  0  0
  182.0770  178.9030  144.3080 C   0  0  0  0  0  3  0  0  0  0  0  0
  190.4260  176.4620  146.3380 O   0  0  0  0  0  1  0  0  0  0  0  0
  189.3580  178.5930  145.8010 C   0  0  0  0  0  2  0  0  0  0  0  0
  189.8350  177.2420  145.3380 C   0  0  2  0  0  0  0  0  0  0  0  0
  188.3330  177.4940  145.5010 C   0  0  2  0  0  3  0  0  0  0  0  0
  190.4090  177.1750  143.9770 N   0  0  0  0  0  0  0  0  0  0  0  0
  191.3890  178.2560  143.7260 C   0  0  0  0  0  0  0  0  0  0  0  0
  192.3160  178.3070  144.7540 F   0  0  0  0  0  0  0  0  0  0  0  0
  190.7640  179.4910  143.6350 F   0  0  0  0  0  0  0  0  0  0  0  0
  192.1630  177.9940  142.4440 C   0  0  0  0  0  1  0  0  0  0  0  0
  190.4010  175.0830  142.9290 O   0  0  0  0  0  1  0  0  0  0  0  0
  191.0800  175.8810  143.8490 C   0  0  0  0  0  2  0  0  0  0  0  0
  1  6  2  0  0  0  0
  1 14  1  0  0  0  0
  2  3  2  0  0  0  0
  2 13  1  0  0  0  0
  3 19  1  0  0  0  0
  4 15  1  0  0  0  0
  5 16  1  0  0  0  0
  5  2  1  0  0  0  0
  6 17  1  0  0  0  0
  7  4  2  0  0  0  0
  7  3  1  0  0  0  0
  9  1  1  0  0  0  0
 11  4  1  0  0  0  0
 12  8  2  0  0  0  0
 13  8  1  0  0  0  0
 13 18  2  0  0  0  0
 14  5  2  0  0  0  0
 15 20  2  0  0  0  0
 16 12  1  0  0  0  0
 17 16  2  0  0  0  0
 18 10  1  0  0  0  0
 19 20  1  0  0  0  0
 19 10  2  0  0  0  0
 23 24  1  0  0  0  0
 23 22  1  0  0  0  0
 23 21  1  1  0  0  0
 24  8  1  6  0  0  0
 24 22  1  0  0  0  0
 25 23  1  0  0  0  0
 26 25  1  0  0  0  0
 26 27  1  0  0  0  0
 28 26  1  0  0  0  0
 29 26  1  0  0  0  0
 30 31  1  0  0  0  0
 31 25  1  0  0  0  0
M  END
>  <MODEL>
8

>  <REMARK>
 VINA RESULT:      -8.1      3.575      7.173
  Name = 
  4 active torsions:
  status: ('A' for Active; 'I' for Inactive)
    1  A    between atoms: C_1  and  N_19
    2  A    between atoms: C_7  and  N_19
    3  A    between atoms: C_15  and  C_23
    4  A    between atoms: N_19  and  C_22
                            x       y       z     vdW  Elec       q    Type
                         _______ _______ _______ _____ _____    ______ ____

>  <TORSDO>
F 4

$$$$
=
 OpenBabel10262419223D

 31 35  0  0  1  0  0  0  0  0999 V2000
  190.7310  176.9830  143.6570 C   0  0  0  0  0  0  0  0  0  0  0  0
  187.4170  178.1040  142.2510 C   0  0  0  0  0  0  0  0  0  0  0  0
  186.5280  178.2550  143.3670 C   0  0  0  0  0  0  0  0  0  0  0  0
  186.0280  178.1320  145.7590 C   0  0  0  0  0  0  0  0  0  0  0  0
  188.7810  177.6900  142.3600 C   0  0  0  0  0  0  0  0  0  0  0  0
  191.4950  176.9110  142.4940 C   0  0  0  0  0  3  0  0  0  0  0  0
  186.9140  177.9750  144.6920 C   0  0  0  0  0  3  0  0  0  0  0  0
  187.7450  178.2480  139.8130 C   0  0  0  0  0  0  0  0  0  0  0  0
  191.3410  176.6540  144.9700 C   0  0  0  0  0  1  0  0  0  0  0  0
  184.7520  179.0030  141.8740 C   0  0  0  0  0  3  0  0  0  0  0  0
  186.4420  177.8470  147.0530 O   0  0  0  0  0  1  0  0  0  0  0  0
  189.0420  177.8930  139.9800 N   0  0  0  0  0  0  0  0  0  0  0  0
  186.9150  178.3980  140.9470 C   0  0  0  0  0  0  0  0  0  0  0  0
  189.3910  177.3710  143.5880 C   0  0  0  0  0  3  0  0  0  0  0  0
  184.7280  178.5780  145.5260 C   0  0  0  0  0  3  0  0  0  0  0  0
  189.5730  177.6050  141.1900 C   0  0  0  0  0  0  0  0  0  0  0  0
  190.9160  177.2220  141.2630 C   0  0  0  0  0  3  0  0  0  0  0  0
  185.5990  178.8510  140.7870 C   0  0  0  0  0  3  0  0  0  0  0  0
  185.1990  178.7060  143.1530 C   0  0  0  0  0  0  0  0  0  0  0  0
  184.3160  178.8640  144.2260 C   0  0  0  0  0  3  0  0  0  0  0  0
  187.8690  178.2880  136.0310 O   0  0  0  0  0  1  0  0  0  0  0  0
  186.4480  177.4420  137.8300 C   0  0  0  0  0  2  0  0  0  0  0  0
  187.8340  177.7050  137.3020 C   0  0  2  0  0  0  0  0  0  0  0  0
  187.2720  178.5930  138.4180 C   0  0  2  0  0  3  0  0  0  0  0  0
  188.8670  176.7020  137.6340 N   0  0  0  0  0  0  0  0  0  0  0  0
  188.5170  175.3490  137.1460 C   0  0  0  0  0  0  0  0  0  0  0  0
  187.2550  174.9930  137.5930 F   0  0  0  0  0  0  0  0  0  0  0  0
  189.4250  174.4010  137.5940 F   0  0  0  0  0  0  0  0  0  0  0  0
  188.4730  175.3180  135.6280 C   0  0  0  0  0  1  0  0  0  0  0  0
  191.2020  176.7530  137.7830 O   0  0  0  0  0  1  0  0  0  0  0  0
  190.1130  177.1320  136.9980 C   0  0  0  0  0  2  0  0  0  0  0  0
  1  9  1  0  0  0  0
  2  5  1  0  0  0  0
  2  3  1  0  0  0  0
  3  7  1  0  0  0  0
  4 11  1  0  0  0  0
  5 14  2  0  0  0  0
  6  1  2  0  0  0  0
  7  4  2  0  0  0  0
  8 12  2  0  0  0  0
  8 13  1  0  0  0  0
 10 19  1  0  0  0  0
 12 16  1  0  0  0  0
 13  2  2  0  0  0  0
 14  1  1  0  0  0  0
 15  4  1  0  0  0  0
 16 17  2  0  0  0  0
 16  5  1  0  0  0  0
 17  6  1  0  0  0  0
 18 13  1  0  0  0  0
 18 10  2  0  0  0  0
 19  3  2  0  0  0  0
 19 20  1  0  0  0  0
 20 15  2  0  0  0  0
 22 24  1  0  0  0  0
 23 21  1  6  0  0  0
 23 25  1  0  0  0  0
 23 22  1  0  0  0  0
 23 24  1  0  0  0  0
 24  8  1  1  0  0  0
 26 27  1  0  0  0  0
 26 28  1  0  0  0  0
 26 25  1  0  0  0  0
 29 26  1  0  0  0  0
 31 25  1  0  0  0  0
 31 30  1  0  0  0  0
M  END
>  <MODEL>
9

>  <REMARK>
 VINA RESULT:      -8.0      1.522      4.106
  Name = 
  4 active torsions:
  status: ('A' for Active; 'I' for Inactive)
    1  A    between atoms: C_1  and  N_19
    2  A    between atoms: C_7  and  N_19
    3  A    between atoms: C_15  and  C_23
    4  A    between atoms: N_19  and  C_22
                            x       y       z     vdW  Elec       q    Type
                         _______ _______ _______ _____ _____    ______ ____

>  <TORSDO>
F 4

$$$$
