=
 OpenBabel10262419133D

 34 37  0  0  1  0  0  0  0  0999 V2000
  188.1090  177.8780  142.0250 N   0  0  0  0  0  0  0  0  0  0  0  0
  190.1100  178.1570  143.3580 C   0  0  2  0  0  3  0  0  0  0  0  0
  189.2750  177.7110  141.1640 C   0  0  1  0  0  3  0  0  0  0  0  0
  190.4770  177.4840  142.0540 C   0  0  1  0  0  3  0  0  0  0  0  0
  188.5920  178.1040  143.3910 C   0  0  2  0  0  3  0  0  0  0  0  0
  190.5140  179.4940  143.3620 O   0  0  0  0  0  1  0  0  0  0  0  0
  189.6960  177.0780  146.2620 C   0  0  0  0  0  3  0  0  0  0  0  0
  187.4250  177.8580  146.6400 C   0  0  0  0  0  0  0  0  0  0  0  0
  188.0880  176.9910  144.3310 C   0  0  2  0  0  3  0  0  0  0  0  0
  187.7640  178.1700  147.9600 C   0  0  0  0  0  3  0  0  0  0  0  0
  185.9850  177.9930  146.2260 C   0  0  0  0  0  2  0  0  0  0  0  0
  186.5850  176.7490  144.1430 C   0  0  0  0  0  2  0  0  0  0  0  0
  188.4000  177.3030  145.7780 C   0  0  0  0  0  0  0  0  0  0  0  0
  189.0630  177.9520  148.4270 C   0  0  0  0  0  3  0  0  0  0  0  0
  190.0280  177.4030  147.5790 C   0  0  0  0  0  3  0  0  0  0  0  0
  185.7940  177.9190  144.7140 C   0  0  0  0  0  2  0  0  0  0  0  0
  191.6270  178.0410  141.4850 O   0  0  0  0  0  0  0  0  0  0  0  0
  192.5050  176.9680  141.3320 C   0  0  0  0  0  2  0  0  0  0  0  0
  193.4040  177.1440  139.7670 S   0  0  0  0  0  1  0  0  0  0  0  0
  187.4390  179.0990  141.6060 C   0  0  0  0  0  2  0  0  0  0  0  0
  186.1650  178.6990  140.3790 S   0  0  0  0  0  0  0  0  0  0  0  0
  184.8350  178.9970  141.5720 C   0  0  0  0  0  2  0  0  0  0  0  0
  183.4950  178.8990  140.8680 C   0  0  0  0  0  2  0  0  0  0  0  0
  181.6740  178.5780  144.0860 C   0  0  0  0  0  2  0  0  0  0  0  0
  182.4940  178.3770  141.7820 N   0  0  0  0  0  0  0  0  0  0  0  0
  182.6540  179.1060  143.0400 C   0  0  0  0  0  2  0  0  0  0  0  0
  179.2870  178.6080  144.3330 N   0  0  0  0  0  2  0  0  0  0  0  0
  180.0710  178.1590  142.1100 C   0  0  0  0  0  2  0  0  0  0  0  0
  181.1840  178.7230  141.2280 C   0  0  0  0  0  2  0  0  0  0  0  0
  180.2810  178.5970  143.5290 C   0  0  0  0  0  0  0  0  0  0  0  0
  189.0630  176.5190  140.2460 C   0  0  0  0  0  2  0  0  0  0  0  0
  189.8540  176.8140  138.6370 S   0  0  0  0  0  0  0  0  0  0  0  0
  189.3470  178.5540  138.6360 C   0  0  0  0  0  2  0  0  0  0  0  0
  188.9700  178.9670  137.2290 C   0  0  0  0  0  1  0  0  0  0  0  0
  2  6  1  6  0  0  0
  2  5  1  0  0  0  0
  3 31  1  6  0  0  0
  3  1  1  0  0  0  0
  3  4  1  0  0  0  0
  4 17  1  6  0  0  0
  4  2  1  0  0  0  0
  5  1  1  6  0  0  0
  5  9  1  0  0  0  0
  7 15  1  0  0  0  0
  8 10  2  0  0  0  0
  9 12  1  1  0  0  0
  9 13  1  0  0  0  0
 10 14  1  0  0  0  0
 11  8  1  0  0  0  0
 12 16  1  0  0  0  0
 13  7  2  0  0  0  0
 13  8  1  0  0  0  0
 15 14  2  0  0  0  0
 16 11  1  0  0  0  0
 18 17  1  0  0  0  0
 19 18  1  0  0  0  0
 20  1  1  0  0  0  0
 21 22  1  0  0  0  0
 21 20  1  0  0  0  0
 23 22  1  0  0  0  0
 23 25  1  0  0  0  0
 25 26  1  0  0  0  0
 26 24  1  0  0  0  0
 28 30  1  0  0  0  0
 29 25  1  0  0  0  0
 29 28  1  0  0  0  0
 30 24  1  0  0  0  0
 30 27  2  0  0  0  0
 32 31  1  0  0  0  0
 33 32  1  0  0  0  0
 34 33  1  0  0  0  0
M  END
>  <MODEL>
1

>  <REMARK>
 VINA RESULT:      -6.9      0.000      0.000
  Name = 
  11 active torsions:
  status: ('A' for Active; 'I' for Inactive)
    1  A    between atoms: C_3  and  N_13
    2  A    between atoms: C_3  and  C_17
    3  A    between atoms: C_4  and  C_31
    4  A    between atoms: N_5  and  C_18
    5  A    between atoms: C_7  and  O_8
    6  A    between atoms: O_8  and  C_28
    7  A    between atoms: C_12  and  S_16
    8  A    between atoms: S_16  and  C_23
    9  A    between atoms: C_17  and  S_29
   10  A    between atoms: C_18  and  S_29
   11  A    between atoms: C_23  and  C_26
                            x       y       z     vdW  Elec       q    Type
                         _______ _______ _______ _____ _____    ______ ____

>  <TORSDO>
F 11

$$$$
=
 OpenBabel10262419133D

 34 37  0  0  1  0  0  0  0  0999 V2000
  188.5410  177.7230  141.8240 N   0  0  0  0  0  0  0  0  0  0  0  0
  190.7200  177.9330  142.8550 C   0  0  2  0  0  3  0  0  0  0  0  0
  189.5640  177.5960  140.7910 C   0  0  1  0  0  3  0  0  0  0  0  0
  190.8830  177.3230  141.4800 C   0  0  1  0  0  3  0  0  0  0  0  0
  189.2240  177.8800  143.1120 C   0  0  2  0  0  3  0  0  0  0  0  0
  191.1320  179.2670  142.8640 O   0  0  0  0  0  1  0  0  0  0  0  0
  190.9850  176.3030  145.3300 C   0  0  0  0  0  3  0  0  0  0  0  0
  189.1350  177.3300  146.5280 C   0  0  0  0  0  0  0  0  0  0  0  0
  188.8560  176.7240  144.0620 C   0  0  2  0  0  3  0  0  0  0  0  0
  189.9300  177.3950  147.6760 C   0  0  0  0  0  3  0  0  0  0  0  0
  187.6870  177.7230  146.6410 C   0  0  0  0  0  2  0  0  0  0  0  0
  187.3540  176.7240  144.3750 C   0  0  0  0  0  2  0  0  0  0  0  0
  189.6650  176.7750  145.3390 C   0  0  0  0  0  0  0  0  0  0  0  0
  191.2480  176.9320  147.6510 C   0  0  0  0  0  3  0  0  0  0  0  0
  191.7740  176.3840  146.4800 C   0  0  0  0  0  3  0  0  0  0  0  0
  187.0120  177.8980  145.2850 C   0  0  0  0  0  2  0  0  0  0  0  0
  191.9410  177.9060  140.7740 O   0  0  0  0  0  0  0  0  0  0  0  0
  192.7340  176.8320  140.3700 C   0  0  0  0  0  2  0  0  0  0  0  0
  192.7760  176.7610  138.5590 S   0  0  0  0  0  1  0  0  0  0  0  0
  187.8260  178.9630  141.5680 C   0  0  0  0  0  2  0  0  0  0  0  0
  186.1770  178.5880  140.9150 S   0  0  0  0  0  0  0  0  0  0  0  0
  185.3690  179.3690  142.3370 C   0  0  0  0  0  2  0  0  0  0  0  0
  184.2780  178.4570  142.8600 C   0  0  0  0  0  2  0  0  0  0  0  0
  181.1460  178.8720  140.9120 C   0  0  0  0  0  2  0  0  0  0  0  0
  182.9740  179.0140  142.5430 N   0  0  0  0  0  0  0  0  0  0  0  0
  182.4940  178.3070  141.3560 C   0  0  0  0  0  2  0  0  0  0  0  0
  178.9320  178.8890  141.8400 N   0  0  0  0  0  2  0  0  0  0  0  0
  180.6970  179.2810  143.4190 C   0  0  0  0  0  2  0  0  0  0  0  0
  182.0820  178.6810  143.6540 C   0  0  0  0  0  2  0  0  0  0  0  0
  180.1900  178.8670  142.0690 C   0  0  0  0  0  0  0  0  0  0  0  0
  189.2080  176.4500  139.8590 C   0  0  0  0  0  2  0  0  0  0  0  0
  188.3530  177.0800  138.3850 S   0  0  0  0  0  0  0  0  0  0  0  0
  189.3730  178.5780  138.3570 C   0  0  0  0  0  2  0  0  0  0  0  0
  188.9580  179.4460  137.1870 C   0  0  0  0  0  1  0  0  0  0  0  0
  2  6  1  6  0  0  0
  2  5  1  0  0  0  0
  3 31  1  6  0  0  0
  3  4  1  0  0  0  0
  3  1  1  0  0  0  0
  4 17  1  6  0  0  0
  4  2  1  0  0  0  0
  5  1  1  6  0  0  0
  5  9  1  0  0  0  0
  7 13  2  0  0  0  0
  7 15  1  0  0  0  0
  8 11  1  0  0  0  0
  8 10  2  0  0  0  0
  9 12  1  1  0  0  0
  9 13  1  0  0  0  0
 12 16  1  0  0  0  0
 13  8  1  0  0  0  0
 14 10  1  0  0  0  0
 15 14  2  0  0  0  0
 16 11  1  0  0  0  0
 18 17  1  0  0  0  0
 19 18  1  0  0  0  0
 20  1  1  0  0  0  0
 21 20  1  0  0  0  0
 21 22  1  0  0  0  0
 22 23  1  0  0  0  0
 24 26  1  0  0  0  0
 24 30  1  0  0  0  0
 25 23  1  0  0  0  0
 25 29  1  0  0  0  0
 26 25  1  0  0  0  0
 27 30  2  0  0  0  0
 28 29  1  0  0  0  0
 30 28  1  0  0  0  0
 32 31  1  0  0  0  0
 33 32  1  0  0  0  0
 34 33  1  0  0  0  0
M  END
>  <MODEL>
2

>  <REMARK>
 VINA RESULT:      -6.7      1.062      1.546
  Name = 
  11 active torsions:
  status: ('A' for Active; 'I' for Inactive)
    1  A    between atoms: C_3  and  N_13
    2  A    between atoms: C_3  and  C_17
    3  A    between atoms: C_4  and  C_31
    4  A    between atoms: N_5  and  C_18
    5  A    between atoms: C_7  and  O_8
    6  A    between atoms: O_8  and  C_28
    7  A    between atoms: C_12  and  S_16
    8  A    between atoms: S_16  and  C_23
    9  A    between atoms: C_17  and  S_29
   10  A    between atoms: C_18  and  S_29
   11  A    between atoms: C_23  and  C_26
                            x       y       z     vdW  Elec       q    Type
                         _______ _______ _______ _____ _____    ______ ____

>  <TORSDO>
F 11

$$$$
=
 OpenBabel10262419133D

 34 37  0  0  1  0  0  0  0  0999 V2000
  188.3330  177.7800  141.8340 N   0  0  0  0  0  0  0  0  0  0  0  0
  190.3080  178.1030  143.1950 C   0  0  2  0  0  3  0  0  0  0  0  0
  189.5150  177.6490  140.9870 C   0  0  1  0  0  3  0  0  0  0  0  0
  190.7100  177.4480  141.8920 C   0  0  1  0  0  3  0  0  0  0  0  0
  188.7920  178.0090  143.2080 C   0  0  2  0  0  3  0  0  0  0  0  0
  190.6770  179.4500  143.2130 O   0  0  0  0  0  1  0  0  0  0  0  0
  189.9240  176.9520  146.0560 C   0  0  0  0  0  3  0  0  0  0  0  0
  187.6470  177.7040  146.4600 C   0  0  0  0  0  0  0  0  0  0  0  0
  188.3050  176.8780  144.1340 C   0  0  2  0  0  3  0  0  0  0  0  0
  187.9920  177.9990  147.7820 C   0  0  0  0  0  3  0  0  0  0  0  0
  186.2040  177.8300  146.0560 C   0  0  0  0  0  2  0  0  0  0  0  0
  186.8030  176.6230  143.9520 C   0  0  0  0  0  2  0  0  0  0  0  0
  188.6220  177.1710  145.5830 C   0  0  0  0  0  0  0  0  0  0  0  0
  189.2960  177.7880  148.2380 C   0  0  0  0  0  3  0  0  0  0  0  0
  190.2600  177.2620  147.3760 C   0  0  0  0  0  3  0  0  0  0  0  0
  186.0040  177.7770  144.5450 C   0  0  0  0  0  2  0  0  0  0  0  0
  191.8530  178.0380  141.3430 O   0  0  0  0  0  0  0  0  0  0  0  0
  192.6810  176.9680  141.0060 C   0  0  0  0  0  2  0  0  0  0  0  0
  193.1380  177.0880  139.2550 S   0  0  0  0  0  1  0  0  0  0  0  0
  187.6370  178.9850  141.4130 C   0  0  0  0  0  2  0  0  0  0  0  0
  186.4040  178.5620  140.1510 S   0  0  0  0  0  0  0  0  0  0  0  0
  185.0350  178.9850  141.2600 C   0  0  0  0  0  2  0  0  0  0  0  0
  183.7200  178.7950  140.5300 C   0  0  0  0  0  2  0  0  0  0  0  0
  180.2570  178.5540  141.8430 C   0  0  0  0  0  2  0  0  0  0  0  0
  182.6120  179.0960  141.4210 N   0  0  0  0  0  0  0  0  0  0  0  0
  181.4910  178.2600  140.9940 C   0  0  0  0  0  2  0  0  0  0  0  0
  179.6710  178.2190  144.1470 N   0  0  0  0  0  2  0  0  0  0  0  0
  181.9120  178.9930  143.7720 C   0  0  0  0  0  2  0  0  0  0  0  0
  183.0090  178.6610  142.7610 C   0  0  0  0  0  2  0  0  0  0  0  0
  180.6040  178.4330  143.2980 C   0  0  0  0  0  0  0  0  0  0  0  0
  189.3470  176.4580  140.0600 C   0  0  0  0  0  2  0  0  0  0  0  0
  189.3420  177.0040  138.3270 S   0  0  0  0  0  0  0  0  0  0  0  0
  190.0280  175.4240  137.7620 C   0  0  0  0  0  2  0  0  0  0  0  0
  190.8440  175.6520  136.5060 C   0  0  0  0  0  1  0  0  0  0  0  0
  2  5  1  0  0  0  0
  2  6  1  6  0  0  0
  3 31  1  6  0  0  0
  3  1  1  0  0  0  0
  3  4  1  0  0  0  0
  4 17  1  6  0  0  0
  4  2  1  0  0  0  0
  5  1  1  6  0  0  0
  5  9  1  0  0  0  0
  7 15  1  0  0  0  0
  8 10  2  0  0  0  0
  9 12  1  1  0  0  0
  9 13  1  0  0  0  0
 10 14  1  0  0  0  0
 11  8  1  0  0  0  0
 12 16  1  0  0  0  0
 13  7  2  0  0  0  0
 13  8  1  0  0  0  0
 15 14  2  0  0  0  0
 16 11  1  0  0  0  0
 18 17  1  0  0  0  0
 19 18  1  0  0  0  0
 20  1  1  0  0  0  0
 21 22  1  0  0  0  0
 21 20  1  0  0  0  0
 23 22  1  0  0  0  0
 23 25  1  0  0  0  0
 24 30  1  0  0  0  0
 25 29  1  0  0  0  0
 26 25  1  0  0  0  0
 26 24  1  0  0  0  0
 29 28  1  0  0  0  0
 30 28  1  0  0  0  0
 30 27  2  0  0  0  0
 32 31  1  0  0  0  0
 33 32  1  0  0  0  0
 34 33  1  0  0  0  0
M  END
>  <MODEL>
3

>  <REMARK>
 VINA RESULT:      -6.6      0.923      1.285
  Name = 
  11 active torsions:
  status: ('A' for Active; 'I' for Inactive)
    1  A    between atoms: C_3  and  N_13
    2  A    between atoms: C_3  and  C_17
    3  A    between atoms: C_4  and  C_31
    4  A    between atoms: N_5  and  C_18
    5  A    between atoms: C_7  and  O_8
    6  A    between atoms: O_8  and  C_28
    7  A    between atoms: C_12  and  S_16
    8  A    between atoms: S_16  and  C_23
    9  A    between atoms: C_17  and  S_29
   10  A    between atoms: C_18  and  S_29
   11  A    between atoms: C_23  and  C_26
                            x       y       z     vdW  Elec       q    Type
                         _______ _______ _______ _____ _____    ______ ____

>  <TORSDO>
F 11

$$$$
=
 OpenBabel10262419133D

 34 37  0  0  1  0  0  0  0  0999 V2000
  188.6070  177.7510  141.5860 N   0  0  0  0  0  0  0  0  0  0  0  0
  190.8390  177.8200  142.5190 C   0  0  2  0  0  3  0  0  0  0  0  0
  189.5750  177.6490  140.4980 C   0  0  1  0  0  3  0  0  0  0  0  0
  190.9130  177.2880  141.1050 C   0  0  1  0  0  3  0  0  0  0  0  0
  189.3550  177.8070  142.8450 C   0  0  2  0  0  3  0  0  0  0  0  0
  191.3020  179.1360  142.5840 O   0  0  0  0  0  1  0  0  0  0  0  0
  191.0760  176.2180  145.0870 C   0  0  0  0  0  3  0  0  0  0  0  0
  189.1450  177.1460  146.2360 C   0  0  0  0  0  0  0  0  0  0  0  0
  188.9870  176.6090  143.7440 C   0  0  2  0  0  3  0  0  0  0  0  0
  189.8890  177.2000  147.4190 C   0  0  0  0  0  3  0  0  0  0  0  0
  187.6820  177.4890  146.3010 C   0  0  0  0  0  2  0  0  0  0  0  0
  187.4750  176.5520  143.9940 C   0  0  0  0  0  2  0  0  0  0  0  0
  189.7420  176.6460  145.0540 C   0  0  0  0  0  0  0  0  0  0  0  0
  191.2220  176.7820  147.4350 C   0  0  0  0  0  3  0  0  0  0  0  0
  191.8140  176.2870  146.2710 C   0  0  0  0  0  3  0  0  0  0  0  0
  187.0570  177.6850  144.9230 C   0  0  0  0  0  2  0  0  0  0  0  0
  191.9590  177.8730  140.3830 O   0  0  0  0  0  0  0  0  0  0  0  0
  192.9270  176.8750  140.2840 C   0  0  0  0  0  2  0  0  0  0  0  0
  193.2420  176.5100  138.5360 S   0  0  0  0  0  1  0  0  0  0  0  0
  187.9300  179.0290  141.4370 C   0  0  0  0  0  2  0  0  0  0  0  0
  186.1470  178.8020  141.6810 S   0  0  0  0  0  0  0  0  0  0  0  0
  185.8620  178.6450  139.8990 C   0  0  0  0  0  2  0  0  0  0  0  0
  184.4600  179.1200  139.5700 C   0  0  0  0  0  2  0  0  0  0  0  0
  181.1270  177.9360  140.6940 C   0  0  0  0  0  2  0  0  0  0  0  0
  183.4860  178.1580  140.0560 N   0  0  0  0  0  0  0  0  0  0  0  0
  182.2050  178.8610  140.1320 C   0  0  0  0  0  2  0  0  0  0  0  0
  180.0290  175.9500  139.9120 N   0  0  0  0  0  2  0  0  0  0  0  0
  182.3910  176.0330  139.4990 C   0  0  0  0  0  2  0  0  0  0  0  0
  183.3650  177.1160  139.0360 C   0  0  0  0  0  2  0  0  0  0  0  0
  181.0910  176.6620  139.9020 C   0  0  0  0  0  0  0  0  0  0  0  0
  189.1310  176.5740  139.5200 C   0  0  0  0  0  2  0  0  0  0  0  0
  189.7260  176.9600  137.8480 S   0  0  0  0  0  0  0  0  0  0  0  0
  189.0480  178.6390  137.9250 C   0  0  0  0  0  2  0  0  0  0  0  0
  187.9730  178.7960  136.8690 C   0  0  0  0  0  1  0  0  0  0  0  0
  2  6  1  6  0  0  0
  2  5  1  0  0  0  0
  3 31  1  6  0  0  0
  3  4  1  0  0  0  0
  3  1  1  0  0  0  0
  4 17  1  6  0  0  0
  4  2  1  0  0  0  0
  5  1  1  6  0  0  0
  5  9  1  0  0  0  0
  7 15  1  0  0  0  0
  8 11  1  0  0  0  0
  8 10  2  0  0  0  0
  9 12  1  1  0  0  0
  9 13  1  0  0  0  0
 10 14  1  0  0  0  0
 12 16  1  0  0  0  0
 13  7  2  0  0  0  0
 13  8  1  0  0  0  0
 15 14  2  0  0  0  0
 16 11  1  0  0  0  0
 18 17  1  0  0  0  0
 19 18  1  0  0  0  0
 20  1  1  0  0  0  0
 20 21  1  0  0  0  0
 22 21  1  0  0  0  0
 23 22  1  0  0  0  0
 23 25  1  0  0  0  0
 25 26  1  0  0  0  0
 26 24  1  0  0  0  0
 28 30  1  0  0  0  0
 29 28  1  0  0  0  0
 29 25  1  0  0  0  0
 30 27  2  0  0  0  0
 30 24  1  0  0  0  0
 32 33  1  0  0  0  0
 32 31  1  0  0  0  0
 34 33  1  0  0  0  0
M  END
>  <MODEL>
4

>  <REMARK>
 VINA RESULT:      -6.5      1.701      2.147
  Name = 
  11 active torsions:
  status: ('A' for Active; 'I' for Inactive)
    1  A    between atoms: C_3  and  N_13
    2  A    between atoms: C_3  and  C_17
    3  A    between atoms: C_4  and  C_31
    4  A    between atoms: N_5  and  C_18
    5  A    between atoms: C_7  and  O_8
    6  A    between atoms: O_8  and  C_28
    7  A    between atoms: C_12  and  S_16
    8  A    between atoms: S_16  and  C_23
    9  A    between atoms: C_17  and  S_29
   10  A    between atoms: C_18  and  S_29
   11  A    between atoms: C_23  and  C_26
                            x       y       z     vdW  Elec       q    Type
                         _______ _______ _______ _____ _____    ______ ____

>  <TORSDO>
F 11

$$$$
=
 OpenBabel10262419133D

 34 37  0  0  1  0  0  0  0  0999 V2000
  188.0930  177.9520  142.0840 N   0  0  0  0  0  0  0  0  0  0  0  0
  190.1030  178.1920  143.4110 C   0  0  2  0  0  3  0  0  0  0  0  0
  189.2540  177.7650  141.2190 C   0  0  1  0  0  3  0  0  0  0  0  0
  190.4540  177.5150  142.1050 C   0  0  1  0  0  3  0  0  0  0  0  0
  188.5850  178.1660  143.4490 C   0  0  2  0  0  3  0  0  0  0  0  0
  190.5310  179.5220  143.4170 O   0  0  0  0  0  1  0  0  0  0  0  0
  189.7670  177.0080  146.2370 C   0  0  0  0  0  3  0  0  0  0  0  0
  187.5660  177.9070  146.7460 C   0  0  0  0  0  0  0  0  0  0  0  0
  188.0640  177.0600  144.3880 C   0  0  2  0  0  3  0  0  0  0  0  0
  187.9870  178.1650  148.0540 C   0  0  0  0  0  3  0  0  0  0  0  0
  186.1180  178.1330  146.4080 C   0  0  0  0  0  2  0  0  0  0  0  0
  186.5420  176.9090  144.2710 C   0  0  0  0  0  2  0  0  0  0  0  0
  188.4630  177.3180  145.8240 C   0  0  0  0  0  0  0  0  0  0  0  0
  189.2920  177.8630  148.4500 C   0  0  0  0  0  3  0  0  0  0  0  0
  190.1810  177.2810  147.5420 C   0  0  0  0  0  3  0  0  0  0  0  0
  185.8480  178.1080  144.9070 C   0  0  0  0  0  2  0  0  0  0  0  0
  191.6120  178.0520  141.5340 O   0  0  0  0  0  0  0  0  0  0  0  0
  192.4720  176.9650  141.3790 C   0  0  0  0  0  2  0  0  0  0  0  0
  193.3800  177.1320  139.8180 S   0  0  0  0  0  1  0  0  0  0  0  0
  187.4440  179.1850  141.6690 C   0  0  0  0  0  2  0  0  0  0  0  0
  185.6470  178.9390  141.6310 S   0  0  0  0  0  0  0  0  0  0  0  0
  185.6440  178.7900  139.8250 C   0  0  0  0  0  2  0  0  0  0  0  0
  184.2810  179.1830  139.2900 C   0  0  0  0  0  2  0  0  0  0  0  0
  184.3050  176.2770  136.9830 C   0  0  0  0  0  2  0  0  0  0  0  0
  183.7100  178.0810  138.5360 N   0  0  0  0  0  0  0  0  0  0  0  0
  184.8220  177.4200  137.8530 C   0  0  0  0  0  2  0  0  0  0  0  0
  183.2690  174.1560  137.4180 N   0  0  0  0  0  2  0  0  0  0  0  0
  182.4870  175.9670  138.7850 C   0  0  0  0  0  2  0  0  0  0  0  0
  183.1570  177.1370  139.5070 C   0  0  0  0  0  2  0  0  0  0  0  0
  183.4490  175.3610  137.8070 C   0  0  0  0  0  0  0  0  0  0  0  0
  189.0180  176.5790  140.2990 C   0  0  0  0  0  2  0  0  0  0  0  0
  189.7550  176.8890  138.6680 S   0  0  0  0  0  0  0  0  0  0  0  0
  189.0800  178.5710  138.6130 C   0  0  0  0  0  2  0  0  0  0  0  0
  189.0150  179.0400  137.1750 C   0  0  0  0  0  1  0  0  0  0  0  0
  2  6  1  6  0  0  0
  2  5  1  0  0  0  0
  3 31  1  6  0  0  0
  3  1  1  0  0  0  0
  3  4  1  0  0  0  0
  4 17  1  6  0  0  0
  4  2  1  0  0  0  0
  5  1  1  6  0  0  0
  5  9  1  0  0  0  0
  7 15  1  0  0  0  0
  8 10  2  0  0  0  0
  9 12  1  1  0  0  0
  9 13  1  0  0  0  0
 10 14  1  0  0  0  0
 11  8  1  0  0  0  0
 12 16  1  0  0  0  0
 13  7  2  0  0  0  0
 13  8  1  0  0  0  0
 15 14  2  0  0  0  0
 16 11  1  0  0  0  0
 18 17  1  0  0  0  0
 19 18  1  0  0  0  0
 20  1  1  0  0  0  0
 21 20  1  0  0  0  0
 22 21  1  0  0  0  0
 23 22  1  0  0  0  0
 24 30  1  0  0  0  0
 24 26  1  0  0  0  0
 25 23  1  0  0  0  0
 25 29  1  0  0  0  0
 26 25  1  0  0  0  0
 27 30  2  0  0  0  0
 28 29  1  0  0  0  0
 30 28  1  0  0  0  0
 32 31  1  0  0  0  0
 33 32  1  0  0  0  0
 34 33  1  0  0  0  0
M  END
>  <MODEL>
5

>  <REMARK>
 VINA RESULT:      -6.4      2.178      2.902
  Name = 
  11 active torsions:
  status: ('A' for Active; 'I' for Inactive)
    1  A    between atoms: C_3  and  N_13
    2  A    between atoms: C_3  and  C_17
    3  A    between atoms: C_4  and  C_31
    4  A    between atoms: N_5  and  C_18
    5  A    between atoms: C_7  and  O_8
    6  A    between atoms: O_8  and  C_28
    7  A    between atoms: C_12  and  S_16
    8  A    between atoms: S_16  and  C_23
    9  A    between atoms: C_17  and  S_29
   10  A    between atoms: C_18  and  S_29
   11  A    between atoms: C_23  and  C_26
                            x       y       z     vdW  Elec       q    Type
                         _______ _______ _______ _____ _____    ______ ____

>  <TORSDO>
F 11

$$$$
=
 OpenBabel10262419133D

 34 37  0  0  1  0  0  0  0  0999 V2000
  189.6430  177.6390  142.0660 N   0  0  0  0  0  0  0  0  0  0  0  0
  187.7720  177.1040  143.5060 C   0  0  2  0  0  3  0  0  0  0  0  0
  188.4020  177.9010  141.3430 C   0  0  1  0  0  3  0  0  0  0  0  0
  187.2810  177.9560  142.3570 C   0  0  1  0  0  3  0  0  0  0  0  0
  189.2860  177.1960  143.4180 C   0  0  2  0  0  3  0  0  0  0  0  0
  187.3910  175.7710  143.3400 O   0  0  0  0  0  1  0  0  0  0  0  0
  187.9710  178.4170  146.1180 C   0  0  0  0  0  3  0  0  0  0  0  0
  189.9320  177.1620  146.8180 C   0  0  0  0  0  0  0  0  0  0  0  0
  189.8540  178.1680  144.4710 C   0  0  2  0  0  3  0  0  0  0  0  0
  189.3230  176.9230  148.0540 C   0  0  0  0  0  3  0  0  0  0  0  0
  191.3580  176.7230  146.6310 C   0  0  0  0  0  2  0  0  0  0  0  0
  191.3840  178.0800  144.5330 C   0  0  0  0  0  2  0  0  0  0  0  0
  189.2510  177.9210  145.8360 C   0  0  0  0  0  0  0  0  0  0  0  0
  188.0420  177.4130  148.3170 C   0  0  0  0  0  3  0  0  0  0  0  0
  187.3670  178.1620  147.3510 C   0  0  0  0  0  3  0  0  0  0  0  0
  191.8050  176.7630  145.1730 C   0  0  0  0  0  2  0  0  0  0  0  0
  186.0930  177.4580  141.8100 O   0  0  0  0  0  0  0  0  0  0  0  0
  185.1570  178.4740  142.0040 C   0  0  0  0  0  2  0  0  0  0  0  0
  184.4780  178.9830  140.4020 S   0  0  0  0  0  1  0  0  0  0  0  0
  190.2920  176.5160  141.4090 C   0  0  0  0  0  2  0  0  0  0  0  0
  191.8790  177.0550  140.7170 S   0  0  0  0  0  0  0  0  0  0  0  0
  191.4630  176.3860  139.0850 C   0  0  0  0  0  2  0  0  0  0  0  0
  192.6630  176.5180  138.1670 C   0  0  0  0  0  2  0  0  0  0  0  0
  193.9260  173.7430  136.0510 C   0  0  0  0  0  2  0  0  0  0  0  0
  192.6010  175.5060  137.1260 N   0  0  0  0  0  0  0  0  0  0  0  0
  193.8780  174.7940  137.1580 C   0  0  0  0  0  2  0  0  0  0  0  0
  192.7560  171.6930  135.6130 N   0  0  0  0  0  2  0  0  0  0  0  0
  191.3880  173.4880  136.4310 C   0  0  0  0  0  2  0  0  0  0  0  0
  191.5510  174.5600  137.5080 C   0  0  0  0  0  2  0  0  0  0  0  0
  192.7180  172.8580  136.1410 C   0  0  0  0  0  0  0  0  0  0  0  0
  188.5130  179.2230  140.6040 C   0  0  0  0  0  2  0  0  0  0  0  0
  188.9600  178.9390  138.8670 S   0  0  0  0  0  0  0  0  0  0  0  0
  187.6310  177.7240  138.6590 C   0  0  0  0  0  2  0  0  0  0  0  0
  188.0530  176.6870  137.6380 C   0  0  0  0  0  1  0  0  0  0  0  0
  2  6  1  6  0  0  0
  3 31  1  1  0  0  0
  3  1  1  0  0  0  0
  3  4  1  0  0  0  0
  4 17  1  6  0  0  0
  4  2  1  0  0  0  0
  5  1  1  6  0  0  0
  5  2  1  0  0  0  0
  5  9  1  0  0  0  0
  7 15  1  0  0  0  0
  8 10  2  0  0  0  0
  9 12  1  1  0  0  0
  9 13  1  0  0  0  0
 10 14  1  0  0  0  0
 11  8  1  0  0  0  0
 12 16  1  0  0  0  0
 13  7  2  0  0  0  0
 13  8  1  0  0  0  0
 15 14  2  0  0  0  0
 16 11  1  0  0  0  0
 17 18  1  0  0  0  0
 19 18  1  0  0  0  0
 20  1  1  0  0  0  0
 21 20  1  0  0  0  0
 22 21  1  0  0  0  0
 23 22  1  0  0  0  0
 24 30  1  0  0  0  0
 24 26  1  0  0  0  0
 25 26  1  0  0  0  0
 25 29  1  0  0  0  0
 25 23  1  0  0  0  0
 27 30  2  0  0  0  0
 28 29  1  0  0  0  0
 30 28  1  0  0  0  0
 32 31  1  0  0  0  0
 33 32  1  0  0  0  0
 34 33  1  0  0  0  0
M  END
>  <MODEL>
6

>  <REMARK>
 VINA RESULT:      -5.8      3.524      7.641
  Name = 
  11 active torsions:
  status: ('A' for Active; 'I' for Inactive)
    1  A    between atoms: C_3  and  N_13
    2  A    between atoms: C_3  and  C_17
    3  A    between atoms: C_4  and  C_31
    4  A    between atoms: N_5  and  C_18
    5  A    between atoms: C_7  and  O_8
    6  A    between atoms: O_8  and  C_28
    7  A    between atoms: C_12  and  S_16
    8  A    between atoms: S_16  and  C_23
    9  A    between atoms: C_17  and  S_29
   10  A    between atoms: C_18  and  S_29
   11  A    between atoms: C_23  and  C_26
                            x       y       z     vdW  Elec       q    Type
                         _______ _______ _______ _____ _____    ______ ____

>  <TORSDO>
F 11

$$$$
=
 OpenBabel10262419133D

 34 37  0  0  1  0  0  0  0  0999 V2000
  188.6180  177.5790  141.2130 N   0  0  0  0  0  0  0  0  0  0  0  0
  190.9550  177.2700  141.7630 C   0  0  2  0  0  3  0  0  0  0  0  0
  189.3610  177.3220  139.9830 C   0  0  1  0  0  3  0  0  0  0  0  0
  190.7030  176.7410  140.3680 C   0  0  1  0  0  3  0  0  0  0  0  0
  189.5650  177.5030  142.3300 C   0  0  2  0  0  3  0  0  0  0  0  0
  191.6340  178.4900  141.7200 O   0  0  0  0  0  1  0  0  0  0  0  0
  191.2380  176.0010  144.6650 C   0  0  0  0  0  3  0  0  0  0  0  0
  189.3460  177.0700  145.7560 C   0  0  0  0  0  0  0  0  0  0  0  0
  189.1590  176.3800  143.3040 C   0  0  2  0  0  3  0  0  0  0  0  0
  190.0980  177.1730  146.9310 C   0  0  0  0  0  3  0  0  0  0  0  0
  187.8960  177.4670  145.8020 C   0  0  0  0  0  2  0  0  0  0  0  0
  187.6460  176.3920  143.5610 C   0  0  0  0  0  2  0  0  0  0  0  0
  189.9200  176.4740  144.6080 C   0  0  0  0  0  0  0  0  0  0  0  0
  191.4150  176.7090  146.9720 C   0  0  0  0  0  3  0  0  0  0  0  0
  191.9840  176.1210  145.8400 C   0  0  0  0  0  3  0  0  0  0  0  0
  187.2720  177.5960  144.4160 C   0  0  0  0  0  2  0  0  0  0  0  0
  191.6960  177.1460  139.4700 O   0  0  0  0  0  0  0  0  0  0  0  0
  192.0140  175.9970  138.7470 C   0  0  0  0  0  2  0  0  0  0  0  0
  193.1780  176.4200  137.4230 S   0  0  0  0  0  1  0  0  0  0  0  0
  188.1470  178.9530  141.1490 C   0  0  0  0  0  2  0  0  0  0  0  0
  186.5330  179.0020  140.3240 S   0  0  0  0  0  0  0  0  0  0  0  0
  185.6670  179.2380  141.8990 C   0  0  0  0  0  2  0  0  0  0  0  0
  184.5430  178.2260  142.0110 C   0  0  0  0  0  2  0  0  0  0  0  0
  180.9480  178.9880  141.4920 C   0  0  0  0  0  2  0  0  0  0  0  0
  183.2830  178.9120  142.2420 N   0  0  0  0  0  0  0  0  0  0  0  0
  182.2990  178.2870  141.3590 C   0  0  0  0  0  2  0  0  0  0  0  0
  179.3100  179.1850  143.2350 N   0  0  0  0  0  2  0  0  0  0  0  0
  181.5910  179.3650  143.9610 C   0  0  0  0  0  2  0  0  0  0  0  0
  182.8880  178.6320  143.6230 C   0  0  0  0  0  2  0  0  0  0  0  0
  180.5450  179.0390  142.9360 C   0  0  0  0  0  0  0  0  0  0  0  0
  188.5880  176.3420  139.1170 C   0  0  0  0  0  2  0  0  0  0  0  0
  188.6810  176.8350  137.3710 S   0  0  0  0  0  0  0  0  0  0  0  0
  187.1230  175.9920  136.9850 C   0  0  0  0  0  2  0  0  0  0  0  0
  185.9670  176.9440  137.2130 C   0  0  0  0  0  1  0  0  0  0  0  0
  2  6  1  6  0  0  0
  2  5  1  0  0  0  0
  3 31  1  6  0  0  0
  3  4  1  0  0  0  0
  3  1  1  0  0  0  0
  4 17  1  6  0  0  0
  4  2  1  0  0  0  0
  5  1  1  6  0  0  0
  5  9  1  0  0  0  0
  7 15  1  0  0  0  0
  8 11  1  0  0  0  0
  8 10  2  0  0  0  0
  9 12  1  1  0  0  0
  9 13  1  0  0  0  0
 10 14  1  0  0  0  0
 12 16  1  0  0  0  0
 13  7  2  0  0  0  0
 13  8  1  0  0  0  0
 15 14  2  0  0  0  0
 16 11  1  0  0  0  0
 18 17  1  0  0  0  0
 19 18  1  0  0  0  0
 20  1  1  0  0  0  0
 21 20  1  0  0  0  0
 21 22  1  0  0  0  0
 22 23  1  0  0  0  0
 23 25  1  0  0  0  0
 24 30  1  0  0  0  0
 25 29  1  0  0  0  0
 26 24  1  0  0  0  0
 26 25  1  0  0  0  0
 29 28  1  0  0  0  0
 30 27  2  0  0  0  0
 30 28  1  0  0  0  0
 32 31  1  0  0  0  0
 33 34  1  0  0  0  0
 33 32  1  0  0  0  0
M  END
>  <MODEL>
7

>  <REMARK>
 VINA RESULT:      -5.8      1.608      2.130
  Name = 
  11 active torsions:
  status: ('A' for Active; 'I' for Inactive)
    1  A    between atoms: C_3  and  N_13
    2  A    between atoms: C_3  and  C_17
    3  A    between atoms: C_4  and  C_31
    4  A    between atoms: N_5  and  C_18
    5  A    between atoms: C_7  and  O_8
    6  A    between atoms: O_8  and  C_28
    7  A    between atoms: C_12  and  S_16
    8  A    between atoms: S_16  and  C_23
    9  A    between atoms: C_17  and  S_29
   10  A    between atoms: C_18  and  S_29
   11  A    between atoms: C_23  and  C_26
                            x       y       z     vdW  Elec       q    Type
                         _______ _______ _______ _____ _____    ______ ____

>  <TORSDO>
F 11

$$$$
=
 OpenBabel10262419133D

 34 37  0  0  1  0  0  0  0  0999 V2000
  188.4690  177.4770  143.4940 N   0  0  0  0  0  0  0  0  0  0  0  0
  190.4470  176.2000  142.9310 C   0  0  2  0  0  3  0  0  0  0  0  0
  189.1970  177.1700  144.7220 C   0  0  1  0  0  3  0  0  0  0  0  0
  190.5960  176.7450  144.3340 C   0  0  1  0  0  3  0  0  0  0  0  0
  189.2420  176.9360  142.3710 C   0  0  2  0  0  3  0  0  0  0  0  0
  190.1700  174.8310  142.9510 O   0  0  0  0  0  1  0  0  0  0  0  0
  192.0650  177.5260  140.8900 C   0  0  0  0  0  3  0  0  0  0  0  0
  190.4190  177.2150  139.1280 C   0  0  0  0  0  0  0  0  0  0  0  0
  189.6670  178.0680  141.4150 C   0  0  2  0  0  3  0  0  0  0  0  0
  191.4310  176.7580  138.2790 C   0  0  0  0  0  3  0  0  0  0  0  0
  189.0430  177.4110  138.5530 C   0  0  0  0  0  2  0  0  0  0  0  0
  188.4590  178.6300  140.6540 C   0  0  0  0  0  2  0  0  0  0  0  0
  190.7370  177.6080  140.4500 C   0  0  0  0  0  0  0  0  0  0  0  0
  192.7490  176.6690  138.7340 C   0  0  0  0  0  3  0  0  0  0  0  0
  193.0660  177.0570  140.0380 C   0  0  0  0  0  3  0  0  0  0  0  0
  187.9760  177.6180  139.6230 C   0  0  0  0  0  2  0  0  0  0  0  0
  191.0840  175.7770  145.2190 O   0  0  0  0  0  0  0  0  0  0  0  0
  192.0560  176.4380  145.9700 C   0  0  0  0  0  2  0  0  0  0  0  0
  192.3590  175.5200  147.5050 S   0  0  0  0  0  1  0  0  0  0  0  0
  187.2180  176.7380  143.5420 C   0  0  0  0  0  2  0  0  0  0  0  0
  185.9060  177.8120  144.1880 S   0  0  0  0  0  0  0  0  0  0  0  0
  185.5270  178.4450  142.5330 C   0  0  0  0  0  2  0  0  0  0  0  0
  184.0280  178.6220  142.3940 C   0  0  0  0  0  2  0  0  0  0  0  0
  181.6490  178.1110  139.5910 C   0  0  0  0  0  2  0  0  0  0  0  0
  183.5950  178.1650  141.0840 N   0  0  0  0  0  0  0  0  0  0  0  0
  182.2090  178.6020  140.9240 C   0  0  0  0  0  2  0  0  0  0  0  0
  182.1040  178.5970  137.2850 N   0  0  0  0  0  2  0  0  0  0  0  0
  184.0450  178.4060  138.6830 C   0  0  0  0  0  2  0  0  0  0  0  0
  184.4050  178.8740  140.0930 C   0  0  0  0  0  2  0  0  0  0  0  0
  182.5640  178.5240  138.4760 C   0  0  0  0  0  0  0  0  0  0  0  0
  189.2450  178.4030  145.6070 C   0  0  0  0  0  2  0  0  0  0  0  0
  189.2720  177.9210  147.3580 S   0  0  0  0  0  0  0  0  0  0  0  0
  187.5070  177.5100  147.3380 C   0  0  0  0  0  2  0  0  0  0  0  0
  186.7020  178.7330  147.7260 C   0  0  0  0  0  1  0  0  0  0  0  0
  1 20  1  0  0  0  0
  1  3  1  0  0  0  0
  2  6  1  1  0  0  0
  2  4  1  0  0  0  0
  3 31  1  1  0  0  0
  4  3  1  0  0  0  0
  4 17  1  1  0  0  0
  5  2  1  0  0  0  0
  5  1  1  1  0  0  0
  8 13  2  0  0  0  0
  9 12  1  6  0  0  0
  9  5  1  0  0  0  0
 10 14  2  0  0  0  0
 10  8  1  0  0  0  0
 11  8  1  0  0  0  0
 11 16  1  0  0  0  0
 13  7  1  0  0  0  0
 13  9  1  0  0  0  0
 14 15  1  0  0  0  0
 15  7  2  0  0  0  0
 16 12  1  0  0  0  0
 17 18  1  0  0  0  0
 18 19  1  0  0  0  0
 20 21  1  0  0  0  0
 22 21  1  0  0  0  0
 23 22  1  0  0  0  0
 24 26  1  0  0  0  0
 25 23  1  0  0  0  0
 26 25  1  0  0  0  0
 27 30  2  0  0  0  0
 28 29  1  0  0  0  0
 29 25  1  0  0  0  0
 30 28  1  0  0  0  0
 30 24  1  0  0  0  0
 31 32  1  0  0  0  0
 33 32  1  0  0  0  0
 33 34  1  0  0  0  0
M  END
>  <MODEL>
8

>  <REMARK>
 VINA RESULT:      -5.8      2.807      5.926
  Name = 
  11 active torsions:
  status: ('A' for Active; 'I' for Inactive)
    1  A    between atoms: C_3  and  N_13
    2  A    between atoms: C_3  and  C_17
    3  A    between atoms: C_4  and  C_31
    4  A    between atoms: N_5  and  C_18
    5  A    between atoms: C_7  and  O_8
    6  A    between atoms: O_8  and  C_28
    7  A    between atoms: C_12  and  S_16
    8  A    between atoms: S_16  and  C_23
    9  A    between atoms: C_17  and  S_29
   10  A    between atoms: C_18  and  S_29
   11  A    between atoms: C_23  and  C_26
                            x       y       z     vdW  Elec       q    Type
                         _______ _______ _______ _____ _____    ______ ____

>  <TORSDO>
F 11

$$$$
=
 OpenBabel10262419133D

 34 37  0  0  1  0  0  0  0  0999 V2000
  186.0690  178.1100  142.1310 N   0  0  0  0  0  0  0  0  0  0  0  0
  184.6600  179.1690  143.7910 C   0  0  2  0  0  3  0  0  0  0  0  0
  186.6860  177.9500  143.4440 C   0  0  1  0  0  3  0  0  0  0  0  0
  185.6310  178.2420  144.4880 C   0  0  1  0  0  3  0  0  0  0  0  0
  184.7960  178.8130  142.3200 C   0  0  2  0  0  3  0  0  0  0  0  0
  185.0280  180.5050  143.9670 O   0  0  0  0  0  1  0  0  0  0  0  0
  181.7240  178.6250  143.3420 C   0  0  0  0  0  3  0  0  0  0  0  0
  181.6300  179.3020  141.0080 C   0  0  0  0  0  0  0  0  0  0  0  0
  183.6210  177.9360  141.8430 C   0  0  2  0  0  3  0  0  0  0  0  0
  180.4220  179.9590  141.2600 C   0  0  0  0  0  3  0  0  0  0  0  0
  182.1120  179.2200  139.5860 C   0  0  0  0  0  2  0  0  0  0  0  0
  183.7900  177.5420  140.3700 C   0  0  0  0  0  2  0  0  0  0  0  0
  182.2910  178.6230  142.0600 C   0  0  0  0  0  0  0  0  0  0  0  0
  179.8740  179.9640  142.5450 C   0  0  0  0  0  3  0  0  0  0  0  0
  180.5230  179.2950  143.5850 C   0  0  0  0  0  3  0  0  0  0  0  0
  183.5610  178.7550  139.4760 C   0  0  0  0  0  2  0  0  0  0  0  0
  186.2030  178.8400  145.6170 O   0  0  0  0  0  0  0  0  0  0  0  0
  186.0670  177.8920  146.6300 C   0  0  0  0  0  2  0  0  0  0  0  0
  187.5650  177.8810  147.6510 S   0  0  0  0  0  1  0  0  0  0  0  0
  186.9290  178.9920  141.3590 C   0  0  0  0  0  2  0  0  0  0  0  0
  187.2570  178.2500  139.7370 S   0  0  0  0  0  0  0  0  0  0  0  0
  188.9920  177.9430  140.1600 C   0  0  0  0  0  2  0  0  0  0  0  0
  189.8150  177.8750  138.8890 C   0  0  0  0  0  2  0  0  0  0  0  0
  189.7400  174.5630  137.2150 C   0  0  0  0  0  2  0  0  0  0  0  0
  190.2230  176.5030  138.6380 N   0  0  0  0  0  0  0  0  0  0  0  0
  189.4190  176.0270  137.5130 C   0  0  0  0  0  2  0  0  0  0  0  0
  191.6610  173.3910  136.3810 N   0  0  0  0  0  2  0  0  0  0  0  0
  192.1410  175.1250  137.9700 C   0  0  0  0  0  2  0  0  0  0  0  0
  191.6200  176.5420  138.2040 C   0  0  0  0  0  2  0  0  0  0  0  0
  191.2200  174.3980  137.0360 C   0  0  0  0  0  0  0  0  0  0  0  0
  187.2000  176.5280  143.5940 C   0  0  0  0  0  2  0  0  0  0  0  0
  189.0000  176.4800  143.3520 S   0  0  0  0  0  0  0  0  0  0  0  0
  189.2200  178.0670  144.1990 C   0  0  0  0  0  2  0  0  0  0  0  0
  190.5810  178.6360  143.8560 C   0  0  0  0  0  1  0  0  0  0  0  0
  1  3  1  0  0  0  0
  2  6  1  6  0  0  0
  2  4  1  0  0  0  0
  3 31  1  1  0  0  0
  3  4  1  0  0  0  0
  4 17  1  1  0  0  0
  5  1  1  1  0  0  0
  5  2  1  0  0  0  0
  7 15  1  0  0  0  0
  8 10  2  0  0  0  0
  8 13  1  0  0  0  0
  9 12  1  6  0  0  0
  9 13  1  0  0  0  0
  9  5  1  0  0  0  0
 10 14  1  0  0  0  0
 11  8  1  0  0  0  0
 13  7  2  0  0  0  0
 14 15  2  0  0  0  0
 16 11  1  0  0  0  0
 16 12  1  0  0  0  0
 17 18  1  0  0  0  0
 18 19  1  0  0  0  0
 20  1  1  0  0  0  0
 21 22  1  0  0  0  0
 21 20  1  0  0  0  0
 23 22  1  0  0  0  0
 24 26  1  0  0  0  0
 25 23  1  0  0  0  0
 26 25  1  0  0  0  0
 27 30  2  0  0  0  0
 28 29  1  0  0  0  0
 29 25  1  0  0  0  0
 30 24  1  0  0  0  0
 30 28  1  0  0  0  0
 32 31  1  0  0  0  0
 32 33  1  0  0  0  0
 34 33  1  0  0  0  0
M  END
>  <MODEL>
9

>  <REMARK>
 VINA RESULT:      -5.7      3.045      8.044
  Name = 
  11 active torsions:
  status: ('A' for Active; 'I' for Inactive)
    1  A    between atoms: C_3  and  N_13
    2  A    between atoms: C_3  and  C_17
    3  A    between atoms: C_4  and  C_31
    4  A    between atoms: N_5  and  C_18
    5  A    between atoms: C_7  and  O_8
    6  A    between atoms: O_8  and  C_28
    7  A    between atoms: C_12  and  S_16
    8  A    between atoms: S_16  and  C_23
    9  A    between atoms: C_17  and  S_29
   10  A    between atoms: C_18  and  S_29
   11  A    between atoms: C_23  and  C_26
                            x       y       z     vdW  Elec       q    Type
                         _______ _______ _______ _____ _____    ______ ____

>  <TORSDO>
F 11

$$$$
