=
 OpenBabel10262419213D

 31 33  0  0  1  0  0  0  0  0999 V2000
  189.4570  177.1060  140.7070 N   0  0  0  0  0  0  0  0  0  0  0  0
  186.9410  177.3810  143.5070 C   0  0  2  0  0  3  0  0  0  0  0  0
  187.7100  177.8180  142.2680 C   0  0  0  0  0  0  0  0  0  0  0  0
  189.2430  178.3380  139.9570 C   0  0  0  0  0  2  0  0  0  0  0  0
  184.9090  177.9510  142.2580 N   0  0  0  0  0  0  0  0  0  0  0  0
  190.8780  176.8170  140.6430 C   0  0  0  0  0  1  0  0  0  0  0  0
  185.6350  178.8680  141.3770 C   0  0  0  0  0  2  0  0  0  0  0  0
  185.5170  177.9690  143.5990 C   0  0  2  0  0  3  0  0  0  0  0  0
  189.1510  177.3940  142.1060 C   0  0  0  0  0  2  0  0  0  0  0  0
  187.0770  178.4530  141.2480 C   0  0  0  0  0  0  0  0  0  0  0  0
  187.7510  178.6670  139.9140 C   0  0  0  0  0  2  0  0  0  0  0  0
  187.7230  177.4060  144.7950 C   0  0  0  0  0  0  0  0  0  0  0  0
  189.9860  177.5320  145.8150 N   0  0  0  0  0  0  0  0  0  0  0  0
  189.0560  177.4800  144.7310 C   0  0  0  0  0  3  0  0  0  0  0  0
  189.7860  177.5250  147.2280 C   0  0  0  0  0  3  0  0  0  0  0  0
  188.6210  177.4700  147.8600 C   0  0  0  0  0  3  0  0  0  0  0  0
  186.9070  177.3770  146.0160 C   0  0  0  0  0  2  0  0  0  0  0  0
  187.2750  177.4040  147.2910 C   0  0  0  0  0  3  0  0  0  0  0  0
  184.4290  179.4100  145.3300 C   0  0  0  0  0  1  0  0  0  0  0  0
  185.4860  179.3660  144.2440 C   0  0  0  0  0  2  0  0  0  0  0  0
  183.5210  178.3900  142.3390 C   0  0  0  0  0  2  0  0  0  0  0  0
  183.0170  177.1570  140.3510 O   0  0  0  0  0  1  0  0  0  0  0  0
  182.8940  178.4110  140.9540 C   0  0  1  0  0  3  0  0  0  0  0  0
  180.7200  178.6240  140.0990 O   0  0  0  0  0  0  0  0  0  0  0  0
  181.4550  178.8440  141.0480 C   0  0  0  0  0  0  0  0  0  0  0  0
  180.0370  180.5990  141.8510 O   0  0  0  0  0  1  0  0  0  0  0  0
  180.8790  179.5570  142.2480 C   0  0  1  0  0  3  0  0  0  0  0  0
  180.1760  178.6340  143.2520 C   0  0  0  0  0  0  0  0  0  0  0  0
  181.0250  178.3020  144.2920 F   0  0  0  0  0  0  0  0  0  0  0  0
  178.9330  179.3030  143.8130 C   0  0  0  0  0  1  0  0  0  0  0  0
  179.7900  177.4740  142.6060 F   0  0  0  0  0  0  0  0  0  0  0  0
  1  9  1  0  0  0  0
  2  8  1  0  0  0  0
  2 12  1  1  0  0  0
  3  2  1  0  0  0  0
  4  1  1  0  0  0  0
  5 21  1  0  0  0  0
  5  8  1  0  0  0  0
  6  1  1  0  0  0  0
  7  5  1  0  0  0  0
  8 20  1  6  0  0  0
  9  3  1  0  0  0  0
 10  7  1  0  0  0  0
 10  3  2  0  0  0  0
 11  4  1  0  0  0  0
 11 10  1  0  0  0  0
 12 17  1  0  0  0  0
 13 15  2  0  0  0  0
 14 12  2  0  0  0  0
 14 13  1  0  0  0  0
 15 16  1  0  0  0  0
 17 18  1  0  0  0  0
 18 16  2  0  0  0  0
 20 19  1  0  0  0  0
 23 22  1  1  0  0  0
 23 25  1  0  0  0  0
 23 21  1  0  0  0  0
 24 25  2  0  0  0  0
 25 27  1  0  0  0  0
 27 26  1  6  0  0  0
 27 28  1  0  0  0  0
 28 30  1  0  0  0  0
 28 29  1  0  0  0  0
 31 28  1  0  0  0  0
M  END
>  <MODEL>
1

>  <REMARK>
 VINA RESULT:      -8.0      0.000      0.000
  Name = 
  7 active torsions:
  status: ('A' for Active; 'I' for Inactive)
    1  A    between atoms: C_1  and  C_19
    2  A    between atoms: C_4  and  C_5
    3  A    between atoms: C_9  and  C_22
    4  A    between atoms: C_9  and  C_23
    5  A    between atoms: N_15  and  C_23
    6  A    between atoms: C_19  and  C_22
    7  A    between atoms: C_21  and  C_29
                            x       y       z     vdW  Elec       q    Type
                         _______ _______ _______ _____ _____    ______ ____

>  <TORSDO>
F 7

$$$$
=
 OpenBabel10262419213D

 31 33  0  0  1  0  0  0  0  0999 V2000
  189.4330  177.0430  140.6420 N   0  0  0  0  0  0  0  0  0  0  0  0
  186.7350  177.4960  143.2410 C   0  0  2  0  0  3  0  0  0  0  0  0
  187.5880  177.8530  142.0320 C   0  0  0  0  0  0  0  0  0  0  0  0
  189.2770  178.2250  139.8030 C   0  0  0  0  0  2  0  0  0  0  0  0
  184.7950  177.9860  141.8230 N   0  0  0  0  0  0  0  0  0  0  0  0
  190.8540  176.7500  140.6930 C   0  0  0  0  0  1  0  0  0  0  0  0
  185.5840  178.8450  140.9370 C   0  0  0  0  0  2  0  0  0  0  0  0
  185.3110  178.0890  143.1990 C   0  0  2  0  0  3  0  0  0  0  0  0
  189.0350  177.4190  141.9950 C   0  0  0  0  0  2  0  0  0  0  0  0
  187.0290  178.4220  140.9330 C   0  0  0  0  0  0  0  0  0  0  0  0
  187.7930  178.5510  139.6370 C   0  0  0  0  0  2  0  0  0  0  0  0
  187.4280  177.6020  144.5750 C   0  0  0  0  0  0  0  0  0  0  0  0
  189.5960  177.9680  145.7330 N   0  0  0  0  0  0  0  0  0  0  0  0
  188.7470  177.8180  144.5930 C   0  0  0  0  0  3  0  0  0  0  0  0
  189.3100  177.9370  147.1310 C   0  0  0  0  0  3  0  0  0  0  0  0
  188.1200  177.7570  147.6890 C   0  0  0  0  0  3  0  0  0  0  0  0
  186.5450  177.4850  145.7430 C   0  0  0  0  0  2  0  0  0  0  0  0
  186.8280  177.5480  147.0390 C   0  0  0  0  0  3  0  0  0  0  0  0
  184.0700  179.6550  144.7030 C   0  0  0  0  0  1  0  0  0  0  0  0
  185.2420  179.5240  143.7510 C   0  0  0  0  0  2  0  0  0  0  0  0
  183.4070  178.4290  141.7820 C   0  0  0  0  0  2  0  0  0  0  0  0
  182.7010  176.9880  140.0060 O   0  0  0  0  0  1  0  0  0  0  0  0
  182.8650  178.3280  140.3650 C   0  0  1  0  0  3  0  0  0  0  0  0
  180.9820  179.3890  141.2800 O   0  0  0  0  0  0  0  0  0  0  0  0
  181.5720  179.0950  140.2530 C   0  0  0  0  0  0  0  0  0  0  0  0
  179.5760  179.2980  138.9470 O   0  0  0  0  0  1  0  0  0  0  0  0
  180.9590  179.4980  138.9350 C   0  0  1  0  0  3  0  0  0  0  0  0
  181.3030  180.9260  138.4890 C   0  0  0  0  0  0  0  0  0  0  0  0
  182.6580  181.1680  138.6190 F   0  0  0  0  0  0  0  0  0  0  0  0
  180.8890  181.1500  137.0450 C   0  0  0  0  0  1  0  0  0  0  0  0
  180.6140  181.8250  139.2820 F   0  0  0  0  0  0  0  0  0  0  0  0
  1  6  1  0  0  0  0
  1  9  1  0  0  0  0
  2 12  1  1  0  0  0
  3  2  1  0  0  0  0
  4  1  1  0  0  0  0
  5  8  1  0  0  0  0
  7  5  1  0  0  0  0
  8  2  1  0  0  0  0
  8 20  1  6  0  0  0
  9  3  1  0  0  0  0
 10  7  1  0  0  0  0
 10  3  2  0  0  0  0
 11  4  1  0  0  0  0
 11 10  1  0  0  0  0
 12 14  2  0  0  0  0
 12 17  1  0  0  0  0
 13 15  2  0  0  0  0
 14 13  1  0  0  0  0
 15 16  1  0  0  0  0
 17 18  1  0  0  0  0
 18 16  2  0  0  0  0
 20 19  1  0  0  0  0
 21  5  1  0  0  0  0
 23 22  1  1  0  0  0
 23 21  1  0  0  0  0
 25 23  1  0  0  0  0
 25 24  2  0  0  0  0
 27 26  1  1  0  0  0
 27 25  1  0  0  0  0
 28 29  1  0  0  0  0
 28 27  1  0  0  0  0
 28 31  1  0  0  0  0
 30 28  1  0  0  0  0
M  END
>  <MODEL>
2

>  <REMARK>
 VINA RESULT:      -7.8      1.942      2.443
  Name = 
  7 active torsions:
  status: ('A' for Active; 'I' for Inactive)
    1  A    between atoms: C_1  and  C_19
    2  A    between atoms: C_4  and  C_5
    3  A    between atoms: C_9  and  C_22
    4  A    between atoms: C_9  and  C_23
    5  A    between atoms: N_15  and  C_23
    6  A    between atoms: C_19  and  C_22
    7  A    between atoms: C_21  and  C_29
                            x       y       z     vdW  Elec       q    Type
                         _______ _______ _______ _____ _____    ______ ____

>  <TORSDO>
F 7

$$$$
=
 OpenBabel10262419213D

 31 33  0  0  1  0  0  0  0  0999 V2000
  189.4310  177.0500  140.6850 N   0  0  0  0  0  0  0  0  0  0  0  0
  186.7070  177.4980  143.2590 C   0  0  2  0  0  3  0  0  0  0  0  0
  187.5690  177.8550  142.0560 C   0  0  0  0  0  0  0  0  0  0  0  0
  189.2750  178.2270  139.8390 C   0  0  0  0  0  2  0  0  0  0  0  0
  184.7770  177.9700  141.8230 N   0  0  0  0  0  0  0  0  0  0  0  0
  190.8530  176.7650  140.7500 C   0  0  0  0  0  1  0  0  0  0  0  0
  185.5680  178.8310  140.9400 C   0  0  0  0  0  2  0  0  0  0  0  0
  185.2800  178.0820  143.2020 C   0  0  2  0  0  3  0  0  0  0  0  0
  189.0180  177.4290  142.0340 C   0  0  0  0  0  2  0  0  0  0  0  0
  187.0160  178.4160  140.9500 C   0  0  0  0  0  0  0  0  0  0  0  0
  187.7900  178.5440  139.6600 C   0  0  0  0  0  2  0  0  0  0  0  0
  187.3880  177.6140  144.5990 C   0  0  0  0  0  0  0  0  0  0  0  0
  189.5440  177.9990  145.7740 N   0  0  0  0  0  0  0  0  0  0  0  0
  188.7050  177.8390  144.6270 C   0  0  0  0  0  3  0  0  0  0  0  0
  189.2460  177.9710  147.1690 C   0  0  0  0  0  3  0  0  0  0  0  0
  188.0530  177.7850  147.7180 C   0  0  0  0  0  3  0  0  0  0  0  0
  186.4960  177.4950  145.7590 C   0  0  0  0  0  2  0  0  0  0  0  0
  186.7670  177.5650  147.0570 C   0  0  0  0  0  3  0  0  0  0  0  0
  184.0510  179.6340  144.7310 C   0  0  0  0  0  1  0  0  0  0  0  0
  185.1980  179.5190  143.7470 C   0  0  0  0  0  2  0  0  0  0  0  0
  183.3870  178.4050  141.7670 C   0  0  0  0  0  2  0  0  0  0  0  0
  182.4100  177.0060  140.0890 O   0  0  0  0  0  1  0  0  0  0  0  0
  182.8600  178.3030  140.3440 C   0  0  1  0  0  3  0  0  0  0  0  0
  180.8590  179.3790  140.9340 O   0  0  0  0  0  0  0  0  0  0  0  0
  181.7710  179.3210  140.1250 C   0  0  0  0  0  0  0  0  0  0  0  0
  182.9840  180.8610  138.7500 O   0  0  0  0  0  1  0  0  0  0  0  0
  181.7380  180.2590  138.9430 C   0  0  1  0  0  3  0  0  0  0  0  0
  181.2310  179.6190  137.6440 C   0  0  0  0  0  0  0  0  0  0  0  0
  180.1520  178.7900  137.8930 F   0  0  0  0  0  0  0  0  0  0  0  0
  180.8220  180.6880  136.6450 C   0  0  0  0  0  1  0  0  0  0  0  0
  182.2470  178.8680  137.0830 F   0  0  0  0  0  0  0  0  0  0  0  0
  1  6  1  0  0  0  0
  1  9  1  0  0  0  0
  2 12  1  1  0  0  0
  3  2  1  0  0  0  0
  4  1  1  0  0  0  0
  5  8  1  0  0  0  0
  7 10  1  0  0  0  0
  7  5  1  0  0  0  0
  8  2  1  0  0  0  0
  8 20  1  6  0  0  0
  9  3  1  0  0  0  0
 10  3  2  0  0  0  0
 11  4  1  0  0  0  0
 11 10  1  0  0  0  0
 12 14  2  0  0  0  0
 12 17  1  0  0  0  0
 13 15  2  0  0  0  0
 14 13  1  0  0  0  0
 15 16  1  0  0  0  0
 17 18  1  0  0  0  0
 18 16  2  0  0  0  0
 20 19  1  0  0  0  0
 21  5  1  0  0  0  0
 23 22  1  1  0  0  0
 23 21  1  0  0  0  0
 25 23  1  0  0  0  0
 25 24  2  0  0  0  0
 27 26  1  6  0  0  0
 27 25  1  0  0  0  0
 28 29  1  0  0  0  0
 28 27  1  0  0  0  0
 30 28  1  0  0  0  0
 31 28  1  0  0  0  0
M  END
>  <MODEL>
3

>  <REMARK>
 VINA RESULT:      -7.7      2.004      2.599
  Name = 
  7 active torsions:
  status: ('A' for Active; 'I' for Inactive)
    1  A    between atoms: C_1  and  C_19
    2  A    between atoms: C_4  and  C_5
    3  A    between atoms: C_9  and  C_22
    4  A    between atoms: C_9  and  C_23
    5  A    between atoms: N_15  and  C_23
    6  A    between atoms: C_19  and  C_22
    7  A    between atoms: C_21  and  C_29
                            x       y       z     vdW  Elec       q    Type
                         _______ _______ _______ _____ _____    ______ ____

>  <TORSDO>
F 7

$$$$
=
 OpenBabel10262419213D

 31 33  0  0  1  0  0  0  0  0999 V2000
  190.7450  176.7390  145.7920 N   0  0  0  0  0  0  0  0  0  0  0  0
  187.8050  177.1450  143.4620 C   0  0  2  0  0  3  0  0  0  0  0  0
  189.1920  177.4160  144.0250 C   0  0  0  0  0  0  0  0  0  0  0  0
  191.7260  177.6680  145.2420 C   0  0  0  0  0  2  0  0  0  0  0  0
  188.9010  176.9250  141.2790 N   0  0  0  0  0  0  0  0  0  0  0  0
  190.9100  176.7620  147.2340 C   0  0  0  0  0  1  0  0  0  0  0  0
  190.0470  177.7310  141.7070 C   0  0  0  0  0  2  0  0  0  0  0  0
  187.6810  177.4100  141.9470 C   0  0  2  0  0  3  0  0  0  0  0  0
  189.4230  177.2920  145.5120 C   0  0  0  0  0  2  0  0  0  0  0  0
  190.2480  177.6220  143.1960 C   0  0  0  0  0  0  0  0  0  0  0  0
  191.6660  177.6400  143.7150 C   0  0  0  0  0  2  0  0  0  0  0  0
  186.6580  177.6600  144.2920 C   0  0  0  0  0  0  0  0  0  0  0  0
  184.3040  178.4570  144.2610 N   0  0  0  0  0  0  0  0  0  0  0  0
  185.5130  177.9720  143.6740 C   0  0  0  0  0  3  0  0  0  0  0  0
  183.9620  178.7400  145.6170 C   0  0  0  0  0  3  0  0  0  0  0  0
  184.7480  178.5950  146.6760 C   0  0  0  0  0  3  0  0  0  0  0  0
  186.9200  177.7340  145.7350 C   0  0  0  0  0  2  0  0  0  0  0  0
  186.1300  178.1210  146.7300 C   0  0  0  0  0  3  0  0  0  0  0  0
  186.0640  178.9770  140.8590 C   0  0  0  0  0  1  0  0  0  0  0  0
  187.3720  178.8820  141.6190 C   0  0  0  0  0  2  0  0  0  0  0  0
  188.7590  177.0550  139.8350 C   0  0  0  0  0  2  0  0  0  0  0  0
  190.5920  175.6390  139.2350 O   0  0  0  0  0  1  0  0  0  0  0  0
  190.1180  176.9500  139.1600 C   0  0  1  0  0  3  0  0  0  0  0  0
  190.9530  177.1930  136.9810 O   0  0  0  0  0  0  0  0  0  0  0  0
  190.0220  177.4260  137.7340 C   0  0  0  0  0  0  0  0  0  0  0  0
  189.0840  179.5730  137.2380 O   0  0  0  0  0  1  0  0  0  0  0  0
  188.8420  178.1980  137.1950 C   0  0  1  0  0  3  0  0  0  0  0  0
  188.3920  177.7640  135.7940 C   0  0  0  0  0  0  0  0  0  0  0  0
  189.3810  178.0140  134.8600 F   0  0  0  0  0  0  0  0  0  0  0  0
  188.0480  176.2840  135.7770 C   0  0  0  0  0  1  0  0  0  0  0  0
  187.2590  178.4750  135.4430 F   0  0  0  0  0  0  0  0  0  0  0  0
  1  6  1  0  0  0  0
  2  3  1  0  0  0  0
  2 12  1  1  0  0  0
  3  9  1  0  0  0  0
  4  1  1  0  0  0  0
  5  7  1  0  0  0  0
  5  8  1  0  0  0  0
  7 10  1  0  0  0  0
  8 20  1  1  0  0  0
  8  2  1  0  0  0  0
  9  1  1  0  0  0  0
 10 11  1  0  0  0  0
 10  3  2  0  0  0  0
 11  4  1  0  0  0  0
 12 17  1  0  0  0  0
 13 15  2  0  0  0  0
 14 13  1  0  0  0  0
 14 12  2  0  0  0  0
 15 16  1  0  0  0  0
 16 18  2  0  0  0  0
 17 18  1  0  0  0  0
 19 20  1  0  0  0  0
 21  5  1  0  0  0  0
 23 22  1  6  0  0  0
 23 21  1  0  0  0  0
 24 25  2  0  0  0  0
 25 23  1  0  0  0  0
 27 26  1  6  0  0  0
 27 25  1  0  0  0  0
 28 27  1  0  0  0  0
 29 28  1  0  0  0  0
 30 28  1  0  0  0  0
 31 28  1  0  0  0  0
M  END
>  <MODEL>
4

>  <REMARK>
 VINA RESULT:      -7.7      4.404      6.857
  Name = 
  7 active torsions:
  status: ('A' for Active; 'I' for Inactive)
    1  A    between atoms: C_1  and  C_19
    2  A    between atoms: C_4  and  C_5
    3  A    between atoms: C_9  and  C_22
    4  A    between atoms: C_9  and  C_23
    5  A    between atoms: N_15  and  C_23
    6  A    between atoms: C_19  and  C_22
    7  A    between atoms: C_21  and  C_29
                            x       y       z     vdW  Elec       q    Type
                         _______ _______ _______ _____ _____    ______ ____

>  <TORSDO>
F 7

$$$$
=
 OpenBabel10262419213D

 31 33  0  0  1  0  0  0  0  0999 V2000
  184.8590  179.3710  142.9040 N   0  0  0  0  0  0  0  0  0  0  0  0
  188.4510  178.7500  141.9290 C   0  0  2  0  0  3  0  0  0  0  0  0
  186.9410  178.5620  141.9020 C   0  0  0  0  0  0  0  0  0  0  0  0
  184.1240  178.4700  142.0250 C   0  0  0  0  0  2  0  0  0  0  0  0
  188.3160  178.9440  139.4880 N   0  0  0  0  0  0  0  0  0  0  0  0
  184.1400  179.4050  144.1650 C   0  0  0  0  0  1  0  0  0  0  0  0
  187.0500  178.2080  139.4400 C   0  0  0  0  0  2  0  0  0  0  0  0
  189.1460  178.4280  140.5890 C   0  0  2  0  0  3  0  0  0  0  0  0
  186.1520  178.7480  143.1760 C   0  0  0  0  0  2  0  0  0  0  0  0
  186.2870  178.3760  140.7270 C   0  0  0  0  0  0  0  0  0  0  0  0
  184.7800  178.4410  140.6450 C   0  0  0  0  0  2  0  0  0  0  0  0
  189.1490  178.2120  143.1510 C   0  0  0  0  0  0  0  0  0  0  0  0
  188.9390  176.7530  145.1520 N   0  0  0  0  0  0  0  0  0  0  0  0
  188.4740  177.3880  143.9600 C   0  0  0  0  0  2  0  0  0  0  0  0
  190.2040  176.7970  145.8110 C   0  0  0  0  0  3  0  0  0  0  0  0
  191.2730  177.4780  145.4200 C   0  0  0  0  0  3  0  0  0  0  0  0
  190.5450  178.6380  143.3060 C   0  0  0  0  0  3  0  0  0  0  0  0
  191.4320  178.3360  144.2470 C   0  0  0  0  0  3  0  0  0  0  0  0
  190.9670  176.7530  140.2190 C   0  0  0  0  0  1  0  0  0  0  0  0
  189.4760  176.9330  140.4300 C   0  0  0  0  0  2  0  0  0  0  0  0
  189.0070  178.7580  138.2180 C   0  0  0  0  0  2  0  0  0  0  0  0
  187.5570  179.5100  136.4690 O   0  0  0  0  0  1  0  0  0  0  0  0
  188.0170  178.3690  137.1320 C   0  0  1  0  0  3  0  0  0  0  0  0
  188.8500  177.7470  135.0290 O   0  0  0  0  0  0  0  0  0  0  0  0
  188.6560  177.3920  136.1800 C   0  0  0  0  0  0  0  0  0  0  0  0
  188.2870  175.0470  135.8730 O   0  0  0  0  0  1  0  0  0  0  0  0
  189.0470  175.9880  136.5710 C   0  0  1  0  0  3  0  0  0  0  0  0
  190.5460  175.6910  136.4390 C   0  0  0  0  0  0  0  0  0  0  0  0
  191.3010  176.7540  136.8980 F   0  0  0  0  0  0  0  0  0  0  0  0
  190.9150  174.4400  137.2180 C   0  0  0  0  0  1  0  0  0  0  0  0
  190.8470  175.4750  135.1060 F   0  0  0  0  0  0  0  0  0  0  0  0
  1  9  1  0  0  0  0
  1  6  1  0  0  0  0
  2 12  1  1  0  0  0
  3  2  1  0  0  0  0
  3  9  1  0  0  0  0
  4  1  1  0  0  0  0
  5  8  1  0  0  0  0
  7  5  1  0  0  0  0
  7 10  1  0  0  0  0
  8 20  1  6  0  0  0
  8  2  1  0  0  0  0
 10  3  2  0  0  0  0
 11 10  1  0  0  0  0
 11  4  1  0  0  0  0
 12 17  2  0  0  0  0
 12 14  1  0  0  0  0
 13 15  2  0  0  0  0
 14 13  1  0  0  0  0
 16 15  1  0  0  0  0
 17 18  1  0  0  0  0
 18 16  2  0  0  0  0
 19 20  1  0  0  0  0
 21  5  1  0  0  0  0
 23 22  1  6  0  0  0
 23 21  1  0  0  0  0
 24 25  2  0  0  0  0
 25 27  1  0  0  0  0
 25 23  1  0  0  0  0
 27 26  1  6  0  0  0
 28 27  1  0  0  0  0
 28 29  1  0  0  0  0
 28 30  1  0  0  0  0
 31 28  1  0  0  0  0
M  END
>  <MODEL>
5

>  <REMARK>
 VINA RESULT:      -7.4      4.537      7.308
  Name = 
  7 active torsions:
  status: ('A' for Active; 'I' for Inactive)
    1  A    between atoms: C_1  and  C_19
    2  A    between atoms: C_4  and  C_5
    3  A    between atoms: C_9  and  C_22
    4  A    between atoms: C_9  and  C_23
    5  A    between atoms: N_15  and  C_23
    6  A    between atoms: C_19  and  C_22
    7  A    between atoms: C_21  and  C_29
                            x       y       z     vdW  Elec       q    Type
                         _______ _______ _______ _____ _____    ______ ____

>  <TORSDO>
F 7

$$$$
=
 OpenBabel10262419213D

 31 33  0  0  1  0  0  0  0  0999 V2000
  186.9210  176.5020  136.3620 N   0  0  0  0  0  0  0  0  0  0  0  0
  190.1120  175.9280  138.2930 C   0  0  2  0  0  3  0  0  0  0  0  0
  188.9290  176.7140  137.7470 C   0  0  0  0  0  0  0  0  0  0  0  0
  186.6170  177.8990  136.6460 C   0  0  0  0  0  2  0  0  0  0  0  0
  189.5020  176.8310  140.4890 N   0  0  0  0  0  0  0  0  0  0  0  0
  186.5010  176.2510  134.9960 C   0  0  0  0  0  1  0  0  0  0  0  0
  188.8010  177.9710  139.8920 C   0  0  0  0  0  2  0  0  0  0  0  0
  190.6460  176.4560  139.6410 C   0  0  2  0  0  3  0  0  0  0  0  0
  188.3740  176.3630  136.3860 C   0  0  0  0  0  2  0  0  0  0  0  0
  188.2800  177.6180  138.5240 C   0  0  0  0  0  0  0  0  0  0  0  0
  186.9610  178.2200  138.1000 C   0  0  0  0  0  2  0  0  0  0  0  0
  191.1750  175.5740  137.2840 C   0  0  0  0  0  0  0  0  0  0  0  0
  192.2140  176.1770  135.1080 N   0  0  0  0  0  0  0  0  0  0  0  0
  191.2780  176.3200  136.1790 C   0  0  0  0  0  3  0  0  0  0  0  0
  193.2750  175.2450  134.9030 C   0  0  0  0  0  3  0  0  0  0  0  0
  193.6320  174.2630  135.7200 C   0  0  0  0  0  3  0  0  0  0  0  0
  192.0270  174.4370  137.6540 C   0  0  0  0  0  2  0  0  0  0  0  0
  193.0490  173.8880  137.0080 C   0  0  0  0  0  3  0  0  0  0  0  0
  193.0380  177.1340  139.9090 C   0  0  0  0  0  1  0  0  0  0  0  0
  191.6620  177.6000  139.4770 C   0  0  0  0  0  2  0  0  0  0  0  0
  189.9740  177.2210  141.8120 C   0  0  0  0  0  2  0  0  0  0  0  0
  188.2850  175.9340  142.9150 O   0  0  0  0  0  1  0  0  0  0  0  0
  188.8220  177.2190  142.8040 C   0  0  1  0  0  3  0  0  0  0  0  0
  190.0790  178.6720  144.1500 O   0  0  0  0  0  0  0  0  0  0  0  0
  189.2900  177.7420  144.1370 C   0  0  0  0  0  0  0  0  0  0  0  0
  189.8080  177.3900  146.4480 O   0  0  0  0  0  1  0  0  0  0  0  0
  188.8500  177.1590  145.4580 C   0  0  1  0  0  3  0  0  0  0  0  0
  187.4610  177.6200  145.9190 C   0  0  0  0  0  0  0  0  0  0  0  0
  186.5100  176.6500  145.6610 F   0  0  0  0  0  0  0  0  0  0  0  0
  187.4670  177.9330  147.4050 C   0  0  0  0  0  1  0  0  0  0  0  0
  187.1180  178.7720  145.2350 F   0  0  0  0  0  0  0  0  0  0  0  0
  1  9  1  0  0  0  0
  1  4  1  0  0  0  0
  2 12  1  6  0  0  0
  2  8  1  0  0  0  0
  3  2  1  0  0  0  0
  3 10  2  0  0  0  0
  4 11  1  0  0  0  0
  5 21  1  0  0  0  0
  6  1  1  0  0  0  0
  7  5  1  0  0  0  0
  8 20  1  6  0  0  0
  8  5  1  0  0  0  0
  9  3  1  0  0  0  0
 10  7  1  0  0  0  0
 11 10  1  0  0  0  0
 12 17  1  0  0  0  0
 13 14  1  0  0  0  0
 14 12  2  0  0  0  0
 15 13  2  0  0  0  0
 15 16  1  0  0  0  0
 16 18  2  0  0  0  0
 18 17  1  0  0  0  0
 20 19  1  0  0  0  0
 21 23  1  0  0  0  0
 23 22  1  1  0  0  0
 23 25  1  0  0  0  0
 25 24  2  0  0  0  0
 25 27  1  0  0  0  0
 27 28  1  0  0  0  0
 27 26  1  1  0  0  0
 28 30  1  0  0  0  0
 29 28  1  0  0  0  0
 31 28  1  0  0  0  0
M  END
>  <MODEL>
6

>  <REMARK>
 VINA RESULT:      -7.4      4.758      8.210
  Name = 
  7 active torsions:
  status: ('A' for Active; 'I' for Inactive)
    1  A    between atoms: C_1  and  C_19
    2  A    between atoms: C_4  and  C_5
    3  A    between atoms: C_9  and  C_22
    4  A    between atoms: C_9  and  C_23
    5  A    between atoms: N_15  and  C_23
    6  A    between atoms: C_19  and  C_22
    7  A    between atoms: C_21  and  C_29
                            x       y       z     vdW  Elec       q    Type
                         _______ _______ _______ _____ _____    ______ ____

>  <TORSDO>
F 7

$$$$
=
 OpenBabel10262419213D

 31 33  0  0  1  0  0  0  0  0999 V2000
  184.4260  179.4860  143.3240 N   0  0  0  0  0  0  0  0  0  0  0  0
  188.0570  178.4590  143.3810 C   0  0  2  0  0  3  0  0  0  0  0  0
  186.5970  178.4160  142.9540 C   0  0  0  0  0  0  0  0  0  0  0  0
  183.8550  178.6030  142.3140 C   0  0  0  0  0  2  0  0  0  0  0  0
  188.5950  178.5010  140.9890 N   0  0  0  0  0  0  0  0  0  0  0  0
  183.4080  179.6740  144.3410 C   0  0  0  0  0  1  0  0  0  0  0  0
  187.3130  177.8880  140.6290 C   0  0  0  0  0  2  0  0  0  0  0  0
  189.0410  177.9820  142.2920 C   0  0  2  0  0  3  0  0  0  0  0  0
  185.5240  178.7620  143.9600 C   0  0  0  0  0  2  0  0  0  0  0  0
  186.2600  178.2150  141.6540 C   0  0  0  0  0  0  0  0  0  0  0  0
  184.8460  178.4200  141.1650 C   0  0  0  0  0  2  0  0  0  0  0  0
  188.3420  177.9380  144.7660 C   0  0  0  0  0  0  0  0  0  0  0  0
  187.3490  177.0460  146.8630 N   0  0  0  0  0  0  0  0  0  0  0  0
  187.3100  177.5760  145.5360 C   0  0  0  0  0  2  0  0  0  0  0  0
  188.4450  176.7520  147.7280 C   0  0  0  0  0  3  0  0  0  0  0  0
  189.7330  176.9170  147.4540 C   0  0  0  0  0  3  0  0  0  0  0  0
  189.7660  177.8530  145.1150 C   0  0  0  0  0  3  0  0  0  0  0  0
  190.3490  177.4290  146.2310 C   0  0  0  0  0  3  0  0  0  0  0  0
  190.6920  176.1170  142.5310 C   0  0  0  0  0  1  0  0  0  0  0  0
  189.2340  176.4540  142.2860 C   0  0  0  0  0  2  0  0  0  0  0  0
  189.5720  178.1640  139.9610 C   0  0  0  0  0  2  0  0  0  0  0  0
  189.0560  179.3480  137.9470 O   0  0  0  0  0  1  0  0  0  0  0  0
  188.9060  178.1200  138.5950 C   0  0  1  0  0  3  0  0  0  0  0  0
  189.1430  176.8880  136.6120 O   0  0  0  0  0  0  0  0  0  0  0  0
  189.4780  176.9890  137.7810 C   0  0  0  0  0  0  0  0  0  0  0  0
  190.0510  174.6710  137.9570 O   0  0  0  0  0  1  0  0  0  0  0  0
  190.4270  175.9590  138.3440 C   0  0  1  0  0  3  0  0  0  0  0  0
  191.9040  176.2200  138.0220 C   0  0  0  0  0  0  0  0  0  0  0  0
  192.5610  176.7470  139.1180 F   0  0  0  0  0  0  0  0  0  0  0  0
  192.5930  174.9350  137.5940 C   0  0  0  0  0  1  0  0  0  0  0  0
  191.9860  177.1230  136.9780 F   0  0  0  0  0  0  0  0  0  0  0  0
  1  9  1  0  0  0  0
  1  6  1  0  0  0  0
  2 12  1  1  0  0  0
  3  2  1  0  0  0  0
  3  9  1  0  0  0  0
  4  1  1  0  0  0  0
  5  8  1  0  0  0  0
  7  5  1  0  0  0  0
  7 10  1  0  0  0  0
  8 20  1  6  0  0  0
  8  2  1  0  0  0  0
 10  3  2  0  0  0  0
 11 10  1  0  0  0  0
 11  4  1  0  0  0  0
 12 17  2  0  0  0  0
 12 14  1  0  0  0  0
 13 15  2  0  0  0  0
 14 13  1  0  0  0  0
 16 15  1  0  0  0  0
 17 18  1  0  0  0  0
 18 16  2  0  0  0  0
 20 19  1  0  0  0  0
 21  5  1  0  0  0  0
 23 22  1  6  0  0  0
 23 21  1  0  0  0  0
 24 25  2  0  0  0  0
 25 27  1  0  0  0  0
 25 23  1  0  0  0  0
 27 26  1  6  0  0  0
 28 27  1  0  0  0  0
 28 29  1  0  0  0  0
 30 28  1  0  0  0  0
 31 28  1  0  0  0  0
M  END
>  <MODEL>
7

>  <REMARK>
 VINA RESULT:      -7.3      4.561      7.323
  Name = 
  7 active torsions:
  status: ('A' for Active; 'I' for Inactive)
    1  A    between atoms: C_1  and  C_19
    2  A    between atoms: C_4  and  C_5
    3  A    between atoms: C_9  and  C_22
    4  A    between atoms: C_9  and  C_23
    5  A    between atoms: N_15  and  C_23
    6  A    between atoms: C_19  and  C_22
    7  A    between atoms: C_21  and  C_29
                            x       y       z     vdW  Elec       q    Type
                         _______ _______ _______ _____ _____    ______ ____

>  <TORSDO>
F 7

$$$$
=
 OpenBabel10262419213D

 31 33  0  0  1  0  0  0  0  0999 V2000
  184.2110  179.2950  143.6370 N   0  0  0  0  0  0  0  0  0  0  0  0
  187.8960  178.5070  143.4410 C   0  0  2  0  0  3  0  0  0  0  0  0
  186.4180  178.3810  143.1020 C   0  0  0  0  0  0  0  0  0  0  0  0
  183.6350  178.4060  142.6350 C   0  0  0  0  0  2  0  0  0  0  0  0
  188.2800  178.6530  141.0230 N   0  0  0  0  0  0  0  0  0  0  0  0
  183.2470  179.3870  144.7190 C   0  0  0  0  0  1  0  0  0  0  0  0
  187.0200  177.9680  140.7210 C   0  0  0  0  0  2  0  0  0  0  0  0
  188.8390  178.1270  142.2800 C   0  0  2  0  0  3  0  0  0  0  0  0
  185.3890  178.6270  144.1810 C   0  0  0  0  0  2  0  0  0  0  0  0
  186.0140  178.1960  141.8180 C   0  0  0  0  0  0  0  0  0  0  0  0
  184.5620  178.3210  141.4230 C   0  0  0  0  0  2  0  0  0  0  0  0
  188.2990  177.9680  144.7890 C   0  0  0  0  0  0  0  0  0  0  0  0
  187.4900  177.0830  146.9660 N   0  0  0  0  0  0  0  0  0  0  0  0
  187.3370  177.6260  145.6520 C   0  0  0  0  0  2  0  0  0  0  0  0
  188.6560  176.7520  147.7190 C   0  0  0  0  0  3  0  0  0  0  0  0
  189.9150  176.8870  147.3230 C   0  0  0  0  0  3  0  0  0  0  0  0
  189.7470  177.8430  144.9980 C   0  0  0  0  0  3  0  0  0  0  0  0
  190.4240  177.3940  146.0490 C   0  0  0  0  0  3  0  0  0  0  0  0
  190.6250  176.3790  142.1960 C   0  0  0  0  0  1  0  0  0  0  0  0
  189.1280  176.6170  142.2120 C   0  0  0  0  0  2  0  0  0  0  0  0
  189.2110  178.4110  139.9280 C   0  0  0  0  0  2  0  0  0  0  0  0
  188.6800  179.2430  137.7480 O   0  0  0  0  0  1  0  0  0  0  0  0
  188.4510  178.1850  138.6310 C   0  0  1  0  0  3  0  0  0  0  0  0
  187.9620  176.0990  137.6750 O   0  0  0  0  0  0  0  0  0  0  0  0
  188.8450  176.8630  138.0270 C   0  0  0  0  0  0  0  0  0  0  0  0
  190.5790  175.3580  138.7100 O   0  0  0  0  0  1  0  0  0  0  0  0
  190.2800  176.4240  137.8570 C   0  0  1  0  0  3  0  0  0  0  0  0
  190.6720  176.0960  136.4110 C   0  0  0  0  0  0  0  0  0  0  0  0
  190.1920  177.0580  135.5410 F   0  0  0  0  0  0  0  0  0  0  0  0
  192.1810  176.0030  136.2730 C   0  0  0  0  0  1  0  0  0  0  0  0
  190.1290  174.8730  136.0620 F   0  0  0  0  0  0  0  0  0  0  0  0
  1  9  1  0  0  0  0
  1  6  1  0  0  0  0
  2 12  1  1  0  0  0
  3  2  1  0  0  0  0
  3  9  1  0  0  0  0
  4  1  1  0  0  0  0
  5  8  1  0  0  0  0
  7  5  1  0  0  0  0
  7 10  1  0  0  0  0
  8 20  1  6  0  0  0
  8  2  1  0  0  0  0
 10  3  2  0  0  0  0
 11 10  1  0  0  0  0
 11  4  1  0  0  0  0
 12 17  2  0  0  0  0
 12 14  1  0  0  0  0
 13 15  2  0  0  0  0
 14 13  1  0  0  0  0
 16 15  1  0  0  0  0
 17 18  1  0  0  0  0
 18 16  2  0  0  0  0
 19 20  1  0  0  0  0
 21  5  1  0  0  0  0
 23 22  1  6  0  0  0
 23 21  1  0  0  0  0
 24 25  2  0  0  0  0
 25 23  1  0  0  0  0
 27 25  1  0  0  0  0
 27 26  1  1  0  0  0
 28 27  1  0  0  0  0
 29 28  1  0  0  0  0
 30 28  1  0  0  0  0
 31 28  1  0  0  0  0
M  END
>  <MODEL>
8

>  <REMARK>
 VINA RESULT:      -7.3      4.377      7.162
  Name = 
  7 active torsions:
  status: ('A' for Active; 'I' for Inactive)
    1  A    between atoms: C_1  and  C_19
    2  A    between atoms: C_4  and  C_5
    3  A    between atoms: C_9  and  C_22
    4  A    between atoms: C_9  and  C_23
    5  A    between atoms: N_15  and  C_23
    6  A    between atoms: C_19  and  C_22
    7  A    between atoms: C_21  and  C_29
                            x       y       z     vdW  Elec       q    Type
                         _______ _______ _______ _____ _____    ______ ____

>  <TORSDO>
F 7

$$$$
=
 OpenBabel10262419213D

 31 33  0  0  1  0  0  0  0  0999 V2000
  185.8230  178.2140  140.8910 N   0  0  0  0  0  0  0  0  0  0  0  0
  189.2460  176.8600  140.0610 C   0  0  2  0  0  3  0  0  0  0  0  0
  188.2280  177.8160  140.6670 C   0  0  0  0  0  0  0  0  0  0  0  0
  186.1260  179.3770  141.7170 C   0  0  0  0  0  2  0  0  0  0  0  0
  190.2770  176.7940  142.2850 N   0  0  0  0  0  0  0  0  0  0  0  0
  184.6470  178.5500  140.1100 C   0  0  0  0  0  1  0  0  0  0  0  0
  189.6990  178.0870  142.6580 C   0  0  0  0  0  2  0  0  0  0  0  0
  190.5750  176.7830  140.8430 C   0  0  2  0  0  3  0  0  0  0  0  0
  186.9240  178.0590  139.9440 C   0  0  0  0  0  2  0  0  0  0  0  0
  188.4150  178.3310  141.9090 C   0  0  0  0  0  0  0  0  0  0  0  0
  187.3130  179.0710  142.6300 C   0  0  0  0  0  2  0  0  0  0  0  0
  189.3950  176.9370  138.5630 C   0  0  0  0  0  0  0  0  0  0  0  0
  189.9530  175.6780  136.4940 N   0  0  0  0  0  0  0  0  0  0  0  0
  189.7680  175.8360  137.9030 C   0  0  0  0  0  3  0  0  0  0  0  0
  189.8000  176.5990  135.4150 C   0  0  0  0  0  3  0  0  0  0  0  0
  189.4270  177.8690  135.5080 C   0  0  0  0  0  3  0  0  0  0  0  0
  189.0720  178.2430  137.9750 C   0  0  0  0  0  2  0  0  0  0  0  0
  189.0840  178.6350  136.7060 C   0  0  0  0  0  3  0  0  0  0  0  0
  192.7880  177.2570  139.7780 C   0  0  0  0  0  1  0  0  0  0  0  0
  191.5740  177.8820  140.4370 C   0  0  0  0  0  2  0  0  0  0  0  0
  191.5070  176.6020  143.0450 C   0  0  0  0  0  2  0  0  0  0  0  0
  192.0570  174.8200  144.5440 O   0  0  0  0  0  1  0  0  0  0  0  0
  191.2070  175.9140  144.3670 C   0  0  1  0  0  3  0  0  0  0  0  0
  191.8550  177.9770  145.2760 O   0  0  0  0  0  0  0  0  0  0  0  0
  191.3270  176.9000  145.4990 C   0  0  0  0  0  0  0  0  0  0  0  0
  191.7480  177.1110  147.8460 O   0  0  0  0  0  1  0  0  0  0  0  0
  190.8460  176.6160  146.9010 C   0  0  1  0  0  3  0  0  0  0  0  0
  189.4220  177.1070  147.1920 C   0  0  0  0  0  0  0  0  0  0  0  0
  188.6400  176.0810  147.6900 F   0  0  0  0  0  0  0  0  0  0  0  0
  189.4440  178.2510  148.1910 C   0  0  0  0  0  1  0  0  0  0  0  0
  188.8550  177.5680  146.0180 F   0  0  0  0  0  0  0  0  0  0  0  0
  1  4  1  0  0  0  0
  2 12  1  6  0  0  0
  2  3  1  0  0  0  0
  2  8  1  0  0  0  0
  3 10  2  0  0  0  0
  4 11  1  0  0  0  0
  5  7  1  0  0  0  0
  5 21  1  0  0  0  0
  6  1  1  0  0  0  0
  8 20  1  1  0  0  0
  8  5  1  0  0  0  0
  9  3  1  0  0  0  0
  9  1  1  0  0  0  0
 10 11  1  0  0  0  0
 10  7  1  0  0  0  0
 13 14  1  0  0  0  0
 14 12  2  0  0  0  0
 15 16  1  0  0  0  0
 15 13  2  0  0  0  0
 16 18  2  0  0  0  0
 17 12  1  0  0  0  0
 18 17  1  0  0  0  0
 19 20  1  0  0  0  0
 21 23  1  0  0  0  0
 23 22  1  1  0  0  0
 23 25  1  0  0  0  0
 24 25  2  0  0  0  0
 25 27  1  0  0  0  0
 27 28  1  0  0  0  0
 27 26  1  1  0  0  0
 28 29  1  0  0  0  0
 28 30  1  0  0  0  0
 31 28  1  0  0  0  0
M  END
>  <MODEL>
9

>  <REMARK>
 VINA RESULT:      -7.2      4.994      8.548
  Name = 
  7 active torsions:
  status: ('A' for Active; 'I' for Inactive)
    1  A    between atoms: C_1  and  C_19
    2  A    between atoms: C_4  and  C_5
    3  A    between atoms: C_9  and  C_22
    4  A    between atoms: C_9  and  C_23
    5  A    between atoms: N_15  and  C_23
    6  A    between atoms: C_19  and  C_22
    7  A    between atoms: C_21  and  C_29
                            x       y       z     vdW  Elec       q    Type
                         _______ _______ _______ _____ _____    ______ ____

>  <TORSDO>
F 7

$$$$
