=
 OpenBabel10262420043D

 27 31  0  0  1  0  0  0  0  0999 V2000
  191.3570  177.7370  142.2910 N   0  0  0  0  0  0  0  0  0  0  0  0
  189.0120  177.8700  141.5380 C   0  0  0  0  0  0  0  0  0  0  0  0
  188.7860  177.3420  144.0190 N   0  0  0  0  0  2  0  0  0  0  0  0
  184.5890  178.8770  141.5990 S   0  0  0  0  0  0  0  0  0  0  0  0
  184.2240  179.6450  144.2080 C   0  0  0  0  0  1  0  0  0  0  0  0
  188.3720  178.3380  140.4240 N   0  0  0  0  0  0  0  0  0  0  0  0
  185.9330  177.9640  143.7470 N   0  0  0  0  0  0  0  0  0  0  0  0
  186.1650  177.3000  145.0220 C   0  0  0  0  0  1  0  0  0  0  0  0
  186.8740  178.0320  142.6770 C   0  0  0  0  0  0  0  0  0  0  0  0
  190.4670  177.5370  141.3640 C   0  0  0  0  0  0  0  0  0  0  0  0
  184.5960  178.4270  143.3830 C   0  0  2  0  0  3  0  0  0  0  0  0
  186.3230  178.4890  141.5130 C   0  0  0  0  0  0  0  0  0  0  0  0
  191.0650  178.1470  143.6440 C   0  0  0  0  0  0  0  0  0  0  0  0
  188.2480  177.7280  142.7430 C   0  0  0  0  0  0  0  0  0  0  0  0
  187.0750  178.6440  140.4050 N   0  0  0  0  0  0  0  0  0  0  0  0
  190.9950  179.6390  143.8730 C   0  0  0  0  0  2  0  0  0  0  0  0
  192.2170  178.8390  144.3350 C   0  0  0  0  0  2  0  0  0  0  0  0
  190.1730  177.1940  144.4230 C   0  0  1  0  0  3  0  0  0  0  0  0
  191.9250  176.0920  137.6520 N   0  0  0  0  0  0  0  0  0  0  0  0
  190.9580  177.0440  140.0500 C   0  0  0  0  0  0  0  0  0  0  0  0
  190.1120  176.3690  139.1620 C   0  0  0  0  0  3  0  0  0  0  0  0
  190.6150  175.8970  137.9530 C   0  0  0  0  0  3  0  0  0  0  0  0
  192.7430  176.7240  138.4950 N   0  0  0  0  0  0  0  0  0  0  0  0
  192.3010  177.2030  139.6870 C   0  0  0  0  0  3  0  0  0  0  0  0
  190.3100  177.2370  145.9490 C   0  0  0  0  0  2  0  0  0  0  0  0
  191.4450  176.3610  146.4560 C   0  0  0  0  0  2  0  0  0  0  0  0
  191.8980  176.8550  147.7430 N   0  0  0  0  0  1  0  0  0  0  0  0
  1 13  1  0  0  0  0
  2 14  1  0  0  0  0
  3 18  1  0  0  0  0
  4 11  1  0  0  0  0
  6  2  2  0  0  0  0
  7  8  1  0  0  0  0
  9 14  2  0  0  0  0
  9  7  1  0  0  0  0
 10  2  1  0  0  0  0
 10  1  2  0  0  0  0
 11  7  1  0  0  0  0
 11  5  1  1  0  0  0
 12  4  1  0  0  0  0
 12  9  1  0  0  0  0
 13 16  1  0  0  0  0
 13 17  1  0  0  0  0
 13 18  1  0  0  0  0
 14  3  1  0  0  0  0
 15  6  1  0  0  0  0
 15 12  2  0  0  0  0
 16 17  1  0  0  0  0
 18 25  1  1  0  0  0
 19 22  2  0  0  0  0
 19 23  1  0  0  0  0
 20 10  1  0  0  0  0
 21 20  2  0  0  0  0
 22 21  1  0  0  0  0
 23 24  2  0  0  0  0
 24 20  1  0  0  0  0
 25 26  1  0  0  0  0
 26 27  1  0  0  0  0
M  END
>  <MODEL>
1

>  <REMARK>
 VINA RESULT:      -8.5      0.000      0.000
  Name = 
  3 active torsions:
  status: ('A' for Active; 'I' for Inactive)
    1  A    between atoms: C_9  and  C_15
    2  A    between atoms: C_10  and  C_20
    3  A    between atoms: C_20  and  C_26
                            x       y       z     vdW  Elec       q    Type
                         _______ _______ _______ _____ _____    ______ ____

>  <TORSDO>
F 3

$$$$
=
 OpenBabel10262420043D

 27 31  0  0  1  0  0  0  0  0999 V2000
  190.3200  177.4260  140.6530 N   0  0  0  0  0  0  0  0  0  0  0  0
  187.9800  178.0350  141.1400 C   0  0  0  0  0  0  0  0  0  0  0  0
  188.6830  176.7540  143.2260 N   0  0  0  0  0  2  0  0  0  0  0  0
  184.3600  179.4110  143.5030 S   0  0  0  0  0  0  0  0  0  0  0  0
  185.3040  179.3210  146.0780 C   0  0  0  0  0  1  0  0  0  0  0  0
  187.0680  178.9020  140.6060 N   0  0  0  0  0  0  0  0  0  0  0  0
  186.2130  177.7170  144.4790 N   0  0  0  0  0  0  0  0  0  0  0  0
  186.7870  176.6540  145.2920 C   0  0  0  0  0  1  0  0  0  0  0  0
  186.6120  178.0330  143.1460 C   0  0  0  0  0  0  0  0  0  0  0  0
  189.1070  177.6300  140.2320 C   0  0  0  0  0  0  0  0  0  0  0  0
  184.9980  178.4070  144.9060 C   0  0  2  0  0  3  0  0  0  0  0  0
  185.7550  178.8980  142.5260 C   0  0  0  0  0  0  0  0  0  0  0  0
  190.7220  177.4010  142.0390 C   0  0  0  0  0  0  0  0  0  0  0  0
  187.7740  177.5870  142.4860 C   0  0  0  0  0  0  0  0  0  0  0  0
  185.9940  179.3280  141.2700 N   0  0  0  0  0  0  0  0  0  0  0  0
  191.1110  178.7360  142.6300 C   0  0  0  0  0  2  0  0  0  0  0  0
  192.1850  177.7100  142.2570 C   0  0  0  0  0  2  0  0  0  0  0  0
  190.0340  176.3420  142.8850 C   0  0  1  0  0  3  0  0  0  0  0  0
  188.3760  177.3700  136.0620 N   0  0  0  0  0  0  0  0  0  0  0  0
  188.8770  177.5440  138.7650 C   0  0  0  0  0  0  0  0  0  0  0  0
  189.2140  178.6020  137.9120 C   0  0  0  0  0  3  0  0  0  0  0  0
  188.9570  178.4970  136.5480 C   0  0  0  0  0  3  0  0  0  0  0  0
  188.0400  176.3600  136.8660 N   0  0  0  0  0  0  0  0  0  0  0  0
  188.2690  176.4140  138.2050 C   0  0  0  0  0  3  0  0  0  0  0  0
  190.7970  175.8720  144.1290 C   0  0  0  0  0  2  0  0  0  0  0  0
  190.5200  176.7430  145.3440 C   0  0  0  0  0  2  0  0  0  0  0  0
  191.7700  177.0360  146.0220 N   0  0  0  0  0  1  0  0  0  0  0  0
  1 13  1  0  0  0  0
  2 14  1  0  0  0  0
  4 11  1  0  0  0  0
  6  2  2  0  0  0  0
  6 15  1  0  0  0  0
  7 11  1  0  0  0  0
  7  8  1  0  0  0  0
  9  7  1  0  0  0  0
 10  1  2  0  0  0  0
 10  2  1  0  0  0  0
 11  5  1  1  0  0  0
 12  9  1  0  0  0  0
 12  4  1  0  0  0  0
 13 17  1  0  0  0  0
 13 16  1  0  0  0  0
 13 18  1  0  0  0  0
 14  9  2  0  0  0  0
 14  3  1  0  0  0  0
 15 12  2  0  0  0  0
 17 16  1  0  0  0  0
 18  3  1  0  0  0  0
 18 25  1  1  0  0  0
 19 22  2  0  0  0  0
 19 23  1  0  0  0  0
 20 10  1  0  0  0  0
 21 20  2  0  0  0  0
 22 21  1  0  0  0  0
 23 24  2  0  0  0  0
 24 20  1  0  0  0  0
 25 26  1  0  0  0  0
 26 27  1  0  0  0  0
M  END
>  <MODEL>
2

>  <REMARK>
 VINA RESULT:      -7.4      1.908      2.272
  Name = 
  3 active torsions:
  status: ('A' for Active; 'I' for Inactive)
    1  A    between atoms: C_9  and  C_15
    2  A    between atoms: C_10  and  C_20
    3  A    between atoms: C_20  and  C_26
                            x       y       z     vdW  Elec       q    Type
                         _______ _______ _______ _____ _____    ______ ____

>  <TORSDO>
F 3

$$$$
=
 OpenBabel10262420043D

 27 31  0  0  1  0  0  0  0  0999 V2000
  189.1440  176.5870  136.9280 N   0  0  0  0  0  0  0  0  0  0  0  0
  189.7770  176.7470  139.3060 C   0  0  0  0  0  0  0  0  0  0  0  0
  187.6480  178.1400  139.1870 N   0  0  0  0  0  2  0  0  0  0  0  0
  189.3170  176.8740  143.8180 S   0  0  0  0  0  0  0  0  0  0  0  0
  186.6030  177.1650  144.0970 C   0  0  0  0  0  1  0  0  0  0  0  0
  190.6430  176.0820  140.1300 N   0  0  0  0  0  0  0  0  0  0  0  0
  187.6520  178.1390  142.1200 N   0  0  0  0  0  0  0  0  0  0  0  0
  186.7030  179.1310  141.6360 C   0  0  0  0  0  1  0  0  0  0  0  0
  188.6360  177.4890  141.3170 C   0  0  0  0  0  0  0  0  0  0  0  0
  190.0730  176.6530  137.8360 C   0  0  0  0  0  0  0  0  0  0  0  0
  187.8130  177.9000  143.5520 C   0  0  2  0  0  3  0  0  0  0  0  0
  189.5530  176.7970  142.0570 C   0  0  0  0  0  0  0  0  0  0  0  0
  187.7320  176.7510  137.1750 C   0  0  0  0  0  0  0  0  0  0  0  0
  188.6970  177.4700  139.9100 C   0  0  0  0  0  0  0  0  0  0  0  0
  190.5390  176.0970  141.4590 N   0  0  0  0  0  0  0  0  0  0  0  0
  186.9820  175.4910  137.5390 C   0  0  0  0  0  2  0  0  0  0  0  0
  186.8490  176.0950  136.1380 C   0  0  0  0  0  2  0  0  0  0  0  0
  187.3380  178.0940  137.7690 C   0  0  1  0  0  3  0  0  0  0  0  0
  194.1040  176.2610  136.5770 N   0  0  0  0  0  0  0  0  0  0  0  0
  191.4810  176.5320  137.3730 C   0  0  0  0  0  0  0  0  0  0  0  0
  191.7880  176.0850  136.0830 C   0  0  0  0  0  3  0  0  0  0  0  0
  193.1180  175.9570  135.6950 C   0  0  0  0  0  3  0  0  0  0  0  0
  193.8250  176.6780  137.8130 N   0  0  0  0  0  0  0  0  0  0  0  0
  192.5420  176.8190  138.2400 C   0  0  0  0  0  3  0  0  0  0  0  0
  185.8990  178.5520  137.5050 C   0  0  0  0  0  2  0  0  0  0  0  0
  185.0300  178.4870  138.7510 C   0  0  0  0  0  2  0  0  0  0  0  0
  184.4940  179.8050  139.0360 N   0  0  0  0  0  1  0  0  0  0  0  0
  1 13  1  0  0  0  0
  1 10  2  0  0  0  0
  2 14  2  0  0  0  0
  2  6  1  0  0  0  0
  3 14  1  0  0  0  0
  6 15  2  0  0  0  0
  7 11  1  0  0  0  0
  8  7  1  0  0  0  0
  9 12  2  0  0  0  0
  9  7  1  0  0  0  0
 10  2  1  0  0  0  0
 11  4  1  0  0  0  0
 11  5  1  6  0  0  0
 12  4  1  0  0  0  0
 13 16  1  0  0  0  0
 13 18  1  0  0  0  0
 14  9  1  0  0  0  0
 15 12  1  0  0  0  0
 17 13  1  0  0  0  0
 17 16  1  0  0  0  0
 18 25  1  1  0  0  0
 18  3  1  0  0  0  0
 19 23  1  0  0  0  0
 20 10  1  0  0  0  0
 20 24  1  0  0  0  0
 21 20  2  0  0  0  0
 22 21  1  0  0  0  0
 22 19  2  0  0  0  0
 23 24  2  0  0  0  0
 25 26  1  0  0  0  0
 26 27  1  0  0  0  0
M  END
>  <MODEL>
3

>  <REMARK>
 VINA RESULT:      -6.9      2.762      5.693
  Name = 
  3 active torsions:
  status: ('A' for Active; 'I' for Inactive)
    1  A    between atoms: C_9  and  C_15
    2  A    between atoms: C_10  and  C_20
    3  A    between atoms: C_20  and  C_26
                            x       y       z     vdW  Elec       q    Type
                         _______ _______ _______ _____ _____    ______ ____

>  <TORSDO>
F 3

$$$$
=
 OpenBabel10262420043D

 27 31  0  0  1  0  0  0  0  0999 V2000
  181.9230  178.7640  141.9280 N   0  0  0  0  0  0  0  0  0  0  0  0
  183.9020  178.3200  140.5250 C   0  0  0  0  0  0  0  0  0  0  0  0
  182.0520  177.0500  139.3200 N   0  0  0  0  0  2  0  0  0  0  0  0
  186.4070  177.7290  136.7890 S   0  0  0  0  0  0  0  0  0  0  0  0
  184.4790  177.5380  134.8450 C   0  0  0  0  0  1  0  0  0  0  0  0
  185.1590  178.8490  140.4180 N   0  0  0  0  0  0  0  0  0  0  0  0
  183.9210  176.7350  137.0810 N   0  0  0  0  0  0  0  0  0  0  0  0
  182.7830  175.8470  136.8930 C   0  0  0  0  0  1  0  0  0  0  0  0
  184.2310  177.4200  138.2940 C   0  0  0  0  0  0  0  0  0  0  0  0
  183.2030  178.5570  141.8340 C   0  0  0  0  0  0  0  0  0  0  0  0
  184.9800  176.8100  136.0790 C   0  0  2  0  0  3  0  0  0  0  0  0
  185.4750  177.9840  138.2820 C   0  0  0  0  0  0  0  0  0  0  0  0
  180.9830  178.6420  140.8390 C   0  0  0  0  0  0  0  0  0  0  0  0
  183.3840  177.5870  139.4070 C   0  0  0  0  0  0  0  0  0  0  0  0
  185.9220  178.6960  139.3370 N   0  0  0  0  0  0  0  0  0  0  0  0
  180.7750  179.8900  140.0130 C   0  0  0  0  0  2  0  0  0  0  0  0
  179.7180  179.4470  141.0290 C   0  0  0  0  0  2  0  0  0  0  0  0
  180.9180  177.2630  140.2020 C   0  0  1  0  0  3  0  0  0  0  0  0
  185.4120  178.8190  145.4450 N   0  0  0  0  0  0  0  0  0  0  0  0
  183.9980  178.6600  143.0860 C   0  0  0  0  0  0  0  0  0  0  0  0
  185.2880  178.1230  143.1770 C   0  0  0  0  0  3  0  0  0  0  0  0
  185.9900  178.2150  144.3760 C   0  0  0  0  0  3  0  0  0  0  0  0
  184.1800  179.3250  145.3740 N   0  0  0  0  0  0  0  0  0  0  0  0
  183.4530  179.2610  144.2270 C   0  0  0  0  0  3  0  0  0  0  0  0
  179.6020  176.9050  139.5020 C   0  0  0  0  0  2  0  0  0  0  0  0
  179.0790  175.5370  139.9120 C   0  0  0  0  0  2  0  0  0  0  0  0
  178.9440  175.4850  141.3570 N   0  0  0  0  0  1  0  0  0  0  0  0
  2 10  1  0  0  0  0
  3 14  1  0  0  0  0
  3 18  1  0  0  0  0
  4 12  1  0  0  0  0
  6  2  1  0  0  0  0
  7  9  1  0  0  0  0
  8  7  1  0  0  0  0
  9 14  1  0  0  0  0
 10  1  2  0  0  0  0
 10 20  1  0  0  0  0
 11  5  1  6  0  0  0
 11  4  1  0  0  0  0
 11  7  1  0  0  0  0
 12  9  2  0  0  0  0
 12 15  1  0  0  0  0
 13 17  1  0  0  0  0
 13  1  1  0  0  0  0
 14  2  2  0  0  0  0
 15  6  2  0  0  0  0
 16 13  1  0  0  0  0
 16 17  1  0  0  0  0
 18 25  1  6  0  0  0
 18 13  1  0  0  0  0
 20 21  2  0  0  0  0
 20 24  1  0  0  0  0
 21 22  1  0  0  0  0
 22 19  2  0  0  0  0
 23 19  1  0  0  0  0
 24 23  2  0  0  0  0
 25 26  1  0  0  0  0
 26 27  1  0  0  0  0
M  END
>  <MODEL>
4

>  <REMARK>
 VINA RESULT:      -6.6      4.783      9.039
  Name = 
  3 active torsions:
  status: ('A' for Active; 'I' for Inactive)
    1  A    between atoms: C_9  and  C_15
    2  A    between atoms: C_10  and  C_20
    3  A    between atoms: C_20  and  C_26
                            x       y       z     vdW  Elec       q    Type
                         _______ _______ _______ _____ _____    ______ ____

>  <TORSDO>
F 3

$$$$
=
 OpenBabel10262420043D

 27 31  0  0  1  0  0  0  0  0999 V2000
  180.2700  178.8870  139.7080 N   0  0  0  0  0  0  0  0  0  0  0  0
  182.6920  179.3050  139.9160 C   0  0  0  0  0  0  0  0  0  0  0  0
  181.9960  178.7810  142.3090 N   0  0  0  0  0  2  0  0  0  0  0  0
  186.9790  178.7980  141.3120 S   0  0  0  0  0  0  0  0  0  0  0  0
  186.6820  177.0600  143.4150 C   0  0  0  0  0  1  0  0  0  0  0  0
  183.7420  179.4040  139.0450 N   0  0  0  0  0  0  0  0  0  0  0  0
  184.8510  178.6070  142.9530 N   0  0  0  0  0  0  0  0  0  0  0  0
  184.0780  178.6600  144.1850 C   0  0  0  0  0  1  0  0  0  0  0  0
  184.3380  178.8970  141.6530 C   0  0  0  0  0  0  0  0  0  0  0  0
  181.3300  179.5380  139.3260 C   0  0  0  0  0  0  0  0  0  0  0  0
  186.3050  178.4680  142.9920 C   0  0  2  0  0  3  0  0  0  0  0  0
  185.3200  179.0170  140.7100 C   0  0  0  0  0  0  0  0  0  0  0  0
  180.2140  177.9860  140.8330 C   0  0  0  0  0  0  0  0  0  0  0  0
  182.9830  179.0110  141.2890 C   0  0  0  0  0  0  0  0  0  0  0  0
  185.0130  179.2610  139.4190 N   0  0  0  0  0  0  0  0  0  0  0  0
  180.5670  176.5470  140.5360 C   0  0  0  0  0  2  0  0  0  0  0  0
  179.1060  176.9610  140.7410 C   0  0  0  0  0  2  0  0  0  0  0  0
  180.5590  178.6140  142.1740 C   0  0  1  0  0  3  0  0  0  0  0  0
  180.8110  182.1860  136.0540 N   0  0  0  0  0  0  0  0  0  0  0  0
  181.1710  180.4790  138.1860 C   0  0  0  0  0  0  0  0  0  0  0  0
  181.1620  181.8650  138.3810 C   0  0  0  0  0  3  0  0  0  0  0  0
  180.9820  182.7140  137.2930 C   0  0  0  0  0  3  0  0  0  0  0  0
  180.8080  180.8670  135.8570 N   0  0  0  0  0  0  0  0  0  0  0  0
  180.9790  179.9960  136.8860 C   0  0  0  0  0  3  0  0  0  0  0  0
  179.9660  177.9310  143.4120 C   0  0  0  0  0  2  0  0  0  0  0  0
  179.2440  178.9090  144.3250 C   0  0  0  0  0  2  0  0  0  0  0  0
  178.9370  180.1210  143.5890 N   0  0  0  0  0  1  0  0  0  0  0  0
  1 13  1  0  0  0  0
  2 14  1  0  0  0  0
  4 11  1  0  0  0  0
  6 15  1  0  0  0  0
  6  2  2  0  0  0  0
  7 11  1  0  0  0  0
  7  8  1  0  0  0  0
  9  7  1  0  0  0  0
 10  1  2  0  0  0  0
 10  2  1  0  0  0  0
 11  5  1  6  0  0  0
 12  4  1  0  0  0  0
 12  9  1  0  0  0  0
 13 18  1  0  0  0  0
 14  9  2  0  0  0  0
 14  3  1  0  0  0  0
 15 12  2  0  0  0  0
 16 17  1  0  0  0  0
 16 13  1  0  0  0  0
 17 13  1  0  0  0  0
 18  3  1  0  0  0  0
 18 25  1  1  0  0  0
 19 22  1  0  0  0  0
 20 21  1  0  0  0  0
 20 10  1  0  0  0  0
 22 21  2  0  0  0  0
 23 19  2  0  0  0  0
 23 24  1  0  0  0  0
 24 20  2  0  0  0  0
 25 26  1  0  0  0  0
 27 26  1  0  0  0  0
M  END
>  <MODEL>
5

>  <REMARK>
 VINA RESULT:      -6.6      5.112      9.168
  Name = 
  3 active torsions:
  status: ('A' for Active; 'I' for Inactive)
    1  A    between atoms: C_9  and  C_15
    2  A    between atoms: C_10  and  C_20
    3  A    between atoms: C_20  and  C_26
                            x       y       z     vdW  Elec       q    Type
                         _______ _______ _______ _____ _____    ______ ____

>  <TORSDO>
F 3

$$$$
=
 OpenBabel10262420043D

 27 31  0  0  1  0  0  0  0  0999 V2000
  188.3070  177.5620  142.0280 N   0  0  0  0  0  0  0  0  0  0  0  0
  189.1440  177.1710  139.7410 C   0  0  0  0  0  0  0  0  0  0  0  0
  191.2830  177.5020  141.0820 N   0  0  0  0  0  2  0  0  0  0  0  0
  191.7740  175.5910  136.4000 S   0  0  0  0  0  0  0  0  0  0  0  0
  193.9260  174.6130  137.7940 C   0  0  0  0  0  1  0  0  0  0  0  0
  188.6070  176.6970  138.5750 N   0  0  0  0  0  0  0  0  0  0  0  0
  192.7410  176.5300  138.7310 N   0  0  0  0  0  0  0  0  0  0  0  0
  193.6780  177.1350  139.6670 C   0  0  0  0  0  1  0  0  0  0  0  0
  191.3210  176.6570  138.7980 C   0  0  0  0  0  0  0  0  0  0  0  0
  188.1590  177.7030  140.7430 C   0  0  0  0  0  0  0  0  0  0  0  0
  193.2170  175.9210  137.4920 C   0  0  2  0  0  3  0  0  0  0  0  0
  190.6940  176.2080  137.6710 C   0  0  0  0  0  0  0  0  0  0  0  0
  189.4840  177.0300  142.6710 C   0  0  0  0  0  0  0  0  0  0  0  0
  190.5690  177.1330  139.8900 C   0  0  0  0  0  0  0  0  0  0  0  0
  189.3490  176.2250  137.5730 N   0  0  0  0  0  0  0  0  0  0  0  0
  189.5070  175.5300  142.8530 C   0  0  0  0  0  2  0  0  0  0  0  0
  189.2220  176.4510  144.0430 C   0  0  0  0  0  2  0  0  0  0  0  0
  190.7640  177.8050  142.4050 C   0  0  1  0  0  3  0  0  0  0  0  0
  184.5530  179.4590  139.3620 N   0  0  0  0  0  0  0  0  0  0  0  0
  186.9000  178.3410  140.2740 C   0  0  0  0  0  0  0  0  0  0  0  0
  185.9410  178.8130  141.1780 C   0  0  0  0  0  3  0  0  0  0  0  0
  184.7620  179.3780  140.7010 C   0  0  0  0  0  3  0  0  0  0  0  0
  185.4550  179.0030  138.4910 N   0  0  0  0  0  0  0  0  0  0  0  0
  186.6210  178.4420  138.9060 C   0  0  0  0  0  3  0  0  0  0  0  0
  191.8610  177.6810  143.4680 C   0  0  0  0  0  2  0  0  0  0  0  0
  191.9660  178.9190  144.3440 C   0  0  0  0  0  2  0  0  0  0  0  0
  190.9300  179.8650  143.9690 N   0  0  0  0  0  1  0  0  0  0  0  0
  1 13  1  0  0  0  0
  2 14  1  0  0  0  0
  2 10  1  0  0  0  0
  3 18  1  0  0  0  0
  4 11  1  0  0  0  0
  4 12  1  0  0  0  0
  6  2  2  0  0  0  0
  7  9  1  0  0  0  0
  7  8  1  0  0  0  0
  9 14  2  0  0  0  0
 10  1  2  0  0  0  0
 11  5  1  1  0  0  0
 11  7  1  0  0  0  0
 12  9  1  0  0  0  0
 13 16  1  0  0  0  0
 13 17  1  0  0  0  0
 14  3  1  0  0  0  0
 15 12  2  0  0  0  0
 15  6  1  0  0  0  0
 16 17  1  0  0  0  0
 18 13  1  0  0  0  0
 18 25  1  1  0  0  0
 19 22  1  0  0  0  0
 20 10  1  0  0  0  0
 20 21  1  0  0  0  0
 22 21  2  0  0  0  0
 23 24  1  0  0  0  0
 23 19  2  0  0  0  0
 24 20  2  0  0  0  0
 25 26  1  0  0  0  0
 27 26  1  0  0  0  0
M  END
>  <MODEL>
6

>  <REMARK>
 VINA RESULT:      -6.6      2.736      6.153
  Name = 
  3 active torsions:
  status: ('A' for Active; 'I' for Inactive)
    1  A    between atoms: C_9  and  C_15
    2  A    between atoms: C_10  and  C_20
    3  A    between atoms: C_20  and  C_26
                            x       y       z     vdW  Elec       q    Type
                         _______ _______ _______ _____ _____    ______ ____

>  <TORSDO>
F 3

$$$$
=
 OpenBabel10262420043D

 27 31  0  0  1  0  0  0  0  0999 V2000
  182.7430  179.0890  140.7450 N   0  0  0  0  0  0  0  0  0  0  0  0
  184.9830  178.4620  139.9250 C   0  0  0  0  0  0  0  0  0  0  0  0
  183.4380  177.5530  138.1160 N   0  0  0  0  0  2  0  0  0  0  0  0
  188.3940  177.7730  137.0150 S   0  0  0  0  0  0  0  0  0  0  0  0
  187.1190  177.9910  134.5940 C   0  0  0  0  0  1  0  0  0  0  0  0
  186.2680  178.8140  140.2360 N   0  0  0  0  0  0  0  0  0  0  0  0
  185.8350  177.1260  136.4810 N   0  0  0  0  0  0  0  0  0  0  0  0
  184.7080  176.4240  135.8830 C   0  0  0  0  0  1  0  0  0  0  0  0
  185.8500  177.6770  137.7970 C   0  0  0  0  0  0  0  0  0  0  0  0
  183.9610  178.7080  140.9980 C   0  0  0  0  0  0  0  0  0  0  0  0
  187.1450  177.1170  135.8350 C   0  0  2  0  0  3  0  0  0  0  0  0
  187.0990  178.0570  138.1990 C   0  0  0  0  0  0  0  0  0  0  0  0
  182.1600  179.1750  139.4280 C   0  0  0  0  0  0  0  0  0  0  0  0
  184.7370  177.8880  138.6350 C   0  0  0  0  0  0  0  0  0  0  0  0
  187.2940  178.6260  139.4070 N   0  0  0  0  0  0  0  0  0  0  0  0
  182.3530  180.4930  138.7140 C   0  0  0  0  0  2  0  0  0  0  0  0
  180.9990  180.1380  139.3350 C   0  0  0  0  0  2  0  0  0  0  0  0
  182.1260  177.8660  138.6560 C   0  0  1  0  0  3  0  0  0  0  0  0
  185.1530  178.4750  145.0620 N   0  0  0  0  0  0  0  0  0  0  0  0
  184.3560  178.6130  142.4280 C   0  0  0  0  0  0  0  0  0  0  0  0
  183.5130  179.0710  143.4490 C   0  0  0  0  0  3  0  0  0  0  0  0
  183.9300  178.9910  144.7750 C   0  0  0  0  0  3  0  0  0  0  0  0
  185.9680  178.0460  144.0980 N   0  0  0  0  0  0  0  0  0  0  0  0
  185.6090  178.1020  142.7880 C   0  0  0  0  0  3  0  0  0  0  0  0
  181.0440  177.7460  137.5770 C   0  0  0  0  0  2  0  0  0  0  0  0
  181.5490  178.1460  136.2000 C   0  0  0  0  0  2  0  0  0  0  0  0
  180.6980  179.1900  135.6580 N   0  0  0  0  0  1  0  0  0  0  0  0
  1 10  2  0  0  0  0
  2  6  1  0  0  0  0
  2 10  1  0  0  0  0
  3 14  1  0  0  0  0
  3 18  1  0  0  0  0
  4 12  1  0  0  0  0
  7  9  1  0  0  0  0
  8  7  1  0  0  0  0
  9 12  2  0  0  0  0
  9 14  1  0  0  0  0
 10 20  1  0  0  0  0
 11  5  1  6  0  0  0
 11  7  1  0  0  0  0
 11  4  1  0  0  0  0
 12 15  1  0  0  0  0
 13  1  1  0  0  0  0
 14  2  2  0  0  0  0
 15  6  2  0  0  0  0
 16 17  1  0  0  0  0
 16 13  1  0  0  0  0
 17 13  1  0  0  0  0
 18 25  1  6  0  0  0
 18 13  1  0  0  0  0
 20 24  2  0  0  0  0
 20 21  1  0  0  0  0
 21 22  2  0  0  0  0
 22 19  1  0  0  0  0
 23 19  2  0  0  0  0
 24 23  1  0  0  0  0
 26 25  1  0  0  0  0
 27 26  1  0  0  0  0
M  END
>  <MODEL>
7

>  <REMARK>
 VINA RESULT:      -6.3      4.469      8.975
  Name = 
  3 active torsions:
  status: ('A' for Active; 'I' for Inactive)
    1  A    between atoms: C_9  and  C_15
    2  A    between atoms: C_10  and  C_20
    3  A    between atoms: C_20  and  C_26
                            x       y       z     vdW  Elec       q    Type
                         _______ _______ _______ _____ _____    ______ ____

>  <TORSDO>
F 3

$$$$
=
 OpenBabel10262420043D

 27 31  0  0  1  0  0  0  0  0999 V2000
  189.9560  176.9190  144.7610 N   0  0  0  0  0  0  0  0  0  0  0  0
  187.9510  177.7190  143.5680 C   0  0  0  0  0  0  0  0  0  0  0  0
  189.8040  178.0400  141.8500 N   0  0  0  0  0  2  0  0  0  0  0  0
  185.0200  178.3790  140.1700 S   0  0  0  0  0  0  0  0  0  0  0  0
  186.4760  177.5360  138.0020 C   0  0  0  0  0  1  0  0  0  0  0  0
  186.6010  177.6290  143.7650 N   0  0  0  0  0  0  0  0  0  0  0  0
  187.6930  178.5230  139.8730 N   0  0  0  0  0  0  0  0  0  0  0  0
  188.9780  178.9260  139.3200 C   0  0  0  0  0  1  0  0  0  0  0  0
  187.4510  178.2280  141.2480 C   0  0  0  0  0  0  0  0  0  0  0  0
  188.8030  177.5190  144.7900 C   0  0  0  0  0  0  0  0  0  0  0  0
  186.4760  178.6140  139.0700 C   0  0  2  0  0  3  0  0  0  0  0  0
  186.1210  178.1210  141.5420 C   0  0  0  0  0  0  0  0  0  0  0  0
  190.6460  176.5080  143.5620 C   0  0  0  0  0  0  0  0  0  0  0  0
  188.4210  178.0060  142.2450 C   0  0  0  0  0  0  0  0  0  0  0  0
  185.7110  177.8160  142.7910 N   0  0  0  0  0  0  0  0  0  0  0  0
  190.3030  175.1270  143.0520 C   0  0  0  0  0  2  0  0  0  0  0  0
  191.6280  175.3800  143.7760 C   0  0  0  0  0  2  0  0  0  0  0  0
  190.9810  177.6350  142.5990 C   0  0  1  0  0  3  0  0  0  0  0  0
  187.2770  178.6420  148.5850 N   0  0  0  0  0  0  0  0  0  0  0  0
  188.2890  177.9300  146.1230 C   0  0  0  0  0  0  0  0  0  0  0  0
  189.1010  177.8880  147.2630 C   0  0  0  0  0  3  0  0  0  0  0  0
  188.5750  178.2530  148.4990 C   0  0  0  0  0  3  0  0  0  0  0  0
  186.4910  178.6760  147.5080 N   0  0  0  0  0  0  0  0  0  0  0  0
  186.9550  178.3290  146.2790 C   0  0  0  0  0  3  0  0  0  0  0  0
  192.1710  177.3930  141.6630 C   0  0  0  0  0  2  0  0  0  0  0  0
  191.7630  177.3630  140.1990 C   0  0  0  0  0  2  0  0  0  0  0  0
  192.9150  177.0260  139.3830 N   0  0  0  0  0  1  0  0  0  0  0  0
  1 10  2  0  0  0  0
  2  6  1  0  0  0  0
  2 10  1  0  0  0  0
  3 14  1  0  0  0  0
  3 18  1  0  0  0  0
  4 12  1  0  0  0  0
  7  9  1  0  0  0  0
  8  7  1  0  0  0  0
  9 12  2  0  0  0  0
  9 14  1  0  0  0  0
 10 20  1  0  0  0  0
 11  5  1  6  0  0  0
 11  7  1  0  0  0  0
 11  4  1  0  0  0  0
 12 15  1  0  0  0  0
 13 17  1  0  0  0  0
 13  1  1  0  0  0  0
 14  2  2  0  0  0  0
 15  6  2  0  0  0  0
 16 13  1  0  0  0  0
 16 17  1  0  0  0  0
 18 25  1  6  0  0  0
 18 13  1  0  0  0  0
 20 24  2  0  0  0  0
 20 21  1  0  0  0  0
 21 22  2  0  0  0  0
 22 19  1  0  0  0  0
 23 19  2  0  0  0  0
 24 23  1  0  0  0  0
 26 25  1  0  0  0  0
 27 26  1  0  0  0  0
M  END
>  <MODEL>
8

>  <REMARK>
 VINA RESULT:      -6.2      2.115      5.928
  Name = 
  3 active torsions:
  status: ('A' for Active; 'I' for Inactive)
    1  A    between atoms: C_9  and  C_15
    2  A    between atoms: C_10  and  C_20
    3  A    between atoms: C_20  and  C_26
                            x       y       z     vdW  Elec       q    Type
                         _______ _______ _______ _____ _____    ______ ____

>  <TORSDO>
F 3

$$$$
=
 OpenBabel10262420043D

 27 31  0  0  1  0  0  0  0  0999 V2000
  188.6610  177.5420  139.7530 N   0  0  0  0  0  0  0  0  0  0  0  0
  190.9680  176.7400  139.4050 C   0  0  0  0  0  0  0  0  0  0  0  0
  189.6730  175.5770  137.5460 N   0  0  0  0  0  2  0  0  0  0  0  0
  194.7430  175.5070  137.2140 S   0  0  0  0  0  0  0  0  0  0  0  0
  193.8600  175.3470  134.6200 C   0  0  0  0  0  1  0  0  0  0  0  0
  192.2050  177.1110  139.8530 N   0  0  0  0  0  0  0  0  0  0  0  0
  192.2670  174.8350  136.3960 N   0  0  0  0  0  0  0  0  0  0  0  0
  191.2120  174.0670  135.7500 C   0  0  0  0  0  1  0  0  0  0  0  0
  192.1080  175.5960  137.5930 C   0  0  0  0  0  0  0  0  0  0  0  0
  189.8070  177.1820  140.2510 C   0  0  0  0  0  0  0  0  0  0  0  0
  193.6570  174.6900  135.9730 C   0  0  2  0  0  3  0  0  0  0  0  0
  193.2980  176.0110  138.1200 C   0  0  0  0  0  0  0  0  0  0  0  0
  188.2880  177.4210  138.3640 C   0  0  0  0  0  0  0  0  0  0  0  0
  190.8930  175.9660  138.2010 C   0  0  0  0  0  0  0  0  0  0  0  0
  193.3350  176.7680  139.2360 N   0  0  0  0  0  0  0  0  0  0  0  0
  188.6480  178.5980  137.4870 C   0  0  0  0  0  2  0  0  0  0  0  0
  187.2000  178.3790  137.9370 C   0  0  0  0  0  2  0  0  0  0  0  0
  188.3110  176.0030  137.8160 C   0  0  1  0  0  3  0  0  0  0  0  0
  190.3570  177.5260  144.4430 N   0  0  0  0  0  0  0  0  0  0  0  0
  189.9770  177.3170  141.7220 C   0  0  0  0  0  0  0  0  0  0  0  0
  189.9820  178.5720  142.3430 C   0  0  0  0  0  3  0  0  0  0  0  0
  190.1720  178.6600  143.7200 C   0  0  0  0  0  3  0  0  0  0  0  0
  190.3650  176.3260  143.8610 N   0  0  0  0  0  0  0  0  0  0  0  0
  190.1840  176.1860  142.5210 C   0  0  0  0  0  3  0  0  0  0  0  0
  187.4000  175.7290  136.6150 C   0  0  0  0  0  2  0  0  0  0  0  0
  186.4000  174.6160  136.8850 C   0  0  0  0  0  2  0  0  0  0  0  0
  187.0780  173.3330  136.8300 N   0  0  0  0  0  1  0  0  0  0  0  0
  1 10  2  0  0  0  0
  2  6  1  0  0  0  0
  2 10  1  0  0  0  0
  3 18  1  0  0  0  0
  3 14  1  0  0  0  0
  4 12  1  0  0  0  0
  7  9  1  0  0  0  0
  8  7  1  0  0  0  0
  9 12  2  0  0  0  0
  9 14  1  0  0  0  0
 10 20  1  0  0  0  0
 11  5  1  6  0  0  0
 11  7  1  0  0  0  0
 11  4  1  0  0  0  0
 12 15  1  0  0  0  0
 13  1  1  0  0  0  0
 14  2  2  0  0  0  0
 15  6  2  0  0  0  0
 16 17  1  0  0  0  0
 16 13  1  0  0  0  0
 17 13  1  0  0  0  0
 18 25  1  6  0  0  0
 18 13  1  0  0  0  0
 20 21  2  0  0  0  0
 20 24  1  0  0  0  0
 21 22  1  0  0  0  0
 22 19  2  0  0  0  0
 23 19  1  0  0  0  0
 24 23  2  0  0  0  0
 25 26  1  0  0  0  0
 27 26  1  0  0  0  0
M  END
>  <MODEL>
9

>  <REMARK>
 VINA RESULT:      -6.1      3.527      8.008
  Name = 
  3 active torsions:
  status: ('A' for Active; 'I' for Inactive)
    1  A    between atoms: C_9  and  C_15
    2  A    between atoms: C_10  and  C_20
    3  A    between atoms: C_20  and  C_26
                            x       y       z     vdW  Elec       q    Type
                         _______ _______ _______ _____ _____    ______ ____

>  <TORSDO>
F 3

$$$$
