=
 OpenBabel10262423293D

 34 36  0  0  1  0  0  0  0  0999 V2000
  183.4930  177.3370  138.7940 C   0  0  1  0  0  3  0  0  0  0  0  0
  183.0000  175.3360  136.7860 C   0  0  0  0  0  3  0  0  0  0  0  0
  181.4380  176.3890  139.8180 C   0  0  0  0  0  1  0  0  0  0  0  0
  181.9360  175.7640  137.4660 C   0  0  0  0  0  0  0  0  0  0  0  0
  182.0530  176.8640  138.5090 C   0  0  2  0  0  3  0  0  0  0  0  0
  184.2880  175.9370  136.9440 N   0  0  0  0  0  0  0  0  0  0  0  0
  185.7160  177.5180  137.9340 O   0  0  0  0  0  1  0  0  0  0  0  0
  184.3920  177.2600  137.5630 C   0  0  2  0  0  3  0  0  0  0  0  0
  180.5690  173.8380  136.7100 C   0  0  0  0  0  1  0  0  0  0  0  0
  180.7030  175.1800  137.1530 O   0  0  0  0  0  0  0  0  0  0  0  0
  185.4040  175.3700  136.1970 C   0  0  0  0  0  2  0  0  0  0  0  0
  186.3500  174.6170  137.1270 C   0  0  2  0  0  3  0  0  0  0  0  0
  187.6580  174.7040  136.6460 O   0  0  0  0  0  1  0  0  0  0  0  0
  185.9380  173.1540  137.2590 C   0  0  0  0  0  0  0  0  0  0  0  0
  187.0450  172.3780  137.5500 F   0  0  0  0  0  0  0  0  0  0  0  0
  185.3930  172.7210  136.0630 F   0  0  0  0  0  0  0  0  0  0  0  0
  184.9980  173.0060  138.2640 F   0  0  0  0  0  0  0  0  0  0  0  0
  183.4830  178.7710  139.3160 C   0  0  0  0  0  2  0  0  0  0  0  0
  184.3430  178.9100  140.5240 C   0  0  0  0  0  0  0  0  0  0  0  0
  185.2770  179.7550  140.5230 O   0  0  0  0  0  0  0  0  0  0  0  0
  184.0910  178.0820  141.6670 N   0  0  0  0  0  2  0  0  0  0  0  0
  184.7640  178.6760  145.2860 C   0  0  0  0  0  3  0  0  0  0  0  0
  186.1090  177.6630  143.0470 C   0  0  0  0  0  3  0  0  0  0  0  0
  188.0510  177.8260  146.7740 C   0  0  0  0  0  0  0  0  0  0  0  0
  186.7290  178.2780  146.6480 C   0  0  0  0  0  3  0  0  0  0  0  0
  186.0800  178.2260  145.4110 C   0  0  0  0  0  0  0  0  0  0  0  0
  188.0740  177.2650  144.4060 C   0  0  0  0  0  3  0  0  0  0  0  0
  186.7580  177.7150  144.2830 C   0  0  0  0  0  0  0  0  0  0  0  0
  188.7170  177.3210  145.6460 C   0  0  0  0  0  3  0  0  0  0  0  0
  184.7860  178.1150  142.9200 C   0  0  0  0  0  0  0  0  0  0  0  0
  184.1220  178.6200  144.0450 C   0  0  0  0  0  3  0  0  0  0  0  0
  188.7190  177.8770  148.0420 N   0  0  0  0  0  0  0  0  0  0  0  0
  190.0470  177.5320  148.1410 O   0  0  0  0  0  0  0  0  0  0  0  0
  188.1050  178.2340  149.0680 O   0  0  0  0  0  0  0  0  0  0  0  0
  1 18  1  6  0  0  0
  2  6  1  0  0  0  0
  2  4  2  0  0  0  0
  4  5  1  0  0  0  0
  5  1  1  0  0  0  0
  5  3  1  1  0  0  0
  6  8  1  0  0  0  0
  8  7  1  1  0  0  0
  8  1  1  0  0  0  0
  9 10  1  0  0  0  0
 10  4  1  0  0  0  0
 11  6  1  0  0  0  0
 11 12  1  0  0  0  0
 12 13  1  6  0  0  0
 12 14  1  0  0  0  0
 14 15  1  0  0  0  0
 14 17  1  0  0  0  0
 16 14  1  0  0  0  0
 18 19  1  0  0  0  0
 19 21  1  0  0  0  0
 20 19  2  0  0  0  0
 21 30  1  0  0  0  0
 22 26  1  0  0  0  0
 23 28  1  0  0  0  0
 24 32  1  0  0  0  0
 25 24  1  0  0  0  0
 26 25  2  0  0  0  0
 27 29  1  0  0  0  0
 28 27  2  0  0  0  0
 28 26  1  0  0  0  0
 29 24  2  0  0  0  0
 30 23  2  0  0  0  0
 30 31  1  0  0  0  0
 31 22  2  0  0  0  0
 32 33  2  0  0  0  0
 32 34  2  0  0  0  0
M  END
>  <MODEL>
1

>  <REMARK>
 VINA RESULT:      -8.3      0.000      0.000
  Name = 
  8 active torsions:
  status: ('A' for Active; 'I' for Inactive)
    1  A    between atoms: C_1  and  C_9
    2  A    between atoms: C_2  and  C_23
    3  A    between atoms: C_2  and  N_32
    4  A    between atoms: C_3  and  C_23
    5  A    between atoms: C_7  and  N_11
    6  A    between atoms: C_8  and  C_9
    7  A    between atoms: N_18  and  C_30
    8  A    between atoms: C_19  and  O_22
                            x       y       z     vdW  Elec       q    Type
                         _______ _______ _______ _____ _____    ______ ____

>  <TORSDO>
F 8

$$$$
=
 OpenBabel10262423293D

 34 36  0  0  1  0  0  0  0  0999 V2000
  180.3880  179.3910  140.6300 C   0  0  1  0  0  3  0  0  0  0  0  0
  180.2760  179.9720  137.8150 C   0  0  0  0  0  3  0  0  0  0  0  0
  181.6610  177.3990  139.8650 C   0  0  0  0  0  1  0  0  0  0  0  0
  180.4140  178.6880  138.1470 C   0  0  0  0  0  0  0  0  0  0  0  0
  180.4220  178.2420  139.6000 C   0  0  2  0  0  3  0  0  0  0  0  0
  180.0540  180.9850  138.7980 N   0  0  0  0  0  0  0  0  0  0  0  0
  179.7710  181.6650  141.0290 O   0  0  0  0  0  1  0  0  0  0  0  0
  179.6010  180.6010  140.1360 C   0  0  2  0  0  3  0  0  0  0  0  0
  181.0690  178.0880  135.8310 C   0  0  0  0  0  1  0  0  0  0  0  0
  180.5150  177.7650  137.0990 O   0  0  0  0  0  0  0  0  0  0  0  0
  179.9660  182.3690  138.3470 C   0  0  0  0  0  2  0  0  0  0  0  0
  181.2410  182.7810  137.6170 C   0  0  2  0  0  3  0  0  0  0  0  0
  182.3450  182.6090  138.4560 O   0  0  0  0  0  1  0  0  0  0  0  0
  181.1600  184.2320  137.1510 C   0  0  0  0  0  0  0  0  0  0  0  0
  181.3120  184.2920  135.7780 F   0  0  0  0  0  0  0  0  0  0  0  0
  182.1740  184.9620  137.7440 F   0  0  0  0  0  0  0  0  0  0  0  0
  179.9400  184.7830  137.5020 F   0  0  0  0  0  0  0  0  0  0  0  0
  179.7830  178.9030  141.9430 C   0  0  0  0  0  2  0  0  0  0  0  0
  180.8420  178.6090  142.9480 C   0  0  0  0  0  0  0  0  0  0  0  0
  180.5400  177.9830  143.9990 O   0  0  0  0  0  0  0  0  0  0  0  0
  182.1870  179.0390  142.7000 N   0  0  0  0  0  2  0  0  0  0  0  0
  184.3310  178.8790  145.7460 C   0  0  0  0  0  3  0  0  0  0  0  0
  184.5340  178.3010  143.0120 C   0  0  0  0  0  3  0  0  0  0  0  0
  187.8270  177.6630  145.5500 C   0  0  0  0  0  0  0  0  0  0  0  0
  186.6240  178.1650  146.0690 C   0  0  0  0  0  3  0  0  0  0  0  0
  185.5280  178.3790  145.2290 C   0  0  0  0  0  0  0  0  0  0  0  0
  186.8270  177.5870  143.3330 C   0  0  0  0  0  3  0  0  0  0  0  0
  185.6300  178.0870  143.8510 C   0  0  0  0  0  0  0  0  0  0  0  0
  187.9200  177.3760  144.1790 C   0  0  0  0  0  3  0  0  0  0  0  0
  183.3300  178.8030  143.5310 C   0  0  0  0  0  0  0  0  0  0  0  0
  183.2390  179.0890  144.8990 C   0  0  0  0  0  3  0  0  0  0  0  0
  188.9540  177.4420  146.4100 N   0  0  0  0  0  0  0  0  0  0  0  0
  190.2310  177.4680  145.9000 O   0  0  0  0  0  0  0  0  0  0  0  0
  188.7890  177.2210  147.6270 O   0  0  0  0  0  0  0  0  0  0  0  0
  1 18  1  1  0  0  0
  2  4  2  0  0  0  0
  2  6  1  0  0  0  0
  4  5  1  0  0  0  0
  5  3  1  1  0  0  0
  5  1  1  0  0  0  0
  6  8  1  0  0  0  0
  8  1  1  0  0  0  0
  8  7  1  1  0  0  0
  9 10  1  0  0  0  0
 10  4  1  0  0  0  0
 11  6  1  0  0  0  0
 12 11  1  0  0  0  0
 12 13  1  1  0  0  0
 14 17  1  0  0  0  0
 14 12  1  0  0  0  0
 14 16  1  0  0  0  0
 15 14  1  0  0  0  0
 18 19  1  0  0  0  0
 19 20  2  0  0  0  0
 21 19  1  0  0  0  0
 21 30  1  0  0  0  0
 23 30  2  0  0  0  0
 23 28  1  0  0  0  0
 24 25  1  0  0  0  0
 24 32  1  0  0  0  0
 26 22  1  0  0  0  0
 26 25  2  0  0  0  0
 27 28  2  0  0  0  0
 27 29  1  0  0  0  0
 28 26  1  0  0  0  0
 29 24  2  0  0  0  0
 30 31  1  0  0  0  0
 31 22  2  0  0  0  0
 32 34  2  0  0  0  0
 33 32  2  0  0  0  0
M  END
>  <MODEL>
2

>  <REMARK>
 VINA RESULT:      -8.1      4.965      6.120
  Name = 
  8 active torsions:
  status: ('A' for Active; 'I' for Inactive)
    1  A    between atoms: C_1  and  C_9
    2  A    between atoms: C_2  and  C_23
    3  A    between atoms: C_2  and  N_32
    4  A    between atoms: C_3  and  C_23
    5  A    between atoms: C_7  and  N_11
    6  A    between atoms: C_8  and  C_9
    7  A    between atoms: N_18  and  C_30
    8  A    between atoms: C_19  and  O_22
                            x       y       z     vdW  Elec       q    Type
                         _______ _______ _______ _____ _____    ______ ____

>  <TORSDO>
F 8

$$$$
=
 OpenBabel10262423293D

 34 36  0  0  1  0  0  0  0  0999 V2000
  188.2120  176.6140  136.6740 C   0  0  1  0  0  3  0  0  0  0  0  0
  185.6200  175.5380  137.3070 C   0  0  0  0  0  3  0  0  0  0  0  0
  188.5560  174.3830  135.6380 C   0  0  0  0  0  1  0  0  0  0  0  0
  186.6040  174.6520  137.1500 C   0  0  0  0  0  0  0  0  0  0  0  0
  188.0320  175.0950  136.8760 C   0  0  2  0  0  3  0  0  0  0  0  0
  185.8660  176.9470  137.3030 N   0  0  0  0  0  0  0  0  0  0  0  0
  187.3190  178.7840  137.1290 O   0  0  0  0  0  1  0  0  0  0  0  0
  187.2300  177.4380  137.5020 C   0  0  2  0  0  3  0  0  0  0  0  0
  184.9830  172.8520  137.6820 C   0  0  0  0  0  1  0  0  0  0  0  0
  186.2700  173.2990  137.2820 O   0  0  0  0  0  0  0  0  0  0  0  0
  184.7210  177.8410  137.4300 C   0  0  0  0  0  2  0  0  0  0  0  0
  184.0960  177.7260  138.8170 C   0  0  2  0  0  3  0  0  0  0  0  0
  182.7150  177.5460  138.7020 O   0  0  0  0  0  1  0  0  0  0  0  0
  184.3940  178.9650  139.6550 C   0  0  0  0  0  0  0  0  0  0  0  0
  184.2270  180.1030  138.8870 F   0  0  0  0  0  0  0  0  0  0  0  0
  185.7040  178.9150  140.0980 F   0  0  0  0  0  0  0  0  0  0  0  0
  183.5480  179.0230  140.7480 F   0  0  0  0  0  0  0  0  0  0  0  0
  189.6370  177.0280  137.0320 C   0  0  0  0  0  2  0  0  0  0  0  0
  189.9440  176.7210  138.4570 C   0  0  0  0  0  0  0  0  0  0  0  0
  190.4750  175.6180  138.7500 O   0  0  0  0  0  0  0  0  0  0  0  0
  189.6330  177.6890  139.4690 N   0  0  0  0  0  2  0  0  0  0  0  0
  191.5340  177.3070  142.6530 C   0  0  0  0  0  3  0  0  0  0  0  0
  188.8740  177.6130  141.8280 C   0  0  0  0  0  3  0  0  0  0  0  0
  189.7830  177.2620  145.9200 C   0  0  0  0  0  0  0  0  0  0  0  0
  190.8100  177.2270  144.9640 C   0  0  0  0  0  3  0  0  0  0  0  0
  190.5120  177.3430  143.6040 C   0  0  0  0  0  0  0  0  0  0  0  0
  188.1480  177.5320  144.1380 C   0  0  0  0  0  3  0  0  0  0  0  0
  189.1710  177.4970  143.1880 C   0  0  0  0  0  0  0  0  0  0  0  0
  188.4530  177.4150  145.4970 C   0  0  0  0  0  3  0  0  0  0  0  0
  189.9010  177.5790  140.8720 C   0  0  0  0  0  0  0  0  0  0  0  0
  191.2280  177.4250  141.2940 C   0  0  0  0  0  3  0  0  0  0  0  0
  190.0850  177.1440  147.3170 N   0  0  0  0  0  0  0  0  0  0  0  0
  189.1730  177.5550  148.2620 O   0  0  0  0  0  0  0  0  0  0  0  0
  191.1780  176.6700  147.6910 O   0  0  0  0  0  0  0  0  0  0  0  0
  1  5  1  0  0  0  0
  1 18  1  1  0  0  0
  1  8  1  0  0  0  0
  4 10  1  0  0  0  0
  4  2  2  0  0  0  0
  5  3  1  6  0  0  0
  5  4  1  0  0  0  0
  6  2  1  0  0  0  0
  6 11  1  0  0  0  0
  6  8  1  0  0  0  0
  8  7  1  6  0  0  0
 10  9  1  0  0  0  0
 11 12  1  0  0  0  0
 12 13  1  6  0  0  0
 12 14  1  0  0  0  0
 14 16  1  0  0  0  0
 14 17  1  0  0  0  0
 15 14  1  0  0  0  0
 18 19  1  0  0  0  0
 19 20  2  0  0  0  0
 19 21  1  0  0  0  0
 21 30  1  0  0  0  0
 22 26  1  0  0  0  0
 23 28  1  0  0  0  0
 24 32  1  0  0  0  0
 25 24  2  0  0  0  0
 26 25  1  0  0  0  0
 27 29  2  0  0  0  0
 28 26  2  0  0  0  0
 28 27  1  0  0  0  0
 29 24  1  0  0  0  0
 30 31  1  0  0  0  0
 30 23  2  0  0  0  0
 31 22  2  0  0  0  0
 32 34  2  0  0  0  0
 32 33  2  0  0  0  0
M  END
>  <MODEL>
3

>  <REMARK>
 VINA RESULT:      -7.9      3.215      5.183
  Name = 
  8 active torsions:
  status: ('A' for Active; 'I' for Inactive)
    1  A    between atoms: C_1  and  C_9
    2  A    between atoms: C_2  and  C_23
    3  A    between atoms: C_2  and  N_32
    4  A    between atoms: C_3  and  C_23
    5  A    between atoms: C_7  and  N_11
    6  A    between atoms: C_8  and  C_9
    7  A    between atoms: N_18  and  C_30
    8  A    between atoms: C_19  and  O_22
                            x       y       z     vdW  Elec       q    Type
                         _______ _______ _______ _____ _____    ______ ____

>  <TORSDO>
F 8

$$$$
=
 OpenBabel10262423293D

 34 36  0  0  1  0  0  0  0  0999 V2000
  183.7460  177.4970  138.5350 C   0  0  1  0  0  3  0  0  0  0  0  0
  183.3790  175.6990  136.3200 C   0  0  0  0  0  3  0  0  0  0  0  0
  181.9370  176.1340  139.5550 C   0  0  0  0  0  1  0  0  0  0  0  0
  182.3250  175.8760  137.1150 C   0  0  0  0  0  0  0  0  0  0  0  0
  182.3690  176.8490  138.2840 C   0  0  2  0  0  3  0  0  0  0  0  0
  184.5770  176.4650  136.4730 N   0  0  0  0  0  0  0  0  0  0  0  0
  185.8420  178.1140  137.5670 O   0  0  0  0  0  1  0  0  0  0  0  0
  184.5420  177.7050  137.2500 C   0  0  2  0  0  3  0  0  0  0  0  0
  181.1810  173.7880  136.4220 C   0  0  0  0  0  1  0  0  0  0  0  0
  181.1660  175.1540  136.8080 O   0  0  0  0  0  0  0  0  0  0  0  0
  185.6970  176.1660  135.5890 C   0  0  0  0  0  2  0  0  0  0  0  0
  186.5740  175.0670  136.1800 C   0  0  2  0  0  3  0  0  0  0  0  0
  185.9930  174.5740  137.3500 O   0  0  0  0  0  1  0  0  0  0  0  0
  187.9790  175.5850  136.4710 C   0  0  0  0  0  0  0  0  0  0  0  0
  188.0940  175.9010  137.8130 F   0  0  0  0  0  0  0  0  0  0  0  0
  188.2120  176.7260  135.7240 F   0  0  0  0  0  0  0  0  0  0  0  0
  188.9240  174.6290  136.1430 F   0  0  0  0  0  0  0  0  0  0  0  0
  183.5740  178.8410  139.2390 C   0  0  0  0  0  2  0  0  0  0  0  0
  184.4470  178.9330  140.4420 C   0  0  0  0  0  0  0  0  0  0  0  0
  185.4420  179.7060  140.4250 O   0  0  0  0  0  0  0  0  0  0  0  0
  184.1380  178.1440  141.5990 N   0  0  0  0  0  2  0  0  0  0  0  0
  184.8360  178.6630  145.2240 C   0  0  0  0  0  3  0  0  0  0  0  0
  186.1550  177.6690  142.9610 C   0  0  0  0  0  3  0  0  0  0  0  0
  188.1160  177.7350  146.6820 C   0  0  0  0  0  0  0  0  0  0  0  0
  186.8000  178.2090  146.5700 C   0  0  0  0  0  3  0  0  0  0  0  0
  186.1460  178.1900  145.3360 C   0  0  0  0  0  0  0  0  0  0  0  0
  188.1200  177.2160  144.3050 C   0  0  0  0  0  3  0  0  0  0  0  0
  186.8100  177.6880  144.1950 C   0  0  0  0  0  0  0  0  0  0  0  0
  188.7690  177.2390  145.5430 C   0  0  0  0  0  3  0  0  0  0  0  0
  184.8390  178.1440  142.8490 C   0  0  0  0  0  0  0  0  0  0  0  0
  184.1880  178.6390  143.9860 C   0  0  0  0  0  3  0  0  0  0  0  0
  188.7900  177.7530  147.9480 N   0  0  0  0  0  0  0  0  0  0  0  0
  188.0990  178.0560  149.0980 O   0  0  0  0  0  0  0  0  0  0  0  0
  190.0100  177.4960  148.0200 O   0  0  0  0  0  0  0  0  0  0  0  0
  1 18  1  6  0  0  0
  2  6  1  0  0  0  0
  2  4  2  0  0  0  0
  4  5  1  0  0  0  0
  5  1  1  0  0  0  0
  5  3  1  1  0  0  0
  6  8  1  0  0  0  0
  8  7  1  1  0  0  0
  8  1  1  0  0  0  0
  9 10  1  0  0  0  0
 10  4  1  0  0  0  0
 11 12  1  0  0  0  0
 11  6  1  0  0  0  0
 12 14  1  0  0  0  0
 12 13  1  1  0  0  0
 14 15  1  0  0  0  0
 16 14  1  0  0  0  0
 17 14  1  0  0  0  0
 18 19  1  0  0  0  0
 19 21  1  0  0  0  0
 20 19  2  0  0  0  0
 21 30  1  0  0  0  0
 22 26  1  0  0  0  0
 23 28  1  0  0  0  0
 24 32  1  0  0  0  0
 25 24  1  0  0  0  0
 26 25  2  0  0  0  0
 27 29  1  0  0  0  0
 28 27  2  0  0  0  0
 28 26  1  0  0  0  0
 29 24  2  0  0  0  0
 30 23  2  0  0  0  0
 30 31  1  0  0  0  0
 31 22  2  0  0  0  0
 32 34  2  0  0  0  0
 32 33  2  0  0  0  0
M  END
>  <MODEL>
4

>  <REMARK>
 VINA RESULT:      -7.9      1.342      1.633
  Name = 
  8 active torsions:
  status: ('A' for Active; 'I' for Inactive)
    1  A    between atoms: C_1  and  C_9
    2  A    between atoms: C_2  and  C_23
    3  A    between atoms: C_2  and  N_32
    4  A    between atoms: C_3  and  C_23
    5  A    between atoms: C_7  and  N_11
    6  A    between atoms: C_8  and  C_9
    7  A    between atoms: N_18  and  C_30
    8  A    between atoms: C_19  and  O_22
                            x       y       z     vdW  Elec       q    Type
                         _______ _______ _______ _____ _____    ______ ____

>  <TORSDO>
F 8

$$$$
=
 OpenBabel10262423293D

 34 36  0  0  1  0  0  0  0  0999 V2000
  184.1840  177.9340  139.7660 C   0  0  1  0  0  3  0  0  0  0  0  0
  184.1690  176.9000  137.0820 C   0  0  0  0  0  3  0  0  0  0  0  0
  182.0510  176.6730  139.9450 C   0  0  0  0  0  1  0  0  0  0  0  0
  182.9790  177.0310  137.6700 C   0  0  0  0  0  0  0  0  0  0  0  0
  182.8460  177.6250  139.0630 C   0  0  2  0  0  3  0  0  0  0  0  0
  185.3690  177.3790  137.6940 N   0  0  0  0  0  0  0  0  0  0  0  0
  186.5040  178.4240  139.4650 O   0  0  0  0  0  1  0  0  0  0  0  0
  185.2810  178.3460  138.7890 C   0  0  2  0  0  3  0  0  0  0  0  0
  181.7040  175.3210  136.4040 C   0  0  0  0  0  1  0  0  0  0  0  0
  181.8580  176.6300  136.9350 O   0  0  0  0  0  0  0  0  0  0  0  0
  186.6300  177.1460  137.0000 C   0  0  0  0  0  2  0  0  0  0  0  0
  187.2370  178.4630  136.5250 C   0  0  2  0  0  3  0  0  0  0  0  0
  187.0130  178.6220  135.1550 O   0  0  0  0  0  1  0  0  0  0  0  0
  188.7330  178.5130  136.8190 C   0  0  0  0  0  0  0  0  0  0  0  0
  189.4460  178.1530  135.6900 F   0  0  0  0  0  0  0  0  0  0  0  0
  189.0310  177.6230  137.8350 F   0  0  0  0  0  0  0  0  0  0  0  0
  189.1060  179.7870  137.2090 F   0  0  0  0  0  0  0  0  0  0  0  0
  183.9920  179.0420  140.7980 C   0  0  0  0  0  2  0  0  0  0  0  0
  185.0960  179.0430  141.7980 C   0  0  0  0  0  0  0  0  0  0  0  0
  185.7090  180.1160  142.0400 O   0  0  0  0  0  0  0  0  0  0  0  0
  185.4380  177.8230  142.4710 N   0  0  0  0  0  2  0  0  0  0  0  0
  187.0160  177.7200  145.8470 C   0  0  0  0  0  3  0  0  0  0  0  0
  187.7540  177.2910  143.1790 C   0  0  0  0  0  3  0  0  0  0  0  0
  190.5950  176.8420  146.2480 C   0  0  0  0  0  0  0  0  0  0  0  0
  189.2750  177.2060  146.5560 C   0  0  0  0  0  3  0  0  0  0  0  0
  188.3290  177.3570  145.5400 C   0  0  0  0  0  0  0  0  0  0  0  0
  190.0130  176.7780  143.8860 C   0  0  0  0  0  3  0  0  0  0  0  0
  188.7010  177.1400  144.1950 C   0  0  0  0  0  0  0  0  0  0  0  0
  190.9560  176.6300  144.9080 C   0  0  0  0  0  3  0  0  0  0  0  0
  186.4340  177.6550  143.4870 C   0  0  0  0  0  0  0  0  0  0  0  0
  186.0740  177.8670  144.8240 C   0  0  0  0  0  3  0  0  0  0  0  0
  191.5680  176.6860  147.2890 N   0  0  0  0  0  0  0  0  0  0  0  0
  191.5430  177.5080  148.3920 O   0  0  0  0  0  0  0  0  0  0  0  0
  192.4500  175.8060  147.2060 O   0  0  0  0  0  0  0  0  0  0  0  0
  1 18  1  1  0  0  0
  2  4  2  0  0  0  0
  2  6  1  0  0  0  0
  4  5  1  0  0  0  0
  5  1  1  0  0  0  0
  5  3  1  1  0  0  0
  6  8  1  0  0  0  0
  8  7  1  1  0  0  0
  8  1  1  0  0  0  0
  9 10  1  0  0  0  0
 10  4  1  0  0  0  0
 11  6  1  0  0  0  0
 12 13  1  6  0  0  0
 12 14  1  0  0  0  0
 12 11  1  0  0  0  0
 14 17  1  0  0  0  0
 14 16  1  0  0  0  0
 15 14  1  0  0  0  0
 18 19  1  0  0  0  0
 19 20  2  0  0  0  0
 19 21  1  0  0  0  0
 21 30  1  0  0  0  0
 23 30  2  0  0  0  0
 23 28  1  0  0  0  0
 24 25  1  0  0  0  0
 24 32  1  0  0  0  0
 26 22  1  0  0  0  0
 26 25  2  0  0  0  0
 27 28  2  0  0  0  0
 27 29  1  0  0  0  0
 28 26  1  0  0  0  0
 29 24  2  0  0  0  0
 30 31  1  0  0  0  0
 31 22  2  0  0  0  0
 32 33  2  0  0  0  0
 34 32  2  0  0  0  0
M  END
>  <MODEL>
5

>  <REMARK>
 VINA RESULT:      -7.8      2.714      3.231
  Name = 
  8 active torsions:
  status: ('A' for Active; 'I' for Inactive)
    1  A    between atoms: C_1  and  C_9
    2  A    between atoms: C_2  and  C_23
    3  A    between atoms: C_2  and  N_32
    4  A    between atoms: C_3  and  C_23
    5  A    between atoms: C_7  and  N_11
    6  A    between atoms: C_8  and  C_9
    7  A    between atoms: N_18  and  C_30
    8  A    between atoms: C_19  and  O_22
                            x       y       z     vdW  Elec       q    Type
                         _______ _______ _______ _____ _____    ______ ____

>  <TORSDO>
F 8

$$$$
=
 OpenBabel10262423293D

 34 36  0  0  1  0  0  0  0  0999 V2000
  191.6480  175.6320  137.8280 C   0  0  1  0  0  3  0  0  0  0  0  0
  193.3930  173.5820  136.8120 C   0  0  0  0  0  3  0  0  0  0  0  0
  189.8750  173.9880  137.2590 C   0  0  0  0  0  1  0  0  0  0  0  0
  192.1460  173.5830  136.3390 C   0  0  0  0  0  0  0  0  0  0  0  0
  191.1450  174.6520  136.7480 C   0  0  2  0  0  3  0  0  0  0  0  0
  193.8760  174.6230  137.6640 N   0  0  0  0  0  0  0  0  0  0  0  0
  193.5670  176.6290  138.8470 O   0  0  0  0  0  1  0  0  0  0  0  0
  193.1490  175.8910  137.7340 C   0  0  2  0  0  3  0  0  0  0  0  0
  192.5550  171.3770  135.2830 C   0  0  0  0  0  1  0  0  0  0  0  0
  191.8100  172.5780  135.4240 O   0  0  0  0  0  0  0  0  0  0  0  0
  195.2380  174.5120  138.1750 C   0  0  0  0  0  2  0  0  0  0  0  0
  196.1620  173.9050  137.1230 C   0  0  2  0  0  3  0  0  0  0  0  0
  196.5040  172.6010  137.4870 O   0  0  0  0  0  1  0  0  0  0  0  0
  197.4230  174.7480  136.9520 C   0  0  0  0  0  0  0  0  0  0  0  0
  197.1660  175.8080  136.1020 F   0  0  0  0  0  0  0  0  0  0  0  0
  198.4240  173.9690  136.4020 F   0  0  0  0  0  0  0  0  0  0  0  0
  197.8470  175.2340  138.1760 F   0  0  0  0  0  0  0  0  0  0  0  0
  190.9040  176.9600  137.7210 C   0  0  0  0  0  2  0  0  0  0  0  0
  190.3650  177.3830  139.0430 C   0  0  0  0  0  0  0  0  0  0  0  0
  189.6230  178.3980  139.1110 O   0  0  0  0  0  0  0  0  0  0  0  0
  190.6960  176.6240  140.2140 N   0  0  0  0  0  2  0  0  0  0  0  0
  190.7570  177.1400  143.9060 C   0  0  0  0  0  3  0  0  0  0  0  0
  188.8680  177.0270  141.8400 C   0  0  0  0  0  3  0  0  0  0  0  0
  187.6200  177.6990  145.8010 C   0  0  0  0  0  0  0  0  0  0  0  0
  188.9820  177.5320  145.5100 C   0  0  0  0  0  3  0  0  0  0  0  0
  189.4010  177.3070  144.1960 C   0  0  0  0  0  0  0  0  0  0  0  0
  187.0930  177.4170  143.4420 C   0  0  0  0  0  3  0  0  0  0  0  0
  188.4490  177.2510  143.1540 C   0  0  0  0  0  0  0  0  0  0  0  0
  186.6810  177.6400  144.7590 C   0  0  0  0  0  3  0  0  0  0  0  0
  190.2310  176.8600  141.5490 C   0  0  0  0  0  0  0  0  0  0  0  0
  191.1670  176.9180  142.5880 C   0  0  0  0  0  3  0  0  0  0  0  0
  187.1870  177.9290  147.1480 N   0  0  0  0  0  0  0  0  0  0  0  0
  187.9560  177.5030  148.2070 O   0  0  0  0  0  0  0  0  0  0  0  0
  186.1090  178.5150  147.3770 O   0  0  0  0  0  0  0  0  0  0  0  0
  1 18  1  6  0  0  0
  2  6  1  0  0  0  0
  4  5  1  0  0  0  0
  4  2  2  0  0  0  0
  5  3  1  1  0  0  0
  5  1  1  0  0  0  0
  6  8  1  0  0  0  0
  6 11  1  0  0  0  0
  8  1  1  0  0  0  0
  8  7  1  1  0  0  0
  9 10  1  0  0  0  0
 10  4  1  0  0  0  0
 12 13  1  1  0  0  0
 12 11  1  0  0  0  0
 14 12  1  0  0  0  0
 14 17  1  0  0  0  0
 15 14  1  0  0  0  0
 16 14  1  0  0  0  0
 18 19  1  0  0  0  0
 19 20  2  0  0  0  0
 19 21  1  0  0  0  0
 21 30  1  0  0  0  0
 22 26  1  0  0  0  0
 23 28  1  0  0  0  0
 24 32  1  0  0  0  0
 25 24  1  0  0  0  0
 26 25  2  0  0  0  0
 27 29  1  0  0  0  0
 28 27  2  0  0  0  0
 28 26  1  0  0  0  0
 29 24  2  0  0  0  0
 30 23  2  0  0  0  0
 30 31  1  0  0  0  0
 31 22  2  0  0  0  0
 32 34  2  0  0  0  0
 32 33  2  0  0  0  0
M  END
>  <MODEL>
6

>  <REMARK>
 VINA RESULT:      -7.7      6.293      8.076
  Name = 
  8 active torsions:
  status: ('A' for Active; 'I' for Inactive)
    1  A    between atoms: C_1  and  C_9
    2  A    between atoms: C_2  and  C_23
    3  A    between atoms: C_2  and  N_32
    4  A    between atoms: C_3  and  C_23
    5  A    between atoms: C_7  and  N_11
    6  A    between atoms: C_8  and  C_9
    7  A    between atoms: N_18  and  C_30
    8  A    between atoms: C_19  and  O_22
                            x       y       z     vdW  Elec       q    Type
                         _______ _______ _______ _____ _____    ______ ____

>  <TORSDO>
F 8

$$$$
=
 OpenBabel10262423293D

 34 36  0  0  1  0  0  0  0  0999 V2000
  185.8650  177.6950  137.1580 C   0  0  1  0  0  3  0  0  0  0  0  0
  183.6230  175.9980  137.7680 C   0  0  0  0  0  3  0  0  0  0  0  0
  186.3070  175.9810  135.4150 C   0  0  0  0  0  1  0  0  0  0  0  0
  184.6710  175.4060  137.1940 C   0  0  0  0  0  0  0  0  0  0  0  0
  185.9420  176.1790  136.8790 C   0  0  2  0  0  3  0  0  0  0  0  0
  183.6640  177.3640  138.1870 N   0  0  0  0  0  0  0  0  0  0  0  0
  184.7840  179.4160  138.4160 O   0  0  0  0  0  1  0  0  0  0  0  0
  184.9580  178.0300  138.3390 C   0  0  2  0  0  3  0  0  0  0  0  0
  185.3420  173.0510  137.5860 C   0  0  0  0  0  1  0  0  0  0  0  0
  184.5620  174.0370  136.9250 O   0  0  0  0  0  0  0  0  0  0  0  0
  182.4530  177.9410  138.7590 C   0  0  0  0  0  2  0  0  0  0  0  0
  182.2060  177.3970  140.1630 C   0  0  2  0  0  3  0  0  0  0  0  0
  180.9890  176.7120  140.2000 O   0  0  0  0  0  1  0  0  0  0  0  0
  182.2030  178.5230  141.1920 C   0  0  0  0  0  0  0  0  0  0  0  0
  183.4470  178.6140  141.7910 F   0  0  0  0  0  0  0  0  0  0  0  0
  181.2590  178.2530  142.1660 F   0  0  0  0  0  0  0  0  0  0  0  0
  181.8970  179.7290  140.5870 F   0  0  0  0  0  0  0  0  0  0  0  0
  187.2600  178.2520  137.4250 C   0  0  0  0  0  2  0  0  0  0  0  0
  187.7760  177.8020  138.7480 C   0  0  0  0  0  0  0  0  0  0  0  0
  188.4660  176.7510  138.8160 O   0  0  0  0  0  0  0  0  0  0  0  0
  187.4800  178.5750  139.9190 N   0  0  0  0  0  2  0  0  0  0  0  0
  189.7900  177.9430  142.7760 C   0  0  0  0  0  3  0  0  0  0  0  0
  187.0350  178.1620  142.3240 C   0  0  0  0  0  3  0  0  0  0  0  0
  188.4770  177.3820  146.1980 C   0  0  0  0  0  0  0  0  0  0  0  0
  189.3730  177.5340  145.1280 C   0  0  0  0  0  3  0  0  0  0  0  0
  188.8980  177.7920  143.8400 C   0  0  0  0  0  0  0  0  0  0  0  0
  186.6150  177.7520  144.6740 C   0  0  0  0  0  3  0  0  0  0  0  0
  187.5090  177.9030  143.6120 C   0  0  0  0  0  0  0  0  0  0  0  0
  187.0980  177.4930  145.9610 C   0  0  0  0  0  3  0  0  0  0  0  0
  187.9310  178.3140  141.2540 C   0  0  0  0  0  0  0  0  0  0  0  0
  189.3070  178.2020  141.4900 C   0  0  0  0  0  3  0  0  0  0  0  0
  188.9610  177.1170  147.5210 N   0  0  0  0  0  0  0  0  0  0  0  0
  190.2580  176.7000  147.7150 O   0  0  0  0  0  0  0  0  0  0  0  0
  188.2140  177.2610  148.5100 O   0  0  0  0  0  0  0  0  0  0  0  0
  1 18  1  1  0  0  0
  1  8  1  0  0  0  0
  2  6  1  0  0  0  0
  4  2  2  0  0  0  0
  5  3  1  6  0  0  0
  5  1  1  0  0  0  0
  5  4  1  0  0  0  0
  6  8  1  0  0  0  0
  6 11  1  0  0  0  0
  8  7  1  6  0  0  0
 10  4  1  0  0  0  0
 10  9  1  0  0  0  0
 11 12  1  0  0  0  0
 12 13  1  6  0  0  0
 12 14  1  0  0  0  0
 14 15  1  0  0  0  0
 14 16  1  0  0  0  0
 17 14  1  0  0  0  0
 18 19  1  0  0  0  0
 19 20  2  0  0  0  0
 19 21  1  0  0  0  0
 21 30  1  0  0  0  0
 22 26  1  0  0  0  0
 23 28  1  0  0  0  0
 24 32  1  0  0  0  0
 25 24  2  0  0  0  0
 26 25  1  0  0  0  0
 27 29  2  0  0  0  0
 28 26  2  0  0  0  0
 28 27  1  0  0  0  0
 29 24  1  0  0  0  0
 30 31  1  0  0  0  0
 30 23  2  0  0  0  0
 31 22  2  0  0  0  0
 32 33  2  0  0  0  0
 32 34  2  0  0  0  0
M  END
>  <MODEL>
7

>  <REMARK>
 VINA RESULT:      -7.6      2.969      4.544
  Name = 
  8 active torsions:
  status: ('A' for Active; 'I' for Inactive)
    1  A    between atoms: C_1  and  C_9
    2  A    between atoms: C_2  and  C_23
    3  A    between atoms: C_2  and  N_32
    4  A    between atoms: C_3  and  C_23
    5  A    between atoms: C_7  and  N_11
    6  A    between atoms: C_8  and  C_9
    7  A    between atoms: N_18  and  C_30
    8  A    between atoms: C_19  and  O_22
                            x       y       z     vdW  Elec       q    Type
                         _______ _______ _______ _____ _____    ______ ____

>  <TORSDO>
F 8

$$$$
=
 OpenBabel10262423293D

 34 36  0  0  1  0  0  0  0  0999 V2000
  186.5500  177.9150  136.9620 C   0  0  1  0  0  3  0  0  0  0  0  0
  184.3710  176.0360  136.9660 C   0  0  0  0  0  3  0  0  0  0  0  0
  187.1850  176.7200  134.8790 C   0  0  0  0  0  1  0  0  0  0  0  0
  185.4810  175.6500  136.3370 C   0  0  0  0  0  0  0  0  0  0  0  0
  186.7250  176.5250  136.3170 C   0  0  2  0  0  3  0  0  0  0  0  0
  184.3150  177.2510  137.7180 N   0  0  0  0  0  0  0  0  0  0  0  0
  185.3070  179.2180  138.5330 O   0  0  0  0  0  1  0  0  0  0  0  0
  185.5600  177.9050  138.1230 C   0  0  2  0  0  3  0  0  0  0  0  0
  184.8400  173.2550  136.3060 C   0  0  0  0  0  1  0  0  0  0  0  0
  185.4630  174.3920  135.7250 O   0  0  0  0  0  0  0  0  0  0  0  0
  183.0430  177.6180  138.3300 C   0  0  0  0  0  2  0  0  0  0  0  0
  182.8980  176.9710  139.7050 C   0  0  2  0  0  3  0  0  0  0  0  0
  181.7920  176.1180  139.7140 O   0  0  0  0  0  1  0  0  0  0  0  0
  182.7520  178.0290  140.7940 C   0  0  0  0  0  0  0  0  0  0  0  0
  181.5280  177.8890  141.4220 F   0  0  0  0  0  0  0  0  0  0  0  0
  182.8190  179.2870  140.2240 F   0  0  0  0  0  0  0  0  0  0  0  0
  183.7640  177.9010  141.7290 F   0  0  0  0  0  0  0  0  0  0  0  0
  187.8950  178.4390  137.4580 C   0  0  0  0  0  2  0  0  0  0  0  0
  188.2400  177.8630  138.7870 C   0  0  0  0  0  0  0  0  0  0  0  0
  188.7460  176.7120  138.8490 O   0  0  0  0  0  0  0  0  0  0  0  0
  187.9930  178.6310  139.9730 N   0  0  0  0  0  2  0  0  0  0  0  0
  187.5120  177.5250  143.5010 C   0  0  0  0  0  3  0  0  0  0  0  0
  189.6210  178.2370  141.8010 C   0  0  0  0  0  3  0  0  0  0  0  0
  190.4070  177.1240  145.7810 C   0  0  0  0  0  0  0  0  0  0  0  0
  189.0890  177.1390  145.3000 C   0  0  0  0  0  3  0  0  0  0  0  0
  188.8240  177.5090  143.9790 C   0  0  0  0  0  0  0  0  0  0  0  0
  191.2000  177.8530  143.5980 C   0  0  0  0  0  3  0  0  0  0  0  0
  189.8870  177.8680  143.1220 C   0  0  0  0  0  0  0  0  0  0  0  0
  191.4580  177.4830  144.9220 C   0  0  0  0  0  3  0  0  0  0  0  0
  188.3030  178.2530  141.3200 C   0  0  0  0  0  0  0  0  0  0  0  0
  187.2550  177.8960  142.1770 C   0  0  0  0  0  3  0  0  0  0  0  0
  190.6830  176.7440  147.1350 N   0  0  0  0  0  0  0  0  0  0  0  0
  190.1200  177.4410  148.1800 O   0  0  0  0  0  0  0  0  0  0  0  0
  191.4360  175.7800  147.3830 O   0  0  0  0  0  0  0  0  0  0  0  0
  1 18  1  1  0  0  0
  1  8  1  0  0  0  0
  2  6  1  0  0  0  0
  4  2  2  0  0  0  0
  5  3  1  6  0  0  0
  5  4  1  0  0  0  0
  5  1  1  0  0  0  0
  6  8  1  0  0  0  0
  6 11  1  0  0  0  0
  8  7  1  6  0  0  0
 10  9  1  0  0  0  0
 10  4  1  0  0  0  0
 11 12  1  0  0  0  0
 12 13  1  6  0  0  0
 12 14  1  0  0  0  0
 14 15  1  0  0  0  0
 14 17  1  0  0  0  0
 16 14  1  0  0  0  0
 18 19  1  0  0  0  0
 19 20  2  0  0  0  0
 19 21  1  0  0  0  0
 21 30  1  0  0  0  0
 22 26  1  0  0  0  0
 23 28  1  0  0  0  0
 24 32  1  0  0  0  0
 25 24  1  0  0  0  0
 26 25  2  0  0  0  0
 27 29  1  0  0  0  0
 28 27  2  0  0  0  0
 28 26  1  0  0  0  0
 29 24  2  0  0  0  0
 30 23  2  0  0  0  0
 30 31  1  0  0  0  0
 31 22  2  0  0  0  0
 32 34  2  0  0  0  0
 32 33  2  0  0  0  0
M  END
>  <MODEL>
8

>  <REMARK>
 VINA RESULT:      -7.5      3.010      4.534
  Name = 
  8 active torsions:
  status: ('A' for Active; 'I' for Inactive)
    1  A    between atoms: C_1  and  C_9
    2  A    between atoms: C_2  and  C_23
    3  A    between atoms: C_2  and  N_32
    4  A    between atoms: C_3  and  C_23
    5  A    between atoms: C_7  and  N_11
    6  A    between atoms: C_8  and  C_9
    7  A    between atoms: N_18  and  C_30
    8  A    between atoms: C_19  and  O_22
                            x       y       z     vdW  Elec       q    Type
                         _______ _______ _______ _____ _____    ______ ____

>  <TORSDO>
F 8

$$$$
=
 OpenBabel10262423293D

 34 36  0  0  1  0  0  0  0  0999 V2000
  188.2800  177.6140  136.9170 C   0  0  1  0  0  3  0  0  0  0  0  0
  186.3820  175.5370  136.3180 C   0  0  0  0  0  3  0  0  0  0  0  0
  189.7880  176.2320  135.5080 C   0  0  0  0  0  1  0  0  0  0  0  0
  187.6690  175.1900  136.2770 C   0  0  0  0  0  0  0  0  0  0  0  0
  188.7670  176.1780  136.6360 C   0  0  2  0  0  3  0  0  0  0  0  0
  185.9630  176.8270  136.7720 N   0  0  0  0  0  0  0  0  0  0  0  0
  186.4370  178.9740  137.5990 O   0  0  0  0  0  1  0  0  0  0  0  0
  186.8910  177.6520  137.5470 C   0  0  2  0  0  3  0  0  0  0  0  0
  188.4910  172.9180  136.8380 C   0  0  0  0  0  1  0  0  0  0  0  0
  187.9610  173.8680  135.9240 O   0  0  0  0  0  0  0  0  0  0  0  0
  184.5390  177.1360  136.7330 C   0  0  0  0  0  2  0  0  0  0  0  0
  183.8270  176.5600  137.9540 C   0  0  2  0  0  3  0  0  0  0  0  0
  182.7350  175.7890  137.5470 O   0  0  0  0  0  1  0  0  0  0  0  0
  183.3620  177.6710  138.8910 C   0  0  0  0  0  0  0  0  0  0  0  0
  184.3660  177.9740  139.7920 F   0  0  0  0  0  0  0  0  0  0  0  0
  182.2490  177.2450  139.5910 F   0  0  0  0  0  0  0  0  0  0  0  0
  183.0370  178.8050  138.1690 F   0  0  0  0  0  0  0  0  0  0  0  0
  189.2650  178.3330  137.8360 C   0  0  0  0  0  2  0  0  0  0  0  0
  189.1380  177.8540  139.2400 C   0  0  0  0  0  0  0  0  0  0  0  0
  189.7040  176.7810  139.5800 O   0  0  0  0  0  0  0  0  0  0  0  0
  188.3790  178.6240  140.1820 N   0  0  0  0  0  2  0  0  0  0  0  0
  186.6640  177.8780  143.4070 C   0  0  0  0  0  3  0  0  0  0  0  0
  189.2760  178.2400  142.4620 C   0  0  0  0  0  3  0  0  0  0  0  0
  188.6050  177.4060  146.5300 C   0  0  0  0  0  0  0  0  0  0  0  0
  187.5220  177.5030  145.6420 C   0  0  0  0  0  3  0  0  0  0  0  0
  187.7410  177.7810  144.2900 C   0  0  0  0  0  0  0  0  0  0  0  0
  190.1360  177.8670  144.6950 C   0  0  0  0  0  3  0  0  0  0  0  0
  189.0580  177.9630  143.8130 C   0  0  0  0  0  0  0  0  0  0  0  0
  189.9100  177.5900  146.0470 C   0  0  0  0  0  3  0  0  0  0  0  0
  188.1930  178.3370  141.5740 C   0  0  0  0  0  0  0  0  0  0  0  0
  186.8910  178.1550  142.0550 C   0  0  0  0  0  3  0  0  0  0  0  0
  188.3840  177.1220  147.9170 N   0  0  0  0  0  0  0  0  0  0  0  0
  188.2560  178.1470  148.8250 O   0  0  0  0  0  0  0  0  0  0  0  0
  188.3070  175.9420  148.3180 O   0  0  0  0  0  0  0  0  0  0  0  0
  1  8  1  0  0  0  0
  1 18  1  1  0  0  0
  2  6  1  0  0  0  0
  4  2  2  0  0  0  0
  4  5  1  0  0  0  0
  5  3  1  6  0  0  0
  5  1  1  0  0  0  0
  6  8  1  0  0  0  0
  8  7  1  6  0  0  0
 10  4  1  0  0  0  0
 10  9  1  0  0  0  0
 11  6  1  0  0  0  0
 11 12  1  0  0  0  0
 12 13  1  6  0  0  0
 12 14  1  0  0  0  0
 14 16  1  0  0  0  0
 14 15  1  0  0  0  0
 17 14  1  0  0  0  0
 18 19  1  0  0  0  0
 19 20  2  0  0  0  0
 19 21  1  0  0  0  0
 21 30  1  0  0  0  0
 22 26  1  0  0  0  0
 23 28  1  0  0  0  0
 24 32  1  0  0  0  0
 25 24  2  0  0  0  0
 26 25  1  0  0  0  0
 27 29  2  0  0  0  0
 28 26  2  0  0  0  0
 28 27  1  0  0  0  0
 29 24  1  0  0  0  0
 30 31  1  0  0  0  0
 30 23  2  0  0  0  0
 31 22  2  0  0  0  0
 32 34  2  0  0  0  0
 32 33  2  0  0  0  0
M  END
>  <MODEL>
9

>  <REMARK>
 VINA RESULT:      -7.4      2.850      4.609
  Name = 
  8 active torsions:
  status: ('A' for Active; 'I' for Inactive)
    1  A    between atoms: C_1  and  C_9
    2  A    between atoms: C_2  and  C_23
    3  A    between atoms: C_2  and  N_32
    4  A    between atoms: C_3  and  C_23
    5  A    between atoms: C_7  and  N_11
    6  A    between atoms: C_8  and  C_9
    7  A    between atoms: N_18  and  C_30
    8  A    between atoms: C_19  and  O_22
                            x       y       z     vdW  Elec       q    Type
                         _______ _______ _______ _____ _____    ______ ____

>  <TORSDO>
F 8

$$$$
