=
 OpenBabel10262422543D

 37 44  0  0  1  0  0  0  0  0999 V2000
  183.2840  177.9690  140.4140 C   0  0  1  0  0  3  0  0  0  0  0  0
  184.4270  176.9970  137.0510 C   0  0  0  0  0  2  0  0  0  0  0  0
  182.0490  178.5360  140.9530 C   0  0  2  0  0  3  0  0  0  0  0  0
  183.4080  178.1350  139.1080 C   0  0  2  0  0  3  0  0  0  0  0  0
  181.6840  179.5550  139.8790 C   0  0  1  0  0  3  0  0  0  0  0  0
  184.6170  177.7950  138.3170 C   0  0  0  0  0  0  0  0  0  0  0  0
  182.5030  179.1320  142.2700 C   0  0  0  0  0  2  0  0  0  0  0  0
  185.4810  178.8360  141.1050 C   0  0  0  0  0  3  0  0  0  0  0  0
  183.7130  178.2900  142.6870 C   0  0  0  0  0  2  0  0  0  0  0  0
  183.1930  177.3690  136.2330 C   0  0  0  0  0  2  0  0  0  0  0  0
  184.3910  177.8470  141.3950 C   0  0  1  0  0  3  0  0  0  0  0  0
  182.2650  178.9450  138.5710 C   0  0  2  0  0  3  0  0  0  0  0  0
  185.8730  178.1230  138.7280 C   0  0  0  0  0  0  0  0  0  0  0  0
  181.8720  176.9710  136.9090 C   0  0  2  0  0  3  0  0  0  0  0  0
  181.2540  178.0750  137.7830 C   0  0  2  0  0  3  0  0  0  0  0  0
  186.1370  178.9250  139.9460 C   0  0  0  0  0  3  0  0  0  0  0  0
  187.3510  178.5200  136.7370 C   0  0  0  0  0  3  0  0  0  0  0  0
  187.0680  177.8030  137.9110 C   0  0  0  0  0  0  0  0  0  0  0  0
  187.9000  176.7340  138.2740 C   0  0  0  0  0  3  0  0  0  0  0  0
  189.8530  175.3230  137.8740 N   0  0  0  0  0  1  0  0  0  0  0  0
  189.2920  177.1320  136.3330 C   0  0  0  0  0  3  0  0  0  0  0  0
  189.0100  176.4020  137.4920 C   0  0  0  0  0  0  0  0  0  0  0  0
  188.4610  178.1880  135.9540 C   0  0  0  0  0  3  0  0  0  0  0  0
  181.0020  174.6680  136.9550 C   0  0  1  0  0  3  0  0  0  0  0  0
  180.6300  175.3360  138.1350 O   0  0  0  0  0  0  0  0  0  0  0  0
  181.9070  175.6250  137.6250 C   0  0  2  0  0  3  0  0  0  0  0  0
  181.4160  173.2530  137.2950 C   0  0  0  0  0  1  0  0  0  0  0  0
  180.1930  179.9320  139.8480 C   0  0  2  0  0  3  0  0  0  0  0  0
  180.0530  181.3200  139.7770 O   0  0  0  0  0  1  0  0  0  0  0  0
  179.4120  179.4010  141.0500 C   0  0  0  0  0  2  0  0  0  0  0  0
  178.9460  180.5220  141.9670 C   0  0  1  0  0  3  0  0  0  0  0  0
  178.9310  180.0480  143.3680 C   0  0  0  0  0  2  0  0  0  0  0  0
  179.9830  180.8330  142.8660 O   0  0  0  0  0  0  0  0  0  0  0  0
  180.3900  178.9600  136.8940 C   0  0  0  0  0  2  0  0  0  0  0  0
  181.1890  180.1420  136.3740 C   0  0  0  0  0  3  0  0  0  0  0  0
  180.2710  181.3410  136.2460 C   0  0  0  0  0  2  0  0  0  0  0  0
  180.6590  180.5490  135.0140 C   0  0  0  0  0  2  0  0  0  0  0  0
  1  3  1  0  0  0  0
  1 11  1  0  0  0  0
  2  6  1  0  0  0  0
  3  7  1  0  0  0  0
  4  1  1  0  0  0  0
  5  3  1  0  0  0  0
  6 13  2  0  0  0  0
  6  4  1  0  0  0  0
  7  9  1  0  0  0  0
  8 11  1  0  0  0  0
 10 14  1  0  0  0  0
 10  2  1  0  0  0  0
 11  9  1  0  0  0  0
 12  4  1  0  0  0  0
 12  5  1  0  0  0  0
 13 16  1  0  0  0  0
 14 26  1  0  0  0  0
 14 15  1  0  0  0  0
 15 12  1  0  0  0  0
 16  8  2  0  0  0  0
 17 18  1  0  0  0  0
 18 19  2  0  0  0  0
 18 13  1  0  0  0  0
 21 22  2  0  0  0  0
 22 20  1  0  0  0  0
 22 19  1  0  0  0  0
 23 21  1  0  0  0  0
 23 17  2  0  0  0  0
 24 27  1  0  0  0  0
 24 26  1  0  0  0  0
 24 25  1  0  0  0  0
 26 25  1  0  0  0  0
 28  5  1  0  0  0  0
 28 30  1  0  0  0  0
 29 28  1  0  0  0  0
 30 31  1  0  0  0  0
 31 33  1  0  0  0  0
 31 32  1  0  0  0  0
 33 32  1  0  0  0  0
 34 15  1  0  0  0  0
 35 34  1  0  0  0  0
 36 35  1  0  0  0  0
 37 36  1  0  0  0  0
 37 35  1  0  0  0  0
M  END
>  <MODEL>
1

>  <REMARK>
 VINA RESULT:      -5.7      0.000      0.000
  Name = 
  7 active torsions:
  status: ('A' for Active; 'I' for Inactive)
    1  A    between atoms: C_1  and  C_5
    2  A    between atoms: C_1  and  C_36
    3  A    between atoms: C_3  and  C_30
    4  A    between atoms: C_6  and  C_31
    5  A    between atoms: C_13  and  C_20
    6  A    between atoms: C_20  and  C_30
    7  A    between atoms: C_26  and  C_33
                            x       y       z     vdW  Elec       q    Type
                         _______ _______ _______ _____ _____    ______ ____

>  <TORSDO>
F 7

$$$$
=
 OpenBabel10262422543D

 37 44  0  0  1  0  0  0  0  0999 V2000
  182.6630  176.8800  136.7000 C   0  0  1  0  0  3  0  0  0  0  0  0
  184.7260  179.0580  138.8360 C   0  0  0  0  0  2  0  0  0  0  0  0
  181.3460  176.2600  136.8370 C   0  0  2  0  0  3  0  0  0  0  0  0
  183.1800  177.2650  137.8550 C   0  0  2  0  0  3  0  0  0  0  0  0
  181.3630  175.8230  138.2980 C   0  0  1  0  0  3  0  0  0  0  0  0
  184.5580  177.7890  138.0370 C   0  0  0  0  0  0  0  0  0  0  0  0
  181.4050  175.1270  135.8320 C   0  0  0  0  0  2  0  0  0  0  0  0
  184.5820  175.6000  135.8440 C   0  0  0  0  0  3  0  0  0  0  0  0
  182.3990  175.5980  134.7670 C   0  0  0  0  0  2  0  0  0  0  0  0
  183.8120  179.1810  140.0530 C   0  0  0  0  0  2  0  0  0  0  0  0
  183.4170  176.4750  135.4880 C   0  0  1  0  0  3  0  0  0  0  0  0
  182.2860  176.8670  138.9900 C   0  0  2  0  0  3  0  0  0  0  0  0
  185.6430  177.2020  137.4630 C   0  0  0  0  0  0  0  0  0  0  0  0
  182.3340  179.3820  139.6850 C   0  0  2  0  0  3  0  0  0  0  0  0
  181.5260  178.0780  139.5860 C   0  0  2  0  0  3  0  0  0  0  0  0
  185.5590  175.9430  136.6860 C   0  0  0  0  0  3  0  0  0  0  0  0
  187.5970  178.6230  136.7760 C   0  0  0  0  0  3  0  0  0  0  0  0
  187.0150  177.7200  137.6810 C   0  0  0  0  0  0  0  0  0  0  0  0
  187.7720  177.2620  138.7690 C   0  0  0  0  0  3  0  0  0  0  0  0
  189.8350  177.2560  140.0770 N   0  0  0  0  0  1  0  0  0  0  0  0
  189.6440  178.6290  138.0680 C   0  0  0  0  0  3  0  0  0  0  0  0
  189.0790  177.7180  138.9650 C   0  0  0  0  0  0  0  0  0  0  0  0
  188.9040  179.0790  136.9720 C   0  0  0  0  0  3  0  0  0  0  0  0
  180.9820  181.2230  138.7650 C   0  0  1  0  0  3  0  0  0  0  0  0
  180.8060  180.0710  137.9780 O   0  0  0  0  0  0  0  0  0  0  0  0
  182.0980  180.2950  138.4860 C   0  0  2  0  0  3  0  0  0  0  0  0
  181.0870  182.4310  137.8600 C   0  0  0  0  0  1  0  0  0  0  0  0
  179.9670  175.6360  138.9180 C   0  0  2  0  0  3  0  0  0  0  0  0
  180.0730  174.9820  140.1470 O   0  0  0  0  0  1  0  0  0  0  0  0
  179.0050  174.8660  138.0120 C   0  0  0  0  0  2  0  0  0  0  0  0
  178.9320  173.3920  138.3810 C   0  0  1  0  0  3  0  0  0  0  0  0
  178.9530  172.5680  137.1530 C   0  0  0  0  0  2  0  0  0  0  0  0
  180.1050  172.7550  137.9360 O   0  0  0  0  0  0  0  0  0  0  0  0
  181.0060  177.7320  140.9750 C   0  0  0  0  0  2  0  0  0  0  0  0
  180.7340  178.9920  141.7780 C   0  0  0  0  0  3  0  0  0  0  0  0
  181.4080  178.8730  143.1290 C   0  0  0  0  0  2  0  0  0  0  0  0
  179.9160  178.6420  143.0040 C   0  0  0  0  0  2  0  0  0  0  0  0
  1  3  1  0  0  0  0
  1  4  1  0  0  0  0
  2 10  1  0  0  0  0
  3  5  1  0  0  0  0
  4  6  1  0  0  0  0
  4 12  1  0  0  0  0
  5 28  1  0  0  0  0
  5 12  1  0  0  0  0
  6  2  1  0  0  0  0
  7  3  1  0  0  0  0
  8 16  2  0  0  0  0
  9 11  1  0  0  0  0
  9  7  1  0  0  0  0
 11  8  1  0  0  0  0
 11  1  1  0  0  0  0
 12 15  1  0  0  0  0
 13 18  1  0  0  0  0
 13  6  2  0  0  0  0
 14 10  1  0  0  0  0
 15 14  1  0  0  0  0
 15 34  1  0  0  0  0
 16 13  1  0  0  0  0
 17 23  2  0  0  0  0
 17 18  1  0  0  0  0
 18 19  2  0  0  0  0
 19 22  1  0  0  0  0
 21 22  2  0  0  0  0
 22 20  1  0  0  0  0
 23 21  1  0  0  0  0
 25 26  1  0  0  0  0
 25 24  1  0  0  0  0
 26 24  1  0  0  0  0
 26 14  1  0  0  0  0
 27 24  1  0  0  0  0
 28 29  1  0  0  0  0
 30 31  1  0  0  0  0
 30 28  1  0  0  0  0
 32 33  1  0  0  0  0
 32 31  1  0  0  0  0
 33 31  1  0  0  0  0
 34 35  1  0  0  0  0
 35 37  1  0  0  0  0
 35 36  1  0  0  0  0
 37 36  1  0  0  0  0
M  END
>  <MODEL>
2

>  <REMARK>
 VINA RESULT:      -5.4      1.952      5.301
  Name = 
  7 active torsions:
  status: ('A' for Active; 'I' for Inactive)
    1  A    between atoms: C_1  and  C_5
    2  A    between atoms: C_1  and  C_36
    3  A    between atoms: C_3  and  C_30
    4  A    between atoms: C_6  and  C_31
    5  A    between atoms: C_13  and  C_20
    6  A    between atoms: C_20  and  C_30
    7  A    between atoms: C_26  and  C_33
                            x       y       z     vdW  Elec       q    Type
                         _______ _______ _______ _____ _____    ______ ____

>  <TORSDO>
F 7

$$$$
=
 OpenBabel10262422543D

 37 44  0  0  1  0  0  0  0  0999 V2000
  181.3440  177.0340  137.7700 C   0  0  1  0  0  3  0  0  0  0  0  0
  182.4910  180.3790  138.7980 C   0  0  0  0  0  2  0  0  0  0  0  0
  182.0070  175.7560  137.5150 C   0  0  2  0  0  3  0  0  0  0  0  0
  182.1720  178.0650  137.7440 C   0  0  2  0  0  3  0  0  0  0  0  0
  183.2710  176.2050  136.7880 C   0  0  1  0  0  3  0  0  0  0  0  0
  181.7590  179.4890  137.8230 C   0  0  0  0  0  0  0  0  0  0  0  0
  181.0000  175.0240  136.6510 C   0  0  0  0  0  2  0  0  0  0  0  0
  179.6290  177.8980  136.2330 C   0  0  0  0  0  3  0  0  0  0  0  0
  179.6420  175.6060  137.0530 C   0  0  0  0  0  2  0  0  0  0  0  0
  183.9940  180.1250  138.9000 C   0  0  0  0  0  2  0  0  0  0  0  0
  179.8960  177.0570  137.4460 C   0  0  1  0  0  3  0  0  0  0  0  0
  183.5540  177.6210  137.3690 C   0  0  2  0  0  3  0  0  0  0  0  0
  180.7190  179.9880  137.1020 C   0  0  0  0  0  0  0  0  0  0  0  0
  184.3400  178.7860  139.5680 C   0  0  2  0  0  3  0  0  0  0  0  0
  184.5150  177.6170  138.5840 C   0  0  2  0  0  3  0  0  0  0  0  0
  179.9690  179.1830  136.1100 C   0  0  0  0  0  3  0  0  0  0  0  0
  179.4990  181.8950  138.1900 C   0  0  0  0  0  3  0  0  0  0  0  0
  180.3400  181.4200  137.1700 C   0  0  0  0  0  0  0  0  0  0  0  0
  180.7720  182.3070  136.1730 C   0  0  0  0  0  3  0  0  0  0  0  0
  180.8440  184.5460  135.2000 N   0  0  0  0  0  1  0  0  0  0  0  0
  179.5690  184.1190  137.2370 C   0  0  0  0  0  3  0  0  0  0  0  0
  180.3920  183.6530  136.2090 C   0  0  0  0  0  0  0  0  0  0  0  0
  179.1200  183.2410  138.2260 C   0  0  0  0  0  3  0  0  0  0  0  0
  184.0640  178.8520  142.0140 C   0  0  1  0  0  3  0  0  0  0  0  0
  184.1270  177.5150  141.5830 O   0  0  0  0  0  0  0  0  0  0  0  0
  183.4450  178.4140  140.7450 C   0  0  2  0  0  3  0  0  0  0  0  0
  182.9990  178.9800  143.0820 C   0  0  0  0  0  1  0  0  0  0  0  0
  184.4310  175.1990  136.8570 C   0  0  2  0  0  3  0  0  0  0  0  0
  184.9190  174.9420  135.5740 O   0  0  0  0  0  1  0  0  0  0  0  0
  184.0460  173.8800  137.5300 C   0  0  0  0  0  2  0  0  0  0  0  0
  184.2990  172.6840  136.6250 C   0  0  1  0  0  3  0  0  0  0  0  0
  183.4390  171.5540  137.0390 C   0  0  0  0  0  2  0  0  0  0  0  0
  183.1090  172.3710  135.9440 O   0  0  0  0  0  0  0  0  0  0  0  0
  185.9600  177.6110  138.1020 C   0  0  0  0  0  2  0  0  0  0  0  0
  186.0970  178.3860  136.8030 C   0  0  0  0  0  3  0  0  0  0  0  0
  187.0640  177.6560  135.8930 C   0  0  0  0  0  2  0  0  0  0  0  0
  187.5220  178.8800  136.6590 C   0  0  0  0  0  2  0  0  0  0  0  0
  2 10  1  0  0  0  0
  3  1  1  0  0  0  0
  4  1  1  0  0  0  0
  4  6  1  0  0  0  0
  5 28  1  0  0  0  0
  5 12  1  0  0  0  0
  5  3  1  0  0  0  0
  6  2  1  0  0  0  0
  7  9  1  0  0  0  0
  7  3  1  0  0  0  0
  8 11  1  0  0  0  0
  9 11  1  0  0  0  0
 10 14  1  0  0  0  0
 11  1  1  0  0  0  0
 12  4  1  0  0  0  0
 12 15  1  0  0  0  0
 13 18  1  0  0  0  0
 13  6  2  0  0  0  0
 14 26  1  0  0  0  0
 15 14  1  0  0  0  0
 16  8  2  0  0  0  0
 16 13  1  0  0  0  0
 17 23  1  0  0  0  0
 18 17  2  0  0  0  0
 19 22  2  0  0  0  0
 19 18  1  0  0  0  0
 20 22  1  0  0  0  0
 21 23  2  0  0  0  0
 22 21  1  0  0  0  0
 24 27  1  0  0  0  0
 25 24  1  0  0  0  0
 26 25  1  0  0  0  0
 26 24  1  0  0  0  0
 28 30  1  0  0  0  0
 29 28  1  0  0  0  0
 31 32  1  0  0  0  0
 31 30  1  0  0  0  0
 33 31  1  0  0  0  0
 33 32  1  0  0  0  0
 34 15  1  0  0  0  0
 35 34  1  0  0  0  0
 36 37  1  0  0  0  0
 36 35  1  0  0  0  0
 37 35  1  0  0  0  0
M  END
>  <MODEL>
3

>  <REMARK>
 VINA RESULT:      -5.3      3.146      7.582
  Name = 
  7 active torsions:
  status: ('A' for Active; 'I' for Inactive)
    1  A    between atoms: C_1  and  C_5
    2  A    between atoms: C_1  and  C_36
    3  A    between atoms: C_3  and  C_30
    4  A    between atoms: C_6  and  C_31
    5  A    between atoms: C_13  and  C_20
    6  A    between atoms: C_20  and  C_30
    7  A    between atoms: C_26  and  C_33
                            x       y       z     vdW  Elec       q    Type
                         _______ _______ _______ _____ _____    ______ ____

>  <TORSDO>
F 7

$$$$
=
 OpenBabel10262422543D

 37 44  0  0  1  0  0  0  0  0999 V2000
  183.6150  178.7360  139.6090 C   0  0  1  0  0  3  0  0  0  0  0  0
  182.1520  178.6940  142.9890 C   0  0  0  0  0  2  0  0  0  0  0  0
  183.1690  178.2800  138.2940 C   0  0  2  0  0  3  0  0  0  0  0  0
  182.9460  178.1810  140.6070 C   0  0  2  0  0  3  0  0  0  0  0  0
  182.4970  176.9550  138.6380 C   0  0  1  0  0  3  0  0  0  0  0  0
  183.2760  178.3430  142.0450 C   0  0  0  0  0  0  0  0  0  0  0  0
  184.4700  178.1550  137.5260 C   0  0  0  0  0  2  0  0  0  0  0  0
  185.9000  178.2800  140.3990 C   0  0  0  0  0  3  0  0  0  0  0  0
  185.4140  179.1650  138.1840 C   0  0  0  0  0  2  0  0  0  0  0  0
  180.8230  178.0020  142.6940 C   0  0  0  0  0  2  0  0  0  0  0  0
  185.0120  179.2320  139.6530 C   0  0  1  0  0  3  0  0  0  0  0  0
  181.9710  177.1690  140.0870 C   0  0  2  0  0  3  0  0  0  0  0  0
  184.5490  178.2460  142.5170 C   0  0  0  0  0  0  0  0  0  0  0  0
  180.1510  178.4970  141.4050 C   0  0  2  0  0  3  0  0  0  0  0  0
  180.5090  177.6790  140.1530 C   0  0  2  0  0  3  0  0  0  0  0  0
  185.7000  177.8820  141.6570 C   0  0  0  0  0  3  0  0  0  0  0  0
  183.8890  178.8480  144.8640 C   0  0  0  0  0  3  0  0  0  0  0  0
  184.8570  178.3790  143.9610 C   0  0  0  0  0  0  0  0  0  0  0  0
  186.1470  178.0930  144.4320 C   0  0  0  0  0  3  0  0  0  0  0  0
  187.7650  177.9440  146.2550 N   0  0  0  0  0  1  0  0  0  0  0  0
  185.4820  178.6990  146.6800 C   0  0  0  0  0  3  0  0  0  0  0  0
  186.4580  178.2470  145.7870 C   0  0  0  0  0  0  0  0  0  0  0  0
  184.1990  179.0020  146.2190 C   0  0  0  0  0  3  0  0  0  0  0  0
  179.0470  180.5110  140.5170 C   0  0  1  0  0  3  0  0  0  0  0  0
  180.2170  180.2530  139.7810 O   0  0  0  0  0  0  0  0  0  0  0  0
  180.2740  179.9980  141.1630 C   0  0  2  0  0  3  0  0  0  0  0  0
  178.9310  182.0010  140.7580 C   0  0  0  0  0  1  0  0  0  0  0  0
  181.4620  176.4840  137.6030 C   0  0  2  0  0  3  0  0  0  0  0  0
  181.9010  175.3100  136.9880 O   0  0  0  0  0  1  0  0  0  0  0  0
  181.1560  177.5360  136.5350 C   0  0  0  0  0  2  0  0  0  0  0  0
  179.6670  177.8360  136.4420 C   0  0  1  0  0  3  0  0  0  0  0  0
  179.4460  179.2950  136.5380 C   0  0  0  0  0  2  0  0  0  0  0  0
  179.4360  178.6280  135.3010 O   0  0  0  0  0  0  0  0  0  0  0  0
  179.5450  176.5040  140.0590 C   0  0  0  0  0  2  0  0  0  0  0  0
  180.2130  175.2210  140.5210 C   0  0  0  0  0  3  0  0  0  0  0  0
  179.5790  174.0470  139.8020 C   0  0  0  0  0  2  0  0  0  0  0  0
  179.1980  174.3520  141.2360 C   0  0  0  0  0  2  0  0  0  0  0  0
  1 11  1  0  0  0  0
  1  4  1  0  0  0  0
  3  5  1  0  0  0  0
  3  1  1  0  0  0  0
  4  6  1  0  0  0  0
  5 12  1  0  0  0  0
  6 13  2  0  0  0  0
  6  2  1  0  0  0  0
  7  9  1  0  0  0  0
  7  3  1  0  0  0  0
  8 16  2  0  0  0  0
  9 11  1  0  0  0  0
 10  2  1  0  0  0  0
 11  8  1  0  0  0  0
 12 15  1  0  0  0  0
 12  4  1  0  0  0  0
 13 18  1  0  0  0  0
 14 10  1  0  0  0  0
 15 14  1  0  0  0  0
 16 13  1  0  0  0  0
 17 23  1  0  0  0  0
 18 19  1  0  0  0  0
 18 17  2  0  0  0  0
 19 22  2  0  0  0  0
 22 20  1  0  0  0  0
 22 21  1  0  0  0  0
 23 21  2  0  0  0  0
 24 27  1  0  0  0  0
 24 26  1  0  0  0  0
 25 24  1  0  0  0  0
 25 26  1  0  0  0  0
 26 14  1  0  0  0  0
 28  5  1  0  0  0  0
 29 28  1  0  0  0  0
 30 28  1  0  0  0  0
 31 30  1  0  0  0  0
 31 32  1  0  0  0  0
 33 31  1  0  0  0  0
 33 32  1  0  0  0  0
 34 15  1  0  0  0  0
 34 35  1  0  0  0  0
 35 37  1  0  0  0  0
 36 35  1  0  0  0  0
 36 37  1  0  0  0  0
M  END
>  <MODEL>
4

>  <REMARK>
 VINA RESULT:      -5.1      2.654      6.297
  Name = 
  7 active torsions:
  status: ('A' for Active; 'I' for Inactive)
    1  A    between atoms: C_1  and  C_5
    2  A    between atoms: C_1  and  C_36
    3  A    between atoms: C_3  and  C_30
    4  A    between atoms: C_6  and  C_31
    5  A    between atoms: C_13  and  C_20
    6  A    between atoms: C_20  and  C_30
    7  A    between atoms: C_26  and  C_33
                            x       y       z     vdW  Elec       q    Type
                         _______ _______ _______ _____ _____    ______ ____

>  <TORSDO>
F 7

$$$$
=
 OpenBabel10262422543D

 37 44  0  0  1  0  0  0  0  0999 V2000
  181.1050  178.6980  136.3970 C   0  0  1  0  0  3  0  0  0  0  0  0
  182.6230  175.8150  138.1130 C   0  0  0  0  0  2  0  0  0  0  0  0
  180.9000  180.1040  136.7410 C   0  0  2  0  0  3  0  0  0  0  0  0
  181.3430  177.9340  137.4490 C   0  0  2  0  0  3  0  0  0  0  0  0
  180.5050  180.0070  138.2110 C   0  0  1  0  0  3  0  0  0  0  0  0
  181.4440  176.4530  137.4200 C   0  0  0  0  0  0  0  0  0  0  0  0
  179.7800  180.5160  135.8060 C   0  0  0  0  0  2  0  0  0  0  0  0
  179.3030  177.3690  135.3760 C   0  0  0  0  0  3  0  0  0  0  0  0
  179.9200  179.5900  134.5940 C   0  0  0  0  0  2  0  0  0  0  0  0
  183.0320  176.4740  139.4290 C   0  0  0  0  0  2  0  0  0  0  0  0
  180.4740  178.2720  135.1230 C   0  0  1  0  0  3  0  0  0  0  0  0
  181.2460  178.7340  138.7130 C   0  0  2  0  0  3  0  0  0  0  0  0
  180.5550  175.6750  136.7450 C   0  0  0  0  0  0  0  0  0  0  0  0
  183.6500  177.8680  139.2450 C   0  0  2  0  0  3  0  0  0  0  0  0
  182.6370  179.0230  139.3300 C   0  0  2  0  0  3  0  0  0  0  0  0
  179.3610  176.2250  136.0620 C   0  0  0  0  0  3  0  0  0  0  0  0
  180.0210  173.4360  137.7500 C   0  0  0  0  0  3  0  0  0  0  0  0
  180.6530  174.1950  136.7520 C   0  0  0  0  0  0  0  0  0  0  0  0
  181.4330  173.5400  135.7880 C   0  0  0  0  0  3  0  0  0  0  0  0
  182.3450  171.4920  134.8180 N   0  0  0  0  0  1  0  0  0  0  0  0
  180.9140  171.3990  136.7940 C   0  0  0  0  0  3  0  0  0  0  0  0
  181.5600  172.1470  135.8060 C   0  0  0  0  0  0  0  0  0  0  0  0
  180.1470  172.0430  137.7680 C   0  0  0  0  0  3  0  0  0  0  0  0
  185.9600  177.6770  138.4150 C   0  0  1  0  0  3  0  0  0  0  0  0
  185.5200  179.0050  138.2800 O   0  0  0  0  0  0  0  0  0  0  0  0
  184.5690  178.0000  138.0350 C   0  0  2  0  0  3  0  0  0  0  0  0
  186.7460  177.2870  137.1820 C   0  0  0  0  0  1  0  0  0  0  0  0
  180.7470  181.2950  139.0160 C   0  0  2  0  0  3  0  0  0  0  0  0
  179.5260  181.8530  139.4020 O   0  0  0  0  0  1  0  0  0  0  0  0
  181.5660  182.3370  138.2530 C   0  0  0  0  0  2  0  0  0  0  0  0
  180.7000  183.4770  137.7390 C   0  0  1  0  0  3  0  0  0  0  0  0
  181.5570  184.6170  137.3470 C   0  0  0  0  0  2  0  0  0  0  0  0
  181.0310  183.7270  136.3950 O   0  0  0  0  0  0  0  0  0  0  0  0
  182.4850  179.4170  140.7930 C   0  0  0  0  0  2  0  0  0  0  0  0
  181.3760  178.6170  141.4530 C   0  0  0  0  0  3  0  0  0  0  0  0
  180.4550  179.5660  142.1920 C   0  0  0  0  0  2  0  0  0  0  0  0
  181.4800  178.7580  142.9580 C   0  0  0  0  0  2  0  0  0  0  0  0
  1  3  1  0  0  0  0
  1  4  1  0  0  0  0
  2 10  1  0  0  0  0
  3  5  1  0  0  0  0
  4 12  1  0  0  0  0
  5 12  1  0  0  0  0
  5 28  1  0  0  0  0
  6  4  1  0  0  0  0
  6  2  1  0  0  0  0
  7  3  1  0  0  0  0
  8 16  2  0  0  0  0
  9 11  1  0  0  0  0
  9  7  1  0  0  0  0
 11  8  1  0  0  0  0
 11  1  1  0  0  0  0
 12 15  1  0  0  0  0
 13 18  1  0  0  0  0
 13  6  2  0  0  0  0
 14 15  1  0  0  0  0
 14 10  1  0  0  0  0
 15 34  1  0  0  0  0
 16 13  1  0  0  0  0
 17 23  1  0  0  0  0
 18 17  2  0  0  0  0
 19 22  2  0  0  0  0
 19 18  1  0  0  0  0
 20 22  1  0  0  0  0
 21 23  2  0  0  0  0
 22 21  1  0  0  0  0
 25 24  1  0  0  0  0
 26 25  1  0  0  0  0
 26 24  1  0  0  0  0
 26 14  1  0  0  0  0
 27 24  1  0  0  0  0
 28 29  1  0  0  0  0
 30 28  1  0  0  0  0
 31 30  1  0  0  0  0
 32 31  1  0  0  0  0
 33 32  1  0  0  0  0
 33 31  1  0  0  0  0
 34 35  1  0  0  0  0
 35 36  1  0  0  0  0
 35 37  1  0  0  0  0
 36 37  1  0  0  0  0
M  END
>  <MODEL>
5

>  <REMARK>
 VINA RESULT:      -5.0      2.436      6.336
  Name = 
  7 active torsions:
  status: ('A' for Active; 'I' for Inactive)
    1  A    between atoms: C_1  and  C_5
    2  A    between atoms: C_1  and  C_36
    3  A    between atoms: C_3  and  C_30
    4  A    between atoms: C_6  and  C_31
    5  A    between atoms: C_13  and  C_20
    6  A    between atoms: C_20  and  C_30
    7  A    between atoms: C_26  and  C_33
                            x       y       z     vdW  Elec       q    Type
                         _______ _______ _______ _____ _____    ______ ____

>  <TORSDO>
F 7

$$$$
=
 OpenBabel10262422543D

 37 44  0  0  1  0  0  0  0  0999 V2000
  183.7710  177.2760  137.8660 C   0  0  1  0  0  3  0  0  0  0  0  0
  180.2230  177.2560  138.8510 C   0  0  0  0  0  2  0  0  0  0  0  0
  184.6600  176.3140  137.2180 C   0  0  2  0  0  3  0  0  0  0  0  0
  182.6820  176.7210  138.3730 C   0  0  2  0  0  3  0  0  0  0  0  0
  184.2290  175.0060  137.8740 C   0  0  1  0  0  3  0  0  0  0  0  0
  181.6780  177.4250  139.2090 C   0  0  0  0  0  0  0  0  0  0  0  0
  186.0350  176.8070  137.6220 C   0  0  0  0  0  2  0  0  0  0  0  0
  184.4990  178.5360  139.8510 C   0  0  0  0  0  3  0  0  0  0  0  0
  185.8630  178.3120  137.8470 C   0  0  0  0  0  2  0  0  0  0  0  0
  179.8290  175.8510  138.3980 C   0  0  0  0  0  2  0  0  0  0  0  0
  184.4380  178.5090  138.3520 C   0  0  1  0  0  3  0  0  0  0  0  0
  182.7250  175.2320  138.2040 C   0  0  2  0  0  3  0  0  0  0  0  0
  182.0320  178.2530  140.2300 C   0  0  0  0  0  0  0  0  0  0  0  0
  180.4080  175.4700  137.0280 C   0  0  2  0  0  3  0  0  0  0  0  0
  181.7610  174.7420  137.0950 C   0  0  2  0  0  3  0  0  0  0  0  0
  183.4370  178.4510  140.6550 C   0  0  0  0  0  3  0  0  0  0  0  0
  180.4680  180.1620  140.6990 C   0  0  0  0  0  3  0  0  0  0  0  0
  181.0150  178.9240  141.0760 C   0  0  0  0  0  0  0  0  0  0  0  0
  180.6340  178.3540  142.2990 C   0  0  0  0  0  3  0  0  0  0  0  0
  179.3140  178.4030  144.3540 N   0  0  0  0  0  1  0  0  0  0  0  0
  179.1510  180.2180  142.7290 C   0  0  0  0  0  3  0  0  0  0  0  0
  179.7020  178.9950  143.1210 C   0  0  0  0  0  0  0  0  0  0  0  0
  179.5360  180.8030  141.5210 C   0  0  0  0  0  3  0  0  0  0  0  0
  179.1760  176.5720  135.2020 C   0  0  1  0  0  3  0  0  0  0  0  0
  180.3890  176.0590  134.7090 O   0  0  0  0  0  0  0  0  0  0  0  0
  180.4160  176.6020  136.0060 C   0  0  2  0  0  3  0  0  0  0  0  0
  178.9310  177.9360  134.5950 C   0  0  0  0  0  1  0  0  0  0  0  0
  184.5620  173.7490  137.0540 C   0  0  2  0  0  3  0  0  0  0  0  0
  185.2370  172.8220  137.8520 O   0  0  0  0  0  1  0  0  0  0  0  0
  185.3930  174.0470  135.8050 C   0  0  0  0  0  2  0  0  0  0  0  0
  186.8340  173.5840  135.9550 C   0  0  1  0  0  3  0  0  0  0  0  0
  187.3380  173.0900  134.6560 C   0  0  0  0  0  2  0  0  0  0  0  0
  187.6530  174.3750  135.1290 O   0  0  0  0  0  0  0  0  0  0  0  0
  181.4930  173.2520  137.2600 C   0  0  0  0  0  2  0  0  0  0  0  0
  180.4160  172.7880  136.2960 C   0  0  0  0  0  3  0  0  0  0  0  0
  179.4870  171.8320  137.0160 C   0  0  0  0  0  2  0  0  0  0  0  0
  180.5460  171.2950  136.0760 C   0  0  0  0  0  2  0  0  0  0  0  0
  1 11  1  0  0  0  0
  1  4  1  0  0  0  0
  2  6  1  0  0  0  0
  3  7  1  0  0  0  0
  3  1  1  0  0  0  0
  3  5  1  0  0  0  0
  4  6  1  0  0  0  0
  5 12  1  0  0  0  0
  6 13  2  0  0  0  0
  7  9  1  0  0  0  0
  8 16  2  0  0  0  0
  9 11  1  0  0  0  0
 10  2  1  0  0  0  0
 11  8  1  0  0  0  0
 12  4  1  0  0  0  0
 13 16  1  0  0  0  0
 13 18  1  0  0  0  0
 14 15  1  0  0  0  0
 14 10  1  0  0  0  0
 15 34  1  0  0  0  0
 15 12  1  0  0  0  0
 17 18  2  0  0  0  0
 17 23  1  0  0  0  0
 18 19  1  0  0  0  0
 19 22  2  0  0  0  0
 21 22  1  0  0  0  0
 22 20  1  0  0  0  0
 23 21  2  0  0  0  0
 24 26  1  0  0  0  0
 25 24  1  0  0  0  0
 25 26  1  0  0  0  0
 26 14  1  0  0  0  0
 27 24  1  0  0  0  0
 28 29  1  0  0  0  0
 28  5  1  0  0  0  0
 30 31  1  0  0  0  0
 30 28  1  0  0  0  0
 32 33  1  0  0  0  0
 32 31  1  0  0  0  0
 33 31  1  0  0  0  0
 35 36  1  0  0  0  0
 35 34  1  0  0  0  0
 37 35  1  0  0  0  0
 37 36  1  0  0  0  0
M  END
>  <MODEL>
6

>  <REMARK>
 VINA RESULT:      -4.8      3.460      7.511
  Name = 
  7 active torsions:
  status: ('A' for Active; 'I' for Inactive)
    1  A    between atoms: C_1  and  C_5
    2  A    between atoms: C_1  and  C_36
    3  A    between atoms: C_3  and  C_30
    4  A    between atoms: C_6  and  C_31
    5  A    between atoms: C_13  and  C_20
    6  A    between atoms: C_20  and  C_30
    7  A    between atoms: C_26  and  C_33
                            x       y       z     vdW  Elec       q    Type
                         _______ _______ _______ _____ _____    ______ ____

>  <TORSDO>
F 7

$$$$
=
 OpenBabel10262422543D

 37 44  0  0  1  0  0  0  0  0999 V2000
  184.1430  178.5370  139.2690 C   0  0  1  0  0  3  0  0  0  0  0  0
  182.2420  178.6200  142.4210 C   0  0  0  0  0  2  0  0  0  0  0  0
  183.8740  178.0360  137.9220 C   0  0  2  0  0  3  0  0  0  0  0  0
  183.3440  178.0200  140.1870 C   0  0  2  0  0  3  0  0  0  0  0  0
  183.1520  176.7260  138.2200 C   0  0  1  0  0  3  0  0  0  0  0  0
  183.4790  178.2320  141.6500 C   0  0  0  0  0  0  0  0  0  0  0  0
  185.2650  177.8800  137.3400 C   0  0  0  0  0  2  0  0  0  0  0  0
  186.2990  178.1040  140.3720 C   0  0  0  0  0  3  0  0  0  0  0  0
  186.1190  178.9110  138.0830 C   0  0  0  0  0  2  0  0  0  0  0  0
  180.9590  177.9210  141.9760 C   0  0  0  0  0  2  0  0  0  0  0  0
  185.5260  179.0310  139.4820 C   0  0  1  0  0  3  0  0  0  0  0  0
  182.4390  176.9920  139.5770 C   0  0  2  0  0  3  0  0  0  0  0  0
  184.6770  178.1490  142.2900 C   0  0  0  0  0  0  0  0  0  0  0  0
  180.4690  178.3710  140.5920 C   0  0  2  0  0  3  0  0  0  0  0  0
  180.9860  177.5080  139.4290 C   0  0  2  0  0  3  0  0  0  0  0  0
  185.9300  177.7510  141.6050 C   0  0  0  0  0  3  0  0  0  0  0  0
  183.7070  178.8170  144.5080 C   0  0  0  0  0  3  0  0  0  0  0  0
  184.7900  178.3320  143.7580 C   0  0  0  0  0  0  0  0  0  0  0  0
  186.0090  178.0780  144.4040 C   0  0  0  0  0  3  0  0  0  0  0  0
  187.3730  178.0100  146.4280 N   0  0  0  0  0  1  0  0  0  0  0  0
  185.0480  178.7480  146.5230 C   0  0  0  0  0  3  0  0  0  0  0  0
  186.1370  178.2800  145.7810 C   0  0  0  0  0  0  0  0  0  0  0  0
  183.8350  179.0190  145.8860 C   0  0  0  0  0  3  0  0  0  0  0  0
  179.4800  180.3670  139.5420 C   0  0  1  0  0  3  0  0  0  0  0  0
  180.7100  180.0730  138.9280 O   0  0  0  0  0  0  0  0  0  0  0  0
  180.6340  179.8620  140.3160 C   0  0  2  0  0  3  0  0  0  0  0  0
  179.3620  181.8650  139.7250 C   0  0  0  0  0  1  0  0  0  0  0  0
  182.2610  176.2210  137.0730 C   0  0  2  0  0  3  0  0  0  0  0  0
  182.0150  174.8540  137.2240 O   0  0  0  0  0  1  0  0  0  0  0  0
  182.8570  176.4810  135.6880 C   0  0  0  0  0  2  0  0  0  0  0  0
  183.4770  175.2270  135.0900 C   0  0  1  0  0  3  0  0  0  0  0  0
  184.8370  175.5310  134.5940 C   0  0  0  0  0  2  0  0  0  0  0  0
  184.6280  174.8950  135.8290 O   0  0  0  0  0  0  0  0  0  0  0  0
  180.0340  176.3330  139.2480 C   0  0  0  0  0  2  0  0  0  0  0  0
  180.4590  175.1580  140.1100 C   0  0  0  0  0  3  0  0  0  0  0  0
  179.6130  173.9530  139.7560 C   0  0  0  0  0  2  0  0  0  0  0  0
  179.3100  174.7480  141.0080 C   0  0  0  0  0  2  0  0  0  0  0  0
  1 11  1  0  0  0  0
  1  4  1  0  0  0  0
  3  5  1  0  0  0  0
  3  1  1  0  0  0  0
  4  6  1  0  0  0  0
  5 12  1  0  0  0  0
  6 13  2  0  0  0  0
  6  2  1  0  0  0  0
  7  3  1  0  0  0  0
  7  9  1  0  0  0  0
  8 16  2  0  0  0  0
  9 11  1  0  0  0  0
 10  2  1  0  0  0  0
 11  8  1  0  0  0  0
 12  4  1  0  0  0  0
 13 18  1  0  0  0  0
 14 10  1  0  0  0  0
 15 12  1  0  0  0  0
 15 14  1  0  0  0  0
 16 13  1  0  0  0  0
 17 23  1  0  0  0  0
 18 19  1  0  0  0  0
 18 17  2  0  0  0  0
 19 22  2  0  0  0  0
 22 20  1  0  0  0  0
 22 21  1  0  0  0  0
 23 21  2  0  0  0  0
 24 27  1  0  0  0  0
 24 26  1  0  0  0  0
 25 24  1  0  0  0  0
 25 26  1  0  0  0  0
 26 14  1  0  0  0  0
 28 29  1  0  0  0  0
 28  5  1  0  0  0  0
 30 28  1  0  0  0  0
 31 30  1  0  0  0  0
 31 33  1  0  0  0  0
 32 31  1  0  0  0  0
 32 33  1  0  0  0  0
 34 15  1  0  0  0  0
 34 35  1  0  0  0  0
 35 37  1  0  0  0  0
 36 35  1  0  0  0  0
 36 37  1  0  0  0  0
M  END
>  <MODEL>
7

>  <REMARK>
 VINA RESULT:      -4.5      2.728      6.628
  Name = 
  7 active torsions:
  status: ('A' for Active; 'I' for Inactive)
    1  A    between atoms: C_1  and  C_5
    2  A    between atoms: C_1  and  C_36
    3  A    between atoms: C_3  and  C_30
    4  A    between atoms: C_6  and  C_31
    5  A    between atoms: C_13  and  C_20
    6  A    between atoms: C_20  and  C_30
    7  A    between atoms: C_26  and  C_33
                            x       y       z     vdW  Elec       q    Type
                         _______ _______ _______ _____ _____    ______ ____

>  <TORSDO>
F 7

$$$$
=
 OpenBabel10262422543D

 37 44  0  0  1  0  0  0  0  0999 V2000
  180.7660  178.0700  141.0370 C   0  0  1  0  0  3  0  0  0  0  0  0
  181.3480  177.4790  137.4490 C   0  0  0  0  0  2  0  0  0  0  0  0
  181.5190  178.7280  142.1030 C   0  0  2  0  0  3  0  0  0  0  0  0
  181.5110  177.7520  139.9920 C   0  0  2  0  0  3  0  0  0  0  0  0
  182.9440  178.2820  141.7940 C   0  0  1  0  0  3  0  0  0  0  0  0
  181.0500  176.9500  138.8310 C   0  0  0  0  0  0  0  0  0  0  0  0
  180.9200  178.1240  143.3570 C   0  0  0  0  0  2  0  0  0  0  0  0
  179.6980  175.8840  141.4060 C   0  0  0  0  0  3  0  0  0  0  0  0
  179.4890  177.7420  142.9640 C   0  0  0  0  0  2  0  0  0  0  0  0
  182.7180  178.1340  137.2910 C   0  0  0  0  0  2  0  0  0  0  0  0
  179.5350  177.3730  141.4860 C   0  0  1  0  0  3  0  0  0  0  0  0
  182.9490  178.0900  140.2500 C   0  0  2  0  0  3  0  0  0  0  0  0
  180.3270  175.8060  138.9750 C   0  0  0  0  0  0  0  0  0  0  0  0
  182.8430  179.4710  138.0380 C   0  0  2  0  0  3  0  0  0  0  0  0
  183.4030  179.3460  139.4640 C   0  0  2  0  0  3  0  0  0  0  0  0
  180.0160  175.2130  140.2970 C   0  0  0  0  0  3  0  0  0  0  0  0
  179.3610  175.6160  136.6650 C   0  0  0  0  0  3  0  0  0  0  0  0
  179.9010  175.0000  137.8060 C   0  0  0  0  0  0  0  0  0  0  0  0
  179.9800  173.6010  137.8530 C   0  0  0  0  0  3  0  0  0  0  0  0
  179.6430  171.4120  136.8230 N   0  0  0  0  0  1  0  0  0  0  0  0
  179.0270  173.4520  135.6320 C   0  0  0  0  0  3  0  0  0  0  0  0
  179.5490  172.8300  136.7690 C   0  0  0  0  0  0  0  0  0  0  0  0
  178.9310  174.8450  135.5810 C   0  0  0  0  0  3  0  0  0  0  0  0
  181.9630  181.7690  138.1300 C   0  0  1  0  0  3  0  0  0  0  0  0
  181.4520  181.0250  139.2080 O   0  0  0  0  0  0  0  0  0  0  0  0
  181.5940  180.3450  137.9860 C   0  0  2  0  0  3  0  0  0  0  0  0
  180.8630  182.6380  137.5610 C   0  0  0  0  0  1  0  0  0  0  0  0
  184.0330  179.2040  142.3660 C   0  0  2  0  0  3  0  0  0  0  0  0
  185.2820  178.5840  142.2760 O   0  0  0  0  0  1  0  0  0  0  0  0
  183.7720  179.6180  143.8150 C   0  0  0  0  0  2  0  0  0  0  0  0
  184.3200  178.6010  144.8050 C   0  0  1  0  0  3  0  0  0  0  0  0
  185.2910  179.2570  145.7080 C   0  0  0  0  0  2  0  0  0  0  0  0
  183.9680  179.0010  146.1070 O   0  0  0  0  0  0  0  0  0  0  0  0
  184.9230  179.3870  139.3860 C   0  0  0  0  0  2  0  0  0  0  0  0
  185.4770  178.0410  138.9540 C   0  0  0  0  0  3  0  0  0  0  0  0
  186.9900  178.0970  138.9800 C   0  0  0  0  0  2  0  0  0  0  0  0
  186.2510  178.2040  137.6620 C   0  0  0  0  0  2  0  0  0  0  0  0
  1 11  1  0  0  0  0
  1  3  1  0  0  0  0
  2  6  1  0  0  0  0
  3  7  1  0  0  0  0
  4 12  1  0  0  0  0
  4  1  1  0  0  0  0
  5  3  1  0  0  0  0
  5 28  1  0  0  0  0
  6 13  2  0  0  0  0
  6  4  1  0  0  0  0
  8 11  1  0  0  0  0
  9  7  1  0  0  0  0
 10  2  1  0  0  0  0
 10 14  1  0  0  0  0
 11  9  1  0  0  0  0
 12  5  1  0  0  0  0
 13 16  1  0  0  0  0
 14 15  1  0  0  0  0
 15 12  1  0  0  0  0
 16  8  2  0  0  0  0
 17 18  1  0  0  0  0
 18 19  2  0  0  0  0
 18 13  1  0  0  0  0
 21 22  2  0  0  0  0
 22 20  1  0  0  0  0
 22 19  1  0  0  0  0
 23 21  1  0  0  0  0
 23 17  2  0  0  0  0
 24 25  1  0  0  0  0
 26 14  1  0  0  0  0
 26 24  1  0  0  0  0
 26 25  1  0  0  0  0
 27 24  1  0  0  0  0
 28 30  1  0  0  0  0
 29 28  1  0  0  0  0
 30 31  1  0  0  0  0
 31 32  1  0  0  0  0
 31 33  1  0  0  0  0
 32 33  1  0  0  0  0
 34 15  1  0  0  0  0
 35 36  1  0  0  0  0
 35 34  1  0  0  0  0
 37 35  1  0  0  0  0
 37 36  1  0  0  0  0
M  END
>  <MODEL>
8

>  <REMARK>
 VINA RESULT:      -4.1      2.879      6.282
  Name = 
  7 active torsions:
  status: ('A' for Active; 'I' for Inactive)
    1  A    between atoms: C_1  and  C_5
    2  A    between atoms: C_1  and  C_36
    3  A    between atoms: C_3  and  C_30
    4  A    between atoms: C_6  and  C_31
    5  A    between atoms: C_13  and  C_20
    6  A    between atoms: C_20  and  C_30
    7  A    between atoms: C_26  and  C_33
                            x       y       z     vdW  Elec       q    Type
                         _______ _______ _______ _____ _____    ______ ____

>  <TORSDO>
F 7

$$$$
=
 OpenBabel10262422543D

 37 44  0  0  1  0  0  0  0  0999 V2000
  182.6070  176.2130  138.2540 C   0  0  1  0  0  3  0  0  0  0  0  0
  183.2150  179.7610  139.0330 C   0  0  0  0  0  2  0  0  0  0  0  0
  183.4470  175.1040  137.8030 C   0  0  2  0  0  3  0  0  0  0  0  0
  183.1520  177.3990  138.0400 C   0  0  2  0  0  3  0  0  0  0  0  0
  184.3480  175.7950  136.7850 C   0  0  1  0  0  3  0  0  0  0  0  0
  182.4710  178.7000  138.2590 C   0  0  0  0  0  0  0  0  0  0  0  0
  182.4370  174.1410  137.2120 C   0  0  0  0  0  2  0  0  0  0  0  0
  180.4060  176.6290  137.2360 C   0  0  0  0  0  3  0  0  0  0  0  0
  181.1350  174.4240  137.9670 C   0  0  0  0  0  2  0  0  0  0  0  0
  184.7110  179.8460  138.7350 C   0  0  0  0  0  2  0  0  0  0  0  0
  181.1570  175.9080  138.3170 C   0  0  1  0  0  3  0  0  0  0  0  0
  184.4530  177.2560  137.3080 C   0  0  2  0  0  3  0  0  0  0  0  0
  181.1960  178.9350  137.8460 C   0  0  0  0  0  0  0  0  0  0  0  0
  185.5040  178.6380  139.2570 C   0  0  2  0  0  3  0  0  0  0  0  0
  185.6710  177.5040  138.2320 C   0  0  2  0  0  3  0  0  0  0  0  0
  180.4110  177.9520  137.0620 C   0  0  0  0  0  3  0  0  0  0  0  0
  180.4710  181.1860  137.0000 C   0  0  0  0  0  3  0  0  0  0  0  0
  180.5410  180.2500  138.0450 C   0  0  0  0  0  0  0  0  0  0  0  0
  180.0370  180.5980  139.3070 C   0  0  0  0  0  3  0  0  0  0  0  0
  178.9310  182.1880  140.7950 N   0  0  0  0  0  1  0  0  0  0  0  0
  179.3690  182.7670  138.4650 C   0  0  0  0  0  3  0  0  0  0  0  0
  179.4480  181.8490  139.5150 C   0  0  0  0  0  0  0  0  0  0  0  0
  179.8830  182.4370  137.2080 C   0  0  0  0  0  3  0  0  0  0  0  0
  185.2870  179.1400  141.6580 C   0  0  1  0  0  3  0  0  0  0  0  0
  186.1530  178.0470  141.4820 O   0  0  0  0  0  0  0  0  0  0  0  0
  185.0480  178.1190  140.6160 C   0  0  2  0  0  3  0  0  0  0  0  0
  184.3880  178.8750  142.8460 C   0  0  0  0  0  1  0  0  0  0  0  0
  185.6790  175.0700  136.5260 C   0  0  2  0  0  3  0  0  0  0  0  0
  186.1710  175.4080  135.2630 O   0  0  0  0  0  1  0  0  0  0  0  0
  185.5690  173.5480  136.6390 C   0  0  0  0  0  2  0  0  0  0  0  0
  186.8150  172.9310  137.2560 C   0  0  1  0  0  3  0  0  0  0  0  0
  187.3920  171.9360  136.3260 C   0  0  0  0  0  2  0  0  0  0  0  0
  187.9210  173.2330  136.4400 O   0  0  0  0  0  0  0  0  0  0  0  0
  186.9070  177.7990  137.3920 C   0  0  0  0  0  2  0  0  0  0  0  0
  188.0910  178.1430  138.2780 C   0  0  0  0  0  3  0  0  0  0  0  0
  189.0840  178.9640  137.4810 C   0  0  0  0  0  2  0  0  0  0  0  0
  189.3420  177.4920  137.7250 C   0  0  0  0  0  2  0  0  0  0  0  0
  1 11  1  0  0  0  0
  3  1  1  0  0  0  0
  4  1  1  0  0  0  0
  4  6  1  0  0  0  0
  5 12  1  0  0  0  0
  5  3  1  0  0  0  0
  6  2  1  0  0  0  0
  7  3  1  0  0  0  0
  7  9  1  0  0  0  0
  8 11  1  0  0  0  0
  9 11  1  0  0  0  0
 10  2  1  0  0  0  0
 10 14  1  0  0  0  0
 12  4  1  0  0  0  0
 12 15  1  0  0  0  0
 13 18  1  0  0  0  0
 13  6  2  0  0  0  0
 14 26  1  0  0  0  0
 15 14  1  0  0  0  0
 16  8  2  0  0  0  0
 16 13  1  0  0  0  0
 17 23  2  0  0  0  0
 17 18  1  0  0  0  0
 18 19  2  0  0  0  0
 19 22  1  0  0  0  0
 21 22  2  0  0  0  0
 22 20  1  0  0  0  0
 23 21  1  0  0  0  0
 24 27  1  0  0  0  0
 25 24  1  0  0  0  0
 26 25  1  0  0  0  0
 26 24  1  0  0  0  0
 28 30  1  0  0  0  0
 28  5  1  0  0  0  0
 29 28  1  0  0  0  0
 30 31  1  0  0  0  0
 32 33  1  0  0  0  0
 32 31  1  0  0  0  0
 33 31  1  0  0  0  0
 34 15  1  0  0  0  0
 34 35  1  0  0  0  0
 36 37  1  0  0  0  0
 36 35  1  0  0  0  0
 37 35  1  0  0  0  0
M  END
>  <MODEL>
9

>  <REMARK>
 VINA RESULT:      -4.1      3.417      7.899
  Name = 
  7 active torsions:
  status: ('A' for Active; 'I' for Inactive)
    1  A    between atoms: C_1  and  C_5
    2  A    between atoms: C_1  and  C_36
    3  A    between atoms: C_3  and  C_30
    4  A    between atoms: C_6  and  C_31
    5  A    between atoms: C_13  and  C_20
    6  A    between atoms: C_20  and  C_30
    7  A    between atoms: C_26  and  C_33
                            x       y       z     vdW  Elec       q    Type
                         _______ _______ _______ _____ _____    ______ ____

>  <TORSDO>
F 7

$$$$
