=
 OpenBabel10262419233D

 31 35  0  0  1  0  0  0  0  0999 V2000
  189.5560  176.9100  138.2470 C   0  0  2  0  0  3  0  0  0  0  0  0
  189.6500  177.6340  139.6160 C   0  0  2  0  0  3  0  0  0  0  0  0
  190.5470  177.4460  141.9580 C   0  0  0  0  0  2  0  0  0  0  0  0
  190.4510  176.7730  140.5910 C   0  0  0  0  0  2  0  0  0  0  0  0
  187.3810  178.4690  139.5090 O   0  0  0  0  0  0  0  0  0  0  0  0
  189.1840  177.7660  142.5030 C   0  0  0  0  0  0  0  0  0  0  0  0
  188.9890  177.7880  143.8770 O   0  0  0  0  0  1  0  0  0  0  0  0
  188.3300  178.0610  140.2300 C   0  0  0  0  0  0  0  0  0  0  0  0
  188.1710  178.0790  141.6930 C   0  0  0  0  0  3  0  0  0  0  0  0
  190.3320  174.3570  136.2070 C   0  0  0  0  0  2  0  0  0  0  0  0
  190.3870  175.6960  138.1370 N   0  0  0  0  0  0  0  0  0  0  0  0
  191.6070  174.9260  136.2820 O   0  0  0  0  0  0  0  0  0  0  0  0
  189.6560  174.6060  137.5240 C   0  0  0  0  0  2  0  0  0  0  0  0
  191.5090  175.9530  137.2380 C   0  0  2  0  0  3  0  0  0  0  0  0
  193.7060  174.8720  137.6780 C   0  0  0  0  0  1  0  0  0  0  0  0
  192.7970  176.0300  138.0380 C   0  0  0  0  0  2  0  0  0  0  0  0
  188.8340  177.3860  135.8760 C   0  0  2  0  0  0  0  0  0  0  0  0
  189.4060  177.8050  134.6760 O   0  0  0  0  0  1  0  0  0  0  0  0
  189.7230  177.8140  137.0230 C   0  0  1  0  0  3  0  0  0  0  0  0
  187.3950  177.8900  135.9430 C   0  0  2  0  0  3  0  0  0  0  0  0
  188.4770  178.6180  136.7310 C   0  0  2  0  0  3  0  0  0  0  0  0
  186.7130  175.6540  136.6380 C   0  0  0  0  0  1  0  0  0  0  0  0
  186.4650  177.0820  136.7760 N   0  0  0  0  0  0  0  0  0  0  0  0
  185.0420  177.3420  136.5820 C   0  0  0  0  0  2  0  0  0  0  0  0
  182.8440  176.5030  139.5500 C   0  0  0  0  0  0  0  0  0  0  0  0
  183.8760  178.6600  139.9370 C   0  0  0  0  0  3  0  0  0  0  0  0
  182.0240  175.5050  139.9570 F   0  0  0  0  0  0  0  0  0  0  0  0
  183.5010  176.4110  138.3190 C   0  0  0  0  0  3  0  0  0  0  0  0
  184.5340  178.5660  138.7070 C   0  0  0  0  0  3  0  0  0  0  0  0
  184.3490  177.4400  137.8980 C   0  0  0  0  0  0  0  0  0  0  0  0
  183.0310  177.6290  140.3580 C   0  0  0  0  0  3  0  0  0  0  0  0
  1 11  1  1  0  0  0
  2  1  1  6  0  0  0
  2  8  1  0  0  0  0
  2  4  1  0  0  0  0
  3  6  1  0  0  0  0
  4  3  1  0  0  0  0
  5  8  2  0  0  0  0
  6  7  1  0  0  0  0
  8  9  1  0  0  0  0
  9  6  2  0  0  0  0
 10 12  1  0  0  0  0
 10 13  1  0  0  0  0
 12 14  1  0  0  0  0
 13 11  1  0  0  0  0
 14 16  1  1  0  0  0
 14 11  1  0  0  0  0
 15 16  1  0  0  0  0
 17 18  1  6  0  0  0
 17 20  1  0  0  0  0
 17 21  1  0  0  0  0
 17 19  1  0  0  0  0
 19  1  1  1  0  0  0
 20 21  1  0  0  0  0
 20 23  1  1  0  0  0
 21 19  1  0  0  0  0
 22 23  1  0  0  0  0
 24 23  1  0  0  0  0
 24 30  1  0  0  0  0
 25 27  1  0  0  0  0
 25 31  1  0  0  0  0
 26 31  2  0  0  0  0
 28 25  2  0  0  0  0
 29 26  1  0  0  0  0
 30 28  1  0  0  0  0
 30 29  2  0  0  0  0
M  END
>  <MODEL>
1

>  <REMARK>
 VINA RESULT:      -6.3      0.000      0.000
  Name = 
  7 active torsions:
  status: ('A' for Active; 'I' for Inactive)
    1  A    between atoms: C_3  and  N_9
    2  A    between atoms: C_3  and  C_22
    3  A    between atoms: C_4  and  C_5
    4  A    between atoms: C_4  and  N_12
    5  A    between atoms: C_4  and  C_21
    6  A    between atoms: N_9  and  C_23
    7  A    between atoms: C_27  and  C_28
                            x       y       z     vdW  Elec       q    Type
                         _______ _______ _______ _____ _____    ______ ____

>  <TORSDO>
F 7

$$$$
=
 OpenBabel10262419233D

 31 35  0  0  1  0  0  0  0  0999 V2000
  181.2410  178.3640  140.3330 C   0  0  2  0  0  3  0  0  0  0  0  0
  181.8240  179.0410  141.6010 C   0  0  2  0  0  3  0  0  0  0  0  0
  183.8960  179.2820  143.0070 C   0  0  0  0  0  2  0  0  0  0  0  0
  183.2930  178.6500  141.7540 C   0  0  0  0  0  2  0  0  0  0  0  0
  179.8050  178.7170  142.8960 O   0  0  0  0  0  0  0  0  0  0  0  0
  183.1030  178.9250  144.2320 C   0  0  0  0  0  0  0  0  0  0  0  0
  183.7470  178.8450  145.4590 O   0  0  0  0  0  1  0  0  0  0  0  0
  181.0620  178.7970  142.8900 C   0  0  0  0  0  0  0  0  0  0  0  0
  181.7840  178.7300  144.1700 C   0  0  0  0  0  3  0  0  0  0  0  0
  179.1490  180.9890  140.4350 C   0  0  0  0  0  2  0  0  0  0  0  0
  180.4120  179.2470  139.4920 N   0  0  0  0  0  0  0  0  0  0  0  0
  180.1410  181.5760  139.6450 O   0  0  0  0  0  0  0  0  0  0  0  0
  179.1330  179.5230  140.1110 C   0  0  0  0  0  2  0  0  0  0  0  0
  181.0610  180.5500  139.3650 C   0  0  2  0  0  3  0  0  0  0  0  0
  180.6450  181.5550  137.1280 C   0  0  0  0  0  1  0  0  0  0  0  0
  181.5990  180.7170  137.9560 C   0  0  0  0  0  2  0  0  0  0  0  0
  179.9940  176.4280  139.2990 C   0  0  2  0  0  0  0  0  0  0  0  0
  178.9310  175.5850  139.6150 O   0  0  0  0  0  1  0  0  0  0  0  0
  180.5540  177.0170  140.5760 C   0  0  1  0  0  3  0  0  0  0  0  0
  180.9970  175.6630  138.4400 C   0  0  2  0  0  3  0  0  0  0  0  0
  181.2910  175.8720  139.9200 C   0  0  2  0  0  3  0  0  0  0  0  0
  181.0520  177.0070  136.4060 C   0  0  0  0  0  1  0  0  0  0  0  0
  181.8270  176.4880  137.5250 N   0  0  0  0  0  0  0  0  0  0  0  0
  183.0410  175.8560  137.0150 C   0  0  0  0  0  2  0  0  0  0  0  0
  186.6360  177.0090  137.3110 C   0  0  0  0  0  0  0  0  0  0  0  0
  185.2340  178.5110  138.5940 C   0  0  0  0  0  3  0  0  0  0  0  0
  187.8610  176.6390  136.8680 F   0  0  0  0  0  0  0  0  0  0  0  0
  185.5070  176.2690  136.9450 C   0  0  0  0  0  3  0  0  0  0  0  0
  184.1050  177.7710  138.2260 C   0  0  0  0  0  3  0  0  0  0  0  0
  184.2410  176.6510  137.3990 C   0  0  0  0  0  0  0  0  0  0  0  0
  186.4980  178.1300  138.1360 C   0  0  0  0  0  3  0  0  0  0  0  0
  1 11  1  1  0  0  0
  2  1  1  6  0  0  0
  2  4  1  0  0  0  0
  2  8  1  0  0  0  0
  3  6  1  0  0  0  0
  4  3  1  0  0  0  0
  6  7  1  0  0  0  0
  8  5  2  0  0  0  0
  8  9  1  0  0  0  0
  9  6  2  0  0  0  0
 11 13  1  0  0  0  0
 12 10  1  0  0  0  0
 13 10  1  0  0  0  0
 14 16  1  6  0  0  0
 14 11  1  0  0  0  0
 14 12  1  0  0  0  0
 15 16  1  0  0  0  0
 17 18  1  1  0  0  0
 17 21  1  0  0  0  0
 17 19  1  0  0  0  0
 19  1  1  6  0  0  0
 20 23  1  6  0  0  0
 20 17  1  0  0  0  0
 20 21  1  0  0  0  0
 21 19  1  0  0  0  0
 22 23  1  0  0  0  0
 24 30  1  0  0  0  0
 24 23  1  0  0  0  0
 25 31  1  0  0  0  0
 27 25  1  0  0  0  0
 28 25  2  0  0  0  0
 28 30  1  0  0  0  0
 29 26  1  0  0  0  0
 30 29  2  0  0  0  0
 31 26  2  0  0  0  0
M  END
>  <MODEL>
2

>  <REMARK>
 VINA RESULT:      -6.3      5.180      8.479
  Name = 
  7 active torsions:
  status: ('A' for Active; 'I' for Inactive)
    1  A    between atoms: C_3  and  N_9
    2  A    between atoms: C_3  and  C_22
    3  A    between atoms: C_4  and  C_5
    4  A    between atoms: C_4  and  N_12
    5  A    between atoms: C_4  and  C_21
    6  A    between atoms: N_9  and  C_23
    7  A    between atoms: C_27  and  C_28
                            x       y       z     vdW  Elec       q    Type
                         _______ _______ _______ _____ _____    ______ ____

>  <TORSDO>
F 7

$$$$
=
 OpenBabel10262419233D

 31 35  0  0  1  0  0  0  0  0999 V2000
  180.7760  178.4320  139.8380 C   0  0  2  0  0  3  0  0  0  0  0  0
  182.1830  179.0670  139.9960 C   0  0  2  0  0  3  0  0  0  0  0  0
  184.4580  179.2550  138.9390 C   0  0  0  0  0  2  0  0  0  0  0  0
  183.0560  178.6650  138.8080 C   0  0  0  0  0  2  0  0  0  0  0  0
  182.2500  178.7100  142.3880 O   0  0  0  0  0  0  0  0  0  0  0  0
  185.0920  178.8620  140.2440 C   0  0  0  0  0  0  0  0  0  0  0  0
  186.4740  178.7410  140.3180 O   0  0  0  0  0  1  0  0  0  0  0  0
  182.8920  178.7850  141.3070 C   0  0  0  0  0  0  0  0  0  0  0  0
  184.3580  178.6750  141.3420 C   0  0  0  0  0  3  0  0  0  0  0  0
  179.3210  180.6120  141.9380 C   0  0  0  0  0  2  0  0  0  0  0  0
  179.6560  179.3840  139.9630 N   0  0  0  0  0  0  0  0  0  0  0  0
  179.6610  181.5240  140.9350 O   0  0  0  0  0  0  0  0  0  0  0  0
  179.0320  179.3010  141.2670 C   0  0  0  0  0  2  0  0  0  0  0  0
  180.1650  180.7500  139.8730 C   0  0  2  0  0  3  0  0  0  0  0  0
  180.9580  181.8920  137.8100 C   0  0  0  0  0  1  0  0  0  0  0  0
  179.7450  181.3650  138.5500 C   0  0  0  0  0  2  0  0  0  0  0  0
  179.5480  176.2350  140.0170 C   0  0  2  0  0  0  0  0  0  0  0  0
  178.9310  175.4630  140.9990 O   0  0  0  0  0  1  0  0  0  0  0  0
  180.5350  177.1730  140.6750 C   0  0  1  0  0  3  0  0  0  0  0  0
  180.1350  175.3100  138.9540 C   0  0  2  0  0  3  0  0  0  0  0  0
  181.0590  175.9270  139.9980 C   0  0  2  0  0  3  0  0  0  0  0  0
  178.9920  176.3680  137.0780 C   0  0  0  0  0  1  0  0  0  0  0  0
  180.2690  175.8920  137.5930 N   0  0  0  0  0  0  0  0  0  0  0  0
  180.9030  175.0400  136.5910 C   0  0  0  0  0  2  0  0  0  0  0  0
  184.4650  174.1060  137.4740 C   0  0  0  0  0  0  0  0  0  0  0  0
  184.4810  176.2670  136.3790 C   0  0  0  0  0  3  0  0  0  0  0  0
  185.1310  173.0880  138.0700 F   0  0  0  0  0  0  0  0  0  0  0  0
  183.0750  174.0500  137.3410 C   0  0  0  0  0  3  0  0  0  0  0  0
  183.0900  176.2090  136.2450 C   0  0  0  0  0  3  0  0  0  0  0  0
  182.3860  175.0990  136.7240 C   0  0  0  0  0  0  0  0  0  0  0  0
  185.1680  175.2160  136.9930 C   0  0  0  0  0  3  0  0  0  0  0  0
  1 11  1  1  0  0  0
  2  1  1  1  0  0  0
  2  8  1  0  0  0  0
  3  6  1  0  0  0  0
  4  3  1  0  0  0  0
  4  2  1  0  0  0  0
  6  7  1  0  0  0  0
  6  9  2  0  0  0  0
  8  9  1  0  0  0  0
  8  5  2  0  0  0  0
 11 13  1  0  0  0  0
 12 10  1  0  0  0  0
 13 10  1  0  0  0  0
 14 16  1  6  0  0  0
 14 11  1  0  0  0  0
 14 12  1  0  0  0  0
 15 16  1  0  0  0  0
 17 19  1  0  0  0  0
 17 18  1  1  0  0  0
 19  1  1  6  0  0  0
 20 23  1  6  0  0  0
 20 21  1  0  0  0  0
 20 17  1  0  0  0  0
 21 17  1  0  0  0  0
 21 19  1  0  0  0  0
 22 23  1  0  0  0  0
 24 30  1  0  0  0  0
 24 23  1  0  0  0  0
 25 27  1  0  0  0  0
 26 31  1  0  0  0  0
 28 25  1  0  0  0  0
 29 26  2  0  0  0  0
 29 30  1  0  0  0  0
 30 28  2  0  0  0  0
 31 25  2  0  0  0  0
M  END
>  <MODEL>
3

>  <REMARK>
 VINA RESULT:      -6.3      4.971      8.711
  Name = 
  7 active torsions:
  status: ('A' for Active; 'I' for Inactive)
    1  A    between atoms: C_3  and  N_9
    2  A    between atoms: C_3  and  C_22
    3  A    between atoms: C_4  and  C_5
    4  A    between atoms: C_4  and  N_12
    5  A    between atoms: C_4  and  C_21
    6  A    between atoms: N_9  and  C_23
    7  A    between atoms: C_27  and  C_28
                            x       y       z     vdW  Elec       q    Type
                         _______ _______ _______ _____ _____    ______ ____

>  <TORSDO>
F 7

$$$$
=
 OpenBabel10262419233D

 31 35  0  0  1  0  0  0  0  0999 V2000
  184.4960  176.7680  137.9010 C   0  0  2  0  0  3  0  0  0  0  0  0
  185.7980  176.5480  137.0850 C   0  0  2  0  0  3  0  0  0  0  0  0
  188.3010  176.7890  137.1470 C   0  0  0  0  0  2  0  0  0  0  0  0
  187.0010  176.9720  137.9270 C   0  0  0  0  0  2  0  0  0  0  0  0
  184.8030  177.2760  135.0030 O   0  0  0  0  0  0  0  0  0  0  0  0
  188.2590  177.5290  135.8390 C   0  0  0  0  0  0  0  0  0  0  0  0
  189.4410  178.0100  135.2930 O   0  0  0  0  0  1  0  0  0  0  0  0
  185.8380  177.2020  135.7170 C   0  0  0  0  0  0  0  0  0  0  0  0
  187.1150  177.6890  135.1710 C   0  0  0  0  0  3  0  0  0  0  0  0
  182.2490  175.1380  136.0120 C   0  0  0  0  0  2  0  0  0  0  0  0
  183.5680  175.6230  137.8950 N   0  0  0  0  0  0  0  0  0  0  0  0
  183.1560  174.0860  136.1650 O   0  0  0  0  0  0  0  0  0  0  0  0
  182.3090  175.9630  137.2640 C   0  0  0  0  0  2  0  0  0  0  0  0
  184.1240  174.5480  137.0760 C   0  0  2  0  0  3  0  0  0  0  0  0
  185.9660  172.9560  137.5850 C   0  0  0  0  0  1  0  0  0  0  0  0
  184.5700  173.4050  137.9690 C   0  0  0  0  0  2  0  0  0  0  0  0
  183.0400  178.6070  138.8330 C   0  0  2  0  0  0  0  0  0  0  0  0
  181.9720  179.4000  138.4200 O   0  0  0  0  0  1  0  0  0  0  0  0
  183.7650  178.0820  137.6130 C   0  0  1  0  0  3  0  0  0  0  0  0
  183.9010  179.4010  139.8110 C   0  0  2  0  0  3  0  0  0  0  0  0
  184.3640  179.2470  138.3680 C   0  0  2  0  0  3  0  0  0  0  0  0
  183.8000  177.8750  141.7100 C   0  0  0  0  0  1  0  0  0  0  0  0
  184.6720  178.5970  140.7950 N   0  0  0  0  0  0  0  0  0  0  0  0
  185.6810  179.3210  141.5630 C   0  0  0  0  0  2  0  0  0  0  0  0
  189.0450  177.6550  141.0620 C   0  0  0  0  0  0  0  0  0  0  0  0
  188.0710  176.8270  143.1190 C   0  0  0  0  0  3  0  0  0  0  0  0
  190.0580  177.6620  140.1630 F   0  0  0  0  0  0  0  0  0  0  0  0
  187.9250  178.4660  140.8590 C   0  0  0  0  0  3  0  0  0  0  0  0
  186.9510  177.6390  142.9160 C   0  0  0  0  0  3  0  0  0  0  0  0
  186.8780  178.4620  141.7870 C   0  0  0  0  0  0  0  0  0  0  0  0
  189.1180  176.8350  142.1930 C   0  0  0  0  0  3  0  0  0  0  0  0
  1 11  1  6  0  0  0
  2  1  1  1  0  0  0
  2  4  1  0  0  0  0
  3  4  1  0  0  0  0
  5  8  2  0  0  0  0
  6  3  1  0  0  0  0
  7  6  1  0  0  0  0
  8  2  1  0  0  0  0
  9  8  1  0  0  0  0
  9  6  2  0  0  0  0
 10 12  1  0  0  0  0
 10 13  1  0  0  0  0
 12 14  1  0  0  0  0
 13 11  1  0  0  0  0
 14 11  1  0  0  0  0
 14 16  1  1  0  0  0
 15 16  1  0  0  0  0
 17 18  1  6  0  0  0
 17 20  1  0  0  0  0
 19  1  1  1  0  0  0
 19 21  1  0  0  0  0
 19 17  1  0  0  0  0
 20 23  1  1  0  0  0
 21 17  1  0  0  0  0
 21 20  1  0  0  0  0
 23 24  1  0  0  0  0
 23 22  1  0  0  0  0
 24 30  1  0  0  0  0
 25 31  1  0  0  0  0
 27 25  1  0  0  0  0
 28 25  2  0  0  0  0
 28 30  1  0  0  0  0
 29 26  1  0  0  0  0
 30 29  2  0  0  0  0
 31 26  2  0  0  0  0
M  END
>  <MODEL>
4

>  <REMARK>
 VINA RESULT:      -6.2      3.388      6.479
  Name = 
  7 active torsions:
  status: ('A' for Active; 'I' for Inactive)
    1  A    between atoms: C_3  and  N_9
    2  A    between atoms: C_3  and  C_22
    3  A    between atoms: C_4  and  C_5
    4  A    between atoms: C_4  and  N_12
    5  A    between atoms: C_4  and  C_21
    6  A    between atoms: N_9  and  C_23
    7  A    between atoms: C_27  and  C_28
                            x       y       z     vdW  Elec       q    Type
                         _______ _______ _______ _____ _____    ______ ____

>  <TORSDO>
F 7

$$$$
=
 OpenBabel10262419233D

 31 35  0  0  1  0  0  0  0  0999 V2000
  181.9920  177.2980  138.7200 C   0  0  2  0  0  3  0  0  0  0  0  0
  183.5380  177.1700  138.6890 C   0  0  2  0  0  3  0  0  0  0  0  0
  185.6660  178.3740  138.0980 C   0  0  0  0  0  2  0  0  0  0  0  0
  184.1430  178.4700  138.1620 C   0  0  0  0  0  2  0  0  0  0  0  0
  183.4920  174.8640  137.9600 O   0  0  0  0  0  0  0  0  0  0  0  0
  186.1020  177.1930  137.2770 C   0  0  0  0  0  0  0  0  0  0  0  0
  187.3080  177.2500  136.5920 O   0  0  0  0  0  1  0  0  0  0  0  0
  184.0880  175.9730  137.9370 C   0  0  0  0  0  0  0  0  0  0  0  0
  185.3760  176.0750  137.2340 C   0  0  0  0  0  3  0  0  0  0  0  0
  178.9320  176.0820  138.0590 C   0  0  0  0  0  2  0  0  0  0  0  0
  181.2740  176.2440  137.9800 N   0  0  0  0  0  0  0  0  0  0  0  0
  179.2800  176.4220  136.7490 O   0  0  0  0  0  0  0  0  0  0  0  0
  180.1950  175.6830  138.7660 C   0  0  0  0  0  2  0  0  0  0  0  0
  180.6260  176.8250  136.8060 C   0  0  2  0  0  3  0  0  0  0  0  0
  182.1500  177.5210  134.9670 C   0  0  0  0  0  1  0  0  0  0  0  0
  181.3480  176.3750  135.5490 C   0  0  0  0  0  2  0  0  0  0  0  0
  180.2940  179.0820  139.2680 C   0  0  2  0  0  0  0  0  0  0  0  0
  179.4920  180.0010  138.5940 O   0  0  0  0  0  1  0  0  0  0  0  0
  181.4500  178.6890  138.3760 C   0  0  1  0  0  3  0  0  0  0  0  0
  180.6840  179.6640  140.6240 C   0  0  2  0  0  3  0  0  0  0  0  0
  181.6950  179.6870  139.4850 C   0  0  2  0  0  3  0  0  0  0  0  0
  179.8780  177.7460  141.8960 C   0  0  0  0  0  1  0  0  0  0  0  0
  180.9820  178.6740  141.6920 N   0  0  0  0  0  0  0  0  0  0  0  0
  181.3900  179.2250  142.9810 C   0  0  0  0  0  2  0  0  0  0  0  0
  184.6760  178.7330  144.8000 C   0  0  0  0  0  0  0  0  0  0  0  0
  185.0080  178.2340  142.4530 C   0  0  0  0  0  3  0  0  0  0  0  0
  185.1660  178.8390  146.0580 F   0  0  0  0  0  0  0  0  0  0  0  0
  183.3310  179.0200  144.5470 C   0  0  0  0  0  3  0  0  0  0  0  0
  183.6630  178.5200  142.2010 C   0  0  0  0  0  3  0  0  0  0  0  0
  182.8220  178.9110  143.2490 C   0  0  0  0  0  0  0  0  0  0  0  0
  185.5150  178.3410  143.7520 C   0  0  0  0  0  3  0  0  0  0  0  0
  1 11  1  6  0  0  0
  2  1  1  6  0  0  0
  3  4  1  0  0  0  0
  4  2  1  0  0  0  0
  6  3  1  0  0  0  0
  7  6  1  0  0  0  0
  8  5  2  0  0  0  0
  8  2  1  0  0  0  0
  9  6  2  0  0  0  0
  9  8  1  0  0  0  0
 10 13  1  0  0  0  0
 11 13  1  0  0  0  0
 12 14  1  0  0  0  0
 12 10  1  0  0  0  0
 14 16  1  6  0  0  0
 14 11  1  0  0  0  0
 15 16  1  0  0  0  0
 17 18  1  6  0  0  0
 17 21  1  0  0  0  0
 17 20  1  0  0  0  0
 19  1  1  1  0  0  0
 19 17  1  0  0  0  0
 19 21  1  0  0  0  0
 20 23  1  1  0  0  0
 21 20  1  0  0  0  0
 23 22  1  0  0  0  0
 23 24  1  0  0  0  0
 24 30  1  0  0  0  0
 25 27  1  0  0  0  0
 26 31  1  0  0  0  0
 28 25  1  0  0  0  0
 29 26  2  0  0  0  0
 29 30  1  0  0  0  0
 30 28  2  0  0  0  0
 31 25  2  0  0  0  0
M  END
>  <MODEL>
5

>  <REMARK>
 VINA RESULT:      -6.2      4.523      8.122
  Name = 
  7 active torsions:
  status: ('A' for Active; 'I' for Inactive)
    1  A    between atoms: C_3  and  N_9
    2  A    between atoms: C_3  and  C_22
    3  A    between atoms: C_4  and  C_5
    4  A    between atoms: C_4  and  N_12
    5  A    between atoms: C_4  and  C_21
    6  A    between atoms: N_9  and  C_23
    7  A    between atoms: C_27  and  C_28
                            x       y       z     vdW  Elec       q    Type
                         _______ _______ _______ _____ _____    ______ ____

>  <TORSDO>
F 7

$$$$
=
 OpenBabel10262419233D

 31 35  0  0  1  0  0  0  0  0999 V2000
  189.0810  176.2580  137.1590 C   0  0  2  0  0  3  0  0  0  0  0  0
  190.5720  176.3400  136.7370 C   0  0  2  0  0  3  0  0  0  0  0  0
  192.1240  176.4020  134.7580 C   0  0  0  0  0  2  0  0  0  0  0  0
  190.6670  176.3430  135.2120 C   0  0  0  0  0  2  0  0  0  0  0  0
  191.3200  174.8760  138.5130 O   0  0  0  0  0  0  0  0  0  0  0  0
  192.9250  175.2790  135.3560 C   0  0  0  0  0  0  0  0  0  0  0  0
  194.0150  174.7770  134.6580 O   0  0  0  0  0  1  0  0  0  0  0  0
  191.4870  175.2870  137.3340 C   0  0  0  0  0  0  0  0  0  0  0  0
  192.6370  174.7910  136.5630 C   0  0  0  0  0  3  0  0  0  0  0  0
  186.4730  174.1440  137.2240 C   0  0  0  0  0  2  0  0  0  0  0  0
  188.2510  175.3800  136.3140 N   0  0  0  0  0  0  0  0  0  0  0  0
  185.9200  175.0900  136.3570 O   0  0  0  0  0  0  0  0  0  0  0  0
  187.9540  174.1290  136.9790 C   0  0  0  0  0  2  0  0  0  0  0  0
  186.9510  176.0070  136.0880 C   0  0  2  0  0  3  0  0  0  0  0  0
  186.7220  177.9840  134.5940 C   0  0  0  0  0  1  0  0  0  0  0  0
  186.8540  176.4750  134.6470 C   0  0  0  0  0  2  0  0  0  0  0  0
  187.8730  177.7360  138.8110 C   0  0  2  0  0  0  0  0  0  0  0  0
  186.8110  178.6380  138.8200 O   0  0  0  0  0  1  0  0  0  0  0  0
  188.4010  177.6090  137.3990 C   0  0  1  0  0  3  0  0  0  0  0  0
  188.9000  178.1660  139.8550 C   0  0  2  0  0  3  0  0  0  0  0  0
  189.1620  178.4660  138.3840 C   0  0  2  0  0  3  0  0  0  0  0  0
  189.0650  176.3750  141.5010 C   0  0  0  0  0  1  0  0  0  0  0  0
  189.7410  177.0790  140.4210 N   0  0  0  0  0  0  0  0  0  0  0  0
  191.0770  177.4680  140.8640 C   0  0  0  0  0  2  0  0  0  0  0  0
  191.6710  176.3790  144.4430 C   0  0  0  0  0  0  0  0  0  0  0  0
  190.7790  178.6320  144.4570 C   0  0  0  0  0  3  0  0  0  0  0  0
  192.1280  175.2940  145.1120 F   0  0  0  0  0  0  0  0  0  0  0  0
  191.6140  176.3670  143.0460 C   0  0  0  0  0  3  0  0  0  0  0  0
  190.7240  178.6190  143.0600 C   0  0  0  0  0  3  0  0  0  0  0  0
  191.1440  177.4870  142.3530 C   0  0  0  0  0  0  0  0  0  0  0  0
  191.2520  177.5120  145.1480 C   0  0  0  0  0  3  0  0  0  0  0  0
  1 11  1  6  0  0  0
  2  1  1  6  0  0  0
  2  8  1  0  0  0  0
  3  4  1  0  0  0  0
  3  6  1  0  0  0  0
  4  2  1  0  0  0  0
  6  9  2  0  0  0  0
  7  6  1  0  0  0  0
  8  5  2  0  0  0  0
  9  8  1  0  0  0  0
 11 13  1  0  0  0  0
 12 10  1  0  0  0  0
 13 10  1  0  0  0  0
 14 16  1  6  0  0  0
 14 11  1  0  0  0  0
 14 12  1  0  0  0  0
 15 16  1  0  0  0  0
 17 18  1  1  0  0  0
 17 20  1  0  0  0  0
 19  1  1  1  0  0  0
 19 21  1  0  0  0  0
 19 17  1  0  0  0  0
 20 23  1  6  0  0  0
 21 17  1  0  0  0  0
 21 20  1  0  0  0  0
 23 24  1  0  0  0  0
 23 22  1  0  0  0  0
 24 30  1  0  0  0  0
 25 27  1  0  0  0  0
 25 31  1  0  0  0  0
 26 31  2  0  0  0  0
 28 25  2  0  0  0  0
 29 26  1  0  0  0  0
 30 28  1  0  0  0  0
 30 29  2  0  0  0  0
M  END
>  <MODEL>
6

>  <REMARK>
 VINA RESULT:      -6.2      3.346      6.632
  Name = 
  7 active torsions:
  status: ('A' for Active; 'I' for Inactive)
    1  A    between atoms: C_3  and  N_9
    2  A    between atoms: C_3  and  C_22
    3  A    between atoms: C_4  and  C_5
    4  A    between atoms: C_4  and  N_12
    5  A    between atoms: C_4  and  C_21
    6  A    between atoms: N_9  and  C_23
    7  A    between atoms: C_27  and  C_28
                            x       y       z     vdW  Elec       q    Type
                         _______ _______ _______ _____ _____    ______ ____

>  <TORSDO>
F 7

$$$$
=
 OpenBabel10262419233D

 31 35  0  0  1  0  0  0  0  0999 V2000
  183.9780  176.7780  137.4500 C   0  0  2  0  0  3  0  0  0  0  0  0
  185.5130  176.9630  137.3180 C   0  0  2  0  0  3  0  0  0  0  0  0
  187.5560  177.8780  138.4670 C   0  0  0  0  0  2  0  0  0  0  0  0
  186.0480  177.6590  138.5690 C   0  0  0  0  0  2  0  0  0  0  0  0
  185.4080  177.4890  134.9590 O   0  0  0  0  0  0  0  0  0  0  0  0
  187.9110  178.6400  137.2210 C   0  0  0  0  0  0  0  0  0  0  0  0
  189.0360  179.4530  137.2190 O   0  0  0  0  0  1  0  0  0  0  0  0
  185.9890  177.6680  136.0620 C   0  0  0  0  0  0  0  0  0  0  0  0
  187.1930  178.5120  136.1030 C   0  0  0  0  0  3  0  0  0  0  0  0
  183.4550  174.8510  134.7490 C   0  0  0  0  0  2  0  0  0  0  0  0
  183.4800  175.4580  137.0190 N   0  0  0  0  0  0  0  0  0  0  0  0
  184.3780  174.0200  135.3910 O   0  0  0  0  0  0  0  0  0  0  0  0
  182.6760  175.5600  135.8180 C   0  0  0  0  0  2  0  0  0  0  0  0
  184.6090  174.6080  136.6470 C   0  0  2  0  0  3  0  0  0  0  0  0
  184.1710  172.2270  137.2180 C   0  0  0  0  0  1  0  0  0  0  0  0
  184.7960  173.5230  137.6920 C   0  0  0  0  0  2  0  0  0  0  0  0
  181.7680  177.9940  137.4990 C   0  0  2  0  0  0  0  0  0  0  0  0
  180.8790  178.5790  136.5990 O   0  0  0  0  0  1  0  0  0  0  0  0
  183.1360  177.9130  136.8600 C   0  0  1  0  0  3  0  0  0  0  0  0
  181.7090  178.7550  138.8210 C   0  0  2  0  0  3  0  0  0  0  0  0
  182.8690  179.0090  137.8650 C   0  0  2  0  0  3  0  0  0  0  0  0
  181.4750  176.6450  140.0210 C   0  0  0  0  0  1  0  0  0  0  0  0
  182.0700  177.9740  140.0330 N   0  0  0  0  0  0  0  0  0  0  0  0
  181.7880  178.6140  141.3150 C   0  0  0  0  0  2  0  0  0  0  0  0
  185.4150  178.4390  142.3890 C   0  0  0  0  0  0  0  0  0  0  0  0
  184.0460  178.8230  144.3490 C   0  0  0  0  0  3  0  0  0  0  0  0
  186.6330  178.2530  141.8260 F   0  0  0  0  0  0  0  0  0  0  0  0
  184.2680  178.4350  141.5890 C   0  0  0  0  0  3  0  0  0  0  0  0
  182.8990  178.8200  143.5490 C   0  0  0  0  0  3  0  0  0  0  0  0
  183.0090  178.6280  142.1680 C   0  0  0  0  0  0  0  0  0  0  0  0
  185.3030  178.6330  143.7690 C   0  0  0  0  0  3  0  0  0  0  0  0
  1 11  1  6  0  0  0
  2  1  1  1  0  0  0
  2  4  1  0  0  0  0
  3  4  1  0  0  0  0
  5  8  2  0  0  0  0
  6  3  1  0  0  0  0
  7  6  1  0  0  0  0
  8  9  1  0  0  0  0
  8  2  1  0  0  0  0
  9  6  2  0  0  0  0
 10 12  1  0  0  0  0
 10 13  1  0  0  0  0
 12 14  1  0  0  0  0
 13 11  1  0  0  0  0
 14 11  1  0  0  0  0
 14 16  1  1  0  0  0
 15 16  1  0  0  0  0
 17 18  1  6  0  0  0
 17 21  1  0  0  0  0
 17 20  1  0  0  0  0
 19  1  1  1  0  0  0
 19 17  1  0  0  0  0
 19 21  1  0  0  0  0
 20 23  1  1  0  0  0
 21 20  1  0  0  0  0
 22 23  1  0  0  0  0
 23 24  1  0  0  0  0
 24 30  1  0  0  0  0
 25 31  1  0  0  0  0
 27 25  1  0  0  0  0
 28 30  1  0  0  0  0
 28 25  2  0  0  0  0
 29 26  1  0  0  0  0
 30 29  2  0  0  0  0
 31 26  2  0  0  0  0
M  END
>  <MODEL>
7

>  <REMARK>
 VINA RESULT:      -6.1      3.707      6.185
  Name = 
  7 active torsions:
  status: ('A' for Active; 'I' for Inactive)
    1  A    between atoms: C_3  and  N_9
    2  A    between atoms: C_3  and  C_22
    3  A    between atoms: C_4  and  C_5
    4  A    between atoms: C_4  and  N_12
    5  A    between atoms: C_4  and  C_21
    6  A    between atoms: N_9  and  C_23
    7  A    between atoms: C_27  and  C_28
                            x       y       z     vdW  Elec       q    Type
                         _______ _______ _______ _____ _____    ______ ____

>  <TORSDO>
F 7

$$$$
=
 OpenBabel10262419233D

 31 35  0  0  1  0  0  0  0  0999 V2000
  188.5750  175.8190  137.2280 C   0  0  2  0  0  3  0  0  0  0  0  0
  189.8360  175.1370  136.6330 C   0  0  2  0  0  3  0  0  0  0  0  0
  192.1220  174.2490  137.1920 C   0  0  0  0  0  2  0  0  0  0  0  0
  190.8560  174.9010  137.7450 C   0  0  0  0  0  2  0  0  0  0  0  0
  189.7720  176.4400  134.5940 O   0  0  0  0  0  0  0  0  0  0  0  0
  192.7080  175.0640  136.0740 C   0  0  0  0  0  0  0  0  0  0  0  0
  194.0790  175.0320  135.8570 O   0  0  0  0  0  1  0  0  0  0  0  0
  190.4760  175.8460  135.4530 C   0  0  0  0  0  0  0  0  0  0  0  0
  191.9320  175.7770  135.2560 C   0  0  0  0  0  3  0  0  0  0  0  0
  186.5650  175.1650  134.6190 C   0  0  0  0  0  2  0  0  0  0  0  0
  187.2990  175.1850  136.8500 N   0  0  0  0  0  0  0  0  0  0  0  0
  186.8330  173.8420  134.9790 O   0  0  0  0  0  0  0  0  0  0  0  0
  186.5770  175.9800  135.8790 C   0  0  0  0  0  2  0  0  0  0  0  0
  187.5650  173.9150  136.1780 C   0  0  2  0  0  3  0  0  0  0  0  0
  185.7630  172.9650  137.6060 C   0  0  0  0  0  1  0  0  0  0  0  0
  187.1720  172.7650  137.0860 C   0  0  0  0  0  2  0  0  0  0  0  0
  187.9080  178.0250  138.2550 C   0  0  2  0  0  0  0  0  0  0  0  0
  187.3470  179.2360  137.8520 O   0  0  0  0  0  1  0  0  0  0  0  0
  188.5170  177.3390  137.0530 C   0  0  1  0  0  3  0  0  0  0  0  0
  188.8660  178.2830  139.4150 C   0  0  2  0  0  3  0  0  0  0  0  0
  189.4300  178.0610  138.0170 C   0  0  2  0  0  3  0  0  0  0  0  0
  188.3250  177.3180  141.5880 C   0  0  0  0  0  1  0  0  0  0  0  0
  189.0710  177.1450  140.3490 N   0  0  0  0  0  0  0  0  0  0  0  0
  190.4580  176.8190  140.6660 C   0  0  0  0  0  2  0  0  0  0  0  0
  191.5680  178.4410  143.9040 C   0  0  0  0  0  0  0  0  0  0  0  0
  190.6610  176.2520  144.4060 C   0  0  0  0  0  3  0  0  0  0  0  0
  192.1340  179.6000  144.3180 F   0  0  0  0  0  0  0  0  0  0  0  0
  191.3100  178.2350  142.5450 C   0  0  0  0  0  3  0  0  0  0  0  0
  190.4020  176.0470  143.0480 C   0  0  0  0  0  3  0  0  0  0  0  0
  190.7240  177.0400  142.1160 C   0  0  0  0  0  0  0  0  0  0  0  0
  191.2430  177.4490  144.8340 C   0  0  0  0  0  3  0  0  0  0  0  0
  1 11  1  6  0  0  0
  2  1  1  1  0  0  0
  2  4  1  0  0  0  0
  3  4  1  0  0  0  0
  5  8  2  0  0  0  0
  6  3  1  0  0  0  0
  7  6  1  0  0  0  0
  8  2  1  0  0  0  0
  9  8  1  0  0  0  0
  9  6  2  0  0  0  0
 10 12  1  0  0  0  0
 10 13  1  0  0  0  0
 12 14  1  0  0  0  0
 13 11  1  0  0  0  0
 14 11  1  0  0  0  0
 14 16  1  1  0  0  0
 16 15  1  0  0  0  0
 17 18  1  6  0  0  0
 17 20  1  0  0  0  0
 19  1  1  1  0  0  0
 19 21  1  0  0  0  0
 19 17  1  0  0  0  0
 20 23  1  1  0  0  0
 21 17  1  0  0  0  0
 21 20  1  0  0  0  0
 23 24  1  0  0  0  0
 23 22  1  0  0  0  0
 24 30  1  0  0  0  0
 25 27  1  0  0  0  0
 25 31  1  0  0  0  0
 26 31  2  0  0  0  0
 28 25  2  0  0  0  0
 29 26  1  0  0  0  0
 30 28  1  0  0  0  0
 30 29  2  0  0  0  0
M  END
>  <MODEL>
8

>  <REMARK>
 VINA RESULT:      -6.1      3.337      6.439
  Name = 
  7 active torsions:
  status: ('A' for Active; 'I' for Inactive)
    1  A    between atoms: C_3  and  N_9
    2  A    between atoms: C_3  and  C_22
    3  A    between atoms: C_4  and  C_5
    4  A    between atoms: C_4  and  N_12
    5  A    between atoms: C_4  and  C_21
    6  A    between atoms: N_9  and  C_23
    7  A    between atoms: C_27  and  C_28
                            x       y       z     vdW  Elec       q    Type
                         _______ _______ _______ _____ _____    ______ ____

>  <TORSDO>
F 7

$$$$
=
 OpenBabel10262419233D

 31 35  0  0  1  0  0  0  0  0999 V2000
  188.1690  176.6280  136.7860 C   0  0  2  0  0  3  0  0  0  0  0  0
  188.7970  175.3650  136.1390 C   0  0  2  0  0  3  0  0  0  0  0  0
  189.7020  173.0690  136.6250 C   0  0  0  0  0  2  0  0  0  0  0  0
  189.0630  174.3200  137.2220 C   0  0  0  0  0  2  0  0  0  0  0  0
  190.1560  176.6380  134.5940 O   0  0  0  0  0  0  0  0  0  0  0  0
  190.9560  173.4070  135.8690 C   0  0  0  0  0  0  0  0  0  0  0  0
  191.9750  172.4670  135.7890 O   0  0  0  0  0  1  0  0  0  0  0  0
  190.0380  175.6000  135.2980 C   0  0  0  0  0  0  0  0  0  0  0  0
  191.0880  174.5720  135.2340 C   0  0  0  0  0  3  0  0  0  0  0  0
  185.3090  175.2360  135.7090 C   0  0  0  0  0  2  0  0  0  0  0  0
  186.8050  176.9410  136.3220 N   0  0  0  0  0  0  0  0  0  0  0  0
  184.7940  175.8470  136.8560 O   0  0  0  0  0  0  0  0  0  0  0  0
  186.4200  176.1070  135.2020 C   0  0  0  0  0  2  0  0  0  0  0  0
  185.8450  176.6230  137.3770 C   0  0  2  0  0  3  0  0  0  0  0  0
  183.7740  177.8640  137.9760 C   0  0  0  0  0  1  0  0  0  0  0  0
  185.2890  177.9070  137.9640 C   0  0  0  0  0  2  0  0  0  0  0  0
  188.6670  178.8600  137.8520 C   0  0  2  0  0  0  0  0  0  0  0  0
  189.0570  180.1390  137.4600 O   0  0  0  0  0  1  0  0  0  0  0  0
  189.0610  177.8720  136.7770 C   0  0  1  0  0  3  0  0  0  0  0  0
  189.2310  178.5720  139.2410 C   0  0  2  0  0  3  0  0  0  0  0  0
  189.9160  177.9720  138.0200 C   0  0  2  0  0  3  0  0  0  0  0  0
  187.4810  178.2520  140.9100 C   0  0  0  0  0  1  0  0  0  0  0  0
  188.4660  177.5960  140.0600 N   0  0  0  0  0  0  0  0  0  0  0  0
  189.2610  176.6770  140.8690 C   0  0  0  0  0  2  0  0  0  0  0  0
  190.2870  178.5590  143.9920 C   0  0  0  0  0  0  0  0  0  0  0  0
  188.5060  177.0210  144.5660 C   0  0  0  0  0  3  0  0  0  0  0  0
  191.1770  179.5120  144.3560 F   0  0  0  0  0  0  0  0  0  0  0  0
  190.2320  178.1260  142.6630 C   0  0  0  0  0  3  0  0  0  0  0  0
  188.4510  176.5890  143.2370 C   0  0  0  0  0  3  0  0  0  0  0  0
  189.3120  177.1430  142.2840 C   0  0  0  0  0  0  0  0  0  0  0  0
  189.4240  178.0060  144.9430 C   0  0  0  0  0  3  0  0  0  0  0  0
  1 11  1  6  0  0  0
  2  1  1  1  0  0  0
  2  4  1  0  0  0  0
  3  4  1  0  0  0  0
  5  8  2  0  0  0  0
  6  3  1  0  0  0  0
  7  6  1  0  0  0  0
  8  2  1  0  0  0  0
  9  8  1  0  0  0  0
  9  6  2  0  0  0  0
 10 12  1  0  0  0  0
 11 14  1  0  0  0  0
 12 14  1  0  0  0  0
 13 10  1  0  0  0  0
 13 11  1  0  0  0  0
 14 16  1  6  0  0  0
 16 15  1  0  0  0  0
 17 18  1  6  0  0  0
 17 21  1  0  0  0  0
 17 20  1  0  0  0  0
 19  1  1  1  0  0  0
 19 17  1  0  0  0  0
 19 21  1  0  0  0  0
 20 23  1  1  0  0  0
 21 20  1  0  0  0  0
 23 24  1  0  0  0  0
 23 22  1  0  0  0  0
 24 30  1  0  0  0  0
 25 27  1  0  0  0  0
 25 31  1  0  0  0  0
 26 31  2  0  0  0  0
 28 25  2  0  0  0  0
 29 26  1  0  0  0  0
 30 28  1  0  0  0  0
 30 29  2  0  0  0  0
M  END
>  <MODEL>
9

>  <REMARK>
 VINA RESULT:      -6.1      2.929      6.407
  Name = 
  7 active torsions:
  status: ('A' for Active; 'I' for Inactive)
    1  A    between atoms: C_3  and  N_9
    2  A    between atoms: C_3  and  C_22
    3  A    between atoms: C_4  and  C_5
    4  A    between atoms: C_4  and  N_12
    5  A    between atoms: C_4  and  C_21
    6  A    between atoms: N_9  and  C_23
    7  A    between atoms: C_27  and  C_28
                            x       y       z     vdW  Elec       q    Type
                         _______ _______ _______ _____ _____    ______ ____

>  <TORSDO>
F 7

$$$$
