=
 OpenBabel10262422203D

 43 47  0  0  1  0  0  0  0  0999 V2000
  188.9590  177.0610  146.3590 C   0  0  0  0  0  0  0  0  0  0  0  0
  186.4410  178.4490  142.1820 C   0  0  0  0  0  0  0  0  0  0  0  0
  183.7740  178.8760  142.9520 C   0  0  0  0  0  0  0  0  0  0  0  0
  188.3490  177.6240  144.0810 C   0  0  0  0  0  0  0  0  0  0  0  0
  187.6490  177.3050  146.7750 C   0  0  0  0  0  3  0  0  0  0  0  0
  189.8910  176.6620  147.2580 F   0  0  0  0  0  0  0  0  0  0  0  0
  187.0190  177.8780  144.4940 C   0  0  0  0  0  0  0  0  0  0  0  0
  189.3080  177.2190  145.0140 C   0  0  0  0  0  3  0  0  0  0  0  0
  186.6840  177.7100  145.8500 C   0  0  0  0  0  3  0  0  0  0  0  0
  184.7250  178.5080  143.9070 C   0  0  0  0  0  3  0  0  0  0  0  0
  186.0580  178.2820  143.5390 C   0  0  0  0  0  0  0  0  0  0  0  0
  187.7600  178.1750  141.8000 C   0  0  0  0  0  3  0  0  0  0  0  0
  185.4810  178.8520  141.2250 C   0  0  0  0  0  0  0  0  0  0  0  0
  184.1540  179.0440  141.6190 C   0  0  0  0  0  3  0  0  0  0  0  0
  188.7060  177.7700  142.7400 C   0  0  0  0  0  3  0  0  0  0  0  0
  182.3530  179.1130  143.3430 C   0  0  2  0  0  3  0  0  0  0  0  0
  182.0260  178.3060  144.4180 F   0  0  0  0  0  0  0  0  0  0  0  0
  181.4250  178.8440  142.1640 C   0  0  0  0  0  2  0  0  0  0  0  0
  179.6960  180.1670  140.8080 N   0  0  0  0  0  2  0  0  0  0  0  0
  180.3620  179.8910  142.0530 C   0  0  0  0  0  0  0  0  0  0  0  0
  180.0580  180.5660  143.0690 O   0  0  0  0  0  0  0  0  0  0  0  0
  179.9340  179.5110  139.5820 N   0  0  0  0  0  0  0  0  0  0  0  0
  179.0330  178.3700  139.4700 C   0  0  0  0  0  2  0  0  0  0  0  0
  179.3280  175.8940  140.6120 S   0  0  0  0  0  1  0  0  0  0  0  0
  179.8230  177.0810  139.3290 C   0  0  0  0  0  2  0  0  0  0  0  0
  179.6630  180.4360  138.4870 C   0  0  0  0  0  2  0  0  0  0  0  0
  180.9210  181.1360  138.0850 C   0  0  0  0  0  0  0  0  0  0  0  0
  182.0180  180.7220  138.5500 O   0  0  0  0  0  0  0  0  0  0  0  0
  180.8920  182.2980  137.1750 C   0  0  0  0  0  0  0  0  0  0  0  0
  181.2440  184.6740  136.7860 C   0  0  0  0  0  3  0  0  0  0  0  0
  180.4950  183.2530  134.9730 C   0  0  0  0  0  3  0  0  0  0  0  0
  180.8630  184.5130  135.4510 C   0  0  0  0  0  3  0  0  0  0  0  0
  180.5110  182.1500  135.8320 C   0  0  0  0  0  3  0  0  0  0  0  0
  181.2580  183.5700  137.6450 C   0  0  0  0  0  3  0  0  0  0  0  0
  185.8070  179.0440  139.8770 O   0  0  0  0  0  0  0  0  0  0  0  0
  185.4620  177.2210  136.6490 C   0  0  0  0  0  3  0  0  0  0  0  0
  184.1180  176.8200  136.7200 C   0  0  0  0  0  0  0  0  0  0  0  0
  183.9280  177.9050  138.8830 C   0  0  0  0  0  3  0  0  0  0  0  0
  186.0330  177.9570  137.6900 C   0  0  0  0  0  3  0  0  0  0  0  0
  185.2690  178.2970  138.8190 C   0  0  0  0  0  0  0  0  0  0  0  0
  183.3570  177.1690  137.8410 C   0  0  0  0  0  3  0  0  0  0  0  0
  183.5180  176.0800  135.6980 O   0  0  0  0  0  0  0  0  0  0  0  0
  182.9890  174.7770  135.8990 C   0  0  0  0  0  1  0  0  0  0  0  0
  1  5  1  0  0  0  0
  1  6  1  0  0  0  0
  2 11  1  0  0  0  0
  3 16  1  0  0  0  0
  3 10  1  0  0  0  0
  4  7  2  0  0  0  0
  4  8  1  0  0  0  0
  7  9  1  0  0  0  0
  8  1  2  0  0  0  0
  9  5  2  0  0  0  0
 11 10  2  0  0  0  0
 11  7  1  0  0  0  0
 12  2  1  0  0  0  0
 12 15  2  0  0  0  0
 13 14  1  0  0  0  0
 13  2  2  0  0  0  0
 14  3  2  0  0  0  0
 15  4  1  0  0  0  0
 16 17  1  1  0  0  0
 18 16  1  0  0  0  0
 19 20  1  0  0  0  0
 20 18  1  0  0  0  0
 20 21  2  0  0  0  0
 22 19  1  0  0  0  0
 23 22  1  0  0  0  0
 25 23  1  0  0  0  0
 25 24  1  0  0  0  0
 26 22  1  0  0  0  0
 27 26  1  0  0  0  0
 27 28  2  0  0  0  0
 29 34  1  0  0  0  0
 29 27  1  0  0  0  0
 30 34  2  0  0  0  0
 31 32  2  0  0  0  0
 31 33  1  0  0  0  0
 32 30  1  0  0  0  0
 33 29  2  0  0  0  0
 35 13  1  0  0  0  0
 36 37  2  0  0  0  0
 36 39  1  0  0  0  0
 37 41  1  0  0  0  0
 39 40  2  0  0  0  0
 40 38  1  0  0  0  0
 40 35  1  0  0  0  0
 41 38  2  0  0  0  0
 42 43  1  0  0  0  0
 42 37  1  0  0  0  0
M  END
>  <MODEL>
1

>  <REMARK>
 VINA RESULT:      -9.3      0.000      0.000
  Name = 
  12 active torsions:
  status: ('A' for Active; 'I' for Inactive)
    1  A    between atoms: O_1  and  C_34
    2  A    between atoms: O_1  and  C_35
    3  A    between atoms: C_2  and  C_6
    4  A    between atoms: C_2  and  C_13
    5  A    between atoms: N_3  and  N_4
    6  A    between atoms: N_4  and  C_15
    7  A    between atoms: N_4  and  C_22
    8  A    between atoms: C_6  and  C_12
    9  A    between atoms: C_11  and  C_14
   10  A    between atoms: C_14  and  C_22
   11  A    between atoms: C_15  and  C_42
   12  A    between atoms: C_19  and  O_25
                            x       y       z     vdW  Elec       q    Type
                         _______ _______ _______ _____ _____    ______ ____

>  <TORSDO>
F 12

$$$$
=
 OpenBabel10262422203D

 43 47  0  0  1  0  0  0  0  0999 V2000
  191.3390  176.4340  147.2160 C   0  0  0  0  0  0  0  0  0  0  0  0
  187.1820  177.8610  144.6880 C   0  0  0  0  0  0  0  0  0  0  0  0
  187.9160  178.0800  141.9850 C   0  0  0  0  0  0  0  0  0  0  0  0
  189.0910  177.1180  146.6180 C   0  0  0  0  0  0  0  0  0  0  0  0
  191.7200  176.4970  145.8740 C   0  0  0  0  0  3  0  0  0  0  0  0
  192.2440  176.0800  148.1590 F   0  0  0  0  0  0  0  0  0  0  0  0
  189.4670  177.1810  145.2540 C   0  0  0  0  0  0  0  0  0  0  0  0
  190.0280  176.7450  147.5870 C   0  0  0  0  0  3  0  0  0  0  0  0
  190.7910  176.8690  144.8990 C   0  0  0  0  0  3  0  0  0  0  0  0
  188.8570  177.6700  142.9320 C   0  0  0  0  0  3  0  0  0  0  0  0
  188.5110  177.5640  144.2860 C   0  0  0  0  0  0  0  0  0  0  0  0
  186.8440  177.8070  146.0450 C   0  0  0  0  0  3  0  0  0  0  0  0
  186.2250  178.2460  143.7200 C   0  0  0  0  0  0  0  0  0  0  0  0
  186.6080  178.3670  142.3810 C   0  0  0  0  0  3  0  0  0  0  0  0
  187.7880  177.4350  147.0010 C   0  0  0  0  0  3  0  0  0  0  0  0
  188.2860  178.1970  140.5440 C   0  0  2  0  0  3  0  0  0  0  0  0
  187.1490  178.4160  139.7870 F   0  0  0  0  0  0  0  0  0  0  0  0
  189.0110  176.9390  140.0780 C   0  0  0  0  0  2  0  0  0  0  0  0
  190.3560  177.2240  137.9140 N   0  0  0  0  0  2  0  0  0  0  0  0
  190.2750  177.2710  139.3490 C   0  0  0  0  0  0  0  0  0  0  0  0
  191.3000  177.5760  140.0090 O   0  0  0  0  0  0  0  0  0  0  0  0
  189.3030  176.8860  137.0370 N   0  0  0  0  0  0  0  0  0  0  0  0
  189.0160  178.0270  136.1770 C   0  0  0  0  0  2  0  0  0  0  0  0
  186.6750  177.6100  134.8100 S   0  0  0  0  0  1  0  0  0  0  0  0
  187.5360  178.3650  136.2200 C   0  0  0  0  0  2  0  0  0  0  0  0
  189.7190  175.7610  136.2060 C   0  0  0  0  0  2  0  0  0  0  0  0
  189.4210  174.4720  136.9030 C   0  0  0  0  0  0  0  0  0  0  0  0
  190.3200  173.9490  137.6150 O   0  0  0  0  0  0  0  0  0  0  0  0
  188.1100  173.8090  136.7540 C   0  0  0  0  0  0  0  0  0  0  0  0
  186.7980  171.8690  136.0950 C   0  0  0  0  0  3  0  0  0  0  0  0
  185.6910  173.8190  137.0080 C   0  0  0  0  0  3  0  0  0  0  0  0
  185.6280  172.5250  136.4860 C   0  0  0  0  0  3  0  0  0  0  0  0
  186.9270  174.4570  137.1430 C   0  0  0  0  0  3  0  0  0  0  0  0
  188.0350  172.5090  136.2280 C   0  0  0  0  0  3  0  0  0  0  0  0
  184.8970  178.5380  144.0580 O   0  0  0  0  0  0  0  0  0  0  0  0
  182.9390  178.2830  140.9010 C   0  0  0  0  0  3  0  0  0  0  0  0
  181.6640  178.6520  141.3570 C   0  0  0  0  0  0  0  0  0  0  0  0
  182.5650  178.9370  143.5930 C   0  0  0  0  0  3  0  0  0  0  0  0
  184.0190  178.2390  141.7880 C   0  0  0  0  0  3  0  0  0  0  0  0
  183.8350  178.5600  143.1440 C   0  0  0  0  0  0  0  0  0  0  0  0
  181.4860  178.9810  142.7060 C   0  0  0  0  0  3  0  0  0  0  0  0
  180.5630  178.7030  140.4970 O   0  0  0  0  0  0  0  0  0  0  0  0
  180.3650  177.7680  139.4460 C   0  0  0  0  0  1  0  0  0  0  0  0
  1  8  1  0  0  0  0
  1  6  1  0  0  0  0
  2 12  1  0  0  0  0
  3 14  2  0  0  0  0
  3 10  1  0  0  0  0
  4 15  1  0  0  0  0
  4  8  2  0  0  0  0
  5  1  2  0  0  0  0
  7  4  1  0  0  0  0
  9  7  2  0  0  0  0
  9  5  1  0  0  0  0
 10 11  2  0  0  0  0
 11  2  1  0  0  0  0
 11  7  1  0  0  0  0
 12 15  2  0  0  0  0
 13 35  1  0  0  0  0
 13  2  2  0  0  0  0
 14 13  1  0  0  0  0
 16 17  1  6  0  0  0
 16  3  1  0  0  0  0
 18 16  1  0  0  0  0
 19 20  1  0  0  0  0
 20 21  2  0  0  0  0
 20 18  1  0  0  0  0
 22 19  1  0  0  0  0
 23 25  1  0  0  0  0
 23 22  1  0  0  0  0
 24 25  1  0  0  0  0
 26 27  1  0  0  0  0
 26 22  1  0  0  0  0
 27 28  2  0  0  0  0
 29 27  1  0  0  0  0
 29 33  1  0  0  0  0
 30 34  1  0  0  0  0
 30 32  2  0  0  0  0
 31 33  2  0  0  0  0
 32 31  1  0  0  0  0
 34 29  2  0  0  0  0
 36 37  2  0  0  0  0
 36 39  1  0  0  0  0
 37 41  1  0  0  0  0
 39 40  2  0  0  0  0
 40 38  1  0  0  0  0
 40 35  1  0  0  0  0
 41 38  2  0  0  0  0
 42 37  1  0  0  0  0
 43 42  1  0  0  0  0
M  END
>  <MODEL>
2

>  <REMARK>
 VINA RESULT:      -9.2      4.300      7.738
  Name = 
  12 active torsions:
  status: ('A' for Active; 'I' for Inactive)
    1  A    between atoms: O_1  and  C_34
    2  A    between atoms: O_1  and  C_35
    3  A    between atoms: C_2  and  C_6
    4  A    between atoms: C_2  and  C_13
    5  A    between atoms: N_3  and  N_4
    6  A    between atoms: N_4  and  C_15
    7  A    between atoms: N_4  and  C_22
    8  A    between atoms: C_6  and  C_12
    9  A    between atoms: C_11  and  C_14
   10  A    between atoms: C_14  and  C_22
   11  A    between atoms: C_15  and  C_42
   12  A    between atoms: C_19  and  O_25
                            x       y       z     vdW  Elec       q    Type
                         _______ _______ _______ _____ _____    ______ ____

>  <TORSDO>
F 12

$$$$
=
 OpenBabel10262422203D

 43 47  0  0  1  0  0  0  0  0999 V2000
  191.3280  176.4120  147.2170 C   0  0  0  0  0  0  0  0  0  0  0  0
  187.1920  177.8810  144.6780 C   0  0  0  0  0  0  0  0  0  0  0  0
  187.9220  178.0410  141.9700 C   0  0  0  0  0  0  0  0  0  0  0  0
  189.0920  177.1310  146.6140 C   0  0  0  0  0  0  0  0  0  0  0  0
  191.7060  176.4460  145.8730 C   0  0  0  0  0  3  0  0  0  0  0  0
  192.2290  176.0560  148.1640 F   0  0  0  0  0  0  0  0  0  0  0  0
  189.4650  177.1640  145.2490 C   0  0  0  0  0  0  0  0  0  0  0  0
  190.0240  176.7550  147.5870 C   0  0  0  0  0  3  0  0  0  0  0  0
  190.7820  176.8200  144.8950 C   0  0  0  0  0  3  0  0  0  0  0  0
  188.8580  177.6280  142.9210 C   0  0  0  0  0  3  0  0  0  0  0  0
  188.5140  177.5500  144.2770 C   0  0  0  0  0  0  0  0  0  0  0  0
  186.8580  177.8540  146.0370 C   0  0  0  0  0  3  0  0  0  0  0  0
  186.2400  178.2690  143.7070 C   0  0  0  0  0  0  0  0  0  0  0  0
  186.6210  178.3600  142.3660 C   0  0  0  0  0  3  0  0  0  0  0  0
  187.7970  177.4800  146.9960 C   0  0  0  0  0  3  0  0  0  0  0  0
  188.2900  178.1270  140.5260 C   0  0  2  0  0  3  0  0  0  0  0  0
  187.1460  178.2700  139.7610 F   0  0  0  0  0  0  0  0  0  0  0  0
  189.0710  176.8890  140.1030 C   0  0  0  0  0  2  0  0  0  0  0  0
  190.7430  177.0970  138.1690 N   0  0  0  0  0  2  0  0  0  0  0  0
  190.4200  177.2480  139.5620 C   0  0  0  0  0  0  0  0  0  0  0  0
  191.3020  177.6720  140.3510 O   0  0  0  0  0  0  0  0  0  0  0  0
  189.8720  176.6220  137.1660 N   0  0  0  0  0  0  0  0  0  0  0  0
  189.3310  177.7580  136.4290 C   0  0  0  0  0  2  0  0  0  0  0  0
  186.6880  177.0590  136.6470 S   0  0  0  0  0  1  0  0  0  0  0  0
  188.1410  177.3280  135.5900 C   0  0  0  0  0  2  0  0  0  0  0  0
  190.6230  175.7760  136.2450 C   0  0  0  0  0  2  0  0  0  0  0  0
  190.9990  174.4950  136.9180 C   0  0  0  0  0  0  0  0  0  0  0  0
  190.0930  173.8170  137.4760 O   0  0  0  0  0  0  0  0  0  0  0  0
  192.4000  174.0310  136.9490 C   0  0  0  0  0  0  0  0  0  0  0  0
  194.0950  172.4130  136.2930 C   0  0  0  0  0  3  0  0  0  0  0  0
  194.7110  174.3200  137.6520 C   0  0  0  0  0  3  0  0  0  0  0  0
  195.0650  173.1480  136.9790 C   0  0  0  0  0  3  0  0  0  0  0  0
  193.3840  174.7600  137.6350 C   0  0  0  0  0  3  0  0  0  0  0  0
  192.7670  172.8530  136.2780 C   0  0  0  0  0  3  0  0  0  0  0  0
  184.9200  178.5920  144.0440 O   0  0  0  0  0  0  0  0  0  0  0  0
  182.9280  178.2240  140.9200 C   0  0  0  0  0  3  0  0  0  0  0  0
  181.6570  178.6050  141.3760 C   0  0  0  0  0  0  0  0  0  0  0  0
  182.5810  178.9690  143.5910 C   0  0  0  0  0  3  0  0  0  0  0  0
  184.0170  178.2130  141.7950 C   0  0  0  0  0  3  0  0  0  0  0  0
  183.8480  178.5800  143.1410 C   0  0  0  0  0  0  0  0  0  0  0  0
  181.4930  178.9800  142.7150 C   0  0  0  0  0  3  0  0  0  0  0  0
  180.5470  178.6230  140.5270 O   0  0  0  0  0  0  0  0  0  0  0  0
  180.0610  177.4600  139.8710 C   0  0  0  0  0  1  0  0  0  0  0  0
  1  8  1  0  0  0  0
  1  6  1  0  0  0  0
  2 12  1  0  0  0  0
  3 14  2  0  0  0  0
  3 10  1  0  0  0  0
  4 15  1  0  0  0  0
  4  8  2  0  0  0  0
  5  1  2  0  0  0  0
  7  4  1  0  0  0  0
  9  7  2  0  0  0  0
  9  5  1  0  0  0  0
 10 11  2  0  0  0  0
 11  2  1  0  0  0  0
 11  7  1  0  0  0  0
 12 15  2  0  0  0  0
 13 35  1  0  0  0  0
 13  2  2  0  0  0  0
 14 13  1  0  0  0  0
 16 17  1  6  0  0  0
 16  3  1  0  0  0  0
 18 16  1  0  0  0  0
 19 20  1  0  0  0  0
 20 18  1  0  0  0  0
 20 21  2  0  0  0  0
 22 19  1  0  0  0  0
 23 22  1  0  0  0  0
 25 23  1  0  0  0  0
 25 24  1  0  0  0  0
 26 27  1  0  0  0  0
 26 22  1  0  0  0  0
 27 29  1  0  0  0  0
 27 28  2  0  0  0  0
 29 33  1  0  0  0  0
 30 32  2  0  0  0  0
 32 31  1  0  0  0  0
 33 31  2  0  0  0  0
 34 30  1  0  0  0  0
 34 29  2  0  0  0  0
 36 37  2  0  0  0  0
 36 39  1  0  0  0  0
 37 41  1  0  0  0  0
 39 40  2  0  0  0  0
 40 38  1  0  0  0  0
 40 35  1  0  0  0  0
 41 38  2  0  0  0  0
 42 37  1  0  0  0  0
 43 42  1  0  0  0  0
M  END
>  <MODEL>
3

>  <REMARK>
 VINA RESULT:      -9.2      4.966      8.858
  Name = 
  12 active torsions:
  status: ('A' for Active; 'I' for Inactive)
    1  A    between atoms: O_1  and  C_34
    2  A    between atoms: O_1  and  C_35
    3  A    between atoms: C_2  and  C_6
    4  A    between atoms: C_2  and  C_13
    5  A    between atoms: N_3  and  N_4
    6  A    between atoms: N_4  and  C_15
    7  A    between atoms: N_4  and  C_22
    8  A    between atoms: C_6  and  C_12
    9  A    between atoms: C_11  and  C_14
   10  A    between atoms: C_14  and  C_22
   11  A    between atoms: C_15  and  C_42
   12  A    between atoms: C_19  and  O_25
                            x       y       z     vdW  Elec       q    Type
                         _______ _______ _______ _____ _____    ______ ____

>  <TORSDO>
F 12

$$$$
=
 OpenBabel10262422203D

 43 47  0  0  1  0  0  0  0  0999 V2000
  190.7790  176.7490  146.8200 C   0  0  0  0  0  0  0  0  0  0  0  0
  189.3860  177.8680  142.0750 C   0  0  0  0  0  0  0  0  0  0  0  0
  186.6160  178.3340  142.1350 C   0  0  0  0  0  0  0  0  0  0  0  0
  190.7560  177.1690  144.4320 C   0  0  0  0  0  0  0  0  0  0  0  0
  189.4100  177.0140  146.8850 C   0  0  0  0  0  3  0  0  0  0  0  0
  191.4550  176.4090  147.9440 F   0  0  0  0  0  0  0  0  0  0  0  0
  189.3680  177.4430  144.4890 C   0  0  0  0  0  0  0  0  0  0  0  0
  191.4510  176.8250  145.5960 C   0  0  0  0  0  3  0  0  0  0  0  0
  188.7080  177.3580  145.7270 C   0  0  0  0  0  3  0  0  0  0  0  0
  187.2980  178.0290  143.3160 C   0  0  0  0  0  3  0  0  0  0  0  0
  188.6780  177.7840  143.3030 C   0  0  0  0  0  0  0  0  0  0  0  0
  190.7550  177.5760  142.0480 C   0  0  0  0  0  3  0  0  0  0  0  0
  188.6960  178.2090  140.8890 C   0  0  0  0  0  0  0  0  0  0  0  0
  187.3150  178.4210  140.9300 C   0  0  0  0  0  3  0  0  0  0  0  0
  191.4340  177.2330  143.2150 C   0  0  0  0  0  3  0  0  0  0  0  0
  185.1460  178.5900  142.1490 C   0  0  2  0  0  3  0  0  0  0  0  0
  184.5800  177.9940  143.2620 F   0  0  0  0  0  0  0  0  0  0  0  0
  184.5030  178.0650  140.8710 C   0  0  0  0  0  2  0  0  0  0  0  0
  182.3840  179.2610  140.0600 N   0  0  0  0  0  2  0  0  0  0  0  0
  183.8170  179.1580  140.1120 C   0  0  0  0  0  0  0  0  0  0  0  0
  184.5130  179.9950  139.4830 O   0  0  0  0  0  0  0  0  0  0  0  0
  181.4700  178.3940  140.6950 N   0  0  0  0  0  0  0  0  0  0  0  0
  180.6340  179.1680  141.6040 C   0  0  0  0  0  2  0  0  0  0  0  0
  179.7510  178.6500  144.1490 S   0  0  0  0  0  1  0  0  0  0  0  0
  181.1330  179.0310  143.0320 C   0  0  0  0  0  2  0  0  0  0  0  0
  180.6210  177.7740  139.6840 C   0  0  0  0  0  2  0  0  0  0  0  0
  181.2260  176.4860  139.2260 C   0  0  0  0  0  0  0  0  0  0  0  0
  180.8590  175.4150  139.7820 O   0  0  0  0  0  0  0  0  0  0  0  0
  182.2450  176.4580  138.1580 C   0  0  0  0  0  0  0  0  0  0  0  0
  184.3470  175.6050  137.2790 C   0  0  0  0  0  3  0  0  0  0  0  0
  183.0530  177.1890  135.9830 C   0  0  0  0  0  3  0  0  0  0  0  0
  184.1800  176.3760  136.1260 C   0  0  0  0  0  3  0  0  0  0  0  0
  182.0890  177.2280  136.9950 C   0  0  0  0  0  3  0  0  0  0  0  0
  183.3830  175.6460  138.2920 C   0  0  0  0  0  3  0  0  0  0  0  0
  189.3460  178.3190  139.6530 O   0  0  0  0  0  0  0  0  0  0  0  0
  188.4490  175.8410  137.0220 C   0  0  0  0  0  3  0  0  0  0  0  0
  187.9420  176.6920  136.0270 C   0  0  0  0  0  0  0  0  0  0  0  0
  188.3790  178.6010  137.4620 C   0  0  0  0  0  3  0  0  0  0  0  0
  188.9160  176.3690  138.2300 C   0  0  0  0  0  3  0  0  0  0  0  0
  188.8760  177.7540  138.4590 C   0  0  0  0  0  0  0  0  0  0  0  0
  187.9140  178.0720  136.2550 C   0  0  0  0  0  3  0  0  0  0  0  0
  187.4650  176.1950  134.8110 O   0  0  0  0  0  0  0  0  0  0  0  0
  187.1990  174.8170  134.5940 C   0  0  0  0  0  1  0  0  0  0  0  0
  1  5  1  0  0  0  0
  1  6  1  0  0  0  0
  2 11  1  0  0  0  0
  3 16  1  0  0  0  0
  3 10  1  0  0  0  0
  4  7  2  0  0  0  0
  4  8  1  0  0  0  0
  7  9  1  0  0  0  0
  8  1  2  0  0  0  0
  9  5  2  0  0  0  0
 11 10  2  0  0  0  0
 11  7  1  0  0  0  0
 12  2  1  0  0  0  0
 12 15  2  0  0  0  0
 13 14  1  0  0  0  0
 13  2  2  0  0  0  0
 14  3  2  0  0  0  0
 15  4  1  0  0  0  0
 16 17  1  1  0  0  0
 18 16  1  0  0  0  0
 19 20  1  0  0  0  0
 19 22  1  0  0  0  0
 20 18  1  0  0  0  0
 21 20  2  0  0  0  0
 22 23  1  0  0  0  0
 23 25  1  0  0  0  0
 25 24  1  0  0  0  0
 26 22  1  0  0  0  0
 27 26  1  0  0  0  0
 27 28  2  0  0  0  0
 29 34  1  0  0  0  0
 29 27  1  0  0  0  0
 30 34  2  0  0  0  0
 31 32  2  0  0  0  0
 31 33  1  0  0  0  0
 32 30  1  0  0  0  0
 33 29  2  0  0  0  0
 35 13  1  0  0  0  0
 36 39  1  0  0  0  0
 37 41  1  0  0  0  0
 37 36  2  0  0  0  0
 38 40  1  0  0  0  0
 39 40  2  0  0  0  0
 40 35  1  0  0  0  0
 41 38  2  0  0  0  0
 42 37  1  0  0  0  0
 43 42  1  0  0  0  0
M  END
>  <MODEL>
4

>  <REMARK>
 VINA RESULT:      -9.1      3.092      4.308
  Name = 
  12 active torsions:
  status: ('A' for Active; 'I' for Inactive)
    1  A    between atoms: O_1  and  C_34
    2  A    between atoms: O_1  and  C_35
    3  A    between atoms: C_2  and  C_6
    4  A    between atoms: C_2  and  C_13
    5  A    between atoms: N_3  and  N_4
    6  A    between atoms: N_4  and  C_15
    7  A    between atoms: N_4  and  C_22
    8  A    between atoms: C_6  and  C_12
    9  A    between atoms: C_11  and  C_14
   10  A    between atoms: C_14  and  C_22
   11  A    between atoms: C_15  and  C_42
   12  A    between atoms: C_19  and  O_25
                            x       y       z     vdW  Elec       q    Type
                         _______ _______ _______ _____ _____    ______ ____

>  <TORSDO>
F 12

$$$$
=
 OpenBabel10262422203D

 43 47  0  0  1  0  0  0  0  0999 V2000
  193.6380  175.3920  136.1030 C   0  0  0  0  0  0  0  0  0  0  0  0
  190.3080  177.4280  139.3410 C   0  0  0  0  0  0  0  0  0  0  0  0
  187.8460  177.5530  137.9940 C   0  0  0  0  0  0  0  0  0  0  0  0
  192.5830  176.4010  138.0390 C   0  0  0  0  0  0  0  0  0  0  0  0
  192.4170  175.4070  135.4250 C   0  0  0  0  0  3  0  0  0  0  0  0
  194.7440  174.9040  135.4930 F   0  0  0  0  0  0  0  0  0  0  0  0
  191.3410  176.4160  137.3610 C   0  0  0  0  0  0  0  0  0  0  0  0
  193.7210  175.8900  137.4070 C   0  0  0  0  0  3  0  0  0  0  0  0
  191.2760  175.9160  136.0490 C   0  0  0  0  0  3  0  0  0  0  0  0
  188.9620  177.0030  137.3580 C   0  0  0  0  0  3  0  0  0  0  0  0
  190.2000  176.9410  138.0110 C   0  0  0  0  0  0  0  0  0  0  0  0
  191.5540  177.4150  139.9800 C   0  0  0  0  0  3  0  0  0  0  0  0
  189.1680  177.9540  139.9910 C   0  0  0  0  0  0  0  0  0  0  0  0
  187.9540  178.0260  139.3040 C   0  0  0  0  0  3  0  0  0  0  0  0
  192.6800  176.9040  139.3370 C   0  0  0  0  0  3  0  0  0  0  0  0
  186.5280  177.6220  137.2970 C   0  0  2  0  0  3  0  0  0  0  0  0
  186.6590  178.3500  136.1270 F   0  0  0  0  0  0  0  0  0  0  0  0
  185.4770  178.2460  138.2070 C   0  0  0  0  0  2  0  0  0  0  0  0
  183.3150  177.5470  139.3960 N   0  0  0  0  0  2  0  0  0  0  0  0
  184.2730  177.3660  138.3400 C   0  0  0  0  0  0  0  0  0  0  0  0
  184.1080  176.4280  137.5190 O   0  0  0  0  0  0  0  0  0  0  0  0
  183.3690  178.5380  140.3990 N   0  0  0  0  0  0  0  0  0  0  0  0
  182.0350  179.0980  140.5860 C   0  0  0  0  0  2  0  0  0  0  0  0
  179.7800  178.0240  141.7190 S   0  0  0  0  0  1  0  0  0  0  0  0
  181.4650  178.6720  141.9280 C   0  0  0  0  0  2  0  0  0  0  0  0
  183.8030  177.9260  141.6500 C   0  0  0  0  0  2  0  0  0  0  0  0
  184.9350  178.7080  142.2360 C   0  0  0  0  0  0  0  0  0  0  0  0
  185.5140  179.5650  141.5150 O   0  0  0  0  0  0  0  0  0  0  0  0
  185.3840  178.4780  143.6240 C   0  0  0  0  0  0  0  0  0  0  0  0
  184.9820  178.6370  146.0180 C   0  0  0  0  0  3  0  0  0  0  0  0
  187.0340  177.6420  145.2040 C   0  0  0  0  0  3  0  0  0  0  0  0
  186.2140  178.0260  146.2670 C   0  0  0  0  0  3  0  0  0  0  0  0
  186.6190  177.8660  143.8880 C   0  0  0  0  0  3  0  0  0  0  0  0
  184.5690  178.8620  144.7010 C   0  0  0  0  0  3  0  0  0  0  0  0
  189.2150  178.4350  141.3060 O   0  0  0  0  0  0  0  0  0  0  0  0
  190.5080  175.7940  143.5900 C   0  0  0  0  0  3  0  0  0  0  0  0
  191.2210  176.5760  144.5120 C   0  0  0  0  0  0  0  0  0  0  0  0
  190.5860  178.5710  143.2850 C   0  0  0  0  0  3  0  0  0  0  0  0
  189.8400  176.3990  142.5210 C   0  0  0  0  0  3  0  0  0  0  0  0
  189.8820  177.7940  142.3590 C   0  0  0  0  0  0  0  0  0  0  0  0
  191.2520  177.9650  144.3540 C   0  0  0  0  0  3  0  0  0  0  0  0
  191.9020  176.0010  145.5890 O   0  0  0  0  0  0  0  0  0  0  0  0
  191.6580  176.3710  146.9390 C   0  0  0  0  0  1  0  0  0  0  0  0
  1  8  1  0  0  0  0
  2 12  1  0  0  0  0
  2 13  1  0  0  0  0
  3 14  1  0  0  0  0
  4 15  1  0  0  0  0
  5  9  1  0  0  0  0
  5  1  2  0  0  0  0
  6  1  1  0  0  0  0
  7 11  1  0  0  0  0
  7  4  1  0  0  0  0
  8  4  2  0  0  0  0
  9  7  2  0  0  0  0
 10  3  2  0  0  0  0
 10 11  1  0  0  0  0
 11  2  2  0  0  0  0
 13 35  1  0  0  0  0
 14 13  2  0  0  0  0
 15 12  2  0  0  0  0
 16 17  1  6  0  0  0
 16  3  1  0  0  0  0
 16 18  1  0  0  0  0
 18 20  1  0  0  0  0
 19 22  1  0  0  0  0
 20 19  1  0  0  0  0
 21 20  2  0  0  0  0
 22 23  1  0  0  0  0
 22 26  1  0  0  0  0
 23 25  1  0  0  0  0
 24 25  1  0  0  0  0
 26 27  1  0  0  0  0
 27 29  1  0  0  0  0
 28 27  2  0  0  0  0
 29 33  2  0  0  0  0
 29 34  1  0  0  0  0
 30 32  1  0  0  0  0
 31 32  2  0  0  0  0
 33 31  1  0  0  0  0
 34 30  2  0  0  0  0
 35 40  1  0  0  0  0
 36 37  1  0  0  0  0
 37 42  1  0  0  0  0
 38 41  1  0  0  0  0
 39 36  2  0  0  0  0
 40 39  1  0  0  0  0
 40 38  2  0  0  0  0
 41 37  2  0  0  0  0
 42 43  1  0  0  0  0
M  END
>  <MODEL>
5

>  <REMARK>
 VINA RESULT:      -9.1      4.357      8.453
  Name = 
  12 active torsions:
  status: ('A' for Active; 'I' for Inactive)
    1  A    between atoms: O_1  and  C_34
    2  A    between atoms: O_1  and  C_35
    3  A    between atoms: C_2  and  C_6
    4  A    between atoms: C_2  and  C_13
    5  A    between atoms: N_3  and  N_4
    6  A    between atoms: N_4  and  C_15
    7  A    between atoms: N_4  and  C_22
    8  A    between atoms: C_6  and  C_12
    9  A    between atoms: C_11  and  C_14
   10  A    between atoms: C_14  and  C_22
   11  A    between atoms: C_15  and  C_42
   12  A    between atoms: C_19  and  O_25
                            x       y       z     vdW  Elec       q    Type
                         _______ _______ _______ _____ _____    ______ ____

>  <TORSDO>
F 12

$$$$
=
 OpenBabel10262422203D

 43 47  0  0  1  0  0  0  0  0999 V2000
  184.9800  178.5920  145.4910 C   0  0  0  0  0  0  0  0  0  0  0  0
  182.8750  178.8310  140.8850 C   0  0  0  0  0  0  0  0  0  0  0  0
  184.9650  178.5640  139.0270 C   0  0  0  0  0  0  0  0  0  0  0  0
  183.4220  178.8020  143.6460 C   0  0  0  0  0  0  0  0  0  0  0  0
  186.0320  178.4180  144.5900 C   0  0  0  0  0  3  0  0  0  0  0  0
  185.2240  178.5830  146.8240 F   0  0  0  0  0  0  0  0  0  0  0  0
  184.4810  178.6220  142.7240 C   0  0  0  0  0  0  0  0  0  0  0  0
  183.6780  178.7850  145.0210 C   0  0  0  0  0  3  0  0  0  0  0  0
  185.7850  178.4330  143.2150 C   0  0  0  0  0  3  0  0  0  0  0  0
  185.2370  178.5060  140.3960 C   0  0  0  0  0  3  0  0  0  0  0  0
  184.2090  178.6470  141.3370 C   0  0  0  0  0  0  0  0  0  0  0  0
  181.8510  179.0230  141.8200 C   0  0  0  0  0  3  0  0  0  0  0  0
  182.6010  178.8570  139.4980 C   0  0  0  0  0  0  0  0  0  0  0  0
  183.6520  178.7400  138.5850 C   0  0  0  0  0  3  0  0  0  0  0  0
  182.1200  179.0050  143.1870 C   0  0  0  0  0  3  0  0  0  0  0  0
  186.0620  178.4190  138.0250 C   0  0  2  0  0  3  0  0  0  0  0  0
  185.6220  177.6530  136.9610 F   0  0  0  0  0  0  0  0  0  0  0  0
  187.2910  177.7890  138.6720 C   0  0  0  0  0  2  0  0  0  0  0  0
  189.8470  177.9910  138.6280 N   0  0  0  0  0  2  0  0  0  0  0  0
  188.5500  178.4740  138.2400 C   0  0  0  0  0  0  0  0  0  0  0  0
  188.4710  179.5140  137.5380 O   0  0  0  0  0  0  0  0  0  0  0  0
  190.1000  176.8530  139.4230 N   0  0  0  0  0  0  0  0  0  0  0  0
  191.0640  175.9990  138.7370 C   0  0  0  0  0  2  0  0  0  0  0  0
  193.5470  175.7150  137.6080 S   0  0  0  0  0  1  0  0  0  0  0  0
  192.4060  176.7010  138.6220 C   0  0  0  0  0  2  0  0  0  0  0  0
  190.6700  177.2790  140.6960 C   0  0  0  0  0  2  0  0  0  0  0  0
  189.6350  177.2000  141.7720 C   0  0  0  0  0  0  0  0  0  0  0  0
  188.4240  177.0780  141.4380 O   0  0  0  0  0  0  0  0  0  0  0  0
  190.0070  177.2800  143.1980 C   0  0  0  0  0  0  0  0  0  0  0  0
  191.6810  177.6940  144.9150 C   0  0  0  0  0  3  0  0  0  0  0  0
  189.4140  177.1310  145.5530 C   0  0  0  0  0  3  0  0  0  0  0  0
  190.7250  177.4570  145.9060 C   0  0  0  0  0  3  0  0  0  0  0  0
  189.0570  177.0440  144.2040 C   0  0  0  0  0  3  0  0  0  0  0  0
  191.3230  177.6060  143.5660 C   0  0  0  0  0  3  0  0  0  0  0  0
  181.3030  179.0220  138.9960 O   0  0  0  0  0  0  0  0  0  0  0  0
  179.3960  181.2640  136.7170 C   0  0  0  0  0  3  0  0  0  0  0  0
  180.0350  182.4890  136.9640 C   0  0  0  0  0  0  0  0  0  0  0  0
  181.5000  181.3840  138.5530 C   0  0  0  0  0  3  0  0  0  0  0  0
  179.8060  180.1080  137.3860 C   0  0  0  0  0  3  0  0  0  0  0  0
  180.8580  180.1630  138.3160 C   0  0  0  0  0  0  0  0  0  0  0  0
  181.0890  182.5400  137.8820 C   0  0  0  0  0  3  0  0  0  0  0  0
  179.6460  183.6640  136.3140 O   0  0  0  0  0  0  0  0  0  0  0  0
  180.5730  184.6600  135.9060 C   0  0  0  0  0  1  0  0  0  0  0  0
  1  6  1  0  0  0  0
  2 11  1  0  0  0  0
  2 12  1  0  0  0  0
  3 10  1  0  0  0  0
  4  8  2  0  0  0  0
  5  1  2  0  0  0  0
  7  9  2  0  0  0  0
  7  4  1  0  0  0  0
  8  1  1  0  0  0  0
  9  5  1  0  0  0  0
 10 11  2  0  0  0  0
 11  7  1  0  0  0  0
 12 15  2  0  0  0  0
 13  2  2  0  0  0  0
 14  3  2  0  0  0  0
 14 13  1  0  0  0  0
 15  4  1  0  0  0  0
 16 17  1  6  0  0  0
 16 18  1  0  0  0  0
 16  3  1  0  0  0  0
 19 22  1  0  0  0  0
 20 19  1  0  0  0  0
 20 18  1  0  0  0  0
 21 20  2  0  0  0  0
 22 26  1  0  0  0  0
 23 22  1  0  0  0  0
 24 25  1  0  0  0  0
 25 23  1  0  0  0  0
 26 27  1  0  0  0  0
 27 29  1  0  0  0  0
 28 27  2  0  0  0  0
 29 34  2  0  0  0  0
 29 33  1  0  0  0  0
 30 32  2  0  0  0  0
 31 32  1  0  0  0  0
 33 31  2  0  0  0  0
 34 30  1  0  0  0  0
 35 13  1  0  0  0  0
 36 37  2  0  0  0  0
 36 39  1  0  0  0  0
 37 41  1  0  0  0  0
 39 40  2  0  0  0  0
 40 38  1  0  0  0  0
 40 35  1  0  0  0  0
 41 38  2  0  0  0  0
 42 37  1  0  0  0  0
 43 42  1  0  0  0  0
M  END
>  <MODEL>
6

>  <REMARK>
 VINA RESULT:      -9.0      3.962      8.749
  Name = 
  12 active torsions:
  status: ('A' for Active; 'I' for Inactive)
    1  A    between atoms: O_1  and  C_34
    2  A    between atoms: O_1  and  C_35
    3  A    between atoms: C_2  and  C_6
    4  A    between atoms: C_2  and  C_13
    5  A    between atoms: N_3  and  N_4
    6  A    between atoms: N_4  and  C_15
    7  A    between atoms: N_4  and  C_22
    8  A    between atoms: C_6  and  C_12
    9  A    between atoms: C_11  and  C_14
   10  A    between atoms: C_14  and  C_22
   11  A    between atoms: C_15  and  C_42
   12  A    between atoms: C_19  and  O_25
                            x       y       z     vdW  Elec       q    Type
                         _______ _______ _______ _____ _____    ______ ____

>  <TORSDO>
F 12

$$$$
=
 OpenBabel10262422203D

 43 47  0  0  1  0  0  0  0  0999 V2000
  187.9320  177.4020  147.2560 C   0  0  0  0  0  0  0  0  0  0  0  0
  185.6870  178.4950  142.8430 C   0  0  0  0  0  0  0  0  0  0  0  0
  187.6700  178.3150  140.8610 C   0  0  0  0  0  0  0  0  0  0  0  0
  186.3330  178.0170  145.5400 C   0  0  0  0  0  0  0  0  0  0  0  0
  188.9270  177.2670  146.2860 C   0  0  0  0  0  3  0  0  0  0  0  0
  188.2240  177.1780  148.5600 F   0  0  0  0  0  0  0  0  0  0  0  0
  187.3340  177.8790  144.5500 C   0  0  0  0  0  0  0  0  0  0  0  0
  186.6380  177.7780  146.8840 C   0  0  0  0  0  3  0  0  0  0  0  0
  188.6320  177.5040  144.9410 C   0  0  0  0  0  3  0  0  0  0  0  0
  187.9870  178.0350  142.1930 C   0  0  0  0  0  3  0  0  0  0  0  0
  187.0130  178.1290  143.1960 C   0  0  0  0  0  0  0  0  0  0  0  0
  184.7220  178.6400  143.8470 C   0  0  0  0  0  3  0  0  0  0  0  0
  185.3650  178.7470  141.4890 C   0  0  0  0  0  0  0  0  0  0  0  0
  186.3650  178.6700  140.5160 C   0  0  0  0  0  3  0  0  0  0  0  0
  185.0400  178.4000  145.1820 C   0  0  0  0  0  3  0  0  0  0  0  0
  188.7090  178.2180  139.7940 C   0  0  2  0  0  3  0  0  0  0  0  0
  188.1400  178.4880  138.5630 F   0  0  0  0  0  0  0  0  0  0  0  0
  189.3510  176.8350  139.8010 C   0  0  0  0  0  2  0  0  0  0  0  0
  191.6350  176.6580  138.6480 N   0  0  0  0  0  2  0  0  0  0  0  0
  190.8450  176.9230  139.8200 C   0  0  0  0  0  0  0  0  0  0  0  0
  191.4270  177.2130  140.8960 O   0  0  0  0  0  0  0  0  0  0  0  0
  191.1340  176.3060  137.3770 N   0  0  0  0  0  0  0  0  0  0  0  0
  192.2530  176.0240  136.4860 C   0  0  0  0  0  2  0  0  0  0  0  0
  194.5970  174.8810  137.3380 S   0  0  0  0  0  1  0  0  0  0  0  0
  193.5690  176.3690  137.1620 C   0  0  0  0  0  2  0  0  0  0  0  0
  190.3170  175.1040  137.5040 C   0  0  0  0  0  2  0  0  0  0  0  0
  189.3340  175.0320  136.3800 C   0  0  0  0  0  0  0  0  0  0  0  0
  189.5590  174.2300  135.4320 O   0  0  0  0  0  0  0  0  0  0  0  0
  188.1310  175.8880  136.3600 C   0  0  0  0  0  0  0  0  0  0  0  0
  185.8990  176.3980  137.1830 C   0  0  0  0  0  3  0  0  0  0  0  0
  186.9280  177.8290  135.5230 C   0  0  0  0  0  3  0  0  0  0  0  0
  185.8470  177.5190  136.3510 C   0  0  0  0  0  3  0  0  0  0  0  0
  188.0660  177.0180  135.5290 C   0  0  0  0  0  3  0  0  0  0  0  0
  187.0380  175.5850  137.1870 C   0  0  0  0  0  3  0  0  0  0  0  0
  184.0710  179.0980  141.0830 O   0  0  0  0  0  0  0  0  0  0  0  0
  182.4130  176.2080  139.4220 C   0  0  0  0  0  3  0  0  0  0  0  0
  181.0860  176.3940  139.8410 C   0  0  0  0  0  0  0  0  0  0  0  0
  181.7720  178.3700  141.0730 C   0  0  0  0  0  3  0  0  0  0  0  0
  183.4120  177.0970  139.8290 C   0  0  0  0  0  3  0  0  0  0  0  0
  183.0970  178.1810  140.6650 C   0  0  0  0  0  0  0  0  0  0  0  0
  180.7740  177.4810  140.6650 C   0  0  0  0  0  3  0  0  0  0  0  0
  180.0650  175.5220  139.4550 O   0  0  0  0  0  0  0  0  0  0  0  0
  179.6180  174.4500  140.2730 C   0  0  0  0  0  1  0  0  0  0  0  0
  1  6  1  0  0  0  0
  2 11  1  0  0  0  0
  2 12  1  0  0  0  0
  3 10  1  0  0  0  0
  4  8  2  0  0  0  0
  5  1  2  0  0  0  0
  7  9  2  0  0  0  0
  7  4  1  0  0  0  0
  8  1  1  0  0  0  0
  9  5  1  0  0  0  0
 10 11  2  0  0  0  0
 11  7  1  0  0  0  0
 12 15  2  0  0  0  0
 13  2  2  0  0  0  0
 14  3  2  0  0  0  0
 14 13  1  0  0  0  0
 15  4  1  0  0  0  0
 16 17  1  6  0  0  0
 16 18  1  0  0  0  0
 16  3  1  0  0  0  0
 18 20  1  0  0  0  0
 19 20  1  0  0  0  0
 20 21  2  0  0  0  0
 22 26  1  0  0  0  0
 22 19  1  0  0  0  0
 23 25  1  0  0  0  0
 23 22  1  0  0  0  0
 25 24  1  0  0  0  0
 27 26  1  0  0  0  0
 28 27  2  0  0  0  0
 29 27  1  0  0  0  0
 29 34  1  0  0  0  0
 30 34  2  0  0  0  0
 31 33  1  0  0  0  0
 31 32  2  0  0  0  0
 32 30  1  0  0  0  0
 33 29  2  0  0  0  0
 35 13  1  0  0  0  0
 36 39  2  0  0  0  0
 36 37  1  0  0  0  0
 37 41  2  0  0  0  0
 39 40  1  0  0  0  0
 40 38  2  0  0  0  0
 40 35  1  0  0  0  0
 41 38  1  0  0  0  0
 42 37  1  0  0  0  0
 42 43  1  0  0  0  0
M  END
>  <MODEL>
7

>  <REMARK>
 VINA RESULT:      -9.0      4.978      7.653
  Name = 
  12 active torsions:
  status: ('A' for Active; 'I' for Inactive)
    1  A    between atoms: O_1  and  C_34
    2  A    between atoms: O_1  and  C_35
    3  A    between atoms: C_2  and  C_6
    4  A    between atoms: C_2  and  C_13
    5  A    between atoms: N_3  and  N_4
    6  A    between atoms: N_4  and  C_15
    7  A    between atoms: N_4  and  C_22
    8  A    between atoms: C_6  and  C_12
    9  A    between atoms: C_11  and  C_14
   10  A    between atoms: C_14  and  C_22
   11  A    between atoms: C_15  and  C_42
   12  A    between atoms: C_19  and  O_25
                            x       y       z     vdW  Elec       q    Type
                         _______ _______ _______ _____ _____    ______ ____

>  <TORSDO>
F 12

$$$$
=
 OpenBabel10262422203D

 43 47  0  0  1  0  0  0  0  0999 V2000
  188.5690  177.3410  146.8860 C   0  0  0  0  0  0  0  0  0  0  0  0
  185.6840  178.5980  142.9110 C   0  0  0  0  0  0  0  0  0  0  0  0
  187.2640  178.2290  140.6180 C   0  0  0  0  0  0  0  0  0  0  0  0
  186.7510  178.0830  145.4640 C   0  0  0  0  0  0  0  0  0  0  0  0
  189.3620  177.1110  145.7610 C   0  0  0  0  0  3  0  0  0  0  0  0
  189.0660  177.1000  148.1240 F   0  0  0  0  0  0  0  0  0  0  0  0
  187.5470  177.8490  144.3170 C   0  0  0  0  0  0  0  0  0  0  0  0
  187.2670  177.8270  146.7390 C   0  0  0  0  0  3  0  0  0  0  0  0
  188.8560  177.3640  144.4840 C   0  0  0  0  0  3  0  0  0  0  0  0
  187.7850  177.9310  141.8790 C   0  0  0  0  0  3  0  0  0  0  0  0
  187.0150  178.1180  143.0350 C   0  0  0  0  0  0  0  0  0  0  0  0
  184.9270  178.8350  144.0650 C   0  0  0  0  0  3  0  0  0  0  0  0
  185.1510  178.8680  141.6290 C   0  0  0  0  0  0  0  0  0  0  0  0
  185.9540  178.6960  140.4980 C   0  0  0  0  0  3  0  0  0  0  0  0
  185.4540  178.5770  145.3290 C   0  0  0  0  0  3  0  0  0  0  0  0
  188.0870  178.0330  139.3880 C   0  0  2  0  0  3  0  0  0  0  0  0
  188.9530  179.1000  139.2330 F   0  0  0  0  0  0  0  0  0  0  0  0
  187.1880  177.8850  138.1660 C   0  0  0  0  0  2  0  0  0  0  0  0
  188.5390  177.7260  135.9920 N   0  0  0  0  0  2  0  0  0  0  0  0
  187.8060  178.5060  136.9520 C   0  0  0  0  0  0  0  0  0  0  0  0
  187.7010  179.7460  136.7790 O   0  0  0  0  0  0  0  0  0  0  0  0
  188.7590  176.3330  136.0530 N   0  0  0  0  0  0  0  0  0  0  0  0
  188.2470  175.7180  134.8340 C   0  0  0  0  0  2  0  0  0  0  0  0
  186.6690  174.5140  136.7280 S   0  0  0  0  0  1  0  0  0  0  0  0
  187.5670  174.3980  135.1520 C   0  0  0  0  0  2  0  0  0  0  0  0
  190.1920  176.0810  136.1430 C   0  0  0  0  0  2  0  0  0  0  0  0
  190.5140  175.4120  137.4410 C   0  0  0  0  0  0  0  0  0  0  0  0
  190.1600  174.2130  137.6060 O   0  0  0  0  0  0  0  0  0  0  0  0
  191.2160  176.1350  138.5190 C   0  0  0  0  0  0  0  0  0  0  0  0
  191.2250  177.0690  140.7660 C   0  0  0  0  0  3  0  0  0  0  0  0
  193.2060  177.2370  139.3830 C   0  0  0  0  0  3  0  0  0  0  0  0
  192.5460  177.4880  140.5880 C   0  0  0  0  0  3  0  0  0  0  0  0
  192.5440  176.5620  138.3540 C   0  0  0  0  0  3  0  0  0  0  0  0
  190.5620  176.3950  139.7350 C   0  0  0  0  0  3  0  0  0  0  0  0
  183.8410  179.3300  141.4480 O   0  0  0  0  0  0  0  0  0  0  0  0
  180.4190  177.8760  141.2460 C   0  0  0  0  0  3  0  0  0  0  0  0
  180.6370  176.8260  140.3400 C   0  0  0  0  0  0  0  0  0  0  0  0
  182.9750  177.4620  140.1920 C   0  0  0  0  0  3  0  0  0  0  0  0
  181.4740  178.7140  141.6190 C   0  0  0  0  0  3  0  0  0  0  0  0
  182.7590  178.5160  141.0870 C   0  0  0  0  0  0  0  0  0  0  0  0
  181.9200  176.6240  139.8200 C   0  0  0  0  0  3  0  0  0  0  0  0
  179.6040  175.9720  139.9440 O   0  0  0  0  0  0  0  0  0  0  0  0
  179.8390  174.6850  139.3890 C   0  0  0  0  0  1  0  0  0  0  0  0
  1  6  1  0  0  0  0
  2 11  1  0  0  0  0
  2 12  1  0  0  0  0
  3 10  1  0  0  0  0
  4  8  2  0  0  0  0
  5  1  2  0  0  0  0
  7  9  2  0  0  0  0
  7  4  1  0  0  0  0
  8  1  1  0  0  0  0
  9  5  1  0  0  0  0
 10 11  2  0  0  0  0
 11  7  1  0  0  0  0
 12 15  2  0  0  0  0
 13  2  2  0  0  0  0
 14  3  2  0  0  0  0
 14 13  1  0  0  0  0
 15  4  1  0  0  0  0
 16 17  1  6  0  0  0
 16  3  1  0  0  0  0
 18 16  1  0  0  0  0
 19 22  1  0  0  0  0
 19 20  1  0  0  0  0
 20 18  1  0  0  0  0
 21 20  2  0  0  0  0
 22 26  1  0  0  0  0
 23 25  1  0  0  0  0
 23 22  1  0  0  0  0
 25 24  1  0  0  0  0
 26 27  1  0  0  0  0
 27 28  2  0  0  0  0
 27 29  1  0  0  0  0
 29 34  1  0  0  0  0
 31 32  2  0  0  0  0
 32 30  1  0  0  0  0
 33 29  2  0  0  0  0
 33 31  1  0  0  0  0
 34 30  2  0  0  0  0
 35 13  1  0  0  0  0
 36 39  1  0  0  0  0
 37 36  2  0  0  0  0
 38 40  1  0  0  0  0
 40 35  1  0  0  0  0
 40 39  2  0  0  0  0
 41 38  2  0  0  0  0
 41 37  1  0  0  0  0
 42 37  1  0  0  0  0
 43 42  1  0  0  0  0
M  END
>  <MODEL>
8

>  <REMARK>
 VINA RESULT:      -9.0      4.388      7.724
  Name = 
  12 active torsions:
  status: ('A' for Active; 'I' for Inactive)
    1  A    between atoms: O_1  and  C_34
    2  A    between atoms: O_1  and  C_35
    3  A    between atoms: C_2  and  C_6
    4  A    between atoms: C_2  and  C_13
    5  A    between atoms: N_3  and  N_4
    6  A    between atoms: N_4  and  C_15
    7  A    between atoms: N_4  and  C_22
    8  A    between atoms: C_6  and  C_12
    9  A    between atoms: C_11  and  C_14
   10  A    between atoms: C_14  and  C_22
   11  A    between atoms: C_15  and  C_42
   12  A    between atoms: C_19  and  O_25
                            x       y       z     vdW  Elec       q    Type
                         _______ _______ _______ _____ _____    ______ ____

>  <TORSDO>
F 12

$$$$
=
 OpenBabel10262422203D

 43 47  0  0  1  0  0  0  0  0999 V2000
  191.0270  176.5470  147.0410 C   0  0  0  0  0  0  0  0  0  0  0  0
  189.0870  177.9870  142.5830 C   0  0  0  0  0  0  0  0  0  0  0  0
  186.3320  178.3590  142.9840 C   0  0  0  0  0  0  0  0  0  0  0  0
  190.7280  177.1500  144.7120 C   0  0  0  0  0  0  0  0  0  0  0  0
  189.6680  176.7630  147.2760 C   0  0  0  0  0  3  0  0  0  0  0  0
  191.8320  176.1420  148.0520 F   0  0  0  0  0  0  0  0  0  0  0  0
  189.3490  177.3750  144.9420 C   0  0  0  0  0  0  0  0  0  0  0  0
  191.5560  176.7390  145.7610 C   0  0  0  0  0  3  0  0  0  0  0  0
  188.8330  177.1730  146.2340 C   0  0  0  0  0  3  0  0  0  0  0  0
  187.1480  177.9850  144.0540 C   0  0  0  0  0  3  0  0  0  0  0  0
  188.5230  177.7860  143.8710 C   0  0  0  0  0  0  0  0  0  0  0  0
  190.4510  177.7410  142.3820 C   0  0  0  0  0  3  0  0  0  0  0  0
  188.2610  178.3970  141.5110 C   0  0  0  0  0  0  0  0  0  0  0  0
  186.8900  178.5620  141.7200 C   0  0  0  0  0  3  0  0  0  0  0  0
  191.2640  177.3290  143.4370 C   0  0  0  0  0  3  0  0  0  0  0  0
  184.8670  178.5670  143.1800 C   0  0  2  0  0  3  0  0  0  0  0  0
  184.4450  177.8770  144.3020 F   0  0  0  0  0  0  0  0  0  0  0  0
  184.0960  178.1140  141.9450 C   0  0  0  0  0  2  0  0  0  0  0  0
  181.8070  178.4420  140.8360 N   0  0  0  0  0  2  0  0  0  0  0  0
  182.6910  178.6280  141.9550 C   0  0  0  0  0  0  0  0  0  0  0  0
  182.2790  179.2620  142.9600 O   0  0  0  0  0  0  0  0  0  0  0  0
  182.1240  177.7700  139.6370 N   0  0  0  0  0  0  0  0  0  0  0  0
  180.9110  177.1710  139.0920 C   0  0  0  0  0  2  0  0  0  0  0  0
  180.5920  174.5420  138.3780 S   0  0  0  0  0  1  0  0  0  0  0  0
  180.6850  175.7940  139.6920 C   0  0  0  0  0  2  0  0  0  0  0  0
  182.6460  178.7350  138.6750 C   0  0  0  0  0  2  0  0  0  0  0  0
  184.0490  178.3780  138.3020 C   0  0  0  0  0  0  0  0  0  0  0  0
  184.9890  179.1080  138.7200 O   0  0  0  0  0  0  0  0  0  0  0  0
  184.3390  177.2080  137.4500 C   0  0  0  0  0  0  0  0  0  0  0  0
  184.4670  174.7950  137.1640 C   0  0  0  0  0  3  0  0  0  0  0  0
  185.0020  176.2590  135.3100 C   0  0  0  0  0  3  0  0  0  0  0  0
  184.8640  174.9720  135.8360 C   0  0  0  0  0  3  0  0  0  0  0  0
  184.7380  177.3720  136.1140 C   0  0  0  0  0  3  0  0  0  0  0  0
  184.2060  175.9090  137.9680 C   0  0  0  0  0  3  0  0  0  0  0  0
  188.7670  178.6230  140.2240 O   0  0  0  0  0  0  0  0  0  0  0  0
  188.1020  176.2220  137.4570 C   0  0  0  0  0  3  0  0  0  0  0  0
  189.3520  175.5910  137.3550 C   0  0  0  0  0  0  0  0  0  0  0  0
  190.1830  176.9870  139.1590 C   0  0  0  0  0  3  0  0  0  0  0  0
  187.8970  177.2300  138.4030 C   0  0  0  0  0  3  0  0  0  0  0  0
  188.9410  177.6240  139.2560 C   0  0  0  0  0  0  0  0  0  0  0  0
  190.3870  175.9780  138.2140 C   0  0  0  0  0  3  0  0  0  0  0  0
  189.5910  174.5820  136.4180 O   0  0  0  0  0  0  0  0  0  0  0  0
  190.7650  173.7830  136.4300 C   0  0  0  0  0  1  0  0  0  0  0  0
  1  5  1  0  0  0  0
  1  6  1  0  0  0  0
  2 11  1  0  0  0  0
  3 16  1  0  0  0  0
  3 10  1  0  0  0  0
  4  7  2  0  0  0  0
  4  8  1  0  0  0  0
  7  9  1  0  0  0  0
  8  1  2  0  0  0  0
  9  5  2  0  0  0  0
 11 10  2  0  0  0  0
 11  7  1  0  0  0  0
 12  2  1  0  0  0  0
 12 15  2  0  0  0  0
 13 14  1  0  0  0  0
 13  2  2  0  0  0  0
 14  3  2  0  0  0  0
 15  4  1  0  0  0  0
 16 17  1  1  0  0  0
 18 20  1  0  0  0  0
 18 16  1  0  0  0  0
 19 20  1  0  0  0  0
 20 21  2  0  0  0  0
 22 19  1  0  0  0  0
 23 22  1  0  0  0  0
 23 25  1  0  0  0  0
 24 25  1  0  0  0  0
 26 22  1  0  0  0  0
 27 26  1  0  0  0  0
 27 28  2  0  0  0  0
 29 34  1  0  0  0  0
 29 27  1  0  0  0  0
 30 34  2  0  0  0  0
 31 32  2  0  0  0  0
 31 33  1  0  0  0  0
 32 30  1  0  0  0  0
 33 29  2  0  0  0  0
 35 13  1  0  0  0  0
 36 39  1  0  0  0  0
 37 36  2  0  0  0  0
 37 41  1  0  0  0  0
 38 40  1  0  0  0  0
 39 40  2  0  0  0  0
 40 35  1  0  0  0  0
 41 38  2  0  0  0  0
 42 43  1  0  0  0  0
 42 37  1  0  0  0  0
M  END
>  <MODEL>
9

>  <REMARK>
 VINA RESULT:      -8.9      2.775      4.549
  Name = 
  12 active torsions:
  status: ('A' for Active; 'I' for Inactive)
    1  A    between atoms: O_1  and  C_34
    2  A    between atoms: O_1  and  C_35
    3  A    between atoms: C_2  and  C_6
    4  A    between atoms: C_2  and  C_13
    5  A    between atoms: N_3  and  N_4
    6  A    between atoms: N_4  and  C_15
    7  A    between atoms: N_4  and  C_22
    8  A    between atoms: C_6  and  C_12
    9  A    between atoms: C_11  and  C_14
   10  A    between atoms: C_14  and  C_22
   11  A    between atoms: C_15  and  C_42
   12  A    between atoms: C_19  and  O_25
                            x       y       z     vdW  Elec       q    Type
                         _______ _______ _______ _____ _____    ______ ____

>  <TORSDO>
F 12

$$$$
