=
 OpenBabel10262421133D

 32 36  0  0  1  0  0  0  0  0999 V2000
  189.1250  177.1210  142.3590 C   0  0  2  0  0  3  0  0  0  0  0  0
  186.5620  178.2060  142.8740 C   0  0  0  0  0  0  0  0  0  0  0  0
  190.2420  176.4280  142.1000 C   0  0  0  0  0  3  0  0  0  0  0  0
  188.6460  177.2410  143.7570 C   0  0  0  0  0  0  0  0  0  0  0  0
  186.9370  177.8370  145.3010 O   0  0  0  0  0  0  0  0  0  0  0  0
  182.8670  178.7300  142.5580 C   0  0  0  0  0  3  0  0  0  0  0  0
  187.4230  177.7450  143.9900 C   0  0  0  0  0  0  0  0  0  0  0  0
  183.3770  178.9050  144.9500 C   0  0  0  0  0  3  0  0  0  0  0  0
  184.7850  178.6290  144.6270 C   0  0  0  0  0  0  0  0  0  0  0  0
  189.5470  176.8350  144.9010 C   0  0  0  0  0  0  0  0  0  0  0  0
  185.6150  178.2060  145.5820 C   0  0  0  0  0  3  0  0  0  0  0  0
  190.6910  175.9600  144.4620 C   0  0  0  0  0  3  0  0  0  0  0  0
  187.0200  178.1970  141.6140 C   0  0  0  0  0  3  0  0  0  0  0  0
  188.3180  177.6710  141.2970 N   0  0  0  0  0  0  0  0  0  0  0  0
  185.2570  178.8790  143.2090 C   0  0  2  0  0  3  0  0  0  0  0  0
  191.0220  175.7990  143.1780 C   0  0  0  0  0  3  0  0  0  0  0  0
  182.4750  178.9680  143.9650 C   0  0  0  0  0  3  0  0  0  0  0  0
  184.1540  178.6350  142.2060 C   0  0  0  0  0  3  0  0  0  0  0  0
  188.3490  178.1890  137.5780 C   0  0  0  0  0  0  0  0  0  0  0  0
  187.5250  178.6650  136.5670 O   0  0  0  0  0  1  0  0  0  0  0  0
  188.7500  177.6980  139.9260 C   0  0  0  0  0  0  0  0  0  0  0  0
  189.6260  177.7170  137.2630 C   0  0  0  0  0  3  0  0  0  0  0  0
  190.0230  177.2150  139.5950 C   0  0  0  0  0  3  0  0  0  0  0  0
  187.9030  178.1720  138.9060 C   0  0  0  0  0  0  0  0  0  0  0  0
  186.6170  178.6100  139.2050 O   0  0  0  0  0  1  0  0  0  0  0  0
  190.4680  177.2230  138.2690 C   0  0  0  0  0  0  0  0  0  0  0  0
  192.8040  176.7470  138.9330 C   0  0  0  0  0  1  0  0  0  0  0  0
  191.7470  176.7390  137.9820 O   0  0  0  0  0  0  0  0  0  0  0  0
  190.0760  178.0240  145.5500 N   0  0  0  0  0  2  0  0  0  0  0  0
  190.5340  177.6380  146.7660 O   0  0  0  0  0  0  0  0  0  0  0  0
  189.4030  177.1700  147.4340 C   0  0  0  0  0  2  0  0  0  0  0  0
  188.8920  178.2440  148.3710 C   0  0  0  0  0  1  0  0  0  0  0  0
  1  3  1  6  0  0  0
  1  4  1  0  0  0  0
  2 15  1  0  0  0  0
  2  7  1  0  0  0  0
  3 16  2  0  0  0  0
  4  7  2  0  0  0  0
  4 10  1  0  0  0  0
  5 11  1  0  0  0  0
  6 17  1  0  0  0  0
  7  5  1  0  0  0  0
  9  8  1  0  0  0  0
  9 11  2  0  0  0  0
 10 29  1  0  0  0  0
 12 10  2  0  0  0  0
 13  2  2  0  0  0  0
 14 13  1  0  0  0  0
 14  1  1  0  0  0  0
 15 18  1  6  0  0  0
 15  9  1  0  0  0  0
 16 12  1  0  0  0  0
 17  8  2  0  0  0  0
 18  6  2  0  0  0  0
 19 24  1  0  0  0  0
 20 19  1  0  0  0  0
 21 14  1  0  0  0  0
 22 19  2  0  0  0  0
 22 26  1  0  0  0  0
 23 21  1  0  0  0  0
 24 25  1  0  0  0  0
 24 21  2  0  0  0  0
 26 23  2  0  0  0  0
 28 26  1  0  0  0  0
 28 27  1  0  0  0  0
 29 30  1  0  0  0  0
 30 31  1  0  0  0  0
 31 32  1  0  0  0  0
M  END
>  <MODEL>
1

>  <REMARK>
 VINA RESULT:      -9.9      0.000      0.000
  Name = 
  5 active torsions:
  status: ('A' for Active; 'I' for Inactive)
    1  A    between atoms: C_13  and  O_18
    2  A    between atoms: C_14  and  N_29
    3  A    between atoms: O_15  and  C_26
    4  A    between atoms: C_16  and  N_27
    5  A    between atoms: O_18  and  N_29
                            x       y       z     vdW  Elec       q    Type
                         _______ _______ _______ _____ _____    ______ ____

>  <TORSDO>
F 5

$$$$
=
 OpenBabel10262421133D

 32 36  0  0  1  0  0  0  0  0999 V2000
  189.6850  177.1240  137.6950 C   0  0  2  0  0  3  0  0  0  0  0  0
  189.9740  177.0530  140.5110 C   0  0  0  0  0  0  0  0  0  0  0  0
  189.6510  177.3340  136.3730 C   0  0  0  0  0  3  0  0  0  0  0  0
  188.6290  177.7080  138.5570 C   0  0  0  0  0  0  0  0  0  0  0  0
  187.8120  178.2560  140.7230 O   0  0  0  0  0  0  0  0  0  0  0  0
  191.6010  177.4360  143.8620 C   0  0  0  0  0  3  0  0  0  0  0  0
  188.7810  177.6810  139.8910 C   0  0  0  0  0  0  0  0  0  0  0  0
  189.2630  178.1120  144.1590 C   0  0  0  0  0  3  0  0  0  0  0  0
  189.0500  177.8550  142.7270 C   0  0  0  0  0  0  0  0  0  0  0  0
  187.3810  178.2890  137.9320 C   0  0  0  0  0  0  0  0  0  0  0  0
  188.0000  178.3930  142.1040 C   0  0  0  0  0  3  0  0  0  0  0  0
  187.5430  178.5780  136.4630 C   0  0  0  0  0  3  0  0  0  0  0  0
  190.8870  176.4330  139.7500 C   0  0  0  0  0  3  0  0  0  0  0  0
  190.7840  176.4250  138.3180 N   0  0  0  0  0  0  0  0  0  0  0  0
  190.0240  176.9400  142.0120 C   0  0  2  0  0  3  0  0  0  0  0  0
  188.5720  178.1160  135.7480 C   0  0  0  0  0  3  0  0  0  0  0  0
  190.4680  177.8970  144.6960 C   0  0  0  0  0  3  0  0  0  0  0  0
  191.4120  177.0390  142.5980 C   0  0  0  0  0  3  0  0  0  0  0  0
  192.6220  173.7470  136.4360 C   0  0  0  0  0  0  0  0  0  0  0  0
  192.4560  172.4260  136.0370 O   0  0  0  0  0  1  0  0  0  0  0  0
  191.7950  175.7360  137.5630 C   0  0  0  0  0  0  0  0  0  0  0  0
  193.7990  174.4250  136.1050 C   0  0  0  0  0  3  0  0  0  0  0  0
  192.9850  176.4010  137.2370 C   0  0  0  0  0  3  0  0  0  0  0  0
  191.6220  174.3950  137.1730 C   0  0  0  0  0  0  0  0  0  0  0  0
  190.4710  173.7000  137.5280 O   0  0  0  0  0  1  0  0  0  0  0  0
  193.9880  175.7550  136.5080 C   0  0  0  0  0  0  0  0  0  0  0  0
  195.2870  177.2530  135.0280 C   0  0  0  0  0  1  0  0  0  0  0  0
  195.1570  176.4550  136.1970 O   0  0  0  0  0  0  0  0  0  0  0  0
  186.2690  177.3690  138.1170 N   0  0  0  0  0  2  0  0  0  0  0  0
  185.1330  178.0820  137.9270 O   0  0  0  0  0  0  0  0  0  0  0  0
  184.8160  178.5800  139.1900 C   0  0  0  0  0  2  0  0  0  0  0  0
  183.7870  179.6830  139.0530 C   0  0  0  0  0  1  0  0  0  0  0  0
  1  3  1  1  0  0  0
  1 14  1  0  0  0  0
  1  4  1  0  0  0  0
  2 15  1  0  0  0  0
  4  7  2  0  0  0  0
  5 11  1  0  0  0  0
  6 17  1  0  0  0  0
  7  2  1  0  0  0  0
  7  5  1  0  0  0  0
  8 17  2  0  0  0  0
  9  8  1  0  0  0  0
 10 29  1  0  0  0  0
 10  4  1  0  0  0  0
 11  9  2  0  0  0  0
 12 10  2  0  0  0  0
 13  2  2  0  0  0  0
 14 13  1  0  0  0  0
 15 18  1  1  0  0  0
 15  9  1  0  0  0  0
 16  3  2  0  0  0  0
 16 12  1  0  0  0  0
 18  6  2  0  0  0  0
 19 24  1  0  0  0  0
 20 19  1  0  0  0  0
 21 14  1  0  0  0  0
 22 19  2  0  0  0  0
 22 26  1  0  0  0  0
 23 21  1  0  0  0  0
 24 25  1  0  0  0  0
 24 21  2  0  0  0  0
 26 23  2  0  0  0  0
 27 28  1  0  0  0  0
 28 26  1  0  0  0  0
 30 29  1  0  0  0  0
 30 31  1  0  0  0  0
 32 31  1  0  0  0  0
M  END
>  <MODEL>
2

>  <REMARK>
 VINA RESULT:      -9.4      3.208      6.530
  Name = 
  5 active torsions:
  status: ('A' for Active; 'I' for Inactive)
    1  A    between atoms: C_13  and  O_18
    2  A    between atoms: C_14  and  N_29
    3  A    between atoms: O_15  and  C_26
    4  A    between atoms: C_16  and  N_27
    5  A    between atoms: O_18  and  N_29
                            x       y       z     vdW  Elec       q    Type
                         _______ _______ _______ _____ _____    ______ ____

>  <TORSDO>
F 5

$$$$
=
 OpenBabel10262421133D

 32 36  0  0  1  0  0  0  0  0999 V2000
  186.0600  178.3530  144.6180 C   0  0  2  0  0  3  0  0  0  0  0  0
  187.9150  177.6800  142.5880 C   0  0  0  0  0  0  0  0  0  0  0  0
  185.2420  178.8640  145.5480 C   0  0  0  0  0  3  0  0  0  0  0  0
  187.4520  177.9980  144.9840 C   0  0  0  0  0  0  0  0  0  0  0  0
  189.6580  177.3880  144.3330 O   0  0  0  0  0  0  0  0  0  0  0  0
  189.8270  177.9510  139.3790 C   0  0  0  0  0  3  0  0  0  0  0  0
  188.3290  177.6940  144.0130 C   0  0  0  0  0  0  0  0  0  0  0  0
  191.4170  177.1230  141.0520 C   0  0  0  0  0  2  0  0  0  0  0  0
  190.3410  177.1980  142.0510 C   0  0  0  0  0  0  0  0  0  0  0  0
  187.8610  177.9470  146.4390 C   0  0  0  0  0  0  0  0  0  0  0  0
  190.6420  177.2190  143.3500 C   0  0  0  0  0  3  0  0  0  0  0  0
  186.8960  178.6680  147.3430 C   0  0  0  0  0  3  0  0  0  0  0  0
  186.6370  177.9000  142.2500 C   0  0  0  0  0  3  0  0  0  0  0  0
  185.6500  178.2310  143.2400 N   0  0  0  0  0  0  0  0  0  0  0  0
  188.9070  177.2050  141.5600 C   0  0  0  0  0  0  0  0  0  0  0  0
  185.6870  179.0630  146.9360 C   0  0  0  0  0  3  0  0  0  0  0  0
  191.1650  177.4650  139.7840 C   0  0  0  0  0  3  0  0  0  0  0  0
  188.7840  177.8820  140.2160 C   0  0  0  0  0  3  0  0  0  0  0  0
  182.6570  178.8380  141.0550 C   0  0  0  0  0  0  0  0  0  0  0  0
  182.3410  179.0080  139.7130 O   0  0  0  0  0  1  0  0  0  0  0  0
  184.2950  178.4490  142.8090 C   0  0  0  0  0  0  0  0  0  0  0  0
  181.6420  178.8850  142.0150 C   0  0  0  0  0  3  0  0  0  0  0  0
  183.2710  178.5110  143.7630 C   0  0  0  0  0  3  0  0  0  0  0  0
  183.9860  178.6300  141.4480 C   0  0  0  0  0  0  0  0  0  0  0  0
  184.9930  178.6210  140.4890 O   0  0  0  0  0  1  0  0  0  0  0  0
  181.9450  178.7260  143.3750 C   0  0  0  0  0  0  0  0  0  0  0  0
  179.5680  178.6510  144.0570 C   0  0  0  0  0  1  0  0  0  0  0  0
  180.9520  178.7750  144.3570 O   0  0  0  0  0  0  0  0  0  0  0  0
  187.9680  176.5600  146.8650 N   0  0  0  0  0  2  0  0  0  0  0  0
  188.8590  176.5300  147.8850 O   0  0  0  0  0  0  0  0  0  0  0  0
  190.0010  177.1420  147.3710 C   0  0  0  0  0  2  0  0  0  0  0  0
  191.1390  176.1420  147.3420 C   0  0  0  0  0  1  0  0  0  0  0  0
  1  4  1  0  0  0  0
  1  3  1  6  0  0  0
  2  7  1  0  0  0  0
  3 16  2  0  0  0  0
  4 10  1  0  0  0  0
  6 17  2  0  0  0  0
  6 18  1  0  0  0  0
  7  5  1  0  0  0  0
  7  4  2  0  0  0  0
  8  9  1  0  0  0  0
  9 11  2  0  0  0  0
 10 29  1  0  0  0  0
 10 12  2  0  0  0  0
 11  5  1  0  0  0  0
 13  2  2  0  0  0  0
 13 14  1  0  0  0  0
 14  1  1  0  0  0  0
 15  9  1  0  0  0  0
 15  2  1  0  0  0  0
 16 12  1  0  0  0  0
 17  8  1  0  0  0  0
 18 15  2  0  0  0  0
 19 24  2  0  0  0  0
 19 22  1  0  0  0  0
 20 19  1  0  0  0  0
 21 14  1  0  0  0  0
 21 23  2  0  0  0  0
 22 26  2  0  0  0  0
 24 21  1  0  0  0  0
 25 24  1  0  0  0  0
 26 23  1  0  0  0  0
 26 28  1  0  0  0  0
 27 28  1  0  0  0  0
 29 30  1  0  0  0  0
 31 30  1  0  0  0  0
 32 31  1  0  0  0  0
M  END
>  <MODEL>
3

>  <REMARK>
 VINA RESULT:      -9.0      2.141      6.397
  Name = 
  5 active torsions:
  status: ('A' for Active; 'I' for Inactive)
    1  A    between atoms: C_13  and  O_18
    2  A    between atoms: C_14  and  N_29
    3  A    between atoms: O_15  and  C_26
    4  A    between atoms: C_16  and  N_27
    5  A    between atoms: O_18  and  N_29
                            x       y       z     vdW  Elec       q    Type
                         _______ _______ _______ _____ _____    ______ ____

>  <TORSDO>
F 5

$$$$
=
 OpenBabel10262421133D

 32 36  0  0  1  0  0  0  0  0999 V2000
  189.8400  177.0280  137.9730 C   0  0  2  0  0  3  0  0  0  0  0  0
  189.9990  176.8780  140.7950 C   0  0  0  0  0  0  0  0  0  0  0  0
  189.8780  177.2680  136.6560 C   0  0  0  0  0  3  0  0  0  0  0  0
  188.7880  177.6640  138.8020 C   0  0  0  0  0  0  0  0  0  0  0  0
  187.9150  178.2200  140.9450 O   0  0  0  0  0  0  0  0  0  0  0  0
  191.4990  177.0790  144.2220 C   0  0  0  0  0  3  0  0  0  0  0  0
  188.8800  177.5990  140.1410 C   0  0  0  0  0  0  0  0  0  0  0  0
  189.2010  177.9060  144.4350 C   0  0  0  0  0  3  0  0  0  0  0  0
  189.0350  177.6940  142.9890 C   0  0  0  0  0  0  0  0  0  0  0  0
  187.6110  178.3410  138.1390 C   0  0  0  0  0  0  0  0  0  0  0  0
  188.0510  178.3140  142.3350 C   0  0  0  0  0  3  0  0  0  0  0  0
  187.8560  178.6500  136.6860 C   0  0  0  0  0  3  0  0  0  0  0  0
  190.9020  176.2140  140.0600 C   0  0  0  0  0  3  0  0  0  0  0  0
  190.8620  176.2440  138.6250 N   0  0  0  0  0  0  0  0  0  0  0  0
  189.9760  176.7300  142.2940 C   0  0  2  0  0  3  0  0  0  0  0  0
  188.8830  178.1340  136.0040 C   0  0  0  0  0  3  0  0  0  0  0  0
  190.3640  177.5980  145.0170 C   0  0  0  0  0  3  0  0  0  0  0  0
  191.3400  176.7230  142.9410 C   0  0  0  0  0  3  0  0  0  0  0  0
  194.1360  175.2200  137.1000 C   0  0  0  0  0  0  0  0  0  0  0  0
  195.4530  175.6570  137.0230 O   0  0  0  0  0  1  0  0  0  0  0  0
  191.8570  175.5040  137.8970 C   0  0  0  0  0  0  0  0  0  0  0  0
  193.7620  174.0390  136.4540 C   0  0  0  0  0  3  0  0  0  0  0  0
  191.4910  174.3250  137.2330 C   0  0  0  0  0  3  0  0  0  0  0  0
  193.1860  175.9600  137.8150 C   0  0  0  0  0  0  0  0  0  0  0  0
  193.5610  177.1540  138.4250 O   0  0  0  0  0  1  0  0  0  0  0  0
  192.4360  173.5870  136.5130 C   0  0  0  0  0  0  0  0  0  0  0  0
  192.9020  171.3090  135.6710 C   0  0  0  0  0  1  0  0  0  0  0  0
  192.0310  172.4140  135.8710 O   0  0  0  0  0  0  0  0  0  0  0  0
  186.4330  177.4950  138.2550 N   0  0  0  0  0  2  0  0  0  0  0  0
  185.3590  178.2780  137.9950 O   0  0  0  0  0  0  0  0  0  0  0  0
  184.8250  178.5690  139.2500 C   0  0  0  0  0  2  0  0  0  0  0  0
  183.7560  179.6330  139.1080 C   0  0  0  0  0  1  0  0  0  0  0  0
  1  3  1  1  0  0  0
  1 14  1  0  0  0  0
  1  4  1  0  0  0  0
  2 15  1  0  0  0  0
  4  7  2  0  0  0  0
  5 11  1  0  0  0  0
  6 17  1  0  0  0  0
  7  2  1  0  0  0  0
  7  5  1  0  0  0  0
  8 17  2  0  0  0  0
  9  8  1  0  0  0  0
 10 29  1  0  0  0  0
 10  4  1  0  0  0  0
 11  9  2  0  0  0  0
 12 10  2  0  0  0  0
 13  2  2  0  0  0  0
 14 13  1  0  0  0  0
 15 18  1  1  0  0  0
 15  9  1  0  0  0  0
 16  3  2  0  0  0  0
 16 12  1  0  0  0  0
 18  6  2  0  0  0  0
 19 24  1  0  0  0  0
 20 19  1  0  0  0  0
 21 14  1  0  0  0  0
 22 26  1  0  0  0  0
 22 19  2  0  0  0  0
 23 21  1  0  0  0  0
 24 21  2  0  0  0  0
 24 25  1  0  0  0  0
 26 23  2  0  0  0  0
 27 28  1  0  0  0  0
 28 26  1  0  0  0  0
 30 29  1  0  0  0  0
 30 31  1  0  0  0  0
 32 31  1  0  0  0  0
M  END
>  <MODEL>
4

>  <REMARK>
 VINA RESULT:      -9.0      3.046      6.572
  Name = 
  5 active torsions:
  status: ('A' for Active; 'I' for Inactive)
    1  A    between atoms: C_13  and  O_18
    2  A    between atoms: C_14  and  N_29
    3  A    between atoms: O_15  and  C_26
    4  A    between atoms: C_16  and  N_27
    5  A    between atoms: O_18  and  N_29
                            x       y       z     vdW  Elec       q    Type
                         _______ _______ _______ _____ _____    ______ ____

>  <TORSDO>
F 5

$$$$
=
 OpenBabel10262421133D

 32 36  0  0  1  0  0  0  0  0999 V2000
  187.8040  177.5690  143.5410 C   0  0  0  0  0  0  0  0  0  0  0  0
  189.4350  177.5240  141.2270 C   0  0  0  0  0  0  0  0  0  0  0  0
  187.0020  177.3920  144.5980 C   0  0  0  0  0  3  0  0  0  0  0  0
  187.2110  177.8860  142.2180 C   0  0  0  0  0  0  0  0  0  0  0  0
  187.4450  178.1120  139.8610 O   0  0  0  0  0  0  0  0  0  0  0  0
  191.9400  176.2570  138.7480 C   0  0  0  0  0  3  0  0  0  0  0  0
  187.9910  177.8480  141.1240 C   0  0  0  0  0  0  0  0  0  0  0  0
  190.1810  177.3540  137.4380 C   0  0  0  0  0  2  0  0  0  0  0  0
  189.4780  177.6370  138.6980 C   0  0  0  0  0  0  0  0  0  0  0  0
  185.7560  178.2820  142.1180 C   0  0  1  0  0  3  0  0  0  0  0  0
  188.1770  177.9310  138.6810 C   0  0  0  0  0  3  0  0  0  0  0  0
  184.9630  177.9090  143.3430 C   0  0  0  0  0  3  0  0  0  0  0  0
  190.0050  177.3340  142.4240 C   0  0  0  0  0  3  0  0  0  0  0  0
  189.2290  177.3600  143.6320 N   0  0  0  0  0  0  0  0  0  0  0  0
  190.2790  177.6250  139.9840 C   0  0  0  0  0  0  0  0  0  0  0  0
  185.5410  177.5270  144.4850 C   0  0  0  0  0  3  0  0  0  0  0  0
  191.3550  176.7140  137.4680 C   0  0  0  0  0  3  0  0  0  0  0  0
  191.4160  176.6320  139.9210 C   0  0  0  0  0  3  0  0  0  0  0  0
  191.6740  176.1360  146.2050 C   0  0  0  0  0  0  0  0  0  0  0  0
  192.7940  175.3200  146.3000 O   0  0  0  0  0  1  0  0  0  0  0  0
  189.9050  177.1560  144.8850 C   0  0  0  0  0  0  0  0  0  0  0  0
  191.1850  176.7720  147.3490 C   0  0  0  0  0  3  0  0  0  0  0  0
  189.4160  177.7760  146.0420 C   0  0  0  0  0  3  0  0  0  0  0  0
  191.0330  176.3180  144.9730 C   0  0  0  0  0  0  0  0  0  0  0  0
  191.5070  175.6520  143.8470 O   0  0  0  0  0  1  0  0  0  0  0  0
  190.0500  177.5920  147.2740 C   0  0  0  0  0  0  0  0  0  0  0  0
  188.1500  178.2220  148.7290 C   0  0  0  0  0  1  0  0  0  0  0  0
  189.5340  178.2340  148.4030 O   0  0  0  0  0  0  0  0  0  0  0  0
  185.6560  179.7180  141.9040 N   0  0  0  0  0  2  0  0  0  0  0  0
  185.2500  179.8970  140.6240 O   0  0  0  0  0  0  0  0  0  0  0  0
  184.1920  179.0020  140.4630 C   0  0  0  0  0  2  0  0  0  0  0  0
  183.9230  178.8010  138.9860 C   0  0  0  0  0  1  0  0  0  0  0  0
  1 14  1  0  0  0  0
  1  3  2  0  0  0  0
  2 13  2  0  0  0  0
  4  1  1  0  0  0  0
  5  7  1  0  0  0  0
  6 18  1  0  0  0  0
  7  2  1  0  0  0  0
  7  4  2  0  0  0  0
  8 17  1  0  0  0  0
  8  9  1  0  0  0  0
  9 15  1  0  0  0  0
 10 29  1  1  0  0  0
 10  4  1  0  0  0  0
 10 12  1  0  0  0  0
 11  9  2  0  0  0  0
 11  5  1  0  0  0  0
 12 16  2  0  0  0  0
 13 14  1  0  0  0  0
 14 21  1  0  0  0  0
 15  2  1  0  0  0  0
 16  3  1  0  0  0  0
 17  6  2  0  0  0  0
 18 15  2  0  0  0  0
 19 20  1  0  0  0  0
 19 22  1  0  0  0  0
 21 24  1  0  0  0  0
 21 23  2  0  0  0  0
 23 26  1  0  0  0  0
 24 19  2  0  0  0  0
 25 24  1  0  0  0  0
 26 22  2  0  0  0  0
 26 28  1  0  0  0  0
 28 27  1  0  0  0  0
 30 29  1  0  0  0  0
 31 30  1  0  0  0  0
 32 31  1  0  0  0  0
M  END
>  <MODEL>
5

>  <REMARK>
 VINA RESULT:      -8.8      1.861      7.607
  Name = 
  5 active torsions:
  status: ('A' for Active; 'I' for Inactive)
    1  A    between atoms: C_13  and  O_18
    2  A    between atoms: C_14  and  N_29
    3  A    between atoms: O_15  and  C_26
    4  A    between atoms: C_16  and  N_27
    5  A    between atoms: O_18  and  N_29
                            x       y       z     vdW  Elec       q    Type
                         _______ _______ _______ _____ _____    ______ ____

>  <TORSDO>
F 5

$$$$
=
 OpenBabel10262421133D

 32 36  0  0  1  0  0  0  0  0999 V2000
  183.9610  178.6300  142.0300 C   0  0  2  0  0  3  0  0  0  0  0  0
  185.8750  178.2900  139.9710 C   0  0  0  0  0  0  0  0  0  0  0  0
  183.0760  178.9910  142.9680 C   0  0  0  0  0  3  0  0  0  0  0  0
  185.4020  178.5580  142.3720 C   0  0  0  0  0  0  0  0  0  0  0  0
  187.6720  178.3740  141.6840 O   0  0  0  0  0  0  0  0  0  0  0  0
  187.6420  178.8660  136.7200 C   0  0  0  0  0  3  0  0  0  0  0  0
  186.3040  178.4110  141.3870 C   0  0  0  0  0  0  0  0  0  0  0  0
  189.3910  178.3930  138.3710 C   0  0  0  0  0  2  0  0  0  0  0  0
  188.3390  178.2770  139.3910 C   0  0  0  0  0  0  0  0  0  0  0  0
  185.8380  178.6140  143.8180 C   0  0  0  0  0  0  0  0  0  0  0  0
  188.6530  178.3800  140.6840 C   0  0  0  0  0  3  0  0  0  0  0  0
  184.7680  179.1520  144.7310 C   0  0  0  0  0  3  0  0  0  0  0  0
  184.5730  178.2530  139.6570 C   0  0  0  0  0  3  0  0  0  0  0  0
  183.5580  178.4060  140.6620 N   0  0  0  0  0  0  0  0  0  0  0  0
  186.9220  177.9970  138.9300 C   0  0  0  0  0  0  0  0  0  0  0  0
  183.4980  179.2970  144.3440 C   0  0  0  0  0  3  0  0  0  0  0  0
  189.0550  178.6560  137.1040 C   0  0  0  0  0  3  0  0  0  0  0  0
  186.6470  178.6130  137.5780 C   0  0  0  0  0  3  0  0  0  0  0  0
  180.2420  177.1040  139.4750 C   0  0  0  0  0  0  0  0  0  0  0  0
  179.6460  175.9080  139.0970 O   0  0  0  0  0  1  0  0  0  0  0  0
  182.1800  178.3480  140.2560 C   0  0  0  0  0  0  0  0  0  0  0  0
  179.4930  178.2840  139.4580 C   0  0  0  0  0  3  0  0  0  0  0  0
  181.4220  179.5260  140.2220 C   0  0  0  0  0  3  0  0  0  0  0  0
  181.5880  177.1330  139.8650 C   0  0  0  0  0  0  0  0  0  0  0  0
  182.3350  175.9590  139.8430 O   0  0  0  0  0  1  0  0  0  0  0  0
  180.0810  179.5030  139.8270 C   0  0  0  0  0  0  0  0  0  0  0  0
  178.9310  181.3530  141.0000 C   0  0  0  0  0  1  0  0  0  0  0  0
  179.3580  180.6980  139.8130 O   0  0  0  0  0  0  0  0  0  0  0  0
  186.2190  177.2820  144.2630 N   0  0  0  0  0  2  0  0  0  0  0  0
  186.8410  177.4290  145.4580 O   0  0  0  0  0  0  0  0  0  0  0  0
  188.1970  177.5030  145.1400 C   0  0  0  0  0  2  0  0  0  0  0  0
  189.0170  177.4130  146.4110 C   0  0  0  0  0  1  0  0  0  0  0  0
  1  4  1  0  0  0  0
  1  3  1  6  0  0  0
  2  7  1  0  0  0  0
  3 16  2  0  0  0  0
  4 10  1  0  0  0  0
  6 17  2  0  0  0  0
  6 18  1  0  0  0  0
  7  5  1  0  0  0  0
  7  4  2  0  0  0  0
  8  9  1  0  0  0  0
  9 11  2  0  0  0  0
 10 29  1  0  0  0  0
 10 12  2  0  0  0  0
 11  5  1  0  0  0  0
 13  2  2  0  0  0  0
 13 14  1  0  0  0  0
 14  1  1  0  0  0  0
 15  9  1  0  0  0  0
 15  2  1  0  0  0  0
 16 12  1  0  0  0  0
 17  8  1  0  0  0  0
 18 15  2  0  0  0  0
 19 24  1  0  0  0  0
 20 19  1  0  0  0  0
 21 14  1  0  0  0  0
 22 19  2  0  0  0  0
 22 26  1  0  0  0  0
 23 21  1  0  0  0  0
 24 21  2  0  0  0  0
 25 24  1  0  0  0  0
 26 23  2  0  0  0  0
 28 26  1  0  0  0  0
 28 27  1  0  0  0  0
 29 30  1  0  0  0  0
 31 30  1  0  0  0  0
 31 32  1  0  0  0  0
M  END
>  <MODEL>
6

>  <REMARK>
 VINA RESULT:      -8.7      3.149      7.171
  Name = 
  5 active torsions:
  status: ('A' for Active; 'I' for Inactive)
    1  A    between atoms: C_13  and  O_18
    2  A    between atoms: C_14  and  N_29
    3  A    between atoms: O_15  and  C_26
    4  A    between atoms: C_16  and  N_27
    5  A    between atoms: O_18  and  N_29
                            x       y       z     vdW  Elec       q    Type
                         _______ _______ _______ _____ _____    ______ ____

>  <TORSDO>
F 5

$$$$
=
 OpenBabel10262421133D

 32 36  0  0  1  0  0  0  0  0999 V2000
  185.0350  178.5990  139.1240 C   0  0  2  0  0  3  0  0  0  0  0  0
  185.0190  178.9040  141.9390 C   0  0  0  0  0  0  0  0  0  0  0  0
  184.9690  178.2680  137.8280 C   0  0  0  0  0  3  0  0  0  0  0  0
  186.2460  178.2530  139.9070 C   0  0  0  0  0  0  0  0  0  0  0  0
  187.3450  178.0360  142.0060 O   0  0  0  0  0  0  0  0  0  0  0  0
  183.8070  178.6280  145.4720 C   0  0  0  0  0  3  0  0  0  0  0  0
  186.2240  178.3880  141.2440 C   0  0  0  0  0  0  0  0  0  0  0  0
  186.2360  178.3120  145.5590 C   0  0  0  0  0  3  0  0  0  0  0  0
  186.2660  178.4550  144.0960 C   0  0  0  0  0  0  0  0  0  0  0  0
  187.4980  177.7910  139.1960 C   0  0  0  0  0  0  0  0  0  0  0  0
  187.3170  178.0090  143.4060 C   0  0  0  0  0  3  0  0  0  0  0  0
  187.2350  177.3410  137.7830 C   0  0  0  0  0  3  0  0  0  0  0  0
  183.9540  179.3150  141.2370 C   0  0  0  0  0  3  0  0  0  0  0  0
  183.9120  179.1970  139.8070 N   0  0  0  0  0  0  0  0  0  0  0  0
  185.1020  179.1540  143.4220 C   0  0  2  0  0  3  0  0  0  0  0  0
  186.0830  177.5860  137.1520 C   0  0  0  0  0  3  0  0  0  0  0  0
  185.0710  178.4100  146.2080 C   0  0  0  0  0  3  0  0  0  0  0  0
  183.8080  178.9220  144.1660 C   0  0  0  0  0  3  0  0  0  0  0  0
  180.5540  179.2690  138.1300 C   0  0  0  0  0  0  0  0  0  0  0  0
  179.5010  178.4150  137.8270 O   0  0  0  0  0  1  0  0  0  0  0  0
  182.7410  179.6640  139.1160 C   0  0  0  0  0  0  0  0  0  0  0  0
  180.4820  180.6130  137.7520 C   0  0  0  0  0  3  0  0  0  0  0  0
  182.6640  181.0060  138.7190 C   0  0  0  0  0  3  0  0  0  0  0  0
  181.6850  178.7880  138.8040 C   0  0  0  0  0  0  0  0  0  0  0  0
  181.7610  177.4410  139.1430 O   0  0  0  0  0  1  0  0  0  0  0  0
  181.5400  181.4880  138.0410 C   0  0  0  0  0  0  0  0  0  0  0  0
  180.2830  183.5590  137.5390 C   0  0  0  0  0  1  0  0  0  0  0  0
  181.4990  182.8340  137.6690 O   0  0  0  0  0  0  0  0  0  0  0  0
  188.4740  178.8690  139.1800 N   0  0  0  0  0  2  0  0  0  0  0  0
  189.6160  178.3570  138.6610 O   0  0  0  0  0  0  0  0  0  0  0  0
  190.1520  177.5820  139.6880 C   0  0  0  0  0  2  0  0  0  0  0  0
  190.9280  176.4240  139.0940 C   0  0  0  0  0  1  0  0  0  0  0  0
  1  3  1  1  0  0  0
  1 14  1  0  0  0  0
  1  4  1  0  0  0  0
  2 15  1  0  0  0  0
  4  7  2  0  0  0  0
  5 11  1  0  0  0  0
  6 17  1  0  0  0  0
  7  2  1  0  0  0  0
  7  5  1  0  0  0  0
  8 17  2  0  0  0  0
  9  8  1  0  0  0  0
 10  4  1  0  0  0  0
 11  9  2  0  0  0  0
 12 10  2  0  0  0  0
 13  2  2  0  0  0  0
 14 13  1  0  0  0  0
 15  9  1  0  0  0  0
 15 18  1  1  0  0  0
 16 12  1  0  0  0  0
 16  3  2  0  0  0  0
 18  6  2  0  0  0  0
 19 24  1  0  0  0  0
 20 19  1  0  0  0  0
 21 14  1  0  0  0  0
 22 26  1  0  0  0  0
 22 19  2  0  0  0  0
 23 21  1  0  0  0  0
 24 21  2  0  0  0  0
 24 25  1  0  0  0  0
 26 23  2  0  0  0  0
 27 28  1  0  0  0  0
 28 26  1  0  0  0  0
 29 10  1  0  0  0  0
 30 29  1  0  0  0  0
 30 31  1  0  0  0  0
 32 31  1  0  0  0  0
M  END
>  <MODEL>
7

>  <REMARK>
 VINA RESULT:      -8.7      3.536      6.776
  Name = 
  5 active torsions:
  status: ('A' for Active; 'I' for Inactive)
    1  A    between atoms: C_13  and  O_18
    2  A    between atoms: C_14  and  N_29
    3  A    between atoms: O_15  and  C_26
    4  A    between atoms: C_16  and  N_27
    5  A    between atoms: O_18  and  N_29
                            x       y       z     vdW  Elec       q    Type
                         _______ _______ _______ _____ _____    ______ ____

>  <TORSDO>
F 5

$$$$
=
 OpenBabel10262421133D

 32 36  0  0  1  0  0  0  0  0999 V2000
  189.9730  176.7680  143.5170 C   0  0  2  0  0  3  0  0  0  0  0  0
  187.3930  177.9110  143.2850 C   0  0  0  0  0  0  0  0  0  0  0  0
  191.0970  176.0470  143.6120 C   0  0  0  0  0  3  0  0  0  0  0  0
  189.1870  177.0620  144.7400 C   0  0  0  0  0  0  0  0  0  0  0  0
  187.1850  177.8470  145.7590 O   0  0  0  0  0  0  0  0  0  0  0  0
  183.8880  178.3930  142.0570 C   0  0  0  0  0  3  0  0  0  0  0  0
  187.9580  177.5920  144.6190 C   0  0  0  0  0  0  0  0  0  0  0  0
  183.8370  178.8650  144.4620 C   0  0  0  0  0  3  0  0  0  0  0  0
  185.2720  178.5500  144.5120 C   0  0  0  0  0  0  0  0  0  0  0  0
  189.7860  176.8000  146.1030 C   0  0  0  0  0  0  0  0  0  0  0  0
  185.8460  178.2490  145.6780 C   0  0  0  0  0  3  0  0  0  0  0  0
  190.9750  175.8770  146.0520 C   0  0  0  0  0  3  0  0  0  0  0  0
  188.1290  177.7440  142.1780 C   0  0  0  0  0  3  0  0  0  0  0  0
  189.4490  177.1820  142.2380 N   0  0  0  0  0  0  0  0  0  0  0  0
  186.0660  178.6210  143.2230 C   0  0  2  0  0  3  0  0  0  0  0  0
  191.5880  175.5570  144.9090 C   0  0  0  0  0  3  0  0  0  0  0  0
  183.1890  178.8050  143.2940 C   0  0  0  0  0  3  0  0  0  0  0  0
  185.2180  178.2540  142.0280 C   0  0  0  0  0  3  0  0  0  0  0  0
  192.2270  177.2930  139.7140 C   0  0  0  0  0  0  0  0  0  0  0  0
  193.5560  177.6850  139.6170 O   0  0  0  0  0  1  0  0  0  0  0  0
  190.1870  177.0370  141.0120 C   0  0  0  0  0  0  0  0  0  0  0  0
  191.5840  176.7510  138.5980 C   0  0  0  0  0  3  0  0  0  0  0  0
  189.5490  176.5070  139.8820 C   0  0  0  0  0  3  0  0  0  0  0  0
  191.5300  177.4470  140.9200 C   0  0  0  0  0  0  0  0  0  0  0  0
  192.1690  178.0210  142.0150 O   0  0  0  0  0  1  0  0  0  0  0  0
  190.2400  176.3590  138.6750 C   0  0  0  0  0  0  0  0  0  0  0  0
  189.6930  174.4570  137.1900 C   0  0  0  0  0  1  0  0  0  0  0  0
  189.5700  175.8200  137.5740 O   0  0  0  0  0  0  0  0  0  0  0  0
  190.1870  178.0610  146.7090 N   0  0  0  0  0  2  0  0  0  0  0  0
  190.1530  177.8800  148.0510 O   0  0  0  0  0  0  0  0  0  0  0  0
  189.0540  178.6260  148.4780 C   0  0  0  0  0  2  0  0  0  0  0  0
  187.9340  177.6880  148.8770 C   0  0  0  0  0  1  0  0  0  0  0  0
  1  3  1  6  0  0  0
  1  4  1  0  0  0  0
  2  7  1  0  0  0  0
  3 16  2  0  0  0  0
  4 10  1  0  0  0  0
  6 17  1  0  0  0  0
  7  4  2  0  0  0  0
  7  5  1  0  0  0  0
  8  9  1  0  0  0  0
  9 11  2  0  0  0  0
 10 29  1  0  0  0  0
 11  5  1  0  0  0  0
 12 10  2  0  0  0  0
 13 14  1  0  0  0  0
 13  2  2  0  0  0  0
 14  1  1  0  0  0  0
 15 18  1  6  0  0  0
 15  2  1  0  0  0  0
 15  9  1  0  0  0  0
 16 12  1  0  0  0  0
 17  8  2  0  0  0  0
 18  6  2  0  0  0  0
 19 24  1  0  0  0  0
 20 19  1  0  0  0  0
 21 14  1  0  0  0  0
 22 26  1  0  0  0  0
 22 19  2  0  0  0  0
 23 21  1  0  0  0  0
 24 21  2  0  0  0  0
 24 25  1  0  0  0  0
 26 23  2  0  0  0  0
 27 28  1  0  0  0  0
 28 26  1  0  0  0  0
 29 30  1  0  0  0  0
 30 31  1  0  0  0  0
 31 32  1  0  0  0  0
M  END
>  <MODEL>
8

>  <REMARK>
 VINA RESULT:      -8.7      1.600      2.456
  Name = 
  5 active torsions:
  status: ('A' for Active; 'I' for Inactive)
    1  A    between atoms: C_13  and  O_18
    2  A    between atoms: C_14  and  N_29
    3  A    between atoms: O_15  and  C_26
    4  A    between atoms: C_16  and  N_27
    5  A    between atoms: O_18  and  N_29
                            x       y       z     vdW  Elec       q    Type
                         _______ _______ _______ _____ _____    ______ ____

>  <TORSDO>
F 5

$$$$
=
 OpenBabel10262421133D

 32 36  0  0  1  0  0  0  0  0999 V2000
  186.7670  178.2110  140.5400 C   0  0  2  0  0  3  0  0  0  0  0  0
  187.3360  177.7320  143.2720 C   0  0  0  0  0  0  0  0  0  0  0  0
  186.5650  178.6280  139.2840 C   0  0  0  0  0  3  0  0  0  0  0  0
  185.7070  178.4130  141.5580 C   0  0  0  0  0  0  0  0  0  0  0  0
  185.0140  178.4110  143.8340 O   0  0  0  0  0  0  0  0  0  0  0  0
  189.1770  177.8780  146.5310 C   0  0  0  0  0  3  0  0  0  0  0  0
  185.9910  178.1960  142.8530 C   0  0  0  0  0  0  0  0  0  0  0  0
  186.7930  177.9980  147.0900 C   0  0  0  0  0  3  0  0  0  0  0  0
  186.4960  177.9450  145.6500 C   0  0  0  0  0  0  0  0  0  0  0  0
  184.3160  178.8200  141.1280 C   0  0  0  0  0  0  0  0  0  0  0  0
  185.3060  178.3510  145.2030 C   0  0  0  0  0  3  0  0  0  0  0  0
  184.2760  179.3780  139.7300 C   0  0  0  0  0  3  0  0  0  0  0  0
  188.2730  177.4500  142.3570 C   0  0  0  0  0  3  0  0  0  0  0  0
  188.0350  177.6610  140.9560 N   0  0  0  0  0  0  0  0  0  0  0  0
  187.5530  177.3830  144.7210 C   0  0  2  0  0  3  0  0  0  0  0  0
  185.3000  179.2630  138.8800 C   0  0  0  0  0  3  0  0  0  0  0  0
  188.0640  177.9500  147.5030 C   0  0  0  0  0  3  0  0  0  0  0  0
  188.9470  177.6680  145.2290 C   0  0  0  0  0  3  0  0  0  0  0  0
  191.4360  177.0790  139.4760 C   0  0  0  0  0  0  0  0  0  0  0  0
  192.7760  177.1420  139.8400 O   0  0  0  0  0  1  0  0  0  0  0  0
  189.0810  177.3310  140.0270 C   0  0  0  0  0  0  0  0  0  0  0  0
  191.0910  176.6940  138.1780 C   0  0  0  0  0  3  0  0  0  0  0  0
  188.7480  176.9560  138.7180 C   0  0  0  0  0  3  0  0  0  0  0  0
  190.4360  177.4070  140.4010 C   0  0  0  0  0  0  0  0  0  0  0  0
  190.7920  177.8250  141.6800 O   0  0  0  0  0  1  0  0  0  0  0  0
  189.7440  176.6340  137.7910 C   0  0  0  0  0  0  0  0  0  0  0  0
  189.1230  177.2040  135.4650 C   0  0  0  0  0  1  0  0  0  0  0  0
  189.3700  176.2590  136.4980 O   0  0  0  0  0  0  0  0  0  0  0  0
  183.4250  177.6730  141.2100 N   0  0  0  0  0  2  0  0  0  0  0  0
  182.3240  177.9770  140.4810 O   0  0  0  0  0  0  0  0  0  0  0  0
  181.7630  176.7410  140.1620 C   0  0  0  0  0  2  0  0  0  0  0  0
  182.6810  176.0030  139.2090 C   0  0  0  0  0  1  0  0  0  0  0  0
  1  3  1  1  0  0  0
  1 14  1  0  0  0  0
  1  4  1  0  0  0  0
  2 15  1  0  0  0  0
  4  7  2  0  0  0  0
  5 11  1  0  0  0  0
  6 17  1  0  0  0  0
  7  2  1  0  0  0  0
  7  5  1  0  0  0  0
  8 17  2  0  0  0  0
  9  8  1  0  0  0  0
 10 29  1  0  0  0  0
 10  4  1  0  0  0  0
 11  9  2  0  0  0  0
 12 10  2  0  0  0  0
 13  2  2  0  0  0  0
 14 13  1  0  0  0  0
 15 18  1  1  0  0  0
 15  9  1  0  0  0  0
 16  3  2  0  0  0  0
 16 12  1  0  0  0  0
 18  6  2  0  0  0  0
 19 20  1  0  0  0  0
 19 24  1  0  0  0  0
 21 24  2  0  0  0  0
 21 14  1  0  0  0  0
 22 19  2  0  0  0  0
 23 21  1  0  0  0  0
 24 25  1  0  0  0  0
 26 22  1  0  0  0  0
 26 23  2  0  0  0  0
 27 28  1  0  0  0  0
 28 26  1  0  0  0  0
 30 29  1  0  0  0  0
 31 30  1  0  0  0  0
 32 31  1  0  0  0  0
M  END
>  <MODEL>
9

>  <REMARK>
 VINA RESULT:      -8.7      2.196      5.459
  Name = 
  5 active torsions:
  status: ('A' for Active; 'I' for Inactive)
    1  A    between atoms: C_13  and  O_18
    2  A    between atoms: C_14  and  N_29
    3  A    between atoms: O_15  and  C_26
    4  A    between atoms: C_16  and  N_27
    5  A    between atoms: O_18  and  N_29
                            x       y       z     vdW  Elec       q    Type
                         _______ _______ _______ _____ _____    ______ ____

>  <TORSDO>
F 5

$$$$
