=
 OpenBabel10262421433D

 30 35  0  0  1  0  0  0  0  0999 V2000
  186.5870  178.4150  139.3370 C   0  0  1  0  0  3  0  0  0  0  0  0
  189.1620  178.5240  139.0000 C   0  0  2  0  0  3  0  0  0  0  0  0
  187.1750  176.1120  137.0910 C   0  0  1  0  0  3  0  0  0  0  0  0
  185.2120  177.8860  138.7790 C   0  0  1  0  0  3  0  0  0  0  0  0
  186.6760  178.1780  140.8620 C   0  0  0  0  0  2  0  0  0  0  0  0
  183.2280  178.7150  141.9050 N   0  0  0  0  0  0  0  0  0  0  0  0
  184.1850  178.5310  140.9810 C   0  0  2  0  0  3  0  0  0  0  0  0
  185.2650  178.5810  142.9100 N   0  0  0  0  0  0  0  0  0  0  0  0
  186.0610  176.1700  136.0240 C   0  0  2  0  0  3  0  0  0  0  0  0
  185.4050  178.4790  141.5800 C   0  0  0  0  0  0  0  0  0  0  0  0
  183.9840  178.5040  139.5030 C   0  0  1  0  0  3  0  0  0  0  0  0
  190.3120  177.5480  139.2300 C   0  0  0  0  0  2  0  0  0  0  0  0
  183.2840  178.9030  144.3910 C   0  0  0  0  0  1  0  0  0  0  0  0
  189.0720  179.3720  140.0900 F   0  0  0  0  0  0  0  0  0  0  0  0
  188.6000  176.3790  136.6300 C   0  0  2  0  0  3  0  0  0  0  0  0
  190.6850  176.7700  137.9710 C   0  0  0  0  0  2  0  0  0  0  0  0
  183.9280  178.7350  143.0620 C   0  0  0  0  0  0  0  0  0  0  0  0
  187.8590  177.7520  138.7390 C   0  0  2  0  0  3  0  0  0  0  0  0
  185.0060  178.0260  137.2500 C   0  0  0  0  0  2  0  0  0  0  0  0
  186.4400  176.7920  134.6820 C   0  0  0  0  0  1  0  0  0  0  0  0
  184.8030  176.7470  136.5310 N   0  0  2  0  0  0  0  0  0  0  0  0
  189.6010  175.7640  137.6060 C   0  0  0  0  0  2  0  0  0  0  0  0
  187.7590  177.5020  137.2440 C   0  0  2  0  0  3  0  0  0  0  0  0
  183.9260  174.4610  136.5410 C   0  0  2  0  0  3  0  0  0  0  0  0
  184.0820  175.7480  137.3300 C   0  0  2  0  0  3  0  0  0  0  0  0
  182.7300  175.3720  136.7170 C   0  0  1  0  0  3  0  0  0  0  0  0
  182.4860  176.0510  135.5200 O   0  0  0  0  0  1  0  0  0  0  0  0
  183.8130  173.3000  137.5050 C   0  0  0  0  0  1  0  0  0  0  0  0
  182.1160  179.9320  138.5170 C   0  0  0  0  0  1  0  0  0  0  0  0
  183.5640  179.8870  138.9810 C   0  0  0  0  0  2  0  0  0  0  0  0
  1  5  1  1  0  0  0
  2 12  1  0  0  0  0
  2 14  1  1  0  0  0
  3 23  1  0  0  0  0
  4  1  1  0  0  0  0
  4 11  1  0  0  0  0
  5 10  1  0  0  0  0
  6 17  2  0  0  0  0
  7 10  1  0  0  0  0
  7  6  1  0  0  0  0
  8 17  1  0  0  0  0
  9 21  1  0  0  0  0
  9  3  1  0  0  0  0
 10  8  2  0  0  0  0
 11  7  1  0  0  0  0
 15  3  1  0  0  0  0
 15 23  1  0  0  0  0
 15 22  1  0  0  0  0
 16 12  1  0  0  0  0
 17 13  1  0  0  0  0
 18  2  1  0  0  0  0
 18  1  1  0  0  0  0
 19  4  1  0  0  0  0
 20  9  1  0  0  0  0
 21 19  1  0  0  0  0
 21 25  1  0  0  0  0
 22 16  1  0  0  0  0
 23 18  1  0  0  0  0
 24 26  1  0  0  0  0
 24 25  1  0  0  0  0
 24 28  1  0  0  0  0
 26 25  1  0  0  0  0
 27 26  1  0  0  0  0
 29 30  1  0  0  0  0
 30 11  1  0  0  0  0
M  END
>  <MODEL>
1

>  <REMARK>
 VINA RESULT:      -5.9      0.000      0.000
  Name = 
  2 active torsions:
  status: ('A' for Active; 'I' for Inactive)
    1  A    between atoms: C_10  and  N_25
    2  A    between atoms: C_13  and  C_30
                            x       y       z     vdW  Elec       q    Type
                         _______ _______ _______ _____ _____    ______ ____

>  <TORSDO>
F 2

$$$$
=
 OpenBabel10262421433D

 30 35  0  0  1  0  0  0  0  0999 V2000
  183.3130  174.8370  137.0060 C   0  0  1  0  0  3  0  0  0  0  0  0
  181.0930  173.4990  136.8070 C   0  0  2  0  0  3  0  0  0  0  0  0
  181.3650  176.2270  139.2350 C   0  0  1  0  0  3  0  0  0  0  0  0
  184.0200  176.1290  137.5640 C   0  0  1  0  0  3  0  0  0  0  0  0
  184.1820  173.5880  137.2770 C   0  0  0  0  0  2  0  0  0  0  0  0
  187.5480  174.9170  136.8740 N   0  0  0  0  0  0  0  0  0  0  0  0
  186.2180  175.0450  137.0050 C   0  0  2  0  0  3  0  0  0  0  0  0
  186.5750  172.8630  136.9670 N   0  0  0  0  0  0  0  0  0  0  0  0
  181.5750  177.7550  139.1860 C   0  0  2  0  0  3  0  0  0  0  0  0
  185.6340  173.8170  137.0330 C   0  0  0  0  0  0  0  0  0  0  0  0
  185.4550  176.3260  137.0030 C   0  0  1  0  0  3  0  0  0  0  0  0
  180.2980  172.6020  137.7510 C   0  0  0  0  0  2  0  0  0  0  0  0
  189.0590  172.9360  136.7430 C   0  0  0  0  0  1  0  0  0  0  0  0
  181.8750  172.7020  135.9890 F   0  0  0  0  0  0  0  0  0  0  0  0
  179.9740  175.7010  138.9110 C   0  0  2  0  0  3  0  0  0  0  0  0
  179.1920  173.3550  138.4870 C   0  0  0  0  0  2  0  0  0  0  0  0
  187.7210  173.5760  136.8600 C   0  0  0  0  0  0  0  0  0  0  0  0
  181.9200  174.5130  137.6130 C   0  0  2  0  0  3  0  0  0  0  0  0
  183.2360  177.4540  137.3950 C   0  0  0  0  0  2  0  0  0  0  0  0
  180.4690  178.5720  138.5200 C   0  0  0  0  0  1  0  0  0  0  0  0
  182.8980  178.1420  138.6620 N   0  0  2  0  0  0  0  0  0  0  0  0
  179.7740  174.3150  139.5180 C   0  0  0  0  0  2  0  0  0  0  0  0
  181.0580  175.7450  137.8310 C   0  0  2  0  0  3  0  0  0  0  0  0
  183.6060  178.8460  140.8970 C   0  0  2  0  0  3  0  0  0  0  0  0
  183.9180  177.9640  139.7020 C   0  0  2  0  0  3  0  0  0  0  0  0
  184.7250  179.2410  139.9560 C   0  0  1  0  0  3  0  0  0  0  0  0
  184.2990  180.3030  139.1530 O   0  0  0  0  0  1  0  0  0  0  0  0
  184.2010  178.2220  142.1410 C   0  0  0  0  0  1  0  0  0  0  0  0
  186.7090  177.9270  135.4630 C   0  0  0  0  0  1  0  0  0  0  0  0
  185.5140  176.9980  135.6220 C   0  0  0  0  0  2  0  0  0  0  0  0
  1  5  1  1  0  0  0
  1  4  1  0  0  0  0
  1 18  1  0  0  0  0
  2 14  1  1  0  0  0
  2 18  1  0  0  0  0
  2 12  1  0  0  0  0
  6  7  1  0  0  0  0
  7 10  1  0  0  0  0
  8 10  2  0  0  0  0
  9  3  1  0  0  0  0
 10  5  1  0  0  0  0
 11  7  1  0  0  0  0
 11  4  1  0  0  0  0
 12 16  1  0  0  0  0
 13 17  1  0  0  0  0
 15  3  1  0  0  0  0
 15 22  1  0  0  0  0
 16 22  1  0  0  0  0
 17  6  2  0  0  0  0
 17  8  1  0  0  0  0
 18 23  1  0  0  0  0
 19  4  1  0  0  0  0
 19 21  1  0  0  0  0
 20  9  1  0  0  0  0
 21  9  1  0  0  0  0
 21 25  1  0  0  0  0
 23 15  1  0  0  0  0
 23  3  1  0  0  0  0
 24 28  1  0  0  0  0
 25 26  1  0  0  0  0
 25 24  1  0  0  0  0
 26 24  1  0  0  0  0
 27 26  1  0  0  0  0
 29 30  1  0  0  0  0
 30 11  1  0  0  0  0
M  END
>  <MODEL>
2

>  <REMARK>
 VINA RESULT:      -5.8      3.314      7.325
  Name = 
  2 active torsions:
  status: ('A' for Active; 'I' for Inactive)
    1  A    between atoms: C_10  and  N_25
    2  A    between atoms: C_13  and  C_30
                            x       y       z     vdW  Elec       q    Type
                         _______ _______ _______ _____ _____    ______ ____

>  <TORSDO>
F 2

$$$$
=
 OpenBabel10262421433D

 30 35  0  0  1  0  0  0  0  0999 V2000
  184.9720  177.8490  140.7080 C   0  0  1  0  0  3  0  0  0  0  0  0
  185.2070  177.6980  143.2920 C   0  0  2  0  0  3  0  0  0  0  0  0
  182.3210  179.4060  141.8210 C   0  0  1  0  0  3  0  0  0  0  0  0
  184.0190  178.1620  139.4930 C   0  0  1  0  0  3  0  0  0  0  0  0
  186.3480  178.5230  140.5010 C   0  0  0  0  0  2  0  0  0  0  0  0
  186.7840  178.2440  136.8960 N   0  0  0  0  0  0  0  0  0  0  0  0
  186.0590  178.1690  138.0240 C   0  0  2  0  0  3  0  0  0  0  0  0
  188.0960  178.7070  138.6960 N   0  0  0  0  0  0  0  0  0  0  0  0
  181.1160  179.0150  140.9400 C   0  0  2  0  0  3  0  0  0  0  0  0
  186.8510  178.4190  139.1020 C   0  0  0  0  0  0  0  0  0  0  0  0
  184.6290  177.7590  138.1220 C   0  0  1  0  0  3  0  0  0  0  0  0
  185.3710  178.7220  144.4110 C   0  0  0  0  0  2  0  0  0  0  0  0
  189.1760  178.7910  136.4490 C   0  0  0  0  0  1  0  0  0  0  0  0
  186.4550  177.2050  142.9530 F   0  0  0  0  0  0  0  0  0  0  0  0
  182.2550  179.0440  143.2980 C   0  0  2  0  0  3  0  0  0  0  0  0
  184.0420  179.1060  145.0570 C   0  0  0  0  0  2  0  0  0  0  0  0
  188.0140  178.5770  137.3510 C   0  0  0  0  0  0  0  0  0  0  0  0
  184.4770  178.3340  142.0980 C   0  0  2  0  0  3  0  0  0  0  0  0
  182.5890  177.5780  139.5900 C   0  0  0  0  0  2  0  0  0  0  0  0
  180.1160  178.0360  141.5520 C   0  0  0  0  0  1  0  0  0  0  0  0
  181.5040  178.5870  139.5840 N   0  0  2  0  0  0  0  0  0  0  0  0
  183.1900  179.9390  144.1080 C   0  0  0  0  0  2  0  0  0  0  0  0
  182.9860  178.1340  142.3070 C   0  0  2  0  0  3  0  0  0  0  0  0
  180.5880  180.6400  138.6160 C   0  0  2  0  0  3  0  0  0  0  0  0
  181.8150  179.7600  138.7590 C   0  0  2  0  0  3  0  0  0  0  0  0
  181.0240  179.7820  137.4480 C   0  0  1  0  0  3  0  0  0  0  0  0
  180.1630  178.6880  137.3330 O   0  0  0  0  0  1  0  0  0  0  0  0
  181.0280  182.0680  138.3760 C   0  0  0  0  0  1  0  0  0  0  0  0
  183.8620  176.0660  136.3750 C   0  0  0  0  0  1  0  0  0  0  0  0
  184.4570  176.2750  137.7590 C   0  0  0  0  0  2  0  0  0  0  0  0
  1  5  1  6  0  0  0
  1 18  1  0  0  0  0
  2 14  1  6  0  0  0
  2 12  1  0  0  0  0
  3 23  1  0  0  0  0
  3 15  1  0  0  0  0
  4 19  1  0  0  0  0
  4  1  1  0  0  0  0
  6 17  2  0  0  0  0
  6  7  1  0  0  0  0
  7 11  1  0  0  0  0
  7 10  1  0  0  0  0
  8 10  2  0  0  0  0
  9 20  1  0  0  0  0
  9  3  1  0  0  0  0
 10  5  1  0  0  0  0
 11  4  1  0  0  0  0
 12 16  1  0  0  0  0
 13 17  1  0  0  0  0
 15 22  1  0  0  0  0
 17  8  1  0  0  0  0
 18 23  1  0  0  0  0
 18  2  1  0  0  0  0
 21 19  1  0  0  0  0
 21  9  1  0  0  0  0
 22 16  1  0  0  0  0
 23 15  1  0  0  0  0
 24 25  1  0  0  0  0
 25 21  1  0  0  0  0
 26 24  1  0  0  0  0
 26 25  1  0  0  0  0
 27 26  1  0  0  0  0
 28 24  1  0  0  0  0
 29 30  1  0  0  0  0
 30 11  1  0  0  0  0
M  END
>  <MODEL>
3

>  <REMARK>
 VINA RESULT:      -5.5      2.329      6.296
  Name = 
  2 active torsions:
  status: ('A' for Active; 'I' for Inactive)
    1  A    between atoms: C_10  and  N_25
    2  A    between atoms: C_13  and  C_30
                            x       y       z     vdW  Elec       q    Type
                         _______ _______ _______ _____ _____    ______ ____

>  <TORSDO>
F 2

$$$$
=
 OpenBabel10262421433D

 30 35  0  0  1  0  0  0  0  0999 V2000
  183.8030  177.6160  139.6900 C   0  0  1  0  0  3  0  0  0  0  0  0
  183.1790  177.8780  142.1990 C   0  0  2  0  0  3  0  0  0  0  0  0
  180.7790  178.8570  139.6130 C   0  0  1  0  0  3  0  0  0  0  0  0
  183.2810  177.5910  138.2040 C   0  0  1  0  0  3  0  0  0  0  0  0
  185.0860  178.4720  139.7950 C   0  0  0  0  0  2  0  0  0  0  0  0
  186.7260  177.7550  136.6240 N   0  0  0  0  0  0  0  0  0  0  0  0
  185.6800  177.7240  137.4640 C   0  0  2  0  0  3  0  0  0  0  0  0
  187.3050  178.6820  138.6190 N   0  0  0  0  0  0  0  0  0  0  0  0
  179.9860  178.1510  138.4930 C   0  0  2  0  0  3  0  0  0  0  0  0
  186.0350  178.2530  138.6670 C   0  0  0  0  0  0  0  0  0  0  0  0
  184.3530  177.1020  137.1910 C   0  0  1  0  0  3  0  0  0  0  0  0
  182.8480  179.0640  143.1000 C   0  0  0  0  0  2  0  0  0  0  0  0
  189.0550  178.6210  136.8430 C   0  0  0  0  0  1  0  0  0  0  0  0
  184.5150  177.5540  142.3630 F   0  0  0  0  0  0  0  0  0  0  0  0
  180.2650  178.7050  141.0370 C   0  0  2  0  0  3  0  0  0  0  0  0
  181.3460  179.3120  143.2180 C   0  0  0  0  0  2  0  0  0  0  0  0
  187.6900  178.3490  137.3650 C   0  0  0  0  0  0  0  0  0  0  0  0
  182.8230  178.2060  140.7410 C   0  0  2  0  0  3  0  0  0  0  0  0
  181.9730  176.7980  137.9620 C   0  0  0  0  0  2  0  0  0  0  0  0
  178.9540  177.1170  138.9400 C   0  0  0  0  0  1  0  0  0  0  0  0
  180.8480  177.6020  137.4300 N   0  0  2  0  0  0  0  0  0  0  0  0
  180.7730  179.8480  141.9130 C   0  0  0  0  0  2  0  0  0  0  0  0
  181.3790  177.7950  140.5130 C   0  0  2  0  0  3  0  0  0  0  0  0
  180.0910  179.4890  136.0670 C   0  0  2  0  0  3  0  0  0  0  0  0
  181.2860  178.6810  136.5360 C   0  0  2  0  0  3  0  0  0  0  0  0
  180.7490  178.5160  135.1120 C   0  0  1  0  0  3  0  0  0  0  0  0
  179.9430  177.3830  134.9800 O   0  0  0  0  0  1  0  0  0  0  0  0
  180.5430  180.8950  135.7350 C   0  0  0  0  0  1  0  0  0  0  0  0
  184.4280  175.0760  135.6430 C   0  0  0  0  0  1  0  0  0  0  0  0
  184.4760  175.5740  137.0800 C   0  0  0  0  0  2  0  0  0  0  0  0
  1  5  1  6  0  0  0
  1 18  1  0  0  0  0
  2 14  1  6  0  0  0
  2 12  1  0  0  0  0
  3 23  1  0  0  0  0
  3 15  1  0  0  0  0
  4  1  1  0  0  0  0
  6 17  2  0  0  0  0
  6  7  1  0  0  0  0
  7 10  1  0  0  0  0
  8 10  2  0  0  0  0
  9 20  1  0  0  0  0
  9  3  1  0  0  0  0
 10  5  1  0  0  0  0
 11  7  1  0  0  0  0
 11  4  1  0  0  0  0
 12 16  1  0  0  0  0
 13 17  1  0  0  0  0
 15 22  1  0  0  0  0
 17  8  1  0  0  0  0
 18  2  1  0  0  0  0
 19  4  1  0  0  0  0
 21 19  1  0  0  0  0
 21  9  1  0  0  0  0
 22 16  1  0  0  0  0
 23 18  1  0  0  0  0
 23 15  1  0  0  0  0
 24 25  1  0  0  0  0
 25 21  1  0  0  0  0
 26 24  1  0  0  0  0
 26 25  1  0  0  0  0
 27 26  1  0  0  0  0
 28 24  1  0  0  0  0
 29 30  1  0  0  0  0
 30 11  1  0  0  0  0
M  END
>  <MODEL>
4

>  <REMARK>
 VINA RESULT:      -5.3      2.629      6.392
  Name = 
  2 active torsions:
  status: ('A' for Active; 'I' for Inactive)
    1  A    between atoms: C_10  and  N_25
    2  A    between atoms: C_13  and  C_30
                            x       y       z     vdW  Elec       q    Type
                         _______ _______ _______ _____ _____    ______ ____

>  <TORSDO>
F 2

$$$$
=
 OpenBabel10262421433D

 30 35  0  0  1  0  0  0  0  0999 V2000
  184.8690  178.8430  141.2100 C   0  0  1  0  0  3  0  0  0  0  0  0
  186.3580  178.9220  143.3390 C   0  0  2  0  0  3  0  0  0  0  0  0
  187.6470  177.3960  140.2700 C   0  0  1  0  0  3  0  0  0  0  0  0
  184.8170  178.6060  139.6530 C   0  0  1  0  0  3  0  0  0  0  0  0
  183.7030  178.1050  141.9060 C   0  0  0  0  0  2  0  0  0  0  0  0
  181.0320  178.4450  139.4540 N   0  0  0  0  0  0  0  0  0  0  0  0
  182.3120  178.5310  139.8490 C   0  0  2  0  0  3  0  0  0  0  0  0
  181.2070  177.8750  141.6490 N   0  0  0  0  0  0  0  0  0  0  0  0
  187.9870  177.8670  138.8400 C   0  0  2  0  0  3  0  0  0  0  0  0
  182.4120  178.2160  141.1690 C   0  0  0  0  0  0  0  0  0  0  0  0
  183.4570  179.0090  139.0220 C   0  0  1  0  0  3  0  0  0  0  0  0
  186.9810  177.8660  144.2470 C   0  0  0  0  0  2  0  0  0  0  0  0
  178.9320  177.7880  140.6290 C   0  0  0  0  0  1  0  0  0  0  0  0
  185.1760  179.3600  143.9110 F   0  0  0  0  0  0  0  0  0  0  0  0
  188.6440  177.7270  141.3720 C   0  0  2  0  0  3  0  0  0  0  0  0
  188.4210  177.5350  143.8630 C   0  0  0  0  0  2  0  0  0  0  0  0
  180.3970  178.0400  140.5770 C   0  0  0  0  0  0  0  0  0  0  0  0
  186.1580  178.3520  141.9260 C   0  0  2  0  0  3  0  0  0  0  0  0
  185.9570  179.2590  138.8330 C   0  0  0  0  0  2  0  0  0  0  0  0
  189.1220  178.8810  138.7120 C   0  0  0  0  0  1  0  0  0  0  0  0
  186.8040  178.3070  138.0780 N   0  0  2  0  0  0  0  0  0  0  0  0
  188.4760  176.7680  142.5480 C   0  0  0  0  0  2  0  0  0  0  0  0
  187.4250  178.6220  141.1340 C   0  0  2  0  0  3  0  0  0  0  0  0
  187.0000  176.1770  136.8880 C   0  0  2  0  0  3  0  0  0  0  0  0
  186.0610  177.1380  137.5930 C   0  0  2  0  0  3  0  0  0  0  0  0
  186.0640  177.0360  136.0640 C   0  0  1  0  0  3  0  0  0  0  0  0
  186.7910  178.0690  135.4680 O   0  0  0  0  0  1  0  0  0  0  0  0
  186.4360  174.7750  136.9810 C   0  0  0  0  0  1  0  0  0  0  0  0
  181.8990  180.9080  138.3320 C   0  0  0  0  0  1  0  0  0  0  0  0
  183.3180  180.5080  138.7090 C   0  0  0  0  0  2  0  0  0  0  0  0
  1  5  1  1  0  0  0
  1 18  1  0  0  0  0
  2 14  1  1  0  0  0
  2 12  1  0  0  0  0
  3 23  1  0  0  0  0
  3 15  1  0  0  0  0
  4  1  1  0  0  0  0
  6  7  1  0  0  0  0
  6 17  2  0  0  0  0
  7 10  1  0  0  0  0
  9  3  1  0  0  0  0
 10  8  2  0  0  0  0
 10  5  1  0  0  0  0
 11  4  1  0  0  0  0
 11  7  1  0  0  0  0
 15 22  1  0  0  0  0
 16 12  1  0  0  0  0
 17 13  1  0  0  0  0
 17  8  1  0  0  0  0
 18  2  1  0  0  0  0
 19  4  1  0  0  0  0
 20  9  1  0  0  0  0
 21 19  1  0  0  0  0
 21  9  1  0  0  0  0
 22 16  1  0  0  0  0
 23 15  1  0  0  0  0
 23 18  1  0  0  0  0
 24 28  1  0  0  0  0
 24 25  1  0  0  0  0
 25 21  1  0  0  0  0
 26 24  1  0  0  0  0
 26 25  1  0  0  0  0
 27 26  1  0  0  0  0
 29 30  1  0  0  0  0
 30 11  1  0  0  0  0
M  END
>  <MODEL>
5

>  <REMARK>
 VINA RESULT:      -5.1      2.362      3.934
  Name = 
  2 active torsions:
  status: ('A' for Active; 'I' for Inactive)
    1  A    between atoms: C_10  and  N_25
    2  A    between atoms: C_13  and  C_30
                            x       y       z     vdW  Elec       q    Type
                         _______ _______ _______ _____ _____    ______ ____

>  <TORSDO>
F 2

$$$$
=
 OpenBabel10262421433D

 30 35  0  0  1  0  0  0  0  0999 V2000
  185.8510  175.3090  136.3450 C   0  0  1  0  0  3  0  0  0  0  0  0
  184.4420  173.4080  135.2680 C   0  0  2  0  0  3  0  0  0  0  0  0
  182.9360  175.5810  137.8010 C   0  0  1  0  0  3  0  0  0  0  0  0
  185.8340  176.6290  137.2050 C   0  0  1  0  0  3  0  0  0  0  0  0
  186.9750  174.3650  136.8300 C   0  0  0  0  0  2  0  0  0  0  0  0
  189.5850  176.7260  137.7640 N   0  0  0  0  0  0  0  0  0  0  0  0
  188.3290  176.4070  137.4120 C   0  0  2  0  0  3  0  0  0  0  0  0
  189.4340  174.4920  137.3630 N   0  0  0  0  0  0  0  0  0  0  0  0
  182.5900  177.0800  137.9320 C   0  0  2  0  0  3  0  0  0  0  0  0
  188.2460  175.0750  137.1450 C   0  0  0  0  0  0  0  0  0  0  0  0
  187.2020  177.3640  137.2170 C   0  0  1  0  0  3  0  0  0  0  0  0
  183.7640  172.1490  135.7980 C   0  0  0  0  0  2  0  0  0  0  0  0
  191.6600  175.3750  138.0610 C   0  0  0  0  0  1  0  0  0  0  0  0
  185.6730  173.0620  134.7390 F   0  0  0  0  0  0  0  0  0  0  0  0
  182.0040  174.7190  136.9610 C   0  0  2  0  0  3  0  0  0  0  0  0
  182.2900  172.3690  136.1300 C   0  0  0  0  0  2  0  0  0  0  0  0
  190.2200  175.5330  137.7260 C   0  0  0  0  0  0  0  0  0  0  0  0
  184.5500  174.4600  136.3830 C   0  0  2  0  0  3  0  0  0  0  0  0
  184.7260  177.6500  136.8500 C   0  0  0  0  0  2  0  0  0  0  0  0
  181.5380  177.6210  136.9650 C   0  0  0  0  0  1  0  0  0  0  0  0
  183.7800  177.9500  137.9500 N   0  0  2  0  0  0  0  0  0  0  0  0
  182.1310  173.2510  137.3620 C   0  0  0  0  0  2  0  0  0  0  0  0
  183.2840  175.2990  136.3540 C   0  0  2  0  0  3  0  0  0  0  0  0
  183.4920  178.5310  140.3100 C   0  0  2  0  0  3  0  0  0  0  0  0
  184.4090  177.9070  139.2750 C   0  0  2  0  0  3  0  0  0  0  0  0
  184.7010  179.3050  139.8300 C   0  0  1  0  0  3  0  0  0  0  0  0
  184.2860  180.3150  138.9600 O   0  0  0  0  0  1  0  0  0  0  0  0
  183.7930  177.9280  141.6660 C   0  0  0  0  0  1  0  0  0  0  0  0
  188.0610  177.5190  134.8200 C   0  0  0  0  0  1  0  0  0  0  0  0
  187.4530  178.2660  135.9980 C   0  0  0  0  0  2  0  0  0  0  0  0
  1 18  1  0  0  0  0
  1  5  1  1  0  0  0
  1  4  1  0  0  0  0
  2 14  1  1  0  0  0
  2 12  1  0  0  0  0
  2 18  1  0  0  0  0
  3  9  1  0  0  0  0
  4 11  1  0  0  0  0
  5 10  1  0  0  0  0
  7  6  1  0  0  0  0
  8 17  1  0  0  0  0
  9 21  1  0  0  0  0
 10  8  2  0  0  0  0
 10  7  1  0  0  0  0
 11  7  1  0  0  0  0
 12 16  1  0  0  0  0
 15 22  1  0  0  0  0
 15  3  1  0  0  0  0
 16 22  1  0  0  0  0
 17  6  2  0  0  0  0
 17 13  1  0  0  0  0
 19  4  1  0  0  0  0
 19 21  1  0  0  0  0
 20  9  1  0  0  0  0
 21 25  1  0  0  0  0
 23 18  1  0  0  0  0
 23 15  1  0  0  0  0
 23  3  1  0  0  0  0
 24 28  1  0  0  0  0
 25 26  1  0  0  0  0
 25 24  1  0  0  0  0
 26 24  1  0  0  0  0
 27 26  1  0  0  0  0
 29 30  1  0  0  0  0
 30 11  1  0  0  0  0
M  END
>  <MODEL>
6

>  <REMARK>
 VINA RESULT:      -5.1      2.768      6.443
  Name = 
  2 active torsions:
  status: ('A' for Active; 'I' for Inactive)
    1  A    between atoms: C_10  and  N_25
    2  A    between atoms: C_13  and  C_30
                            x       y       z     vdW  Elec       q    Type
                         _______ _______ _______ _____ _____    ______ ____

>  <TORSDO>
F 2

$$$$
=
 OpenBabel10262421433D

 30 35  0  0  1  0  0  0  0  0999 V2000
  184.4110  178.2690  138.8440 C   0  0  1  0  0  3  0  0  0  0  0  0
  186.6850  178.0590  137.6030 C   0  0  2  0  0  3  0  0  0  0  0  0
  183.8600  175.9580  136.5980 C   0  0  1  0  0  3  0  0  0  0  0  0
  182.8720  177.9310  138.8300 C   0  0  1  0  0  3  0  0  0  0  0  0
  185.0110  177.9900  140.2420 C   0  0  0  0  0  2  0  0  0  0  0  0
  182.2640  178.9370  142.4370 N   0  0  0  0  0  0  0  0  0  0  0  0
  182.7930  178.6540  141.2360 C   0  0  2  0  0  3  0  0  0  0  0  0
  184.4910  178.5260  142.6480 N   0  0  0  0  0  0  0  0  0  0  0  0
  182.4540  176.1790  136.0000 C   0  0  2  0  0  3  0  0  0  0  0  0
  184.1310  178.4350  141.3590 C   0  0  0  0  0  0  0  0  0  0  0  0
  182.0750  178.6830  139.9300 C   0  0  1  0  0  3  0  0  0  0  0  0
  187.7090  176.9410  137.4310 C   0  0  0  0  0  2  0  0  0  0  0  0
  183.2310  179.0650  144.7320 C   0  0  0  0  0  1  0  0  0  0  0  0
  187.1000  178.8880  138.6310 F   0  0  0  0  0  0  0  0  0  0  0  0
  185.0460  176.0530  135.6490 C   0  0  2  0  0  3  0  0  0  0  0  0
  187.5040  176.1480  136.1430 C   0  0  0  0  0  2  0  0  0  0  0  0
  183.3290  178.8440  143.2650 C   0  0  0  0  0  0  0  0  0  0  0  0
  185.2900  177.4630  137.8470 C   0  0  2  0  0  3  0  0  0  0  0  0
  182.1510  178.1270  137.4740 C   0  0  0  0  0  2  0  0  0  0  0  0
  182.4000  176.7760  134.5950 C   0  0  0  0  0  1  0  0  0  0  0  0
  181.5440  176.8990  136.9090 N   0  0  2  0  0  0  0  0  0  0  0  0
  186.2440  175.2950  136.2170 C   0  0  0  0  0  2  0  0  0  0  0  0
  184.6300  177.2590  136.4950 C   0  0  2  0  0  3  0  0  0  0  0  0
  180.3250  174.8110  137.2910 C   0  0  2  0  0  3  0  0  0  0  0  0
  181.0400  175.9830  137.9380 C   0  0  2  0  0  3  0  0  0  0  0  0
  179.5100  175.9020  137.9520 C   0  0  1  0  0  3  0  0  0  0  0  0
  178.9310  176.7060  136.9670 O   0  0  0  0  0  1  0  0  0  0  0  0
  180.3970  173.6150  138.2160 C   0  0  0  0  0  1  0  0  0  0  0  0
  180.1930  180.3980  139.7780 C   0  0  0  0  0  1  0  0  0  0  0  0
  181.6720  180.1180  139.5580 C   0  0  0  0  0  2  0  0  0  0  0  0
  1  5  1  1  0  0  0
  2 18  1  0  0  0  0
  2 14  1  1  0  0  0
  4  1  1  0  0  0  0
  4 11  1  0  0  0  0
  5 10  1  0  0  0  0
  6 17  2  0  0  0  0
  7 10  1  0  0  0  0
  7  6  1  0  0  0  0
  8 17  1  0  0  0  0
  9  3  1  0  0  0  0
  9 21  1  0  0  0  0
 10  8  2  0  0  0  0
 11  7  1  0  0  0  0
 12  2  1  0  0  0  0
 15 22  1  0  0  0  0
 15 23  1  0  0  0  0
 15  3  1  0  0  0  0
 16 22  1  0  0  0  0
 16 12  1  0  0  0  0
 17 13  1  0  0  0  0
 18  1  1  0  0  0  0
 19  4  1  0  0  0  0
 20  9  1  0  0  0  0
 21 19  1  0  0  0  0
 21 25  1  0  0  0  0
 23  3  1  0  0  0  0
 23 18  1  0  0  0  0
 24 25  1  0  0  0  0
 24 26  1  0  0  0  0
 24 28  1  0  0  0  0
 25 26  1  0  0  0  0
 27 26  1  0  0  0  0
 30 29  1  0  0  0  0
 30 11  1  0  0  0  0
M  END
>  <MODEL>
7

>  <REMARK>
 VINA RESULT:      -4.9      1.874      2.826
  Name = 
  2 active torsions:
  status: ('A' for Active; 'I' for Inactive)
    1  A    between atoms: C_10  and  N_25
    2  A    between atoms: C_13  and  C_30
                            x       y       z     vdW  Elec       q    Type
                         _______ _______ _______ _____ _____    ______ ____

>  <TORSDO>
F 2

$$$$
=
 OpenBabel10262421433D

 30 35  0  0  1  0  0  0  0  0999 V2000
  191.3100  176.9500  139.0950 C   0  0  1  0  0  3  0  0  0  0  0  0
  193.8960  176.7140  139.2150 C   0  0  2  0  0  3  0  0  0  0  0  0
  191.9510  174.4130  137.1340 C   0  0  1  0  0  3  0  0  0  0  0  0
  189.9900  176.5490  138.3340 C   0  0  1  0  0  3  0  0  0  0  0  0
  191.1070  176.8320  140.6230 C   0  0  0  0  0  2  0  0  0  0  0  0
  187.6380  177.8720  141.0010 N   0  0  0  0  0  0  0  0  0  0  0  0
  188.7030  177.4960  140.2750 C   0  0  2  0  0  3  0  0  0  0  0  0
  189.4390  177.5740  142.3590 N   0  0  0  0  0  0  0  0  0  0  0  0
  191.0510  174.5180  135.8840 C   0  0  2  0  0  3  0  0  0  0  0  0
  189.7860  177.3450  141.0840 C   0  0  0  0  0  0  0  0  0  0  0  0
  188.7520  177.3700  138.7900 C   0  0  1  0  0  3  0  0  0  0  0  0
  194.8480  175.6280  139.7050 C   0  0  0  0  0  2  0  0  0  0  0  0
  187.2980  178.2590  143.4420 C   0  0  0  0  0  1  0  0  0  0  0  0
  193.7380  177.6550  140.2180 F   0  0  0  0  0  0  0  0  0  0  0  0
  193.4570  174.4650  136.9180 C   0  0  2  0  0  3  0  0  0  0  0  0
  195.3190  174.7070  138.5820 C   0  0  0  0  0  2  0  0  0  0  0  0
  188.1290  177.9020  142.2610 C   0  0  0  0  0  0  0  0  0  0  0  0
  192.5630  176.0890  138.7740 C   0  0  2  0  0  3  0  0  0  0  0  0
  190.0650  176.5840  136.7880 C   0  0  0  0  0  2  0  0  0  0  0  0
  191.7310  174.9750  134.5950 C   0  0  0  0  0  1  0  0  0  0  0  0
  189.8150  175.2850  136.1230 N   0  0  2  0  0  0  0  0  0  0  0  0
  194.1860  173.8150  138.0920 C   0  0  0  0  0  2  0  0  0  0  0  0
  192.6840  175.7290  137.3040 C   0  0  2  0  0  3  0  0  0  0  0  0
  188.3650  173.3200  135.9490 C   0  0  2  0  0  3  0  0  0  0  0  0
  188.8420  174.4520  136.8400 C   0  0  2  0  0  3  0  0  0  0  0  0
  187.4490  174.4990  136.2040 C   0  0  1  0  0  3  0  0  0  0  0  0
  187.4150  175.3110  135.0680 O   0  0  0  0  0  1  0  0  0  0  0  0
  187.9310  172.1570  136.8150 C   0  0  0  0  0  1  0  0  0  0  0  0
  187.4730  178.8090  137.1170 C   0  0  0  0  0  1  0  0  0  0  0  0
  188.6170  178.7460  138.1180 C   0  0  0  0  0  2  0  0  0  0  0  0
  1  5  1  1  0  0  0
  2 12  1  0  0  0  0
  2 14  1  1  0  0  0
  3 23  1  0  0  0  0
  4 11  1  0  0  0  0
  4  1  1  0  0  0  0
  5 10  1  0  0  0  0
  6 17  2  0  0  0  0
  7  6  1  0  0  0  0
  7 10  1  0  0  0  0
  9 21  1  0  0  0  0
  9  3  1  0  0  0  0
 10  8  2  0  0  0  0
 11  7  1  0  0  0  0
 15  3  1  0  0  0  0
 15 23  1  0  0  0  0
 15 22  1  0  0  0  0
 16 12  1  0  0  0  0
 17  8  1  0  0  0  0
 17 13  1  0  0  0  0
 18  1  1  0  0  0  0
 18  2  1  0  0  0  0
 19  4  1  0  0  0  0
 20  9  1  0  0  0  0
 21 19  1  0  0  0  0
 21 25  1  0  0  0  0
 22 16  1  0  0  0  0
 23 18  1  0  0  0  0
 24 26  1  0  0  0  0
 24 28  1  0  0  0  0
 24 25  1  0  0  0  0
 26 25  1  0  0  0  0
 27 26  1  0  0  0  0
 29 30  1  0  0  0  0
 30 11  1  0  0  0  0
M  END
>  <MODEL>
8

>  <REMARK>
 VINA RESULT:      -4.7      3.405      4.941
  Name = 
  2 active torsions:
  status: ('A' for Active; 'I' for Inactive)
    1  A    between atoms: C_10  and  N_25
    2  A    between atoms: C_13  and  C_30
                            x       y       z     vdW  Elec       q    Type
                         _______ _______ _______ _____ _____    ______ ____

>  <TORSDO>
F 2

$$$$
=
 OpenBabel10262421433D

 30 35  0  0  1  0  0  0  0  0999 V2000
  190.7870  176.8450  139.2720 C   0  0  1  0  0  3  0  0  0  0  0  0
  193.2540  176.7540  138.4580 C   0  0  2  0  0  3  0  0  0  0  0  0
  190.6940  174.7810  136.7380 C   0  0  1  0  0  3  0  0  0  0  0  0
  189.2830  176.5180  138.9380 C   0  0  1  0  0  3  0  0  0  0  0  0
  191.1220  176.4220  140.7200 C   0  0  0  0  0  2  0  0  0  0  0  0
  188.0040  177.1500  142.4530 N   0  0  0  0  0  0  0  0  0  0  0  0
  188.7500  176.9900  141.3490 C   0  0  2  0  0  3  0  0  0  0  0  0
  190.1600  176.7090  143.0310 N   0  0  0  0  0  0  0  0  0  0  0  0
  189.4200  175.0690  135.9160 C   0  0  2  0  0  3  0  0  0  0  0  0
  190.0450  176.7530  141.6950 C   0  0  0  0  0  0  0  0  0  0  0  0
  188.2850  177.1560  139.9430 C   0  0  1  0  0  3  0  0  0  0  0  0
  194.3090  175.6540  138.3660 C   0  0  0  0  0  2  0  0  0  0  0  0
  188.5280  177.0370  144.8890 C   0  0  0  0  0  1  0  0  0  0  0  0
  193.4600  177.4700  139.6240 F   0  0  0  0  0  0  0  0  0  0  0  0
  192.0340  174.9670  136.0400 C   0  0  2  0  0  3  0  0  0  0  0  0
  194.3570  175.0000  136.9870 C   0  0  0  0  0  2  0  0  0  0  0  0
  188.8990  176.9670  143.4510 C   0  0  0  0  0  0  0  0  0  0  0  0
  191.8460  176.1430  138.3780 C   0  0  2  0  0  3  0  0  0  0  0  0
  188.8220  176.8560  137.4990 C   0  0  0  0  0  2  0  0  0  0  0  0
  189.6180  175.8090  134.5940 C   0  0  0  0  0  1  0  0  0  0  0  0
  188.3470  175.6960  136.7090 N   0  0  2  0  0  0  0  0  0  0  0  0
  193.1170  174.1500  136.7390 C   0  0  0  0  0  2  0  0  0  0  0  0
  191.4510  176.0820  136.9130 C   0  0  2  0  0  3  0  0  0  0  0  0
  187.1470  173.5640  136.6480 C   0  0  2  0  0  3  0  0  0  0  0  0
  187.6740  174.6810  137.5280 C   0  0  2  0  0  3  0  0  0  0  0  0
  186.1780  174.5770  137.2190 C   0  0  1  0  0  3  0  0  0  0  0  0
  185.7850  175.4600  136.2100 O   0  0  0  0  0  1  0  0  0  0  0  0
  187.0690  172.2890  137.4590 C   0  0  0  0  0  1  0  0  0  0  0  0
  186.4390  178.8890  139.6310 C   0  0  0  0  0  1  0  0  0  0  0  0
  187.9370  178.6250  139.6510 C   0  0  0  0  0  2  0  0  0  0  0  0
  1  5  1  1  0  0  0
  2 14  1  1  0  0  0
  3 23  1  0  0  0  0
  4  1  1  0  0  0  0
  4 11  1  0  0  0  0
  5 10  1  0  0  0  0
  6 17  2  0  0  0  0
  7 10  1  0  0  0  0
  7  6  1  0  0  0  0
  8 17  1  0  0  0  0
  9 21  1  0  0  0  0
  9  3  1  0  0  0  0
 10  8  2  0  0  0  0
 11  7  1  0  0  0  0
 12  2  1  0  0  0  0
 15  3  1  0  0  0  0
 15 22  1  0  0  0  0
 15 23  1  0  0  0  0
 16 12  1  0  0  0  0
 17 13  1  0  0  0  0
 18  2  1  0  0  0  0
 18  1  1  0  0  0  0
 19  4  1  0  0  0  0
 20  9  1  0  0  0  0
 21 19  1  0  0  0  0
 21 25  1  0  0  0  0
 22 16  1  0  0  0  0
 23 18  1  0  0  0  0
 24 26  1  0  0  0  0
 24 28  1  0  0  0  0
 24 25  1  0  0  0  0
 26 25  1  0  0  0  0
 27 26  1  0  0  0  0
 29 30  1  0  0  0  0
 30 11  1  0  0  0  0
M  END
>  <MODEL>
9

>  <REMARK>
 VINA RESULT:      -4.5      2.919      4.315
  Name = 
  2 active torsions:
  status: ('A' for Active; 'I' for Inactive)
    1  A    between atoms: C_10  and  N_25
    2  A    between atoms: C_13  and  C_30
                            x       y       z     vdW  Elec       q    Type
                         _______ _______ _______ _____ _____    ______ ____

>  <TORSDO>
F 2

$$$$
