=
 OpenBabel10262420493D

 28 34  0  0  1  0  0  0  0  0999 V2000
  188.8290  177.1400  145.4070 C   0  0  2  0  0  3  0  0  0  0  0  0
  188.9510  176.5040  144.0060 C   0  0  1  0  0  3  0  0  0  0  0  0
  186.9490  177.5960  143.2260 C   0  0  2  0  0  3  0  0  0  0  0  0
  183.0220  179.2510  144.0690 C   0  0  0  0  0  2  0  0  0  0  0  0
  189.1760  179.1800  148.0540 C   0  0  0  0  0  1  0  0  0  0  0  0
  191.1610  176.9510  142.6690 C   0  0  1  0  0  3  0  0  0  0  0  0
  188.3710  177.3360  142.9440 N   0  0  1  0  0  0  0  0  0  0  0  0
  191.4590  177.0280  144.1490 C   0  0  0  0  0  2  0  0  0  0  0  0
  184.0020  177.9300  141.3960 C   0  0  0  0  0  2  0  0  0  0  0  0
  185.3820  178.8630  144.8810 C   0  0  2  0  0  3  0  0  0  0  0  0
  190.3920  176.0530  143.6600 C   0  0  1  0  0  3  0  0  0  0  0  0
  181.7670  178.9330  141.9300 C   0  0  0  0  0  0  0  0  0  0  0  0
  184.3290  178.4990  143.8240 C   0  0  2  0  0  3  0  0  0  0  0  0
  186.3140  178.4850  142.1530 C   0  0  0  0  0  2  0  0  0  0  0  0
  182.7290  178.6440  141.0420 C   0  0  0  0  0  3  0  0  0  0  0  0
  187.1990  178.2280  146.9800 N   0  0  0  0  0  0  0  0  0  0  0  0
  186.6870  178.1380  144.6130 C   0  0  0  0  0  0  0  0  0  0  0  0
  184.8210  178.7500  142.3830 C   0  0  1  0  0  3  0  0  0  0  0  0
  188.9400  176.6950  147.9110 C   0  0  0  0  0  2  0  0  0  0  0  0
  185.9370  178.8870  147.3080 C   0  0  0  0  0  2  0  0  0  0  0  0
  188.1820  178.0310  148.0460 C   0  0  1  0  0  3  0  0  0  0  0  0
  190.4860  178.2510  142.1880 C   0  0  0  0  0  2  0  0  0  0  0  0
  180.6530  179.5780  141.4980 F   0  0  0  0  0  0  0  0  0  0  0  0
  181.8590  178.5500  143.3780 C   0  0  0  0  0  2  0  0  0  0  0  0
  184.8690  178.5280  146.2840 C   0  0  0  0  0  2  0  0  0  0  0  0
  188.9590  176.0840  146.4990 C   0  0  0  0  0  2  0  0  0  0  0  0
  187.5350  177.8730  145.6250 C   0  0  0  0  0  0  0  0  0  0  0  0
  189.1490  178.5670  142.8450 C   0  0  0  0  0  2  0  0  0  0  0  0
  1 27  1  0  0  0  0
  1 26  1  1  0  0  0
  2  1  1  0  0  0  0
  3 17  1  0  0  0  0
  6 11  1  0  0  0  0
  6  8  1  0  0  0  0
  7  3  1  0  0  0  0
  7  2  1  0  0  0  0
  9 18  1  0  0  0  0
 10 25  1  0  0  0  0
 11  2  1  0  0  0  0
 11  8  1  0  0  0  0
 12 24  1  0  0  0  0
 13  4  1  0  0  0  0
 13 10  1  0  0  0  0
 14 18  1  0  0  0  0
 14  3  1  0  0  0  0
 15  9  1  0  0  0  0
 15 12  2  0  0  0  0
 16 20  1  0  0  0  0
 16 21  1  0  0  0  0
 17 10  1  0  0  0  0
 17 27  2  0  0  0  0
 18 13  1  0  0  0  0
 19 21  1  0  0  0  0
 21  5  1  0  0  0  0
 22  6  1  0  0  0  0
 22 28  1  0  0  0  0
 23 12  1  0  0  0  0
 24  4  1  0  0  0  0
 25 20  1  0  0  0  0
 26 19  1  0  0  0  0
 27 16  1  0  0  0  0
 28  7  1  0  0  0  0
M  END
>  <MODEL>
1

>  <REMARK>
 VINA RESULT:      -8.8      0.000      0.000
  Name = 
  0 active torsions:
  status: ('A' for Active; 'I' for Inactive)
                            x       y       z     vdW  Elec       q    Type
                         _______ _______ _______ _____ _____    ______ ____

>  <TORSDO>
F 0

$$$$
=
 OpenBabel10262420493D

 28 34  0  0  1  0  0  0  0  0999 V2000
  189.7860  177.0260  142.2280 C   0  0  2  0  0  3  0  0  0  0  0  0
  189.0740  176.6690  140.9060 C   0  0  1  0  0  3  0  0  0  0  0  0
  187.0380  177.7640  141.5900 C   0  0  2  0  0  3  0  0  0  0  0  0
  184.3390  178.9940  144.7640 C   0  0  0  0  0  2  0  0  0  0  0  0
  191.6550  178.5570  144.5630 C   0  0  0  0  0  1  0  0  0  0  0  0
  190.1880  177.4890  138.6790 C   0  0  1  0  0  3  0  0  0  0  0  0
  188.0470  177.6470  140.5240 N   0  0  1  0  0  0  0  0  0  0  0  0
  191.2620  177.3080  139.7280 C   0  0  0  0  0  2  0  0  0  0  0  0
  183.5950  178.2530  141.8070 C   0  0  0  0  0  2  0  0  0  0  0  0
  186.7270  178.6050  144.0390 C   0  0  2  0  0  3  0  0  0  0  0  0
  190.0520  176.3780  139.7420 C   0  0  1  0  0  3  0  0  0  0  0  0
  182.0920  179.0030  143.6670 C   0  0  0  0  0  0  0  0  0  0  0  0
  185.2460  178.3800  143.6980 C   0  0  2  0  0  3  0  0  0  0  0  0
  185.9640  178.7960  141.2400 C   0  0  0  0  0  2  0  0  0  0  0  0
  182.3810  178.9410  142.3600 C   0  0  0  0  0  3  0  0  0  0  0  0
  189.3670  177.7030  144.6120 N   0  0  0  0  0  0  0  0  0  0  0  0
  187.6210  178.0230  142.9620 C   0  0  0  0  0  0  0  0  0  0  0  0
  184.8670  178.9240  142.3050 C   0  0  1  0  0  3  0  0  0  0  0  0
  191.2450  176.1320  144.1130 C   0  0  0  0  0  2  0  0  0  0  0  0
  188.5380  178.2120  145.7020 C   0  0  0  0  0  2  0  0  0  0  0  0
  190.7650  177.3720  144.8930 C   0  0  1  0  0  3  0  0  0  0  0  0
  189.4300  178.8120  138.9080 C   0  0  0  0  0  2  0  0  0  0  0  0
  180.9620  179.6480  144.0570 F   0  0  0  0  0  0  0  0  0  0  0  0
  182.9530  178.3640  144.7180 C   0  0  0  0  0  2  0  0  0  0  0  0
  187.0630  177.9860  145.3980 C   0  0  0  0  0  2  0  0  0  0  0  0
  190.4440  175.7960  142.8440 C   0  0  0  0  0  2  0  0  0  0  0  0
  188.8730  177.6260  143.2600 C   0  0  0  0  0  0  0  0  0  0  0  0
  188.7040  178.9200  140.2420 C   0  0  0  0  0  2  0  0  0  0  0  0
  1 26  1  1  0  0  0
  1 27  1  0  0  0  0
  2  1  1  0  0  0  0
  3 17  1  0  0  0  0
  5 21  1  0  0  0  0
  6 22  1  0  0  0  0
  6  8  1  0  0  0  0
  6 11  1  0  0  0  0
  7  2  1  0  0  0  0
  7  3  1  0  0  0  0
  8 11  1  0  0  0  0
  9 18  1  0  0  0  0
  9 15  1  0  0  0  0
 10 25  1  0  0  0  0
 11  2  1  0  0  0  0
 12 23  1  0  0  0  0
 12 24  1  0  0  0  0
 13 10  1  0  0  0  0
 13  4  1  0  0  0  0
 14  3  1  0  0  0  0
 14 18  1  0  0  0  0
 15 12  2  0  0  0  0
 16 21  1  0  0  0  0
 16 20  1  0  0  0  0
 17 27  2  0  0  0  0
 17 10  1  0  0  0  0
 18 13  1  0  0  0  0
 19 21  1  0  0  0  0
 22 28  1  0  0  0  0
 24  4  1  0  0  0  0
 25 20  1  0  0  0  0
 26 19  1  0  0  0  0
 27 16  1  0  0  0  0
 28  7  1  0  0  0  0
M  END
>  <MODEL>
2

>  <REMARK>
 VINA RESULT:      -8.4      1.796      2.878
  Name = 
  0 active torsions:
  status: ('A' for Active; 'I' for Inactive)
                            x       y       z     vdW  Elec       q    Type
                         _______ _______ _______ _____ _____    ______ ____

>  <TORSDO>
F 0

$$$$
=
 OpenBabel10262420493D

 28 34  0  0  1  0  0  0  0  0999 V2000
  187.5950  177.7240  143.7370 C   0  0  2  0  0  3  0  0  0  0  0  0
  188.8530  176.8350  143.8320 C   0  0  1  0  0  3  0  0  0  0  0  0
  189.3770  177.1530  141.5010 C   0  0  2  0  0  3  0  0  0  0  0  0
  188.0370  177.8720  137.4320 C   0  0  0  0  0  2  0  0  0  0  0  0
  185.4890  180.3400  143.8480 C   0  0  0  0  0  1  0  0  0  0  0  0
  190.6830  177.5220  145.5790 C   0  0  1  0  0  3  0  0  0  0  0  0
  189.9000  177.2160  142.8760 N   0  0  1  0  0  0  0  0  0  0  0  0
  189.3370  178.0150  146.0590 C   0  0  0  0  0  2  0  0  0  0  0  0
  190.5750  176.2700  138.3500 C   0  0  0  0  0  2  0  0  0  0  0  0
  187.6830  178.3140  139.8940 C   0  0  2  0  0  3  0  0  0  0  0  0
  189.4070  176.7090  145.2730 C   0  0  1  0  0  3  0  0  0  0  0  0
  189.7720  176.7490  136.0240 C   0  0  0  0  0  0  0  0  0  0  0  0
  188.4130  177.4520  138.8520 C   0  0  2  0  0  3  0  0  0  0  0  0
  190.4330  177.5710  140.4750 C   0  0  0  0  0  2  0  0  0  0  0  0
  190.7750  176.5230  136.8840 C   0  0  0  0  0  3  0  0  0  0  0  0
  185.9350  178.6810  142.1110 N   0  0  0  0  0  0  0  0  0  0  0  0
  188.0850  177.9140  141.3000 C   0  0  0  0  0  0  0  0  0  0  0  0
  189.9460  177.4820  139.0230 C   0  0  1  0  0  3  0  0  0  0  0  0
  185.1320  177.9160  144.3510 C   0  0  0  0  0  2  0  0  0  0  0  0
  185.4720  179.0450  140.7740 C   0  0  0  0  0  2  0  0  0  0  0  0
  185.0820  179.0020  143.2570 C   0  0  1  0  0  3  0  0  0  0  0  0
  191.2360  178.4510  144.4800 C   0  0  0  0  0  2  0  0  0  0  0  0
  190.0680  176.9610  134.7160 F   0  0  0  0  0  0  0  0  0  0  0  0
  188.3300  176.7500  136.4440 C   0  0  0  0  0  2  0  0  0  0  0  0
  186.1670  178.1910  139.7220 C   0  0  0  0  0  2  0  0  0  0  0  0
  186.3830  177.0220  144.3400 C   0  0  0  0  0  2  0  0  0  0  0  0
  187.2440  178.1220  142.3310 C   0  0  0  0  0  0  0  0  0  0  0  0
  190.3800  178.5500  143.2250 C   0  0  0  0  0  2  0  0  0  0  0  0
  1  2  1  0  0  0  0
  1 26  1  6  0  0  0
  2 11  1  0  0  0  0
  3  7  1  0  0  0  0
  4 13  1  0  0  0  0
  6  8  1  0  0  0  0
  7 28  1  0  0  0  0
  7  2  1  0  0  0  0
  9 18  1  0  0  0  0
 10 17  1  0  0  0  0
 11  6  1  0  0  0  0
 11  8  1  0  0  0  0
 12 24  1  0  0  0  0
 12 15  2  0  0  0  0
 13 18  1  0  0  0  0
 13 10  1  0  0  0  0
 14  3  1  0  0  0  0
 15  9  1  0  0  0  0
 16 27  1  0  0  0  0
 16 21  1  0  0  0  0
 17  3  1  0  0  0  0
 17 27  2  0  0  0  0
 18 14  1  0  0  0  0
 20 16  1  0  0  0  0
 21  5  1  0  0  0  0
 21 19  1  0  0  0  0
 22  6  1  0  0  0  0
 23 12  1  0  0  0  0
 24  4  1  0  0  0  0
 25 10  1  0  0  0  0
 25 20  1  0  0  0  0
 26 19  1  0  0  0  0
 27  1  1  0  0  0  0
 28 22  1  0  0  0  0
M  END
>  <MODEL>
3

>  <REMARK>
 VINA RESULT:      -8.3      3.676      5.898
  Name = 
  0 active torsions:
  status: ('A' for Active; 'I' for Inactive)
                            x       y       z     vdW  Elec       q    Type
                         _______ _______ _______ _____ _____    ______ ____

>  <TORSDO>
F 0

$$$$
=
 OpenBabel10262420493D

 28 34  0  0  1  0  0  0  0  0999 V2000
  187.7000  177.5810  144.4750 C   0  0  2  0  0  3  0  0  0  0  0  0
  188.9520  176.8420  143.9570 C   0  0  1  0  0  3  0  0  0  0  0  0
  188.5320  177.5190  141.6810 C   0  0  2  0  0  3  0  0  0  0  0  0
  185.7060  178.5930  138.5610 C   0  0  0  0  0  2  0  0  0  0  0  0
  185.6380  179.8930  145.7770 C   0  0  0  0  0  1  0  0  0  0  0  0
  191.2620  177.5100  145.0000 C   0  0  1  0  0  3  0  0  0  0  0  0
  189.5330  177.4660  142.7600 N   0  0  1  0  0  0  0  0  0  0  0  0
  190.1720  177.7740  146.0130 C   0  0  0  0  0  2  0  0  0  0  0  0
  188.4960  177.1990  138.2110 C   0  0  0  0  0  2  0  0  0  0  0  0
  186.2870  178.6690  141.0190 C   0  0  2  0  0  3  0  0  0  0  0  0
  190.0180  176.5980  145.0530 C   0  0  1  0  0  3  0  0  0  0  0  0
  186.8430  177.8750  136.4530 C   0  0  0  0  0  0  0  0  0  0  0  0
  186.6180  178.0410  139.6560 C   0  0  2  0  0  3  0  0  0  0  0  0
  189.0920  178.1880  140.4240 C   0  0  0  0  0  2  0  0  0  0  0  0
  188.1090  177.6610  136.8360 C   0  0  0  0  0  3  0  0  0  0  0  0
  185.4920  178.5370  143.7500 N   0  0  0  0  0  0  0  0  0  0  0  0
  187.2160  178.1410  142.0940 C   0  0  0  0  0  0  0  0  0  0  0  0
  188.0970  178.2300  139.2570 C   0  0  1  0  0  3  0  0  0  0  0  0
  185.6470  177.4000  145.9700 C   0  0  0  0  0  2  0  0  0  0  0  0
  184.5350  179.0130  142.7530 C   0  0  0  0  0  2  0  0  0  0  0  0
  185.1200  178.6040  145.1640 C   0  0  1  0  0  3  0  0  0  0  0  0
  191.2990  178.6330  143.9440 C   0  0  0  0  0  2  0  0  0  0  0  0
  186.6060  178.2880  135.1810 F   0  0  0  0  0  0  0  0  0  0  0  0
  185.6710  177.6520  137.3650 C   0  0  0  0  0  2  0  0  0  0  0  0
  184.8300  178.3910  141.3950 C   0  0  0  0  0  2  0  0  0  0  0  0
  186.8530  176.6690  145.3560 C   0  0  0  0  0  2  0  0  0  0  0  0
  186.8190  178.1130  143.3800 C   0  0  0  0  0  0  0  0  0  0  0  0
  190.0260  178.7910  143.1230 C   0  0  0  0  0  2  0  0  0  0  0  0
  1 26  1  6  0  0  0
  2  1  1  0  0  0  0
  2 11  1  0  0  0  0
  3 17  1  0  0  0  0
  3  7  1  0  0  0  0
  4 13  1  0  0  0  0
  6 11  1  0  0  0  0
  6  8  1  0  0  0  0
  7 28  1  0  0  0  0
  7  2  1  0  0  0  0
  9 18  1  0  0  0  0
 10 25  1  0  0  0  0
 10 17  1  0  0  0  0
 11  8  1  0  0  0  0
 12 15  2  0  0  0  0
 12 24  1  0  0  0  0
 13 10  1  0  0  0  0
 14  3  1  0  0  0  0
 15  9  1  0  0  0  0
 16 21  1  0  0  0  0
 17 27  2  0  0  0  0
 18 13  1  0  0  0  0
 18 14  1  0  0  0  0
 20 16  1  0  0  0  0
 21  5  1  0  0  0  0
 21 19  1  0  0  0  0
 22  6  1  0  0  0  0
 23 12  1  0  0  0  0
 24  4  1  0  0  0  0
 25 20  1  0  0  0  0
 26 19  1  0  0  0  0
 27 16  1  0  0  0  0
 27  1  1  0  0  0  0
 28 22  1  0  0  0  0
M  END
>  <MODEL>
4

>  <REMARK>
 VINA RESULT:      -8.3      2.995      4.347
  Name = 
  0 active torsions:
  status: ('A' for Active; 'I' for Inactive)
                            x       y       z     vdW  Elec       q    Type
                         _______ _______ _______ _____ _____    ______ ____

>  <TORSDO>
F 0

$$$$
=
 OpenBabel10262420493D

 28 34  0  0  1  0  0  0  0  0999 V2000
  189.6410  177.9700  145.1660 C   0  0  2  0  0  3  0  0  0  0  0  0
  188.8970  178.6580  146.3300 C   0  0  1  0  0  3  0  0  0  0  0  0
  186.7560  178.3850  145.2560 C   0  0  2  0  0  3  0  0  0  0  0  0
  184.4140  178.0780  141.6100 C   0  0  0  0  0  2  0  0  0  0  0  0
  191.1560  175.6900  143.2180 C   0  0  0  0  0  1  0  0  0  0  0  0
  189.1810  177.6220  148.7210 C   0  0  1  0  0  3  0  0  0  0  0  0
  187.5200  178.1760  146.4980 N   0  0  1  0  0  0  0  0  0  0  0  0
  190.4120  177.3080  147.9010 C   0  0  0  0  0  2  0  0  0  0  0  0
  183.4940  179.2410  144.3770 C   0  0  0  0  0  2  0  0  0  0  0  0
  186.5910  177.5690  142.7850 C   0  0  2  0  0  3  0  0  0  0  0  0
  189.6830  178.6280  147.6640 C   0  0  1  0  0  3  0  0  0  0  0  0
  182.1820  179.0040  142.2540 C   0  0  0  0  0  0  0  0  0  0  0  0
  185.2790  178.3660  142.8370 C   0  0  2  0  0  3  0  0  0  0  0  0
  185.3200  177.8690  145.3830 C   0  0  0  0  0  2  0  0  0  0  0  0
  182.2300  179.0360  143.5930 C   0  0  0  0  0  3  0  0  0  0  0  0
  189.4300  177.3500  142.7390 N   0  0  0  0  0  0  0  0  0  0  0  0
  187.4300  177.8330  144.0200 C   0  0  0  0  0  0  0  0  0  0  0  0
  184.4720  178.1020  144.1260 C   0  0  1  0  0  3  0  0  0  0  0  0
  191.6480  178.1100  143.6060 C   0  0  0  0  0  2  0  0  0  0  0  0
  188.6810  177.1270  141.5050 C   0  0  0  0  0  2  0  0  0  0  0  0
  190.8720  177.1010  142.7360 C   0  0  1  0  0  3  0  0  0  0  0  0
  188.0240  176.6780  148.3370 C   0  0  0  0  0  2  0  0  0  0  0  0
  180.9810  178.8170  141.6480 F   0  0  0  0  0  0  0  0  0  0  0  0
  183.3980  179.1930  141.3950 C   0  0  0  0  0  2  0  0  0  0  0  0
  187.3820  177.9220  141.5220 C   0  0  0  0  0  2  0  0  0  0  0  0
  190.8240  178.8110  144.7010 C   0  0  0  0  0  2  0  0  0  0  0  0
  188.7690  177.6990  143.9720 C   0  0  0  0  0  0  0  0  0  0  0  0
  187.5670  176.7700  146.8880 C   0  0  0  0  0  2  0  0  0  0  0  0
  1 26  1  6  0  0  0
  1  2  1  0  0  0  0
  2  7  1  0  0  0  0
  2 11  1  0  0  0  0
  3 14  1  0  0  0  0
  3  7  1  0  0  0  0
  4 13  1  0  0  0  0
  7 28  1  0  0  0  0
  8  6  1  0  0  0  0
 10 13  1  0  0  0  0
 10 17  1  0  0  0  0
 11  8  1  0  0  0  0
 11  6  1  0  0  0  0
 12 15  2  0  0  0  0
 13 18  1  0  0  0  0
 15  9  1  0  0  0  0
 16 27  1  0  0  0  0
 17  3  1  0  0  0  0
 18  9  1  0  0  0  0
 18 14  1  0  0  0  0
 19 26  1  0  0  0  0
 20 25  1  0  0  0  0
 20 16  1  0  0  0  0
 21 16  1  0  0  0  0
 21  5  1  0  0  0  0
 21 19  1  0  0  0  0
 22  6  1  0  0  0  0
 23 12  1  0  0  0  0
 24  4  1  0  0  0  0
 24 12  1  0  0  0  0
 25 10  1  0  0  0  0
 27 17  2  0  0  0  0
 27  1  1  0  0  0  0
 28 22  1  0  0  0  0
M  END
>  <MODEL>
5

>  <REMARK>
 VINA RESULT:      -7.7      1.114      4.045
  Name = 
  0 active torsions:
  status: ('A' for Active; 'I' for Inactive)
                            x       y       z     vdW  Elec       q    Type
                         _______ _______ _______ _____ _____    ______ ____

>  <TORSDO>
F 0

$$$$
=
 OpenBabel10262420493D

 28 34  0  0  1  0  0  0  0  0999 V2000
  184.8880  177.7160  137.9920 C   0  0  2  0  0  3  0  0  0  0  0  0
  183.4790  177.4840  138.5770 C   0  0  1  0  0  3  0  0  0  0  0  0
  184.1600  178.2130  140.7710 C   0  0  2  0  0  3  0  0  0  0  0  0
  187.2680  178.6170  143.7800 C   0  0  0  0  0  2  0  0  0  0  0  0
  187.5530  179.0830  136.4690 C   0  0  0  0  0  1  0  0  0  0  0  0
  181.4840  178.7600  137.4540 C   0  0  1  0  0  3  0  0  0  0  0  0
  183.1670  178.3810  139.6970 N   0  0  1  0  0  0  0  0  0  0  0  0
  182.5720  178.5490  136.4260 C   0  0  0  0  0  2  0  0  0  0  0  0
  184.1870  178.2530  144.2560 C   0  0  0  0  0  2  0  0  0  0  0  0
  186.6750  178.6280  141.3250 C   0  0  2  0  0  3  0  0  0  0  0  0
  182.3610  177.4910  137.5060 C   0  0  1  0  0  3  0  0  0  0  0  0
  186.0190  178.5270  145.9450 C   0  0  0  0  0  0  0  0  0  0  0  0
  186.1950  178.2840  142.7430 C   0  0  2  0  0  3  0  0  0  0  0  0
  183.8840  179.1530  141.9480 C   0  0  0  0  0  2  0  0  0  0  0  0
  184.7420  178.7000  145.5770 C   0  0  0  0  0  3  0  0  0  0  0  0
  187.3070  177.9670  138.6280 N   0  0  0  0  0  0  0  0  0  0  0  0
  185.5940  178.3260  140.3040 C   0  0  0  0  0  0  0  0  0  0  0  0
  184.8710  178.9850  143.1100 C   0  0  1  0  0  3  0  0  0  0  0  0
  186.7270  176.7230  136.5390 C   0  0  0  0  0  2  0  0  0  0  0  0
  188.3940  178.2020  139.5750 C   0  0  0  0  0  2  0  0  0  0  0  0
  187.6410  177.7640  137.2170 C   0  0  1  0  0  3  0  0  0  0  0  0
  181.8440  179.9340  138.3860 C   0  0  0  0  0  2  0  0  0  0  0  0
  186.4120  178.9670  147.1680 F   0  0  0  0  0  0  0  0  0  0  0  0
  187.0280  177.8420  145.0690 C   0  0  0  0  0  2  0  0  0  0  0  0
  187.9510  177.8520  140.9890 C   0  0  0  0  0  2  0  0  0  0  0  0
  185.3670  176.4930  137.2180 C   0  0  0  0  0  2  0  0  0  0  0  0
  185.9250  178.0390  139.0310 C   0  0  0  0  0  0  0  0  0  0  0  0
  183.1210  179.7500  139.1940 C   0  0  0  0  0  2  0  0  0  0  0  0
  1 26  1  1  0  0  0
  1  2  1  0  0  0  0
  1 27  1  0  0  0  0
  2  7  1  0  0  0  0
  3 14  1  0  0  0  0
  4 24  1  0  0  0  0
  5 21  1  0  0  0  0
  6 11  1  0  0  0  0
  6 22  1  0  0  0  0
  7  3  1  0  0  0  0
  8  6  1  0  0  0  0
  8 11  1  0  0  0  0
  9 15  1  0  0  0  0
 10 13  1  0  0  0  0
 11  2  1  0  0  0  0
 12 23  1  0  0  0  0
 13 18  1  0  0  0  0
 13  4  1  0  0  0  0
 14 18  1  0  0  0  0
 15 12  2  0  0  0  0
 16 27  1  0  0  0  0
 16 20  1  0  0  0  0
 17  3  1  0  0  0  0
 17 10  1  0  0  0  0
 18  9  1  0  0  0  0
 19 21  1  0  0  0  0
 19 26  1  0  0  0  0
 20 25  1  0  0  0  0
 21 16  1  0  0  0  0
 22 28  1  0  0  0  0
 24 12  1  0  0  0  0
 25 10  1  0  0  0  0
 27 17  2  0  0  0  0
 28  7  1  0  0  0  0
M  END
>  <MODEL>
6

>  <REMARK>
 VINA RESULT:      -7.2      3.585      7.635
  Name = 
  0 active torsions:
  status: ('A' for Active; 'I' for Inactive)
                            x       y       z     vdW  Elec       q    Type
                         _______ _______ _______ _____ _____    ______ ____

>  <TORSDO>
F 0

$$$$
=
 OpenBabel10262420493D

 28 34  0  0  1  0  0  0  0  0999 V2000
  187.6270  177.7110  145.0860 C   0  0  2  0  0  3  0  0  0  0  0  0
  188.4850  177.0350  143.9960 C   0  0  1  0  0  3  0  0  0  0  0  0
  187.0500  177.8340  142.2310 C   0  0  2  0  0  3  0  0  0  0  0  0
  183.0980  179.0220  140.8740 C   0  0  0  0  0  2  0  0  0  0  0  0
  186.4310  179.8910  147.3460 C   0  0  0  0  0  1  0  0  0  0  0  0
  191.0180  177.6960  143.8750 C   0  0  1  0  0  3  0  0  0  0  0  0
  188.4400  177.7420  142.7090 N   0  0  1  0  0  0  0  0  0  0  0  0
  190.5320  177.8730  145.2960 C   0  0  0  0  0  2  0  0  0  0  0  0
  185.3890  177.7190  139.1700 C   0  0  0  0  0  2  0  0  0  0  0  0
  184.7640  178.9660  142.7720 C   0  0  2  0  0  3  0  0  0  0  0  0
  189.9390  176.7530  144.4460 C   0  0  1  0  0  3  0  0  0  0  0  0
  183.1080  178.4570  138.4370 C   0  0  0  0  0  0  0  0  0  0  0  0
  184.4140  178.4280  141.3760 C   0  0  2  0  0  3  0  0  0  0  0  0
  186.9590  178.5900  140.9020 C   0  0  0  0  0  2  0  0  0  0  0  0
  184.4050  178.2520  138.1680 C   0  0  0  0  0  3  0  0  0  0  0  0
  185.3430  178.6540  145.5420 N   0  0  0  0  0  0  0  0  0  0  0  0
  186.0860  178.3990  143.2500 C   0  0  0  0  0  0  0  0  0  0  0  0
  185.5330  178.6760  140.3430 C   0  0  1  0  0  3  0  0  0  0  0  0
  186.5140  177.3920  147.3530 C   0  0  0  0  0  2  0  0  0  0  0  0
  184.0320  179.1640  145.1430 C   0  0  0  0  0  2  0  0  0  0  0  0
  185.6770  178.6280  146.9670 C   0  0  1  0  0  3  0  0  0  0  0  0
  190.5620  178.8800  142.9990 C   0  0  0  0  0  2  0  0  0  0  0  0
  182.3050  178.9390  137.4530 F   0  0  0  0  0  0  0  0  0  0  0  0
  182.5000  178.1520  139.7760 C   0  0  0  0  0  2  0  0  0  0  0  0
  183.6520  178.6310  143.7680 C   0  0  0  0  0  2  0  0  0  0  0  0
  187.2870  176.7280  146.2010 C   0  0  0  0  0  2  0  0  0  0  0  0
  186.3380  178.2850  144.5680 C   0  0  0  0  0  0  0  0  0  0  0  0
  189.0540  179.0550  142.8820 C   0  0  0  0  0  2  0  0  0  0  0  0
  1 26  1  1  0  0  0
  2 11  1  0  0  0  0
  2  1  1  0  0  0  0
  3  7  1  0  0  0  0
  3 17  1  0  0  0  0
  4 13  1  0  0  0  0
  6 11  1  0  0  0  0
  6  8  1  0  0  0  0
  7 28  1  0  0  0  0
  7  2  1  0  0  0  0
  9 18  1  0  0  0  0
 10 17  1  0  0  0  0
 10 25  1  0  0  0  0
 11  8  1  0  0  0  0
 12 24  1  0  0  0  0
 13 10  1  0  0  0  0
 14  3  1  0  0  0  0
 15 12  2  0  0  0  0
 15  9  1  0  0  0  0
 16 21  1  0  0  0  0
 17 27  2  0  0  0  0
 18 14  1  0  0  0  0
 18 13  1  0  0  0  0
 20 16  1  0  0  0  0
 21  5  1  0  0  0  0
 21 19  1  0  0  0  0
 22  6  1  0  0  0  0
 23 12  1  0  0  0  0
 24  4  1  0  0  0  0
 25 20  1  0  0  0  0
 26 19  1  0  0  0  0
 27  1  1  0  0  0  0
 27 16  1  0  0  0  0
 28 22  1  0  0  0  0
M  END
>  <MODEL>
7

>  <REMARK>
 VINA RESULT:      -7.0      1.651      2.373
  Name = 
  0 active torsions:
  status: ('A' for Active; 'I' for Inactive)
                            x       y       z     vdW  Elec       q    Type
                         _______ _______ _______ _____ _____    ______ ____

>  <TORSDO>
F 0

$$$$
=
 OpenBabel10262420493D

 28 34  0  0  1  0  0  0  0  0999 V2000
  185.8600  178.4780  138.8300 C   0  0  2  0  0  3  0  0  0  0  0  0
  187.2150  178.6810  138.1180 C   0  0  1  0  0  3  0  0  0  0  0  0
  188.4540  177.9680  140.0590 C   0  0  2  0  0  3  0  0  0  0  0  0
  188.7700  177.6330  144.3790 C   0  0  0  0  0  2  0  0  0  0  0  0
  182.9660  177.1670  139.9230 C   0  0  0  0  0  1  0  0  0  0  0  0
  187.6130  177.3620  135.8890 C   0  0  1  0  0  3  0  0  0  0  0  0
  188.2630  177.7780  138.6110 N   0  0  1  0  0  0  0  0  0  0  0  0
  186.1290  177.5940  136.0620 C   0  0  0  0  0  2  0  0  0  0  0  0
  191.1130  177.9320  142.3120 C   0  0  0  0  0  2  0  0  0  0  0  0
  187.2640  177.6070  142.3510 C   0  0  2  0  0  3  0  0  0  0  0  0
  187.1070  178.6480  136.5740 C   0  0  1  0  0  3  0  0  0  0  0  0
  191.2330  177.6980  144.8050 C   0  0  0  0  0  0  0  0  0  0  0  0
  188.6650  177.9420  142.8860 C   0  0  2  0  0  3  0  0  0  0  0  0
  189.5230  177.0240  140.6160 C   0  0  0  0  0  2  0  0  0  0  0  0
  191.7670  177.4970  143.5920 C   0  0  0  0  0  3  0  0  0  0  0  0
  184.7960  178.2790  141.0980 N   0  0  0  0  0  0  0  0  0  0  0  0
  187.1760  177.8850  140.8630 C   0  0  0  0  0  0  0  0  0  0  0  0
  189.7860  177.2130  142.1160 C   0  0  1  0  0  3  0  0  0  0  0  0
  183.5790  179.5080  139.2940 C   0  0  0  0  0  2  0  0  0  0  0  0
  184.8250  178.0680  142.5440 C   0  0  0  0  0  2  0  0  0  0  0  0
  183.5020  178.4880  140.4480 C   0  0  1  0  0  3  0  0  0  0  0  0
  188.0830  176.1960  136.7820 C   0  0  0  0  0  2  0  0  0  0  0  0
  191.9150  177.2680  145.8980 F   0  0  0  0  0  0  0  0  0  0  0  0
  189.9240  178.4040  145.0080 C   0  0  0  0  0  2  0  0  0  0  0  0
  186.1990  178.4100  143.1030 C   0  0  0  0  0  2  0  0  0  0  0  0
  184.9750  179.7100  138.6810 C   0  0  0  0  0  2  0  0  0  0  0  0
  185.9900  178.1780  140.2970 C   0  0  0  0  0  0  0  0  0  0  0  0
  187.8880  176.4080  138.2770 C   0  0  0  0  0  2  0  0  0  0  0  0
  1 26  1  1  0  0  0
  1 27  1  0  0  0  0
  2  7  1  0  0  0  0
  2  1  1  0  0  0  0
  3 14  1  0  0  0  0
  3 17  1  0  0  0  0
  4 24  1  0  0  0  0
  5 21  1  0  0  0  0
  6  8  1  0  0  0  0
  6 11  1  0  0  0  0
  6 22  1  0  0  0  0
  7  3  1  0  0  0  0
  8 11  1  0  0  0  0
  9 15  1  0  0  0  0
 10 13  1  0  0  0  0
 10 25  1  0  0  0  0
 11  2  1  0  0  0  0
 12 24  1  0  0  0  0
 12 23  1  0  0  0  0
 13  4  1  0  0  0  0
 14 18  1  0  0  0  0
 15 12  2  0  0  0  0
 16 20  1  0  0  0  0
 17 10  1  0  0  0  0
 18  9  1  0  0  0  0
 18 13  1  0  0  0  0
 19 21  1  0  0  0  0
 20 25  1  0  0  0  0
 21 16  1  0  0  0  0
 22 28  1  0  0  0  0
 26 19  1  0  0  0  0
 27 17  2  0  0  0  0
 27 16  1  0  0  0  0
 28  7  1  0  0  0  0
M  END
>  <MODEL>
8

>  <REMARK>
 VINA RESULT:      -6.8      3.930      7.307
  Name = 
  0 active torsions:
  status: ('A' for Active; 'I' for Inactive)
                            x       y       z     vdW  Elec       q    Type
                         _______ _______ _______ _____ _____    ______ ____

>  <TORSDO>
F 0

$$$$
=
 OpenBabel10262420493D

 28 34  0  0  1  0  0  0  0  0999 V2000
  189.9050  176.5900  138.0270 C   0  0  2  0  0  3  0  0  0  0  0  0
  188.4000  176.5650  137.6860 C   0  0  1  0  0  3  0  0  0  0  0  0
  187.7980  177.4890  139.8300 C   0  0  2  0  0  3  0  0  0  0  0  0
  188.6350  177.9590  144.0670 C   0  0  0  0  0  2  0  0  0  0  0  0
  193.1280  177.5020  138.2920 C   0  0  0  0  0  1  0  0  0  0  0  0
  187.6260  177.8780  135.5540 C   0  0  1  0  0  3  0  0  0  0  0  0
  187.6380  177.6170  138.3720 N   0  0  1  0  0  0  0  0  0  0  0  0
  189.0610  177.4420  135.3670 C   0  0  0  0  0  2  0  0  0  0  0  0
  185.8260  177.9500  142.6660 C   0  0  0  0  0  2  0  0  0  0  0  0
  189.5670  177.7270  141.7310 C   0  0  2  0  0  3  0  0  0  0  0  0
  188.1160  176.5480  136.1640 C   0  0  1  0  0  3  0  0  0  0  0  0
  186.3730  178.2530  145.0940 C   0  0  0  0  0  0  0  0  0  0  0  0
  188.3160  177.6060  142.6140 C   0  0  2  0  0  3  0  0  0  0  0  0
  187.0390  178.5860  140.5800 C   0  0  0  0  0  2  0  0  0  0  0  0
  185.5810  178.5000  144.0410 C   0  0  0  0  0  3  0  0  0  0  0  0
  191.5260  176.6860  139.9450 N   0  0  0  0  0  0  0  0  0  0  0  0
  189.2380  177.4080  140.2860 C   0  0  0  0  0  0  0  0  0  0  0  0
  187.1420  178.4690  142.1060 C   0  0  1  0  0  3  0  0  0  0  0  0
  192.0740  175.2580  137.9690 C   0  0  0  0  0  2  0  0  0  0  0  0
  191.8930  176.9310  141.3380 C   0  0  0  0  0  2  0  0  0  0  0  0
  192.5740  176.2820  139.0070 C   0  0  1  0  0  3  0  0  0  0  0  0
  187.5560  179.1180  136.4680 C   0  0  0  0  0  2  0  0  0  0  0  0
  186.0530  178.7990  146.2950 F   0  0  0  0  0  0  0  0  0  0  0  0
  187.5870  177.3730  145.0050 C   0  0  0  0  0  2  0  0  0  0  0  0
  190.6730  176.7990  142.2390 C   0  0  0  0  0  2  0  0  0  0  0  0
  190.5540  175.2420  137.7330 C   0  0  0  0  0  2  0  0  0  0  0  0
  190.1920  176.9380  139.4600 C   0  0  0  0  0  0  0  0  0  0  0  0
  188.0940  178.9140  137.8780 C   0  0  0  0  0  2  0  0  0  0  0  0
  1 26  1  1  0  0  0
  1 27  1  0  0  0  0
  2  1  1  0  0  0  0
  2  7  1  0  0  0  0
  3 17  1  0  0  0  0
  3 14  1  0  0  0  0
  4 24  1  0  0  0  0
  5 21  1  0  0  0  0
  6 11  1  0  0  0  0
  6 22  1  0  0  0  0
  7  3  1  0  0  0  0
  8  6  1  0  0  0  0
  8 11  1  0  0  0  0
  9 15  1  0  0  0  0
 10 25  1  0  0  0  0
 10 13  1  0  0  0  0
 11  2  1  0  0  0  0
 12 23  1  0  0  0  0
 13  4  1  0  0  0  0
 14 18  1  0  0  0  0
 15 12  2  0  0  0  0
 16 20  1  0  0  0  0
 17 10  1  0  0  0  0
 18 13  1  0  0  0  0
 18  9  1  0  0  0  0
 19 21  1  0  0  0  0
 20 25  1  0  0  0  0
 21 16  1  0  0  0  0
 22 28  1  0  0  0  0
 24 12  1  0  0  0  0
 26 19  1  0  0  0  0
 27 16  1  0  0  0  0
 27 17  2  0  0  0  0
 28  7  1  0  0  0  0
M  END
>  <MODEL>
9

>  <REMARK>
 VINA RESULT:      -6.7      4.076      6.860
  Name = 
  0 active torsions:
  status: ('A' for Active; 'I' for Inactive)
                            x       y       z     vdW  Elec       q    Type
                         _______ _______ _______ _____ _____    ______ ____

>  <TORSDO>
F 0

$$$$
