=
 OpenBabel10262419353D

 31 35  0  0  1  0  0  0  0  0999 V2000
  190.4700  176.7960  146.3760 C   0  0  0  0  0  0  0  0  0  0  0  0
  188.0400  177.6850  143.6340 C   0  0  0  0  0  0  0  0  0  0  0  0
  186.7520  177.8070  144.2600 C   0  0  0  0  0  0  0  0  0  0  0  0
  186.1000  178.5350  146.5310 C   0  0  0  0  0  3  0  0  0  0  0  0
  189.2420  177.3390  144.3310 C   0  0  0  0  0  0  0  0  0  0  0  0
  191.6520  176.6630  145.6500 C   0  0  0  0  0  3  0  0  0  0  0  0
  186.5170  177.3850  145.6790 C   0  0  0  0  0  2  0  0  0  0  0  0
  189.3490  177.7760  141.5380 C   0  0  0  0  0  0  0  0  0  0  0  0
  190.4730  176.5970  147.7140 F   0  0  0  0  0  0  0  0  0  0  0  0
  185.7610  178.4220  142.1290 C   0  0  0  0  0  3  0  0  0  0  0  0
  184.9350  179.1570  146.3640 C   0  0  0  0  0  3  0  0  0  0  0  0
  190.4960  177.4240  142.2440 C   0  0  0  0  0  3  0  0  0  0  0  0
  188.1270  177.9140  142.2270 C   0  0  0  0  0  0  0  0  0  0  0  0
  189.2840  177.1320  145.7220 C   0  0  0  0  0  3  0  0  0  0  0  0
  183.9740  178.8500  145.2900 C   0  0  0  0  0  3  0  0  0  0  0  0
  190.4590  177.2110  143.6140 C   0  0  0  0  0  0  0  0  0  0  0  0
  191.6460  176.8730  144.2710 C   0  0  0  0  0  3  0  0  0  0  0  0
  186.9870  178.2710  141.5010 C   0  0  0  0  0  3  0  0  0  0  0  0
  185.6310  178.2150  143.4970 C   0  0  0  0  0  0  0  0  0  0  0  0
  184.2790  178.4330  144.0560 C   0  0  0  0  0  3  0  0  0  0  0  0
  190.3930  175.9630  139.4490 O   0  0  0  0  0  0  0  0  0  0  0  0
  189.8710  177.0630  139.1230 C   0  0  0  0  0  0  0  0  0  0  0  0
  189.3940  177.9820  140.1150 N   0  0  0  0  0  2  0  0  0  0  0  0
  188.8390  176.9790  134.9340 N   0  0  0  0  0  0  0  0  0  0  0  0
  190.3770  176.3630  136.8030 C   0  0  0  0  0  2  0  0  0  0  0  0
  187.7170  178.6710  138.0280 O   0  0  0  0  0  1  0  0  0  0  0  0
  188.0890  175.7290  134.9840 C   0  0  0  0  0  1  0  0  0  0  0  0
  190.2360  176.7450  135.3270 C   0  0  0  0  0  2  0  0  0  0  0  0
  188.2860  177.6380  137.2800 C   0  0  2  0  0  3  0  0  0  0  0  0
  189.7460  177.4370  137.6810 C   0  0  1  0  0  3  0  0  0  0  0  0
  188.1990  177.9860  135.7920 C   0  0  0  0  0  2  0  0  0  0  0  0
  1  9  1  0  0  0  0
  2  3  1  0  0  0  0
  2  5  1  0  0  0  0
  3  7  1  0  0  0  0
  5 14  2  0  0  0  0
  6  1  2  0  0  0  0
  7  4  1  0  0  0  0
  8 13  1  0  0  0  0
  8 12  2  0  0  0  0
 10 19  1  0  0  0  0
 11  4  2  0  0  0  0
 12 16  1  0  0  0  0
 13  2  2  0  0  0  0
 14  1  1  0  0  0  0
 15 11  1  0  0  0  0
 16 17  2  0  0  0  0
 16  5  1  0  0  0  0
 17  6  1  0  0  0  0
 18 10  2  0  0  0  0
 18 13  1  0  0  0  0
 19 20  1  0  0  0  0
 19  3  2  0  0  0  0
 20 15  2  0  0  0  0
 22 21  2  0  0  0  0
 22 23  1  0  0  0  0
 23  8  1  0  0  0  0
 24 27  1  0  0  0  0
 24 28  1  0  0  0  0
 24 31  1  0  0  0  0
 25 30  1  0  0  0  0
 28 25  1  0  0  0  0
 29 30  1  0  0  0  0
 29 26  1  1  0  0  0
 30 22  1  1  0  0  0
 31 29  1  0  0  0  0
M  END
>  <MODEL>
1

>  <REMARK>
 VINA RESULT:     -11.8      0.000      0.000
  Name = 
  2 active torsions:
  status: ('A' for Active; 'I' for Inactive)
    1  A    between atoms: C_9  and  C_22
    2  A    between atoms: C_15  and  N_23
                            x       y       z     vdW  Elec       q    Type
                         _______ _______ _______ _____ _____    ______ ____

>  <TORSDO>
F 2

$$$$
=
 OpenBabel10262419353D

 31 35  0  0  1  0  0  0  0  0999 V2000
  185.2670  178.5630  145.1540 C   0  0  0  0  0  0  0  0  0  0  0  0
  188.6430  177.5260  143.8340 C   0  0  0  0  0  0  0  0  0  0  0  0
  189.5070  177.4160  144.9760 C   0  0  0  0  0  0  0  0  0  0  0  0
  189.0460  176.7820  147.3220 C   0  0  0  0  0  3  0  0  0  0  0  0
  187.2670  177.9170  143.9030 C   0  0  0  0  0  0  0  0  0  0  0  0
  184.5430  178.6780  143.9700 C   0  0  0  0  0  3  0  0  0  0  0  0
  189.0920  177.8980  146.3340 C   0  0  0  0  0  2  0  0  0  0  0  0
  188.4140  177.3580  141.3780 C   0  0  0  0  0  0  0  0  0  0  0  0
  184.6690  178.8220  146.3410 F   0  0  0  0  0  0  0  0  0  0  0  0
  191.3310  176.6960  143.5430 C   0  0  0  0  0  3  0  0  0  0  0  0
  190.1420  176.1390  147.7180 C   0  0  0  0  0  3  0  0  0  0  0  0
  187.0830  177.7540  141.4780 C   0  0  0  0  0  3  0  0  0  0  0  0
  189.1900  177.2360  142.5470 C   0  0  0  0  0  0  0  0  0  0  0  0
  186.6100  178.1850  145.1170 C   0  0  0  0  0  3  0  0  0  0  0  0
  191.4920  176.3880  147.1830 C   0  0  0  0  0  3  0  0  0  0  0  0
  186.5070  178.0270  142.7090 C   0  0  0  0  0  0  0  0  0  0  0  0
  185.1620  178.4080  142.7490 C   0  0  0  0  0  3  0  0  0  0  0  0
  190.5230  176.8340  142.4260 C   0  0  0  0  0  3  0  0  0  0  0  0
  190.8380  176.9620  144.8150 C   0  0  0  0  0  0  0  0  0  0  0  0
  191.7880  176.7530  145.9310 C   0  0  0  0  0  3  0  0  0  0  0  0
  188.9220  179.2410  139.1560 O   0  0  0  0  0  0  0  0  0  0  0  0
  189.2780  178.0360  139.0520 C   0  0  0  0  0  0  0  0  0  0  0  0
  189.0070  177.0900  140.0940 N   0  0  0  0  0  2  0  0  0  0  0  0
  190.9600  175.4860  136.0050 N   0  0  0  0  0  0  0  0  0  0  0  0
  191.1510  176.6580  138.2020 C   0  0  0  0  0  2  0  0  0  0  0  0
  188.0080  177.6690  136.4690 O   0  0  0  0  0  1  0  0  0  0  0  0
  190.5000  174.2280  136.5840 C   0  0  0  0  0  1  0  0  0  0  0  0
  191.8650  176.1700  136.9390 C   0  0  0  0  0  2  0  0  0  0  0  0
  189.0410  176.8240  136.8820 C   0  0  2  0  0  3  0  0  0  0  0  0
  189.9870  177.5660  137.8230 C   0  0  1  0  0  3  0  0  0  0  0  0
  189.8110  176.3300  135.6540 C   0  0  0  0  0  2  0  0  0  0  0  0
  1  9  1  0  0  0  0
  2  5  1  0  0  0  0
  2  3  1  0  0  0  0
  3  7  1  0  0  0  0
  4 11  2  0  0  0  0
  5 14  2  0  0  0  0
  6  1  2  0  0  0  0
  7  4  1  0  0  0  0
  8 12  2  0  0  0  0
  8 13  1  0  0  0  0
 10 19  1  0  0  0  0
 12 16  1  0  0  0  0
 13  2  2  0  0  0  0
 14  1  1  0  0  0  0
 15 11  1  0  0  0  0
 16 17  2  0  0  0  0
 16  5  1  0  0  0  0
 17  6  1  0  0  0  0
 18 13  1  0  0  0  0
 18 10  2  0  0  0  0
 19  3  2  0  0  0  0
 19 20  1  0  0  0  0
 20 15  2  0  0  0  0
 22 21  2  0  0  0  0
 22 23  1  0  0  0  0
 23  8  1  0  0  0  0
 24 27  1  0  0  0  0
 24 28  1  0  0  0  0
 28 25  1  0  0  0  0
 29 26  1  6  0  0  0
 29 30  1  0  0  0  0
 30 25  1  0  0  0  0
 30 22  1  1  0  0  0
 31 24  1  0  0  0  0
 31 29  1  0  0  0  0
M  END
>  <MODEL>
2

>  <REMARK>
 VINA RESULT:     -11.5      1.747      4.216
  Name = 
  2 active torsions:
  status: ('A' for Active; 'I' for Inactive)
    1  A    between atoms: C_9  and  C_22
    2  A    between atoms: C_15  and  N_23
                            x       y       z     vdW  Elec       q    Type
                         _______ _______ _______ _____ _____    ______ ____

>  <TORSDO>
F 2

$$$$
=
 OpenBabel10262419353D

 31 35  0  0  1  0  0  0  0  0999 V2000
  190.6620  177.1560  142.0860 C   0  0  0  0  0  0  0  0  0  0  0  0
  187.3980  177.9480  143.7990 C   0  0  0  0  0  0  0  0  0  0  0  0
  187.5950  177.6640  145.1930 C   0  0  0  0  0  0  0  0  0  0  0  0
  189.6060  177.8090  146.6250 C   0  0  0  0  0  3  0  0  0  0  0  0
  188.4000  177.7630  142.7930 C   0  0  0  0  0  0  0  0  0  0  0  0
  190.3360  177.4240  140.7570 C   0  0  0  0  0  3  0  0  0  0  0  0
  188.8170  176.9540  145.6940 C   0  0  0  0  0  2  0  0  0  0  0  0
  185.8430  178.7040  142.0320 C   0  0  0  0  0  0  0  0  0  0  0  0
  191.9060  176.7270  142.4030 F   0  0  0  0  0  0  0  0  0  0  0  0
  185.3340  178.4100  145.6770 C   0  0  0  0  0  3  0  0  0  0  0  0
  189.1440  178.1730  147.8190 C   0  0  0  0  0  3  0  0  0  0  0  0
  186.8350  178.4990  141.0760 C   0  0  0  0  0  3  0  0  0  0  0  0
  186.1210  178.4380  143.3870 C   0  0  0  0  0  0  0  0  0  0  0  0
  189.7050  177.3270  143.0870 C   0  0  0  0  0  3  0  0  0  0  0  0
  187.7960  177.8530  148.3220 C   0  0  0  0  0  3  0  0  0  0  0  0
  188.0940  178.0420  141.4360 C   0  0  0  0  0  0  0  0  0  0  0  0
  189.0550  177.8690  140.4340 C   0  0  0  0  0  3  0  0  0  0  0  0
  185.1140  178.6520  144.3310 C   0  0  0  0  0  3  0  0  0  0  0  0
  186.5630  177.9380  146.1230 C   0  0  0  0  0  0  0  0  0  0  0  0
  186.6860  177.7420  147.5850 C   0  0  0  0  0  3  0  0  0  0  0  0
  183.6990  177.2110  140.6480 O   0  0  0  0  0  0  0  0  0  0  0  0
  183.5010  178.4010  141.0130 C   0  0  0  0  0  0  0  0  0  0  0  0
  184.5350  179.1650  141.6470 N   0  0  0  0  0  2  0  0  0  0  0  0
  179.2850  178.9800  140.2980 N   0  0  0  0  0  0  0  0  0  0  0  0
  181.6000  178.6020  139.4400 C   0  0  0  0  0  2  0  0  0  0  0  0
  181.6690  179.1870  143.1210 O   0  0  0  0  0  1  0  0  0  0  0  0
  178.9310  177.5650  140.3050 C   0  0  0  0  0  1  0  0  0  0  0  0
  180.2350  179.2570  139.2120 C   0  0  0  0  0  2  0  0  0  0  0  0
  181.1870  178.7180  141.8970 C   0  0  2  0  0  3  0  0  0  0  0  0
  182.1740  179.0480  140.7790 C   0  0  1  0  0  3  0  0  0  0  0  0
  179.8330  179.3700  141.6050 C   0  0  0  0  0  2  0  0  0  0  0  0
  1  9  1  0  0  0  0
  1 14  1  0  0  0  0
  2  3  1  0  0  0  0
  3  7  1  0  0  0  0
  3 19  2  0  0  0  0
  4 11  2  0  0  0  0
  5 14  2  0  0  0  0
  5  2  1  0  0  0  0
  6  1  2  0  0  0  0
  7  4  1  0  0  0  0
  8 13  1  0  0  0  0
 10 19  1  0  0  0  0
 11 15  1  0  0  0  0
 12 16  1  0  0  0  0
 12  8  2  0  0  0  0
 13  2  2  0  0  0  0
 13 18  1  0  0  0  0
 16  5  1  0  0  0  0
 17  6  1  0  0  0  0
 17 16  2  0  0  0  0
 18 10  2  0  0  0  0
 19 20  1  0  0  0  0
 20 15  2  0  0  0  0
 21 22  2  0  0  0  0
 22 23  1  0  0  0  0
 23  8  1  0  0  0  0
 24 27  1  0  0  0  0
 24 31  1  0  0  0  0
 25 30  1  0  0  0  0
 28 25  1  0  0  0  0
 28 24  1  0  0  0  0
 29 26  1  1  0  0  0
 30 22  1  1  0  0  0
 30 29  1  0  0  0  0
 31 29  1  0  0  0  0
M  END
>  <MODEL>
3

>  <REMARK>
 VINA RESULT:     -11.1      3.789      6.099
  Name = 
  2 active torsions:
  status: ('A' for Active; 'I' for Inactive)
    1  A    between atoms: C_9  and  C_22
    2  A    between atoms: C_15  and  N_23
                            x       y       z     vdW  Elec       q    Type
                         _______ _______ _______ _____ _____    ______ ____

>  <TORSDO>
F 2

$$$$
=
 OpenBabel10262419353D

 31 35  0  0  1  0  0  0  0  0999 V2000
  191.2400  177.1890  141.6950 C   0  0  0  0  0  0  0  0  0  0  0  0
  187.6820  177.8400  142.7580 C   0  0  0  0  0  0  0  0  0  0  0  0
  187.6310  177.5910  144.1720 C   0  0  0  0  0  0  0  0  0  0  0  0
  189.3340  177.8660  145.9440 C   0  0  0  0  0  3  0  0  0  0  0  0
  188.8610  177.6900  141.9580 C   0  0  0  0  0  0  0  0  0  0  0  0
  191.1530  177.4170  140.3220 C   0  0  0  0  0  3  0  0  0  0  0  0
  188.7730  176.9540  144.9070 C   0  0  0  0  0  2  0  0  0  0  0  0
  186.4460  178.4820  140.7150 C   0  0  0  0  0  0  0  0  0  0  0  0
  192.4230  176.8310  142.2460 F   0  0  0  0  0  0  0  0  0  0  0  0
  185.2870  178.2260  144.2120 C   0  0  0  0  0  3  0  0  0  0  0  0
  188.6430  178.2260  147.0230 C   0  0  0  0  0  3  0  0  0  0  0  0
  187.6060  178.3130  139.9640 C   0  0  0  0  0  3  0  0  0  0  0  0
  186.4810  178.2550  142.1050 C   0  0  0  0  0  0  0  0  0  0  0  0
  190.1080  177.3270  142.4980 C   0  0  0  0  0  3  0  0  0  0  0  0
  187.2420  177.8450  147.2780 C   0  0  0  0  0  3  0  0  0  0  0  0
  188.7970  177.9290  140.5610 C   0  0  0  0  0  0  0  0  0  0  0  0
  189.9330  177.7880  139.7570 C   0  0  0  0  0  3  0  0  0  0  0  0
  185.3070  178.4330  142.8420 C   0  0  0  0  0  3  0  0  0  0  0  0
  186.4340  177.8270  144.8890 C   0  0  0  0  0  0  0  0  0  0  0  0
  186.2940  177.6630  146.3530 C   0  0  0  0  0  3  0  0  0  0  0  0
  185.3440  177.5840  138.1230 O   0  0  0  0  0  0  0  0  0  0  0  0
  184.6840  178.3810  138.8440 C   0  0  0  0  0  0  0  0  0  0  0  0
  185.2110  178.8680  140.0850 N   0  0  0  0  0  2  0  0  0  0  0  0
  180.5430  179.5910  138.9000 N   0  0  0  0  0  0  0  0  0  0  0  0
  182.2800  177.8010  138.7570 C   0  0  0  0  0  2  0  0  0  0  0  0
  183.8840  181.1650  138.6760 O   0  0  0  0  0  1  0  0  0  0  0  0
  180.3640  179.4650  140.3420 C   0  0  0  0  0  1  0  0  0  0  0  0
  180.8950  178.2870  138.3200 C   0  0  0  0  0  2  0  0  0  0  0  0
  182.9660  180.1810  139.0490 C   0  0  2  0  0  3  0  0  0  0  0  0
  183.3320  178.8450  138.4070 C   0  0  1  0  0  3  0  0  0  0  0  0
  181.5640  180.6050  138.6040 C   0  0  0  0  0  2  0  0  0  0  0  0
  1  9  1  0  0  0  0
  1 14  1  0  0  0  0
  2  3  1  0  0  0  0
  3 19  2  0  0  0  0
  3  7  1  0  0  0  0
  4 11  2  0  0  0  0
  5 14  2  0  0  0  0
  5  2  1  0  0  0  0
  6  1  2  0  0  0  0
  7  4  1  0  0  0  0
  8 13  1  0  0  0  0
 10 19  1  0  0  0  0
 11 15  1  0  0  0  0
 12 16  1  0  0  0  0
 12  8  2  0  0  0  0
 13  2  2  0  0  0  0
 13 18  1  0  0  0  0
 16  5  1  0  0  0  0
 17  6  1  0  0  0  0
 17 16  2  0  0  0  0
 18 10  2  0  0  0  0
 19 20  1  0  0  0  0
 20 15  2  0  0  0  0
 21 22  2  0  0  0  0
 22 23  1  0  0  0  0
 23  8  1  0  0  0  0
 24 27  1  0  0  0  0
 28 25  1  0  0  0  0
 28 24  1  0  0  0  0
 29 26  1  6  0  0  0
 30 25  1  0  0  0  0
 30 22  1  1  0  0  0
 30 29  1  0  0  0  0
 31 24  1  0  0  0  0
 31 29  1  0  0  0  0
M  END
>  <MODEL>
4

>  <REMARK>
 VINA RESULT:     -10.6      3.424      5.205
  Name = 
  2 active torsions:
  status: ('A' for Active; 'I' for Inactive)
    1  A    between atoms: C_9  and  C_22
    2  A    between atoms: C_15  and  N_23
                            x       y       z     vdW  Elec       q    Type
                         _______ _______ _______ _____ _____    ______ ____

>  <TORSDO>
F 2

$$$$
=
 OpenBabel10262419353D

 31 35  0  0  1  0  0  0  0  0999 V2000
  186.5160  177.9420  146.6890 C   0  0  0  0  0  0  0  0  0  0  0  0
  186.5970  178.2570  142.9330 C   0  0  0  0  0  0  0  0  0  0  0  0
  187.9500  177.9880  142.5350 C   0  0  0  0  0  0  0  0  0  0  0  0
  189.6830  176.5200  143.5130 C   0  0  0  0  0  3  0  0  0  0  0  0
  186.1440  178.2550  144.2920 C   0  0  0  0  0  0  0  0  0  0  0  0
  185.1860  178.2630  146.9540 C   0  0  0  0  0  3  0  0  0  0  0  0
  189.0640  177.8750  143.5330 C   0  0  0  0  0  2  0  0  0  0  0  0
  184.3050  178.8630  142.2310 C   0  0  0  0  0  0  0  0  0  0  0  0
  187.3530  177.6380  147.7080 F   0  0  0  0  0  0  0  0  0  0  0  0
  187.3290  178.2520  140.2010 C   0  0  0  0  0  3  0  0  0  0  0  0
  190.3720  176.0690  142.4670 C   0  0  0  0  0  3  0  0  0  0  0  0
  183.9010  178.8670  143.5630 C   0  0  0  0  0  3  0  0  0  0  0  0
  185.6420  178.5530  141.9130 C   0  0  0  0  0  0  0  0  0  0  0  0
  186.9840  177.9360  145.3750 C   0  0  0  0  0  3  0  0  0  0  0  0
  190.5340  176.8020  141.1990 C   0  0  0  0  0  3  0  0  0  0  0  0
  184.7910  178.5670  144.5830 C   0  0  0  0  0  0  0  0  0  0  0  0
  184.3250  178.5730  145.9020 C   0  0  0  0  0  3  0  0  0  0  0  0
  186.0270  178.5520  140.5700 C   0  0  0  0  0  3  0  0  0  0  0  0
  188.2890  177.9520  141.1600 C   0  0  0  0  0  0  0  0  0  0  0  0
  189.6360  177.6230  140.6430 C   0  0  0  0  0  3  0  0  0  0  0  0
  182.6600  177.0320  140.5940 O   0  0  0  0  0  0  0  0  0  0  0  0
  182.5620  178.2780  140.4310 C   0  0  0  0  0  0  0  0  0  0  0  0
  183.3770  179.1900  141.1800 N   0  0  0  0  0  2  0  0  0  0  0  0
  180.4850  180.9890  137.7940 N   0  0  0  0  0  0  0  0  0  0  0  0
  180.8060  179.9820  140.0570 C   0  0  0  0  0  2  0  0  0  0  0  0
  182.9660  178.2530  137.5580 O   0  0  0  0  0  1  0  0  0  0  0  0
  181.3340  182.1450  138.0600 C   0  0  0  0  0  1  0  0  0  0  0  0
  179.8230  180.5540  139.0320 C   0  0  0  0  0  2  0  0  0  0  0  0
  182.3010  179.3150  138.1750 C   0  0  2  0  0  3  0  0  0  0  0  0
  181.5920  178.8330  139.4390 C   0  0  1  0  0  3  0  0  0  0  0  0
  181.2790  179.9050  137.1990 C   0  0  0  0  0  2  0  0  0  0  0  0
  1  6  1  0  0  0  0
  1  9  1  0  0  0  0
  2  5  1  0  0  0  0
  3  2  1  0  0  0  0
  3  7  1  0  0  0  0
  4  7  1  0  0  0  0
  5 16  2  0  0  0  0
  5 14  1  0  0  0  0
  8 12  2  0  0  0  0
 10 18  2  0  0  0  0
 10 19  1  0  0  0  0
 11  4  2  0  0  0  0
 12 16  1  0  0  0  0
 13  8  1  0  0  0  0
 13  2  2  0  0  0  0
 14  1  2  0  0  0  0
 15 11  1  0  0  0  0
 16 17  1  0  0  0  0
 17  6  2  0  0  0  0
 18 13  1  0  0  0  0
 19  3  2  0  0  0  0
 20 19  1  0  0  0  0
 20 15  2  0  0  0  0
 22 21  2  0  0  0  0
 22 23  1  0  0  0  0
 23  8  1  0  0  0  0
 24 27  1  0  0  0  0
 24 28  1  0  0  0  0
 28 25  1  0  0  0  0
 29 26  1  6  0  0  0
 29 30  1  0  0  0  0
 30 25  1  0  0  0  0
 30 22  1  1  0  0  0
 31 24  1  0  0  0  0
 31 29  1  0  0  0  0
M  END
>  <MODEL>
5

>  <REMARK>
 VINA RESULT:     -10.5      3.867      6.420
  Name = 
  2 active torsions:
  status: ('A' for Active; 'I' for Inactive)
    1  A    between atoms: C_9  and  C_22
    2  A    between atoms: C_15  and  N_23
                            x       y       z     vdW  Elec       q    Type
                         _______ _______ _______ _____ _____    ______ ____

>  <TORSDO>
F 2

$$$$
=
 OpenBabel10262419353D

 31 35  0  0  1  0  0  0  0  0999 V2000
  187.1750  178.2000  147.5140 C   0  0  0  0  0  0  0  0  0  0  0  0
  187.6570  178.0070  143.7800 C   0  0  0  0  0  0  0  0  0  0  0  0
  189.0700  177.8720  143.5620 C   0  0  0  0  0  0  0  0  0  0  0  0
  190.8390  176.7980  144.9150 C   0  0  0  0  0  3  0  0  0  0  0  0
  187.0520  178.1300  145.0730 C   0  0  0  0  0  0  0  0  0  0  0  0
  185.7940  178.3710  147.5950 C   0  0  0  0  0  3  0  0  0  0  0  0
  190.0650  178.0470  144.6700 C   0  0  0  0  0  2  0  0  0  0  0  0
  185.4070  178.1970  142.7720 C   0  0  0  0  0  0  0  0  0  0  0  0
  187.9170  178.1530  148.6450 F   0  0  0  0  0  0  0  0  0  0  0  0
  188.6990  177.7290  141.1660 C   0  0  0  0  0  3  0  0  0  0  0  0
  191.6950  176.3060  144.0220 C   0  0  0  0  0  3  0  0  0  0  0  0
  184.8520  178.3280  144.0420 C   0  0  0  0  0  3  0  0  0  0  0  0
  186.7990  178.0300  142.6380 C   0  0  0  0  0  0  0  0  0  0  0  0
  187.7910  178.0780  146.2680 C   0  0  0  0  0  3  0  0  0  0  0  0
  191.9150  176.8750  142.6810 C   0  0  0  0  0  3  0  0  0  0  0  0
  185.6460  178.2930  145.1790 C   0  0  0  0  0  0  0  0  0  0  0  0
  185.0310  178.4160  146.4290 C   0  0  0  0  0  3  0  0  0  0  0  0
  187.3370  177.8980  141.3540 C   0  0  0  0  0  3  0  0  0  0  0  0
  189.5690  177.6950  142.2490 C   0  0  0  0  0  0  0  0  0  0  0  0
  190.9970  177.4830  141.9230 C   0  0  0  0  0  3  0  0  0  0  0  0
  182.5500  178.9290  142.5690 O   0  0  0  0  0  0  0  0  0  0  0  0
  183.2020  178.6490  141.5270 C   0  0  0  0  0  0  0  0  0  0  0  0
  184.5770  178.2490  141.5970 N   0  0  0  0  0  2  0  0  0  0  0  0
  180.7190  179.9190  138.2350 N   0  0  0  0  0  0  0  0  0  0  0  0
  181.0320  178.6080  140.3370 C   0  0  0  0  0  2  0  0  0  0  0  0
  184.2730  180.0960  139.2520 O   0  0  0  0  0  1  0  0  0  0  0  0
  180.1540  181.0840  138.9070 C   0  0  0  0  0  1  0  0  0  0  0  0
  180.3620  178.6940  138.9630 C   0  0  0  0  0  2  0  0  0  0  0  0
  182.8950  180.0160  139.4610 C   0  0  2  0  0  3  0  0  0  0  0  0
  182.5430  178.7200  140.1870 C   0  0  1  0  0  3  0  0  0  0  0  0
  182.1760  180.0660  138.1090 C   0  0  0  0  0  2  0  0  0  0  0  0
  1  6  1  0  0  0  0
  1  9  1  0  0  0  0
  2  5  1  0  0  0  0
  3  2  1  0  0  0  0
  3  7  1  0  0  0  0
  5 16  2  0  0  0  0
  5 14  1  0  0  0  0
  7  4  1  0  0  0  0
  8 12  2  0  0  0  0
 10 18  2  0  0  0  0
 10 19  1  0  0  0  0
 11  4  2  0  0  0  0
 12 16  1  0  0  0  0
 13  8  1  0  0  0  0
 13  2  2  0  0  0  0
 14  1  2  0  0  0  0
 15 11  1  0  0  0  0
 16 17  1  0  0  0  0
 17  6  2  0  0  0  0
 18 13  1  0  0  0  0
 19  3  2  0  0  0  0
 20 19  1  0  0  0  0
 20 15  2  0  0  0  0
 22 23  1  0  0  0  0
 22 21  2  0  0  0  0
 23  8  1  0  0  0  0
 24 27  1  0  0  0  0
 24 28  1  0  0  0  0
 28 25  1  0  0  0  0
 29 26  1  6  0  0  0
 29 30  1  0  0  0  0
 30 25  1  0  0  0  0
 30 22  1  1  0  0  0
 31 24  1  0  0  0  0
 31 29  1  0  0  0  0
M  END
>  <MODEL>
6

>  <REMARK>
 VINA RESULT:     -10.4      3.518      6.215
  Name = 
  2 active torsions:
  status: ('A' for Active; 'I' for Inactive)
    1  A    between atoms: C_9  and  C_22
    2  A    between atoms: C_15  and  N_23
                            x       y       z     vdW  Elec       q    Type
                         _______ _______ _______ _____ _____    ______ ____

>  <TORSDO>
F 2

$$$$
=
 OpenBabel10262419353D

 31 35  0  0  1  0  0  0  0  0999 V2000
  186.2970  177.8940  146.5890 C   0  0  0  0  0  0  0  0  0  0  0  0
  186.8570  178.2530  142.8780 C   0  0  0  0  0  0  0  0  0  0  0  0
  188.2380  177.9320  142.6450 C   0  0  0  0  0  0  0  0  0  0  0  0
  189.7750  176.3790  143.8040 C   0  0  0  0  0  3  0  0  0  0  0  0
  186.2400  178.2530  144.1700 C   0  0  0  0  0  0  0  0  0  0  0  0
  184.9590  178.2690  146.6930 C   0  0  0  0  0  3  0  0  0  0  0  0
  189.2130  177.7590  143.7710 C   0  0  0  0  0  2  0  0  0  0  0  0
  184.6970  178.9650  141.9080 C   0  0  0  0  0  0  0  0  0  0  0  0
  186.9880  177.5420  147.6980 F   0  0  0  0  0  0  0  0  0  0  0  0
  187.9230  178.2510  140.2580 C   0  0  0  0  0  3  0  0  0  0  0  0
  190.5700  175.9120  142.8430 C   0  0  0  0  0  3  0  0  0  0  0  0
  184.1310  178.9690  143.1800 C   0  0  0  0  0  3  0  0  0  0  0  0
  186.0500  178.6020  141.7530 C   0  0  0  0  0  0  0  0  0  0  0  0
  186.9250  177.8860  145.3430 C   0  0  0  0  0  3  0  0  0  0  0  0
  190.9170  176.6540  141.6180 C   0  0  0  0  0  3  0  0  0  0  0  0
  184.8750  178.6180  144.2970 C   0  0  0  0  0  0  0  0  0  0  0  0
  184.2490  178.6280  145.5480 C   0  0  0  0  0  3  0  0  0  0  0  0
  186.5990  178.6020  140.4680 C   0  0  0  0  0  3  0  0  0  0  0  0
  188.7430  177.8980  141.3230 C   0  0  0  0  0  0  0  0  0  0  0  0
  190.1300  177.5190  140.9710 C   0  0  0  0  0  3  0  0  0  0  0  0
  182.9230  177.2800  140.2490 O   0  0  0  0  0  0  0  0  0  0  0  0
  183.0370  178.5090  139.9970 C   0  0  0  0  0  0  0  0  0  0  0  0
  183.9220  179.3430  140.7560 N   0  0  0  0  0  2  0  0  0  0  0  0
  180.1370  179.0990  136.8570 N   0  0  0  0  0  0  0  0  0  0  0  0
  182.3650  178.2720  137.6270 C   0  0  0  0  0  2  0  0  0  0  0  0
  180.6580  180.1280  140.3730 O   0  0  0  0  0  1  0  0  0  0  0  0
  179.4730  177.8100  137.0140 C   0  0  0  0  0  1  0  0  0  0  0  0
  181.5470  178.9000  136.4940 C   0  0  0  0  0  2  0  0  0  0  0  0
  180.7810  179.2880  139.2640 C   0  0  2  0  0  3  0  0  0  0  0  0
  182.2510  179.1240  138.8850 C   0  0  1  0  0  3  0  0  0  0  0  0
  180.0040  179.8890  138.0890 C   0  0  0  0  0  2  0  0  0  0  0  0
  1  6  1  0  0  0  0
  1  9  1  0  0  0  0
  2  5  1  0  0  0  0
  3  2  1  0  0  0  0
  3  7  1  0  0  0  0
  5 16  2  0  0  0  0
  5 14  1  0  0  0  0
  7  4  1  0  0  0  0
  8 12  2  0  0  0  0
 10 18  2  0  0  0  0
 10 19  1  0  0  0  0
 11  4  2  0  0  0  0
 12 16  1  0  0  0  0
 13  8  1  0  0  0  0
 13  2  2  0  0  0  0
 14  1  2  0  0  0  0
 15 11  1  0  0  0  0
 16 17  1  0  0  0  0
 17  6  2  0  0  0  0
 18 13  1  0  0  0  0
 19  3  2  0  0  0  0
 20 19  1  0  0  0  0
 20 15  2  0  0  0  0
 22 21  2  0  0  0  0
 22 23  1  0  0  0  0
 23  8  1  0  0  0  0
 24 27  1  0  0  0  0
 24 31  1  0  0  0  0
 25 30  1  0  0  0  0
 28 24  1  0  0  0  0
 28 25  1  0  0  0  0
 29 26  1  1  0  0  0
 30 29  1  0  0  0  0
 30 22  1  1  0  0  0
 31 29  1  0  0  0  0
M  END
>  <MODEL>
7

>  <REMARK>
 VINA RESULT:     -10.3      4.011      6.244
  Name = 
  2 active torsions:
  status: ('A' for Active; 'I' for Inactive)
    1  A    between atoms: C_9  and  C_22
    2  A    between atoms: C_15  and  N_23
                            x       y       z     vdW  Elec       q    Type
                         _______ _______ _______ _____ _____    ______ ____

>  <TORSDO>
F 2

$$$$
=
 OpenBabel10262419353D

 31 35  0  0  1  0  0  0  0  0999 V2000
  189.0620  177.6660  147.4170 C   0  0  0  0  0  0  0  0  0  0  0  0
  187.9800  177.9710  143.8190 C   0  0  0  0  0  0  0  0  0  0  0  0
  189.1830  177.9690  143.0340 C   0  0  0  0  0  0  0  0  0  0  0  0
  191.3690  176.8700  143.3930 C   0  0  0  0  0  3  0  0  0  0  0  0
  187.9530  177.8890  145.2480 C   0  0  0  0  0  0  0  0  0  0  0  0
  187.8320  177.7240  148.0700 C   0  0  0  0  0  3  0  0  0  0  0  0
  190.5400  178.0790  143.6610 C   0  0  0  0  0  2  0  0  0  0  0  0
  185.5120  178.1170  143.8380 C   0  0  0  0  0  0  0  0  0  0  0  0
  190.2020  177.5360  148.1350 F   0  0  0  0  0  0  0  0  0  0  0  0
  187.8680  178.0950  140.9950 C   0  0  0  0  0  3  0  0  0  0  0  0
  191.7930  176.5560  142.1720 C   0  0  0  0  0  3  0  0  0  0  0  0
  185.5220  178.0500  145.2290 C   0  0  0  0  0  3  0  0  0  0  0  0
  186.7300  178.0720  143.1330 C   0  0  0  0  0  0  0  0  0  0  0  0
  189.1170  177.7450  146.0250 C   0  0  0  0  0  3  0  0  0  0  0  0
  191.4370  177.3000  140.9510 C   0  0  0  0  0  3  0  0  0  0  0  0
  186.7110  177.9330  145.9320 C   0  0  0  0  0  0  0  0  0  0  0  0
  186.6580  177.8550  147.3280 C   0  0  0  0  0  3  0  0  0  0  0  0
  186.6990  178.1380  141.7380 C   0  0  0  0  0  3  0  0  0  0  0  0
  189.1050  177.9920  141.6200 C   0  0  0  0  0  0  0  0  0  0  0  0
  190.2790  177.9280  140.7210 C   0  0  0  0  0  3  0  0  0  0  0  0
  183.1110  179.6750  144.5790 O   0  0  0  0  0  0  0  0  0  0  0  0
  183.1410  179.0500  143.4840 C   0  0  0  0  0  0  0  0  0  0  0  0
  184.2730  178.2520  143.1170 N   0  0  0  0  0  2  0  0  0  0  0  0
  180.0910  177.9600  140.6340 N   0  0  0  0  0  0  0  0  0  0  0  0
  182.4140  178.7240  141.1410 C   0  0  0  0  0  2  0  0  0  0  0  0
  180.3770  178.6300  144.2620 O   0  0  0  0  0  1  0  0  0  0  0  0
  180.4470  176.5470  140.5580 C   0  0  0  0  0  1  0  0  0  0  0  0
  181.2190  178.7890  140.1860 C   0  0  0  0  0  2  0  0  0  0  0  0
  180.8330  178.2270  143.0050 C   0  0  2  0  0  3  0  0  0  0  0  0
  181.9800  179.1240  142.5450 C   0  0  1  0  0  3  0  0  0  0  0  0
  179.6790  178.3040  142.0010 C   0  0  0  0  0  2  0  0  0  0  0  0
  1  6  1  0  0  0  0
  1  9  1  0  0  0  0
  2  5  1  0  0  0  0
  3  7  1  0  0  0  0
  3  2  1  0  0  0  0
  4  7  1  0  0  0  0
  5 16  2  0  0  0  0
  5 14  1  0  0  0  0
  8 12  2  0  0  0  0
 10 19  1  0  0  0  0
 10 18  2  0  0  0  0
 11  4  2  0  0  0  0
 12 16  1  0  0  0  0
 13  2  2  0  0  0  0
 13  8  1  0  0  0  0
 14  1  2  0  0  0  0
 15 11  1  0  0  0  0
 16 17  1  0  0  0  0
 17  6  2  0  0  0  0
 18 13  1  0  0  0  0
 19  3  2  0  0  0  0
 20 15  2  0  0  0  0
 20 19  1  0  0  0  0
 22 21  2  0  0  0  0
 23 22  1  0  0  0  0
 23  8  1  0  0  0  0
 24 31  1  0  0  0  0
 25 30  1  0  0  0  0
 27 24  1  0  0  0  0
 28 24  1  0  0  0  0
 28 25  1  0  0  0  0
 29 26  1  1  0  0  0
 30 29  1  0  0  0  0
 30 22  1  1  0  0  0
 31 29  1  0  0  0  0
M  END
>  <MODEL>
8

>  <REMARK>
 VINA RESULT:     -10.2      3.839      6.723
  Name = 
  2 active torsions:
  status: ('A' for Active; 'I' for Inactive)
    1  A    between atoms: C_9  and  C_22
    2  A    between atoms: C_15  and  N_23
                            x       y       z     vdW  Elec       q    Type
                         _______ _______ _______ _____ _____    ______ ____

>  <TORSDO>
F 2

$$$$
=
 OpenBabel10262419353D

 31 35  0  0  1  0  0  0  0  0999 V2000
  190.7670  177.1950  140.0000 C   0  0  0  0  0  0  0  0  0  0  0  0
  187.8170  177.7710  142.2750 C   0  0  0  0  0  0  0  0  0  0  0  0
  188.2210  177.3300  143.5810 C   0  0  0  0  0  0  0  0  0  0  0  0
  190.4300  177.3190  144.6930 C   0  0  0  0  0  3  0  0  0  0  0  0
  188.6500  177.7070  141.1120 C   0  0  0  0  0  0  0  0  0  0  0  0
  190.2450  177.6120  138.7770 C   0  0  0  0  0  3  0  0  0  0  0  0
  189.4970  176.5730  143.8030 C   0  0  0  0  0  2  0  0  0  0  0  0
  186.0180  178.7170  140.8660 C   0  0  0  0  0  0  0  0  0  0  0  0
  192.0390  176.7380  140.0710 F   0  0  0  0  0  0  0  0  0  0  0  0
  186.0720  178.0050  144.4890 C   0  0  0  0  0  3  0  0  0  0  0  0
  190.1620  177.5420  145.9770 C   0  0  0  0  0  3  0  0  0  0  0  0
  186.8490  178.6270  139.7520 C   0  0  0  0  0  3  0  0  0  0  0  0
  186.4980  178.2990  142.1230 C   0  0  0  0  0  0  0  0  0  0  0  0
  189.9780  177.2460  141.1500 C   0  0  0  0  0  3  0  0  0  0  0  0
  188.9040  177.1610  146.6420 C   0  0  0  0  0  3  0  0  0  0  0  0
  188.1420  178.1390  139.8590 C   0  0  0  0  0  0  0  0  0  0  0  0
  188.9350  178.0850  138.7080 C   0  0  0  0  0  3  0  0  0  0  0  0
  185.6500  178.3990  143.2300 C   0  0  0  0  0  3  0  0  0  0  0  0
  187.3480  177.4910  144.6840 C   0  0  0  0  0  0  0  0  0  0  0  0
  187.6920  177.1300  146.0770 C   0  0  0  0  0  3  0  0  0  0  0  0
  184.2040  178.5580  138.5370 O   0  0  0  0  0  0  0  0  0  0  0  0
  183.8030  179.0830  139.6110 C   0  0  0  0  0  0  0  0  0  0  0  0
  184.6730  179.2130  140.7430 N   0  0  0  0  0  2  0  0  0  0  0  0
  179.7140  180.0860  138.6690 N   0  0  0  0  0  0  0  0  0  0  0  0
  182.1450  180.6560  138.6600 C   0  0  0  0  0  2  0  0  0  0  0  0
  181.5630  177.5180  140.5870 O   0  0  0  0  0  1  0  0  0  0  0  0
  179.7220  179.5220  137.3230 C   0  0  0  0  0  1  0  0  0  0  0  0
  180.7060  181.1660  138.7690 C   0  0  0  0  0  2  0  0  0  0  0  0
  181.3840  178.4640  139.5750 C   0  0  2  0  0  3  0  0  0  0  0  0
  182.4030  179.5930  139.7200 C   0  0  1  0  0  3  0  0  0  0  0  0
  179.9650  179.0300  139.6590 C   0  0  0  0  0  2  0  0  0  0  0  0
  1  9  1  0  0  0  0
  1 14  1  0  0  0  0
  2  3  1  0  0  0  0
  3  7  1  0  0  0  0
  3 19  2  0  0  0  0
  4 11  2  0  0  0  0
  5 14  2  0  0  0  0
  5  2  1  0  0  0  0
  6  1  2  0  0  0  0
  7  4  1  0  0  0  0
  8 13  1  0  0  0  0
 10 19  1  0  0  0  0
 11 15  1  0  0  0  0
 12 16  1  0  0  0  0
 12  8  2  0  0  0  0
 13  2  2  0  0  0  0
 13 18  1  0  0  0  0
 16  5  1  0  0  0  0
 17  6  1  0  0  0  0
 17 16  2  0  0  0  0
 18 10  2  0  0  0  0
 19 20  1  0  0  0  0
 20 15  2  0  0  0  0
 21 22  2  0  0  0  0
 22 23  1  0  0  0  0
 23  8  1  0  0  0  0
 24 28  1  0  0  0  0
 24 31  1  0  0  0  0
 25 28  1  0  0  0  0
 25 30  1  0  0  0  0
 27 24  1  0  0  0  0
 29 31  1  0  0  0  0
 29 30  1  0  0  0  0
 29 26  1  1  0  0  0
 30 22  1  6  0  0  0
M  END
>  <MODEL>
9

>  <REMARK>
 VINA RESULT:      -9.9      3.993      6.169
  Name = 
  2 active torsions:
  status: ('A' for Active; 'I' for Inactive)
    1  A    between atoms: C_9  and  C_22
    2  A    between atoms: C_15  and  N_23
                            x       y       z     vdW  Elec       q    Type
                         _______ _______ _______ _____ _____    ______ ____

>  <TORSDO>
F 2

$$$$
