=
 OpenBabel10262420253D

 55 60  0  0  1  0  0  0  0  0999 V2000
  185.2110  178.7090  143.8140 C   0  0  0  0  0  3  0  0  0  0  0  0
  183.2280  178.7170  141.8370 C   0  0  0  0  0  0  0  0  0  0  0  0
  184.5780  178.6520  141.4750 C   0  0  0  0  0  3  0  0  0  0  0  0
  183.8630  178.7700  144.1750 C   0  0  0  0  0  3  0  0  0  0  0  0
  185.5730  178.6440  142.4660 C   0  0  0  0  0  0  0  0  0  0  0  0
  182.8720  178.7670  143.1860 C   0  0  0  0  0  3  0  0  0  0  0  0
  187.0160  178.5620  142.1020 C   0  0  0  0  0  2  0  0  0  0  0  0
  189.2500  176.0950  136.7990 C   0  0  0  0  0  3  0  0  0  0  0  0
  190.2930  175.3070  136.3000 C   0  0  0  0  0  3  0  0  0  0  0  0
  190.4640  176.3870  138.8780 C   0  0  0  0  0  0  0  0  0  0  0  0
  191.5080  175.6030  138.3730 C   0  0  0  0  0  3  0  0  0  0  0  0
  191.4250  175.0650  137.0860 C   0  0  0  0  0  3  0  0  0  0  0  0
  189.3290  176.6410  138.0870 C   0  0  0  0  0  0  0  0  0  0  0  0
  187.1760  178.2140  140.6580 C   0  0  0  0  0  3  0  0  0  0  0  0
  189.5880  177.5520  140.7950 C   0  0  0  0  0  0  0  0  0  0  0  0
  190.5490  176.8970  140.2120 N   0  0  0  0  0  0  0  0  0  0  0  0
  188.2220  177.5270  138.5880 C   0  0  1  0  0  3  0  0  0  0  0  0
  188.3030  177.7940  140.0690 C   0  0  0  0  0  0  0  0  0  0  0  0
  189.7610  177.9970  142.1450 N   0  0  0  0  0  2  0  0  0  0  0  0
  191.5970  178.5580  143.6720 C   0  0  0  0  0  2  0  0  0  0  0  0
  191.2090  177.0320  145.3010 C   0  0  1  0  0  3  0  0  0  0  0  0
  190.7860  177.4600  143.0340 C   0  0  1  0  0  3  0  0  0  0  0  0
  190.1560  176.8260  144.2220 C   0  0  0  0  0  2  0  0  0  0  0  0
  192.0570  178.0970  144.9180 O   0  0  0  0  0  0  0  0  0  0  0  0
  190.6030  177.3140  146.6050 N   0  0  0  0  0  0  0  0  0  0  0  0
  189.2030  176.9090  146.5640 C   0  0  0  0  0  1  0  0  0  0  0  0
  191.2220  176.4630  147.5360 N   0  0  0  0  0  1  0  0  0  0  0  0
  188.2210  178.7410  137.8870 O   0  0  0  0  0  0  0  0  0  0  0  0
  186.0590  177.7210  137.7260 C   0  0  0  0  0  1  0  0  0  0  0  0
  187.0290  178.7390  137.1490 C   0  0  2  0  0  3  0  0  0  0  0  0
  187.2970  178.4700  135.6660 C   0  0  0  0  0  2  0  0  0  0  0  0
  186.2930  177.4910  135.0690 C   0  0  0  0  0  1  0  0  0  0  0  0
  182.1600  178.6580  140.7980 C   0  0  0  0  0  2  0  0  0  0  0  0
  182.5540  179.3490  139.6480 O   0  0  0  0  0  0  0  0  0  0  0  0
  181.3660  179.5750  138.9570 C   0  0  0  0  0  2  0  0  0  0  0  0
  181.5580  179.2360  137.4890 C   0  0  0  0  0  2  0  0  0  0  0  0
  180.4220  178.3500  137.0110 C   0  0  0  0  0  2  0  0  0  0  0  0
  180.3150  177.2320  137.8530 O   0  0  0  0  0  0  0  0  0  0  0  0
  179.3910  175.4130  136.7890 F   0  0  0  0  0  0  0  0  0  0  0  0
  180.5800  176.0700  137.0950 C   0  0  0  0  0  0  0  0  0  0  0  0
  181.2140  176.4140  135.9080 F   0  0  0  0  0  0  0  0  0  0  0  0
  181.7060  172.9890  136.4890 C   0  0  0  0  0  0  0  0  0  0  0  0
  183.3680  176.5380  138.3100 F   0  0  0  0  0  0  0  0  0  0  0  0
  181.4710  175.1130  137.9260 C   0  0  1  0  0  0  0  0  0  0  0  0
  185.9990  174.0950  137.3010 C   0  0  0  0  0  2  0  0  0  0  0  0
  183.2490  175.5150  136.3260 F   0  0  0  0  0  0  0  0  0  0  0  0
  182.9940  175.3570  137.6880 C   0  0  0  0  0  0  0  0  0  0  0  0
  181.2210  173.0940  135.3740 O   0  0  0  0  0  0  0  0  0  0  0  0
  185.6140  172.9340  138.0090 O   0  0  0  0  0  0  0  0  0  0  0  0
  184.5940  173.6540  137.3700 C   0  0  1  0  0  0  0  0  0  0  0  0
  182.9680  172.2150  136.6970 C   0  0  0  0  0  2  0  0  0  0  0  0
  183.7360  174.3020  138.2900 O   0  0  0  0  0  0  0  0  0  0  0  0
  181.2090  175.3600  139.2780 O   0  0  0  0  0  1  0  0  0  0  0  0
  184.0650  172.9690  136.2550 O   0  0  0  0  0  0  0  0  0  0  0  0
  181.0520  173.6450  137.6680 C   0  0  0  0  0  2  0  0  0  0  0  0
  1  4  1  0  0  0  0
  2  6  1  0  0  0  0
  3  2  2  0  0  0  0
  3  5  1  0  0  0  0
  5  1  2  0  0  0  0
  6  4  2  0  0  0  0
  7  5  1  0  0  0  0
  8 13  1  0  0  0  0
  9  8  2  0  0  0  0
  9 12  1  0  0  0  0
 10 16  1  0  0  0  0
 11 10  1  0  0  0  0
 12 11  2  0  0  0  0
 13 17  1  0  0  0  0
 13 10  2  0  0  0  0
 14  7  1  0  0  0  0
 15 19  1  0  0  0  0
 16 15  2  0  0  0  0
 17 28  1  6  0  0  0
 17 18  1  0  0  0  0
 18 14  2  0  0  0  0
 18 15  1  0  0  0  0
 20 24  1  0  0  0  0
 21 25  1  1  0  0  0
 22 19  1  6  0  0  0
 22 20  1  0  0  0  0
 22 23  1  0  0  0  0
 23 21  1  0  0  0  0
 24 21  1  0  0  0  0
 25 27  1  0  0  0  0
 26 25  1  0  0  0  0
 30 29  1  1  0  0  0
 30 28  1  0  0  0  0
 31 30  1  0  0  0  0
 32 31  1  0  0  0  0
 33  2  1  0  0  0  0
 34 33  1  0  0  0  0
 35 34  1  0  0  0  0
 36 35  1  0  0  0  0
 37 36  1  0  0  0  0
 37 38  1  0  0  0  0
 39 40  1  0  0  0  0
 40 38  1  0  0  0  0
 40 44  1  0  0  0  0
 41 40  1  0  0  0  0
 42 51  1  0  0  0  0
 42 55  1  0  0  0  0
 44 53  1  1  0  0  0
 45 49  1  0  0  0  0
 46 47  1  0  0  0  0
 47 44  1  0  0  0  0
 47 52  1  0  0  0  0
 47 43  1  0  0  0  0
 48 42  2  0  0  0  0
 50 45  1  6  0  0  0
 50 49  1  0  0  0  0
 50 52  1  0  0  0  0
 54 51  1  0  0  0  0
 54 50  1  0  0  0  0
 55 44  1  0  0  0  0
M  END
>  <MODEL>
1

>  <REMARK>
 VINA RESULT:      -7.9      0.000      0.000
  Name = 
  15 active torsions:
  status: ('A' for Active; 'I' for Inactive)
    1  A    between atoms: C_2  and  C_28
    2  A    between atoms: C_2  and  C_44
    3  A    between atoms: C_4  and  C_40
    4  A    between atoms: C_6  and  C_20
    5  A    between atoms: C_8  and  O_22
    6  A    between atoms: C_8  and  C_35
    7  A    between atoms: N_10  and  C_32
    8  A    between atoms: O_19  and  C_40
    9  A    between atoms: O_19  and  C_45
   10  A    between atoms: C_20  and  O_22
   11  A    between atoms: C_27  and  C_54
   12  A    between atoms: C_34  and  N_52
   13  A    between atoms: C_35  and  C_43
   14  A    between atoms: C_43  and  O_51
   15  A    between atoms: O_51  and  C_54
                            x       y       z     vdW  Elec       q    Type
                         _______ _______ _______ _____ _____    ______ ____

>  <TORSDO>
F 15

$$$$
=
 OpenBabel10262420253D

 55 60  0  0  1  0  0  0  0  0999 V2000
  185.4500  178.5390  144.3540 C   0  0  0  0  0  3  0  0  0  0  0  0
  183.4830  178.6050  142.3620 C   0  0  0  0  0  0  0  0  0  0  0  0
  184.8040  178.2810  142.0320 C   0  0  0  0  0  3  0  0  0  0  0  0
  184.1310  178.8590  144.6840 C   0  0  0  0  0  3  0  0  0  0  0  0
  185.7900  178.2450  143.0310 C   0  0  0  0  0  0  0  0  0  0  0  0
  183.1470  178.8840  143.6890 C   0  0  0  0  0  3  0  0  0  0  0  0
  187.2000  177.8900  142.7030 C   0  0  0  0  0  2  0  0  0  0  0  0
  189.6590  176.3000  137.1680 C   0  0  0  0  0  3  0  0  0  0  0  0
  190.8320  175.8160  136.5790 C   0  0  0  0  0  3  0  0  0  0  0  0
  190.8820  176.7800  139.2070 C   0  0  0  0  0  0  0  0  0  0  0  0
  192.0550  176.3000  138.6110 C   0  0  0  0  0  3  0  0  0  0  0  0
  192.0310  175.8200  137.2990 C   0  0  0  0  0  3  0  0  0  0  0  0
  189.6770  176.7860  138.4820 C   0  0  0  0  0  0  0  0  0  0  0  0
  187.3580  177.6610  141.2340 C   0  0  0  0  0  3  0  0  0  0  0  0
  189.8610  177.6020  141.2270 C   0  0  0  0  0  0  0  0  0  0  0  0
  190.9180  177.2310  140.5650 N   0  0  0  0  0  0  0  0  0  0  0  0
  188.4190  177.3510  139.0840 C   0  0  1  0  0  3  0  0  0  0  0  0
  188.5180  177.5580  140.5740 C   0  0  0  0  0  0  0  0  0  0  0  0
  189.9990  178.0100  142.5930 N   0  0  0  0  0  2  0  0  0  0  0  0
  191.3480  178.6850  144.5280 C   0  0  0  0  0  2  0  0  0  0  0  0
  191.7930  176.6430  145.4020 C   0  0  1  0  0  3  0  0  0  0  0  0
  191.1720  177.6980  143.4030 C   0  0  1  0  0  3  0  0  0  0  0  0
  190.9590  176.4290  144.1480 C   0  0  0  0  0  2  0  0  0  0  0  0
  191.9990  178.0300  145.5880 O   0  0  0  0  0  0  0  0  0  0  0  0
  191.1520  176.0650  146.5870 N   0  0  0  0  0  0  0  0  0  0  0  0
  192.1660  175.8680  147.6140 C   0  0  0  0  0  1  0  0  0  0  0  0
  190.2760  177.0390  147.0930 N   0  0  0  0  0  1  0  0  0  0  0  0
  188.0850  178.5600  138.4580 O   0  0  0  0  0  0  0  0  0  0  0  0
  187.2450  179.3470  136.3580 C   0  0  0  0  0  1  0  0  0  0  0  0
  187.3070  178.1980  137.3500 C   0  0  2  0  0  3  0  0  0  0  0  0
  185.9040  177.7590  137.7790 C   0  0  0  0  0  2  0  0  0  0  0  0
  185.1280  178.8870  138.4480 C   0  0  0  0  0  1  0  0  0  0  0  0
  182.4140  178.5810  141.3240 C   0  0  0  0  0  2  0  0  0  0  0  0
  181.1490  178.6340  141.9180 O   0  0  0  0  0  0  0  0  0  0  0  0
  180.4950  179.6650  141.2470 C   0  0  0  0  0  2  0  0  0  0  0  0
  179.1350  179.1820  140.7740 C   0  0  0  0  0  2  0  0  0  0  0  0
  179.1890  178.8600  139.2910 C   0  0  0  0  0  2  0  0  0  0  0  0
  179.7160  177.5720  139.1120 O   0  0  0  0  0  0  0  0  0  0  0  0
  179.7080  178.1840  136.8940 F   0  0  0  0  0  0  0  0  0  0  0  0
  180.4330  177.5440  137.8960 C   0  0  0  0  0  0  0  0  0  0  0  0
  181.6490  178.1970  138.0490 F   0  0  0  0  0  0  0  0  0  0  0  0
  181.9450  176.1950  135.2460 C   0  0  0  0  0  0  0  0  0  0  0  0
  181.7370  175.2320  139.4530 F   0  0  0  0  0  0  0  0  0  0  0  0
  180.6610  176.0700  137.4740 C   0  0  1  0  0  0  0  0  0  0  0  0
  184.6000  173.5530  137.7520 C   0  0  0  0  0  2  0  0  0  0  0  0
  183.0090  176.3690  138.0080 F   0  0  0  0  0  0  0  0  0  0  0  0
  181.9540  175.4620  138.1030 C   0  0  0  0  0  0  0  0  0  0  0  0
  182.2820  177.3270  134.9360 O   0  0  0  0  0  0  0  0  0  0  0  0
  183.9520  172.8250  136.7280 O   0  0  0  0  0  0  0  0  0  0  0  0
  183.5230  174.1440  136.9370 C   0  0  1  0  0  0  0  0  0  0  0  0
  182.8400  175.0320  134.9590 C   0  0  0  0  0  2  0  0  0  0  0  0
  182.2230  174.2050  137.4920 O   0  0  0  0  0  0  0  0  0  0  0  0
  179.5720  175.3250  137.9400 O   0  0  0  0  0  1  0  0  0  0  0  0
  183.8940  175.0070  135.8840 O   0  0  0  0  0  0  0  0  0  0  0  0
  180.6340  175.9530  135.9310 C   0  0  0  0  0  2  0  0  0  0  0  0
  1  4  1  0  0  0  0
  2  6  1  0  0  0  0
  3  2  2  0  0  0  0
  3  5  1  0  0  0  0
  5  1  2  0  0  0  0
  6  4  2  0  0  0  0
  7  5  1  0  0  0  0
  8 13  1  0  0  0  0
  9  8  2  0  0  0  0
  9 12  1  0  0  0  0
 10 16  1  0  0  0  0
 11 10  1  0  0  0  0
 12 11  2  0  0  0  0
 13 17  1  0  0  0  0
 13 10  2  0  0  0  0
 14  7  1  0  0  0  0
 15 19  1  0  0  0  0
 16 15  2  0  0  0  0
 17 28  1  6  0  0  0
 17 18  1  0  0  0  0
 18 15  1  0  0  0  0
 18 14  2  0  0  0  0
 20 24  1  0  0  0  0
 21 24  1  0  0  0  0
 21 25  1  1  0  0  0
 22 19  1  1  0  0  0
 22 23  1  0  0  0  0
 22 20  1  0  0  0  0
 23 21  1  0  0  0  0
 25 27  1  0  0  0  0
 25 26  1  0  0  0  0
 30 29  1  6  0  0  0
 30 31  1  0  0  0  0
 30 28  1  0  0  0  0
 31 32  1  0  0  0  0
 33 34  1  0  0  0  0
 33  2  1  0  0  0  0
 35 34  1  0  0  0  0
 36 35  1  0  0  0  0
 37 36  1  0  0  0  0
 38 37  1  0  0  0  0
 39 40  1  0  0  0  0
 40 41  1  0  0  0  0
 40 38  1  0  0  0  0
 42 55  1  0  0  0  0
 44 40  1  0  0  0  0
 44 53  1  1  0  0  0
 44 47  1  0  0  0  0
 46 47  1  0  0  0  0
 47 43  1  0  0  0  0
 48 42  2  0  0  0  0
 49 50  1  0  0  0  0
 49 45  1  0  0  0  0
 50 52  1  0  0  0  0
 50 45  1  1  0  0  0
 51 42  1  0  0  0  0
 51 54  1  0  0  0  0
 52 47  1  0  0  0  0
 54 50  1  0  0  0  0
 55 44  1  0  0  0  0
M  END
>  <MODEL>
2

>  <REMARK>
 VINA RESULT:      -7.6      1.437      1.888
  Name = 
  15 active torsions:
  status: ('A' for Active; 'I' for Inactive)
    1  A    between atoms: C_2  and  C_28
    2  A    between atoms: C_2  and  C_44
    3  A    between atoms: C_4  and  C_40
    4  A    between atoms: C_6  and  C_20
    5  A    between atoms: C_8  and  O_22
    6  A    between atoms: C_8  and  C_35
    7  A    between atoms: N_10  and  C_32
    8  A    between atoms: O_19  and  C_40
    9  A    between atoms: O_19  and  C_45
   10  A    between atoms: C_20  and  O_22
   11  A    between atoms: C_27  and  C_54
   12  A    between atoms: C_34  and  N_52
   13  A    between atoms: C_35  and  C_43
   14  A    between atoms: C_43  and  O_51
   15  A    between atoms: O_51  and  C_54
                            x       y       z     vdW  Elec       q    Type
                         _______ _______ _______ _____ _____    ______ ____

>  <TORSDO>
F 15

$$$$
=
 OpenBabel10262420253D

 55 60  0  0  1  0  0  0  0  0999 V2000
  185.4750  178.4760  144.4050 C   0  0  0  0  0  3  0  0  0  0  0  0
  183.5330  178.6370  142.3940 C   0  0  0  0  0  0  0  0  0  0  0  0
  184.8540  178.3110  142.0670 C   0  0  0  0  0  3  0  0  0  0  0  0
  184.1550  178.7980  144.7300 C   0  0  0  0  0  3  0  0  0  0  0  0
  185.8280  178.2270  143.0750 C   0  0  0  0  0  0  0  0  0  0  0  0
  183.1840  178.8710  143.7260 C   0  0  0  0  0  3  0  0  0  0  0  0
  187.2380  177.8690  142.7510 C   0  0  0  0  0  2  0  0  0  0  0  0
  189.7190  176.3290  137.2120 C   0  0  0  0  0  3  0  0  0  0  0  0
  190.8930  175.8460  136.6230 C   0  0  0  0  0  3  0  0  0  0  0  0
  190.9340  176.7800  139.2630 C   0  0  0  0  0  0  0  0  0  0  0  0
  192.1070  176.3020  138.6670 C   0  0  0  0  0  3  0  0  0  0  0  0
  192.0880  175.8360  137.3500 C   0  0  0  0  0  3  0  0  0  0  0  0
  189.7330  176.8010  138.5310 C   0  0  0  0  0  0  0  0  0  0  0  0
  187.4020  177.6560  141.2810 C   0  0  0  0  0  3  0  0  0  0  0  0
  189.9050  177.5850  141.2860 C   0  0  0  0  0  0  0  0  0  0  0  0
  190.9640  177.2160  140.6250 N   0  0  0  0  0  0  0  0  0  0  0  0
  188.4740  177.3640  139.1330 C   0  0  1  0  0  3  0  0  0  0  0  0
  188.5650  177.5540  140.6250 C   0  0  0  0  0  0  0  0  0  0  0  0
  190.0380  177.9780  142.6570 N   0  0  0  0  0  2  0  0  0  0  0  0
  191.3750  178.6200  144.6110 C   0  0  0  0  0  2  0  0  0  0  0  0
  191.8120  176.5630  145.4560 C   0  0  1  0  0  3  0  0  0  0  0  0
  191.2040  177.6510  143.4690 C   0  0  1  0  0  3  0  0  0  0  0  0
  190.9850  176.3710  144.1940 C   0  0  0  0  0  2  0  0  0  0  0  0
  192.0180  177.9470  145.6650 O   0  0  0  0  0  0  0  0  0  0  0  0
  191.1620  175.9680  146.6280 N   0  0  0  0  0  0  0  0  0  0  0  0
  192.1310  175.9040  147.7140 C   0  0  0  0  0  1  0  0  0  0  0  0
  190.1720  176.8710  147.0490 N   0  0  0  0  0  1  0  0  0  0  0  0
  188.1490  178.5820  138.5190 O   0  0  0  0  0  0  0  0  0  0  0  0
  187.2830  179.3950  136.4390 C   0  0  0  0  0  1  0  0  0  0  0  0
  187.3470  178.2380  137.4210 C   0  0  2  0  0  3  0  0  0  0  0  0
  185.9460  177.8140  137.8700 C   0  0  0  0  0  2  0  0  0  0  0  0
  185.1820  178.9580  138.5270 C   0  0  0  0  0  1  0  0  0  0  0  0
  182.4760  178.6630  141.3420 C   0  0  0  0  0  2  0  0  0  0  0  0
  182.6040  177.5630  140.4880 O   0  0  0  0  0  0  0  0  0  0  0  0
  181.3660  177.4700  139.8570 C   0  0  0  0  0  2  0  0  0  0  0  0
  181.2120  178.6100  138.8650 C   0  0  0  0  0  2  0  0  0  0  0  0
  181.7740  178.1990  137.5160 C   0  0  0  0  0  2  0  0  0  0  0  0
  181.4990  176.8410  137.2900 O   0  0  0  0  0  0  0  0  0  0  0  0
  183.4780  177.0980  136.1440 F   0  0  0  0  0  0  0  0  0  0  0  0
  182.6860  176.2060  136.8640 C   0  0  0  0  0  0  0  0  0  0  0  0
  183.4070  175.7640  137.9650 F   0  0  0  0  0  0  0  0  0  0  0  0
  183.8800  173.0980  136.6690 C   0  0  0  0  0  0  0  0  0  0  0  0
  179.9580  174.8810  136.3470 F   0  0  0  0  0  0  0  0  0  0  0  0
  182.3240  175.0150  135.9420 C   0  0  1  0  0  0  0  0  0  0  0  0
  179.8000  171.2100  136.9830 C   0  0  0  0  0  2  0  0  0  0  0  0
  181.3040  173.9460  137.8670 F   0  0  0  0  0  0  0  0  0  0  0  0
  181.1370  174.1680  136.5000 C   0  0  0  0  0  0  0  0  0  0  0  0
  184.5430  173.3520  137.6620 O   0  0  0  0  0  0  0  0  0  0  0  0
  180.5360  170.6880  135.8950 O   0  0  0  0  0  0  0  0  0  0  0  0
  181.0710  171.8120  136.5430 C   0  0  1  0  0  0  0  0  0  0  0  0
  183.3410  171.7210  136.4490 C   0  0  0  0  0  2  0  0  0  0  0  0
  181.0170  172.9730  135.7360 O   0  0  0  0  0  0  0  0  0  0  0  0
  181.9240  175.5430  134.7090 O   0  0  0  0  0  1  0  0  0  0  0  0
  182.2340  171.5070  137.2830 O   0  0  0  0  0  0  0  0  0  0  0  0
  183.5850  174.1640  135.6580 C   0  0  0  0  0  2  0  0  0  0  0  0
  1  4  1  0  0  0  0
  2  6  1  0  0  0  0
  3  2  2  0  0  0  0
  3  5  1  0  0  0  0
  5  1  2  0  0  0  0
  6  4  2  0  0  0  0
  7  5  1  0  0  0  0
  8 13  1  0  0  0  0
  9  8  2  0  0  0  0
  9 12  1  0  0  0  0
 10 16  1  0  0  0  0
 11 10  1  0  0  0  0
 12 11  2  0  0  0  0
 13 17  1  0  0  0  0
 13 10  2  0  0  0  0
 14  7  1  0  0  0  0
 15 19  1  0  0  0  0
 16 15  2  0  0  0  0
 17 28  1  6  0  0  0
 17 18  1  0  0  0  0
 18 14  2  0  0  0  0
 18 15  1  0  0  0  0
 20 24  1  0  0  0  0
 21 24  1  0  0  0  0
 21 25  1  1  0  0  0
 22 19  1  1  0  0  0
 22 23  1  0  0  0  0
 22 20  1  0  0  0  0
 23 21  1  0  0  0  0
 25 27  1  0  0  0  0
 25 26  1  0  0  0  0
 30 29  1  6  0  0  0
 30 31  1  0  0  0  0
 30 28  1  0  0  0  0
 31 32  1  0  0  0  0
 33  2  1  0  0  0  0
 34 33  1  0  0  0  0
 35 34  1  0  0  0  0
 36 35  1  0  0  0  0
 37 36  1  0  0  0  0
 38 37  1  0  0  0  0
 39 40  1  0  0  0  0
 40 38  1  0  0  0  0
 40 41  1  0  0  0  0
 42 48  2  0  0  0  0
 43 47  1  0  0  0  0
 44 53  1  6  0  0  0
 44 47  1  0  0  0  0
 44 40  1  0  0  0  0
 47 46  1  0  0  0  0
 49 50  1  0  0  0  0
 49 45  1  0  0  0  0
 50 45  1  1  0  0  0
 50 54  1  0  0  0  0
 51 42  1  0  0  0  0
 51 54  1  0  0  0  0
 52 47  1  0  0  0  0
 52 50  1  0  0  0  0
 55 44  1  0  0  0  0
 55 42  1  0  0  0  0
M  END
>  <MODEL>
3

>  <REMARK>
 VINA RESULT:      -7.6      1.307      2.412
  Name = 
  15 active torsions:
  status: ('A' for Active; 'I' for Inactive)
    1  A    between atoms: C_2  and  C_28
    2  A    between atoms: C_2  and  C_44
    3  A    between atoms: C_4  and  C_40
    4  A    between atoms: C_6  and  C_20
    5  A    between atoms: C_8  and  O_22
    6  A    between atoms: C_8  and  C_35
    7  A    between atoms: N_10  and  C_32
    8  A    between atoms: O_19  and  C_40
    9  A    between atoms: O_19  and  C_45
   10  A    between atoms: C_20  and  O_22
   11  A    between atoms: C_27  and  C_54
   12  A    between atoms: C_34  and  N_52
   13  A    between atoms: C_35  and  C_43
   14  A    between atoms: C_43  and  O_51
   15  A    between atoms: O_51  and  C_54
                            x       y       z     vdW  Elec       q    Type
                         _______ _______ _______ _____ _____    ______ ____

>  <TORSDO>
F 15

$$$$
=
 OpenBabel10262420253D

 55 60  0  0  1  0  0  0  0  0999 V2000
  185.3130  178.8330  143.9350 C   0  0  0  0  0  3  0  0  0  0  0  0
  183.2360  178.5840  142.0740 C   0  0  0  0  0  0  0  0  0  0  0  0
  184.5680  178.5540  141.6460 C   0  0  0  0  0  3  0  0  0  0  0  0
  183.9840  178.8600  144.3620 C   0  0  0  0  0  3  0  0  0  0  0  0
  185.6100  178.6740  142.5790 C   0  0  0  0  0  0  0  0  0  0  0  0
  182.9460  178.7280  143.4330 C   0  0  0  0  0  3  0  0  0  0  0  0
  187.0360  178.6320  142.1450 C   0  0  0  0  0  2  0  0  0  0  0  0
  189.0850  176.0070  136.8420 C   0  0  0  0  0  3  0  0  0  0  0  0
  190.1250  175.2270  136.3260 C   0  0  0  0  0  3  0  0  0  0  0  0
  190.3870  176.4150  138.8480 C   0  0  0  0  0  0  0  0  0  0  0  0
  191.4270  175.6380  138.3250 C   0  0  0  0  0  3  0  0  0  0  0  0
  191.2980  175.0450  137.0660 C   0  0  0  0  0  3  0  0  0  0  0  0
  189.2100  176.6070  138.1030 C   0  0  0  0  0  0  0  0  0  0  0  0
  187.1380  178.2290  140.7090 C   0  0  0  0  0  3  0  0  0  0  0  0
  189.5700  177.6350  140.7570 C   0  0  0  0  0  0  0  0  0  0  0  0
  190.5210  176.9810  140.1560 N   0  0  0  0  0  0  0  0  0  0  0  0
  188.1040  177.4850  138.6210 C   0  0  1  0  0  3  0  0  0  0  0  0
  188.2470  177.8140  140.0850 C   0  0  0  0  0  0  0  0  0  0  0  0
  189.7940  178.1380  142.0790 N   0  0  0  0  0  2  0  0  0  0  0  0
  191.3260  178.7320  143.9010 C   0  0  0  0  0  2  0  0  0  0  0  0
  191.2690  176.8000  145.0820 C   0  0  1  0  0  3  0  0  0  0  0  0
  190.8740  177.6650  142.9380 C   0  0  1  0  0  3  0  0  0  0  0  0
  190.3710  176.6180  143.8670 C   0  0  0  0  0  2  0  0  0  0  0  0
  191.8220  178.1010  145.0550 O   0  0  0  0  0  0  0  0  0  0  0  0
  190.5380  176.5880  146.3350 N   0  0  0  0  0  0  0  0  0  0  0  0
  191.4860  176.6410  147.4400 C   0  0  0  0  0  1  0  0  0  0  0  0
  189.6880  177.6940  146.5040 N   0  0  0  0  0  1  0  0  0  0  0  0
  188.0360  178.6690  137.8740 O   0  0  0  0  0  0  0  0  0  0  0  0
  185.9680  177.4740  137.6990 C   0  0  0  0  0  1  0  0  0  0  0  0
  186.8550  178.5650  137.1260 C   0  0  2  0  0  3  0  0  0  0  0  0
  187.1570  178.3140  135.6460 C   0  0  0  0  0  2  0  0  0  0  0  0
  186.0320  177.5580  134.9500 C   0  0  0  0  0  1  0  0  0  0  0  0
  182.1220  178.3890  141.1030 C   0  0  0  0  0  2  0  0  0  0  0  0
  182.1900  179.3390  140.0780 O   0  0  0  0  0  0  0  0  0  0  0  0
  180.9140  179.8950  140.0370 C   0  0  0  0  0  2  0  0  0  0  0  0
  180.8170  180.8640  138.8720 C   0  0  0  0  0  2  0  0  0  0  0  0
  181.6350  180.3470  137.7020 C   0  0  0  0  0  2  0  0  0  0  0  0
  180.7920  179.6770  136.8020 O   0  0  0  0  0  0  0  0  0  0  0  0
  181.9290  178.7580  135.0250 F   0  0  0  0  0  0  0  0  0  0  0  0
  181.4660  178.5340  136.3200 C   0  0  0  0  0  0  0  0  0  0  0  0
  182.5520  178.2450  137.1350 F   0  0  0  0  0  0  0  0  0  0  0  0
  181.9520  175.2580  135.9170 C   0  0  0  0  0  0  0  0  0  0  0  0
  179.3560  177.6720  138.3870 F   0  0  0  0  0  0  0  0  0  0  0  0
  180.4800  177.3380  136.2890 C   0  0  1  0  0  0  0  0  0  0  0  0
  179.6610  174.1740  139.6440 C   0  0  0  0  0  2  0  0  0  0  0  0
  181.3550  176.6730  138.4530 F   0  0  0  0  0  0  0  0  0  0  0  0
  180.1760  176.7800  137.7150 C   0  0  0  0  0  0  0  0  0  0  0  0
  183.1500  175.4910  135.9500 O   0  0  0  0  0  0  0  0  0  0  0  0
  179.2330  173.4190  138.5280 O   0  0  0  0  0  0  0  0  0  0  0  0
  180.1050  174.4900  138.2740 C   0  0  1  0  0  0  0  0  0  0  0  0
  181.4110  173.9850  136.4830 C   0  0  0  0  0  2  0  0  0  0  0  0
  179.4640  175.5520  137.5930 O   0  0  0  0  0  0  0  0  0  0  0  0
  179.2750  177.7980  135.7490 O   0  0  0  0  0  1  0  0  0  0  0  0
  181.3910  174.0600  137.8840 O   0  0  0  0  0  0  0  0  0  0  0  0
  181.0010  176.2500  135.3190 C   0  0  0  0  0  2  0  0  0  0  0  0
  1  4  1  0  0  0  0
  2  6  1  0  0  0  0
  3  2  2  0  0  0  0
  3  5  1  0  0  0  0
  5  1  2  0  0  0  0
  6  4  2  0  0  0  0
  7  5  1  0  0  0  0
  8 13  1  0  0  0  0
  9  8  2  0  0  0  0
  9 12  1  0  0  0  0
 10 16  1  0  0  0  0
 11 10  1  0  0  0  0
 12 11  2  0  0  0  0
 13 17  1  0  0  0  0
 13 10  2  0  0  0  0
 14  7  1  0  0  0  0
 15 19  1  0  0  0  0
 16 15  2  0  0  0  0
 17 28  1  6  0  0  0
 17 18  1  0  0  0  0
 18 14  2  0  0  0  0
 18 15  1  0  0  0  0
 20 24  1  0  0  0  0
 21 25  1  1  0  0  0
 22 19  1  6  0  0  0
 22 23  1  0  0  0  0
 22 20  1  0  0  0  0
 23 21  1  0  0  0  0
 24 21  1  0  0  0  0
 25 27  1  0  0  0  0
 25 26  1  0  0  0  0
 30 29  1  1  0  0  0
 30 28  1  0  0  0  0
 31 30  1  0  0  0  0
 32 31  1  0  0  0  0
 33  2  1  0  0  0  0
 34 33  1  0  0  0  0
 35 34  1  0  0  0  0
 36 35  1  0  0  0  0
 37 36  1  0  0  0  0
 38 37  1  0  0  0  0
 39 40  1  0  0  0  0
 40 38  1  0  0  0  0
 40 41  1  0  0  0  0
 42 48  2  0  0  0  0
 42 51  1  0  0  0  0
 44 53  1  6  0  0  0
 44 40  1  0  0  0  0
 44 47  1  0  0  0  0
 47 43  1  0  0  0  0
 47 46  1  0  0  0  0
 49 45  1  0  0  0  0
 50 49  1  0  0  0  0
 50 45  1  1  0  0  0
 51 54  1  0  0  0  0
 52 47  1  0  0  0  0
 52 50  1  0  0  0  0
 54 50  1  0  0  0  0
 55 42  1  0  0  0  0
 55 44  1  0  0  0  0
M  END
>  <MODEL>
4

>  <REMARK>
 VINA RESULT:      -7.5      1.506      2.370
  Name = 
  15 active torsions:
  status: ('A' for Active; 'I' for Inactive)
    1  A    between atoms: C_2  and  C_28
    2  A    between atoms: C_2  and  C_44
    3  A    between atoms: C_4  and  C_40
    4  A    between atoms: C_6  and  C_20
    5  A    between atoms: C_8  and  O_22
    6  A    between atoms: C_8  and  C_35
    7  A    between atoms: N_10  and  C_32
    8  A    between atoms: O_19  and  C_40
    9  A    between atoms: O_19  and  C_45
   10  A    between atoms: C_20  and  O_22
   11  A    between atoms: C_27  and  C_54
   12  A    between atoms: C_34  and  N_52
   13  A    between atoms: C_35  and  C_43
   14  A    between atoms: C_43  and  O_51
   15  A    between atoms: O_51  and  C_54
                            x       y       z     vdW  Elec       q    Type
                         _______ _______ _______ _____ _____    ______ ____

>  <TORSDO>
F 15

$$$$
=
 OpenBabel10262420253D

 55 60  0  0  1  0  0  0  0  0999 V2000
  186.2620  178.1960  137.0490 C   0  0  0  0  0  3  0  0  0  0  0  0
  186.3850  175.4450  136.5410 C   0  0  0  0  0  0  0  0  0  0  0  0
  187.4870  176.1050  137.0990 C   0  0  0  0  0  3  0  0  0  0  0  0
  185.1620  177.5370  136.4960 C   0  0  0  0  0  3  0  0  0  0  0  0
  187.4240  177.4830  137.3570 C   0  0  0  0  0  0  0  0  0  0  0  0
  185.2220  176.1610  136.2490 C   0  0  0  0  0  3  0  0  0  0  0  0
  188.5810  178.2030  137.9630 C   0  0  0  0  0  2  0  0  0  0  0  0
  189.5030  178.2230  144.1560 C   0  0  0  0  0  3  0  0  0  0  0  0
  190.4200  177.8310  145.1380 C   0  0  0  0  0  3  0  0  0  0  0  0
  190.6540  176.8400  142.5300 C   0  0  0  0  0  0  0  0  0  0  0  0
  191.5660  176.4460  143.5170 C   0  0  0  0  0  3  0  0  0  0  0  0
  191.4490  176.9400  144.8190 C   0  0  0  0  0  3  0  0  0  0  0  0
  189.6130  177.7280  142.8500 C   0  0  0  0  0  0  0  0  0  0  0  0
  188.3660  178.4060  139.4280 C   0  0  0  0  0  3  0  0  0  0  0  0
  190.0720  176.7410  140.1950 C   0  0  0  0  0  0  0  0  0  0  0  0
  190.8120  176.3550  141.1930 N   0  0  0  0  0  0  0  0  0  0  0  0
  188.5890  178.1190  141.8190 C   0  0  1  0  0  3  0  0  0  0  0  0
  188.9960  177.7550  140.4140 C   0  0  0  0  0  0  0  0  0  0  0  0
  190.3300  176.2170  138.8870 N   0  0  0  0  0  2  0  0  0  0  0  0
  191.3550  174.4190  137.5710 C   0  0  0  0  0  2  0  0  0  0  0  0
  193.1990  175.5050  136.8280 C   0  0  1  0  0  3  0  0  0  0  0  0
  191.5830  175.5620  138.5250 C   0  0  1  0  0  3  0  0  0  0  0  0
  192.4210  176.4750  137.7030 C   0  0  0  0  0  2  0  0  0  0  0  0
  192.5080  174.2720  136.7790 O   0  0  0  0  0  0  0  0  0  0  0  0
  193.3910  176.0300  135.4730 N   0  0  0  0  0  0  0  0  0  0  0  0
  194.6650  176.7360  135.4230 C   0  0  0  0  0  1  0  0  0  0  0  0
  193.5320  174.9220  134.6210 N   0  0  0  0  0  1  0  0  0  0  0  0
  187.3520  177.5330  142.1210 O   0  0  0  0  0  0  0  0  0  0  0  0
  185.7990  178.2160  143.8120 C   0  0  0  0  0  1  0  0  0  0  0  0
  186.5340  178.5930  142.5370 C   0  0  2  0  0  3  0  0  0  0  0  0
  185.5560  179.0030  141.4330 C   0  0  0  0  0  2  0  0  0  0  0  0
  184.2550  178.2100  141.4940 C   0  0  0  0  0  1  0  0  0  0  0  0
  186.4140  173.9710  136.3240 C   0  0  0  0  0  2  0  0  0  0  0  0
  186.3070  173.2920  137.5430 O   0  0  0  0  0  0  0  0  0  0  0  0
  184.9360  173.1900  137.7630 C   0  0  0  0  0  2  0  0  0  0  0  0
  184.3220  172.2590  136.7330 C   0  0  0  0  0  2  0  0  0  0  0  0
  183.0190  172.8430  136.2180 C   0  0  0  0  0  2  0  0  0  0  0  0
  182.4110  173.5950  137.2360 O   0  0  0  0  0  0  0  0  0  0  0  0
  180.6860  172.8640  135.9000 F   0  0  0  0  0  0  0  0  0  0  0  0
  181.0100  173.4750  137.1090 C   0  0  0  0  0  0  0  0  0  0  0  0
  180.5060  172.7010  138.1460 F   0  0  0  0  0  0  0  0  0  0  0  0
  179.8570  175.3590  139.6090 C   0  0  0  0  0  0  0  0  0  0  0  0
  182.0850  176.1310  135.9900 F   0  0  0  0  0  0  0  0  0  0  0  0
  180.3740  174.8880  137.1310 C   0  0  1  0  0  0  0  0  0  0  0  0
  182.3450  178.9300  138.4410 C   0  0  0  0  0  2  0  0  0  0  0  0
  182.4190  175.6980  138.1570 F   0  0  0  0  0  0  0  0  0  0  0  0
  181.4440  176.0220  137.2130 C   0  0  0  0  0  0  0  0  0  0  0  0
  180.2840  174.5060  140.3710 O   0  0  0  0  0  0  0  0  0  0  0  0
  180.9890  179.2780  138.6390 O   0  0  0  0  0  0  0  0  0  0  0  0
  181.2970  177.9090  138.6200 C   0  0  1  0  0  0  0  0  0  0  0  0
  179.8710  176.8010  140.0010 C   0  0  0  0  0  2  0  0  0  0  0  0
  180.7910  177.2620  137.4670 O   0  0  0  0  0  0  0  0  0  0  0  0
  179.6730  175.0540  135.9320 O   0  0  0  0  0  1  0  0  0  0  0  0
  181.1740  177.3090  139.8910 O   0  0  0  0  0  0  0  0  0  0  0  0
  179.3220  174.9760  138.2630 C   0  0  0  0  0  2  0  0  0  0  0  0
  1  5  1  0  0  0  0
  2  3  1  0  0  0  0
  3  5  2  0  0  0  0
  4  1  2  0  0  0  0
  5  7  1  0  0  0  0
  6  4  1  0  0  0  0
  6  2  2  0  0  0  0
  7 14  1  0  0  0  0
  8  9  1  0  0  0  0
 10 13  1  0  0  0  0
 10 11  2  0  0  0  0
 11 12  1  0  0  0  0
 12  9  2  0  0  0  0
 13  8  2  0  0  0  0
 14 18  2  0  0  0  0
 15 18  1  0  0  0  0
 15 16  2  0  0  0  0
 16 10  1  0  0  0  0
 17 28  1  1  0  0  0
 17 13  1  0  0  0  0
 18 17  1  0  0  0  0
 19 15  1  0  0  0  0
 20 22  1  0  0  0  0
 21 25  1  6  0  0  0
 21 23  1  0  0  0  0
 22 19  1  6  0  0  0
 23 22  1  0  0  0  0
 24 21  1  0  0  0  0
 24 20  1  0  0  0  0
 26 25  1  0  0  0  0
 27 25  1  0  0  0  0
 28 30  1  0  0  0  0
 30 29  1  1  0  0  0
 31 32  1  0  0  0  0
 31 30  1  0  0  0  0
 33  2  1  0  0  0  0
 33 34  1  0  0  0  0
 34 35  1  0  0  0  0
 36 35  1  0  0  0  0
 37 36  1  0  0  0  0
 37 38  1  0  0  0  0
 39 40  1  0  0  0  0
 40 44  1  0  0  0  0
 40 38  1  0  0  0  0
 40 41  1  0  0  0  0
 42 51  1  0  0  0  0
 42 48  2  0  0  0  0
 43 47  1  0  0  0  0
 44 53  1  6  0  0  0
 44 47  1  0  0  0  0
 44 55  1  0  0  0  0
 45 49  1  0  0  0  0
 47 52  1  0  0  0  0
 47 46  1  0  0  0  0
 50 45  1  6  0  0  0
 50 49  1  0  0  0  0
 50 54  1  0  0  0  0
 52 50  1  0  0  0  0
 54 51  1  0  0  0  0
 55 42  1  0  0  0  0
M  END
>  <MODEL>
5

>  <REMARK>
 VINA RESULT:      -7.3      2.198      6.256
  Name = 
  15 active torsions:
  status: ('A' for Active; 'I' for Inactive)
    1  A    between atoms: C_2  and  C_28
    2  A    between atoms: C_2  and  C_44
    3  A    between atoms: C_4  and  C_40
    4  A    between atoms: C_6  and  C_20
    5  A    between atoms: C_8  and  O_22
    6  A    between atoms: C_8  and  C_35
    7  A    between atoms: N_10  and  C_32
    8  A    between atoms: O_19  and  C_40
    9  A    between atoms: O_19  and  C_45
   10  A    between atoms: C_20  and  O_22
   11  A    between atoms: C_27  and  C_54
   12  A    between atoms: C_34  and  N_52
   13  A    between atoms: C_35  and  C_43
   14  A    between atoms: C_43  and  O_51
   15  A    between atoms: O_51  and  C_54
                            x       y       z     vdW  Elec       q    Type
                         _______ _______ _______ _____ _____    ______ ____

>  <TORSDO>
F 15

$$$$
=
 OpenBabel10262420253D

 55 60  0  0  1  0  0  0  0  0999 V2000
  189.5910  176.7030  138.5010 C   0  0  0  0  0  3  0  0  0  0  0  0
  187.3440  177.0710  136.8700 C   0  0  0  0  0  0  0  0  0  0  0  0
  187.5260  177.8710  138.0040 C   0  0  0  0  0  3  0  0  0  0  0  0
  189.4110  175.9070  137.3670 C   0  0  0  0  0  3  0  0  0  0  0  0
  188.6540  177.6900  138.8200 C   0  0  0  0  0  0  0  0  0  0  0  0
  188.2920  176.0970  136.5490 C   0  0  0  0  0  3  0  0  0  0  0  0
  188.8730  178.5400  140.0250 C   0  0  0  0  0  2  0  0  0  0  0  0
  184.9050  178.8510  144.8580 C   0  0  0  0  0  3  0  0  0  0  0  0
  184.8570  178.7760  146.2550 C   0  0  0  0  0  3  0  0  0  0  0  0
  187.1430  177.9160  144.8860 C   0  0  0  0  0  0  0  0  0  0  0  0
  187.0880  177.8370  146.2820 C   0  0  0  0  0  3  0  0  0  0  0  0
  185.9470  178.2650  146.9670 C   0  0  0  0  0  3  0  0  0  0  0  0
  186.0440  178.4190  144.1660 C   0  0  0  0  0  0  0  0  0  0  0  0
  187.6130  178.6610  140.8200 C   0  0  0  0  0  3  0  0  0  0  0  0
  188.5080  177.6360  142.9220 C   0  0  0  0  0  0  0  0  0  0  0  0
  188.3340  177.5090  144.2050 N   0  0  0  0  0  0  0  0  0  0  0  0
  186.0610  178.4590  142.6630 C   0  0  1  0  0  3  0  0  0  0  0  0
  187.4350  178.2470  142.0800 C   0  0  0  0  0  0  0  0  0  0  0  0
  189.7510  177.2250  142.3400 N   0  0  0  0  0  2  0  0  0  0  0  0
  191.2890  178.2070  143.9790 C   0  0  0  0  0  2  0  0  0  0  0  0
  191.6790  176.3820  145.2640 C   0  0  1  0  0  3  0  0  0  0  0  0
  190.9640  177.0120  143.1210 C   0  0  1  0  0  3  0  0  0  0  0  0
  190.7350  175.9610  144.1480 C   0  0  0  0  0  2  0  0  0  0  0  0
  191.9820  177.7560  145.1160 O   0  0  0  0  0  0  0  0  0  0  0  0
  191.1010  176.1330  146.5880 N   0  0  0  0  0  0  0  0  0  0  0  0
  192.1860  175.8870  147.5300 C   0  0  0  0  0  1  0  0  0  0  0  0
  190.4970  177.3320  147.0020 N   0  0  0  0  0  1  0  0  0  0  0  0
  185.1740  177.5040  142.1450 O   0  0  0  0  0  0  0  0  0  0  0  0
  183.1600  177.3230  140.8630 C   0  0  0  0  0  1  0  0  0  0  0  0
  184.1060  178.2420  141.6170 C   0  0  2  0  0  3  0  0  0  0  0  0
  184.6070  179.3780  140.7210 C   0  0  0  0  0  2  0  0  0  0  0  0
  184.2120  179.1770  139.2630 C   0  0  0  0  0  1  0  0  0  0  0  0
  186.1870  177.2980  135.9590 C   0  0  0  0  0  2  0  0  0  0  0  0
  184.9860  176.9740  136.5980 O   0  0  0  0  0  0  0  0  0  0  0  0
  184.5770  175.7920  135.9860 C   0  0  0  0  0  2  0  0  0  0  0  0
  184.6540  174.6490  136.9840 C   0  0  0  0  0  2  0  0  0  0  0  0
  183.3230  173.9220  137.0410 C   0  0  0  0  0  2  0  0  0  0  0  0
  182.3190  174.7440  136.5040 O   0  0  0  0  0  0  0  0  0  0  0  0
  180.4910  173.5820  137.2800 F   0  0  0  0  0  0  0  0  0  0  0  0
  181.2250  174.7600  137.3960 C   0  0  0  0  0  0  0  0  0  0  0  0
  181.6810  174.8710  138.7020 F   0  0  0  0  0  0  0  0  0  0  0  0
  179.4090  176.8090  139.3020 C   0  0  0  0  0  0  0  0  0  0  0  0
  181.8190  177.2890  135.7480 F   0  0  0  0  0  0  0  0  0  0  0  0
  180.2990  175.9520  137.0430 C   0  0  1  0  0  0  0  0  0  0  0  0
  181.1800  180.5310  137.4790 C   0  0  0  0  0  2  0  0  0  0  0  0
  181.9860  177.4270  137.9730 F   0  0  0  0  0  0  0  0  0  0  0  0
  181.0800  177.2980  136.9210 C   0  0  0  0  0  0  0  0  0  0  0  0
  179.9210  176.2680  140.2690 O   0  0  0  0  0  0  0  0  0  0  0  0
  179.7680  180.5810  137.5040 O   0  0  0  0  0  0  0  0  0  0  0  0
  180.3650  179.3530  137.8290 C   0  0  1  0  0  0  0  0  0  0  0  0
  179.0650  178.2630  139.3410 C   0  0  0  0  0  2  0  0  0  0  0  0
  180.1490  178.3710  136.8330 O   0  0  0  0  0  0  0  0  0  0  0  0
  179.7210  175.6830  135.7970 O   0  0  0  0  0  1  0  0  0  0  0  0
  180.2300  179.0300  139.1960 O   0  0  0  0  0  0  0  0  0  0  0  0
  179.1290  176.0290  138.0540 C   0  0  0  0  0  2  0  0  0  0  0  0
  1  5  1  0  0  0  0
  2  3  1  0  0  0  0
  3  5  2  0  0  0  0
  4  1  2  0  0  0  0
  5  7  1  0  0  0  0
  6  2  2  0  0  0  0
  6  4  1  0  0  0  0
  7 14  1  0  0  0  0
  8  9  1  0  0  0  0
  9 12  2  0  0  0  0
 10 11  2  0  0  0  0
 11 12  1  0  0  0  0
 13  8  2  0  0  0  0
 13 10  1  0  0  0  0
 14 18  2  0  0  0  0
 15 16  2  0  0  0  0
 16 10  1  0  0  0  0
 17 28  1  6  0  0  0
 17 13  1  0  0  0  0
 18 17  1  0  0  0  0
 18 15  1  0  0  0  0
 19 15  1  0  0  0  0
 20 24  1  0  0  0  0
 21 25  1  1  0  0  0
 22 19  1  1  0  0  0
 22 20  1  0  0  0  0
 22 23  1  0  0  0  0
 23 21  1  0  0  0  0
 24 21  1  0  0  0  0
 25 27  1  0  0  0  0
 25 26  1  0  0  0  0
 30 29  1  6  0  0  0
 30 28  1  0  0  0  0
 31 30  1  0  0  0  0
 32 31  1  0  0  0  0
 33 34  1  0  0  0  0
 33  2  1  0  0  0  0
 35 34  1  0  0  0  0
 35 36  1  0  0  0  0
 36 37  1  0  0  0  0
 38 37  1  0  0  0  0
 38 40  1  0  0  0  0
 39 40  1  0  0  0  0
 40 41  1  0  0  0  0
 42 51  1  0  0  0  0
 42 48  2  0  0  0  0
 43 47  1  0  0  0  0
 44 53  1  6  0  0  0
 44 40  1  0  0  0  0
 44 55  1  0  0  0  0
 45 49  1  0  0  0  0
 47 44  1  0  0  0  0
 47 46  1  0  0  0  0
 49 50  1  0  0  0  0
 50 45  1  6  0  0  0
 50 54  1  0  0  0  0
 52 47  1  0  0  0  0
 52 50  1  0  0  0  0
 54 51  1  0  0  0  0
 55 42  1  0  0  0  0
M  END
>  <MODEL>
6

>  <REMARK>
 VINA RESULT:      -7.1      1.794      5.619
  Name = 
  15 active torsions:
  status: ('A' for Active; 'I' for Inactive)
    1  A    between atoms: C_2  and  C_28
    2  A    between atoms: C_2  and  C_44
    3  A    between atoms: C_4  and  C_40
    4  A    between atoms: C_6  and  C_20
    5  A    between atoms: C_8  and  O_22
    6  A    between atoms: C_8  and  C_35
    7  A    between atoms: N_10  and  C_32
    8  A    between atoms: O_19  and  C_40
    9  A    between atoms: O_19  and  C_45
   10  A    between atoms: C_20  and  O_22
   11  A    between atoms: C_27  and  C_54
   12  A    between atoms: C_34  and  N_52
   13  A    between atoms: C_35  and  C_43
   14  A    between atoms: C_43  and  O_51
   15  A    between atoms: O_51  and  C_54
                            x       y       z     vdW  Elec       q    Type
                         _______ _______ _______ _____ _____    ______ ____

>  <TORSDO>
F 15

$$$$
=
 OpenBabel10262420253D

 55 60  0  0  1  0  0  0  0  0999 V2000
  191.1960  177.5170  140.6200 C   0  0  0  0  0  3  0  0  0  0  0  0
  191.9220  176.0060  138.3770 C   0  0  0  0  0  0  0  0  0  0  0  0
  190.5890  176.0310  138.8030 C   0  0  0  0  0  3  0  0  0  0  0  0
  192.5250  177.4940  140.1920 C   0  0  0  0  0  3  0  0  0  0  0  0
  190.2240  176.7910  139.9250 C   0  0  0  0  0  0  0  0  0  0  0  0
  192.8860  176.7440  139.0670 C   0  0  0  0  0  3  0  0  0  0  0  0
  188.8080  176.8420  140.3880 C   0  0  0  0  0  2  0  0  0  0  0  0
  186.6490  177.6280  146.2130 C   0  0  0  0  0  3  0  0  0  0  0  0
  185.5060  178.0060  146.9260 C   0  0  0  0  0  3  0  0  0  0  0  0
  185.6770  178.5260  144.1800 C   0  0  0  0  0  0  0  0  0  0  0  0
  184.5380  178.9080  144.8990 C   0  0  0  0  0  3  0  0  0  0  0  0
  184.4520  178.6500  146.2690 C   0  0  0  0  0  3  0  0  0  0  0  0
  186.7430  177.8880  144.8390 C   0  0  0  0  0  0  0  0  0  0  0  0
  188.7440  176.9090  141.8800 C   0  0  0  0  0  3  0  0  0  0  0  0
  186.7060  178.3590  142.0090 C   0  0  0  0  0  0  0  0  0  0  0  0
  185.7320  178.7640  142.7700 N   0  0  0  0  0  0  0  0  0  0  0  0
  187.9990  177.5220  144.0980 C   0  0  1  0  0  3  0  0  0  0  0  0
  187.8430  177.5890  142.6000 C   0  0  0  0  0  0  0  0  0  0  0  0
  186.6520  178.6220  140.6020 N   0  0  0  0  0  2  0  0  0  0  0  0
  185.4970  178.6650  138.4390 C   0  0  0  0  0  2  0  0  0  0  0  0
  183.4180  178.0680  139.1130 C   0  0  1  0  0  3  0  0  0  0  0  0
  185.4230  178.9890  139.9080 C   0  0  1  0  0  3  0  0  0  0  0  0
  184.3020  178.1180  140.3500 C   0  0  0  0  0  2  0  0  0  0  0  0
  184.1930  178.4070  137.9800 O   0  0  0  0  0  0  0  0  0  0  0  0
  182.8100  176.7470  138.9320 N   0  0  0  0  0  0  0  0  0  0  0  0
  181.9520  176.4700  140.0770 C   0  0  0  0  0  1  0  0  0  0  0  0
  181.9530  176.8400  137.8240 N   0  0  0  0  0  1  0  0  0  0  0  0
  189.0570  178.3490  144.5010 O   0  0  0  0  0  0  0  0  0  0  0  0
  190.2110  177.4400  146.3930 C   0  0  0  0  0  1  0  0  0  0  0  0
  190.0850  177.4740  144.8790 C   0  0  2  0  0  3  0  0  0  0  0  0
  191.4110  177.8620  144.2210 C   0  0  0  0  0  2  0  0  0  0  0  0
  191.5750  179.3730  144.1040 C   0  0  0  0  0  1  0  0  0  0  0  0
  192.3120  175.2570  137.1480 C   0  0  0  0  0  2  0  0  0  0  0  0
  191.5170  175.6420  136.0640 O   0  0  0  0  0  0  0  0  0  0  0  0
  190.2930  175.0170  136.2930 C   0  0  0  0  0  2  0  0  0  0  0  0
  190.4280  173.5260  136.0360 C   0  0  0  0  0  2  0  0  0  0  0  0
  189.1210  172.9760  135.4930 C   0  0  0  0  0  2  0  0  0  0  0  0
  188.1570  173.9950  135.4750 O   0  0  0  0  0  0  0  0  0  0  0  0
  187.4370  172.4710  137.0410 F   0  0  0  0  0  0  0  0  0  0  0  0
  187.1750  173.7040  136.4470 C   0  0  0  0  0  0  0  0  0  0  0  0
  187.1800  174.6810  137.4330 F   0  0  0  0  0  0  0  0  0  0  0  0
  185.5450  171.1960  134.9700 C   0  0  0  0  0  0  0  0  0  0  0  0
  184.4050  174.4760  137.5390 F   0  0  0  0  0  0  0  0  0  0  0  0
  185.7870  173.6330  135.7620 C   0  0  1  0  0  0  0  0  0  0  0  0
  181.8220  171.7880  137.4390 C   0  0  0  0  0  2  0  0  0  0  0  0
  185.0140  172.3290  137.6570 F   0  0  0  0  0  0  0  0  0  0  0  0
  184.6360  173.3420  136.7760 C   0  0  0  0  0  0  0  0  0  0  0  0
  186.4490  170.4650  135.3440 O   0  0  0  0  0  0  0  0  0  0  0  0
  181.5280  171.7090  136.0580 O   0  0  0  0  0  0  0  0  0  0  0  0
  182.8820  171.8080  136.4140 C   0  0  1  0  0  0  0  0  0  0  0  0
  184.1420  170.6860  134.8910 C   0  0  0  0  0  2  0  0  0  0  0  0
  183.4400  173.0590  136.0570 O   0  0  0  0  0  0  0  0  0  0  0  0
  185.5370  174.8830  135.1860 O   0  0  0  0  0  1  0  0  0  0  0  0
  183.5930  170.6120  136.1800 O   0  0  0  0  0  0  0  0  0  0  0  0
  185.8250  172.6190  134.5940 C   0  0  0  0  0  2  0  0  0  0  0  0
  2  3  2  0  0  0  0
  2  6  1  0  0  0  0
  3  5  1  0  0  0  0
  4  1  1  0  0  0  0
  5  7  1  0  0  0  0
  5  1  2  0  0  0  0
  6  4  2  0  0  0  0
  7 14  1  0  0  0  0
  8  9  1  0  0  0  0
 10 13  1  0  0  0  0
 10 11  2  0  0  0  0
 11 12  1  0  0  0  0
 12  9  2  0  0  0  0
 13  8  2  0  0  0  0
 14 18  2  0  0  0  0
 15 18  1  0  0  0  0
 15 16  2  0  0  0  0
 16 10  1  0  0  0  0
 17 28  1  1  0  0  0
 17 13  1  0  0  0  0
 18 17  1  0  0  0  0
 19 15  1  0  0  0  0
 20 22  1  0  0  0  0
 21 25  1  6  0  0  0
 21 23  1  0  0  0  0
 22 23  1  0  0  0  0
 22 19  1  1  0  0  0
 24 20  1  0  0  0  0
 24 21  1  0  0  0  0
 25 26  1  0  0  0  0
 27 25  1  0  0  0  0
 28 30  1  0  0  0  0
 30 29  1  1  0  0  0
 31 30  1  0  0  0  0
 32 31  1  0  0  0  0
 33  2  1  0  0  0  0
 34 35  1  0  0  0  0
 34 33  1  0  0  0  0
 36 35  1  0  0  0  0
 37 36  1  0  0  0  0
 38 37  1  0  0  0  0
 38 40  1  0  0  0  0
 40 39  1  0  0  0  0
 40 41  1  0  0  0  0
 42 48  2  0  0  0  0
 44 53  1  6  0  0  0
 44 40  1  0  0  0  0
 44 47  1  0  0  0  0
 47 43  1  0  0  0  0
 47 46  1  0  0  0  0
 49 50  1  0  0  0  0
 49 45  1  0  0  0  0
 50 45  1  1  0  0  0
 51 42  1  0  0  0  0
 51 54  1  0  0  0  0
 52 50  1  0  0  0  0
 52 47  1  0  0  0  0
 54 50  1  0  0  0  0
 55 42  1  0  0  0  0
 55 44  1  0  0  0  0
M  END
>  <MODEL>
7

>  <REMARK>
 VINA RESULT:      -7.1      2.814      7.828
  Name = 
  15 active torsions:
  status: ('A' for Active; 'I' for Inactive)
    1  A    between atoms: C_2  and  C_28
    2  A    between atoms: C_2  and  C_44
    3  A    between atoms: C_4  and  C_40
    4  A    between atoms: C_6  and  C_20
    5  A    between atoms: C_8  and  O_22
    6  A    between atoms: C_8  and  C_35
    7  A    between atoms: N_10  and  C_32
    8  A    between atoms: O_19  and  C_40
    9  A    between atoms: O_19  and  C_45
   10  A    between atoms: C_20  and  O_22
   11  A    between atoms: C_27  and  C_54
   12  A    between atoms: C_34  and  N_52
   13  A    between atoms: C_35  and  C_43
   14  A    between atoms: C_43  and  O_51
   15  A    between atoms: O_51  and  C_54
                            x       y       z     vdW  Elec       q    Type
                         _______ _______ _______ _____ _____    ______ ____

>  <TORSDO>
F 15

$$$$
=
 OpenBabel10262420253D

 55 60  0  0  1  0  0  0  0  0999 V2000
  189.1410  177.8270  141.0010 C   0  0  0  0  0  3  0  0  0  0  0  0
  188.6450  177.8520  138.2450 C   0  0  0  0  0  0  0  0  0  0  0  0
  187.6460  178.2500  139.1410 C   0  0  0  0  0  3  0  0  0  0  0  0
  190.1390  177.4330  140.1070 C   0  0  0  0  0  3  0  0  0  0  0  0
  187.8950  178.2410  140.5230 C   0  0  0  0  0  0  0  0  0  0  0  0
  189.8930  177.4530  138.7290 C   0  0  0  0  0  3  0  0  0  0  0  0
  186.8490  178.6730  141.4930 C   0  0  0  0  0  2  0  0  0  0  0  0
  180.6460  179.0140  140.7120 C   0  0  0  0  0  3  0  0  0  0  0  0
  179.4660  179.3600  141.3800 C   0  0  0  0  0  3  0  0  0  0  0  0
  181.8360  178.9980  142.8260 C   0  0  0  0  0  0  0  0  0  0  0  0
  180.6520  179.3380  143.4900 C   0  0  0  0  0  3  0  0  0  0  0  0
  179.4680  179.5180  142.7690 C   0  0  0  0  0  3  0  0  0  0  0  0
  181.8350  178.8290  141.4300 C   0  0  0  0  0  0  0  0  0  0  0  0
  185.4900  178.5740  140.8800 C   0  0  0  0  0  3  0  0  0  0  0  0
  184.2080  178.6360  143.0310 C   0  0  0  0  0  0  0  0  0  0  0  0
  183.0470  178.8560  143.5750 N   0  0  0  0  0  0  0  0  0  0  0  0
  183.0840  178.4070  140.7040 C   0  0  1  0  0  3  0  0  0  0  0  0
  184.3280  178.5330  141.5450 C   0  0  0  0  0  0  0  0  0  0  0  0
  185.3660  178.5390  143.8680 N   0  0  0  0  0  2  0  0  0  0  0  0
  184.5370  178.1820  146.1490 C   0  0  0  0  0  2  0  0  0  0  0  0
  186.4330  178.6230  147.3090 C   0  0  1  0  0  3  0  0  0  0  0  0
  185.3970  179.0250  145.2430 C   0  0  1  0  0  3  0  0  0  0  0  0
  186.7470  178.8150  145.8320 C   0  0  0  0  0  2  0  0  0  0  0  0
  185.0790  178.2380  147.4450 O   0  0  0  0  0  0  0  0  0  0  0  0
  187.3070  177.6210  147.9240 N   0  0  0  0  0  0  0  0  0  0  0  0
  188.2070  177.0990  146.9030 C   0  0  0  0  0  1  0  0  0  0  0  0
  188.1230  178.3000  148.8440 N   0  0  0  0  0  1  0  0  0  0  0  0
  182.9530  177.0890  140.2440 O   0  0  0  0  0  0  0  0  0  0  0  0
  181.6470  176.3260  138.3880 C   0  0  0  0  0  1  0  0  0  0  0  0
  182.8010  177.1960  138.8550 C   0  0  2  0  0  3  0  0  0  0  0  0
  184.0980  176.8360  138.1260 C   0  0  0  0  0  2  0  0  0  0  0  0
  184.0360  177.1730  136.6410 C   0  0  0  0  0  1  0  0  0  0  0  0
  188.4160  177.9210  136.7740 C   0  0  0  0  0  2  0  0  0  0  0  0
  189.4710  177.3160  136.0830 O   0  0  0  0  0  0  0  0  0  0  0  0
  189.0860  175.9840  135.9600 C   0  0  0  0  0  2  0  0  0  0  0  0
  190.0290  175.2650  135.0110 C   0  0  0  0  0  2  0  0  0  0  0  0
  190.9700  174.3700  135.7970 C   0  0  0  0  0  2  0  0  0  0  0  0
  192.2900  174.5960  135.3770 O   0  0  0  0  0  0  0  0  0  0  0  0
  193.3090  175.7690  137.0740 F   0  0  0  0  0  0  0  0  0  0  0  0
  193.1410  174.5110  136.5000 C   0  0  0  0  0  0  0  0  0  0  0  0
  192.5880  173.6620  137.4490 F   0  0  0  0  0  0  0  0  0  0  0  0
  195.8060  176.0720  135.2400 C   0  0  0  0  0  0  0  0  0  0  0  0
  195.2110  172.8430  138.0480 F   0  0  0  0  0  0  0  0  0  0  0  0
  194.5280  173.9880  136.0490 C   0  0  1  0  0  0  0  0  0  0  0  0
  198.6220  174.3290  138.2970 C   0  0  0  0  0  2  0  0  0  0  0  0
  195.4750  175.0620  138.0080 F   0  0  0  0  0  0  0  0  0  0  0  0
  195.5470  173.9080  137.2280 C   0  0  0  0  0  0  0  0  0  0  0  0
  195.2160  177.1210  135.4430 O   0  0  0  0  0  0  0  0  0  0  0  0
  199.1130  174.1680  136.9810 O   0  0  0  0  0  0  0  0  0  0  0  0
  197.7920  174.6220  137.1150 C   0  0  1  0  0  0  0  0  0  0  0  0
  197.2930  176.0010  135.3770 C   0  0  0  0  0  2  0  0  0  0  0  0
  196.8470  173.6520  136.7050 O   0  0  0  0  0  0  0  0  0  0  0  0
  194.3500  172.6910  135.5550 O   0  0  0  0  0  1  0  0  0  0  0  0
  197.6430  175.9730  136.7350 O   0  0  0  0  0  0  0  0  0  0  0  0
  195.0510  174.8340  134.8620 C   0  0  0  0  0  2  0  0  0  0  0  0
  2  6  2  0  0  0  0
  2  3  1  0  0  0  0
  3  5  2  0  0  0  0
  4  1  2  0  0  0  0
  5  1  1  0  0  0  0
  5  7  1  0  0  0  0
  6  4  1  0  0  0  0
  8  9  2  0  0  0  0
  8 13  1  0  0  0  0
  9 12  1  0  0  0  0
 10 11  1  0  0  0  0
 10 16  1  0  0  0  0
 12 11  2  0  0  0  0
 13 10  2  0  0  0  0
 14  7  1  0  0  0  0
 14 18  2  0  0  0  0
 15 16  2  0  0  0  0
 15 19  1  0  0  0  0
 17 28  1  1  0  0  0
 17 13  1  0  0  0  0
 17 18  1  0  0  0  0
 18 15  1  0  0  0  0
 20 24  1  0  0  0  0
 21 24  1  0  0  0  0
 21 25  1  6  0  0  0
 22 19  1  6  0  0  0
 22 23  1  0  0  0  0
 22 20  1  0  0  0  0
 23 21  1  0  0  0  0
 25 27  1  0  0  0  0
 26 25  1  0  0  0  0
 30 29  1  6  0  0  0
 30 28  1  0  0  0  0
 31 30  1  0  0  0  0
 32 31  1  0  0  0  0
 33  2  1  0  0  0  0
 34 33  1  0  0  0  0
 35 34  1  0  0  0  0
 36 37  1  0  0  0  0
 36 35  1  0  0  0  0
 38 37  1  0  0  0  0
 38 40  1  0  0  0  0
 40 39  1  0  0  0  0
 40 41  1  0  0  0  0
 42 51  1  0  0  0  0
 42 48  2  0  0  0  0
 44 53  1  6  0  0  0
 44 40  1  0  0  0  0
 44 47  1  0  0  0  0
 47 46  1  0  0  0  0
 47 43  1  0  0  0  0
 49 50  1  0  0  0  0
 49 45  1  0  0  0  0
 50 45  1  1  0  0  0
 51 54  1  0  0  0  0
 52 50  1  0  0  0  0
 52 47  1  0  0  0  0
 54 50  1  0  0  0  0
 55 42  1  0  0  0  0
 55 44  1  0  0  0  0
M  END
>  <MODEL>
8

>  <REMARK>
 VINA RESULT:      -7.0      5.144      9.687
  Name = 
  15 active torsions:
  status: ('A' for Active; 'I' for Inactive)
    1  A    between atoms: C_2  and  C_28
    2  A    between atoms: C_2  and  C_44
    3  A    between atoms: C_4  and  C_40
    4  A    between atoms: C_6  and  C_20
    5  A    between atoms: C_8  and  O_22
    6  A    between atoms: C_8  and  C_35
    7  A    between atoms: N_10  and  C_32
    8  A    between atoms: O_19  and  C_40
    9  A    between atoms: O_19  and  C_45
   10  A    between atoms: C_20  and  O_22
   11  A    between atoms: C_27  and  C_54
   12  A    between atoms: C_34  and  N_52
   13  A    between atoms: C_35  and  C_43
   14  A    between atoms: C_43  and  O_51
   15  A    between atoms: O_51  and  C_54
                            x       y       z     vdW  Elec       q    Type
                         _______ _______ _______ _____ _____    ______ ____

>  <TORSDO>
F 15

$$$$
=
 OpenBabel10262420253D

 55 60  0  0  1  0  0  0  0  0999 V2000
  187.6700  178.2530  139.6720 C   0  0  0  0  0  3  0  0  0  0  0  0
  185.6210  178.6490  141.5400 C   0  0  0  0  0  0  0  0  0  0  0  0
  185.3100  178.4560  140.1890 C   0  0  0  0  0  3  0  0  0  0  0  0
  187.9790  178.4420  141.0200 C   0  0  0  0  0  3  0  0  0  0  0  0
  186.3360  178.2530  139.2520 C   0  0  0  0  0  0  0  0  0  0  0  0
  186.9540  178.6330  141.9550 C   0  0  0  0  0  3  0  0  0  0  0  0
  186.0260  178.0320  137.8110 C   0  0  0  0  0  2  0  0  0  0  0  0
  182.7900  172.7630  136.8300 C   0  0  0  0  0  3  0  0  0  0  0  0
  182.9500  171.4140  136.4960 C   0  0  0  0  0  3  0  0  0  0  0  0
  185.0710  173.2070  136.1340 C   0  0  0  0  0  0  0  0  0  0  0  0
  185.2240  171.8570  135.7950 C   0  0  0  0  0  3  0  0  0  0  0  0
  184.1670  170.9620  135.9740 C   0  0  0  0  0  3  0  0  0  0  0  0
  183.8450  173.6660  136.6500 C   0  0  0  0  0  0  0  0  0  0  0  0
  184.8900  177.0740  137.6580 C   0  0  0  0  0  3  0  0  0  0  0  0
  186.1530  175.3460  136.3590 C   0  0  0  0  0  0  0  0  0  0  0  0
  186.1770  174.1010  135.9810 N   0  0  0  0  0  0  0  0  0  0  0  0
  183.6400  175.1230  136.9660 C   0  0  1  0  0  3  0  0  0  0  0  0
  184.9270  175.9060  137.0040 C   0  0  0  0  0  0  0  0  0  0  0  0
  187.3250  176.1520  136.1880 N   0  0  0  0  0  2  0  0  0  0  0  0
  189.6750  176.6670  135.7120 C   0  0  0  0  0  2  0  0  0  0  0  0
  190.6720  175.1400  137.0580 C   0  0  1  0  0  3  0  0  0  0  0  0
  188.6510  175.5900  135.9560 C   0  0  1  0  0  3  0  0  0  0  0  0
  189.1670  174.9620  137.2010 C   0  0  0  0  0  2  0  0  0  0  0  0
  190.9260  176.1890  136.1440 O   0  0  0  0  0  0  0  0  0  0  0  0
  191.3100  175.4270  138.3450 N   0  0  0  0  0  0  0  0  0  0  0  0
  192.4020  176.3660  138.1230 C   0  0  0  0  0  1  0  0  0  0  0  0
  190.3660  176.1130  139.1260 N   0  0  0  0  0  1  0  0  0  0  0  0
  182.7610  175.6990  136.0390 O   0  0  0  0  0  0  0  0  0  0  0  0
  180.4470  175.5650  136.6460 C   0  0  0  0  0  1  0  0  0  0  0  0
  181.7620  176.3100  136.8100 C   0  0  2  0  0  3  0  0  0  0  0  0
  181.6100  177.7890  136.4470 C   0  0  0  0  0  2  0  0  0  0  0  0
  181.5610  178.6820  137.6820 C   0  0  0  0  0  1  0  0  0  0  0  0
  184.5380  178.7980  142.5540 C   0  0  0  0  0  2  0  0  0  0  0  0
  184.9380  179.6640  143.5770 O   0  0  0  0  0  0  0  0  0  0  0  0
  184.5150  179.0370  144.7460 C   0  0  0  0  0  2  0  0  0  0  0  0
  185.5170  179.2990  145.8560 C   0  0  0  0  0  2  0  0  0  0  0  0
  185.5630  178.1130  146.8020 C   0  0  0  0  0  2  0  0  0  0  0  0
  186.6090  178.2880  147.7210 O   0  0  0  0  0  0  0  0  0  0  0  0
  187.9260  176.6450  148.6480 F   0  0  0  0  0  0  0  0  0  0  0  0
  187.5970  177.3110  147.4700 C   0  0  0  0  0  0  0  0  0  0  0  0
  187.1220  176.3820  146.5540 F   0  0  0  0  0  0  0  0  0  0  0  0
  190.7550  176.2710  147.2010 C   0  0  0  0  0  0  0  0  0  0  0  0
  188.1030  178.6260  144.7350 F   0  0  0  0  0  0  0  0  0  0  0  0
  188.8720  178.0050  146.9260 C   0  0  1  0  0  0  0  0  0  0  0  0
  191.0200  177.3060  142.8230 C   0  0  0  0  0  2  0  0  0  0  0  0
  188.7650  176.5100  145.0170 F   0  0  0  0  0  0  0  0  0  0  0  0
  189.0330  177.8290  145.3830 C   0  0  0  0  0  0  0  0  0  0  0  0
  190.3650  175.1760  147.5740 O   0  0  0  0  0  0  0  0  0  0  0  0
  192.1130  177.8280  143.5510 O   0  0  0  0  0  0  0  0  0  0  0  0
  191.0540  177.2860  144.2960 C   0  0  1  0  0  0  0  0  0  0  0  0
  191.8730  176.3810  146.2140 C   0  0  0  0  0  2  0  0  0  0  0  0
  190.3270  178.2790  144.9950 O   0  0  0  0  0  0  0  0  0  0  0  0
  188.7510  179.3740  147.1850 O   0  0  0  0  0  1  0  0  0  0  0  0
  191.4020  176.0740  144.9290 O   0  0  0  0  0  0  0  0  0  0  0  0
  190.1130  177.5230  147.7150 C   0  0  0  0  0  2  0  0  0  0  0  0
  1  4  1  0  0  0  0
  2  6  1  0  0  0  0
  2 33  1  0  0  0  0
  3  2  2  0  0  0  0
  4  6  2  0  0  0  0
  5  1  2  0  0  0  0
  5  3  1  0  0  0  0
  7  5  1  0  0  0  0
  9  8  2  0  0  0  0
 10 13  2  0  0  0  0
 11 12  2  0  0  0  0
 11 10  1  0  0  0  0
 12  9  1  0  0  0  0
 13  8  1  0  0  0  0
 13 17  1  0  0  0  0
 14  7  1  0  0  0  0
 15 18  1  0  0  0  0
 16 10  1  0  0  0  0
 16 15  2  0  0  0  0
 17 28  1  6  0  0  0
 17 18  1  0  0  0  0
 18 14  2  0  0  0  0
 19 15  1  0  0  0  0
 20 22  1  0  0  0  0
 20 24  1  0  0  0  0
 21 23  1  0  0  0  0
 21 25  1  1  0  0  0
 22 19  1  1  0  0  0
 22 23  1  0  0  0  0
 24 21  1  0  0  0  0
 25 27  1  0  0  0  0
 26 25  1  0  0  0  0
 28 30  1  0  0  0  0
 30 29  1  6  0  0  0
 31 30  1  0  0  0  0
 31 32  1  0  0  0  0
 33 34  1  0  0  0  0
 34 35  1  0  0  0  0
 35 36  1  0  0  0  0
 36 37  1  0  0  0  0
 37 38  1  0  0  0  0
 40 38  1  0  0  0  0
 40 39  1  0  0  0  0
 41 40  1  0  0  0  0
 42 48  2  0  0  0  0
 42 55  1  0  0  0  0
 43 47  1  0  0  0  0
 44 53  1  1  0  0  0
 44 40  1  0  0  0  0
 44 55  1  0  0  0  0
 45 49  1  0  0  0  0
 46 47  1  0  0  0  0
 47 44  1  0  0  0  0
 49 50  1  0  0  0  0
 50 45  1  6  0  0  0
 50 54  1  0  0  0  0
 50 52  1  0  0  0  0
 51 42  1  0  0  0  0
 52 47  1  0  0  0  0
 54 51  1  0  0  0  0
M  END
>  <MODEL>
9

>  <REMARK>
 VINA RESULT:      -6.9      3.774      8.758
  Name = 
  15 active torsions:
  status: ('A' for Active; 'I' for Inactive)
    1  A    between atoms: C_2  and  C_28
    2  A    between atoms: C_2  and  C_44
    3  A    between atoms: C_4  and  C_40
    4  A    between atoms: C_6  and  C_20
    5  A    between atoms: C_8  and  O_22
    6  A    between atoms: C_8  and  C_35
    7  A    between atoms: N_10  and  C_32
    8  A    between atoms: O_19  and  C_40
    9  A    between atoms: O_19  and  C_45
   10  A    between atoms: C_20  and  O_22
   11  A    between atoms: C_27  and  C_54
   12  A    between atoms: C_34  and  N_52
   13  A    between atoms: C_35  and  C_43
   14  A    between atoms: C_43  and  O_51
   15  A    between atoms: O_51  and  C_54
                            x       y       z     vdW  Elec       q    Type
                         _______ _______ _______ _____ _____    ______ ____

>  <TORSDO>
F 15

$$$$
