=
 OpenBabel10262421333D

 32 37  0  0  1  0  0  0  0  0999 V2000
  191.4840  177.2800  142.2830 O   0  0  0  0  0  0  0  0  0  0  0  0
  186.8220  178.5780  141.0920 C   0  0  0  0  0  0  0  0  0  0  0  0
  184.3460  178.5540  145.3360 N   0  0  0  0  0  0  0  0  0  0  0  0
  183.2780  178.8780  144.6670 C   0  0  0  0  0  3  0  0  0  0  0  0
  188.9000  177.0510  141.0290 C   0  0  2  0  0  3  0  0  0  0  0  0
  187.9790  177.9060  143.1920 O   0  0  0  0  0  0  0  0  0  0  0  0
  189.1360  175.8170  143.1800 C   0  0  0  0  0  1  0  0  0  0  0  0
  185.6340  178.2040  144.7250 C   0  0  0  0  0  3  0  0  0  0  0  0
  186.8090  178.3300  142.5470 C   0  0  0  0  0  0  0  0  0  0  0  0
  185.6740  178.4790  143.2430 C   0  0  0  0  0  0  0  0  0  0  0  0
  184.4750  178.8850  141.0860 N   0  0  0  0  0  0  0  0  0  0  0  0
  191.3780  177.4000  140.8860 C   0  0  0  0  0  2  0  0  0  0  0  0
  189.0710  177.2120  142.5660 C   0  0  1  0  0  0  0  0  0  0  0  0
  190.1990  176.5670  140.3780 C   0  0  0  0  0  2  0  0  0  0  0  0
  190.3890  177.9740  142.8360 C   0  0  1  0  0  3  0  0  0  0  0  0
  183.2900  178.9680  143.2000 C   0  0  0  0  0  3  0  0  0  0  0  0
  184.4250  178.7860  142.5200 C   0  0  2  0  0  3  0  0  0  0  0  0
  188.3860  178.6130  140.2440 S   0  0  0  0  0  0  0  0  0  0  0  0
  185.7240  178.8100  140.4370 N   0  0  0  0  0  0  0  0  0  0  0  0
  183.6140  179.8120  138.9710 C   0  0  0  0  0  2  0  0  0  0  0  0
  182.4570  178.0290  137.6030 C   0  0  1  0  0  3  0  0  0  0  0  0
  181.6110  177.8340  138.8710 C   0  0  1  0  0  3  0  0  0  0  0  0
  180.8870  176.6460  138.7650 O   0  0  0  0  0  1  0  0  0  0  0  0
  181.6650  178.7070  136.5920 N   0  0  0  0  0  1  0  0  0  0  0  0
  183.2670  179.1200  140.2990 C   0  0  1  0  0  3  0  0  0  0  0  0
  183.7630  178.7990  137.8400 C   0  0  0  0  0  2  0  0  0  0  0  0
  181.6700  177.6190  141.2600 O   0  0  0  0  0  1  0  0  0  0  0  0
  182.4720  177.8150  140.1350 C   0  0  1  0  0  3  0  0  0  0  0  0
  190.6190  178.2160  144.3240 C   0  0  0  0  0  2  0  0  0  0  0  0
  190.6950  176.8950  145.0660 C   0  0  0  0  0  3  0  0  0  0  0  0
  191.6180  177.0530  146.2570 C   0  0  0  0  0  2  0  0  0  0  0  0
  190.1180  177.0730  146.4550 C   0  0  0  0  0  2  0  0  0  0  0  0
  1 15  1  0  0  0  0
  2  9  1  0  0  0  0
  4  3  1  0  0  0  0
  5 14  1  6  0  0  0
  5 13  1  0  0  0  0
  8  3  2  0  0  0  0
  9  6  1  0  0  0  0
  9 10  2  0  0  0  0
 10  8  1  0  0  0  0
 11 17  1  0  0  0  0
 12  1  1  0  0  0  0
 13 15  1  0  0  0  0
 13  7  1  1  0  0  0
 13  6  1  0  0  0  0
 14 12  1  0  0  0  0
 15 29  1  1  0  0  0
 16  4  2  0  0  0  0
 17 16  1  1  0  0  0
 17 10  1  0  0  0  0
 18  5  1  0  0  0  0
 18  2  1  0  0  0  0
 19 11  1  0  0  0  0
 19  2  2  0  0  0  0
 21 24  1  6  0  0  0
 21 26  1  0  0  0  0
 21 22  1  0  0  0  0
 22 23  1  6  0  0  0
 22 28  1  0  0  0  0
 25 20  1  6  0  0  0
 25 11  1  0  0  0  0
 26 20  1  0  0  0  0
 28 25  1  0  0  0  0
 28 27  1  1  0  0  0
 29 30  1  0  0  0  0
 30 31  1  0  0  0  0
 30 32  1  0  0  0  0
 31 32  1  0  0  0  0
M  END
>  <MODEL>
1

>  <REMARK>
 VINA RESULT:      -8.7      0.000      0.000
  Name = 
  3 active torsions:
  status: ('A' for Active; 'I' for Inactive)
    1  A    between atoms: C_1  and  C_10
    2  A    between atoms: C_10  and  C_24
    3  A    between atoms: N_16  and  C_27
                            x       y       z     vdW  Elec       q    Type
                         _______ _______ _______ _____ _____    ______ ____

>  <TORSDO>
F 3

$$$$
=
 OpenBabel10262421333D

 32 37  0  0  1  0  0  0  0  0999 V2000
  189.4990  177.5280  146.1580 O   0  0  0  0  0  0  0  0  0  0  0  0
  189.0340  176.9270  141.2320 C   0  0  0  0  0  0  0  0  0  0  0  0
  193.6230  177.0110  139.4770 N   0  0  0  0  0  0  0  0  0  0  0  0
  193.1250  176.8720  138.2830 C   0  0  0  0  0  3  0  0  0  0  0  0
  188.6940  178.1700  143.4660 C   0  0  2  0  0  3  0  0  0  0  0  0
  190.9420  177.3100  142.7850 O   0  0  0  0  0  0  0  0  0  0  0  0
  190.8250  179.2260  144.2050 C   0  0  0  0  0  1  0  0  0  0  0  0
  192.8250  177.2260  140.6910 C   0  0  0  0  0  3  0  0  0  0  0  0
  190.4800  177.0840  141.4820 C   0  0  0  0  0  0  0  0  0  0  0  0
  191.3460  177.0410  140.4590 C   0  0  0  0  0  0  0  0  0  0  0  0
  189.4000  176.9310  138.8930 N   0  0  0  0  0  0  0  0  0  0  0  0
  188.1350  177.5100  145.8180 C   0  0  0  0  0  2  0  0  0  0  0  0
  190.1750  177.8930  143.8510 C   0  0  1  0  0  0  0  0  0  0  0  0
  187.8600  178.5200  144.7020 C   0  0  0  0  0  2  0  0  0  0  0  0
  190.1950  176.9500  145.0770 C   0  0  1  0  0  3  0  0  0  0  0  0
  191.6730  176.8720  138.0540 C   0  0  0  0  0  3  0  0  0  0  0  0
  190.8250  176.9460  139.0820 C   0  0  2  0  0  3  0  0  0  0  0  0
  187.9420  176.7410  142.6240 S   0  0  0  0  0  0  0  0  0  0  0  0
  188.5580  176.8810  140.0230 N   0  0  0  0  0  0  0  0  0  0  0  0
  188.8360  175.4790  136.9830 C   0  0  0  0  0  2  0  0  0  0  0  0
  186.3470  175.4860  136.5410 C   0  0  1  0  0  3  0  0  0  0  0  0
  186.5330  177.0090  136.4460 C   0  0  1  0  0  3  0  0  0  0  0  0
  185.2830  177.6290  136.4780 O   0  0  0  0  0  1  0  0  0  0  0  0
  186.1440  174.9400  135.2110 N   0  0  0  0  0  1  0  0  0  0  0  0
  188.8110  176.9050  137.5560 C   0  0  1  0  0  3  0  0  0  0  0  0
  187.5130  174.7600  137.2250 C   0  0  0  0  0  2  0  0  0  0  0  0
  187.5450  178.9330  137.4620 O   0  0  0  0  0  1  0  0  0  0  0  0
  187.4160  177.5480  137.5730 C   0  0  1  0  0  3  0  0  0  0  0  0
  191.6140  176.5880  145.5010 C   0  0  0  0  0  2  0  0  0  0  0  0
  191.7390  176.6360  147.0120 C   0  0  0  0  0  3  0  0  0  0  0  0
  191.3010  175.3040  147.5840 C   0  0  0  0  0  2  0  0  0  0  0  0
  192.7750  175.6230  147.4560 C   0  0  0  0  0  2  0  0  0  0  0  0
  2  9  1  0  0  0  0
  2 18  1  0  0  0  0
  3  8  2  0  0  0  0
  4  3  1  0  0  0  0
  5 13  1  0  0  0  0
  5 14  1  1  0  0  0
  6 13  1  0  0  0  0
  9  6  1  0  0  0  0
 10  8  1  0  0  0  0
 10  9  2  0  0  0  0
 11 17  1  0  0  0  0
 11 19  1  0  0  0  0
 12  1  1  0  0  0  0
 13  7  1  1  0  0  0
 13 15  1  0  0  0  0
 14 12  1  0  0  0  0
 15 29  1  1  0  0  0
 15  1  1  0  0  0  0
 16  4  2  0  0  0  0
 17 16  1  1  0  0  0
 17 10  1  0  0  0  0
 18  5  1  0  0  0  0
 19  2  2  0  0  0  0
 20 26  1  0  0  0  0
 21 24  1  6  0  0  0
 21 26  1  0  0  0  0
 22 23  1  1  0  0  0
 22 21  1  0  0  0  0
 22 28  1  0  0  0  0
 25 20  1  1  0  0  0
 25 28  1  0  0  0  0
 25 11  1  0  0  0  0
 28 27  1  6  0  0  0
 29 30  1  0  0  0  0
 30 32  1  0  0  0  0
 30 31  1  0  0  0  0
 32 31  1  0  0  0  0
M  END
>  <MODEL>
2

>  <REMARK>
 VINA RESULT:      -8.7      3.707      5.809
  Name = 
  3 active torsions:
  status: ('A' for Active; 'I' for Inactive)
    1  A    between atoms: C_1  and  C_10
    2  A    between atoms: C_10  and  C_24
    3  A    between atoms: N_16  and  C_27
                            x       y       z     vdW  Elec       q    Type
                         _______ _______ _______ _____ _____    ______ ____

>  <TORSDO>
F 3

$$$$
=
 OpenBabel10262421333D

 32 37  0  0  1  0  0  0  0  0999 V2000
  191.4080  177.4280  142.8300 O   0  0  0  0  0  0  0  0  0  0  0  0
  187.1880  178.4840  140.3970 C   0  0  0  0  0  0  0  0  0  0  0  0
  183.6860  178.5450  143.8430 N   0  0  0  0  0  0  0  0  0  0  0  0
  182.8220  178.7950  142.9020 C   0  0  0  0  0  3  0  0  0  0  0  0
  189.2510  177.0410  140.9590 C   0  0  2  0  0  3  0  0  0  0  0  0
  187.7710  177.9510  142.7580 O   0  0  0  0  0  0  0  0  0  0  0  0
  188.9480  175.9120  143.1580 C   0  0  0  0  0  1  0  0  0  0  0  0
  185.0990  178.2200  143.6090 C   0  0  0  0  0  3  0  0  0  0  0  0
  186.8010  178.2990  141.8090 C   0  0  0  0  0  0  0  0  0  0  0  0
  185.5180  178.4320  142.1760 C   0  0  0  0  0  0  0  0  0  0  0  0
  184.9170  178.6950  139.7630 N   0  0  0  0  0  0  0  0  0  0  0  0
  191.6680  177.4830  141.4490 C   0  0  0  0  0  2  0  0  0  0  0  0
  189.0080  177.2750  142.4760 C   0  0  1  0  0  0  0  0  0  0  0  0
  190.6880  176.5820  140.6950 C   0  0  0  0  0  2  0  0  0  0  0  0
  190.1870  178.1000  143.0410 C   0  0  1  0  0  3  0  0  0  0  0  0
  183.2170  178.8220  141.4870 C   0  0  0  0  0  3  0  0  0  0  0  0
  184.4950  178.6570  141.1370 C   0  0  2  0  0  3  0  0  0  0  0  0
  188.9180  178.5450  139.9860 S   0  0  0  0  0  0  0  0  0  0  0  0
  186.2940  178.6440  139.4660 N   0  0  0  0  0  0  0  0  0  0  0  0
  183.4470  177.4750  138.2060 C   0  0  0  0  0  2  0  0  0  0  0  0
  181.0270  178.1150  138.5520 C   0  0  1  0  0  3  0  0  0  0  0  0
  181.5400  179.5440  138.3180 C   0  0  1  0  0  3  0  0  0  0  0  0
  180.5550  180.4580  138.6970 O   0  0  0  0  0  1  0  0  0  0  0  0
  180.2910  177.6680  137.3840 N   0  0  0  0  0  1  0  0  0  0  0  0
  183.9530  178.8480  138.6760 C   0  0  1  0  0  3  0  0  0  0  0  0
  182.1330  177.1050  138.8850 C   0  0  0  0  0  2  0  0  0  0  0  0
  183.2580  181.1300  138.8600 O   0  0  0  0  0  1  0  0  0  0  0  0
  182.8350  179.8200  139.0850 C   0  0  1  0  0  3  0  0  0  0  0  0
  190.0120  178.4160  144.5220 C   0  0  0  0  0  2  0  0  0  0  0  0
  189.9050  177.1320  145.3240 C   0  0  0  0  0  3  0  0  0  0  0  0
  191.0350  177.0880  146.3320 C   0  0  0  0  0  2  0  0  0  0  0  0
  189.6410  177.4760  146.7760 C   0  0  0  0  0  2  0  0  0  0  0  0
  1 15  1  0  0  0  0
  2  9  1  0  0  0  0
  4  3  1  0  0  0  0
  5 14  1  1  0  0  0
  5 13  1  0  0  0  0
  8  3  2  0  0  0  0
  9 10  2  0  0  0  0
  9  6  1  0  0  0  0
 10  8  1  0  0  0  0
 11 17  1  0  0  0  0
 12  1  1  0  0  0  0
 13  6  1  0  0  0  0
 13 15  1  0  0  0  0
 13  7  1  1  0  0  0
 14 12  1  0  0  0  0
 15 29  1  1  0  0  0
 16  4  2  0  0  0  0
 17 16  1  1  0  0  0
 17 10  1  0  0  0  0
 18  2  1  0  0  0  0
 18  5  1  0  0  0  0
 19 11  1  0  0  0  0
 19  2  2  0  0  0  0
 20 26  1  0  0  0  0
 21 24  1  6  0  0  0
 21 26  1  0  0  0  0
 22 21  1  0  0  0  0
 22 23  1  1  0  0  0
 22 28  1  0  0  0  0
 25 20  1  1  0  0  0
 25 28  1  0  0  0  0
 25 11  1  0  0  0  0
 28 27  1  6  0  0  0
 29 30  1  0  0  0  0
 30 31  1  0  0  0  0
 30 32  1  0  0  0  0
 31 32  1  0  0  0  0
M  END
>  <MODEL>
3

>  <REMARK>
 VINA RESULT:      -8.7      1.393      1.660
  Name = 
  3 active torsions:
  status: ('A' for Active; 'I' for Inactive)
    1  A    between atoms: C_1  and  C_10
    2  A    between atoms: C_10  and  C_24
    3  A    between atoms: N_16  and  C_27
                            x       y       z     vdW  Elec       q    Type
                         _______ _______ _______ _____ _____    ______ ____

>  <TORSDO>
F 3

$$$$
=
 OpenBabel10262421333D

 32 37  0  0  1  0  0  0  0  0999 V2000
  181.4060  179.2980  140.8390 O   0  0  0  0  0  0  0  0  0  0  0  0
  186.3050  178.8160  141.6170 C   0  0  0  0  0  0  0  0  0  0  0  0
  188.2540  178.0470  137.1720 N   0  0  0  0  0  0  0  0  0  0  0  0
  189.4180  177.9490  137.7450 C   0  0  0  0  0  3  0  0  0  0  0  0
  183.8320  178.1260  141.8610 C   0  0  2  0  0  3  0  0  0  0  0  0
  184.8170  178.6660  139.6260 O   0  0  0  0  0  0  0  0  0  0  0  0
  182.9950  177.1250  139.7390 C   0  0  0  0  0  1  0  0  0  0  0  0
  186.9790  178.1590  137.8930 C   0  0  0  0  0  2  0  0  0  0  0  0
  186.1090  178.6250  140.1660 C   0  0  0  0  0  0  0  0  0  0  0  0
  187.1620  178.3830  139.3730 C   0  0  0  0  0  0  0  0  0  0  0  0
  188.5990  178.2680  141.4170 N   0  0  0  0  0  0  0  0  0  0  0  0
  181.6620  179.3280  142.2210 C   0  0  0  0  0  2  0  0  0  0  0  0
  183.6040  178.3860  140.3460 C   0  0  1  0  0  0  0  0  0  0  0  0
  182.5030  178.1150  142.6240 C   0  0  0  0  0  2  0  0  0  0  0  0
  182.6270  179.5740  140.1920 C   0  0  1  0  0  3  0  0  0  0  0  0
  189.5580  177.9910  139.2080 C   0  0  0  0  0  3  0  0  0  0  0  0
  188.4930  178.2030  139.9840 C   0  0  0  0  0  0  0  0  0  0  0  0
  184.9310  179.3770  142.5980 S   0  0  0  0  0  0  0  0  0  0  0  0
  187.4640  178.6220  142.1730 N   0  0  0  0  0  0  0  0  0  0  0  0
  189.9440  178.8420  143.4010 C   0  0  0  0  0  2  0  0  0  0  0  0
  190.4430  176.7860  144.7850 C   0  0  1  0  0  3  0  0  0  0  0  0
  191.0260  176.2420  143.4710 C   0  0  1  0  0  3  0  0  0  0  0  0
  191.2400  174.8680  143.5940 O   0  0  0  0  0  1  0  0  0  0  0  0
  191.5260  177.1280  145.6900 N   0  0  0  0  0  1  0  0  0  0  0  0
  189.8710  178.0340  142.0960 C   0  0  1  0  0  3  0  0  0  0  0  0
  189.5220  177.9990  144.6000 C   0  0  0  0  0  2  0  0  0  0  0  0
  190.6660  176.0030  141.1100 O   0  0  0  0  0  1  0  0  0  0  0  0
  190.1110  176.5270  142.2780 C   0  0  1  0  0  3  0  0  0  0  0  0
  182.3780  179.9300  138.7300 C   0  0  0  0  0  2  0  0  0  0  0  0
  181.0100  180.5650  138.5700 C   0  0  0  0  0  3  0  0  0  0  0  0
  181.1850  182.0030  138.1280 C   0  0  0  0  0  2  0  0  0  0  0  0
  180.8060  180.9420  137.1170 C   0  0  0  0  0  2  0  0  0  0  0  0
  1 12  1  0  0  0  0
  2 19  2  0  0  0  0
  2 18  1  0  0  0  0
  3  4  2  0  0  0  0
  3  8  1  0  0  0  0
  4 16  1  0  0  0  0
  5 18  1  0  0  0  0
  5 14  1  1  0  0  0
  6  9  1  0  0  0  0
  6 13  1  0  0  0  0
  8 10  1  0  0  0  0
  9  2  1  0  0  0  0
 10 17  1  0  0  0  0
 10  9  2  0  0  0  0
 11 19  1  0  0  0  0
 12 14  1  0  0  0  0
 13  7  1  6  0  0  0
 13  5  1  0  0  0  0
 15 29  1  6  0  0  0
 15 13  1  0  0  0  0
 15  1  1  0  0  0  0
 16 17  2  0  0  0  0
 17 11  1  0  0  0  0
 20 26  1  0  0  0  0
 21 24  1  1  0  0  0
 22 23  1  1  0  0  0
 22 21  1  0  0  0  0
 25 11  1  1  0  0  0
 25 28  1  0  0  0  0
 25 20  1  0  0  0  0
 26 21  1  0  0  0  0
 28 27  1  6  0  0  0
 28 22  1  0  0  0  0
 30 29  1  0  0  0  0
 31 30  1  0  0  0  0
 32 31  1  0  0  0  0
 32 30  1  0  0  0  0
M  END
>  <MODEL>
4

>  <REMARK>
 VINA RESULT:      -8.2      2.583      8.599
  Name = 
  3 active torsions:
  status: ('A' for Active; 'I' for Inactive)
    1  A    between atoms: C_1  and  C_10
    2  A    between atoms: C_10  and  C_24
    3  A    between atoms: N_16  and  C_27
                            x       y       z     vdW  Elec       q    Type
                         _______ _______ _______ _____ _____    ______ ____

>  <TORSDO>
F 3

$$$$
=
 OpenBabel10262421333D

 32 37  0  0  1  0  0  0  0  0999 V2000
  190.3880  175.1650  134.7870 O   0  0  0  0  0  0  0  0  0  0  0  0
  189.6340  176.7870  139.4390 C   0  0  0  0  0  0  0  0  0  0  0  0
  185.1590  178.8150  139.3950 N   0  0  0  0  0  0  0  0  0  0  0  0
  185.3280  179.1170  140.6490 C   0  0  0  0  0  3  0  0  0  0  0  0
  190.8370  176.7410  137.1580 C   0  0  2  0  0  3  0  0  0  0  0  0
  188.3440  176.8840  137.3110 O   0  0  0  0  0  0  0  0  0  0  0  0
  189.4370  177.8400  135.4160 C   0  0  0  0  0  1  0  0  0  0  0  0
  186.1980  178.2440  138.5290 C   0  0  0  0  0  2  0  0  0  0  0  0
  188.4270  177.1700  138.6800 C   0  0  0  0  0  0  0  0  0  0  0  0
  187.4270  177.8190  139.2940 C   0  0  0  0  0  0  0  0  0  0  0  0
  188.8510  177.9510  141.3450 N   0  0  0  0  0  0  0  0  0  0  0  0
  191.5550  174.9620  135.5450 C   0  0  0  0  0  2  0  0  0  0  0  0
  189.4640  176.7010  136.4290 C   0  0  1  0  0  0  0  0  0  0  0  0
  191.9640  176.2640  136.2370 C   0  0  0  0  0  2  0  0  0  0  0  0
  189.3330  175.3420  135.7040 C   0  0  1  0  0  3  0  0  0  0  0  0
  186.6020  178.8560  141.3340 C   0  0  0  0  0  3  0  0  0  0  0  0
  187.5990  178.2360  140.6980 C   0  0  0  0  0  0  0  0  0  0  0  0
  190.8260  175.7170  138.6650 S   0  0  0  0  0  0  0  0  0  0  0  0
  189.8150  177.1800  140.6650 N   0  0  0  0  0  0  0  0  0  0  0  0
  187.9290  178.0570  143.6290 C   0  0  0  0  0  2  0  0  0  0  0  0
  189.3890  176.7890  145.2570 C   0  0  1  0  0  3  0  0  0  0  0  0
  190.4990  177.7100  144.7270 C   0  0  1  0  0  3  0  0  0  0  0  0
  191.7410  177.2220  145.1390 O   0  0  0  0  0  1  0  0  0  0  0  0
  189.0090  177.2080  146.5940 N   0  0  0  0  0  1  0  0  0  0  0  0
  189.1170  178.3910  142.7130 C   0  0  1  0  0  3  0  0  0  0  0  0
  188.1460  176.7350  144.3590 C   0  0  0  0  0  2  0  0  0  0  0  0
  191.4940  178.6610  142.7610 O   0  0  0  0  0  1  0  0  0  0  0  0
  190.4620  177.8330  143.2030 C   0  0  1  0  0  3  0  0  0  0  0  0
  187.9910  175.1960  134.9930 C   0  0  0  0  0  2  0  0  0  0  0  0
  187.3800  173.8410  135.2960 C   0  0  0  0  0  3  0  0  0  0  0  0
  186.9110  173.8240  136.7350 C   0  0  0  0  0  2  0  0  0  0  0  0
  185.9110  174.0210  135.6170 C   0  0  0  0  0  2  0  0  0  0  0  0
  1 12  1  0  0  0  0
  1 15  1  0  0  0  0
  2 19  2  0  0  0  0
  3  4  2  0  0  0  0
  4 16  1  0  0  0  0
  5 14  1  6  0  0  0
  5 18  1  0  0  0  0
  6  9  1  0  0  0  0
  8 10  1  0  0  0  0
  8  3  1  0  0  0  0
  9 10  2  0  0  0  0
  9  2  1  0  0  0  0
 10 17  1  0  0  0  0
 12 14  1  0  0  0  0
 13  7  1  6  0  0  0
 13  5  1  0  0  0  0
 13  6  1  0  0  0  0
 15 29  1  6  0  0  0
 15 13  1  0  0  0  0
 17 16  2  0  0  0  0
 17 11  1  0  0  0  0
 18  2  1  0  0  0  0
 19 11  1  0  0  0  0
 20 26  1  0  0  0  0
 21 24  1  1  0  0  0
 22 23  1  6  0  0  0
 22 21  1  0  0  0  0
 25 11  1  6  0  0  0
 25 28  1  0  0  0  0
 25 20  1  0  0  0  0
 26 21  1  0  0  0  0
 28 27  1  1  0  0  0
 28 22  1  0  0  0  0
 29 30  1  0  0  0  0
 30 32  1  0  0  0  0
 30 31  1  0  0  0  0
 32 31  1  0  0  0  0
M  END
>  <MODEL>
5

>  <REMARK>
 VINA RESULT:      -7.7      3.868      7.727
  Name = 
  3 active torsions:
  status: ('A' for Active; 'I' for Inactive)
    1  A    between atoms: C_1  and  C_10
    2  A    between atoms: C_10  and  C_24
    3  A    between atoms: N_16  and  C_27
                            x       y       z     vdW  Elec       q    Type
                         _______ _______ _______ _____ _____    ______ ____

>  <TORSDO>
F 3

$$$$
=
 OpenBabel10262421333D

 32 37  0  0  1  0  0  0  0  0999 V2000
  190.6410  177.1110  145.9700 O   0  0  0  0  0  0  0  0  0  0  0  0
  188.9660  177.9360  141.3490 C   0  0  0  0  0  0  0  0  0  0  0  0
  184.2260  179.1150  141.8790 N   0  0  0  0  0  0  0  0  0  0  0  0
  184.1480  179.2130  140.5840 C   0  0  0  0  0  3  0  0  0  0  0  0
  189.9520  176.4880  143.2420 C   0  0  2  0  0  3  0  0  0  0  0  0
  187.9380  177.9230  143.6170 O   0  0  0  0  0  0  0  0  0  0  0  0
  188.1960  175.9390  144.9200 C   0  0  0  0  0  1  0  0  0  0  0  0
  185.4030  178.6210  142.6060 C   0  0  0  0  0  3  0  0  0  0  0  0
  187.8020  178.1230  142.2360 C   0  0  0  0  0  0  0  0  0  0  0  0
  186.6100  178.4520  141.7180 C   0  0  0  0  0  0  0  0  0  0  0  0
  187.5970  178.1930  139.4350 N   0  0  0  0  0  0  0  0  0  0  0  0
  191.6600  176.8160  145.0470 C   0  0  0  0  0  2  0  0  0  0  0  0
  188.9290  177.0920  144.2440 C   0  0  1  0  0  0  0  0  0  0  0  0
  191.1360  175.8540  143.9790 C   0  0  0  0  0  2  0  0  0  0  0  0
  189.7030  177.9190  145.2970 C   0  0  1  0  0  3  0  0  0  0  0  0
  185.2870  178.8720  139.7200 C   0  0  0  0  0  3  0  0  0  0  0  0
  186.4590  178.5160  140.2530 C   0  0  2  0  0  3  0  0  0  0  0  0
  190.5770  177.7450  142.0810 S   0  0  0  0  0  0  0  0  0  0  0  0
  188.8400  177.9510  140.0550 N   0  0  0  0  0  0  0  0  0  0  0  0
  188.7110  178.8830  137.3480 C   0  0  0  0  0  2  0  0  0  0  0  0
  189.3070  176.8770  135.9310 C   0  0  1  0  0  3  0  0  0  0  0  0
  187.8100  176.5540  136.0470 C   0  0  1  0  0  3  0  0  0  0  0  0
  187.5850  175.2450  135.6170 O   0  0  0  0  0  1  0  0  0  0  0  0
  189.5950  177.3640  134.5940 N   0  0  0  0  0  1  0  0  0  0  0  0
  187.5040  178.1710  137.9780 C   0  0  1  0  0  3  0  0  0  0  0  0
  189.8060  177.8910  136.9690 C   0  0  0  0  0  2  0  0  0  0  0  0
  185.9390  176.4130  137.5440 O   0  0  0  0  0  1  0  0  0  0  0  0
  187.2950  176.7330  137.4770 C   0  0  1  0  0  3  0  0  0  0  0  0
  188.7710  178.5890  146.3020 C   0  0  0  0  0  2  0  0  0  0  0  0
  188.4130  177.6200  147.4130 C   0  0  0  0  0  3  0  0  0  0  0  0
  188.7080  178.2720  148.7470 C   0  0  0  0  0  2  0  0  0  0  0  0
  187.2850  178.2050  148.2360 C   0  0  0  0  0  2  0  0  0  0  0  0
  2 18  1  0  0  0  0
  2  9  1  0  0  0  0
  3  8  2  0  0  0  0
  4  3  1  0  0  0  0
  5 14  1  1  0  0  0
  5 13  1  0  0  0  0
  6 13  1  0  0  0  0
  9  6  1  0  0  0  0
 10  9  2  0  0  0  0
 10  8  1  0  0  0  0
 11 19  1  0  0  0  0
 11 17  1  0  0  0  0
 12  1  1  0  0  0  0
 13  7  1  1  0  0  0
 13 15  1  0  0  0  0
 14 12  1  0  0  0  0
 15  1  1  0  0  0  0
 15 29  1  1  0  0  0
 16  4  2  0  0  0  0
 17 16  1  1  0  0  0
 17 10  1  0  0  0  0
 18  5  1  0  0  0  0
 19  2  2  0  0  0  0
 21 24  1  6  0  0  0
 21 22  1  0  0  0  0
 21 26  1  0  0  0  0
 22 23  1  1  0  0  0
 22 28  1  0  0  0  0
 25 20  1  6  0  0  0
 25 11  1  0  0  0  0
 26 20  1  0  0  0  0
 28 27  1  6  0  0  0
 28 25  1  0  0  0  0
 29 30  1  0  0  0  0
 30 32  1  0  0  0  0
 30 31  1  0  0  0  0
 32 31  1  0  0  0  0
M  END
>  <MODEL>
6

>  <REMARK>
 VINA RESULT:      -7.5      3.198      4.318
  Name = 
  3 active torsions:
  status: ('A' for Active; 'I' for Inactive)
    1  A    between atoms: C_1  and  C_10
    2  A    between atoms: C_10  and  C_24
    3  A    between atoms: N_16  and  C_27
                            x       y       z     vdW  Elec       q    Type
                         _______ _______ _______ _____ _____    ______ ____

>  <TORSDO>
F 3

$$$$
=
 OpenBabel10262421333D

 32 37  0  0  1  0  0  0  0  0999 V2000
  180.6560  178.0580  138.3300 O   0  0  0  0  0  0  0  0  0  0  0  0
  185.3150  178.3810  140.0720 C   0  0  0  0  0  0  0  0  0  0  0  0
  188.1970  178.2520  136.0950 N   0  0  0  0  0  0  0  0  0  0  0  0
  189.2250  178.3190  136.8890 C   0  0  0  0  0  3  0  0  0  0  0  0
  183.0090  177.2590  139.7890 C   0  0  2  0  0  3  0  0  0  0  0  0
  184.2950  178.1050  137.8170 O   0  0  0  0  0  0  0  0  0  0  0  0
  182.7980  176.2690  137.5140 C   0  0  0  0  0  1  0  0  0  0  0  0
  186.8080  178.0940  136.5450 C   0  0  0  0  0  2  0  0  0  0  0  0
  185.4420  178.2540  138.6070 C   0  0  0  0  0  0  0  0  0  0  0  0
  186.6560  178.2500  138.0370 C   0  0  0  0  0  0  0  0  0  0  0  0
  187.6640  178.2520  140.3260 N   0  0  0  0  0  0  0  0  0  0  0  0
  180.6290  178.0420  139.7360 C   0  0  0  0  0  2  0  0  0  0  0  0
  183.0370  177.5730  138.2670 C   0  0  1  0  0  0  0  0  0  0  0  0
  181.5830  176.9690  140.2660 C   0  0  0  0  0  2  0  0  0  0  0  0
  181.9090  178.5830  137.9530 C   0  0  1  0  0  3  0  0  0  0  0  0
  189.0690  178.2900  138.3500 C   0  0  0  0  0  3  0  0  0  0  0  0
  187.8520  178.2630  138.9000 C   0  0  0  0  0  0  0  0  0  0  0  0
  183.6980  178.6310  140.7700 S   0  0  0  0  0  0  0  0  0  0  0  0
  186.3580  178.3540  140.8460 N   0  0  0  0  0  0  0  0  0  0  0  0
  188.4600  178.8920  142.5690 C   0  0  0  0  0  2  0  0  0  0  0  0
  189.0740  176.8520  143.9300 C   0  0  1  0  0  3  0  0  0  0  0  0
  189.9960  176.5370  142.7420 C   0  0  1  0  0  3  0  0  0  0  0  0
  190.4470  175.2200  142.8440 O   0  0  0  0  0  1  0  0  0  0  0  0
  189.8720  177.3080  145.0540 N   0  0  0  0  0  1  0  0  0  0  0  0
  188.8010  178.1970  141.2410 C   0  0  1  0  0  3  0  0  0  0  0  0
  187.9860  177.8870  143.6150 C   0  0  0  0  0  2  0  0  0  0  0  0
  190.1550  176.4370  140.3490 O   0  0  0  0  0  1  0  0  0  0  0  0
  189.2920  176.7500  141.4000 C   0  0  1  0  0  3  0  0  0  0  0  0
  181.8870  178.9840  136.4820 C   0  0  0  0  0  2  0  0  0  0  0  0
  180.5750  179.6640  136.1420 C   0  0  0  0  0  3  0  0  0  0  0  0
  180.6950  181.1430  136.4430 C   0  0  0  0  0  2  0  0  0  0  0  0
  180.8050  180.6510  135.0160 C   0  0  0  0  0  2  0  0  0  0  0  0
  1 12  1  0  0  0  0
  2 18  1  0  0  0  0
  2 19  2  0  0  0  0
  3  8  1  0  0  0  0
  3  4  2  0  0  0  0
  4 16  1  0  0  0  0
  5 14  1  1  0  0  0
  5 18  1  0  0  0  0
  6 13  1  0  0  0  0
  6  9  1  0  0  0  0
  8 10  1  0  0  0  0
  9  2  1  0  0  0  0
 10  9  2  0  0  0  0
 10 17  1  0  0  0  0
 11 19  1  0  0  0  0
 12 14  1  0  0  0  0
 13  7  1  6  0  0  0
 13  5  1  0  0  0  0
 15 29  1  6  0  0  0
 15 13  1  0  0  0  0
 15  1  1  0  0  0  0
 16 17  2  0  0  0  0
 17 11  1  0  0  0  0
 20 26  1  0  0  0  0
 21 24  1  1  0  0  0
 22 23  1  1  0  0  0
 22 21  1  0  0  0  0
 25 11  1  6  0  0  0
 25 28  1  0  0  0  0
 25 20  1  0  0  0  0
 26 21  1  0  0  0  0
 28 27  1  6  0  0  0
 28 22  1  0  0  0  0
 30 31  1  0  0  0  0
 30 29  1  0  0  0  0
 32 30  1  0  0  0  0
 32 31  1  0  0  0  0
M  END
>  <MODEL>
7

>  <REMARK>
 VINA RESULT:      -7.4      2.746      8.869
  Name = 
  3 active torsions:
  status: ('A' for Active; 'I' for Inactive)
    1  A    between atoms: C_1  and  C_10
    2  A    between atoms: C_10  and  C_24
    3  A    between atoms: N_16  and  C_27
                            x       y       z     vdW  Elec       q    Type
                         _______ _______ _______ _____ _____    ______ ____

>  <TORSDO>
F 3

$$$$
=
 OpenBabel10262421333D

 32 37  0  0  1  0  0  0  0  0999 V2000
  189.5910  177.1870  145.6290 O   0  0  0  0  0  0  0  0  0  0  0  0
  190.9280  177.0470  140.8290 C   0  0  0  0  0  0  0  0  0  0  0  0
  186.8640  178.1910  138.3170 N   0  0  0  0  0  0  0  0  0  0  0  0
  187.5460  178.0310  137.2210 C   0  0  0  0  0  3  0  0  0  0  0  0
  190.5220  176.0240  143.1620 C   0  0  2  0  0  3  0  0  0  0  0  0
  188.7970  177.4550  142.0510 O   0  0  0  0  0  0  0  0  0  0  0  0
  188.0810  175.7720  143.5860 C   0  0  0  0  0  1  0  0  0  0  0  0
  187.3650  177.8780  139.6620 C   0  0  0  0  0  3  0  0  0  0  0  0
  189.4900  177.3760  140.8350 C   0  0  0  0  0  0  0  0  0  0  0  0
  188.8410  177.5680  139.6780 C   0  0  0  0  0  0  0  0  0  0  0  0
  190.9220  176.8890  138.4680 N   0  0  0  0  0  0  0  0  0  0  0  0
  190.9210  176.7420  145.5300 C   0  0  0  0  0  2  0  0  0  0  0  0
  189.1730  176.7880  143.2680 C   0  0  1  0  0  0  0  0  0  0  0  0
  191.0110  175.5760  144.5420 C   0  0  0  0  0  2  0  0  0  0  0  0
  189.2840  177.8240  144.4100 C   0  0  1  0  0  3  0  0  0  0  0  0
  188.9360  177.5540  137.2460 C   0  0  0  0  0  3  0  0  0  0  0  0
  189.5570  177.3390  138.4080 C   0  0  2  0  0  3  0  0  0  0  0  0
  191.8100  177.0430  142.3750 S   0  0  0  0  0  0  0  0  0  0  0  0
  191.5620  176.8040  139.7210 N   0  0  0  0  0  0  0  0  0  0  0  0
  193.1810  176.7530  137.4910 C   0  0  0  0  0  2  0  0  0  0  0  0
  193.6950  174.4020  136.7180 C   0  0  1  0  0  3  0  0  0  0  0  0
  192.4060  174.5640  135.8980 C   0  0  1  0  0  3  0  0  0  0  0  0
  192.0070  173.3170  135.4130 O   0  0  0  0  0  1  0  0  0  0  0  0
  194.8440  174.4810  135.8340 N   0  0  0  0  0  1  0  0  0  0  0  0
  191.6730  176.5780  137.2540 C   0  0  1  0  0  3  0  0  0  0  0  0
  193.8430  175.4270  137.8500 C   0  0  0  0  0  2  0  0  0  0  0  0
  190.1240  175.3040  135.9480 O   0  0  0  0  0  1  0  0  0  0  0  0
  191.2800  175.1920  136.7220 C   0  0  1  0  0  3  0  0  0  0  0  0
  188.0130  178.6550  144.5590 C   0  0  0  0  0  2  0  0  0  0  0  0
  187.0470  177.9720  145.5080 C   0  0  0  0  0  3  0  0  0  0  0  0
  186.0560  178.9950  146.0210 C   0  0  0  0  0  2  0  0  0  0  0  0
  185.6510  178.0360  144.9230 C   0  0  0  0  0  2  0  0  0  0  0  0
  2  9  1  0  0  0  0
  2 18  1  0  0  0  0
  3  8  2  0  0  0  0
  4 16  2  0  0  0  0
  4  3  1  0  0  0  0
  5 13  1  0  0  0  0
  5 14  1  1  0  0  0
  6 13  1  0  0  0  0
  8 10  1  0  0  0  0
  9  6  1  0  0  0  0
 10  9  2  0  0  0  0
 11 19  1  0  0  0  0
 12  1  1  0  0  0  0
 13  7  1  1  0  0  0
 13 15  1  0  0  0  0
 14 12  1  0  0  0  0
 15 29  1  1  0  0  0
 15  1  1  0  0  0  0
 17 16  1  1  0  0  0
 17 11  1  0  0  0  0
 17 10  1  0  0  0  0
 18  5  1  0  0  0  0
 19  2  2  0  0  0  0
 20 26  1  0  0  0  0
 21 24  1  6  0  0  0
 21 26  1  0  0  0  0
 22 23  1  1  0  0  0
 22 21  1  0  0  0  0
 22 28  1  0  0  0  0
 25 20  1  1  0  0  0
 25 11  1  0  0  0  0
 28 27  1  6  0  0  0
 28 25  1  0  0  0  0
 29 30  1  0  0  0  0
 30 31  1  0  0  0  0
 32 30  1  0  0  0  0
 32 31  1  0  0  0  0
M  END
>  <MODEL>
8

>  <REMARK>
 VINA RESULT:      -7.2      4.035      7.303
  Name = 
  3 active torsions:
  status: ('A' for Active; 'I' for Inactive)
    1  A    between atoms: C_1  and  C_10
    2  A    between atoms: C_10  and  C_24
    3  A    between atoms: N_16  and  C_27
                            x       y       z     vdW  Elec       q    Type
                         _______ _______ _______ _____ _____    ______ ____

>  <TORSDO>
F 3

$$$$
=
 OpenBabel10262421333D

 32 37  0  0  1  0  0  0  0  0999 V2000
  188.2270  176.9890  134.7800 O   0  0  0  0  0  0  0  0  0  0  0  0
  188.6970  177.2560  139.7350 C   0  0  0  0  0  0  0  0  0  0  0  0
  184.5190  179.2940  141.3250 N   0  0  0  0  0  0  0  0  0  0  0  0
  184.9960  179.2300  142.5340 C   0  0  0  0  0  3  0  0  0  0  0  0
  189.3380  177.8290  137.3030 C   0  0  2  0  0  3  0  0  0  0  0  0
  186.9680  177.9680  138.0910 O   0  0  0  0  0  0  0  0  0  0  0  0
  187.6760  179.3970  136.3140 C   0  0  0  0  0  1  0  0  0  0  0  0
  185.2810  178.9700  140.1130 C   0  0  0  0  0  2  0  0  0  0  0  0
  187.3860  177.8580  139.4240 C   0  0  0  0  0  0  0  0  0  0  0  0
  186.6120  178.3270  140.4130 C   0  0  0  0  0  0  0  0  0  0  0  0
  188.4730  177.8530  142.0140 N   0  0  0  0  0  0  0  0  0  0  0  0
  189.5150  176.5600  135.1490 C   0  0  0  0  0  2  0  0  0  0  0  0
  187.8370  178.0190  136.9470 C   0  0  1  0  0  0  0  0  0  0  0  0
  190.1800  177.6100  136.0430 C   0  0  0  0  0  2  0  0  0  0  0  0
  187.4280  176.9200  135.9390 C   0  0  1  0  0  3  0  0  0  0  0  0
  186.3660  178.7650  142.7930 C   0  0  0  0  0  3  0  0  0  0  0  0
  187.1340  178.3300  141.7920 C   0  0  0  0  0  0  0  0  0  0  0  0
  189.5850  176.4240  138.4370 S   0  0  0  0  0  0  0  0  0  0  0  0
  189.1870  177.2870  140.9390 N   0  0  0  0  0  0  0  0  0  0  0  0
  189.1350  176.4770  143.9490 C   0  0  0  0  0  2  0  0  0  0  0  0
  191.6260  176.6180  144.3520 C   0  0  1  0  0  3  0  0  0  0  0  0
  191.3670  178.1310  144.4140 C   0  0  1  0  0  3  0  0  0  0  0  0
  192.5830  178.8120  144.3490 O   0  0  0  0  0  1  0  0  0  0  0  0
  191.8760  176.1140  145.6910 N   0  0  0  0  0  1  0  0  0  0  0  0
  189.0810  177.8880  143.3420 C   0  0  1  0  0  3  0  0  0  0  0  0
  190.4890  175.8190  143.7030 C   0  0  0  0  0  2  0  0  0  0  0  0
  190.2460  179.9780  143.3700 O   0  0  0  0  0  1  0  0  0  0  0  0
  190.4420  178.5990  143.2890 C   0  0  1  0  0  3  0  0  0  0  0  0
  185.9520  177.0040  135.5640 C   0  0  0  0  0  2  0  0  0  0  0  0
  185.3180  175.6260  135.6160 C   0  0  0  0  0  3  0  0  0  0  0  0
  185.6510  174.9820  136.9450 C   0  0  0  0  0  2  0  0  0  0  0  0
  184.2860  175.5980  136.7240 C   0  0  0  0  0  2  0  0  0  0  0  0
  1 12  1  0  0  0  0
  1 15  1  0  0  0  0
  2 19  2  0  0  0  0
  3  4  2  0  0  0  0
  4 16  1  0  0  0  0
  5 14  1  6  0  0  0
  5 18  1  0  0  0  0
  6  9  1  0  0  0  0
  8 10  1  0  0  0  0
  8  3  1  0  0  0  0
  9  2  1  0  0  0  0
  9 10  2  0  0  0  0
 10 17  1  0  0  0  0
 12 14  1  0  0  0  0
 13  7  1  6  0  0  0
 13  5  1  0  0  0  0
 13  6  1  0  0  0  0
 15 29  1  6  0  0  0
 15 13  1  0  0  0  0
 17 11  1  0  0  0  0
 17 16  2  0  0  0  0
 18  2  1  0  0  0  0
 19 11  1  0  0  0  0
 21 22  1  0  0  0  0
 21 24  1  1  0  0  0
 22 23  1  6  0  0  0
 25 11  1  6  0  0  0
 25 20  1  0  0  0  0
 26 20  1  0  0  0  0
 26 21  1  0  0  0  0
 28 25  1  0  0  0  0
 28 27  1  1  0  0  0
 28 22  1  0  0  0  0
 29 30  1  0  0  0  0
 30 32  1  0  0  0  0
 30 31  1  0  0  0  0
 32 31  1  0  0  0  0
M  END
>  <MODEL>
9

>  <REMARK>
 VINA RESULT:      -7.1      3.548      7.725
  Name = 
  3 active torsions:
  status: ('A' for Active; 'I' for Inactive)
    1  A    between atoms: C_1  and  C_10
    2  A    between atoms: C_10  and  C_24
    3  A    between atoms: N_16  and  C_27
                            x       y       z     vdW  Elec       q    Type
                         _______ _______ _______ _____ _____    ______ ____

>  <TORSDO>
F 3

$$$$
