=
 OpenBabel10262423013D

 37 42  0  0  1  0  0  0  0  0999 V2000
  188.2890  178.5200  148.8430 C   0  0  0  0  0  2  0  0  0  0  0  0
  189.7990  178.1120  144.9020 C   0  0  1  0  0  3  0  0  0  0  0  0
  188.2130  176.4570  142.3470 C   0  0  1  0  0  3  0  0  0  0  0  0
  189.3850  176.9200  147.1620 C   0  0  1  0  0  3  0  0  0  0  0  0
  188.7940  178.3430  143.7440 C   0  0  1  0  0  3  0  0  0  0  0  0
  188.8780  177.8610  146.0790 C   0  0  2  0  0  3  0  0  0  0  0  0
  189.0450  177.7120  142.3900 C   0  0  1  0  0  3  0  0  0  0  0  0
  190.8710  177.1340  147.3710 C   0  0  0  0  0  2  0  0  0  0  0  0
  187.6180  177.3070  145.4880 C   0  0  1  0  0  3  0  0  0  0  0  0
  186.3530  178.8330  147.1210 C   0  0  0  0  0  3  0  0  0  0  0  0
  191.8850  177.3180  143.7080 C   0  0  0  0  0  2  0  0  0  0  0  0
  191.6350  176.7730  146.0880 C   0  0  0  0  0  2  0  0  0  0  0  0
  186.4020  177.5090  146.4030 C   0  0  0  0  0  2  0  0  0  0  0  0
  188.9120  175.3790  142.8920 O   0  0  0  0  0  1  0  0  0  0  0  0
  190.8560  176.9920  144.7720 C   0  0  1  0  0  3  0  0  0  0  0  0
  187.4550  177.8970  144.1680 N   0  0  2  0  0  0  0  0  0  0  0  0
  188.5600  177.0640  148.4470 C   0  0  0  0  0  2  0  0  0  0  0  0
  190.4360  177.7650  141.7480 C   0  0  1  0  0  3  0  0  0  0  0  0
  187.1380  179.2300  148.1460 C   0  0  0  0  0  3  0  0  0  0  0  0
  187.0480  176.8100  143.2640 C   0  0  1  0  0  3  0  0  0  0  0  0
  191.4380  176.8040  142.3600 C   0  0  0  0  0  2  0  0  0  0  0  0
  189.3430  178.2200  139.5110 C   0  0  0  0  0  3  0  0  0  0  0  0
  190.3610  177.6090  140.2600 C   0  0  0  0  0  0  0  0  0  0  0  0
  191.3420  176.8570  139.6060 C   0  0  0  0  0  3  0  0  0  0  0  0
  192.3490  175.9060  137.5280 C   0  0  0  0  0  1  0  0  0  0  0  0
  190.2870  177.3150  137.4740 C   0  0  0  0  0  3  0  0  0  0  0  0
  191.3050  176.7080  138.2160 C   0  0  0  0  0  0  0  0  0  0  0  0
  189.3060  178.0720  138.1220 C   0  0  0  0  0  3  0  0  0  0  0  0
  185.9620  177.2320  142.4930 O   0  0  0  0  0  0  0  0  0  0  0  0
  185.6230  178.4990  142.9860 C   0  0  2  0  0  3  0  0  0  0  0  0
  184.3220  178.4320  143.7840 C   0  0  0  0  0  2  0  0  0  0  0  0
  183.9440  179.7790  144.3790 C   0  0  0  0  0  1  0  0  0  0  0  0
  185.5020  179.4970  141.8430 C   0  0  0  0  0  2  0  0  0  0  0  0
  183.5810  179.0980  140.2440 C   0  0  0  0  0  1  0  0  0  0  0  0
  185.0410  178.8000  140.5620 C   0  0  1  0  0  3  0  0  0  0  0  0
  185.4500  178.2660  138.3630 C   0  0  0  0  0  1  0  0  0  0  0  0
  185.9020  179.0180  139.4610 O   0  0  0  0  0  0  0  0  0  0  0  0
  2  6  1  0  0  0  0
  3  7  1  0  0  0  0
  3 14  1  0  0  0  0
  3 20  1  0  0  0  0
  4  8  1  0  0  0  0
  4 17  1  0  0  0  0
  5 16  1  0  0  0  0
  5  2  1  0  0  0  0
  6  4  1  0  0  0  0
  7  5  1  0  0  0  0
  9  6  1  0  0  0  0
  9 13  1  0  0  0  0
 10 19  2  0  0  0  0
 11 15  1  0  0  0  0
 12  8  1  0  0  0  0
 13 10  1  0  0  0  0
 15  2  1  0  0  0  0
 15 12  1  0  0  0  0
 16  9  1  0  0  0  0
 17  1  1  0  0  0  0
 18 21  1  0  0  0  0
 18  7  1  0  0  0  0
 19  1  1  0  0  0  0
 20 16  1  0  0  0  0
 21 11  1  0  0  0  0
 22 23  1  0  0  0  0
 23 18  1  0  0  0  0
 24 23  2  0  0  0  0
 25 27  1  0  0  0  0
 26 28  1  0  0  0  0
 26 27  2  0  0  0  0
 27 24  1  0  0  0  0
 28 22  2  0  0  0  0
 29 30  1  0  0  0  0
 29 20  1  0  0  0  0
 30 31  1  0  0  0  0
 31 32  1  0  0  0  0
 33 30  1  0  0  0  0
 34 35  1  0  0  0  0
 35 33  1  0  0  0  0
 36 37  1  0  0  0  0
 37 35  1  0  0  0  0
M  END
>  <MODEL>
1

>  <REMARK>
 VINA RESULT:      -8.9      0.000      0.000
  Name = 
  7 active torsions:
  status: ('A' for Active; 'I' for Inactive)
    1  A    between atoms: C_5  and  C_17
    2  A    between atoms: C_5  and  O_23
    3  A    between atoms: C_6  and  C_31
    4  A    between atoms: C_11  and  C_26
    5  A    between atoms: C_17  and  C_26
    6  A    between atoms: C_26  and  O_33
    7  A    between atoms: O_33  and  C_36
                            x       y       z     vdW  Elec       q    Type
                         _______ _______ _______ _____ _____    ______ ____

>  <TORSDO>
F 7

$$$$
=
 OpenBabel10262423013D

 37 42  0  0  1  0  0  0  0  0999 V2000
  191.0240  176.2480  144.7890 C   0  0  0  0  0  2  0  0  0  0  0  0
  186.9500  177.3280  144.3290 C   0  0  1  0  0  3  0  0  0  0  0  0
  185.7290  179.4150  141.8930 C   0  0  1  0  0  3  0  0  0  0  0  0
  189.2880  178.1090  145.1180 C   0  0  1  0  0  3  0  0  0  0  0  0
  186.3840  177.3100  142.8860 C   0  0  1  0  0  3  0  0  0  0  0  0
  188.4450  177.3760  144.0850 C   0  0  2  0  0  3  0  0  0  0  0  0
  185.1850  178.1650  142.5340 C   0  0  1  0  0  3  0  0  0  0  0  0
  188.7350  177.8510  146.5050 C   0  0  0  0  0  2  0  0  0  0  0  0
  188.6100  178.0330  142.7490 C   0  0  1  0  0  3  0  0  0  0  0  0
  190.3960  176.2550  142.2560 C   0  0  0  0  0  3  0  0  0  0  0  0
  185.0470  178.3030  145.6840 C   0  0  0  0  0  2  0  0  0  0  0  0
  187.3150  178.4250  146.6160 C   0  0  0  0  0  2  0  0  0  0  0  0
  189.9480  177.6840  142.0840 C   0  0  0  0  0  2  0  0  0  0  0  0
  186.0350  180.3770  142.8570 O   0  0  0  0  0  1  0  0  0  0  0  0
  186.5060  178.4460  145.3000 C   0  0  1  0  0  3  0  0  0  0  0  0
  187.4520  177.6850  141.9410 N   0  0  2  0  0  0  0  0  0  0  0  0
  190.7720  177.7490  144.9740 C   0  0  0  0  0  2  0  0  0  0  0  0
  183.9620  178.2150  143.4580 C   0  0  1  0  0  3  0  0  0  0  0  0
  190.8560  175.6800  143.3880 C   0  0  0  0  0  3  0  0  0  0  0  0
  187.0220  178.9160  141.2600 C   0  0  1  0  0  3  0  0  0  0  0  0
  184.1650  179.0480  144.7100 C   0  0  0  0  0  2  0  0  0  0  0  0
  182.6580  178.5520  141.3150 C   0  0  0  0  0  3  0  0  0  0  0  0
  182.7290  178.6300  142.7150 C   0  0  0  0  0  0  0  0  0  0  0  0
  181.6200  179.0810  143.4380 C   0  0  0  0  0  3  0  0  0  0  0  0
  179.2770  179.9390  143.5460 C   0  0  0  0  0  1  0  0  0  0  0  0
  180.3850  179.3830  141.3770 C   0  0  0  0  0  3  0  0  0  0  0  0
  180.4510  179.4590  142.7720 C   0  0  0  0  0  0  0  0  0  0  0  0
  181.4890  178.9290  140.6490 C   0  0  0  0  0  3  0  0  0  0  0  0
  186.8020  178.6430  139.9070 O   0  0  0  0  0  0  0  0  0  0  0  0
  187.8960  177.8700  139.4980 C   0  0  2  0  0  3  0  0  0  0  0  0
  189.0430  178.7670  139.0360 C   0  0  0  0  0  2  0  0  0  0  0  0
  190.1060  177.9920  138.2730 C   0  0  0  0  0  1  0  0  0  0  0  0
  187.4820  176.9120  138.3890 C   0  0  0  0  0  2  0  0  0  0  0  0
  186.9180  177.8950  136.1270 C   0  0  0  0  0  1  0  0  0  0  0  0
  186.3950  177.5350  137.5130 C   0  0  1  0  0  3  0  0  0  0  0  0
  184.1320  177.5810  137.9120 C   0  0  0  0  0  1  0  0  0  0  0  0
  185.2000  176.7800  137.4740 O   0  0  0  0  0  0  0  0  0  0  0  0
  1 17  1  0  0  0  0
  2 15  1  0  0  0  0
  3  7  1  0  0  0  0
  3 14  1  0  0  0  0
  4  8  1  0  0  0  0
  5  2  1  0  0  0  0
  6  2  1  0  0  0  0
  6  4  1  0  0  0  0
  7  5  1  0  0  0  0
  7 18  1  0  0  0  0
  8 12  1  0  0  0  0
  9  6  1  0  0  0  0
 10 19  2  0  0  0  0
 13 10  1  0  0  0  0
 13  9  1  0  0  0  0
 15 11  1  0  0  0  0
 15 12  1  0  0  0  0
 16  9  1  0  0  0  0
 16  5  1  0  0  0  0
 17  4  1  0  0  0  0
 18 21  1  0  0  0  0
 19  1  1  0  0  0  0
 20  3  1  0  0  0  0
 20 16  1  0  0  0  0
 21 11  1  0  0  0  0
 22 23  1  0  0  0  0
 23 24  2  0  0  0  0
 23 18  1  0  0  0  0
 26 27  2  0  0  0  0
 27 24  1  0  0  0  0
 27 25  1  0  0  0  0
 28 22  2  0  0  0  0
 28 26  1  0  0  0  0
 29 20  1  0  0  0  0
 30 29  1  0  0  0  0
 31 30  1  0  0  0  0
 32 31  1  0  0  0  0
 33 30  1  0  0  0  0
 34 35  1  0  0  0  0
 35 33  1  0  0  0  0
 37 35  1  0  0  0  0
 37 36  1  0  0  0  0
M  END
>  <MODEL>
2

>  <REMARK>
 VINA RESULT:      -8.7      1.896      6.378
  Name = 
  7 active torsions:
  status: ('A' for Active; 'I' for Inactive)
    1  A    between atoms: C_5  and  C_17
    2  A    between atoms: C_5  and  O_23
    3  A    between atoms: C_6  and  C_31
    4  A    between atoms: C_11  and  C_26
    5  A    between atoms: C_17  and  C_26
    6  A    between atoms: C_26  and  O_33
    7  A    between atoms: O_33  and  C_36
                            x       y       z     vdW  Elec       q    Type
                         _______ _______ _______ _____ _____    ______ ____

>  <TORSDO>
F 7

$$$$
=
 OpenBabel10262423013D

 37 42  0  0  1  0  0  0  0  0999 V2000
  191.5140  176.2370  145.3440 C   0  0  0  0  0  2  0  0  0  0  0  0
  187.4760  177.1910  144.4720 C   0  0  1  0  0  3  0  0  0  0  0  0
  186.4320  179.1030  141.8200 C   0  0  1  0  0  3  0  0  0  0  0  0
  189.7210  178.0720  145.4100 C   0  0  1  0  0  3  0  0  0  0  0  0
  187.0380  177.0760  142.9890 C   0  0  1  0  0  3  0  0  0  0  0  0
  188.9850  177.2600  144.3550 C   0  0  2  0  0  3  0  0  0  0  0  0
  185.8570  177.8800  142.4860 C   0  0  1  0  0  3  0  0  0  0  0  0
  189.0550  177.8820  146.7580 C   0  0  0  0  0  2  0  0  0  0  0  0
  189.2530  177.8430  143.0010 C   0  0  1  0  0  3  0  0  0  0  0  0
  191.1080  176.0820  142.7700 C   0  0  0  0  0  3  0  0  0  0  0  0
  185.4450  178.1970  145.5990 C   0  0  0  0  0  2  0  0  0  0  0  0
  187.6190  178.4280  146.7120 C   0  0  0  0  0  2  0  0  0  0  0  0
  190.6510  177.4870  142.4750 C   0  0  0  0  0  2  0  0  0  0  0  0
  186.6350  180.1260  142.7470 O   0  0  0  0  0  1  0  0  0  0  0  0
  186.9280  178.3520  145.3330 C   0  0  1  0  0  3  0  0  0  0  0  0
  188.1770  177.4200  142.1190 N   0  0  2  0  0  0  0  0  0  0  0  0
  191.2180  177.7400  145.4160 C   0  0  0  0  0  2  0  0  0  0  0  0
  184.5590  177.9540  143.2970 C   0  0  1  0  0  3  0  0  0  0  0  0
  191.4790  175.5840  143.9700 C   0  0  0  0  0  3  0  0  0  0  0  0
  187.7840  178.5990  141.3310 C   0  0  1  0  0  3  0  0  0  0  0  0
  184.6370  178.8630  144.5100 C   0  0  0  0  0  2  0  0  0  0  0  0
  183.3430  177.9160  141.0770 C   0  0  0  0  0  3  0  0  0  0  0  0
  183.3870  178.2960  142.4280 C   0  0  0  0  0  0  0  0  0  0  0  0
  182.3070  178.9860  142.9860 C   0  0  0  0  0  3  0  0  0  0  0  0
  180.0500  180.0400  142.7990 C   0  0  0  0  0  1  0  0  0  0  0  0
  181.1550  178.9270  140.8550 C   0  0  0  0  0  3  0  0  0  0  0  0
  181.1930  179.3040  142.2020 C   0  0  0  0  0  0  0  0  0  0  0  0
  182.2300  178.2320  140.2930 C   0  0  0  0  0  3  0  0  0  0  0  0
  187.6870  178.2420  139.9830 O   0  0  0  0  0  0  0  0  0  0  0  0
  189.0000  178.2640  139.4950 C   0  0  2  0  0  3  0  0  0  0  0  0
  189.0550  178.9580  138.1350 C   0  0  0  0  0  2  0  0  0  0  0  0
  187.8470  178.6290  137.2740 C   0  0  0  0  0  1  0  0  0  0  0  0
  189.5510  176.8470  139.3980 C   0  0  0  0  0  2  0  0  0  0  0  0
  192.0600  176.7550  139.0800 C   0  0  0  0  0  1  0  0  0  0  0  0
  190.7000  176.7800  138.3920 C   0  0  1  0  0  3  0  0  0  0  0  0
  191.6560  174.8910  137.4960 C   0  0  0  0  0  1  0  0  0  0  0  0
  190.5480  175.7530  137.4310 O   0  0  0  0  0  0  0  0  0  0  0  0
  1 17  1  0  0  0  0
  2 15  1  0  0  0  0
  3  7  1  0  0  0  0
  3 14  1  0  0  0  0
  4 17  1  0  0  0  0
  4  8  1  0  0  0  0
  5  2  1  0  0  0  0
  6  2  1  0  0  0  0
  6  4  1  0  0  0  0
  7  5  1  0  0  0  0
  7 18  1  0  0  0  0
  9  6  1  0  0  0  0
 10 19  2  0  0  0  0
 12  8  1  0  0  0  0
 13 10  1  0  0  0  0
 13  9  1  0  0  0  0
 15 11  1  0  0  0  0
 15 12  1  0  0  0  0
 16  5  1  0  0  0  0
 16  9  1  0  0  0  0
 18 21  1  0  0  0  0
 19  1  1  0  0  0  0
 20  3  1  0  0  0  0
 20 16  1  0  0  0  0
 21 11  1  0  0  0  0
 22 23  1  0  0  0  0
 23 24  2  0  0  0  0
 23 18  1  0  0  0  0
 26 27  2  0  0  0  0
 27 25  1  0  0  0  0
 27 24  1  0  0  0  0
 28 26  1  0  0  0  0
 28 22  2  0  0  0  0
 29 20  1  0  0  0  0
 30 29  1  0  0  0  0
 31 30  1  0  0  0  0
 32 31  1  0  0  0  0
 33 30  1  0  0  0  0
 35 34  1  0  0  0  0
 35 33  1  0  0  0  0
 37 36  1  0  0  0  0
 37 35  1  0  0  0  0
M  END
>  <MODEL>
3

>  <REMARK>
 VINA RESULT:      -8.3      1.859      6.367
  Name = 
  7 active torsions:
  status: ('A' for Active; 'I' for Inactive)
    1  A    between atoms: C_5  and  C_17
    2  A    between atoms: C_5  and  O_23
    3  A    between atoms: C_6  and  C_31
    4  A    between atoms: C_11  and  C_26
    5  A    between atoms: C_17  and  C_26
    6  A    between atoms: C_26  and  O_33
    7  A    between atoms: O_33  and  C_36
                            x       y       z     vdW  Elec       q    Type
                         _______ _______ _______ _____ _____    ______ ____

>  <TORSDO>
F 7

$$$$
=
 OpenBabel10262423013D

 37 42  0  0  1  0  0  0  0  0999 V2000
  191.2970  176.3760  145.1930 C   0  0  0  0  0  2  0  0  0  0  0  0
  187.2800  177.2220  144.1340 C   0  0  1  0  0  3  0  0  0  0  0  0
  186.3120  179.3530  141.6230 C   0  0  1  0  0  3  0  0  0  0  0  0
  189.4050  178.1050  145.3180 C   0  0  1  0  0  3  0  0  0  0  0  0
  186.9490  177.2440  142.6190 C   0  0  1  0  0  3  0  0  0  0  0  0
  188.7870  177.3760  144.1340 C   0  0  2  0  0  3  0  0  0  0  0  0
  185.7620  178.0400  142.1170 C   0  0  1  0  0  3  0  0  0  0  0  0
  188.6610  177.7410  146.5870 C   0  0  0  0  0  2  0  0  0  0  0  0
  189.1130  178.1110  142.8700 C   0  0  1  0  0  3  0  0  0  0  0  0
  191.0740  176.4760  142.5940 C   0  0  0  0  0  3  0  0  0  0  0  0
  185.1250  178.0030  145.2080 C   0  0  0  0  0  2  0  0  0  0  0  0
  187.2040  178.2180  146.4940 C   0  0  0  0  0  2  0  0  0  0  0  0
  190.5600  177.8820  142.4120 C   0  0  0  0  0  2  0  0  0  0  0  0
  186.3940  180.2800  142.6640 O   0  0  0  0  0  1  0  0  0  0  0  0
  186.6120  178.2570  145.0670 C   0  0  1  0  0  3  0  0  0  0  0  0
  188.1230  177.7340  141.8730 N   0  0  2  0  0  0  0  0  0  0  0  0
  190.9140  177.8470  145.3970 C   0  0  0  0  0  2  0  0  0  0  0  0
  184.4100  177.9650  142.8350 C   0  0  1  0  0  3  0  0  0  0  0  0
  191.3900  175.8730  143.7600 C   0  0  0  0  0  3  0  0  0  0  0  0
  187.7190  178.9700  141.1850 C   0  0  1  0  0  3  0  0  0  0  0  0
  184.3560  178.7410  144.1370 C   0  0  0  0  0  2  0  0  0  0  0  0
  182.0840  178.8740  142.4240 C   0  0  0  0  0  3  0  0  0  0  0  0
  183.2820  178.3400  141.9230 C   0  0  0  0  0  0  0  0  0  0  0  0
  183.4400  178.1760  140.5440 C   0  0  0  0  0  3  0  0  0  0  0  0
  182.5840  178.3530  138.2050 C   0  0  0  0  0  1  0  0  0  0  0  0
  181.2170  179.0610  140.1720 C   0  0  0  0  0  3  0  0  0  0  0  0
  182.4100  178.5330  139.6680 C   0  0  0  0  0  0  0  0  0  0  0  0
  181.0540  179.2320  141.5500 C   0  0  0  0  0  3  0  0  0  0  0  0
  187.7330  178.7540  139.8040 O   0  0  0  0  0  0  0  0  0  0  0  0
  188.5240  177.6150  139.6110 C   0  0  2  0  0  3  0  0  0  0  0  0
  189.9590  178.0100  139.2680 C   0  0  0  0  0  2  0  0  0  0  0  0
  190.7450  176.8550  138.6680 C   0  0  0  0  0  1  0  0  0  0  0  0
  187.9310  176.7400  138.5150 C   0  0  0  0  0  2  0  0  0  0  0  0
  187.6200  178.0110  136.3490 C   0  0  0  0  0  1  0  0  0  0  0  0
  186.9650  177.5430  137.6430 C   0  0  1  0  0  3  0  0  0  0  0  0
  185.8590  175.9640  136.3890 C   0  0  0  0  0  1  0  0  0  0  0  0
  185.7250  176.8960  137.4330 O   0  0  0  0  0  0  0  0  0  0  0  0
  1 17  1  0  0  0  0
  2 15  1  0  0  0  0
  3  7  1  0  0  0  0
  3 14  1  0  0  0  0
  4 17  1  0  0  0  0
  4  8  1  0  0  0  0
  5  2  1  0  0  0  0
  6  2  1  0  0  0  0
  6  4  1  0  0  0  0
  7  5  1  0  0  0  0
  7 18  1  0  0  0  0
  9  6  1  0  0  0  0
 10 19  2  0  0  0  0
 12  8  1  0  0  0  0
 13 10  1  0  0  0  0
 13  9  1  0  0  0  0
 15 11  1  0  0  0  0
 15 12  1  0  0  0  0
 16  5  1  0  0  0  0
 16  9  1  0  0  0  0
 18 21  1  0  0  0  0
 19  1  1  0  0  0  0
 20  3  1  0  0  0  0
 20 16  1  0  0  0  0
 21 11  1  0  0  0  0
 23 22  1  0  0  0  0
 23 18  1  0  0  0  0
 24 23  2  0  0  0  0
 25 27  1  0  0  0  0
 26 28  1  0  0  0  0
 27 26  2  0  0  0  0
 27 24  1  0  0  0  0
 28 22  2  0  0  0  0
 29 20  1  0  0  0  0
 30 29  1  0  0  0  0
 31 30  1  0  0  0  0
 32 31  1  0  0  0  0
 33 30  1  0  0  0  0
 34 35  1  0  0  0  0
 35 33  1  0  0  0  0
 36 37  1  0  0  0  0
 37 35  1  0  0  0  0
M  END
>  <MODEL>
4

>  <REMARK>
 VINA RESULT:      -7.9      1.705      5.851
  Name = 
  7 active torsions:
  status: ('A' for Active; 'I' for Inactive)
    1  A    between atoms: C_5  and  C_17
    2  A    between atoms: C_5  and  O_23
    3  A    between atoms: C_6  and  C_31
    4  A    between atoms: C_11  and  C_26
    5  A    between atoms: C_17  and  C_26
    6  A    between atoms: C_26  and  O_33
    7  A    between atoms: O_33  and  C_36
                            x       y       z     vdW  Elec       q    Type
                         _______ _______ _______ _____ _____    ______ ____

>  <TORSDO>
F 7

$$$$
=
 OpenBabel10262423013D

 37 42  0  0  1  0  0  0  0  0999 V2000
  190.3230  175.9060  136.9670 C   0  0  0  0  0  2  0  0  0  0  0  0
  190.4160  176.4720  141.1680 C   0  0  1  0  0  3  0  0  0  0  0  0
  188.2630  178.4780  142.9330 C   0  0  1  0  0  3  0  0  0  0  0  0
  190.9600  177.5150  138.8630 C   0  0  1  0  0  3  0  0  0  0  0  0
  189.0530  176.4380  141.9060 C   0  0  1  0  0  3  0  0  0  0  0  0
  189.9970  176.7200  139.7340 C   0  0  2  0  0  3  0  0  0  0  0  0
  188.8960  177.1460  143.2360 C   0  0  1  0  0  3  0  0  0  0  0  0
  192.3870  177.1340  139.2000 C   0  0  0  0  0  2  0  0  0  0  0  0
  188.6890  177.4450  139.8200 C   0  0  1  0  0  3  0  0  0  0  0  0
  187.8880  175.9310  137.9070 C   0  0  0  0  0  3  0  0  0  0  0  0
  192.0420  177.1410  142.9890 C   0  0  0  0  0  2  0  0  0  0  0  0
  192.7000  177.5160  140.6550 C   0  0  0  0  0  2  0  0  0  0  0  0
  187.8490  177.2970  138.5440 C   0  0  0  0  0  2  0  0  0  0  0  0
  189.2350  179.4330  142.6280 O   0  0  0  0  0  1  0  0  0  0  0  0
  191.4930  177.4840  141.6190 C   0  0  1  0  0  3  0  0  0  0  0  0
  188.0080  176.9830  141.0200 N   0  0  2  0  0  0  0  0  0  0  0  0
  190.6180  177.3540  137.3760 C   0  0  0  0  0  2  0  0  0  0  0  0
  189.9620  177.0020  144.3280 C   0  0  1  0  0  3  0  0  0  0  0  0
  188.9230  175.3760  137.2410 C   0  0  0  0  0  3  0  0  0  0  0  0
  187.4530  178.1750  141.6800 C   0  0  1  0  0  3  0  0  0  0  0  0
  191.2240  177.8040  144.0720 C   0  0  0  0  0  2  0  0  0  0  0  0
  190.1920  177.2000  146.8410 C   0  0  0  0  0  3  0  0  0  0  0  0
  189.3970  177.2840  145.6870 C   0  0  0  0  0  0  0  0  0  0  0  0
  188.0560  177.6630  145.7990 C   0  0  0  0  0  3  0  0  0  0  0  0
  186.0810  178.3480  147.1670 C   0  0  0  0  0  1  0  0  0  0  0  0
  188.3010  177.8590  148.2010 C   0  0  0  0  0  3  0  0  0  0  0  0
  187.5070  177.9480  147.0530 C   0  0  0  0  0  0  0  0  0  0  0  0
  189.6440  177.4850  148.0950 C   0  0  0  0  0  3  0  0  0  0  0  0
  186.1230  177.9290  142.0340 O   0  0  0  0  0  0  0  0  0  0  0  0
  185.4640  179.1560  141.8910 C   0  0  2  0  0  3  0  0  0  0  0  0
  185.0490  179.7040  143.2550 C   0  0  0  0  0  2  0  0  0  0  0  0
  184.2060  178.7120  144.0400 C   0  0  0  0  0  1  0  0  0  0  0  0
  184.2520  179.0020  140.9820 C   0  0  0  0  0  2  0  0  0  0  0  0
  184.2540  178.0880  138.6220 C   0  0  0  0  0  1  0  0  0  0  0  0
  184.6320  179.2580  139.5230 C   0  0  1  0  0  3  0  0  0  0  0  0
  182.8100  180.4070  138.7200 C   0  0  0  0  0  1  0  0  0  0  0  0
  184.1770  180.5040  139.0320 O   0  0  0  0  0  0  0  0  0  0  0  0
  1 19  1  0  0  0  0
  1 17  1  0  0  0  0
  2 15  1  0  0  0  0
  2  5  1  0  0  0  0
  3  7  1  0  0  0  0
  4  8  1  0  0  0  0
  4  6  1  0  0  0  0
  5  7  1  0  0  0  0
  6  9  1  0  0  0  0
  6  2  1  0  0  0  0
  7 18  1  0  0  0  0
  8 12  1  0  0  0  0
  9 16  1  0  0  0  0
 10 13  1  0  0  0  0
 11 21  1  0  0  0  0
 12 15  1  0  0  0  0
 13  9  1  0  0  0  0
 14  3  1  0  0  0  0
 15 11  1  0  0  0  0
 16 20  1  0  0  0  0
 16  5  1  0  0  0  0
 17  4  1  0  0  0  0
 18 23  1  0  0  0  0
 19 10  2  0  0  0  0
 20 29  1  0  0  0  0
 20  3  1  0  0  0  0
 21 18  1  0  0  0  0
 22 28  1  0  0  0  0
 23 24  1  0  0  0  0
 23 22  2  0  0  0  0
 24 27  2  0  0  0  0
 27 25  1  0  0  0  0
 27 26  1  0  0  0  0
 28 26  2  0  0  0  0
 30 29  1  0  0  0  0
 30 31  1  0  0  0  0
 31 32  1  0  0  0  0
 33 30  1  0  0  0  0
 34 35  1  0  0  0  0
 35 33  1  0  0  0  0
 36 37  1  0  0  0  0
 37 35  1  0  0  0  0
M  END
>  <MODEL>
5

>  <REMARK>
 VINA RESULT:      -7.6      1.531      6.423
  Name = 
  7 active torsions:
  status: ('A' for Active; 'I' for Inactive)
    1  A    between atoms: C_5  and  C_17
    2  A    between atoms: C_5  and  O_23
    3  A    between atoms: C_6  and  C_31
    4  A    between atoms: C_11  and  C_26
    5  A    between atoms: C_17  and  C_26
    6  A    between atoms: C_26  and  O_33
    7  A    between atoms: O_33  and  C_36
                            x       y       z     vdW  Elec       q    Type
                         _______ _______ _______ _____ _____    ______ ____

>  <TORSDO>
F 7

$$$$
=
 OpenBabel10262423013D

 37 42  0  0  1  0  0  0  0  0999 V2000
  188.7140  177.6750  136.5170 C   0  0  0  0  0  2  0  0  0  0  0  0
  184.7740  178.5820  137.7940 C   0  0  1  0  0  3  0  0  0  0  0  0
  183.6290  178.2750  141.0150 C   0  0  1  0  0  3  0  0  0  0  0  0
  186.4530  176.6940  137.2340 C   0  0  1  0  0  3  0  0  0  0  0  0
  184.6370  179.3800  139.1160 C   0  0  1  0  0  3  0  0  0  0  0  0
  186.1850  178.0390  137.8930 C   0  0  2  0  0  3  0  0  0  0  0  0
  183.3620  179.2830  139.9280 C   0  0  1  0  0  3  0  0  0  0  0  0
  185.6720  176.5930  135.9400 C   0  0  0  0  0  2  0  0  0  0  0  0
  186.4730  177.9420  139.3600 C   0  0  1  0  0  3  0  0  0  0  0  0
  188.7950  178.8980  138.8210 C   0  0  0  0  0  3  0  0  0  0  0  0
  182.3780  178.0080  137.2150 C   0  0  0  0  0  2  0  0  0  0  0  0
  184.1650  176.6410  136.2350 C   0  0  0  0  0  2  0  0  0  0  0  0
  187.9770  177.9550  139.6660 C   0  0  0  0  0  2  0  0  0  0  0  0
  183.3520  176.9800  140.5710 O   0  0  0  0  0  1  0  0  0  0  0  0
  183.7620  177.4550  137.4850 C   0  0  1  0  0  3  0  0  0  0  0  0
  185.7370  179.0060  140.0240 N   0  0  2  0  0  0  0  0  0  0  0  0
  187.9590  176.4560  137.0600 C   0  0  0  0  0  2  0  0  0  0  0  0
  181.9920  179.3740  139.2470 C   0  0  1  0  0  3  0  0  0  0  0  0
  189.1040  178.7550  137.5140 C   0  0  0  0  0  3  0  0  0  0  0  0
  185.1300  178.4170  141.2280 C   0  0  1  0  0  3  0  0  0  0  0  0
  181.5890  178.1170  138.4980 C   0  0  0  0  0  2  0  0  0  0  0  0
  180.0360  180.8440  139.8900 C   0  0  0  0  0  3  0  0  0  0  0  0
  180.9280  179.8080  140.2070 C   0  0  0  0  0  0  0  0  0  0  0  0
  180.8100  179.1470  141.4340 C   0  0  0  0  0  3  0  0  0  0  0  0
  179.6970  178.8170  143.6450 C   0  0  0  0  0  1  0  0  0  0  0  0
  178.9310  180.5560  142.0250 C   0  0  0  0  0  3  0  0  0  0  0  0
  179.8160  179.5210  142.3430 C   0  0  0  0  0  0  0  0  0  0  0  0
  179.0410  181.2180  140.7980 C   0  0  0  0  0  3  0  0  0  0  0  0
  185.3670  179.2550  142.3220 O   0  0  0  0  0  0  0  0  0  0  0  0
  185.7310  178.4040  143.3730 C   0  0  2  0  0  3  0  0  0  0  0  0
  185.2010  178.9370  144.7030 C   0  0  0  0  0  2  0  0  0  0  0  0
  183.6820  178.9960  144.7330 C   0  0  0  0  0  1  0  0  0  0  0  0
  187.2440  178.2430  143.4220 C   0  0  0  0  0  2  0  0  0  0  0  0
  188.4680  176.0380  143.2190 C   0  0  0  0  0  1  0  0  0  0  0  0
  187.6290  176.9370  144.1180 C   0  0  1  0  0  3  0  0  0  0  0  0
  189.6000  177.1230  145.2860 C   0  0  0  0  0  1  0  0  0  0  0  0
  188.1990  177.1270  145.3980 O   0  0  0  0  0  0  0  0  0  0  0  0
  1 17  1  0  0  0  0
  1 19  1  0  0  0  0
  2  6  1  0  0  0  0
  2  5  1  0  0  0  0
  3 20  1  0  0  0  0
  4  6  1  0  0  0  0
  5  7  1  0  0  0  0
  5 16  1  0  0  0  0
  6  9  1  0  0  0  0
  7  3  1  0  0  0  0
  8 12  1  0  0  0  0
  8  4  1  0  0  0  0
  9 13  1  0  0  0  0
  9 16  1  0  0  0  0
 10 13  1  0  0  0  0
 11 15  1  0  0  0  0
 11 21  1  0  0  0  0
 12 15  1  0  0  0  0
 14  3  1  0  0  0  0
 15  2  1  0  0  0  0
 16 20  1  0  0  0  0
 17  4  1  0  0  0  0
 18  7  1  0  0  0  0
 18 23  1  0  0  0  0
 19 10  2  0  0  0  0
 20 29  1  0  0  0  0
 21 18  1  0  0  0  0
 22 23  2  0  0  0  0
 22 28  1  0  0  0  0
 23 24  1  0  0  0  0
 24 27  2  0  0  0  0
 26 27  1  0  0  0  0
 27 25  1  0  0  0  0
 28 26  2  0  0  0  0
 29 30  1  0  0  0  0
 30 33  1  0  0  0  0
 30 31  1  0  0  0  0
 31 32  1  0  0  0  0
 33 35  1  0  0  0  0
 34 35  1  0  0  0  0
 35 37  1  0  0  0  0
 36 37  1  0  0  0  0
M  END
>  <MODEL>
6

>  <REMARK>
 VINA RESULT:      -7.4      2.586      8.824
  Name = 
  7 active torsions:
  status: ('A' for Active; 'I' for Inactive)
    1  A    between atoms: C_5  and  C_17
    2  A    between atoms: C_5  and  O_23
    3  A    between atoms: C_6  and  C_31
    4  A    between atoms: C_11  and  C_26
    5  A    between atoms: C_17  and  C_26
    6  A    between atoms: C_26  and  O_33
    7  A    between atoms: O_33  and  C_36
                            x       y       z     vdW  Elec       q    Type
                         _______ _______ _______ _____ _____    ______ ____

>  <TORSDO>
F 7

$$$$
=
 OpenBabel10262423013D

 37 42  0  0  1  0  0  0  0  0999 V2000
  187.9650  178.6100  148.7700 C   0  0  0  0  0  2  0  0  0  0  0  0
  189.8000  177.9480  145.0060 C   0  0  1  0  0  3  0  0  0  0  0  0
  188.1840  176.8100  142.2000 C   0  0  1  0  0  3  0  0  0  0  0  0
  188.8350  176.8350  147.1340 C   0  0  1  0  0  3  0  0  0  0  0  0
  189.0320  178.4530  143.7580 C   0  0  1  0  0  3  0  0  0  0  0  0
  188.7090  177.9020  146.0560 C   0  0  2  0  0  3  0  0  0  0  0  0
  189.2850  177.8180  142.4070 C   0  0  1  0  0  3  0  0  0  0  0  0
  190.2910  176.6670  147.5190 C   0  0  0  0  0  2  0  0  0  0  0  0
  187.4340  177.6950  145.2970 C   0  0  1  0  0  3  0  0  0  0  0  0
  186.3880  179.4420  146.8630 C   0  0  0  0  0  3  0  0  0  0  0  0
  191.7600  176.6930  144.0090 C   0  0  0  0  0  2  0  0  0  0  0  0
  191.0960  176.1630  146.3120 C   0  0  0  0  0  2  0  0  0  0  0  0
  186.2010  178.1670  146.0800 C   0  0  0  0  0  2  0  0  0  0  0  0
  188.5270  175.5770  142.7570 O   0  0  0  0  0  1  0  0  0  0  0  0
  190.5610  176.6040  144.9310 C   0  0  1  0  0  3  0  0  0  0  0  0
  187.5820  178.3430  144.0030 N   0  0  2  0  0  0  0  0  0  0  0  0
  187.9190  177.1440  148.3250 C   0  0  0  0  0  2  0  0  0  0  0  0
  190.7150  177.5410  141.9280 C   0  0  1  0  0  3  0  0  0  0  0  0
  187.1150  179.6020  147.9900 C   0  0  0  0  0  3  0  0  0  0  0  0
  187.0370  177.4160  142.9990 C   0  0  1  0  0  3  0  0  0  0  0  0
  191.3700  176.3440  142.5930 C   0  0  0  0  0  2  0  0  0  0  0  0
  191.8560  176.8050  139.7930 C   0  0  0  0  0  3  0  0  0  0  0  0
  190.7860  177.4490  140.4350 C   0  0  0  0  0  0  0  0  0  0  0  0
  189.7510  177.9950  139.6700 C   0  0  0  0  0  3  0  0  0  0  0  0
  188.6820  178.4930  137.4690 C   0  0  0  0  0  1  0  0  0  0  0  0
  190.8540  177.2700  137.6390 C   0  0  0  0  0  3  0  0  0  0  0  0
  189.7840  177.9090  138.2750 C   0  0  0  0  0  0  0  0  0  0  0  0
  191.8900  176.7180  138.3980 C   0  0  0  0  0  3  0  0  0  0  0  0
  186.1890  178.1160  142.1360 O   0  0  0  0  0  0  0  0  0  0  0  0
  184.8930  177.8820  142.6140 C   0  0  2  0  0  3  0  0  0  0  0  0
  183.9540  177.5270  141.4630 C   0  0  0  0  0  2  0  0  0  0  0  0
  183.7580  178.6890  140.5020 C   0  0  0  0  0  1  0  0  0  0  0  0
  184.3810  179.1010  143.3700 C   0  0  0  0  0  2  0  0  0  0  0  0
  183.0780  179.0110  145.5370 C   0  0  0  0  0  1  0  0  0  0  0  0
  183.0330  178.8040  144.0280 C   0  0  1  0  0  3  0  0  0  0  0  0
  180.7700  178.7290  143.6290 C   0  0  0  0  0  1  0  0  0  0  0  0
  181.9470  179.4670  143.4110 O   0  0  0  0  0  0  0  0  0  0  0  0
  2  6  1  0  0  0  0
  3  7  1  0  0  0  0
  3 14  1  0  0  0  0
  3 20  1  0  0  0  0
  4  8  1  0  0  0  0
  4 17  1  0  0  0  0
  5 16  1  0  0  0  0
  5  2  1  0  0  0  0
  6  4  1  0  0  0  0
  7  5  1  0  0  0  0
  9  6  1  0  0  0  0
  9 13  1  0  0  0  0
 10 19  2  0  0  0  0
 11 15  1  0  0  0  0
 12  8  1  0  0  0  0
 13 10  1  0  0  0  0
 15  2  1  0  0  0  0
 15 12  1  0  0  0  0
 16  9  1  0  0  0  0
 17  1  1  0  0  0  0
 18  7  1  0  0  0  0
 18 21  1  0  0  0  0
 19  1  1  0  0  0  0
 20 16  1  0  0  0  0
 21 11  1  0  0  0  0
 22 23  1  0  0  0  0
 23 18  1  0  0  0  0
 24 23  2  0  0  0  0
 25 27  1  0  0  0  0
 26 27  2  0  0  0  0
 26 28  1  0  0  0  0
 27 24  1  0  0  0  0
 28 22  2  0  0  0  0
 29 30  1  0  0  0  0
 29 20  1  0  0  0  0
 30 33  1  0  0  0  0
 31 30  1  0  0  0  0
 32 31  1  0  0  0  0
 33 35  1  0  0  0  0
 35 34  1  0  0  0  0
 37 36  1  0  0  0  0
 37 35  1  0  0  0  0
M  END
>  <MODEL>
7

>  <REMARK>
 VINA RESULT:      -7.2      1.202      2.355
  Name = 
  7 active torsions:
  status: ('A' for Active; 'I' for Inactive)
    1  A    between atoms: C_5  and  C_17
    2  A    between atoms: C_5  and  O_23
    3  A    between atoms: C_6  and  C_31
    4  A    between atoms: C_11  and  C_26
    5  A    between atoms: C_17  and  C_26
    6  A    between atoms: C_26  and  O_33
    7  A    between atoms: O_33  and  C_36
                            x       y       z     vdW  Elec       q    Type
                         _______ _______ _______ _____ _____    ______ ____

>  <TORSDO>
F 7

$$$$
=
 OpenBabel10262423013D

 37 42  0  0  1  0  0  0  0  0999 V2000
  179.0640  178.9460  143.2880 C   0  0  0  0  0  2  0  0  0  0  0  0
  181.7750  178.0460  140.1540 C   0  0  1  0  0  3  0  0  0  0  0  0
  185.0710  178.9980  140.0680 C   0  0  1  0  0  3  0  0  0  0  0  0
  180.3190  179.8820  141.2540 C   0  0  1  0  0  3  0  0  0  0  0  0
  183.1890  177.5680  140.5730 C   0  0  1  0  0  3  0  0  0  0  0  0
  181.2730  178.7090  141.4210 C   0  0  2  0  0  3  0  0  0  0  0  0
  184.3570  177.7470  139.6260 C   0  0  1  0  0  3  0  0  0  0  0  0
  179.3820  179.6160  140.0940 C   0  0  0  0  0  2  0  0  0  0  0  0
  182.5030  179.1660  142.1450 C   0  0  1  0  0  3  0  0  0  0  0  0
  181.3860  178.3010  144.2910 C   0  0  0  0  0  3  0  0  0  0  0  0
  181.9620  178.2750  137.6400 C   0  0  0  0  0  2  0  0  0  0  0  0
  180.1830  179.5180  138.7870 C   0  0  0  0  0  2  0  0  0  0  0  0
  182.2660  179.3450  143.6510 C   0  0  0  0  0  2  0  0  0  0  0  0
  184.5120  180.1280  139.4670 O   0  0  0  0  0  1  0  0  0  0  0  0
  181.6260  178.9860  138.9360 C   0  0  1  0  0  3  0  0  0  0  0  0
  183.5710  178.2290  141.8340 N   0  0  2  0  0  0  0  0  0  0  0  0
  179.5930  180.1930  142.5690 C   0  0  0  0  0  2  0  0  0  0  0  0
  184.2230  177.3910  138.1420 C   0  0  1  0  0  3  0  0  0  0  0  0
  180.0510  178.1610  144.1390 C   0  0  0  0  0  3  0  0  0  0  0  0
  184.7740  179.0300  141.5620 C   0  0  1  0  0  3  0  0  0  0  0  0
  183.4350  178.4040  137.3310 C   0  0  0  0  0  2  0  0  0  0  0  0
  185.8470  175.8570  136.9530 C   0  0  0  0  0  3  0  0  0  0  0  0
  185.5570  177.1070  137.5220 C   0  0  0  0  0  0  0  0  0  0  0  0
  186.5200  178.1210  137.4890 C   0  0  0  0  0  3  0  0  0  0  0  0
  188.7870  178.9680  136.8720 C   0  0  0  0  0  1  0  0  0  0  0  0
  188.0540  176.6400  136.3400 C   0  0  0  0  0  3  0  0  0  0  0  0
  187.7670  177.8890  136.9020 C   0  0  0  0  0  0  0  0  0  0  0  0
  187.0940  175.6240  136.3660 C   0  0  0  0  0  3  0  0  0  0  0  0
  185.8570  178.4900  142.2620 O   0  0  0  0  0  0  0  0  0  0  0  0
  185.3780  178.2370  143.5540 C   0  0  2  0  0  3  0  0  0  0  0  0
  185.4220  179.5080  144.4000 C   0  0  0  0  0  2  0  0  0  0  0  0
  185.3090  179.2110  145.8870 C   0  0  0  0  0  1  0  0  0  0  0  0
  186.1880  177.1260  144.2090 C   0  0  0  0  0  2  0  0  0  0  0  0
  188.5640  177.5550  144.9660 C   0  0  0  0  0  1  0  0  0  0  0  0
  187.6570  177.2070  143.7920 C   0  0  1  0  0  3  0  0  0  0  0  0
  189.5040  176.0290  143.0970 C   0  0  0  0  0  1  0  0  0  0  0  0
  188.1000  176.0770  143.0660 O   0  0  0  0  0  0  0  0  0  0  0  0
  1 19  1  0  0  0  0
  2  5  1  0  0  0  0
  2  6  1  0  0  0  0
  3 20  1  0  0  0  0
  4  6  1  0  0  0  0
  4 17  1  0  0  0  0
  5 16  1  0  0  0  0
  6  9  1  0  0  0  0
  7  3  1  0  0  0  0
  7  5  1  0  0  0  0
  8  4  1  0  0  0  0
  9 13  1  0  0  0  0
 11 15  1  0  0  0  0
 12 15  1  0  0  0  0
 12  8  1  0  0  0  0
 13 10  1  0  0  0  0
 14  3  1  0  0  0  0
 15  2  1  0  0  0  0
 16  9  1  0  0  0  0
 17  1  1  0  0  0  0
 18  7  1  0  0  0  0
 19 10  2  0  0  0  0
 20 16  1  0  0  0  0
 20 29  1  0  0  0  0
 21 11  1  0  0  0  0
 21 18  1  0  0  0  0
 22 23  1  0  0  0  0
 23 18  1  0  0  0  0
 24 23  2  0  0  0  0
 25 27  1  0  0  0  0
 26 28  1  0  0  0  0
 26 27  2  0  0  0  0
 27 24  1  0  0  0  0
 28 22  2  0  0  0  0
 29 30  1  0  0  0  0
 30 33  1  0  0  0  0
 30 31  1  0  0  0  0
 31 32  1  0  0  0  0
 35 33  1  0  0  0  0
 35 34  1  0  0  0  0
 37 36  1  0  0  0  0
 37 35  1  0  0  0  0
M  END
>  <MODEL>
8

>  <REMARK>
 VINA RESULT:      -7.2      2.571      7.304
  Name = 
  7 active torsions:
  status: ('A' for Active; 'I' for Inactive)
    1  A    between atoms: C_5  and  C_17
    2  A    between atoms: C_5  and  O_23
    3  A    between atoms: C_6  and  C_31
    4  A    between atoms: C_11  and  C_26
    5  A    between atoms: C_17  and  C_26
    6  A    between atoms: C_26  and  O_33
    7  A    between atoms: O_33  and  C_36
                            x       y       z     vdW  Elec       q    Type
                         _______ _______ _______ _____ _____    ______ ____

>  <TORSDO>
F 7

$$$$
=
 OpenBabel10262423013D

 37 42  0  0  1  0  0  0  0  0999 V2000
  185.8420  177.8930  145.4440 C   0  0  0  0  0  2  0  0  0  0  0  0
  183.5480  177.8780  141.8790 C   0  0  1  0  0  3  0  0  0  0  0  0
  184.6010  179.1140  138.8550 C   0  0  1  0  0  3  0  0  0  0  0  0
  184.4550  179.3220  143.8250 C   0  0  1  0  0  3  0  0  0  0  0  0
  184.2810  177.4520  140.5810 C   0  0  1  0  0  3  0  0  0  0  0  0
  184.7010  178.2280  142.7970 C   0  0  2  0  0  3  0  0  0  0  0  0
  183.7670  177.9180  139.2350 C   0  0  1  0  0  3  0  0  0  0  0  0
  183.0420  179.2130  144.3610 C   0  0  0  0  0  2  0  0  0  0  0  0
  185.8220  178.6370  141.8920 C   0  0  1  0  0  3  0  0  0  0  0  0
  187.3660  177.2670  143.4200 C   0  0  0  0  0  3  0  0  0  0  0  0
  181.2770  178.6200  141.0430 C   0  0  0  0  0  2  0  0  0  0  0  0
  182.0340  179.4470  143.2260 C   0  0  0  0  0  2  0  0  0  0  0  0
  187.1980  178.4910  142.5560 C   0  0  0  0  0  2  0  0  0  0  0  0
  184.0580  180.2870  139.3820 O   0  0  0  0  0  1  0  0  0  0  0  0
  182.5140  179.0250  141.8190 C   0  0  1  0  0  3  0  0  0  0  0  0
  185.6910  177.8790  140.6580 N   0  0  2  0  0  0  0  0  0  0  0  0
  185.5290  179.3000  144.9210 C   0  0  0  0  0  2  0  0  0  0  0  0
  182.2710  177.8560  138.9050 C   0  0  1  0  0  3  0  0  0  0  0  0
  186.8040  177.0440  144.6280 C   0  0  0  0  0  3  0  0  0  0  0  0
  185.9230  178.8210  139.5520 C   0  0  1  0  0  3  0  0  0  0  0  0
  181.4430  178.9360  139.5750 C   0  0  0  0  0  2  0  0  0  0  0  0
  182.3900  176.7000  136.6570 C   0  0  0  0  0  3  0  0  0  0  0  0
  182.0360  177.8200  137.4260 C   0  0  0  0  0  0  0  0  0  0  0  0
  181.4280  178.9170  136.8080 C   0  0  0  0  0  3  0  0  0  0  0  0
  180.5380  180.0730  134.7810 C   0  0  0  0  0  1  0  0  0  0  0  0
  181.5400  177.7870  134.6680 C   0  0  0  0  0  3  0  0  0  0  0  0
  181.1820  178.9040  135.4320 C   0  0  0  0  0  0  0  0  0  0  0  0
  182.1430  176.6850  135.2810 C   0  0  0  0  0  3  0  0  0  0  0  0
  186.8130  178.2490  138.6380 O   0  0  0  0  0  0  0  0  0  0  0  0
  188.0770  178.3460  139.2350 C   0  0  2  0  0  3  0  0  0  0  0  0
  189.0570  179.0570  138.3040 C   0  0  0  0  0  2  0  0  0  0  0  0
  188.6640  178.9170  136.8420 C   0  0  0  0  0  1  0  0  0  0  0  0
  188.5930  176.9620  139.6050 C   0  0  0  0  0  2  0  0  0  0  0  0
  190.5510  177.1290  141.2000 C   0  0  0  0  0  1  0  0  0  0  0  0
  190.1150  176.9720  139.7480 C   0  0  1  0  0  3  0  0  0  0  0  0
  191.7460  176.3860  138.2370 C   0  0  0  0  0  1  0  0  0  0  0  0
  190.7500  175.8900  139.0940 O   0  0  0  0  0  0  0  0  0  0  0  0
  2  6  1  0  0  0  0
  3  7  1  0  0  0  0
  3 14  1  0  0  0  0
  3 20  1  0  0  0  0
  4  8  1  0  0  0  0
  4 17  1  0  0  0  0
  5 16  1  0  0  0  0
  5  2  1  0  0  0  0
  6  4  1  0  0  0  0
  7  5  1  0  0  0  0
  9 13  1  0  0  0  0
  9  6  1  0  0  0  0
 10 19  2  0  0  0  0
 11 15  1  0  0  0  0
 12  8  1  0  0  0  0
 13 10  1  0  0  0  0
 15  2  1  0  0  0  0
 15 12  1  0  0  0  0
 16  9  1  0  0  0  0
 17  1  1  0  0  0  0
 18  7  1  0  0  0  0
 18 21  1  0  0  0  0
 19  1  1  0  0  0  0
 20 16  1  0  0  0  0
 21 11  1  0  0  0  0
 22 23  1  0  0  0  0
 23 18  1  0  0  0  0
 24 23  2  0  0  0  0
 25 27  1  0  0  0  0
 26 28  1  0  0  0  0
 26 27  2  0  0  0  0
 27 24  1  0  0  0  0
 28 22  2  0  0  0  0
 29 30  1  0  0  0  0
 29 20  1  0  0  0  0
 30 33  1  0  0  0  0
 31 30  1  0  0  0  0
 32 31  1  0  0  0  0
 33 35  1  0  0  0  0
 35 34  1  0  0  0  0
 36 37  1  0  0  0  0
 37 35  1  0  0  0  0
M  END
>  <MODEL>
9

>  <REMARK>
 VINA RESULT:      -6.9      2.664      7.392
  Name = 
  7 active torsions:
  status: ('A' for Active; 'I' for Inactive)
    1  A    between atoms: C_5  and  C_17
    2  A    between atoms: C_5  and  O_23
    3  A    between atoms: C_6  and  C_31
    4  A    between atoms: C_11  and  C_26
    5  A    between atoms: C_17  and  C_26
    6  A    between atoms: C_26  and  O_33
    7  A    between atoms: O_33  and  C_36
                            x       y       z     vdW  Elec       q    Type
                         _______ _______ _______ _____ _____    ______ ____

>  <TORSDO>
F 7

$$$$
