=
 OpenBabel10262419383D

 31 33  0  0  1  0  0  0  0  0999 V2000
  186.8620  177.7700  145.3100 C   0  0  0  0  0  0  0  0  0  0  0  0
  188.1330  178.3090  141.7670 C   0  0  2  0  0  3  0  0  0  0  0  0
  189.3960  177.5070  141.6370 C   0  0  1  0  0  3  0  0  0  0  0  0
  187.2370  178.1040  142.9420 C   0  0  0  0  0  0  0  0  0  0  0  0
  185.4940  178.0030  145.1270 C   0  0  0  0  0  3  0  0  0  0  0  0
  186.3270  178.8550  140.3280 N   0  0  0  0  0  0  0  0  0  0  0  0
  187.4810  177.4130  146.9060 Cl  0  0  0  0  0  0  0  0  0  0  0  0
  188.5580  177.8970  139.5590 C   0  0  2  0  0  3  0  0  0  0  0  0
  185.2990  178.6310  141.3690 C   0  0  0  0  0  2  0  0  0  0  0  0
  187.4110  177.8900  140.5470 C   0  0  1  0  0  3  0  0  0  0  0  0
  187.7360  177.8320  144.2210 C   0  0  0  0  0  3  0  0  0  0  0  0
  185.8630  178.3730  142.7600 C   0  0  0  0  0  0  0  0  0  0  0  0
  184.9950  178.3010  143.8550 C   0  0  0  0  0  3  0  0  0  0  0  0
  188.2850  176.9230  138.4280 C   0  0  0  0  0  1  0  0  0  0  0  0
  189.7190  177.4850  140.2580 O   0  0  0  0  0  0  0  0  0  0  0  0
  190.4670  178.1490  142.3830 N   0  0  0  0  0  2  0  0  0  0  0  0
  191.5590  177.1950  142.4870 C   0  0  0  0  0  2  0  0  0  0  0  0
  191.5820  176.5930  143.8490 C   0  0  0  0  0  0  0  0  0  0  0  0
  191.9660  175.2680  144.0170 O   0  0  0  0  0  0  0  0  0  0  0  0
  191.2870  177.2920  144.8530 O   0  0  0  0  0  1  0  0  0  0  0  0
  185.6830  178.5630  139.0530 C   0  0  0  0  0  2  0  0  0  0  0  0
  183.1870  176.9960  138.8950 C   0  0  0  0  0  1  0  0  0  0  0  0
  184.2890  180.4820  139.0460 O   0  0  0  0  0  0  0  0  0  0  0  0
  184.3440  179.2240  138.9960 C   0  0  0  0  0  0  0  0  0  0  0  0
  183.1390  178.4480  138.8350 N   0  0  0  0  0  0  0  0  0  0  0  0
  181.4990  179.0050  137.0960 C   0  0  0  0  0  1  0  0  0  0  0  0
  181.8360  179.0610  138.5760 C   0  0  1  0  0  3  0  0  0  0  0  0
  180.7300  178.4050  139.3960 C   0  0  0  0  0  2  0  0  0  0  0  0
  180.3160  179.2820  140.5670 C   0  0  1  0  0  3  0  0  0  0  0  0
  181.2050  178.9810  141.7540 C   0  0  0  0  0  1  0  0  0  0  0  0
  180.4490  180.6290  140.2260 O   0  0  0  0  0  1  0  0  0  0  0  0
  1  7  1  0  0  0  0
  2  4  1  1  0  0  0
  3  2  1  0  0  0  0
  3 16  1  1  0  0  0
  4 11  1  0  0  0  0
  5  1  1  0  0  0  0
  6  9  1  0  0  0  0
  8 14  1  6  0  0  0
  8 15  1  0  0  0  0
  8 10  1  0  0  0  0
  9 12  1  0  0  0  0
 10  6  1  6  0  0  0
 10  2  1  0  0  0  0
 11  1  2  0  0  0  0
 12  4  2  0  0  0  0
 12 13  1  0  0  0  0
 13  5  2  0  0  0  0
 15  3  1  0  0  0  0
 16 17  1  0  0  0  0
 17 18  1  0  0  0  0
 18 19  2  0  0  0  0
 18 20  1  0  0  0  0
 21  6  1  0  0  0  0
 24 23  2  0  0  0  0
 24 21  1  0  0  0  0
 25 22  1  0  0  0  0
 25 24  1  0  0  0  0
 27 26  1  6  0  0  0
 27 25  1  0  0  0  0
 27 28  1  0  0  0  0
 28 29  1  0  0  0  0
 29 30  1  1  0  0  0
 31 29  1  0  0  0  0
M  END
>  <MODEL>
1

>  <REMARK>
 VINA RESULT:      -7.5      0.000      0.000
  Name = 
  8 active torsions:
  status: ('A' for Active; 'I' for Inactive)
    1  A    between atoms: C_1  and  C_24
    2  A    between atoms: C_5  and  N_14
    3  A    between atoms: C_9  and  C_23
    4  A    between atoms: C_10  and  N_14
    5  A    between atoms: C_10  and  C_18
    6  A    between atoms: N_15  and  C_23
    7  A    between atoms: C_19  and  N_22
    8  A    between atoms: C_19  and  C_24
                            x       y       z     vdW  Elec       q    Type
                         _______ _______ _______ _____ _____    ______ ____

>  <TORSDO>
F 8

$$$$
=
 OpenBabel10262419383D

 31 33  0  0  1  0  0  0  0  0999 V2000
  183.8370  178.5930  143.3560 C   0  0  0  0  0  0  0  0  0  0  0  0
  187.6090  178.1100  143.4100 C   0  0  2  0  0  3  0  0  0  0  0  0
  187.9200  177.3010  144.6360 C   0  0  1  0  0  3  0  0  0  0  0  0
  186.1970  178.2460  142.9450 C   0  0  0  0  0  0  0  0  0  0  0  0
  183.6230  178.7680  141.9840 C   0  0  0  0  0  3  0  0  0  0  0  0
  188.4760  178.2320  141.2040 N   0  0  0  0  0  0  0  0  0  0  0  0
  182.4930  178.6990  144.4700 Cl  0  0  0  0  0  0  0  0  0  0  0  0
  189.6400  177.0910  143.1620 C   0  0  2  0  0  3  0  0  0  0  0  0
  187.1390  178.3130  140.5750 C   0  0  0  0  0  2  0  0  0  0  0  0
  188.3700  177.3660  142.3840 C   0  0  1  0  0  3  0  0  0  0  0  0
  185.1250  178.3450  143.8390 C   0  0  0  0  0  3  0  0  0  0  0  0
  185.9900  178.4560  141.5640 C   0  0  0  0  0  0  0  0  0  0  0  0
  184.6960  178.6980  141.0900 C   0  0  0  0  0  3  0  0  0  0  0  0
  190.3180  175.8400  142.6380 C   0  0  0  0  0  1  0  0  0  0  0  0
  189.2700  176.8910  144.5140 O   0  0  0  0  0  0  0  0  0  0  0  0
  187.7620  178.1250  145.8240 N   0  0  0  0  0  2  0  0  0  0  0  0
  187.6750  177.2300  146.9660 C   0  0  0  0  0  2  0  0  0  0  0  0
  188.6940  177.6040  147.9860 C   0  0  0  0  0  0  0  0  0  0  0  0
  188.2930  178.1470  149.2000 O   0  0  0  0  0  1  0  0  0  0  0  0
  189.9150  177.3980  147.7640 O   0  0  0  0  0  0  0  0  0  0  0  0
  189.3480  177.5950  140.2250 C   0  0  0  0  0  2  0  0  0  0  0  0
  188.9250  175.8400  137.8900 C   0  0  0  0  0  1  0  0  0  0  0  0
  189.0000  179.4010  138.7270 O   0  0  0  0  0  0  0  0  0  0  0  0
  189.0770  178.1500  138.8640 C   0  0  0  0  0  0  0  0  0  0  0  0
  188.9550  177.2830  137.7190 N   0  0  0  0  0  0  0  0  0  0  0  0
  189.2640  176.7090  135.3510 C   0  0  0  0  0  1  0  0  0  0  0  0
  188.8900  177.7930  136.3480 C   0  0  1  0  0  3  0  0  0  0  0  0
  187.5110  178.3590  136.0220 C   0  0  0  0  0  2  0  0  0  0  0  0
  186.4310  177.2990  136.1650 C   0  0  1  0  0  3  0  0  0  0  0  0
  185.4870  177.6970  137.2800 C   0  0  0  0  0  1  0  0  0  0  0  0
  185.7110  177.1860  134.9750 O   0  0  0  0  0  1  0  0  0  0  0  0
  1 11  1  0  0  0  0
  1  7  1  0  0  0  0
  2  4  1  6  0  0  0
  2  3  1  0  0  0  0
  3 16  1  1  0  0  0
  4 11  2  0  0  0  0
  5  1  2  0  0  0  0
  8 14  1  6  0  0  0
  8 15  1  0  0  0  0
  9  6  1  0  0  0  0
  9 12  1  0  0  0  0
 10  6  1  6  0  0  0
 10  8  1  0  0  0  0
 10  2  1  0  0  0  0
 12  4  1  0  0  0  0
 13 12  2  0  0  0  0
 13  5  1  0  0  0  0
 15  3  1  0  0  0  0
 16 17  1  0  0  0  0
 17 18  1  0  0  0  0
 18 19  1  0  0  0  0
 20 18  2  0  0  0  0
 21  6  1  0  0  0  0
 23 24  2  0  0  0  0
 24 21  1  0  0  0  0
 25 22  1  0  0  0  0
 25 24  1  0  0  0  0
 27 26  1  6  0  0  0
 27 25  1  0  0  0  0
 28 29  1  0  0  0  0
 28 27  1  0  0  0  0
 29 30  1  1  0  0  0
 31 29  1  0  0  0  0
M  END
>  <MODEL>
2

>  <REMARK>
 VINA RESULT:      -7.4      3.065      5.040
  Name = 
  8 active torsions:
  status: ('A' for Active; 'I' for Inactive)
    1  A    between atoms: C_1  and  C_24
    2  A    between atoms: C_5  and  N_14
    3  A    between atoms: C_9  and  C_23
    4  A    between atoms: C_10  and  N_14
    5  A    between atoms: C_10  and  C_18
    6  A    between atoms: N_15  and  C_23
    7  A    between atoms: C_19  and  N_22
    8  A    between atoms: C_19  and  C_24
                            x       y       z     vdW  Elec       q    Type
                         _______ _______ _______ _____ _____    ______ ____

>  <TORSDO>
F 8

$$$$
=
 OpenBabel10262419383D

 31 33  0  0  1  0  0  0  0  0999 V2000
  190.7980  177.1080  145.9100 C   0  0  0  0  0  0  0  0  0  0  0  0
  187.8050  177.2960  143.5720 C   0  0  2  0  0  3  0  0  0  0  0  0
  186.6830  177.9100  144.3590 C   0  0  1  0  0  3  0  0  0  0  0  0
  189.1970  177.3290  144.1080 C   0  0  0  0  0  0  0  0  0  0  0  0
  191.8460  177.1330  144.9840 C   0  0  0  0  0  3  0  0  0  0  0  0
  188.5390  177.4030  141.3180 N   0  0  0  0  0  0  0  0  0  0  0  0
  191.1450  176.9570  147.6180 Cl  0  0  0  0  0  0  0  0  0  0  0  0
  186.2600  178.1830  142.1410 C   0  0  2  0  0  3  0  0  0  0  0  0
  189.9700  177.5060  141.6830 C   0  0  0  0  0  2  0  0  0  0  0  0
  187.7590  178.1100  142.3390 C   0  0  1  0  0  3  0  0  0  0  0  0
  189.4730  177.1940  145.4730 C   0  0  0  0  0  3  0  0  0  0  0  0
  190.2510  177.3200  143.1680 C   0  0  0  0  0  0  0  0  0  0  0  0
  191.5740  177.2410  143.6160 C   0  0  0  0  0  3  0  0  0  0  0  0
  185.8900  179.4390  141.3750 C   0  0  0  0  0  1  0  0  0  0  0  0
  185.6660  178.2300  143.4260 O   0  0  0  0  0  0  0  0  0  0  0  0
  186.1780  176.9500  145.3270 N   0  0  0  0  0  2  0  0  0  0  0  0
  186.3180  177.5470  146.6460 C   0  0  0  0  0  2  0  0  0  0  0  0
  185.3990  178.7110  146.7790 C   0  0  0  0  0  0  0  0  0  0  0  0
  184.0800  178.6060  146.3590 O   0  0  0  0  0  0  0  0  0  0  0  0
  185.8070  179.7800  147.3030 O   0  0  0  0  0  1  0  0  0  0  0  0
  188.3940  178.0970  140.0440 C   0  0  0  0  0  2  0  0  0  0  0  0
  186.3460  177.9010  137.9280 C   0  0  0  0  0  1  0  0  0  0  0  0
  189.5480  176.3950  138.8610 O   0  0  0  0  0  0  0  0  0  0  0  0
  188.5220  177.1240  138.9160 C   0  0  0  0  0  0  0  0  0  0  0  0
  187.4740  176.9820  137.9360 N   0  0  0  0  0  0  0  0  0  0  0  0
  186.3490  174.9220  137.2160 C   0  0  0  0  0  1  0  0  0  0  0  0
  187.4680  175.9110  136.9390 C   0  0  1  0  0  3  0  0  0  0  0  0
  187.3490  176.4610  135.5210 C   0  0  0  0  0  2  0  0  0  0  0  0
  188.5930  176.1510  134.7020 C   0  0  1  0  0  3  0  0  0  0  0  0
  189.6730  177.1560  135.0400 C   0  0  0  0  0  1  0  0  0  0  0  0
  189.0530  174.8670  134.9980 O   0  0  0  0  0  1  0  0  0  0  0  0
  1  7  1  0  0  0  0
  2  4  1  1  0  0  0
  2  3  1  0  0  0  0
  3 16  1  1  0  0  0
  4 11  2  0  0  0  0
  5  1  2  0  0  0  0
  6  9  1  0  0  0  0
  8 14  1  6  0  0  0
  8 10  1  0  0  0  0
  8 15  1  0  0  0  0
  9 12  1  0  0  0  0
 10  6  1  6  0  0  0
 10  2  1  0  0  0  0
 11  1  1  0  0  0  0
 12 13  2  0  0  0  0
 12  4  1  0  0  0  0
 13  5  1  0  0  0  0
 15  3  1  0  0  0  0
 16 17  1  0  0  0  0
 17 18  1  0  0  0  0
 18 20  1  0  0  0  0
 19 18  2  0  0  0  0
 21  6  1  0  0  0  0
 22 25  1  0  0  0  0
 23 24  2  0  0  0  0
 24 21  1  0  0  0  0
 25 24  1  0  0  0  0
 27 26  1  1  0  0  0
 27 25  1  0  0  0  0
 28 27  1  0  0  0  0
 29 31  1  0  0  0  0
 29 30  1  1  0  0  0
 29 28  1  0  0  0  0
M  END
>  <MODEL>
3

>  <REMARK>
 VINA RESULT:      -7.1      3.397      6.036
  Name = 
  8 active torsions:
  status: ('A' for Active; 'I' for Inactive)
    1  A    between atoms: C_1  and  C_24
    2  A    between atoms: C_5  and  N_14
    3  A    between atoms: C_9  and  C_23
    4  A    between atoms: C_10  and  N_14
    5  A    between atoms: C_10  and  C_18
    6  A    between atoms: N_15  and  C_23
    7  A    between atoms: C_19  and  N_22
    8  A    between atoms: C_19  and  C_24
                            x       y       z     vdW  Elec       q    Type
                         _______ _______ _______ _____ _____    ______ ____

>  <TORSDO>
F 8

$$$$
=
 OpenBabel10262419383D

 31 33  0  0  1  0  0  0  0  0999 V2000
  189.3010  177.5490  145.4350 C   0  0  0  0  0  0  0  0  0  0  0  0
  188.3620  177.4770  141.7510 C   0  0  2  0  0  3  0  0  0  0  0  0
  187.2520  178.4720  141.5710 C   0  0  1  0  0  3  0  0  0  0  0  0
  189.1430  177.4530  143.0210 C   0  0  0  0  0  0  0  0  0  0  0  0
  190.6310  177.1200  145.3660 C   0  0  0  0  0  3  0  0  0  0  0  0
  190.2150  176.7640  140.4520 N   0  0  0  0  0  0  0  0  0  0  0  0
  188.5690  177.8790  146.9890 Cl  0  0  0  0  0  0  0  0  0  0  0  0
  188.2480  178.1110  139.5580 C   0  0  2  0  0  3  0  0  0  0  0  0
  191.1450  176.7480  141.6040 C   0  0  0  0  0  2  0  0  0  0  0  0
  189.2670  177.8660  140.6500 C   0  0  1  0  0  3  0  0  0  0  0  0
  188.5520  177.7030  144.2650 C   0  0  0  0  0  3  0  0  0  0  0  0
  190.4750  176.9870  142.9510 C   0  0  0  0  0  0  0  0  0  0  0  0
  191.2180  176.8420  144.1270 C   0  0  0  0  0  3  0  0  0  0  0  0
  188.7830  179.1110  138.5510 C   0  0  0  0  0  1  0  0  0  0  0  0
  187.0900  178.6460  140.1750 O   0  0  0  0  0  0  0  0  0  0  0  0
  186.0230  177.9500  142.1480 N   0  0  0  0  0  2  0  0  0  0  0  0
  185.2140  179.0890  142.5520 C   0  0  0  0  0  2  0  0  0  0  0  0
  184.5980  178.8310  143.8830 C   0  0  0  0  0  0  0  0  0  0  0  0
  183.2230  178.6660  143.9910 O   0  0  0  0  0  0  0  0  0  0  0  0
  185.3240  178.7290  144.9050 O   0  0  0  0  0  1  0  0  0  0  0  0
  191.0310  177.0460  139.2770 C   0  0  0  0  0  2  0  0  0  0  0  0
  193.7640  176.3890  138.3740 C   0  0  0  0  0  1  0  0  0  0  0  0
  190.3970  174.9560  138.3500 O   0  0  0  0  0  0  0  0  0  0  0  0
  191.3340  175.7740  138.5510 C   0  0  0  0  0  0  0  0  0  0  0  0
  192.6570  175.5060  138.0440 N   0  0  0  0  0  0  0  0  0  0  0  0
  192.4510  174.6500  135.7520 C   0  0  0  0  0  1  0  0  0  0  0  0
  192.9470  174.3750  137.1610 C   0  0  1  0  0  3  0  0  0  0  0  0
  194.4350  174.0410  137.1430 C   0  0  0  0  0  2  0  0  0  0  0  0
  194.7600  172.9090  138.1050 C   0  0  1  0  0  3  0  0  0  0  0  0
  195.4990  171.8180  137.3590 C   0  0  0  0  0  1  0  0  0  0  0  0
  195.5640  173.3790  139.1430 O   0  0  0  0  0  1  0  0  0  0  0  0
  1  7  1  0  0  0  0
  2  4  1  1  0  0  0
  3  2  1  0  0  0  0
  3 16  1  6  0  0  0
  4 11  1  0  0  0  0
  5  1  1  0  0  0  0
  6  9  1  0  0  0  0
  8 14  1  6  0  0  0
  8 15  1  0  0  0  0
  8 10  1  0  0  0  0
  9 12  1  0  0  0  0
 10  6  1  6  0  0  0
 10  2  1  0  0  0  0
 11  1  2  0  0  0  0
 12  4  2  0  0  0  0
 12 13  1  0  0  0  0
 13  5  2  0  0  0  0
 15  3  1  0  0  0  0
 16 17  1  0  0  0  0
 17 18  1  0  0  0  0
 18 19  2  0  0  0  0
 18 20  1  0  0  0  0
 21  6  1  0  0  0  0
 23 24  2  0  0  0  0
 24 21  1  0  0  0  0
 25 22  1  0  0  0  0
 25 24  1  0  0  0  0
 27 26  1  6  0  0  0
 27 25  1  0  0  0  0
 28 27  1  0  0  0  0
 28 29  1  0  0  0  0
 29 30  1  6  0  0  0
 29 31  1  0  0  0  0
M  END
>  <MODEL>
4

>  <REMARK>
 VINA RESULT:      -7.1      3.806      8.255
  Name = 
  8 active torsions:
  status: ('A' for Active; 'I' for Inactive)
    1  A    between atoms: C_1  and  C_24
    2  A    between atoms: C_5  and  N_14
    3  A    between atoms: C_9  and  C_23
    4  A    between atoms: C_10  and  N_14
    5  A    between atoms: C_10  and  C_18
    6  A    between atoms: N_15  and  C_23
    7  A    between atoms: C_19  and  N_22
    8  A    between atoms: C_19  and  C_24
                            x       y       z     vdW  Elec       q    Type
                         _______ _______ _______ _____ _____    ______ ____

>  <TORSDO>
F 8

$$$$
=
 OpenBabel10262419383D

 31 33  0  0  1  0  0  0  0  0999 V2000
  189.1540  177.4860  145.7480 C   0  0  0  0  0  0  0  0  0  0  0  0
  188.4510  177.4570  142.0110 C   0  0  2  0  0  3  0  0  0  0  0  0
  187.3370  178.4360  141.7760 C   0  0  1  0  0  3  0  0  0  0  0  0
  189.1510  177.4260  143.3280 C   0  0  0  0  0  0  0  0  0  0  0  0
  190.4930  177.0820  145.7580 C   0  0  0  0  0  3  0  0  0  0  0  0
  190.3960  176.7990  140.8220 N   0  0  0  0  0  0  0  0  0  0  0  0
  188.3190  177.7770  147.2570 Cl  0  0  0  0  0  0  0  0  0  0  0  0
  188.4650  178.1260  139.8260 C   0  0  2  0  0  3  0  0  0  0  0  0
  191.2510  176.7810  142.0310 C   0  0  0  0  0  2  0  0  0  0  0  0
  189.4170  177.8810  140.9760 C   0  0  1  0  0  3  0  0  0  0  0  0
  188.4780  177.6460  144.5350 C   0  0  0  0  0  3  0  0  0  0  0  0
  190.4930  176.9860  143.3360 C   0  0  0  0  0  0  0  0  0  0  0  0
  191.1620  176.8350  144.5550 C   0  0  0  0  0  3  0  0  0  0  0  0
  189.0440  179.1510  138.8700 C   0  0  0  0  0  1  0  0  0  0  0  0
  187.2600  178.6300  140.3750 O   0  0  0  0  0  0  0  0  0  0  0  0
  186.0840  177.8830  142.2660 N   0  0  0  0  0  2  0  0  0  0  0  0
  185.1250  178.9750  142.3370 C   0  0  0  0  0  2  0  0  0  0  0  0
  184.4780  178.9990  143.6780 C   0  0  0  0  0  0  0  0  0  0  0  0
  183.0960  178.9200  143.7840 O   0  0  0  0  0  0  0  0  0  0  0  0
  185.1840  179.0570  144.7180 O   0  0  0  0  0  1  0  0  0  0  0  0
  191.2800  177.1140  139.7060 C   0  0  0  0  0  2  0  0  0  0  0  0
  193.4090  176.5940  137.7290 C   0  0  0  0  0  1  0  0  0  0  0  0
  190.0460  175.4300  138.5800 O   0  0  0  0  0  0  0  0  0  0  0  0
  191.1140  176.0970  138.6230 C   0  0  0  0  0  0  0  0  0  0  0  0
  192.1290  175.9130  137.6150 N   0  0  0  0  0  0  0  0  0  0  0  0
  192.4270  175.7760  135.1820 C   0  0  0  0  0  1  0  0  0  0  0  0
  191.9220  175.0760  136.4320 C   0  0  1  0  0  3  0  0  0  0  0  0
  192.5880  173.7130  136.5820 C   0  0  0  0  0  2  0  0  0  0  0  0
  192.1790  172.7720  135.4590 C   0  0  1  0  0  3  0  0  0  0  0  0
  193.0020  171.5050  135.5470 C   0  0  0  0  0  1  0  0  0  0  0  0
  190.8260  172.4480  135.5760 O   0  0  0  0  0  1  0  0  0  0  0  0
  1  5  1  0  0  0  0
  1  7  1  0  0  0  0
  2  4  1  1  0  0  0
  3  2  1  0  0  0  0
  3 16  1  6  0  0  0
  4 12  2  0  0  0  0
  4 11  1  0  0  0  0
  6  9  1  0  0  0  0
  8 14  1  6  0  0  0
  8 15  1  0  0  0  0
  8 10  1  0  0  0  0
  9 12  1  0  0  0  0
 10  6  1  6  0  0  0
 10  2  1  0  0  0  0
 11  1  2  0  0  0  0
 12 13  1  0  0  0  0
 13  5  2  0  0  0  0
 15  3  1  0  0  0  0
 16 17  1  0  0  0  0
 17 18  1  0  0  0  0
 18 19  2  0  0  0  0
 18 20  1  0  0  0  0
 21  6  1  0  0  0  0
 23 24  2  0  0  0  0
 24 21  1  0  0  0  0
 25 22  1  0  0  0  0
 25 24  1  0  0  0  0
 27 26  1  6  0  0  0
 27 28  1  0  0  0  0
 27 25  1  0  0  0  0
 29 30  1  1  0  0  0
 29 31  1  0  0  0  0
 29 28  1  0  0  0  0
M  END
>  <MODEL>
5

>  <REMARK>
 VINA RESULT:      -6.9      3.632      7.719
  Name = 
  8 active torsions:
  status: ('A' for Active; 'I' for Inactive)
    1  A    between atoms: C_1  and  C_24
    2  A    between atoms: C_5  and  N_14
    3  A    between atoms: C_9  and  C_23
    4  A    between atoms: C_10  and  N_14
    5  A    between atoms: C_10  and  C_18
    6  A    between atoms: N_15  and  C_23
    7  A    between atoms: C_19  and  N_22
    8  A    between atoms: C_19  and  C_24
                            x       y       z     vdW  Elec       q    Type
                         _______ _______ _______ _____ _____    ______ ____

>  <TORSDO>
F 8

$$$$
=
 OpenBabel10262419383D

 31 33  0  0  1  0  0  0  0  0999 V2000
  186.3100  177.8890  144.4800 C   0  0  0  0  0  0  0  0  0  0  0  0
  189.1600  178.0300  141.9670 C   0  0  2  0  0  3  0  0  0  0  0  0
  190.2310  177.1090  142.4790 C   0  0  1  0  0  3  0  0  0  0  0  0
  187.7980  178.0000  142.5740 C   0  0  0  0  0  0  0  0  0  0  0  0
  185.2300  178.2290  143.6590 C   0  0  0  0  0  3  0  0  0  0  0  0
  188.3280  178.6210  139.8250 N   0  0  0  0  0  0  0  0  0  0  0  0
  186.0530  177.6040  146.1870 Cl  0  0  0  0  0  0  0  0  0  0  0  0
  190.5280  177.4080  140.2440 C   0  0  2  0  0  3  0  0  0  0  0  0
  186.9110  178.5740  140.2520 C   0  0  0  0  0  2  0  0  0  0  0  0
  189.0580  177.5830  140.5620 C   0  0  1  0  0  3  0  0  0  0  0  0
  187.5960  177.7860  143.9420 C   0  0  0  0  0  3  0  0  0  0  0  0
  186.7150  178.3760  141.7490 C   0  0  0  0  0  0  0  0  0  0  0  0
  185.4310  178.4700  142.2950 C   0  0  0  0  0  3  0  0  0  0  0  0
  190.7110  176.3780  139.1470 C   0  0  0  0  0  1  0  0  0  0  0  0
  191.1620  176.9500  141.4250 O   0  0  0  0  0  0  0  0  0  0  0  0
  190.8880  177.7100  143.6300 N   0  0  0  0  0  2  0  0  0  0  0  0
  191.3930  176.6260  144.4570 C   0  0  0  0  0  2  0  0  0  0  0  0
  191.0700  176.8830  145.8880 C   0  0  0  0  0  0  0  0  0  0  0  0
  192.0550  176.7440  146.8570 O   0  0  0  0  0  1  0  0  0  0  0  0
  189.9150  177.2590  146.2170 O   0  0  0  0  0  0  0  0  0  0  0  0
  188.3360  178.2900  138.4050 C   0  0  0  0  0  2  0  0  0  0  0  0
  187.6330  175.6660  137.2500 C   0  0  0  0  0  1  0  0  0  0  0  0
  186.0550  178.8590  138.0890 O   0  0  0  0  0  0  0  0  0  0  0  0
  186.9470  177.9800  137.9470 C   0  0  0  0  0  0  0  0  0  0  0  0
  186.6390  176.7250  137.3090 N   0  0  0  0  0  0  0  0  0  0  0  0
  185.2770  177.1260  135.3050 C   0  0  0  0  0  1  0  0  0  0  0  0
  185.3480  176.4630  136.6700 C   0  0  1  0  0  3  0  0  0  0  0  0
  185.0720  174.9680  136.5470 C   0  0  0  0  0  2  0  0  0  0  0  0
  184.0750  174.5010  137.5950 C   0  0  1  0  0  3  0  0  0  0  0  0
  183.2110  175.6710  138.0160 C   0  0  0  0  0  1  0  0  0  0  0  0
  183.2610  173.4970  137.0680 O   0  0  0  0  0  1  0  0  0  0  0  0
  1  7  1  0  0  0  0
  2  3  1  0  0  0  0
  2  4  1  1  0  0  0
  3 16  1  1  0  0  0
  4 11  2  0  0  0  0
  5  1  2  0  0  0  0
  6  9  1  0  0  0  0
  8 14  1  6  0  0  0
  8 10  1  0  0  0  0
  8 15  1  0  0  0  0
  9 12  1  0  0  0  0
 10  6  1  6  0  0  0
 10  2  1  0  0  0  0
 11  1  1  0  0  0  0
 12 13  2  0  0  0  0
 12  4  1  0  0  0  0
 13  5  1  0  0  0  0
 15  3  1  0  0  0  0
 16 17  1  0  0  0  0
 17 18  1  0  0  0  0
 18 20  2  0  0  0  0
 18 19  1  0  0  0  0
 21  6  1  0  0  0  0
 22 25  1  0  0  0  0
 24 23  2  0  0  0  0
 24 21  1  0  0  0  0
 25 24  1  0  0  0  0
 27 26  1  6  0  0  0
 27 25  1  0  0  0  0
 28 27  1  0  0  0  0
 28 29  1  0  0  0  0
 29 30  1  6  0  0  0
 31 29  1  0  0  0  0
M  END
>  <MODEL>
6

>  <REMARK>
 VINA RESULT:      -6.8      2.578      3.387
  Name = 
  8 active torsions:
  status: ('A' for Active; 'I' for Inactive)
    1  A    between atoms: C_1  and  C_24
    2  A    between atoms: C_5  and  N_14
    3  A    between atoms: C_9  and  C_23
    4  A    between atoms: C_10  and  N_14
    5  A    between atoms: C_10  and  C_18
    6  A    between atoms: N_15  and  C_23
    7  A    between atoms: C_19  and  N_22
    8  A    between atoms: C_19  and  C_24
                            x       y       z     vdW  Elec       q    Type
                         _______ _______ _______ _____ _____    ______ ____

>  <TORSDO>
F 8

$$$$
=
 OpenBabel10262419383D

 31 33  0  0  1  0  0  0  0  0999 V2000
  190.4470  177.3470  143.8620 C   0  0  0  0  0  0  0  0  0  0  0  0
  186.6790  177.7850  144.1220 C   0  0  2  0  0  3  0  0  0  0  0  0
  186.3990  178.2790  145.5130 C   0  0  1  0  0  3  0  0  0  0  0  0
  188.0780  177.7700  143.6040 C   0  0  0  0  0  0  0  0  0  0  0  0
  190.6260  177.5030  142.4830 C   0  0  0  0  0  3  0  0  0  0  0  0
  185.7550  178.1840  141.9730 N   0  0  0  0  0  0  0  0  0  0  0  0
  191.8190  176.9880  144.8850 Cl  0  0  0  0  0  0  0  0  0  0  0  0
  184.6430  178.8220  144.1730 C   0  0  2  0  0  3  0  0  0  0  0  0
  187.0760  178.2610  141.3090 C   0  0  0  0  0  2  0  0  0  0  0  0
  185.8920  178.7460  143.3210 C   0  0  1  0  0  3  0  0  0  0  0  0
  189.1720  177.4680  144.4220 C   0  0  0  0  0  3  0  0  0  0  0  0
  188.2500  177.8940  142.2080 C   0  0  0  0  0  0  0  0  0  0  0  0
  189.5310  177.7780  141.6580 C   0  0  0  0  0  3  0  0  0  0  0  0
  183.9530  180.1590  143.9780 C   0  0  0  0  0  1  0  0  0  0  0  0
  185.0460  178.6990  145.5250 O   0  0  0  0  0  0  0  0  0  0  0  0
  186.5870  177.1980  146.4670 N   0  0  0  0  0  2  0  0  0  0  0  0
  187.0230  177.7940  147.7190 C   0  0  0  0  0  2  0  0  0  0  0  0
  188.4670  177.5060  147.9460 C   0  0  0  0  0  0  0  0  0  0  0  0
  189.2630  178.4300  148.6090 O   0  0  0  0  0  1  0  0  0  0  0  0
  188.9580  176.4110  147.5690 O   0  0  0  0  0  0  0  0  0  0  0  0
  184.8590  179.0300  141.1940 C   0  0  0  0  0  2  0  0  0  0  0  0
  184.9740  178.0710  138.4060 C   0  0  0  0  0  1  0  0  0  0  0  0
  182.7840  177.8900  141.3310 O   0  0  0  0  0  0  0  0  0  0  0  0
  183.7630  178.2040  140.6030 C   0  0  0  0  0  0  0  0  0  0  0  0
  183.7940  177.8130  139.2150 N   0  0  0  0  0  0  0  0  0  0  0  0
  182.6480  177.5040  137.0660 C   0  0  0  0  0  1  0  0  0  0  0  0
  182.6550  177.1790  138.5500 C   0  0  1  0  0  3  0  0  0  0  0  0
  182.6470  175.6680  138.7610 C   0  0  0  0  0  2  0  0  0  0  0  0
  182.9910  174.9300  137.4760 C   0  0  1  0  0  3  0  0  0  0  0  0
  184.2950  174.1850  137.6650 C   0  0  0  0  0  1  0  0  0  0  0  0
  181.9830  174.0170  137.1660 O   0  0  0  0  0  1  0  0  0  0  0  0
  1 11  1  0  0  0  0
  1  7  1  0  0  0  0
  2  4  1  6  0  0  0
  2  3  1  0  0  0  0
  3 15  1  0  0  0  0
  3 16  1  1  0  0  0
  4 11  2  0  0  0  0
  5  1  2  0  0  0  0
  8 14  1  1  0  0  0
  8 15  1  0  0  0  0
  9  6  1  0  0  0  0
  9 12  1  0  0  0  0
 10  6  1  6  0  0  0
 10  2  1  0  0  0  0
 10  8  1  0  0  0  0
 12  4  1  0  0  0  0
 13 12  2  0  0  0  0
 13  5  1  0  0  0  0
 16 17  1  0  0  0  0
 17 18  1  0  0  0  0
 18 19  1  0  0  0  0
 20 18  2  0  0  0  0
 21  6  1  0  0  0  0
 22 25  1  0  0  0  0
 24 21  1  0  0  0  0
 24 23  2  0  0  0  0
 25 24  1  0  0  0  0
 27 26  1  6  0  0  0
 27 28  1  0  0  0  0
 27 25  1  0  0  0  0
 29 30  1  1  0  0  0
 29 28  1  0  0  0  0
 31 29  1  0  0  0  0
M  END
>  <MODEL>
7

>  <REMARK>
 VINA RESULT:      -6.7      2.877      4.597
  Name = 
  8 active torsions:
  status: ('A' for Active; 'I' for Inactive)
    1  A    between atoms: C_1  and  C_24
    2  A    between atoms: C_5  and  N_14
    3  A    between atoms: C_9  and  C_23
    4  A    between atoms: C_10  and  N_14
    5  A    between atoms: C_10  and  C_18
    6  A    between atoms: N_15  and  C_23
    7  A    between atoms: C_19  and  N_22
    8  A    between atoms: C_19  and  C_24
                            x       y       z     vdW  Elec       q    Type
                         _______ _______ _______ _____ _____    ______ ____

>  <TORSDO>
F 8

$$$$
=
 OpenBabel10262419383D

 31 33  0  0  1  0  0  0  0  0999 V2000
  190.4660  177.4270  142.1020 C   0  0  0  0  0  0  0  0  0  0  0  0
  187.9670  177.3420  144.9680 C   0  0  2  0  0  3  0  0  0  0  0  0
  188.7400  177.6380  146.2210 C   0  0  1  0  0  3  0  0  0  0  0  0
  188.5960  177.5660  143.6330 C   0  0  0  0  0  0  0  0  0  0  0  0
  189.6200  177.7570  141.0370 C   0  0  0  0  0  3  0  0  0  0  0  0
  185.7930  177.8540  144.1670 N   0  0  0  0  0  0  0  0  0  0  0  0
  192.1660  177.1360  141.8100 Cl  0  0  0  0  0  0  0  0  0  0  0  0
  186.5430  178.0960  146.5880 C   0  0  2  0  0  3  0  0  0  0  0  0
  186.2630  178.1750  142.8000 C   0  0  0  0  0  2  0  0  0  0  0  0
  186.8310  178.2770  145.1130 C   0  0  1  0  0  3  0  0  0  0  0  0
  189.9530  177.3190  143.3980 C   0  0  0  0  0  3  0  0  0  0  0  0
  187.7330  177.8650  142.5560 C   0  0  0  0  0  0  0  0  0  0  0  0
  188.2580  177.9780  141.2640 C   0  0  0  0  0  3  0  0  0  0  0  0
  185.8970  179.3450  147.1560 C   0  0  0  0  0  1  0  0  0  0  0  0
  187.7830  177.8760  147.2370 O   0  0  0  0  0  0  0  0  0  0  0  0
  189.5610  176.4910  146.5760 N   0  0  0  0  0  2  0  0  0  0  0  0
  190.5640  176.9500  147.5230 C   0  0  0  0  0  2  0  0  0  0  0  0
  191.8480  176.2290  147.2960 C   0  0  0  0  0  0  0  0  0  0  0  0
  192.8010  176.1760  148.3040 O   0  0  0  0  0  1  0  0  0  0  0  0
  192.0550  175.6390  146.2040 O   0  0  0  0  0  0  0  0  0  0  0  0
  184.5970  178.6600  144.3840 C   0  0  0  0  0  2  0  0  0  0  0  0
  181.6790  178.5220  143.9670 C   0  0  0  0  0  1  0  0  0  0  0  0
  184.7210  179.4030  142.1350 O   0  0  0  0  0  0  0  0  0  0  0  0
  183.9740  179.0110  143.0720 C   0  0  0  0  0  0  0  0  0  0  0  0
  182.5570  178.8600  142.8580 N   0  0  0  0  0  0  0  0  0  0  0  0
  182.2330  177.7880  140.6730 C   0  0  0  0  0  1  0  0  0  0  0  0
  181.9390  179.0010  141.5380 C   0  0  1  0  0  3  0  0  0  0  0  0
  180.4340  179.2270  141.6400 C   0  0  0  0  0  2  0  0  0  0  0  0
  180.0090  180.4710  140.8760 C   0  0  1  0  0  3  0  0  0  0  0  0
  179.1210  180.0650  139.7200 C   0  0  0  0  0  1  0  0  0  0  0  0
  179.3020  181.3300  141.7180 O   0  0  0  0  0  1  0  0  0  0  0  0
  1 11  1  0  0  0  0
  2  4  1  6  0  0  0
  2 10  1  0  0  0  0
  2  3  1  0  0  0  0
  3 16  1  1  0  0  0
  3 15  1  0  0  0  0
  5 13  1  0  0  0  0
  5  1  2  0  0  0  0
  6 21  1  0  0  0  0
  7  1  1  0  0  0  0
  8 14  1  1  0  0  0
  8 15  1  0  0  0  0
  9  6  1  0  0  0  0
 10  6  1  6  0  0  0
 10  8  1  0  0  0  0
 11  4  2  0  0  0  0
 12  9  1  0  0  0  0
 12  4  1  0  0  0  0
 13 12  2  0  0  0  0
 16 17  1  0  0  0  0
 18 17  1  0  0  0  0
 18 19  1  0  0  0  0
 20 18  2  0  0  0  0
 23 24  2  0  0  0  0
 24 21  1  0  0  0  0
 25 24  1  0  0  0  0
 25 22  1  0  0  0  0
 27 26  1  6  0  0  0
 27 28  1  0  0  0  0
 27 25  1  0  0  0  0
 29 30  1  6  0  0  0
 29 28  1  0  0  0  0
 29 31  1  0  0  0  0
M  END
>  <MODEL>
8

>  <REMARK>
 VINA RESULT:      -6.6      2.766      4.529
  Name = 
  8 active torsions:
  status: ('A' for Active; 'I' for Inactive)
    1  A    between atoms: C_1  and  C_24
    2  A    between atoms: C_5  and  N_14
    3  A    between atoms: C_9  and  C_23
    4  A    between atoms: C_10  and  N_14
    5  A    between atoms: C_10  and  C_18
    6  A    between atoms: N_15  and  C_23
    7  A    between atoms: C_19  and  N_22
    8  A    between atoms: C_19  and  C_24
                            x       y       z     vdW  Elec       q    Type
                         _______ _______ _______ _____ _____    ______ ____

>  <TORSDO>
F 8

$$$$
=
 OpenBabel10262419383D

 31 33  0  0  1  0  0  0  0  0999 V2000
  190.1330  177.4390  142.3150 C   0  0  0  0  0  0  0  0  0  0  0  0
  188.7620  177.6630  138.7750 C   0  0  2  0  0  3  0  0  0  0  0  0
  189.5160  176.6540  137.9570 C   0  0  1  0  0  3  0  0  0  0  0  0
  188.8650  177.6440  140.2630 C   0  0  0  0  0  0  0  0  0  0  0  0
  189.0310  177.8980  143.0430 C   0  0  0  0  0  3  0  0  0  0  0  0
  186.5330  178.4740  138.8150 N   0  0  0  0  0  0  0  0  0  0  0  0
  191.6160  177.0210  143.1440 Cl  0  0  0  0  0  0  0  0  0  0  0  0
  187.5540  177.1290  136.9100 C   0  0  2  0  0  3  0  0  0  0  0  0
  186.4470  178.4560  140.2930 C   0  0  0  0  0  2  0  0  0  0  0  0
  187.3690  177.3440  138.3960 C   0  0  1  0  0  3  0  0  0  0  0  0
  190.0560  177.3240  140.9230 C   0  0  0  0  0  3  0  0  0  0  0  0
  187.7620  178.1400  140.9920 C   0  0  0  0  0  0  0  0  0  0  0  0
  187.8470  178.2460  142.3840 C   0  0  0  0  0  3  0  0  0  0  0  0
  186.4900  176.1890  136.3770 C   0  0  0  0  0  1  0  0  0  0  0  0
  188.8300  176.5420  136.7240 O   0  0  0  0  0  0  0  0  0  0  0  0
  190.8730  177.1220  137.7250 N   0  0  0  0  0  2  0  0  0  0  0  0
  191.7600  175.9790  137.8770 C   0  0  0  0  0  2  0  0  0  0  0  0
  193.1700  176.4410  138.0080 C   0  0  0  0  0  0  0  0  0  0  0  0
  193.6840  176.7540  139.2590 O   0  0  0  0  0  1  0  0  0  0  0  0
  193.9060  176.5150  136.9900 O   0  0  0  0  0  0  0  0  0  0  0  0
  185.1750  178.2650  138.3270 C   0  0  0  0  0  2  0  0  0  0  0  0
  183.0700  177.0330  139.9890 C   0  0  0  0  0  1  0  0  0  0  0  0
  184.3360  180.3470  139.0940 O   0  0  0  0  0  0  0  0  0  0  0  0
  184.2150  179.0930  139.1200 C   0  0  0  0  0  0  0  0  0  0  0  0
  183.1410  178.4800  139.8610 N   0  0  0  0  0  0  0  0  0  0  0  0
  180.8560  179.3300  139.5710 C   0  0  0  0  0  1  0  0  0  0  0  0
  182.0690  179.2580  140.4830 C   0  0  1  0  0  3  0  0  0  0  0  0
  181.6760  178.6910  141.8430 C   0  0  0  0  0  2  0  0  0  0  0  0
  180.3160  179.2080  142.2850 C   0  0  1  0  0  3  0  0  0  0  0  0
  179.7720  178.3080  143.3740 C   0  0  0  0  0  1  0  0  0  0  0  0
  180.4370  180.5060  142.7820 O   0  0  0  0  0  1  0  0  0  0  0  0
  1  5  1  0  0  0  0
  1  7  1  0  0  0  0
  2  4  1  1  0  0  0
  3 16  1  6  0  0  0
  3  2  1  0  0  0  0
  4 11  1  0  0  0  0
  4 12  2  0  0  0  0
  6  9  1  0  0  0  0
  8 14  1  1  0  0  0
  8 10  1  0  0  0  0
  9 12  1  0  0  0  0
 10  2  1  0  0  0  0
 10  6  1  6  0  0  0
 11  1  2  0  0  0  0
 12 13  1  0  0  0  0
 13  5  2  0  0  0  0
 15  8  1  0  0  0  0
 15  3  1  0  0  0  0
 16 17  1  0  0  0  0
 17 18  1  0  0  0  0
 18 19  1  0  0  0  0
 20 18  2  0  0  0  0
 21  6  1  0  0  0  0
 21 24  1  0  0  0  0
 23 24  2  0  0  0  0
 24 25  1  0  0  0  0
 25 22  1  0  0  0  0
 25 27  1  0  0  0  0
 27 26  1  6  0  0  0
 27 28  1  0  0  0  0
 28 29  1  0  0  0  0
 29 31  1  0  0  0  0
 29 30  1  1  0  0  0
M  END
>  <MODEL>
9

>  <REMARK>
 VINA RESULT:      -6.5      2.610      3.552
  Name = 
  8 active torsions:
  status: ('A' for Active; 'I' for Inactive)
    1  A    between atoms: C_1  and  C_24
    2  A    between atoms: C_5  and  N_14
    3  A    between atoms: C_9  and  C_23
    4  A    between atoms: C_10  and  N_14
    5  A    between atoms: C_10  and  C_18
    6  A    between atoms: N_15  and  C_23
    7  A    between atoms: C_19  and  N_22
    8  A    between atoms: C_19  and  C_24
                            x       y       z     vdW  Elec       q    Type
                         _______ _______ _______ _____ _____    ______ ____

>  <TORSDO>
F 8

$$$$
