=
 OpenBabel10262422553D

 37 41  0  0  1  0  0  0  0  0999 V2000
  181.5820  176.2340  138.4270 N   0  0  0  0  0  0  0  0  0  0  0  0
  180.4200  180.2670  140.5440 C   0  0  0  0  0  3  0  0  0  0  0  0
  182.6830  178.2090  137.4200 C   0  0  0  0  0  2  0  0  0  0  0  0
  183.0680  178.7140  143.4980 C   0  0  0  0  0  3  0  0  0  0  0  0
  181.5190  179.7550  139.6380 C   0  0  2  0  0  3  0  0  0  0  0  0
  182.2450  178.5840  142.3750 C   0  0  0  0  0  0  0  0  0  0  0  0
  181.2990  180.1210  138.1820 C   0  0  0  0  0  0  0  0  0  0  0  0
  180.7590  178.7080  142.5290 C   0  0  0  0  0  2  0  0  0  0  0  0
  182.8090  178.2980  141.1230 C   0  0  0  0  0  0  0  0  0  0  0  0
  185.0220  178.3410  142.1200 C   0  0  0  0  0  3  0  0  0  0  0  0
  180.1380  179.8840  141.8100 C   0  0  0  0  0  0  0  0  0  0  0  0
  184.2030  178.2100  140.9950 C   0  0  0  0  0  3  0  0  0  0  0  0
  181.4970  179.0990  137.0940 C   0  0  0  0  0  2  0  0  0  0  0  0
  181.9040  178.2960  139.9260 C   0  0  2  0  0  3  0  0  0  0  0  0
  184.4610  178.5890  143.3770 C   0  0  0  0  0  0  0  0  0  0  0  0
  182.9530  176.1180  138.9570 C   0  0  2  0  0  3  0  0  0  0  0  0
  182.3850  177.4560  138.7130 C   0  0  1  0  0  0  0  0  0  0  0  0
  180.9990  181.3890  137.8690 C   0  0  0  0  0  3  0  0  0  0  0  0
  185.3070  178.7100  144.4820 O   0  0  0  0  0  0  0  0  0  0  0  0
  186.2980  177.7410  144.8000 C   0  0  0  0  0  1  0  0  0  0  0  0
  178.9420  180.1450  143.8390 O   0  0  0  0  0  1  0  0  0  0  0  0
  179.0200  180.5780  142.5140 C   0  0  0  0  0  2  0  0  0  0  0  0
  180.7000  175.8450  139.5220 C   0  0  0  0  0  2  0  0  0  0  0  0
  179.1230  175.3400  137.8190 O   0  0  0  0  0  1  0  0  0  0  0  0
  179.6600  174.8670  139.0150 C   0  0  0  0  0  2  0  0  0  0  0  0
  183.8870  175.6350  137.8560 C   0  0  0  0  0  2  0  0  0  0  0  0
  183.4950  174.2330  137.4400 C   0  0  0  0  0  2  0  0  0  0  0  0
  184.3350  172.1310  136.4500 C   0  0  0  0  0  1  0  0  0  0  0  0
  184.6380  173.5970  136.6790 C   0  0  0  0  0  2  0  0  0  0  0  0
  180.8000  181.8650  136.4630 C   0  0  0  0  0  2  0  0  0  0  0  0
  179.5330  183.6830  135.2990 C   0  0  0  0  0  3  0  0  0  0  0  0
  180.1400  183.2000  136.4640 C   0  0  0  0  0  0  0  0  0  0  0  0
  180.1500  183.9850  137.6230 C   0  0  0  0  0  3  0  0  0  0  0  0
  179.5540  186.0050  138.7410 F   0  0  0  0  0  0  0  0  0  0  0  0
  178.9360  185.7260  136.4550 C   0  0  0  0  0  3  0  0  0  0  0  0
  179.5470  185.2460  137.6180 C   0  0  0  0  0  0  0  0  0  0  0  0
  178.9310  184.9440  135.2950 C   0  0  0  0  0  3  0  0  0  0  0  0
  1 17  1  0  0  0  0
  1 16  1  0  0  0  0
  1 23  1  0  0  0  0
  2 11  2  0  0  0  0
  5 14  1  0  0  0  0
  5  2  1  1  0  0  0
  6  8  1  0  0  0  0
  6  4  2  0  0  0  0
  7  5  1  0  0  0  0
  9  6  1  0  0  0  0
 10 15  2  0  0  0  0
 11 22  1  0  0  0  0
 11  8  1  0  0  0  0
 12  9  2  0  0  0  0
 12 10  1  0  0  0  0
 13  3  1  0  0  0  0
 13  7  1  0  0  0  0
 14  9  1  1  0  0  0
 15  4  1  0  0  0  0
 15 19  1  0  0  0  0
 16 26  1  6  0  0  0
 17  3  1  6  0  0  0
 17 16  1  0  0  0  0
 17 14  1  0  0  0  0
 18  7  2  0  0  0  0
 19 20  1  0  0  0  0
 22 21  1  0  0  0  0
 24 25  1  0  0  0  0
 25 23  1  0  0  0  0
 27 26  1  0  0  0  0
 28 29  1  0  0  0  0
 29 27  1  0  0  0  0
 30 32  1  0  0  0  0
 30 18  1  0  0  0  0
 31 32  1  0  0  0  0
 32 33  2  0  0  0  0
 35 36  2  0  0  0  0
 36 33  1  0  0  0  0
 36 34  1  0  0  0  0
 37 31  2  0  0  0  0
 37 35  1  0  0  0  0
M  END
>  <MODEL>
1

>  <REMARK>
 VINA RESULT:      -6.4      0.000      0.000
  Name = 
  9 active torsions:
  status: ('A' for Active; 'I' for Inactive)
    1  A    between atoms: N_1  and  C_5
    2  A    between atoms: O_3  and  C_32
    3  A    between atoms: C_5  and  C_23
    4  A    between atoms: C_6  and  C_31
    5  A    between atoms: C_17  and  C_26
    6  A    between atoms: C_17  and  C_33
    7  A    between atoms: C_24  and  C_28
    8  A    between atoms: C_26  and  C_34
    9  A    between atoms: C_31  and  C_37
                            x       y       z     vdW  Elec       q    Type
                         _______ _______ _______ _____ _____    ______ ____

>  <TORSDO>
F 9

$$$$
=
 OpenBabel10262422553D

 37 41  0  0  1  0  0  0  0  0999 V2000
  189.7340  177.7170  136.5760 N   0  0  0  0  0  0  0  0  0  0  0  0
  186.3030  178.2340  139.7480 C   0  0  0  0  0  3  0  0  0  0  0  0
  190.1470  176.4550  138.6640 C   0  0  0  0  0  2  0  0  0  0  0  0
  184.3150  175.6000  137.0540 C   0  0  0  0  0  3  0  0  0  0  0  0
  187.4370  177.2690  139.4730 C   0  0  2  0  0  3  0  0  0  0  0  0
  185.3260  176.5060  137.3860 C   0  0  0  0  0  0  0  0  0  0  0  0
  188.6610  177.5420  140.3260 C   0  0  0  0  0  0  0  0  0  0  0  0
  184.9850  177.9520  137.5860 C   0  0  0  0  0  2  0  0  0  0  0  0
  186.6550  176.0680  137.4880 C   0  0  0  0  0  0  0  0  0  0  0  0
  185.9350  173.8040  136.9900 C   0  0  0  0  0  3  0  0  0  0  0  0
  185.2100  178.4740  138.9890 C   0  0  0  0  0  0  0  0  0  0  0  0
  186.9490  174.7070  137.3210 C   0  0  0  0  0  3  0  0  0  0  0  0
  190.0380  177.5440  139.7170 C   0  0  0  0  0  2  0  0  0  0  0  0
  187.6840  177.0460  137.9730 C   0  0  2  0  0  3  0  0  0  0  0  0
  184.6160  174.2440  136.8500 C   0  0  0  0  0  0  0  0  0  0  0  0
  189.4180  176.3370  136.1620 C   0  0  2  0  0  3  0  0  0  0  0  0
  189.1480  176.7540  137.5510 C   0  0  1  0  0  0  0  0  0  0  0  0
  188.5080  177.7060  141.6480 C   0  0  0  0  0  3  0  0  0  0  0  0
  183.6270  173.3160  136.5130 O   0  0  0  0  0  0  0  0  0  0  0  0
  182.4400  173.6770  135.8180 C   0  0  0  0  0  1  0  0  0  0  0  0
  184.3330  180.6700  138.8400 O   0  0  0  0  0  1  0  0  0  0  0  0
  184.2040  179.4490  139.5040 C   0  0  0  0  0  2  0  0  0  0  0  0
  188.7410  178.5630  135.9240 C   0  0  0  0  0  2  0  0  0  0  0  0
  186.8470  178.0240  134.5940 O   0  0  0  0  0  1  0  0  0  0  0  0
  188.2310  177.8770  134.6720 C   0  0  0  0  0  2  0  0  0  0  0  0
  190.7070  175.5460  135.9960 C   0  0  0  0  0  2  0  0  0  0  0  0
  191.4620  176.0600  134.7880 C   0  0  0  0  0  2  0  0  0  0  0  0
  193.1890  175.7280  136.5230 C   0  0  0  0  0  1  0  0  0  0  0  0
  192.9500  175.9630  135.0470 C   0  0  0  0  0  2  0  0  0  0  0  0
  189.6520  177.9410  142.5860 C   0  0  0  0  0  2  0  0  0  0  0  0
  190.1170  177.8490  145.0440 C   0  0  0  0  0  3  0  0  0  0  0  0
  189.1900  177.8150  143.9970 C   0  0  0  0  0  0  0  0  0  0  0  0
  187.8300  177.6350  144.2740 C   0  0  0  0  0  3  0  0  0  0  0  0
  186.0820  177.3270  145.8660 F   0  0  0  0  0  0  0  0  0  0  0  0
  188.3260  177.5380  146.6430 C   0  0  0  0  0  3  0  0  0  0  0  0
  187.3990  177.4990  145.5970 C   0  0  0  0  0  0  0  0  0  0  0  0
  189.6850  177.7130  146.3660 C   0  0  0  0  0  3  0  0  0  0  0  0
  1 17  1  0  0  0  0
  3 13  1  0  0  0  0
  4  6  1  0  0  0  0
  5  2  1  6  0  0  0
  5  7  1  0  0  0  0
  6  9  2  0  0  0  0
  6  8  1  0  0  0  0
  7 18  2  0  0  0  0
  8 11  1  0  0  0  0
 10 12  2  0  0  0  0
 11 22  1  0  0  0  0
 11  2  2  0  0  0  0
 12  9  1  0  0  0  0
 13  7  1  0  0  0  0
 14  9  1  1  0  0  0
 14  5  1  0  0  0  0
 15 10  1  0  0  0  0
 15  4  2  0  0  0  0
 16 26  1  1  0  0  0
 16  1  1  0  0  0  0
 16 17  1  0  0  0  0
 17 14  1  0  0  0  0
 17  3  1  1  0  0  0
 18 30  1  0  0  0  0
 19 15  1  0  0  0  0
 20 19  1  0  0  0  0
 21 22  1  0  0  0  0
 23  1  1  0  0  0  0
 24 25  1  0  0  0  0
 25 23  1  0  0  0  0
 27 29  1  0  0  0  0
 27 26  1  0  0  0  0
 29 28  1  0  0  0  0
 30 32  1  0  0  0  0
 31 37  1  0  0  0  0
 32 33  1  0  0  0  0
 32 31  2  0  0  0  0
 33 36  2  0  0  0  0
 36 34  1  0  0  0  0
 36 35  1  0  0  0  0
 37 35  2  0  0  0  0
M  END
>  <MODEL>
2

>  <REMARK>
 VINA RESULT:      -6.3      5.232      9.542
  Name = 
  9 active torsions:
  status: ('A' for Active; 'I' for Inactive)
    1  A    between atoms: N_1  and  C_5
    2  A    between atoms: O_3  and  C_32
    3  A    between atoms: C_5  and  C_23
    4  A    between atoms: C_6  and  C_31
    5  A    between atoms: C_17  and  C_26
    6  A    between atoms: C_17  and  C_33
    7  A    between atoms: C_24  and  C_28
    8  A    between atoms: C_26  and  C_34
    9  A    between atoms: C_31  and  C_37
                            x       y       z     vdW  Elec       q    Type
                         _______ _______ _______ _____ _____    ______ ____

>  <TORSDO>
F 9

$$$$
=
 OpenBabel10262422553D

 37 41  0  0  1  0  0  0  0  0999 V2000
  180.3740  179.9850  138.8300 N   0  0  0  0  0  0  0  0  0  0  0  0
  184.0520  177.1310  138.1800 C   0  0  0  0  0  3  0  0  0  0  0  0
  179.8920  177.6330  139.4300 C   0  0  0  0  0  2  0  0  0  0  0  0
  185.3640  179.0960  141.7240 C   0  0  0  0  0  3  0  0  0  0  0  0
  182.7520  177.1220  138.9560 C   0  0  2  0  0  3  0  0  0  0  0  0
  184.5500  178.9870  140.5930 C   0  0  0  0  0  0  0  0  0  0  0  0
  181.6550  176.3420  138.2570 C   0  0  0  0  0  0  0  0  0  0  0  0
  185.1490  179.1750  139.2320 C   0  0  0  0  0  2  0  0  0  0  0  0
  183.1760  178.7460  140.7380 C   0  0  0  0  0  0  0  0  0  0  0  0
  183.4560  178.6580  143.1480 C   0  0  0  0  0  3  0  0  0  0  0  0
  185.1140  177.9500  138.3440 C   0  0  0  0  0  0  0  0  0  0  0  0
  182.6400  178.5490  142.0190 C   0  0  0  0  0  3  0  0  0  0  0  0
  180.2600  176.9000  138.1530 C   0  0  0  0  0  2  0  0  0  0  0  0
  182.3670  178.5080  139.4980 C   0  0  2  0  0  3  0  0  0  0  0  0
  184.8200  178.9360  143.0090 C   0  0  0  0  0  0  0  0  0  0  0  0
  180.4170  180.0350  140.3030 C   0  0  2  0  0  3  0  0  0  0  0  0
  180.8490  178.8080  139.6100 C   0  0  1  0  0  0  0  0  0  0  0  0
  181.9240  175.1110  137.7990 C   0  0  0  0  0  3  0  0  0  0  0  0
  185.6080  179.0430  144.1580 O   0  0  0  0  0  0  0  0  0  0  0  0
  185.0580  179.0290  145.4690 C   0  0  0  0  0  1  0  0  0  0  0  0
  187.3030  178.6580  137.7730 O   0  0  0  0  0  1  0  0  0  0  0  0
  186.3070  177.7260  137.4740 C   0  0  0  0  0  2  0  0  0  0  0  0
  181.4510  180.8560  138.3730 C   0  0  0  0  0  2  0  0  0  0  0  0
  181.0570  183.1220  137.7780 O   0  0  0  0  0  1  0  0  0  0  0  0
  180.9220  181.8120  137.3230 C   0  0  0  0  0  2  0  0  0  0  0  0
  179.0020  179.9630  140.8580 C   0  0  0  0  0  2  0  0  0  0  0  0
  179.0480  180.0410  142.3700 C   0  0  0  0  0  2  0  0  0  0  0  0
  179.7170  178.6760  144.3180 C   0  0  0  0  0  1  0  0  0  0  0  0
  179.0840  178.6410  142.9430 C   0  0  0  0  0  2  0  0  0  0  0  0
  180.9050  174.2410  137.1300 C   0  0  0  0  0  2  0  0  0  0  0  0
  182.9010  172.7490  136.8910 C   0  0  0  0  0  3  0  0  0  0  0  0
  181.5290  172.9550  136.7100 C   0  0  0  0  0  0  0  0  0  0  0  0
  180.7470  171.9620  136.1070 C   0  0  0  0  0  3  0  0  0  0  0  0
  180.5790  169.8000  135.1150 F   0  0  0  0  0  0  0  0  0  0  0  0
  182.7070  170.5550  135.8820 C   0  0  0  0  0  3  0  0  0  0  0  0
  181.3360  170.7620  135.6960 C   0  0  0  0  0  0  0  0  0  0  0  0
  183.4890  171.5490  136.4800 C   0  0  0  0  0  3  0  0  0  0  0  0
  1 17  1  0  0  0  0
  1 16  1  0  0  0  0
  2 11  2  0  0  0  0
  4 15  1  0  0  0  0
  5  2  1  6  0  0  0
  5 14  1  0  0  0  0
  6  9  1  0  0  0  0
  6  4  2  0  0  0  0
  7  5  1  0  0  0  0
  8  6  1  0  0  0  0
  9 12  2  0  0  0  0
 11  8  1  0  0  0  0
 12 10  1  0  0  0  0
 13  7  1  0  0  0  0
 13  3  1  0  0  0  0
 14 17  1  0  0  0  0
 14  9  1  1  0  0  0
 15 10  2  0  0  0  0
 15 19  1  0  0  0  0
 16 26  1  1  0  0  0
 17  3  1  1  0  0  0
 17 16  1  0  0  0  0
 18  7  2  0  0  0  0
 19 20  1  0  0  0  0
 22 21  1  0  0  0  0
 22 11  1  0  0  0  0
 23  1  1  0  0  0  0
 25 24  1  0  0  0  0
 25 23  1  0  0  0  0
 26 27  1  0  0  0  0
 27 29  1  0  0  0  0
 29 28  1  0  0  0  0
 30 18  1  0  0  0  0
 32 31  1  0  0  0  0
 32 30  1  0  0  0  0
 33 32  2  0  0  0  0
 34 36  1  0  0  0  0
 35 37  1  0  0  0  0
 36 35  2  0  0  0  0
 36 33  1  0  0  0  0
 37 31  2  0  0  0  0
M  END
>  <MODEL>
3

>  <REMARK>
 VINA RESULT:      -6.3      3.734      7.941
  Name = 
  9 active torsions:
  status: ('A' for Active; 'I' for Inactive)
    1  A    between atoms: N_1  and  C_5
    2  A    between atoms: O_3  and  C_32
    3  A    between atoms: C_5  and  C_23
    4  A    between atoms: C_6  and  C_31
    5  A    between atoms: C_17  and  C_26
    6  A    between atoms: C_17  and  C_33
    7  A    between atoms: C_24  and  C_28
    8  A    between atoms: C_26  and  C_34
    9  A    between atoms: C_31  and  C_37
                            x       y       z     vdW  Elec       q    Type
                         _______ _______ _______ _____ _____    ______ ____

>  <TORSDO>
F 9

$$$$
=
 OpenBabel10262422553D

 37 41  0  0  1  0  0  0  0  0999 V2000
  180.9140  176.8770  140.7440 N   0  0  0  0  0  0  0  0  0  0  0  0
  184.5540  177.7040  137.8860 C   0  0  0  0  0  3  0  0  0  0  0  0
  182.2850  178.8100  141.4570 C   0  0  0  0  0  2  0  0  0  0  0  0
  181.4260  179.2150  135.4200 C   0  0  0  0  0  3  0  0  0  0  0  0
  183.7600  178.4560  138.9350 C   0  0  2  0  0  3  0  0  0  0  0  0
  181.9060  178.4620  136.4950 C   0  0  0  0  0  0  0  0  0  0  0  0
  184.4470  178.4760  140.2880 C   0  0  0  0  0  0  0  0  0  0  0  0
  182.6840  177.2080  136.2290 C   0  0  0  0  0  2  0  0  0  0  0  0
  181.6230  178.8580  137.8110 C   0  0  0  0  0  0  0  0  0  0  0  0
  180.4370  180.7980  136.9610 C   0  0  0  0  0  3  0  0  0  0  0  0
  184.1240  177.2390  136.6920 C   0  0  0  0  0  0  0  0  0  0  0  0
  180.9160  180.0470  138.0380 C   0  0  0  0  0  3  0  0  0  0  0  0
  183.6710  178.1970  141.5470 C   0  0  0  0  0  2  0  0  0  0  0  0
  182.2670  178.0950  138.9300 C   0  0  2  0  0  3  0  0  0  0  0  0
  180.6840  180.3860  135.6480 C   0  0  0  0  0  0  0  0  0  0  0  0
  180.0710  178.0140  140.3290 C   0  0  2  0  0  3  0  0  0  0  0  0
  181.5380  178.1550  140.2990 C   0  0  1  0  0  0  0  0  0  0  0  0
  185.7400  178.8220  140.3550 C   0  0  0  0  0  3  0  0  0  0  0  0
  180.1890  181.1570  134.5940 O   0  0  0  0  0  0  0  0  0  0  0  0
  179.9180  182.5470  134.7210 C   0  0  0  0  0  1  0  0  0  0  0  0
  186.4140  176.7980  136.2750 O   0  0  0  0  0  1  0  0  0  0  0  0
  185.1200  176.5630  135.8080 C   0  0  0  0  0  2  0  0  0  0  0  0
  180.7920  175.8860  139.6810 C   0  0  0  0  0  2  0  0  0  0  0  0
  179.3120  174.1520  139.0120 O   0  0  0  0  0  1  0  0  0  0  0  0
  179.8710  174.7690  140.1290 C   0  0  0  0  0  2  0  0  0  0  0  0
  179.4180  178.6380  141.5530 C   0  0  0  0  0  2  0  0  0  0  0  0
  179.7100  177.7870  142.7710 C   0  0  0  0  0  2  0  0  0  0  0  0
  179.5100  180.1060  143.6020 C   0  0  0  0  0  1  0  0  0  0  0  0
  179.6990  178.6590  144.0080 C   0  0  0  0  0  2  0  0  0  0  0  0
  186.5020  178.9120  141.6410 C   0  0  0  0  0  2  0  0  0  0  0  0
  188.5250  178.2010  140.3490 C   0  0  0  0  0  3  0  0  0  0  0  0
  187.7790  178.1530  141.5320 C   0  0  0  0  0  0  0  0  0  0  0  0
  188.2200  177.3670  142.6040 C   0  0  0  0  0  3  0  0  0  0  0  0
  189.8370  175.8820  143.5330 F   0  0  0  0  0  0  0  0  0  0  0  0
  190.1560  176.6930  141.3140 C   0  0  0  0  0  3  0  0  0  0  0  0
  189.4090  176.6400  142.4950 C   0  0  0  0  0  0  0  0  0  0  0  0
  189.7130  177.4730  140.2410 C   0  0  0  0  0  3  0  0  0  0  0  0
  3 13  1  0  0  0  0
  4 15  2  0  0  0  0
  4  6  1  0  0  0  0
  5  2  1  6  0  0  0
  5  7  1  0  0  0  0
  6  9  2  0  0  0  0
  7 18  2  0  0  0  0
  7 13  1  0  0  0  0
  8  6  1  0  0  0  0
  8 11  1  0  0  0  0
  9 12  1  0  0  0  0
 10 12  2  0  0  0  0
 11  2  2  0  0  0  0
 14  9  1  6  0  0  0
 14  5  1  0  0  0  0
 14 17  1  0  0  0  0
 15 10  1  0  0  0  0
 16  1  1  0  0  0  0
 16 26  1  1  0  0  0
 17 16  1  0  0  0  0
 17  1  1  0  0  0  0
 17  3  1  1  0  0  0
 18 30  1  0  0  0  0
 19 20  1  0  0  0  0
 19 15  1  0  0  0  0
 22 21  1  0  0  0  0
 22 11  1  0  0  0  0
 23 25  1  0  0  0  0
 23  1  1  0  0  0  0
 24 25  1  0  0  0  0
 26 27  1  0  0  0  0
 27 29  1  0  0  0  0
 28 29  1  0  0  0  0
 31 32  1  0  0  0  0
 32 30  1  0  0  0  0
 32 33  2  0  0  0  0
 35 36  2  0  0  0  0
 36 33  1  0  0  0  0
 36 34  1  0  0  0  0
 37 31  2  0  0  0  0
 37 35  1  0  0  0  0
M  END
>  <MODEL>
4

>  <REMARK>
 VINA RESULT:      -6.2      3.734      8.519
  Name = 
  9 active torsions:
  status: ('A' for Active; 'I' for Inactive)
    1  A    between atoms: N_1  and  C_5
    2  A    between atoms: O_3  and  C_32
    3  A    between atoms: C_5  and  C_23
    4  A    between atoms: C_6  and  C_31
    5  A    between atoms: C_17  and  C_26
    6  A    between atoms: C_17  and  C_33
    7  A    between atoms: C_24  and  C_28
    8  A    between atoms: C_26  and  C_34
    9  A    between atoms: C_31  and  C_37
                            x       y       z     vdW  Elec       q    Type
                         _______ _______ _______ _____ _____    ______ ____

>  <TORSDO>
F 9

$$$$
=
 OpenBabel10262422553D

 37 41  0  0  1  0  0  0  0  0999 V2000
  189.7020  177.8350  136.6500 N   0  0  0  0  0  0  0  0  0  0  0  0
  186.1640  178.2820  139.7130 C   0  0  0  0  0  3  0  0  0  0  0  0
  190.1090  176.6430  138.7810 C   0  0  0  0  0  2  0  0  0  0  0  0
  184.3660  175.5010  137.0340 C   0  0  0  0  0  3  0  0  0  0  0  0
  187.3450  177.3600  139.4940 C   0  0  2  0  0  3  0  0  0  0  0  0
  185.3280  176.4570  137.3710 C   0  0  0  0  0  0  0  0  0  0  0  0
  188.5320  177.7060  140.3730 C   0  0  0  0  0  0  0  0  0  0  0  0
  184.9210  177.8920  137.5250 C   0  0  0  0  0  2  0  0  0  0  0  0
  186.6710  176.0790  137.5200 C   0  0  0  0  0  0  0  0  0  0  0  0
  186.0610  173.7750  137.0610 C   0  0  0  0  0  3  0  0  0  0  0  0
  185.0840  178.4570  138.9180 C   0  0  0  0  0  0  0  0  0  0  0  0
  187.0260  174.7280  137.3960 C   0  0  0  0  0  3  0  0  0  0  0  0
  189.9240  177.7520  139.8020 C   0  0  0  0  0  2  0  0  0  0  0  0
  187.6440  177.1110  138.0080 C   0  0  2  0  0  3  0  0  0  0  0  0
  184.7290  174.1540  136.8730 C   0  0  0  0  0  0  0  0  0  0  0  0
  189.4560  176.4330  136.2640 C   0  0  2  0  0  3  0  0  0  0  0  0
  189.1300  176.8720  137.6330 C   0  0  1  0  0  0  0  0  0  0  0  0
  188.3350  177.8950  141.6850 C   0  0  0  0  0  3  0  0  0  0  0  0
  183.7890  173.1770  136.5340 O   0  0  0  0  0  0  0  0  0  0  0  0
  183.6050  172.7200  135.2000 C   0  0  0  0  0  1  0  0  0  0  0  0
  184.1880  180.6450  138.7710 O   0  0  0  0  0  1  0  0  0  0  0  0
  184.0240  179.4000  139.3810 C   0  0  0  0  0  2  0  0  0  0  0  0
  188.6930  178.6220  135.9500 C   0  0  0  0  0  2  0  0  0  0  0  0
  186.8590  177.9510  134.5970 O   0  0  0  0  0  1  0  0  0  0  0  0
  188.2470  177.8830  134.7040 C   0  0  0  0  0  2  0  0  0  0  0  0
  190.7820  175.6940  136.1530 C   0  0  0  0  0  2  0  0  0  0  0  0
  191.5780  176.2570  134.9940 C   0  0  0  0  0  2  0  0  0  0  0  0
  193.2320  175.8770  136.7900 C   0  0  0  0  0  1  0  0  0  0  0  0
  193.0540  176.1880  135.3190 C   0  0  0  0  0  2  0  0  0  0  0  0
  189.4410  178.2020  142.6480 C   0  0  0  0  0  2  0  0  0  0  0  0
  187.6500  177.7310  144.3320 C   0  0  0  0  0  3  0  0  0  0  0  0
  189.0090  177.8880  144.0390 C   0  0  0  0  0  0  0  0  0  0  0  0
  189.9610  177.7780  145.0590 C   0  0  0  0  0  3  0  0  0  0  0  0
  190.4760  177.3940  147.3550 F   0  0  0  0  0  0  0  0  0  0  0  0
  188.1960  177.3410  146.6600 C   0  0  0  0  0  3  0  0  0  0  0  0
  189.5540  177.5030  146.3680 C   0  0  0  0  0  0  0  0  0  0  0  0
  187.2440  177.4560  145.6410 C   0  0  0  0  0  3  0  0  0  0  0  0
  1 17  1  0  0  0  0
  3 13  1  0  0  0  0
  4  6  1  0  0  0  0
  5  2  1  6  0  0  0
  5  7  1  0  0  0  0
  6  9  2  0  0  0  0
  6  8  1  0  0  0  0
  7 18  2  0  0  0  0
  8 11  1  0  0  0  0
 10 12  2  0  0  0  0
 11 22  1  0  0  0  0
 11  2  2  0  0  0  0
 12  9  1  0  0  0  0
 13  7  1  0  0  0  0
 14  9  1  1  0  0  0
 14  5  1  0  0  0  0
 15  4  2  0  0  0  0
 15 10  1  0  0  0  0
 16 26  1  1  0  0  0
 16  1  1  0  0  0  0
 16 17  1  0  0  0  0
 17 14  1  0  0  0  0
 17  3  1  1  0  0  0
 18 30  1  0  0  0  0
 19 15  1  0  0  0  0
 20 19  1  0  0  0  0
 21 22  1  0  0  0  0
 23  1  1  0  0  0  0
 24 25  1  0  0  0  0
 25 23  1  0  0  0  0
 27 29  1  0  0  0  0
 27 26  1  0  0  0  0
 29 28  1  0  0  0  0
 30 32  1  0  0  0  0
 31 37  1  0  0  0  0
 32 31  2  0  0  0  0
 32 33  1  0  0  0  0
 33 36  2  0  0  0  0
 36 35  1  0  0  0  0
 36 34  1  0  0  0  0
 37 35  2  0  0  0  0
M  END
>  <MODEL>
5

>  <REMARK>
 VINA RESULT:      -6.1      5.457      9.649
  Name = 
  9 active torsions:
  status: ('A' for Active; 'I' for Inactive)
    1  A    between atoms: N_1  and  C_5
    2  A    between atoms: O_3  and  C_32
    3  A    between atoms: C_5  and  C_23
    4  A    between atoms: C_6  and  C_31
    5  A    between atoms: C_17  and  C_26
    6  A    between atoms: C_17  and  C_33
    7  A    between atoms: C_24  and  C_28
    8  A    between atoms: C_26  and  C_34
    9  A    between atoms: C_31  and  C_37
                            x       y       z     vdW  Elec       q    Type
                         _______ _______ _______ _____ _____    ______ ____

>  <TORSDO>
F 9

$$$$
=
 OpenBabel10262422553D

 37 41  0  0  1  0  0  0  0  0999 V2000
  190.5710  175.6130  135.3950 N   0  0  0  0  0  0  0  0  0  0  0  0
  187.5350  177.3370  138.5430 C   0  0  0  0  0  3  0  0  0  0  0  0
  191.0940  174.9350  137.7170 C   0  0  0  0  0  2  0  0  0  0  0  0
  185.0780  174.2910  136.8600 C   0  0  0  0  0  3  0  0  0  0  0  0
  188.5540  176.2190  138.4660 C   0  0  2  0  0  3  0  0  0  0  0  0
  186.1860  175.1420  136.8450 C   0  0  0  0  0  0  0  0  0  0  0  0
  189.8760  176.5850  139.1130 C   0  0  0  0  0  0  0  0  0  0  0  0
  185.9850  176.6150  136.6550 C   0  0  0  0  0  2  0  0  0  0  0  0
  187.4790  174.6110  136.9660 C   0  0  0  0  0  0  0  0  0  0  0  0
  186.5340  172.3860  137.1820 C   0  0  0  0  0  3  0  0  0  0  0  0
  186.3930  177.4740  137.8320 C   0  0  0  0  0  0  0  0  0  0  0  0
  187.6450  173.2330  137.1680 C   0  0  0  0  0  3  0  0  0  0  0  0
  191.1800  176.2750  138.4250 C   0  0  0  0  0  2  0  0  0  0  0  0
  188.6280  175.5700  137.0760 C   0  0  2  0  0  3  0  0  0  0  0  0
  185.2460  172.9070  137.0240 C   0  0  0  0  0  0  0  0  0  0  0  0
  190.1050  174.2140  135.4130 C   0  0  2  0  0  3  0  0  0  0  0  0
  190.0130  175.0210  136.6440 C   0  0  1  0  0  0  0  0  0  0  0  0
  189.8730  177.1190  140.3420 C   0  0  0  0  0  3  0  0  0  0  0  0
  184.1570  172.0320  137.0390 O   0  0  0  0  0  0  0  0  0  0  0  0
  182.8660  172.4050  136.5730 C   0  0  0  0  0  1  0  0  0  0  0  0
  185.5930  178.9730  139.4830 O   0  0  0  0  0  1  0  0  0  0  0  0
  185.5260  178.6530  138.1260 C   0  0  0  0  0  2  0  0  0  0  0  0
  189.5880  176.3480  134.6080 C   0  0  0  0  0  2  0  0  0  0  0  0
  189.3540  178.4100  135.7650 O   0  0  0  0  0  1  0  0  0  0  0  0
  189.9180  177.8270  134.6320 C   0  0  0  0  0  2  0  0  0  0  0  0
  191.3030  173.2770  135.3790 C   0  0  0  0  0  2  0  0  0  0  0  0
  192.4270  173.9220  134.5950 C   0  0  0  0  0  2  0  0  0  0  0  0
  193.5280  172.4220  136.2210 C   0  0  0  0  0  1  0  0  0  0  0  0
  193.7560  173.5000  135.1840 C   0  0  0  0  0  2  0  0  0  0  0  0
  191.1220  177.4800  141.0860 C   0  0  0  0  0  2  0  0  0  0  0  0
  189.8730  178.2340  143.1200 C   0  0  0  0  0  3  0  0  0  0  0  0
  190.8730  177.4350  142.5540 C   0  0  0  0  0  0  0  0  0  0  0  0
  191.6580  176.6140  143.3720 C   0  0  0  0  0  3  0  0  0  0  0  0
  192.1940  175.7890  145.5440 F   0  0  0  0  0  0  0  0  0  0  0  0
  190.4340  177.3810  145.3170 C   0  0  0  0  0  3  0  0  0  0  0  0
  191.4360  176.5860  144.7520 C   0  0  0  0  0  0  0  0  0  0  0  0
  189.6530  178.2050  144.5000 C   0  0  0  0  0  3  0  0  0  0  0  0
  1 16  1  0  0  0  0
  1 17  1  0  0  0  0
  3 13  1  0  0  0  0
  4 15  1  0  0  0  0
  5  2  1  6  0  0  0
  5  7  1  0  0  0  0
  6  4  2  0  0  0  0
  6  9  1  0  0  0  0
  7 18  2  0  0  0  0
  8  6  1  0  0  0  0
  8 11  1  0  0  0  0
  9 12  2  0  0  0  0
 11 22  1  0  0  0  0
 11  2  2  0  0  0  0
 12 10  1  0  0  0  0
 13  7  1  0  0  0  0
 14  9  1  1  0  0  0
 14  5  1  0  0  0  0
 15 19  1  0  0  0  0
 15 10  2  0  0  0  0
 16 26  1  1  0  0  0
 16 17  1  0  0  0  0
 17 14  1  0  0  0  0
 17  3  1  1  0  0  0
 18 30  1  0  0  0  0
 20 19  1  0  0  0  0
 22 21  1  0  0  0  0
 23 25  1  0  0  0  0
 23  1  1  0  0  0  0
 25 24  1  0  0  0  0
 27 29  1  0  0  0  0
 27 26  1  0  0  0  0
 29 28  1  0  0  0  0
 30 32  1  0  0  0  0
 31 37  1  0  0  0  0
 32 31  2  0  0  0  0
 32 33  1  0  0  0  0
 33 36  2  0  0  0  0
 36 35  1  0  0  0  0
 36 34  1  0  0  0  0
 37 35  2  0  0  0  0
M  END
>  <MODEL>
6

>  <REMARK>
 VINA RESULT:      -5.9      6.437     10.594
  Name = 
  9 active torsions:
  status: ('A' for Active; 'I' for Inactive)
    1  A    between atoms: N_1  and  C_5
    2  A    between atoms: O_3  and  C_32
    3  A    between atoms: C_5  and  C_23
    4  A    between atoms: C_6  and  C_31
    5  A    between atoms: C_17  and  C_26
    6  A    between atoms: C_17  and  C_33
    7  A    between atoms: C_24  and  C_28
    8  A    between atoms: C_26  and  C_34
    9  A    between atoms: C_31  and  C_37
                            x       y       z     vdW  Elec       q    Type
                         _______ _______ _______ _____ _____    ______ ____

>  <TORSDO>
F 9

$$$$
=
 OpenBabel10262422553D

 37 41  0  0  1  0  0  0  0  0999 V2000
  180.8020  177.7310  140.9920 N   0  0  0  0  0  0  0  0  0  0  0  0
  184.1420  177.9000  137.6880 C   0  0  0  0  0  3  0  0  0  0  0  0
  182.6210  179.3190  141.5340 C   0  0  0  0  0  2  0  0  0  0  0  0
  181.1040  180.0980  135.6660 C   0  0  0  0  0  3  0  0  0  0  0  0
  183.6600  178.7600  138.8370 C   0  0  2  0  0  3  0  0  0  0  0  0
  181.5520  179.2260  136.6620 C   0  0  0  0  0  0  0  0  0  0  0  0
  184.5010  178.5940  140.0880 C   0  0  0  0  0  0  0  0  0  0  0  0
  182.0150  177.8510  136.2870 C   0  0  0  0  0  2  0  0  0  0  0  0
  181.5260  179.6260  138.0070 C   0  0  0  0  0  0  0  0  0  0  0  0
  180.6660  181.7940  137.3350 C   0  0  0  0  0  3  0  0  0  0  0  0
  183.4770  177.5730  136.5570 C   0  0  0  0  0  0  0  0  0  0  0  0
  181.1130  180.9250  138.3340 C   0  0  0  0  0  3  0  0  0  0  0  0
  183.8510  178.4350  141.4370 C   0  0  0  0  0  2  0  0  0  0  0  0
  182.1360  178.7100  139.0260 C   0  0  2  0  0  3  0  0  0  0  0  0
  180.6550  181.3860  135.9970 C   0  0  0  0  0  0  0  0  0  0  0  0
  180.1660  179.0280  140.7000 C   0  0  2  0  0  3  0  0  0  0  0  0
  181.6150  178.8690  140.4790 C   0  0  1  0  0  0  0  0  0  0  0  0
  185.8360  178.6680  139.9880 C   0  0  0  0  0  3  0  0  0  0  0  0
  180.1980  182.2780  135.0230 O   0  0  0  0  0  0  0  0  0  0  0  0
  180.5560  183.6540  135.0150 C   0  0  0  0  0  1  0  0  0  0  0  0
  185.1120  175.9000  136.1760 O   0  0  0  0  0  1  0  0  0  0  0  0
  184.1930  176.7400  135.5450 C   0  0  0  0  0  2  0  0  0  0  0  0
  180.3460  176.8210  139.9470 C   0  0  0  0  0  2  0  0  0  0  0  0
  179.7710  174.5260  139.7300 O   0  0  0  0  0  1  0  0  0  0  0  0
  179.6550  175.6280  140.5760 C   0  0  0  0  0  2  0  0  0  0  0  0
  179.8150  179.7300  142.0040 C   0  0  0  0  0  2  0  0  0  0  0  0
  178.9310  178.8290  142.8400 C   0  0  0  0  0  2  0  0  0  0  0  0
  180.8660  179.0010  144.3670 C   0  0  0  0  0  1  0  0  0  0  0  0
  179.7800  178.0830  143.8460 C   0  0  0  0  0  2  0  0  0  0  0  0
  186.7570  178.5570  141.1640 C   0  0  0  0  0  2  0  0  0  0  0  0
  189.0450  177.6770  141.6720 C   0  0  0  0  0  3  0  0  0  0  0  0
  188.0910  178.0600  140.7230 C   0  0  0  0  0  0  0  0  0  0  0  0
  188.4010  178.0040  139.3590 C   0  0  0  0  0  3  0  0  0  0  0  0
  189.9570  177.4980  137.6260 F   0  0  0  0  0  0  0  0  0  0  0  0
  190.6100  177.1670  139.8950 C   0  0  0  0  0  3  0  0  0  0  0  0
  189.6590  177.5550  138.9460 C   0  0  0  0  0  0  0  0  0  0  0  0
  190.3030  177.2290  141.2580 C   0  0  0  0  0  3  0  0  0  0  0  0
  4 15  2  0  0  0  0
  4  6  1  0  0  0  0
  5  2  1  6  0  0  0
  5 14  1  0  0  0  0
  5  7  1  0  0  0  0
  6  9  2  0  0  0  0
  7 13  1  0  0  0  0
  8 11  1  0  0  0  0
  8  6  1  0  0  0  0
  9 12  1  0  0  0  0
 10 12  2  0  0  0  0
 11  2  2  0  0  0  0
 13  3  1  0  0  0  0
 14  9  1  6  0  0  0
 14 17  1  0  0  0  0
 15 10  1  0  0  0  0
 16  1  1  0  0  0  0
 16 26  1  1  0  0  0
 17 16  1  0  0  0  0
 17  1  1  0  0  0  0
 17  3  1  1  0  0  0
 18  7  2  0  0  0  0
 18 30  1  0  0  0  0
 19 15  1  0  0  0  0
 20 19  1  0  0  0  0
 22 21  1  0  0  0  0
 22 11  1  0  0  0  0
 23 25  1  0  0  0  0
 23  1  1  0  0  0  0
 24 25  1  0  0  0  0
 26 27  1  0  0  0  0
 27 29  1  0  0  0  0
 29 28  1  0  0  0  0
 32 30  1  0  0  0  0
 32 31  2  0  0  0  0
 33 32  1  0  0  0  0
 34 36  1  0  0  0  0
 35 37  2  0  0  0  0
 36 33  2  0  0  0  0
 36 35  1  0  0  0  0
 37 31  1  0  0  0  0
M  END
>  <MODEL>
7

>  <REMARK>
 VINA RESULT:      -5.7      3.630      8.388
  Name = 
  9 active torsions:
  status: ('A' for Active; 'I' for Inactive)
    1  A    between atoms: N_1  and  C_5
    2  A    between atoms: O_3  and  C_32
    3  A    between atoms: C_5  and  C_23
    4  A    between atoms: C_6  and  C_31
    5  A    between atoms: C_17  and  C_26
    6  A    between atoms: C_17  and  C_33
    7  A    between atoms: C_24  and  C_28
    8  A    between atoms: C_26  and  C_34
    9  A    between atoms: C_31  and  C_37
                            x       y       z     vdW  Elec       q    Type
                         _______ _______ _______ _____ _____    ______ ____

>  <TORSDO>
F 9

$$$$
=
 OpenBabel10262422553D

 37 41  0  0  1  0  0  0  0  0999 V2000
  181.0700  177.5070  140.7940 N   0  0  0  0  0  0  0  0  0  0  0  0
  181.0970  177.6690  136.0960 C   0  0  0  0  0  3  0  0  0  0  0  0
  183.3500  177.4260  139.8350 C   0  0  0  0  0  2  0  0  0  0  0  0
  180.2040  181.7580  136.8900 C   0  0  0  0  0  3  0  0  0  0  0  0
  182.0700  177.9130  137.2300 C   0  0  2  0  0  3  0  0  0  0  0  0
  180.2980  180.4130  137.2580 C   0  0  0  0  0  0  0  0  0  0  0  0
  182.9870  176.7310  137.4820 C   0  0  0  0  0  0  0  0  0  0  0  0
  179.3390  179.4190  136.6750 C   0  0  0  0  0  2  0  0  0  0  0  0
  181.2560  180.0090  138.1990 C   0  0  0  0  0  0  0  0  0  0  0  0
  182.0640  182.2940  138.3430 C   0  0  0  0  0  3  0  0  0  0  0  0
  179.9710  178.3580  135.8020 C   0  0  0  0  0  0  0  0  0  0  0  0
  182.1600  180.9500  138.7140 C   0  0  0  0  0  3  0  0  0  0  0  0
  183.2500  176.2470  138.8830 C   0  0  0  0  0  2  0  0  0  0  0  0
  181.4060  178.5400  138.4660 C   0  0  2  0  0  3  0  0  0  0  0  0
  181.0850  182.7070  137.4340 C   0  0  0  0  0  0  0  0  0  0  0  0
  181.5510  178.8780  141.0450 C   0  0  2  0  0  3  0  0  0  0  0  0
  182.0130  178.1600  139.8420 C   0  0  1  0  0  0  0  0  0  0  0  0
  183.6230  176.1700  136.4440 C   0  0  0  0  0  3  0  0  0  0  0  0
  181.0130  184.0590  137.0870 O   0  0  0  0  0  0  0  0  0  0  0  0
  180.4940  184.5050  135.8410 C   0  0  0  0  0  1  0  0  0  0  0  0
  178.9380  176.5740  134.6330 O   0  0  0  0  0  1  0  0  0  0  0  0
  179.1980  177.9450  134.5940 C   0  0  0  0  0  2  0  0  0  0  0  0
  179.6690  177.6430  140.4130 C   0  0  0  0  0  2  0  0  0  0  0  0
  179.5070  175.4980  139.4030 O   0  0  0  0  0  1  0  0  0  0  0  0
  179.0010  176.2830  140.4380 C   0  0  0  0  0  2  0  0  0  0  0  0
  182.5520  178.8660  142.1910 C   0  0  0  0  0  2  0  0  0  0  0  0
  181.8110  178.9370  143.5090 C   0  0  0  0  0  2  0  0  0  0  0  0
  184.2010  179.0170  144.1310 C   0  0  0  0  0  1  0  0  0  0  0  0
  182.7960  178.7910  144.6480 C   0  0  0  0  0  2  0  0  0  0  0  0
  184.5780  175.0250  136.5860 C   0  0  0  0  0  2  0  0  0  0  0  0
  187.0360  174.6410  136.8640 C   0  0  0  0  0  3  0  0  0  0  0  0
  185.9750  175.5340  136.6780 C   0  0  0  0  0  0  0  0  0  0  0  0
  186.2250  176.9100  136.6080 C   0  0  0  0  0  3  0  0  0  0  0  0
  187.7760  178.7200  136.6430 F   0  0  0  0  0  0  0  0  0  0  0  0
  188.5940  176.4950  136.8940 C   0  0  0  0  0  3  0  0  0  0  0  0
  187.5340  177.3890  136.7140 C   0  0  0  0  0  0  0  0  0  0  0  0
  188.3450  175.1210  136.9690 C   0  0  0  0  0  3  0  0  0  0  0  0
  1 16  1  0  0  0  0
  4  6  2  0  0  0  0
  4 15  1  0  0  0  0
  5  2  1  6  0  0  0
  5  7  1  0  0  0  0
  5 14  1  0  0  0  0
  6  9  1  0  0  0  0
  7 13  1  0  0  0  0
  8  6  1  0  0  0  0
  9 12  2  0  0  0  0
 10 12  1  0  0  0  0
 11  2  2  0  0  0  0
 11  8  1  0  0  0  0
 13  3  1  0  0  0  0
 14  9  1  6  0  0  0
 14 17  1  0  0  0  0
 15 10  2  0  0  0  0
 16 26  1  1  0  0  0
 17  3  1  1  0  0  0
 17  1  1  0  0  0  0
 17 16  1  0  0  0  0
 18 30  1  0  0  0  0
 18  7  2  0  0  0  0
 19 15  1  0  0  0  0
 20 19  1  0  0  0  0
 22 21  1  0  0  0  0
 22 11  1  0  0  0  0
 23 25  1  0  0  0  0
 23  1  1  0  0  0  0
 24 25  1  0  0  0  0
 26 27  1  0  0  0  0
 27 29  1  0  0  0  0
 28 29  1  0  0  0  0
 30 32  1  0  0  0  0
 31 37  1  0  0  0  0
 32 31  2  0  0  0  0
 33 32  1  0  0  0  0
 33 36  2  0  0  0  0
 34 36  1  0  0  0  0
 35 37  2  0  0  0  0
 36 35  1  0  0  0  0
M  END
>  <MODEL>
8

>  <REMARK>
 VINA RESULT:      -5.5      3.087      7.661
  Name = 
  9 active torsions:
  status: ('A' for Active; 'I' for Inactive)
    1  A    between atoms: N_1  and  C_5
    2  A    between atoms: O_3  and  C_32
    3  A    between atoms: C_5  and  C_23
    4  A    between atoms: C_6  and  C_31
    5  A    between atoms: C_17  and  C_26
    6  A    between atoms: C_17  and  C_33
    7  A    between atoms: C_24  and  C_28
    8  A    between atoms: C_26  and  C_34
    9  A    between atoms: C_31  and  C_37
                            x       y       z     vdW  Elec       q    Type
                         _______ _______ _______ _____ _____    ______ ____

>  <TORSDO>
F 9

$$$$
=
 OpenBabel10262422553D

 37 41  0  0  1  0  0  0  0  0999 V2000
  182.8590  175.6430  137.2100 N   0  0  0  0  0  0  0  0  0  0  0  0
  181.5830  179.3030  139.8700 C   0  0  0  0  0  3  0  0  0  0  0  0
  183.0770  177.8130  136.0400 C   0  0  0  0  0  2  0  0  0  0  0  0
  185.3470  178.4580  141.6770 C   0  0  0  0  0  3  0  0  0  0  0  0
  182.4020  179.0590  138.6200 C   0  0  2  0  0  3  0  0  0  0  0  0
  184.2500  178.1240  140.8790 C   0  0  0  0  0  0  0  0  0  0  0  0
  181.6300  179.3460  137.3460 C   0  0  0  0  0  0  0  0  0  0  0  0
  182.9140  177.8900  141.5200 C   0  0  0  0  0  2  0  0  0  0  0  0
  184.4110  177.9680  139.4940 C   0  0  0  0  0  0  0  0  0  0  0  0
  186.7580  178.5500  139.7130 C   0  0  0  0  0  3  0  0  0  0  0  0
  181.8360  178.8770  141.1280 C   0  0  0  0  0  0  0  0  0  0  0  0
  185.6630  178.2150  138.9120 C   0  0  0  0  0  3  0  0  0  0  0  0
  181.6800  178.3900  136.1840 C   0  0  0  0  0  2  0  0  0  0  0  0
  183.1840  177.7370  138.6630 C   0  0  2  0  0  3  0  0  0  0  0  0
  186.6090  178.6690  141.0980 C   0  0  0  0  0  0  0  0  0  0  0  0
  184.3170  175.8630  137.2530 C   0  0  2  0  0  3  0  0  0  0  0  0
  183.4100  177.0240  137.3030 C   0  0  1  0  0  0  0  0  0  0  0  0
  180.9610  180.5030  137.2390 C   0  0  0  0  0  3  0  0  0  0  0  0
  187.7250  179.0010  141.8710 O   0  0  0  0  0  0  0  0  0  0  0  0
  188.6950  178.0410  142.2690 C   0  0  0  0  0  1  0  0  0  0  0  0
  181.2520  178.6960  143.4170 O   0  0  0  0  0  1  0  0  0  0  0  0
  180.8910  179.2900  142.2070 C   0  0  0  0  0  2  0  0  0  0  0  0
  182.5080  175.0660  138.5030 C   0  0  0  0  0  2  0  0  0  0  0  0
  180.2590  175.7300  138.1280 O   0  0  0  0  0  1  0  0  0  0  0  0
  181.0520  174.6460  138.4950 C   0  0  0  0  0  2  0  0  0  0  0  0
  184.9120  175.6070  135.8760 C   0  0  0  0  0  2  0  0  0  0  0  0
  186.4160  175.4750  135.9920 C   0  0  0  0  0  2  0  0  0  0  0  0
  186.1030  173.1970  136.8960 C   0  0  0  0  0  1  0  0  0  0  0  0
  186.7510  174.5440  137.1370 C   0  0  0  0  0  2  0  0  0  0  0  0
  180.1990  180.9020  136.0120 C   0  0  0  0  0  2  0  0  0  0  0  0
  179.4280  182.9990  134.8830 C   0  0  0  0  0  3  0  0  0  0  0  0
  180.2250  182.3830  135.8550 C   0  0  0  0  0  0  0  0  0  0  0  0
  181.0670  183.1590  136.6610 C   0  0  0  0  0  3  0  0  0  0  0  0
  181.9190  185.2970  137.2820 F   0  0  0  0  0  0  0  0  0  0  0  0
  180.3050  185.1620  135.5320 C   0  0  0  0  0  3  0  0  0  0  0  0
  181.1050  184.5470  136.5000 C   0  0  0  0  0  0  0  0  0  0  0  0
  179.4670  184.3870  134.7230 C   0  0  0  0  0  3  0  0  0  0  0  0
  1 16  1  0  0  0  0
  1 17  1  0  0  0  0
  1 23  1  0  0  0  0
  2 11  2  0  0  0  0
  3 13  1  0  0  0  0
  5 14  1  0  0  0  0
  5  2  1  1  0  0  0
  6  8  1  0  0  0  0
  6  4  2  0  0  0  0
  7  5  1  0  0  0  0
  9  6  1  0  0  0  0
 10 15  2  0  0  0  0
 11  8  1  0  0  0  0
 11 22  1  0  0  0  0
 12  9  2  0  0  0  0
 12 10  1  0  0  0  0
 13  7  1  0  0  0  0
 14  9  1  6  0  0  0
 15  4  1  0  0  0  0
 15 19  1  0  0  0  0
 16 26  1  6  0  0  0
 16 17  1  0  0  0  0
 17  3  1  6  0  0  0
 17 14  1  0  0  0  0
 18  7  2  0  0  0  0
 19 20  1  0  0  0  0
 22 21  1  0  0  0  0
 24 25  1  0  0  0  0
 25 23  1  0  0  0  0
 26 27  1  0  0  0  0
 27 29  1  0  0  0  0
 28 29  1  0  0  0  0
 30 18  1  0  0  0  0
 31 32  1  0  0  0  0
 32 30  1  0  0  0  0
 32 33  2  0  0  0  0
 35 36  2  0  0  0  0
 36 33  1  0  0  0  0
 36 34  1  0  0  0  0
 37 31  2  0  0  0  0
 37 35  1  0  0  0  0
M  END
>  <MODEL>
9

>  <REMARK>
 VINA RESULT:      -5.3      1.745      2.195
  Name = 
  9 active torsions:
  status: ('A' for Active; 'I' for Inactive)
    1  A    between atoms: N_1  and  C_5
    2  A    between atoms: O_3  and  C_32
    3  A    between atoms: C_5  and  C_23
    4  A    between atoms: C_6  and  C_31
    5  A    between atoms: C_17  and  C_26
    6  A    between atoms: C_17  and  C_33
    7  A    between atoms: C_24  and  C_28
    8  A    between atoms: C_26  and  C_34
    9  A    between atoms: C_31  and  C_37
                            x       y       z     vdW  Elec       q    Type
                         _______ _______ _______ _____ _____    ______ ____

>  <TORSDO>
F 9

$$$$
