=
 OpenBabel10262419213D

 31 33  0  0  1  0  0  0  0  0999 V2000
  185.1140  178.4600  145.1490 C   0  0  0  0  0  0  0  0  0  0  0  0
  188.8780  177.8840  144.7470 C   0  0  2  0  0  3  0  0  0  0  0  0
  189.2910  177.3290  146.0910 C   0  0  0  0  0  0  0  0  0  0  0  0
  187.3970  177.9960  144.4590 C   0  0  0  0  0  0  0  0  0  0  0  0
  184.7060  178.4650  143.8120 C   0  0  0  0  0  3  0  0  0  0  0  0
  188.4760  176.9160  146.9040 O   0  0  0  0  0  0  0  0  0  0  0  0
  189.1690  177.4780  142.2720 C   0  0  0  0  0  0  0  0  0  0  0  0
  184.1640  178.6880  146.1830 N   0  0  0  0  0  1  0  0  0  0  0  0
  191.5000  176.5760  145.2150 C   0  0  0  0  0  2  0  0  0  0  0  0
  187.9430  177.8680  142.0570 N   0  0  0  0  0  0  0  0  0  0  0  0
  189.6030  177.0760  143.6590 C   0  0  1  0  0  3  0  0  0  0  0  0
  186.4560  178.2470  145.4700 C   0  0  0  0  0  3  0  0  0  0  0  0
  186.9840  178.0300  143.1120 C   0  0  0  0  0  0  0  0  0  0  0  0
  185.6420  178.2580  142.7950 C   0  0  0  0  0  3  0  0  0  0  0  0
  191.1160  177.1830  143.8610 C   0  0  0  0  0  2  0  0  0  0  0  0
  190.7720  177.2730  146.3720 C   0  0  2  0  0  3  0  0  0  0  0  0
  190.0650  177.3450  141.2070 O   0  0  0  0  0  0  0  0  0  0  0  0
  189.7500  176.6100  140.0320 C   0  0  0  0  0  2  0  0  0  0  0  0
  190.1050  177.4240  138.7980 C   0  0  0  0  0  2  0  0  0  0  0  0
  189.0520  178.4900  138.5190 C   0  0  0  0  0  2  0  0  0  0  0  0
  187.6410  177.9300  138.6320 C   0  0  0  0  0  2  0  0  0  0  0  0
  187.2190  178.6900  136.4740 C   0  0  0  0  0  1  0  0  0  0  0  0
  186.7190  178.7230  137.8360 N   0  0  0  0  0  0  0  0  0  0  0  0
  185.4490  178.0100  137.8250 C   0  0  0  0  0  2  0  0  0  0  0  0
  184.4950  178.5560  138.8840 C   0  0  2  0  0  3  0  0  0  0  0  0
  183.0490  178.3940  138.4500 C   0  0  0  0  0  1  0  0  0  0  0  0
  184.7650  179.8990  139.1420 O   0  0  0  0  0  1  0  0  0  0  0  0
  191.0460  176.5700  147.6170 N   0  0  0  0  0  2  0  0  0  0  0  0
  192.1570  175.6670  147.3610 C   0  0  0  0  0  2  0  0  0  0  0  0
  193.2240  176.7650  149.1530 O   0  0  0  0  0  0  0  0  0  0  0  0
  193.1450  175.7520  148.4770 C   0  0  0  0  0  3  0  0  0  0  0  0
  1 12  1  0  0  0  0
  1  8  1  0  0  0  0
  2  4  1  6  0  0  0
  2  3  1  0  0  0  0
  3 16  1  0  0  0  0
  3  6  2  0  0  0  0
  4 12  2  0  0  0  0
  5  1  2  0  0  0  0
  7 11  1  0  0  0  0
  9 16  1  0  0  0  0
 10  7  2  0  0  0  0
 10 13  1  0  0  0  0
 11 15  1  6  0  0  0
 11  2  1  0  0  0  0
 13  4  1  0  0  0  0
 14 13  2  0  0  0  0
 14  5  1  0  0  0  0
 15  9  1  0  0  0  0
 16 28  1  1  0  0  0
 17  7  1  0  0  0  0
 18 17  1  0  0  0  0
 19 18  1  0  0  0  0
 20 21  1  0  0  0  0
 20 19  1  0  0  0  0
 22 23  1  0  0  0  0
 23 21  1  0  0  0  0
 24 23  1  0  0  0  0
 24 25  1  0  0  0  0
 25 26  1  6  0  0  0
 25 27  1  0  0  0  0
 29 28  1  0  0  0  0
 29 31  1  0  0  0  0
 31 30  2  0  0  0  0
M  END
>  <MODEL>
1

>  <REMARK>
 VINA RESULT:      -8.2      0.000      0.000
  Name = 
  11 active torsions:
  status: ('A' for Active; 'I' for Inactive)
    1  A    between atoms: C_1  and  C_24
    2  A    between atoms: C_3  and  C_9
    3  A    between atoms: C_3  and  C_22
    4  A    between atoms: C_7  and  C_9
    5  A    between atoms: C_7  and  O_23
    6  A    between atoms: C_15  and  O_23
    7  A    between atoms: C_18  and  C_26
    8  A    between atoms: N_19  and  C_22
    9  A    between atoms: N_19  and  C_24
   10  A    between atoms: C_26  and  N_31
   11  A    between atoms: C_30  and  N_31
                            x       y       z     vdW  Elec       q    Type
                         _______ _______ _______ _____ _____    ______ ____

>  <TORSDO>
F 11

$$$$
=
 OpenBabel10262419213D

 31 33  0  0  1  0  0  0  0  0999 V2000
  188.2500  177.7060  148.0090 C   0  0  0  0  0  0  0  0  0  0  0  0
  186.4810  177.7140  144.6120 C   0  0  2  0  0  3  0  0  0  0  0  0
  185.2720  178.5880  144.8500 C   0  0  0  0  0  0  0  0  0  0  0  0
  187.5510  177.6890  145.6810 C   0  0  0  0  0  0  0  0  0  0  0  0
  189.5470  177.3550  147.6270 C   0  0  0  0  0  3  0  0  0  0  0  0
  185.1740  179.3110  145.8330 O   0  0  0  0  0  0  0  0  0  0  0  0
  188.3490  177.3400  142.9550 C   0  0  0  0  0  0  0  0  0  0  0  0
  187.9410  177.9000  149.3840 N   0  0  0  0  0  1  0  0  0  0  0  0
  184.8160  178.7990  142.4090 C   0  0  0  0  0  2  0  0  0  0  0  0
  189.1630  177.0430  143.9290 N   0  0  0  0  0  0  0  0  0  0  0  0
  187.0660  178.0800  143.2390 C   0  0  1  0  0  3  0  0  0  0  0  0
  187.2520  177.8520  147.0430 C   0  0  0  0  0  3  0  0  0  0  0  0
  188.8560  177.3070  145.3060 C   0  0  0  0  0  0  0  0  0  0  0  0
  189.8470  177.1480  146.2770 C   0  0  0  0  0  3  0  0  0  0  0  0
  186.0070  177.8680  142.1560 C   0  0  0  0  0  2  0  0  0  0  0  0
  184.1980  178.5590  143.7920 C   0  0  2  0  0  3  0  0  0  0  0  0
  188.6970  177.0540  141.6320 O   0  0  0  0  0  0  0  0  0  0  0  0
  189.9220  177.4850  141.0530 C   0  0  0  0  0  2  0  0  0  0  0  0
  189.8900  177.2760  139.5480 C   0  0  0  0  0  2  0  0  0  0  0  0
  188.9660  178.2820  138.8720 C   0  0  0  0  0  2  0  0  0  0  0  0
  187.6730  177.6300  138.4040 C   0  0  0  0  0  2  0  0  0  0  0  0
  187.2140  178.8180  136.4570 C   0  0  0  0  0  1  0  0  0  0  0  0
  186.7840  178.6270  137.8300 N   0  0  0  0  0  0  0  0  0  0  0  0
  185.4590  178.0260  137.7650 C   0  0  0  0  0  2  0  0  0  0  0  0
  184.5280  178.6160  138.8210 C   0  0  2  0  0  3  0  0  0  0  0  0
  183.0740  178.3670  138.4670 C   0  0  0  0  0  1  0  0  0  0  0  0
  184.7540  179.9850  138.9640 O   0  0  0  0  0  1  0  0  0  0  0  0
  183.1740  179.5610  144.0510 N   0  0  0  0  0  2  0  0  0  0  0  0
  181.8890  178.8840  143.9930 C   0  0  0  0  0  2  0  0  0  0  0  0
  180.3920  180.2960  142.8450 O   0  0  0  0  0  0  0  0  0  0  0  0
  181.1360  179.3290  142.7850 C   0  0  0  0  0  3  0  0  0  0  0  0
  1  8  1  0  0  0  0
  2  3  1  1  0  0  0
  2  4  1  0  0  0  0
  3  6  2  0  0  0  0
  4 12  1  0  0  0  0
  5  1  1  0  0  0  0
  7 11  1  0  0  0  0
  7 10  2  0  0  0  0
  9 16  1  0  0  0  0
 10 13  1  0  0  0  0
 11 15  1  6  0  0  0
 11  2  1  0  0  0  0
 12  1  2  0  0  0  0
 13  4  2  0  0  0  0
 13 14  1  0  0  0  0
 14  5  2  0  0  0  0
 15  9  1  0  0  0  0
 16 28  1  1  0  0  0
 16  3  1  0  0  0  0
 17  7  1  0  0  0  0
 18 17  1  0  0  0  0
 19 18  1  0  0  0  0
 20 19  1  0  0  0  0
 21 20  1  0  0  0  0
 22 23  1  0  0  0  0
 23 21  1  0  0  0  0
 24 23  1  0  0  0  0
 24 25  1  0  0  0  0
 25 26  1  6  0  0  0
 25 27  1  0  0  0  0
 29 28  1  0  0  0  0
 31 30  2  0  0  0  0
 31 29  1  0  0  0  0
M  END
>  <MODEL>
2

>  <REMARK>
 VINA RESULT:      -8.0      2.341      5.523
  Name = 
  11 active torsions:
  status: ('A' for Active; 'I' for Inactive)
    1  A    between atoms: C_1  and  C_24
    2  A    between atoms: C_3  and  C_9
    3  A    between atoms: C_3  and  C_22
    4  A    between atoms: C_7  and  C_9
    5  A    between atoms: C_7  and  O_23
    6  A    between atoms: C_15  and  O_23
    7  A    between atoms: C_18  and  C_26
    8  A    between atoms: N_19  and  C_22
    9  A    between atoms: N_19  and  C_24
   10  A    between atoms: C_26  and  N_31
   11  A    between atoms: C_30  and  N_31
                            x       y       z     vdW  Elec       q    Type
                         _______ _______ _______ _____ _____    ______ ____

>  <TORSDO>
F 11

$$$$
=
 OpenBabel10262419213D

 31 33  0  0  1  0  0  0  0  0999 V2000
  187.3860  178.2380  139.8530 C   0  0  0  0  0  0  0  0  0  0  0  0
  184.9900  178.8870  142.7690 C   0  0  2  0  0  3  0  0  0  0  0  0
  183.6240  178.7310  142.1390 C   0  0  0  0  0  0  0  0  0  0  0  0
  186.1900  178.4520  141.9580 C   0  0  0  0  0  0  0  0  0  0  0  0
  188.5490  177.8870  140.5440 C   0  0  0  0  0  3  0  0  0  0  0  0
  183.4680  178.2110  141.0430 O   0  0  0  0  0  0  0  0  0  0  0  0
  186.3130  178.1990  144.8060 C   0  0  0  0  0  0  0  0  0  0  0  0
  187.3960  178.3050  138.4320 N   0  0  0  0  0  1  0  0  0  0  0  0
  182.5000  178.6210  144.3610 C   0  0  0  0  0  2  0  0  0  0  0  0
  187.3950  178.1190  144.0840 N   0  0  0  0  0  0  0  0  0  0  0  0
  184.9580  178.1980  144.1420 C   0  0  1  0  0  3  0  0  0  0  0  0
  186.2180  178.5390  140.5570 C   0  0  0  0  0  3  0  0  0  0  0  0
  187.3740  178.1240  142.6490 C   0  0  0  0  0  0  0  0  0  0  0  0
  188.5440  177.8370  141.9410 C   0  0  0  0  0  3  0  0  0  0  0  0
  183.8710  178.8340  145.0110 C   0  0  0  0  0  2  0  0  0  0  0  0
  182.4480  179.2170  142.9480 C   0  0  2  0  0  3  0  0  0  0  0  0
  186.3920  178.1970  146.2010 O   0  0  0  0  0  0  0  0  0  0  0  0
  187.3140  177.3810  146.9130 C   0  0  0  0  0  2  0  0  0  0  0  0
  187.8940  178.1530  148.0870 C   0  0  0  0  0  2  0  0  0  0  0  0
  189.4090  178.0030  148.1510 C   0  0  0  0  0  2  0  0  0  0  0  0
  189.8840  176.7720  147.3920 C   0  0  0  0  0  2  0  0  0  0  0  0
  191.9960  176.0050  146.7880 C   0  0  0  0  0  1  0  0  0  0  0  0
  191.0570  177.0940  146.5940 N   0  0  0  0  0  0  0  0  0  0  0  0
  190.6460  177.0380  145.1980 C   0  0  0  0  0  2  0  0  0  0  0  0
  191.6400  177.7630  144.2950 C   0  0  2  0  0  3  0  0  0  0  0  0
  191.1860  179.1830  144.0140 C   0  0  0  0  0  1  0  0  0  0  0  0
  191.8100  177.0710  143.0960 O   0  0  0  0  0  1  0  0  0  0  0  0
  181.1870  178.8610  142.3130 N   0  0  0  0  0  2  0  0  0  0  0  0
  180.1280  179.1910  143.2520 C   0  0  0  0  0  2  0  0  0  0  0  0
  179.7330  180.9970  141.7900 O   0  0  0  0  0  0  0  0  0  0  0  0
  179.5170  180.5030  142.8850 C   0  0  0  0  0  3  0  0  0  0  0  0
  1  5  2  0  0  0  0
  1 12  1  0  0  0  0
  2  4  1  6  0  0  0
  2 11  1  0  0  0  0
  3  2  1  0  0  0  0
  3 16  1  0  0  0  0
  4 13  1  0  0  0  0
  5 14  1  0  0  0  0
  6  3  2  0  0  0  0
  7 17  1  0  0  0  0
  8  1  1  0  0  0  0
  9 15  1  0  0  0  0
 10  7  2  0  0  0  0
 11  7  1  0  0  0  0
 11 15  1  1  0  0  0
 12  4  2  0  0  0  0
 13 10  1  0  0  0  0
 14 13  2  0  0  0  0
 16 28  1  6  0  0  0
 16  9  1  0  0  0  0
 17 18  1  0  0  0  0
 18 19  1  0  0  0  0
 19 20  1  0  0  0  0
 21 20  1  0  0  0  0
 23 22  1  0  0  0  0
 23 21  1  0  0  0  0
 24 23  1  0  0  0  0
 25 26  1  6  0  0  0
 25 24  1  0  0  0  0
 27 25  1  0  0  0  0
 28 29  1  0  0  0  0
 30 31  2  0  0  0  0
 31 29  1  0  0  0  0
M  END
>  <MODEL>
3

>  <REMARK>
 VINA RESULT:      -8.0      2.500      8.615
  Name = 
  11 active torsions:
  status: ('A' for Active; 'I' for Inactive)
    1  A    between atoms: C_1  and  C_24
    2  A    between atoms: C_3  and  C_9
    3  A    between atoms: C_3  and  C_22
    4  A    between atoms: C_7  and  C_9
    5  A    between atoms: C_7  and  O_23
    6  A    between atoms: C_15  and  O_23
    7  A    between atoms: C_18  and  C_26
    8  A    between atoms: N_19  and  C_22
    9  A    between atoms: N_19  and  C_24
   10  A    between atoms: C_26  and  N_31
   11  A    between atoms: C_30  and  N_31
                            x       y       z     vdW  Elec       q    Type
                         _______ _______ _______ _____ _____    ______ ____

>  <TORSDO>
F 11

$$$$
=
 OpenBabel10262419213D

 31 33  0  0  1  0  0  0  0  0999 V2000
  190.9390  176.7190  146.7820 C   0  0  0  0  0  0  0  0  0  0  0  0
  189.0850  177.8170  143.6160 C   0  0  2  0  0  3  0  0  0  0  0  0
  189.9430  177.2660  142.5000 C   0  0  0  0  0  0  0  0  0  0  0  0
  189.3850  177.3570  145.0260 C   0  0  0  0  0  0  0  0  0  0  0  0
  189.9070  176.7780  147.7230 C   0  0  0  0  0  3  0  0  0  0  0  0
  190.8090  176.4250  142.6990 O   0  0  0  0  0  0  0  0  0  0  0  0
  186.6750  177.9850  144.3520 C   0  0  0  0  0  0  0  0  0  0  0  0
  192.2540  176.3600  147.1900 N   0  0  0  0  0  1  0  0  0  0  0  0
  188.1580  177.6450  140.8030 C   0  0  0  0  0  2  0  0  0  0  0  0
  187.0410  177.8670  145.5980 N   0  0  0  0  0  0  0  0  0  0  0  0
  187.6130  177.5720  143.2460 C   0  0  1  0  0  3  0  0  0  0  0  0
  190.6830  177.0260  145.4440 C   0  0  0  0  0  3  0  0  0  0  0  0
  188.3550  177.4410  145.9850 C   0  0  0  0  0  0  0  0  0  0  0  0
  188.6190  177.1470  147.3250 C   0  0  0  0  0  3  0  0  0  0  0  0
  187.2980  178.2570  141.9140 C   0  0  0  0  0  2  0  0  0  0  0  0
  189.6540  177.7780  141.1120 C   0  0  2  0  0  3  0  0  0  0  0  0
  185.3830  178.4110  144.0320 O   0  0  0  0  0  0  0  0  0  0  0  0
  184.4020  178.6880  145.0230 C   0  0  0  0  0  2  0  0  0  0  0  0
  183.0820  179.0490  144.3640 C   0  0  0  0  0  2  0  0  0  0  0  0
  183.1980  179.0180  142.8440 C   0  0  0  0  0  2  0  0  0  0  0  0
  181.8750  178.6490  142.1870 C   0  0  0  0  0  2  0  0  0  0  0  0
  181.4150  179.3730  140.0250 C   0  0  0  0  0  1  0  0  0  0  0  0
  182.0810  178.3310  140.7840 N   0  0  0  0  0  0  0  0  0  0  0  0
  183.5070  178.4790  140.5210 C   0  0  0  0  0  2  0  0  0  0  0  0
  183.7610  179.0190  139.1170 C   0  0  2  0  0  3  0  0  0  0  0  0
  184.2750  177.9260  138.1980 C   0  0  0  0  0  1  0  0  0  0  0  0
  184.6710  180.0760  139.1540 O   0  0  0  0  0  1  0  0  0  0  0  0
  190.4260  177.0530  140.1120 N   0  0  0  0  0  2  0  0  0  0  0  0
  189.6590  177.0820  138.8770 C   0  0  0  0  0  2  0  0  0  0  0  0
  190.6610  175.0240  138.3170 O   0  0  0  0  0  0  0  0  0  0  0  0
  190.2120  176.0850  137.9140 C   0  0  0  0  0  3  0  0  0  0  0  0
  1  8  1  0  0  0  0
  1  5  1  0  0  0  0
  2  3  1  6  0  0  0
  2  4  1  0  0  0  0
  3  6  2  0  0  0  0
  4 12  1  0  0  0  0
  4 13  2  0  0  0  0
  7 10  2  0  0  0  0
  9 16  1  0  0  0  0
  9 15  1  0  0  0  0
 10 13  1  0  0  0  0
 11 15  1  6  0  0  0
 11  2  1  0  0  0  0
 11  7  1  0  0  0  0
 12  1  2  0  0  0  0
 13 14  1  0  0  0  0
 14  5  2  0  0  0  0
 16 28  1  6  0  0  0
 16  3  1  0  0  0  0
 17  7  1  0  0  0  0
 17 18  1  0  0  0  0
 19 18  1  0  0  0  0
 20 19  1  0  0  0  0
 21 20  1  0  0  0  0
 22 23  1  0  0  0  0
 23 21  1  0  0  0  0
 24 23  1  0  0  0  0
 25 26  1  6  0  0  0
 25 27  1  0  0  0  0
 25 24  1  0  0  0  0
 29 28  1  0  0  0  0
 31 30  2  0  0  0  0
 31 29  1  0  0  0  0
M  END
>  <MODEL>
4

>  <REMARK>
 VINA RESULT:      -7.8      2.319      6.000
  Name = 
  11 active torsions:
  status: ('A' for Active; 'I' for Inactive)
    1  A    between atoms: C_1  and  C_24
    2  A    between atoms: C_3  and  C_9
    3  A    between atoms: C_3  and  C_22
    4  A    between atoms: C_7  and  C_9
    5  A    between atoms: C_7  and  O_23
    6  A    between atoms: C_15  and  O_23
    7  A    between atoms: C_18  and  C_26
    8  A    between atoms: N_19  and  C_22
    9  A    between atoms: N_19  and  C_24
   10  A    between atoms: C_26  and  N_31
   11  A    between atoms: C_30  and  N_31
                            x       y       z     vdW  Elec       q    Type
                         _______ _______ _______ _____ _____    ______ ____

>  <TORSDO>
F 11

$$$$
=
 OpenBabel10262419213D

 31 33  0  0  1  0  0  0  0  0999 V2000
  185.4850  178.4600  145.2250 C   0  0  0  0  0  0  0  0  0  0  0  0
  189.1600  177.4660  144.8120 C   0  0  2  0  0  3  0  0  0  0  0  0
  189.5690  177.0560  146.2070 C   0  0  0  0  0  0  0  0  0  0  0  0
  187.6860  177.6850  144.5480 C   0  0  0  0  0  0  0  0  0  0  0  0
  185.0290  178.3280  143.9100 C   0  0  0  0  0  3  0  0  0  0  0  0
  188.7490  176.8360  147.0890 O   0  0  0  0  0  0  0  0  0  0  0  0
  189.3180  176.7110  142.4070 C   0  0  0  0  0  0  0  0  0  0  0  0
  184.6000  178.9150  146.2410 N   0  0  0  0  0  1  0  0  0  0  0  0
  191.6620  175.9790  145.3870 C   0  0  0  0  0  2  0  0  0  0  0  0
  188.1270  177.1880  142.1720 N   0  0  0  0  0  0  0  0  0  0  0  0
  189.7640  176.4540  143.8250 C   0  0  1  0  0  3  0  0  0  0  0  0
  186.8120  178.1590  145.5380 C   0  0  0  0  0  3  0  0  0  0  0  0
  187.2280  177.5820  143.2190 C   0  0  0  0  0  0  0  0  0  0  0  0
  185.9030  177.8970  142.9070 C   0  0  0  0  0  3  0  0  0  0  0  0
  191.2860  176.4370  143.9740 C   0  0  0  0  0  2  0  0  0  0  0  0
  191.0470  176.8910  146.4570 C   0  0  2  0  0  3  0  0  0  0  0  0
  190.1560  176.3500  141.3490 O   0  0  0  0  0  0  0  0  0  0  0  0
  190.2740  177.1310  140.1670 C   0  0  0  0  0  2  0  0  0  0  0  0
  191.7130  177.1250  139.6790 C   0  0  0  0  0  2  0  0  0  0  0  0
  191.8110  176.5880  138.2570 C   0  0  0  0  0  2  0  0  0  0  0  0
  190.6010  175.7400  137.8920 C   0  0  0  0  0  2  0  0  0  0  0  0
  189.9220  175.0890  135.7630 C   0  0  0  0  0  1  0  0  0  0  0  0
  189.9980  176.2270  136.6610 N   0  0  0  0  0  0  0  0  0  0  0  0
  188.6230  176.5910  136.9800 C   0  0  0  0  0  2  0  0  0  0  0  0
  188.2730  177.9730  136.4350 C   0  0  2  0  0  3  0  0  0  0  0  0
  189.0380  179.0580  137.1700 C   0  0  0  0  0  1  0  0  0  0  0  0
  186.9020  178.2070  136.5360 O   0  0  0  0  0  1  0  0  0  0  0  0
  191.3000  176.3340  147.7780 N   0  0  0  0  0  2  0  0  0  0  0  0
  192.7020  175.9520  147.8190 C   0  0  0  0  0  2  0  0  0  0  0  0
  193.9490  176.9950  149.5260 O   0  0  0  0  0  0  0  0  0  0  0  0
  193.2180  176.0670  149.2150 C   0  0  0  0  0  3  0  0  0  0  0  0
  1 12  1  0  0  0  0
  1  8  1  0  0  0  0
  2  4  1  1  0  0  0
  2  3  1  0  0  0  0
  3 16  1  0  0  0  0
  3  6  2  0  0  0  0
  4 12  2  0  0  0  0
  5  1  2  0  0  0  0
  7 11  1  0  0  0  0
  9 16  1  0  0  0  0
 10  7  2  0  0  0  0
 10 13  1  0  0  0  0
 11 15  1  6  0  0  0
 11  2  1  0  0  0  0
 13  4  1  0  0  0  0
 14 13  2  0  0  0  0
 14  5  1  0  0  0  0
 15  9  1  0  0  0  0
 16 28  1  1  0  0  0
 17  7  1  0  0  0  0
 18 17  1  0  0  0  0
 19 18  1  0  0  0  0
 20 19  1  0  0  0  0
 21 20  1  0  0  0  0
 22 23  1  0  0  0  0
 23 24  1  0  0  0  0
 23 21  1  0  0  0  0
 25 27  1  0  0  0  0
 25 24  1  0  0  0  0
 25 26  1  1  0  0  0
 28 29  1  0  0  0  0
 29 31  1  0  0  0  0
 31 30  2  0  0  0  0
M  END
>  <MODEL>
5

>  <REMARK>
 VINA RESULT:      -7.5      1.873      2.286
  Name = 
  11 active torsions:
  status: ('A' for Active; 'I' for Inactive)
    1  A    between atoms: C_1  and  C_24
    2  A    between atoms: C_3  and  C_9
    3  A    between atoms: C_3  and  C_22
    4  A    between atoms: C_7  and  C_9
    5  A    between atoms: C_7  and  O_23
    6  A    between atoms: C_15  and  O_23
    7  A    between atoms: C_18  and  C_26
    8  A    between atoms: N_19  and  C_22
    9  A    between atoms: N_19  and  C_24
   10  A    between atoms: C_26  and  N_31
   11  A    between atoms: C_30  and  N_31
                            x       y       z     vdW  Elec       q    Type
                         _______ _______ _______ _____ _____    ______ ____

>  <TORSDO>
F 11

$$$$
=
 OpenBabel10262419213D

 31 33  0  0  1  0  0  0  0  0999 V2000
  188.1160  177.6870  147.4580 C   0  0  0  0  0  0  0  0  0  0  0  0
  186.0830  177.8520  144.2160 C   0  0  2  0  0  3  0  0  0  0  0  0
  184.8240  178.5780  144.6310 C   0  0  0  0  0  0  0  0  0  0  0  0
  187.2350  177.8270  145.1980 C   0  0  0  0  0  0  0  0  0  0  0  0
  189.4040  177.5020  146.9490 C   0  0  0  0  0  3  0  0  0  0  0  0
  184.7420  179.1890  145.6880 O   0  0  0  0  0  0  0  0  0  0  0  0
  187.8360  177.8230  142.3990 C   0  0  0  0  0  0  0  0  0  0  0  0
  187.9040  177.7160  148.8640 N   0  0  0  0  0  1  0  0  0  0  0  0
  184.1540  178.9780  142.2640 C   0  0  0  0  0  2  0  0  0  0  0  0
  188.7500  177.5140  143.2760 N   0  0  0  0  0  0  0  0  0  0  0  0
  186.5190  178.4040  142.8510 C   0  0  1  0  0  3  0  0  0  0  0  0
  187.0340  177.8290  146.5870 C   0  0  0  0  0  3  0  0  0  0  0  0
  188.5330  177.6120  144.6920 C   0  0  0  0  0  0  0  0  0  0  0  0
  189.6100  177.4570  145.5670 C   0  0  0  0  0  3  0  0  0  0  0  0
  185.3980  178.1960  141.8300 C   0  0  0  0  0  2  0  0  0  0  0  0
  183.6740  178.5470  143.6560 C   0  0  2  0  0  3  0  0  0  0  0  0
  188.0990  177.7010  141.0320 O   0  0  0  0  0  0  0  0  0  0  0  0
  188.8930  178.6410  140.3200 C   0  0  0  0  0  2  0  0  0  0  0  0
  189.3740  178.0330  139.0130 C   0  0  0  0  0  2  0  0  0  0  0  0
  190.0840  176.7060  139.2500 C   0  0  0  0  0  2  0  0  0  0  0  0
  190.9490  176.3120  138.0620 C   0  0  0  0  0  2  0  0  0  0  0  0
  190.2690  174.2840  137.1460 C   0  0  0  0  0  1  0  0  0  0  0  0
  191.2070  174.8810  138.0790 N   0  0  0  0  0  0  0  0  0  0  0  0
  192.5340  174.6830  137.5110 C   0  0  0  0  0  2  0  0  0  0  0  0
  193.3250  175.9880  137.4780 C   0  0  2  0  0  3  0  0  0  0  0  0
  193.9640  176.2030  136.1180 C   0  0  0  0  0  1  0  0  0  0  0  0
  194.3040  175.9930  138.4700 O   0  0  0  0  0  1  0  0  0  0  0  0
  182.5900  179.4150  144.0910 N   0  0  0  0  0  2  0  0  0  0  0  0
  181.4610  179.1620  143.2110 C   0  0  0  0  0  2  0  0  0  0  0  0
  179.6800  177.6700  143.6110 O   0  0  0  0  0  0  0  0  0  0  0  0
  180.3080  178.6410  144.0030 C   0  0  0  0  0  3  0  0  0  0  0  0
  1  8  1  0  0  0  0
  2  3  1  1  0  0  0
  2  4  1  0  0  0  0
  3  6  2  0  0  0  0
  4 12  1  0  0  0  0
  5  1  1  0  0  0  0
  7 11  1  0  0  0  0
  7 10  2  0  0  0  0
  9 16  1  0  0  0  0
 10 13  1  0  0  0  0
 11 15  1  6  0  0  0
 11  2  1  0  0  0  0
 12  1  2  0  0  0  0
 13  4  2  0  0  0  0
 13 14  1  0  0  0  0
 14  5  2  0  0  0  0
 15  9  1  0  0  0  0
 16 28  1  1  0  0  0
 16  3  1  0  0  0  0
 17  7  1  0  0  0  0
 18 17  1  0  0  0  0
 19 20  1  0  0  0  0
 19 18  1  0  0  0  0
 21 23  1  0  0  0  0
 21 20  1  0  0  0  0
 22 23  1  0  0  0  0
 24 23  1  0  0  0  0
 25 26  1  6  0  0  0
 25 24  1  0  0  0  0
 25 27  1  0  0  0  0
 29 31  1  0  0  0  0
 29 28  1  0  0  0  0
 30 31  2  0  0  0  0
M  END
>  <MODEL>
6

>  <REMARK>
 VINA RESULT:      -7.5      3.115      6.854
  Name = 
  11 active torsions:
  status: ('A' for Active; 'I' for Inactive)
    1  A    between atoms: C_1  and  C_24
    2  A    between atoms: C_3  and  C_9
    3  A    between atoms: C_3  and  C_22
    4  A    between atoms: C_7  and  C_9
    5  A    between atoms: C_7  and  O_23
    6  A    between atoms: C_15  and  O_23
    7  A    between atoms: C_18  and  C_26
    8  A    between atoms: N_19  and  C_22
    9  A    between atoms: N_19  and  C_24
   10  A    between atoms: C_26  and  N_31
   11  A    between atoms: C_30  and  N_31
                            x       y       z     vdW  Elec       q    Type
                         _______ _______ _______ _____ _____    ______ ____

>  <TORSDO>
F 11

$$$$
=
 OpenBabel10262419213D

 31 33  0  0  1  0  0  0  0  0999 V2000
  185.1540  178.4580  145.4040 C   0  0  0  0  0  0  0  0  0  0  0  0
  188.8680  177.7220  144.8320 C   0  0  2  0  0  3  0  0  0  0  0  0
  189.3330  177.2110  146.1760 C   0  0  0  0  0  0  0  0  0  0  0  0
  187.3790  177.8780  144.6170 C   0  0  0  0  0  0  0  0  0  0  0  0
  184.6750  178.4210  144.0910 C   0  0  0  0  0  3  0  0  0  0  0  0
  188.5490  176.8640  147.0480 O   0  0  0  0  0  0  0  0  0  0  0  0
  189.0110  177.2000  142.3650 C   0  0  0  0  0  0  0  0  0  0  0  0
  184.2700  178.7660  146.4750 N   0  0  0  0  0  1  0  0  0  0  0  0
  191.4630  176.3370  145.2200 C   0  0  0  0  0  2  0  0  0  0  0  0
  187.7900  177.6270  142.1980 N   0  0  0  0  0  0  0  0  0  0  0  0
  189.5040  176.8420  143.7450 C   0  0  1  0  0  3  0  0  0  0  0  0
  186.5030  178.2080  145.6630 C   0  0  0  0  0  3  0  0  0  0  0  0
  186.8950  177.8700  143.2930 C   0  0  0  0  0  0  0  0  0  0  0  0
  185.5470  178.1350  143.0370 C   0  0  0  0  0  3  0  0  0  0  0  0
  191.0290  176.9000  143.8630 C   0  0  0  0  0  2  0  0  0  0  0  0
  190.8240  177.1100  146.3810 C   0  0  2  0  0  3  0  0  0  0  0  0
  189.8420  176.9870  141.2630 O   0  0  0  0  0  0  0  0  0  0  0  0
  189.8870  177.8790  140.1560 C   0  0  0  0  0  2  0  0  0  0  0  0
  189.5630  177.1320  138.8720 C   0  0  0  0  0  2  0  0  0  0  0  0
  190.5570  176.0030  138.6250 C   0  0  0  0  0  2  0  0  0  0  0  0
  190.3360  175.3480  137.2690 C   0  0  0  0  0  2  0  0  0  0  0  0
  191.4290  175.1010  135.2300 C   0  0  0  0  0  1  0  0  0  0  0  0
  191.6120  174.9980  136.6660 N   0  0  0  0  0  0  0  0  0  0  0  0
  192.5560  176.0430  137.0360 C   0  0  0  0  0  2  0  0  0  0  0  0
  193.8950  175.4550  137.4720 C   0  0  2  0  0  3  0  0  0  0  0  0
  193.8130  173.9440  137.5920 C   0  0  0  0  0  1  0  0  0  0  0  0
  194.3010  176.0060  138.6870 O   0  0  0  0  0  1  0  0  0  0  0  0
  191.1400  176.4510  147.6400 N   0  0  0  0  0  2  0  0  0  0  0  0
  192.3590  175.6870  147.4290 C   0  0  0  0  0  2  0  0  0  0  0  0
  193.4680  176.7440  149.2200 O   0  0  0  0  0  0  0  0  0  0  0  0
  193.1810  175.6900  148.6740 C   0  0  0  0  0  3  0  0  0  0  0  0
  1 12  1  0  0  0  0
  1  8  1  0  0  0  0
  2  4  1  1  0  0  0
  2  3  1  0  0  0  0
  3 16  1  0  0  0  0
  3  6  2  0  0  0  0
  4 12  2  0  0  0  0
  5  1  2  0  0  0  0
  7 11  1  0  0  0  0
  9 16  1  0  0  0  0
 10  7  2  0  0  0  0
 10 13  1  0  0  0  0
 11 15  1  6  0  0  0
 11  2  1  0  0  0  0
 13  4  1  0  0  0  0
 14 13  2  0  0  0  0
 14  5  1  0  0  0  0
 15  9  1  0  0  0  0
 16 28  1  1  0  0  0
 17  7  1  0  0  0  0
 18 17  1  0  0  0  0
 19 18  1  0  0  0  0
 20 19  1  0  0  0  0
 21 20  1  0  0  0  0
 22 23  1  0  0  0  0
 23 24  1  0  0  0  0
 23 21  1  0  0  0  0
 24 25  1  0  0  0  0
 25 26  1  1  0  0  0
 25 27  1  0  0  0  0
 29 28  1  0  0  0  0
 29 31  1  0  0  0  0
 31 30  2  0  0  0  0
M  END
>  <MODEL>
7

>  <REMARK>
 VINA RESULT:      -7.5      2.242      4.003
  Name = 
  11 active torsions:
  status: ('A' for Active; 'I' for Inactive)
    1  A    between atoms: C_1  and  C_24
    2  A    between atoms: C_3  and  C_9
    3  A    between atoms: C_3  and  C_22
    4  A    between atoms: C_7  and  C_9
    5  A    between atoms: C_7  and  O_23
    6  A    between atoms: C_15  and  O_23
    7  A    between atoms: C_18  and  C_26
    8  A    between atoms: N_19  and  C_22
    9  A    between atoms: N_19  and  C_24
   10  A    between atoms: C_26  and  N_31
   11  A    between atoms: C_30  and  N_31
                            x       y       z     vdW  Elec       q    Type
                         _______ _______ _______ _____ _____    ______ ____

>  <TORSDO>
F 11

$$$$
=
 OpenBabel10262419213D

 31 33  0  0  1  0  0  0  0  0999 V2000
  190.5530  177.0020  146.6110 C   0  0  0  0  0  0  0  0  0  0  0  0
  188.1720  178.1270  143.8310 C   0  0  2  0  0  3  0  0  0  0  0  0
  188.9160  177.7640  142.5670 C   0  0  0  0  0  0  0  0  0  0  0  0
  188.7120  177.5950  145.1410 C   0  0  0  0  0  0  0  0  0  0  0  0
  189.6630  176.8720  147.6810 C   0  0  0  0  0  3  0  0  0  0  0  0
  189.8820  177.0130  142.5710 O   0  0  0  0  0  0  0  0  0  0  0  0
  185.8850  177.9660  144.8890 C   0  0  0  0  0  0  0  0  0  0  0  0
  191.9410  176.7620  146.8080 N   0  0  0  0  0  1  0  0  0  0  0  0
  186.8810  178.0710  141.1600 C   0  0  0  0  0  2  0  0  0  0  0  0
  186.4310  177.7930  146.0600 N   0  0  0  0  0  0  0  0  0  0  0  0
  186.6950  177.7480  143.6360 C   0  0  1  0  0  3  0  0  0  0  0  0
  190.0830  177.3820  145.3530 C   0  0  0  0  0  3  0  0  0  0  0  0
  187.8240  177.4890  146.2300 C   0  0  0  0  0  0  0  0  0  0  0  0
  188.3010  177.1230  147.4920 C   0  0  0  0  0  3  0  0  0  0  0  0
  186.1290  178.4950  142.4260 C   0  0  0  0  0  2  0  0  0  0  0  0
  188.3860  178.3460  141.2810 C   0  0  2  0  0  3  0  0  0  0  0  0
  184.5250  178.2680  144.7820 O   0  0  0  0  0  0  0  0  0  0  0  0
  184.0550  179.5500  144.3820 C   0  0  0  0  0  2  0  0  0  0  0  0
  182.6510  179.4360  143.8130 C   0  0  0  0  0  2  0  0  0  0  0  0
  182.6220  178.5270  142.5910 C   0  0  0  0  0  2  0  0  0  0  0  0
  181.6030  178.9980  141.5640 C   0  0  0  0  0  2  0  0  0  0  0  0
  180.5710  177.7530  139.8910 C   0  0  0  0  0  1  0  0  0  0  0  0
  181.8360  178.3450  140.2860 N   0  0  0  0  0  0  0  0  0  0  0  0
  182.1160  179.3970  139.3180 C   0  0  0  0  0  2  0  0  0  0  0  0
  183.5320  179.2760  138.7600 C   0  0  2  0  0  3  0  0  0  0  0  0
  184.0320  177.8460  138.8470 C   0  0  0  0  0  1  0  0  0  0  0  0
  184.4020  180.1270  139.4420 O   0  0  0  0  0  1  0  0  0  0  0  0
  189.0780  177.7930  140.1260 N   0  0  0  0  0  2  0  0  0  0  0  0
  188.2390  178.0400  138.9650 C   0  0  0  0  0  2  0  0  0  0  0  0
  189.0550  179.7530  137.5660 O   0  0  0  0  0  0  0  0  0  0  0  0
  189.0700  178.5630  137.8410 C   0  0  0  0  0  3  0  0  0  0  0  0
  1  8  1  0  0  0  0
  1  5  1  0  0  0  0
  2  3  1  6  0  0  0
  2  4  1  0  0  0  0
  3  6  2  0  0  0  0
  4 12  1  0  0  0  0
  4 13  2  0  0  0  0
  7 10  2  0  0  0  0
  9 16  1  0  0  0  0
  9 15  1  0  0  0  0
 10 13  1  0  0  0  0
 11 15  1  6  0  0  0
 11  2  1  0  0  0  0
 11  7  1  0  0  0  0
 12  1  2  0  0  0  0
 13 14  1  0  0  0  0
 14  5  2  0  0  0  0
 16 28  1  6  0  0  0
 16  3  1  0  0  0  0
 17  7  1  0  0  0  0
 18 17  1  0  0  0  0
 19 18  1  0  0  0  0
 20 19  1  0  0  0  0
 21 20  1  0  0  0  0
 22 23  1  0  0  0  0
 23 21  1  0  0  0  0
 24 23  1  0  0  0  0
 25 26  1  1  0  0  0
 25 24  1  0  0  0  0
 25 27  1  0  0  0  0
 29 28  1  0  0  0  0
 30 31  2  0  0  0  0
 31 29  1  0  0  0  0
M  END
>  <MODEL>
8

>  <REMARK>
 VINA RESULT:      -7.4      2.227      6.296
  Name = 
  11 active torsions:
  status: ('A' for Active; 'I' for Inactive)
    1  A    between atoms: C_1  and  C_24
    2  A    between atoms: C_3  and  C_9
    3  A    between atoms: C_3  and  C_22
    4  A    between atoms: C_7  and  C_9
    5  A    between atoms: C_7  and  O_23
    6  A    between atoms: C_15  and  O_23
    7  A    between atoms: C_18  and  C_26
    8  A    between atoms: N_19  and  C_22
    9  A    between atoms: N_19  and  C_24
   10  A    between atoms: C_26  and  N_31
   11  A    between atoms: C_30  and  N_31
                            x       y       z     vdW  Elec       q    Type
                         _______ _______ _______ _____ _____    ______ ____

>  <TORSDO>
F 11

$$$$
=
 OpenBabel10262419213D

 31 33  0  0  1  0  0  0  0  0999 V2000
  188.2170  177.5600  147.4930 C   0  0  0  0  0  0  0  0  0  0  0  0
  186.3380  177.8200  144.1660 C   0  0  2  0  0  3  0  0  0  0  0  0
  185.0580  178.5310  144.5430 C   0  0  0  0  0  0  0  0  0  0  0  0
  187.4420  177.7680  145.1990 C   0  0  0  0  0  0  0  0  0  0  0  0
  189.5280  177.3930  147.0400 C   0  0  0  0  0  3  0  0  0  0  0  0
  184.9250  179.1090  145.6130 O   0  0  0  0  0  0  0  0  0  0  0  0
  188.1740  177.8510  142.4330 C   0  0  0  0  0  0  0  0  0  0  0  0
  187.9390  177.5450  148.8880 N   0  0  0  0  0  1  0  0  0  0  0  0
  184.4990  179.0030  142.1600 C   0  0  0  0  0  2  0  0  0  0  0  0
  189.0470  177.5170  143.3430 N   0  0  0  0  0  0  0  0  0  0  0  0
  186.8360  178.4150  142.8400 C   0  0  1  0  0  3  0  0  0  0  0  0
  187.1760  177.7260  146.5760 C   0  0  0  0  0  3  0  0  0  0  0  0
  188.7640  177.5710  144.7480 C   0  0  0  0  0  0  0  0  0  0  0  0
  189.7990  177.3910  145.6690 C   0  0  0  0  0  3  0  0  0  0  0  0
  185.7650  178.2370  141.7620 C   0  0  0  0  0  2  0  0  0  0  0  0
  183.9560  178.5270  143.5140 C   0  0  2  0  0  3  0  0  0  0  0  0
  188.5020  177.7720  141.0770 O   0  0  0  0  0  0  0  0  0  0  0  0
  189.6740  177.1160  140.6110 C   0  0  0  0  0  2  0  0  0  0  0  0
  189.9760  177.5410  139.1830 C   0  0  0  0  0  2  0  0  0  0  0  0
  189.0400  178.6540  138.7290 C   0  0  0  0  0  2  0  0  0  0  0  0
  188.4550  178.3700  137.3530 C   0  0  0  0  0  2  0  0  0  0  0  0
  186.2010  178.2160  137.9090 C   0  0  0  0  0  1  0  0  0  0  0  0
  187.3430  177.4400  137.4610 N   0  0  0  0  0  0  0  0  0  0  0  0
  187.0320  176.9950  136.1090 C   0  0  0  0  0  2  0  0  0  0  0  0
  187.1210  175.4770  135.9890 C   0  0  2  0  0  3  0  0  0  0  0  0
  185.8240  174.8950  135.4570 C   0  0  0  0  0  1  0  0  0  0  0  0
  187.4280  174.9040  137.2230 O   0  0  0  0  0  1  0  0  0  0  0  0
  182.8490  179.3800  143.9240 N   0  0  0  0  0  2  0  0  0  0  0  0
  181.7010  179.0080  143.1130 C   0  0  0  0  0  2  0  0  0  0  0  0
  179.6710  177.9040  143.5730 O   0  0  0  0  0  0  0  0  0  0  0  0
  180.5600  178.6270  143.9950 C   0  0  0  0  0  3  0  0  0  0  0  0
  1  8  1  0  0  0  0
  2  3  1  1  0  0  0
  2  4  1  0  0  0  0
  3  6  2  0  0  0  0
  4 12  1  0  0  0  0
  5  1  1  0  0  0  0
  7 11  1  0  0  0  0
  7 10  2  0  0  0  0
  9 16  1  0  0  0  0
 10 13  1  0  0  0  0
 11 15  1  6  0  0  0
 11  2  1  0  0  0  0
 12  1  2  0  0  0  0
 13  4  2  0  0  0  0
 13 14  1  0  0  0  0
 14  5  2  0  0  0  0
 15  9  1  0  0  0  0
 16 28  1  1  0  0  0
 16  3  1  0  0  0  0
 17  7  1  0  0  0  0
 18 17  1  0  0  0  0
 19 18  1  0  0  0  0
 20 19  1  0  0  0  0
 21 23  1  0  0  0  0
 21 20  1  0  0  0  0
 23 22  1  0  0  0  0
 24 23  1  0  0  0  0
 25 26  1  1  0  0  0
 25 24  1  0  0  0  0
 25 27  1  0  0  0  0
 29 28  1  0  0  0  0
 29 31  1  0  0  0  0
 30 31  2  0  0  0  0
M  END
>  <MODEL>
9

>  <REMARK>
 VINA RESULT:      -7.4      2.678      5.855
  Name = 
  11 active torsions:
  status: ('A' for Active; 'I' for Inactive)
    1  A    between atoms: C_1  and  C_24
    2  A    between atoms: C_3  and  C_9
    3  A    between atoms: C_3  and  C_22
    4  A    between atoms: C_7  and  C_9
    5  A    between atoms: C_7  and  O_23
    6  A    between atoms: C_15  and  O_23
    7  A    between atoms: C_18  and  C_26
    8  A    between atoms: N_19  and  C_22
    9  A    between atoms: N_19  and  C_24
   10  A    between atoms: C_26  and  N_31
   11  A    between atoms: C_30  and  N_31
                            x       y       z     vdW  Elec       q    Type
                         _______ _______ _______ _____ _____    ______ ____

>  <TORSDO>
F 11

$$$$
