=
 OpenBabel10262422253D

 43 47  0  0  1  0  0  0  0  0999 V2000
  187.9150  177.4420  147.2710 C   0  0  0  0  0  0  0  0  0  0  0  0
  188.6040  177.7110  142.2650 C   0  0  0  0  0  0  0  0  0  0  0  0
  186.1700  178.5800  141.2300 C   0  0  0  0  0  0  0  0  0  0  0  0
  188.8610  177.3700  145.0420 C   0  0  0  0  0  0  0  0  0  0  0  0
  186.6890  177.8570  146.7430 C   0  0  0  0  0  3  0  0  0  0  0  0
  188.0550  177.2700  148.6410 O   0  0  0  0  0  1  0  0  0  0  0  0
  187.6230  177.7920  144.5000 C   0  0  0  0  0  0  0  0  0  0  0  0
  188.9990  177.1980  146.4230 C   0  0  0  0  0  3  0  0  0  0  0  0
  186.5420  178.0330  145.3640 C   0  0  0  0  0  3  0  0  0  0  0  0
  186.3180  178.3900  142.5680 N   0  0  0  0  0  0  0  0  0  0  0  0
  187.4950  177.9680  143.1100 C   0  0  0  0  0  0  0  0  0  0  0  0
  189.8190  177.2940  142.8220 C   0  0  0  0  0  3  0  0  0  0  0  0
  188.4580  177.8900  140.8770 C   0  0  0  0  0  0  0  0  0  0  0  0
  187.2350  178.3280  140.3650 C   0  0  0  0  0  3  0  0  0  0  0  0
  189.9470  177.1240  144.2010 C   0  0  0  0  0  3  0  0  0  0  0  0
  184.8650  179.0350  140.6830 C   0  0  0  0  0  2  0  0  0  0  0  0
  183.7210  178.3030  141.3770 C   0  0  0  0  0  2  0  0  0  0  0  0
  181.2270  178.4230  141.3090 C   0  0  0  0  0  1  0  0  0  0  0  0
  182.4830  178.1500  140.4920 C   0  0  0  0  0  0  0  0  0  0  0  0
  182.5600  179.1300  139.3280 C   0  0  0  0  0  1  0  0  0  0  0  0
  182.4660  176.7070  139.9750 C   0  0  0  0  0  2  0  0  0  0  0  0
  181.2750  176.3780  139.0790 C   0  0  2  0  0  3  0  0  0  0  0  0
  180.3060  173.7990  137.8290 C   0  0  0  0  0  2  0  0  0  0  0  0
  181.7400  174.3380  137.6220 C   0  0  2  0  0  3  0  0  0  0  0  0
  180.3640  175.3810  139.8050 C   0  0  0  0  0  2  0  0  0  0  0  0
  181.7580  175.8740  137.7090 C   0  0  1  0  0  3  0  0  0  0  0  0
  180.9790  176.4270  136.7060 F   0  0  0  0  0  0  0  0  0  0  0  0
  179.4750  174.6300  138.8140 C   0  0  0  0  0  2  0  0  0  0  0  0
  182.3220  173.8540  136.3570 N   0  0  0  0  0  0  0  0  0  0  0  0
  184.4780  173.0420  137.2900 C   0  0  0  0  0  2  0  0  0  0  0  0
  182.8190  171.5350  137.0970 C   0  0  0  0  0  2  0  0  0  0  0  0
  184.1910  171.7320  136.8750 O   0  0  0  0  0  0  0  0  0  0  0  0
  182.0060  172.4280  136.1510 C   0  0  0  0  0  2  0  0  0  0  0  0
  183.7850  174.0430  136.3600 C   0  0  0  0  0  2  0  0  0  0  0  0
  189.8040  177.5890  139.7290 S   0  0  0  0  0  0  0  0  0  0  0  0
  188.7250  177.7620  138.2710 C   0  0  1  0  0  3  0  0  0  0  0  0
  189.1800  178.9300  137.4140 C   0  0  0  0  0  1  0  0  0  0  0  0
  188.6460  176.4600  137.4700 C   0  0  0  0  0  2  0  0  0  0  0  0
  187.2130  176.0460  137.1340 C   0  0  2  0  0  3  0  0  0  0  0  0
  187.2080  175.0260  136.1780 O   0  0  0  0  0  1  0  0  0  0  0  0
  186.1380  177.2180  135.1570 C   0  0  0  0  0  1  0  0  0  0  0  0
  185.0900  177.3340  137.4040 C   0  0  0  0  0  1  0  0  0  0  0  0
  186.4050  177.2510  136.6550 C   0  0  0  0  0  3  0  0  0  0  0  0
  1  6  1  0  0  0  0
  2 12  1  0  0  0  0
  2 11  1  0  0  0  0
  3 10  1  0  0  0  0
  4  8  1  0  0  0  0
  5  1  1  0  0  0  0
  7  4  2  0  0  0  0
  7  9  1  0  0  0  0
  8  1  2  0  0  0  0
  9  5  2  0  0  0  0
 10 11  2  0  0  0  0
 11  7  1  0  0  0  0
 12 15  2  0  0  0  0
 13  2  2  0  0  0  0
 14 13  1  0  0  0  0
 14  3  2  0  0  0  0
 15  4  1  0  0  0  0
 16  3  1  0  0  0  0
 16 17  1  0  0  0  0
 19 18  1  0  0  0  0
 19 17  1  0  0  0  0
 20 19  1  0  0  0  0
 21 19  1  0  0  0  0
 22 25  1  0  0  0  0
 22 21  1  1  0  0  0
 23 28  1  0  0  0  0
 24 29  1  6  0  0  0
 24 26  1  0  0  0  0
 24 23  1  0  0  0  0
 26 27  1  6  0  0  0
 26 22  1  0  0  0  0
 28 25  1  0  0  0  0
 29 34  1  0  0  0  0
 32 31  1  0  0  0  0
 32 30  1  0  0  0  0
 33 29  1  0  0  0  0
 33 31  1  0  0  0  0
 34 30  1  0  0  0  0
 35 13  1  0  0  0  0
 36 37  1  6  0  0  0
 36 35  1  0  0  0  0
 38 36  1  0  0  0  0
 39 40  1  6  0  0  0
 39 38  1  0  0  0  0
 41 43  1  0  0  0  0
 43 39  1  0  0  0  0
 43 42  1  0  0  0  0
M  END
>  <MODEL>
1

>  <REMARK>
 VINA RESULT:      -8.4      0.000      0.000
  Name = 
  11 active torsions:
  status: ('A' for Active; 'I' for Inactive)
    1  A    between atoms: C_1  and  C_9
    2  A    between atoms: C_1  and  S_35
    3  A    between atoms: C_2  and  C_6
    4  A    between atoms: C_2  and  C_13
    5  A    between atoms: C_3  and  C_4
    6  A    between atoms: C_3  and  C_12
    7  A    between atoms: C_6  and  C_12
    8  A    between atoms: C_9  and  C_32
    9  A    between atoms: N_11  and  C_14
   10  A    between atoms: C_32  and  C_37
   11  A    between atoms: C_34  and  S_35
                            x       y       z     vdW  Elec       q    Type
                         _______ _______ _______ _____ _____    ______ ____

>  <TORSDO>
F 11

$$$$
=
 OpenBabel10262422253D

 43 47  0  0  1  0  0  0  0  0999 V2000
  188.0650  177.5860  146.2240 C   0  0  0  0  0  0  0  0  0  0  0  0
  183.8700  178.7100  143.6270 C   0  0  0  0  0  0  0  0  0  0  0  0
  184.6110  178.6070  140.9460 C   0  0  0  0  0  0  0  0  0  0  0  0
  185.7970  178.1610  145.5960 C   0  0  0  0  0  0  0  0  0  0  0  0
  188.4360  177.5560  144.8770 C   0  0  0  0  0  3  0  0  0  0  0  0
  189.0070  177.3150  147.2070 O   0  0  0  0  0  1  0  0  0  0  0  0
  186.1650  178.1310  144.2300 C   0  0  0  0  0  0  0  0  0  0  0  0
  186.7480  177.8870  146.5840 C   0  0  0  0  0  3  0  0  0  0  0  0
  187.4920  177.8270  143.8820 C   0  0  0  0  0  3  0  0  0  0  0  0
  185.5270  178.3620  141.9200 N   0  0  0  0  0  0  0  0  0  0  0  0
  185.1990  178.4010  143.2430 C   0  0  0  0  0  0  0  0  0  0  0  0
  183.5280  178.7350  144.9850 C   0  0  0  0  0  3  0  0  0  0  0  0
  182.9180  178.9800  142.6270 C   0  0  0  0  0  0  0  0  0  0  0  0
  183.2960  178.9240  141.2840 C   0  0  0  0  0  3  0  0  0  0  0  0
  184.4840  178.4620  145.9640 C   0  0  0  0  0  3  0  0  0  0  0  0
  185.0160  178.5590  139.5160 C   0  0  0  0  0  2  0  0  0  0  0  0
  183.7810  178.5200  138.6210 C   0  0  0  0  0  2  0  0  0  0  0  0
  182.6630  176.2890  138.5350 C   0  0  0  0  0  1  0  0  0  0  0  0
  183.6490  177.2150  137.8360 C   0  0  0  0  0  0  0  0  0  0  0  0
  183.1600  177.5120  136.4240 C   0  0  0  0  0  1  0  0  0  0  0  0
  185.0360  176.5650  137.7940 C   0  0  0  0  0  2  0  0  0  0  0  0
  185.8060  176.8160  136.5010 C   0  0  2  0  0  3  0  0  0  0  0  0
  188.6380  176.1810  135.6470 C   0  0  0  0  0  2  0  0  0  0  0  0
  188.3140  176.9890  136.9250 C   0  0  2  0  0  3  0  0  0  0  0  0
  186.2210  175.4700  135.8960 C   0  0  0  0  0  2  0  0  0  0  0  0
  186.9920  177.7590  136.7570 C   0  0  1  0  0  3  0  0  0  0  0  0
  187.0930  178.6770  135.7240 F   0  0  0  0  0  0  0  0  0  0  0  0
  187.3940  175.6410  134.9310 C   0  0  0  0  0  2  0  0  0  0  0  0
  189.4250  177.8820  137.2960 N   0  0  0  0  0  0  0  0  0  0  0  0
  189.0390  177.8640  139.7530 C   0  0  0  0  0  2  0  0  0  0  0  0
  190.5160  176.3730  138.9410 C   0  0  0  0  0  2  0  0  0  0  0  0
  190.3080  177.3050  139.9720 O   0  0  0  0  0  0  0  0  0  0  0  0
  190.6410  177.1030  137.5980 C   0  0  0  0  0  2  0  0  0  0  0  0
  189.0570  178.7000  138.4680 C   0  0  0  0  0  2  0  0  0  0  0  0
  181.2120  179.3820  143.0170 S   0  0  0  0  0  0  0  0  0  0  0  0
  180.6220  178.9030  141.3600 C   0  0  1  0  0  3  0  0  0  0  0  0
  180.0960  177.4780  141.3800 C   0  0  0  0  0  1  0  0  0  0  0  0
  179.5820  179.8900  140.8250 C   0  0  0  0  0  2  0  0  0  0  0  0
  179.7550  180.1980  139.3370 C   0  0  2  0  0  3  0  0  0  0  0  0
  180.4980  179.1930  138.7110 O   0  0  0  0  0  1  0  0  0  0  0  0
  181.7250  181.4820  138.3850 C   0  0  0  0  0  1  0  0  0  0  0  0
  179.4630  182.5040  138.4240 C   0  0  0  0  0  1  0  0  0  0  0  0
  180.4090  181.5650  139.1460 C   0  0  0  0  0  3  0  0  0  0  0  0
  1  8  1  0  0  0  0
  1  6  1  0  0  0  0
  2 12  1  0  0  0  0
  3 14  2  0  0  0  0
  3 10  1  0  0  0  0
  4 15  1  0  0  0  0
  4  8  2  0  0  0  0
  5  1  2  0  0  0  0
  7  4  1  0  0  0  0
  9  7  2  0  0  0  0
  9  5  1  0  0  0  0
 10 11  2  0  0  0  0
 11  2  1  0  0  0  0
 11  7  1  0  0  0  0
 12 15  2  0  0  0  0
 13 35  1  0  0  0  0
 13  2  2  0  0  0  0
 14 13  1  0  0  0  0
 16  3  1  0  0  0  0
 17 16  1  0  0  0  0
 19 18  1  0  0  0  0
 19 17  1  0  0  0  0
 20 19  1  0  0  0  0
 21 19  1  0  0  0  0
 22 26  1  0  0  0  0
 22 21  1  1  0  0  0
 24 23  1  6  0  0  0
 24 29  1  0  0  0  0
 25 22  1  0  0  0  0
 26 27  1  6  0  0  0
 26 24  1  0  0  0  0
 28 23  1  0  0  0  0
 28 25  1  0  0  0  0
 29 33  1  0  0  0  0
 29 34  1  0  0  0  0
 30 32  1  0  0  0  0
 31 32  1  0  0  0  0
 33 31  1  0  0  0  0
 34 30  1  0  0  0  0
 36 37  1  1  0  0  0
 36 35  1  0  0  0  0
 38 36  1  0  0  0  0
 39 40  1  1  0  0  0
 39 38  1  0  0  0  0
 41 43  1  0  0  0  0
 42 43  1  0  0  0  0
 43 39  1  0  0  0  0
M  END
>  <MODEL>
2

>  <REMARK>
 VINA RESULT:      -8.4      3.223      6.353
  Name = 
  11 active torsions:
  status: ('A' for Active; 'I' for Inactive)
    1  A    between atoms: C_1  and  C_9
    2  A    between atoms: C_1  and  S_35
    3  A    between atoms: C_2  and  C_6
    4  A    between atoms: C_2  and  C_13
    5  A    between atoms: C_3  and  C_4
    6  A    between atoms: C_3  and  C_12
    7  A    between atoms: C_6  and  C_12
    8  A    between atoms: C_9  and  C_32
    9  A    between atoms: N_11  and  C_14
   10  A    between atoms: C_32  and  C_37
   11  A    between atoms: C_34  and  S_35
                            x       y       z     vdW  Elec       q    Type
                         _______ _______ _______ _____ _____    ______ ____

>  <TORSDO>
F 11

$$$$
=
 OpenBabel10262422253D

 43 47  0  0  1  0  0  0  0  0999 V2000
  187.9600  177.4290  147.2120 C   0  0  0  0  0  0  0  0  0  0  0  0
  188.6110  177.6940  142.2000 C   0  0  0  0  0  0  0  0  0  0  0  0
  186.1810  178.5970  141.1860 C   0  0  0  0  0  0  0  0  0  0  0  0
  188.8860  177.3460  144.9750 C   0  0  0  0  0  0  0  0  0  0  0  0
  186.7350  177.8620  146.6940 C   0  0  0  0  0  3  0  0  0  0  0  0
  188.1090  177.2550  148.5800 O   0  0  0  0  0  1  0  0  0  0  0  0
  187.6490  177.7860  144.4440 C   0  0  0  0  0  0  0  0  0  0  0  0
  189.0330  177.1720  146.3540 C   0  0  0  0  0  3  0  0  0  0  0  0
  186.5790  178.0410  145.3170 C   0  0  0  0  0  3  0  0  0  0  0  0
  186.3370  178.4040  142.5220 N   0  0  0  0  0  0  0  0  0  0  0  0
  187.5130  177.9650  143.0540 C   0  0  0  0  0  0  0  0  0  0  0  0
  189.8250  177.2590  142.7470 C   0  0  0  0  0  3  0  0  0  0  0  0
  188.4560  177.8750  140.8140 C   0  0  0  0  0  0  0  0  0  0  0  0
  187.2350  178.3310  140.3120 C   0  0  0  0  0  3  0  0  0  0  0  0
  189.9620  177.0860  144.1250 C   0  0  0  0  0  3  0  0  0  0  0  0
  184.8780  179.0700  140.6500 C   0  0  0  0  0  2  0  0  0  0  0  0
  183.8100  177.9980  140.8420 C   0  0  0  0  0  2  0  0  0  0  0  0
  181.3170  178.0060  140.6910 C   0  0  0  0  0  1  0  0  0  0  0  0
  182.6120  178.1700  139.9070 C   0  0  0  0  0  0  0  0  0  0  0  0
  182.6540  179.5530  139.2690 C   0  0  0  0  0  1  0  0  0  0  0  0
  182.7130  177.0830  138.8310 C   0  0  0  0  0  2  0  0  0  0  0  0
  183.3390  177.5560  137.5220 C   0  0  2  0  0  3  0  0  0  0  0  0
  183.8190  176.1830  134.8690 C   0  0  0  0  0  2  0  0  0  0  0  0
  184.3360  175.6120  136.2080 C   0  0  2  0  0  3  0  0  0  0  0  0
  182.2870  177.4830  136.4090 C   0  0  0  0  0  2  0  0  0  0  0  0
  184.6090  176.7470  137.2120 C   0  0  1  0  0  3  0  0  0  0  0  0
  185.5970  177.5910  136.7330 F   0  0  0  0  0  0  0  0  0  0  0  0
  182.9480  177.4350  135.0320 C   0  0  0  0  0  2  0  0  0  0  0  0
  185.5230  174.7600  136.0100 N   0  0  0  0  0  0  0  0  0  0  0  0
  184.9590  173.0310  137.7060 C   0  0  0  0  0  2  0  0  0  0  0  0
  184.3210  172.6270  135.5870 C   0  0  0  0  0  2  0  0  0  0  0  0
  184.9160  172.0380  136.7150 O   0  0  0  0  0  0  0  0  0  0  0  0
  185.2470  173.7070  135.0140 C   0  0  0  0  0  2  0  0  0  0  0  0
  185.9300  174.1410  137.2870 C   0  0  0  0  0  2  0  0  0  0  0  0
  189.7890  177.5570  139.6550 S   0  0  0  0  0  0  0  0  0  0  0  0
  188.7000  177.7470  138.2050 C   0  0  1  0  0  3  0  0  0  0  0  0
  189.0530  179.0120  137.4430 C   0  0  0  0  0  1  0  0  0  0  0  0
  188.7350  176.5090  137.3060 C   0  0  0  0  0  2  0  0  0  0  0  0
  189.7650  176.6120  136.1810 C   0  0  2  0  0  3  0  0  0  0  0  0
  189.1420  176.5020  134.9340 O   0  0  0  0  0  1  0  0  0  0  0  0
  192.1300  176.1100  136.9490 C   0  0  0  0  0  1  0  0  0  0  0  0
  190.3410  174.4090  137.2090 C   0  0  0  0  0  1  0  0  0  0  0  0
  190.8500  175.5490  136.3480 C   0  0  0  0  0  3  0  0  0  0  0  0
  1  6  1  0  0  0  0
  2 12  1  0  0  0  0
  2 11  1  0  0  0  0
  3 10  1  0  0  0  0
  4  8  1  0  0  0  0
  5  1  1  0  0  0  0
  7  4  2  0  0  0  0
  7  9  1  0  0  0  0
  8  1  2  0  0  0  0
  9  5  2  0  0  0  0
 10 11  2  0  0  0  0
 11  7  1  0  0  0  0
 12 15  2  0  0  0  0
 13  2  2  0  0  0  0
 14 13  1  0  0  0  0
 14  3  2  0  0  0  0
 15  4  1  0  0  0  0
 16 17  1  0  0  0  0
 16  3  1  0  0  0  0
 19 18  1  0  0  0  0
 19 17  1  0  0  0  0
 20 19  1  0  0  0  0
 21 19  1  0  0  0  0
 22 21  1  1  0  0  0
 23 28  1  0  0  0  0
 24 23  1  6  0  0  0
 24 26  1  0  0  0  0
 25 22  1  0  0  0  0
 26 27  1  6  0  0  0
 26 22  1  0  0  0  0
 28 25  1  0  0  0  0
 29 24  1  0  0  0  0
 29 34  1  0  0  0  0
 31 32  1  0  0  0  0
 32 30  1  0  0  0  0
 33 31  1  0  0  0  0
 33 29  1  0  0  0  0
 34 30  1  0  0  0  0
 35 13  1  0  0  0  0
 36 37  1  6  0  0  0
 36 35  1  0  0  0  0
 38 36  1  0  0  0  0
 39 40  1  6  0  0  0
 39 43  1  0  0  0  0
 39 38  1  0  0  0  0
 43 41  1  0  0  0  0
 43 42  1  0  0  0  0
M  END
>  <MODEL>
3

>  <REMARK>
 VINA RESULT:      -8.3      1.753      2.576
  Name = 
  11 active torsions:
  status: ('A' for Active; 'I' for Inactive)
    1  A    between atoms: C_1  and  C_9
    2  A    between atoms: C_1  and  S_35
    3  A    between atoms: C_2  and  C_6
    4  A    between atoms: C_2  and  C_13
    5  A    between atoms: C_3  and  C_4
    6  A    between atoms: C_3  and  C_12
    7  A    between atoms: C_6  and  C_12
    8  A    between atoms: C_9  and  C_32
    9  A    between atoms: N_11  and  C_14
   10  A    between atoms: C_32  and  C_37
   11  A    between atoms: C_34  and  S_35
                            x       y       z     vdW  Elec       q    Type
                         _______ _______ _______ _____ _____    ______ ____

>  <TORSDO>
F 11

$$$$
=
 OpenBabel10262422253D

 43 47  0  0  1  0  0  0  0  0999 V2000
  190.9260  176.8050  146.5440 C   0  0  0  0  0  0  0  0  0  0  0  0
  189.5080  177.6690  141.7640 C   0  0  0  0  0  0  0  0  0  0  0  0
  186.8120  178.3460  141.9040 C   0  0  0  0  0  0  0  0  0  0  0  0
  190.8900  177.0760  144.1370 C   0  0  0  0  0  0  0  0  0  0  0  0
  189.5670  177.1250  146.6060 C   0  0  0  0  0  3  0  0  0  0  0  0
  191.6210  176.5110  147.7090 O   0  0  0  0  0  1  0  0  0  0  0  0
  189.5140  177.4030  144.1920 C   0  0  0  0  0  0  0  0  0  0  0  0
  191.5870  176.7810  145.3130 C   0  0  0  0  0  3  0  0  0  0  0  0
  188.8620  177.4230  145.4360 C   0  0  0  0  0  3  0  0  0  0  0  0
  187.5010  178.0380  143.0350 N   0  0  0  0  0  0  0  0  0  0  0  0
  188.8220  177.7040  143.0040 C   0  0  0  0  0  0  0  0  0  0  0  0
  190.8700  177.3430  141.7330 C   0  0  0  0  0  3  0  0  0  0  0  0
  188.8000  177.9710  140.5860 C   0  0  0  0  0  0  0  0  0  0  0  0
  187.4480  178.3120  140.6640 C   0  0  0  0  0  3  0  0  0  0  0  0
  191.5570  177.0490  142.9110 C   0  0  0  0  0  3  0  0  0  0  0  0
  185.3690  178.6970  141.9860 C   0  0  0  0  0  2  0  0  0  0  0  0
  184.8020  178.9170  140.5870 C   0  0  0  0  0  2  0  0  0  0  0  0
  182.6520  178.6960  141.8380 C   0  0  0  0  0  1  0  0  0  0  0  0
  183.3200  178.5560  140.4770 C   0  0  0  0  0  0  0  0  0  0  0  0
  182.6400  179.4790  139.4740 C   0  0  0  0  0  1  0  0  0  0  0  0
  183.2380  177.1010  140.0020 C   0  0  0  0  0  2  0  0  0  0  0  0
  182.0730  176.8150  139.0590 C   0  0  2  0  0  3  0  0  0  0  0  0
  181.0730  174.2780  137.7490 C   0  0  0  0  0  2  0  0  0  0  0  0
  182.5300  174.7740  137.6010 C   0  0  2  0  0  3  0  0  0  0  0  0
  181.1050  175.8410  139.7400 C   0  0  0  0  0  2  0  0  0  0  0  0
  182.5920  176.3080  137.7030 C   0  0  1  0  0  3  0  0  0  0  0  0
  181.8690  176.8930  136.6770 F   0  0  0  0  0  0  0  0  0  0  0  0
  180.2310  175.1260  138.7100 C   0  0  0  0  0  2  0  0  0  0  0  0
  183.1440  174.2830  136.3550 N   0  0  0  0  0  0  0  0  0  0  0  0
  185.2700  173.4630  137.3510 C   0  0  0  0  0  2  0  0  0  0  0  0
  183.6090  171.9640  137.1160 C   0  0  0  0  0  2  0  0  0  0  0  0
  184.9880  172.1530  136.9320 O   0  0  0  0  0  0  0  0  0  0  0  0
  182.8270  172.8580  136.1450 C   0  0  0  0  0  2  0  0  0  0  0  0
  184.6080  174.4650  136.3980 C   0  0  0  0  0  2  0  0  0  0  0  0
  189.5830  177.9520  138.9710 S   0  0  0  0  0  0  0  0  0  0  0  0
  188.0240  177.5490  138.1160 C   0  0  1  0  0  3  0  0  0  0  0  0
  187.7100  178.6020  137.0690 C   0  0  0  0  0  1  0  0  0  0  0  0
  188.0560  176.1400  137.5190 C   0  0  0  0  0  2  0  0  0  0  0  0
  188.6060  176.1020  136.0930 C   0  0  2  0  0  3  0  0  0  0  0  0
  187.6250  175.6580  135.2010 O   0  0  0  0  0  1  0  0  0  0  0  0
  191.1400  176.0320  136.0090 C   0  0  0  0  0  1  0  0  0  0  0  0
  189.8760  174.2490  137.1850 C   0  0  0  0  0  1  0  0  0  0  0  0
  189.8520  175.2220  136.0220 C   0  0  0  0  0  3  0  0  0  0  0  0
  1  5  1  0  0  0  0
  1  6  1  0  0  0  0
  2 11  1  0  0  0  0
  3 16  1  0  0  0  0
  3 10  1  0  0  0  0
  4  7  2  0  0  0  0
  4  8  1  0  0  0  0
  7  9  1  0  0  0  0
  8  1  2  0  0  0  0
  9  5  2  0  0  0  0
 11 10  2  0  0  0  0
 11  7  1  0  0  0  0
 12  2  1  0  0  0  0
 12 15  2  0  0  0  0
 13 14  1  0  0  0  0
 13  2  2  0  0  0  0
 14  3  2  0  0  0  0
 15  4  1  0  0  0  0
 17 16  1  0  0  0  0
 19 17  1  0  0  0  0
 19 18  1  0  0  0  0
 20 19  1  0  0  0  0
 21 19  1  0  0  0  0
 22 25  1  0  0  0  0
 22 21  1  1  0  0  0
 23 28  1  0  0  0  0
 24 29  1  6  0  0  0
 24 26  1  0  0  0  0
 24 23  1  0  0  0  0
 26 27  1  6  0  0  0
 26 22  1  0  0  0  0
 28 25  1  0  0  0  0
 29 34  1  0  0  0  0
 32 31  1  0  0  0  0
 32 30  1  0  0  0  0
 33 29  1  0  0  0  0
 33 31  1  0  0  0  0
 34 30  1  0  0  0  0
 35 13  1  0  0  0  0
 36 37  1  6  0  0  0
 36 35  1  0  0  0  0
 38 36  1  0  0  0  0
 39 40  1  6  0  0  0
 39 38  1  0  0  0  0
 41 43  1  0  0  0  0
 43 39  1  0  0  0  0
 43 42  1  0  0  0  0
M  END
>  <MODEL>
4

>  <REMARK>
 VINA RESULT:      -8.0      1.374      2.002
  Name = 
  11 active torsions:
  status: ('A' for Active; 'I' for Inactive)
    1  A    between atoms: C_1  and  C_9
    2  A    between atoms: C_1  and  S_35
    3  A    between atoms: C_2  and  C_6
    4  A    between atoms: C_2  and  C_13
    5  A    between atoms: C_3  and  C_4
    6  A    between atoms: C_3  and  C_12
    7  A    between atoms: C_6  and  C_12
    8  A    between atoms: C_9  and  C_32
    9  A    between atoms: N_11  and  C_14
   10  A    between atoms: C_32  and  C_37
   11  A    between atoms: C_34  and  S_35
                            x       y       z     vdW  Elec       q    Type
                         _______ _______ _______ _____ _____    ______ ____

>  <TORSDO>
F 11

$$$$
=
 OpenBabel10262422253D

 43 47  0  0  1  0  0  0  0  0999 V2000
  187.8100  177.4990  147.2080 C   0  0  0  0  0  0  0  0  0  0  0  0
  188.5860  177.6830  142.2100 C   0  0  0  0  0  0  0  0  0  0  0  0
  186.1820  178.5660  141.1210 C   0  0  0  0  0  0  0  0  0  0  0  0
  188.7920  177.3810  144.9960 C   0  0  0  0  0  0  0  0  0  0  0  0
  186.5990  177.9220  146.6530 C   0  0  0  0  0  3  0  0  0  0  0  0
  187.9260  177.3470  148.5820 O   0  0  0  0  0  1  0  0  0  0  0  0
  187.5690  177.8110  144.4270 C   0  0  0  0  0  0  0  0  0  0  0  0
  188.9050  177.2290  146.3810 C   0  0  0  0  0  3  0  0  0  0  0  0
  186.4770  178.0780  145.2690 C   0  0  0  0  0  3  0  0  0  0  0  0
  186.3040  178.3950  142.4640 N   0  0  0  0  0  0  0  0  0  0  0  0
  187.4670  177.9670  143.0320 C   0  0  0  0  0  0  0  0  0  0  0  0
  189.7870  177.2580  142.7940 C   0  0  0  0  0  3  0  0  0  0  0  0
  188.4660  177.8420  140.8180 C   0  0  0  0  0  0  0  0  0  0  0  0
  187.2570  178.2880  140.2780 C   0  0  0  0  0  3  0  0  0  0  0  0
  189.8900  177.1090  144.1780 C   0  0  0  0  0  3  0  0  0  0  0  0
  184.8920  179.0300  140.5460 C   0  0  0  0  0  2  0  0  0  0  0  0
  183.7380  178.6410  141.4640 C   0  0  0  0  0  2  0  0  0  0  0  0
  182.4770  176.8980  140.1950 C   0  0  0  0  0  1  0  0  0  0  0  0
  182.4460  178.3320  140.7050 C   0  0  0  0  0  0  0  0  0  0  0  0
  181.2500  178.5210  141.6310 C   0  0  0  0  0  1  0  0  0  0  0  0
  182.3650  179.3060  139.5250 C   0  0  0  0  0  2  0  0  0  0  0  0
  181.3460  178.9130  138.4590 C   0  0  2  0  0  3  0  0  0  0  0  0
  180.5970  180.1340  135.7940 C   0  0  0  0  0  2  0  0  0  0  0  0
  180.5740  180.9370  137.1140 C   0  0  2  0  0  3  0  0  0  0  0  0
  182.0840  178.6000  137.1520 C   0  0  0  0  0  2  0  0  0  0  0  0
  180.2800  180.0100  138.3070 C   0  0  1  0  0  3  0  0  0  0  0  0
  179.0280  179.4310  138.1740 F   0  0  0  0  0  0  0  0  0  0  0  0
  181.1450  178.7100  135.9520 C   0  0  0  0  0  2  0  0  0  0  0  0
  179.6240  182.0610  137.0470 N   0  0  0  0  0  0  0  0  0  0  0  0
  181.2640  183.8880  137.4390 C   0  0  0  0  0  2  0  0  0  0  0  0
  180.8010  183.3750  135.2980 C   0  0  0  0  0  2  0  0  0  0  0  0
  180.9740  184.4500  136.1850 O   0  0  0  0  0  0  0  0  0  0  0  0
  179.5390  182.5890  135.6720 C   0  0  0  0  0  2  0  0  0  0  0  0
  180.0360  183.1390  137.9670 C   0  0  0  0  0  2  0  0  0  0  0  0
  189.8270  177.5060  139.6970 S   0  0  0  0  0  0  0  0  0  0  0  0
  188.7850  177.7190  138.2170 C   0  0  1  0  0  3  0  0  0  0  0  0
  189.2530  178.9180  137.4110 C   0  0  0  0  0  1  0  0  0  0  0  0
  188.7390  176.4440  137.3710 C   0  0  0  0  0  2  0  0  0  0  0  0
  187.3560  176.1620  136.7830 C   0  0  2  0  0  3  0  0  0  0  0  0
  186.8790  174.9240  137.2240 O   0  0  0  0  0  1  0  0  0  0  0  0
  186.5310  177.3330  134.6890 C   0  0  0  0  0  1  0  0  0  0  0  0
  188.8290  176.3980  134.7800 C   0  0  0  0  0  1  0  0  0  0  0  0
  187.4010  176.2210  135.2570 C   0  0  0  0  0  3  0  0  0  0  0  0
  1  6  1  0  0  0  0
  2 12  1  0  0  0  0
  2 11  1  0  0  0  0
  3 10  1  0  0  0  0
  4  8  1  0  0  0  0
  5  1  1  0  0  0  0
  7  4  2  0  0  0  0
  7  9  1  0  0  0  0
  8  1  2  0  0  0  0
  9  5  2  0  0  0  0
 10 11  2  0  0  0  0
 11  7  1  0  0  0  0
 12 15  2  0  0  0  0
 13  2  2  0  0  0  0
 14 13  1  0  0  0  0
 14  3  2  0  0  0  0
 15  4  1  0  0  0  0
 16  3  1  0  0  0  0
 16 17  1  0  0  0  0
 18 19  1  0  0  0  0
 19 17  1  0  0  0  0
 19 20  1  0  0  0  0
 21 19  1  0  0  0  0
 22 21  1  1  0  0  0
 23 28  1  0  0  0  0
 24 23  1  6  0  0  0
 24 26  1  0  0  0  0
 25 22  1  0  0  0  0
 26 27  1  6  0  0  0
 26 22  1  0  0  0  0
 28 25  1  0  0  0  0
 29 24  1  0  0  0  0
 29 34  1  0  0  0  0
 30 34  1  0  0  0  0
 31 33  1  0  0  0  0
 31 32  1  0  0  0  0
 32 30  1  0  0  0  0
 33 29  1  0  0  0  0
 35 13  1  0  0  0  0
 36 37  1  6  0  0  0
 36 35  1  0  0  0  0
 38 36  1  0  0  0  0
 39 40  1  6  0  0  0
 39 38  1  0  0  0  0
 41 43  1  0  0  0  0
 42 43  1  0  0  0  0
 43 39  1  0  0  0  0
M  END
>  <MODEL>
5

>  <REMARK>
 VINA RESULT:      -7.9      3.086      4.721
  Name = 
  11 active torsions:
  status: ('A' for Active; 'I' for Inactive)
    1  A    between atoms: C_1  and  C_9
    2  A    between atoms: C_1  and  S_35
    3  A    between atoms: C_2  and  C_6
    4  A    between atoms: C_2  and  C_13
    5  A    between atoms: C_3  and  C_4
    6  A    between atoms: C_3  and  C_12
    7  A    between atoms: C_6  and  C_12
    8  A    between atoms: C_9  and  C_32
    9  A    between atoms: N_11  and  C_14
   10  A    between atoms: C_32  and  C_37
   11  A    between atoms: C_34  and  S_35
                            x       y       z     vdW  Elec       q    Type
                         _______ _______ _______ _____ _____    ______ ____

>  <TORSDO>
F 11

$$$$
=
 OpenBabel10262422253D

 43 47  0  0  1  0  0  0  0  0999 V2000
  184.8480  178.8150  145.6640 C   0  0  0  0  0  0  0  0  0  0  0  0
  182.3550  178.8640  141.2600 C   0  0  0  0  0  0  0  0  0  0  0  0
  184.3130  178.6000  139.2990 C   0  0  0  0  0  0  0  0  0  0  0  0
  183.1250  178.8960  143.9620 C   0  0  0  0  0  0  0  0  0  0  0  0
  185.8280  178.7040  144.6740 C   0  0  0  0  0  3  0  0  0  0  0  0
  185.2150  178.8300  147.0020 O   0  0  0  0  0  1  0  0  0  0  0  0
  184.1130  178.7810  142.9540 C   0  0  0  0  0  0  0  0  0  0  0  0
  183.4990  178.9100  145.3090 C   0  0  0  0  0  3  0  0  0  0  0  0
  185.4640  178.6860  143.3240 C   0  0  0  0  0  3  0  0  0  0  0  0
  184.6590  178.6350  140.6140 N   0  0  0  0  0  0  0  0  0  0  0  0
  183.7270  178.7610  141.6000 C   0  0  0  0  0  0  0  0  0  0  0  0
  181.3950  178.9770  142.2730 C   0  0  0  0  0  3  0  0  0  0  0  0
  181.9870  178.8450  139.9020 C   0  0  0  0  0  0  0  0  0  0  0  0
  182.9750  178.7090  138.9240 C   0  0  0  0  0  3  0  0  0  0  0  0
  181.7770  178.9920  143.6150 C   0  0  0  0  0  3  0  0  0  0  0  0
  185.3650  178.4680  138.2570 C   0  0  0  0  0  2  0  0  0  0  0  0
  185.3460  177.0610  137.6670 C   0  0  0  0  0  2  0  0  0  0  0  0
  186.2360  175.7170  135.7600 C   0  0  0  0  0  1  0  0  0  0  0  0
  186.5840  176.7470  136.8260 C   0  0  0  0  0  0  0  0  0  0  0  0
  187.0900  178.0210  136.1620 C   0  0  0  0  0  1  0  0  0  0  0  0
  187.6480  176.1800  137.7730 C   0  0  0  0  0  2  0  0  0  0  0  0
  188.9930  176.8980  137.7030 C   0  0  2  0  0  3  0  0  0  0  0  0
  191.4720  176.7730  139.4330 C   0  0  0  0  0  2  0  0  0  0  0  0
  190.0710  177.0870  140.0050 C   0  0  2  0  0  3  0  0  0  0  0  0
  190.1050  175.8600  137.5080 C   0  0  0  0  0  2  0  0  0  0  0  0
  189.1960  177.7790  138.9460 C   0  0  1  0  0  3  0  0  0  0  0  0
  189.7510  178.9920  138.5740 F   0  0  0  0  0  0  0  0  0  0  0  0
  191.4590  176.4190  137.9410 C   0  0  0  0  0  2  0  0  0  0  0  0
  190.1580  177.8780  141.2450 N   0  0  0  0  0  0  0  0  0  0  0  0
  188.3070  176.7570  142.4700 C   0  0  0  0  0  2  0  0  0  0  0  0
  190.3870  175.9760  142.8270 C   0  0  0  0  0  2  0  0  0  0  0  0
  189.1940  176.3380  143.4740 O   0  0  0  0  0  0  0  0  0  0  0  0
  191.0480  177.2200  142.2210 C   0  0  0  0  0  2  0  0  0  0  0  0
  188.8180  178.0560  141.8370 C   0  0  0  0  0  2  0  0  0  0  0  0
  180.2760  178.9710  139.3750 S   0  0  0  0  0  0  0  0  0  0  0  0
  180.1150  177.1690  139.1490 C   0  0  1  0  0  3  0  0  0  0  0  0
  179.1130  176.6020  140.1390 C   0  0  0  0  0  1  0  0  0  0  0  0
  179.7580  176.8110  137.7040 C   0  0  0  0  0  2  0  0  0  0  0  0
  180.0940  175.3650  137.3420 C   0  0  2  0  0  3  0  0  0  0  0  0
  180.7930  174.7480  138.3830 O   0  0  0  0  0  1  0  0  0  0  0  0
  182.1250  176.1990  136.0710 C   0  0  0  0  0  1  0  0  0  0  0  0
  181.2990  173.8830  135.7320 C   0  0  0  0  0  1  0  0  0  0  0  0
  180.8900  175.3100  136.0380 C   0  0  0  0  0  3  0  0  0  0  0  0
  1  6  1  0  0  0  0
  2 11  1  0  0  0  0
  2 12  1  0  0  0  0
  3 10  1  0  0  0  0
  4  8  2  0  0  0  0
  5  1  2  0  0  0  0
  7  9  2  0  0  0  0
  7  4  1  0  0  0  0
  8  1  1  0  0  0  0
  9  5  1  0  0  0  0
 10 11  2  0  0  0  0
 11  7  1  0  0  0  0
 12 15  2  0  0  0  0
 13  2  2  0  0  0  0
 14  3  2  0  0  0  0
 14 13  1  0  0  0  0
 15  4  1  0  0  0  0
 16  3  1  0  0  0  0
 17 16  1  0  0  0  0
 18 19  1  0  0  0  0
 19 17  1  0  0  0  0
 19 21  1  0  0  0  0
 20 19  1  0  0  0  0
 22 21  1  1  0  0  0
 22 26  1  0  0  0  0
 24 23  1  6  0  0  0
 24 29  1  0  0  0  0
 25 22  1  0  0  0  0
 25 28  1  0  0  0  0
 26 27  1  6  0  0  0
 26 24  1  0  0  0  0
 28 23  1  0  0  0  0
 29 34  1  0  0  0  0
 29 33  1  0  0  0  0
 30 32  1  0  0  0  0
 31 32  1  0  0  0  0
 33 31  1  0  0  0  0
 34 30  1  0  0  0  0
 35 13  1  0  0  0  0
 36 35  1  0  0  0  0
 36 37  1  1  0  0  0
 38 36  1  0  0  0  0
 39 38  1  0  0  0  0
 39 40  1  1  0  0  0
 42 43  1  0  0  0  0
 43 41  1  0  0  0  0
 43 39  1  0  0  0  0
M  END
>  <MODEL>
6

>  <REMARK>
 VINA RESULT:      -7.7      3.229      7.433
  Name = 
  11 active torsions:
  status: ('A' for Active; 'I' for Inactive)
    1  A    between atoms: C_1  and  C_9
    2  A    between atoms: C_1  and  S_35
    3  A    between atoms: C_2  and  C_6
    4  A    between atoms: C_2  and  C_13
    5  A    between atoms: C_3  and  C_4
    6  A    between atoms: C_3  and  C_12
    7  A    between atoms: C_6  and  C_12
    8  A    between atoms: C_9  and  C_32
    9  A    between atoms: N_11  and  C_14
   10  A    between atoms: C_32  and  C_37
   11  A    between atoms: C_34  and  S_35
                            x       y       z     vdW  Elec       q    Type
                         _______ _______ _______ _____ _____    ______ ____

>  <TORSDO>
F 11

$$$$
=
 OpenBabel10262422253D

 43 47  0  0  1  0  0  0  0  0999 V2000
  184.6670  178.8680  145.0870 C   0  0  0  0  0  0  0  0  0  0  0  0
  181.4380  178.6520  141.1970 C   0  0  0  0  0  0  0  0  0  0  0  0
  183.0000  178.0620  138.9710 C   0  0  0  0  0  0  0  0  0  0  0  0
  182.6760  178.8980  143.7070 C   0  0  0  0  0  0  0  0  0  0  0  0
  185.4490  178.5930  143.9620 C   0  0  0  0  0  3  0  0  0  0  0  0
  185.2670  178.9910  146.3330 O   0  0  0  0  0  1  0  0  0  0  0  0
  183.4620  178.6170  142.5630 C   0  0  0  0  0  0  0  0  0  0  0  0
  183.2840  179.0200  144.9610 C   0  0  0  0  0  3  0  0  0  0  0  0
  184.8510  178.4670  142.7050 C   0  0  0  0  0  3  0  0  0  0  0  0
  183.5760  178.2030  140.1940 N   0  0  0  0  0  0  0  0  0  0  0  0
  182.8410  178.4890  141.3070 C   0  0  0  0  0  0  0  0  0  0  0  0
  180.6790  178.9300  142.3420 C   0  0  0  0  0  3  0  0  0  0  0  0
  180.8340  178.5240  139.9330 C   0  0  0  0  0  0  0  0  0  0  0  0
  181.6240  178.2250  138.8210 C   0  0  0  0  0  3  0  0  0  0  0  0
  181.2940  179.0520  143.5890 C   0  0  0  0  0  3  0  0  0  0  0  0
  183.8430  177.7560  137.7850 C   0  0  0  0  0  2  0  0  0  0  0  0
  185.3200  177.8750  138.1450 C   0  0  0  0  0  2  0  0  0  0  0  0
  185.4460  176.2040  136.2930 C   0  0  0  0  0  1  0  0  0  0  0  0
  186.2410  177.1960  137.1300 C   0  0  0  0  0  0  0  0  0  0  0  0
  186.8670  178.2480  136.2210 C   0  0  0  0  0  1  0  0  0  0  0  0
  187.3290  176.4610  137.9200 C   0  0  0  0  0  2  0  0  0  0  0  0
  188.7100  177.1040  137.8310 C   0  0  2  0  0  3  0  0  0  0  0  0
  191.2290  176.7800  139.4750 C   0  0  0  0  0  2  0  0  0  0  0  0
  189.8660  177.1520  140.1030 C   0  0  2  0  0  3  0  0  0  0  0  0
  189.7540  176.0120  137.5670 C   0  0  0  0  0  2  0  0  0  0  0  0
  189.0000  177.9290  139.0950 C   0  0  1  0  0  3  0  0  0  0  0  0
  189.6130  179.1210  138.7450 F   0  0  0  0  0  0  0  0  0  0  0  0
  191.1510  176.4790  137.9740 C   0  0  0  0  0  2  0  0  0  0  0  0
  190.0360  177.8940  141.3650 N   0  0  0  0  0  0  0  0  0  0  0  0
  188.2530  176.7390  142.6560 C   0  0  0  0  0  2  0  0  0  0  0  0
  190.3430  175.9300  142.8550 C   0  0  0  0  0  2  0  0  0  0  0  0
  189.1950  176.2740  143.5870 O   0  0  0  0  0  0  0  0  0  0  0  0
  190.9770  177.1920  142.2580 C   0  0  0  0  0  2  0  0  0  0  0  0
  188.7370  178.0580  142.0430 C   0  0  0  0  0  2  0  0  0  0  0  0
  179.0650  178.7140  139.6960 S   0  0  0  0  0  0  0  0  0  0  0  0
  179.2180  180.4760  139.2550 C   0  0  1  0  0  3  0  0  0  0  0  0
  179.3080  181.3270  140.5100 C   0  0  0  0  0  1  0  0  0  0  0  0
  180.3980  180.7210  138.3120 C   0  0  0  0  0  2  0  0  0  0  0  0
  179.9800  180.8610  136.8480 C   0  0  2  0  0  3  0  0  0  0  0  0
  180.7350  180.0070  136.0390 O   0  0  0  0  0  1  0  0  0  0  0  0
  180.8730  183.1740  137.3870 C   0  0  0  0  0  1  0  0  0  0  0  0
  180.7960  182.3760  135.0380 C   0  0  0  0  0  1  0  0  0  0  0  0
  180.1120  182.3120  136.3890 C   0  0  0  0  0  3  0  0  0  0  0  0
  1  6  1  0  0  0  0
  2 11  1  0  0  0  0
  2 12  1  0  0  0  0
  3 10  1  0  0  0  0
  4  8  2  0  0  0  0
  5  1  2  0  0  0  0
  7  9  2  0  0  0  0
  7  4  1  0  0  0  0
  8  1  1  0  0  0  0
  9  5  1  0  0  0  0
 10 11  2  0  0  0  0
 11  7  1  0  0  0  0
 12 15  2  0  0  0  0
 13  2  2  0  0  0  0
 14  3  2  0  0  0  0
 14 13  1  0  0  0  0
 15  4  1  0  0  0  0
 16 17  1  0  0  0  0
 16  3  1  0  0  0  0
 18 19  1  0  0  0  0
 19 21  1  0  0  0  0
 19 17  1  0  0  0  0
 20 19  1  0  0  0  0
 22 21  1  1  0  0  0
 22 26  1  0  0  0  0
 24 23  1  6  0  0  0
 24 29  1  0  0  0  0
 25 22  1  0  0  0  0
 25 28  1  0  0  0  0
 26 27  1  6  0  0  0
 26 24  1  0  0  0  0
 28 23  1  0  0  0  0
 29 34  1  0  0  0  0
 29 33  1  0  0  0  0
 30 32  1  0  0  0  0
 31 32  1  0  0  0  0
 33 31  1  0  0  0  0
 34 30  1  0  0  0  0
 35 13  1  0  0  0  0
 36 35  1  0  0  0  0
 36 37  1  1  0  0  0
 38 36  1  0  0  0  0
 39 40  1  6  0  0  0
 39 38  1  0  0  0  0
 42 43  1  0  0  0  0
 43 39  1  0  0  0  0
 43 41  1  0  0  0  0
M  END
>  <MODEL>
7

>  <REMARK>
 VINA RESULT:      -7.5      3.897      7.828
  Name = 
  11 active torsions:
  status: ('A' for Active; 'I' for Inactive)
    1  A    between atoms: C_1  and  C_9
    2  A    between atoms: C_1  and  S_35
    3  A    between atoms: C_2  and  C_6
    4  A    between atoms: C_2  and  C_13
    5  A    between atoms: C_3  and  C_4
    6  A    between atoms: C_3  and  C_12
    7  A    between atoms: C_6  and  C_12
    8  A    between atoms: C_9  and  C_32
    9  A    between atoms: N_11  and  C_14
   10  A    between atoms: C_32  and  C_37
   11  A    between atoms: C_34  and  S_35
                            x       y       z     vdW  Elec       q    Type
                         _______ _______ _______ _____ _____    ______ ____

>  <TORSDO>
F 11

$$$$
=
 OpenBabel10262422253D

 43 47  0  0  1  0  0  0  0  0999 V2000
  187.8500  177.5500  147.2650 C   0  0  0  0  0  0  0  0  0  0  0  0
  188.3710  177.8150  142.2390 C   0  0  0  0  0  0  0  0  0  0  0  0
  185.8940  178.6500  141.2820 C   0  0  0  0  0  0  0  0  0  0  0  0
  188.7230  177.4840  145.0060 C   0  0  0  0  0  0  0  0  0  0  0  0
  186.6030  177.9490  146.7770 C   0  0  0  0  0  3  0  0  0  0  0  0
  188.0380  177.3840  148.6300 O   0  0  0  0  0  1  0  0  0  0  0  0
  187.4630  177.8900  144.5050 C   0  0  0  0  0  0  0  0  0  0  0  0
  188.9090  177.3190  146.3820 C   0  0  0  0  0  3  0  0  0  0  0  0
  186.4080  178.1190  145.4040 C   0  0  0  0  0  3  0  0  0  0  0  0
  186.0870  178.4650  142.6150 N   0  0  0  0  0  0  0  0  0  0  0  0
  187.2880  178.0600  143.1190 C   0  0  0  0  0  0  0  0  0  0  0  0
  189.6100  177.4140  142.7570 C   0  0  0  0  0  3  0  0  0  0  0  0
  188.1770  177.9880  140.8560 C   0  0  0  0  0  0  0  0  0  0  0  0
  186.9320  178.4090  140.3830 C   0  0  0  0  0  3  0  0  0  0  0  0
  189.7850  177.2500  144.1310 C   0  0  0  0  0  3  0  0  0  0  0  0
  184.5660  179.0870  140.7780 C   0  0  0  0  0  2  0  0  0  0  0  0
  184.3750  178.6300  139.3350 C   0  0  0  0  0  2  0  0  0  0  0  0
  182.0170  178.0940  139.9590 C   0  0  0  0  0  1  0  0  0  0  0  0
  182.9160  178.6780  138.8780 C   0  0  0  0  0  0  0  0  0  0  0  0
  182.5130  180.1210  138.6010 C   0  0  0  0  0  1  0  0  0  0  0  0
  182.8100  177.8400  137.5990 C   0  0  0  0  0  2  0  0  0  0  0  0
  183.7610  176.6470  137.5530 C   0  0  2  0  0  3  0  0  0  0  0  0
  183.8830  174.1940  135.7850 C   0  0  0  0  0  2  0  0  0  0  0  0
  182.6200  174.5810  136.5880 C   0  0  2  0  0  3  0  0  0  0  0  0
  184.4680  176.6240  136.1920 C   0  0  0  0  0  2  0  0  0  0  0  0
  183.0050  175.3460  137.8670 C   0  0  1  0  0  3  0  0  0  0  0  0
  183.7730  174.5480  138.6980 F   0  0  0  0  0  0  0  0  0  0  0  0
  185.0100  175.2300  135.8800 C   0  0  0  0  0  2  0  0  0  0  0  0
  181.7860  173.4030  136.8860 N   0  0  0  0  0  0  0  0  0  0  0  0
  179.5740  174.4790  136.5240 C   0  0  0  0  0  2  0  0  0  0  0  0
  180.4780  173.3920  134.7730 C   0  0  0  0  0  2  0  0  0  0  0  0
  179.2820  173.5820  135.4830 O   0  0  0  0  0  0  0  0  0  0  0  0
  181.4920  172.6490  135.6520 C   0  0  0  0  0  2  0  0  0  0  0  0
  180.5230  173.8160  137.5280 C   0  0  0  0  0  2  0  0  0  0  0  0
  189.4890  177.7010  139.6650 S   0  0  0  0  0  0  0  0  0  0  0  0
  188.4100  178.0760  138.2450 C   0  0  1  0  0  3  0  0  0  0  0  0
  189.0630  179.1110  137.3460 C   0  0  0  0  0  1  0  0  0  0  0  0
  188.0280  176.8090  137.4760 C   0  0  0  0  0  2  0  0  0  0  0  0
  188.6900  176.7180  136.1000 C   0  0  2  0  0  3  0  0  0  0  0  0
  187.8250  177.1880  135.1080 O   0  0  0  0  0  1  0  0  0  0  0  0
  190.6420  175.1310  135.7730 C   0  0  0  0  0  1  0  0  0  0  0  0
  188.5480  174.3370  136.8440 C   0  0  0  0  0  1  0  0  0  0  0  0
  189.1280  175.2830  135.8110 C   0  0  0  0  0  3  0  0  0  0  0  0
  1  6  1  0  0  0  0
  2 12  1  0  0  0  0
  2 11  1  0  0  0  0
  3 10  1  0  0  0  0
  4  8  1  0  0  0  0
  5  1  1  0  0  0  0
  7  4  2  0  0  0  0
  7  9  1  0  0  0  0
  8  1  2  0  0  0  0
  9  5  2  0  0  0  0
 10 11  2  0  0  0  0
 11  7  1  0  0  0  0
 12 15  2  0  0  0  0
 13  2  2  0  0  0  0
 14 13  1  0  0  0  0
 14  3  2  0  0  0  0
 15  4  1  0  0  0  0
 16  3  1  0  0  0  0
 17 16  1  0  0  0  0
 19 17  1  0  0  0  0
 19 18  1  0  0  0  0
 20 19  1  0  0  0  0
 21 19  1  0  0  0  0
 22 21  1  6  0  0  0
 22 26  1  0  0  0  0
 23 28  1  0  0  0  0
 24 23  1  1  0  0  0
 24 29  1  0  0  0  0
 24 26  1  0  0  0  0
 25 22  1  0  0  0  0
 26 27  1  1  0  0  0
 28 25  1  0  0  0  0
 29 34  1  0  0  0  0
 30 34  1  0  0  0  0
 31 32  1  0  0  0  0
 31 33  1  0  0  0  0
 32 30  1  0  0  0  0
 33 29  1  0  0  0  0
 35 13  1  0  0  0  0
 36 37  1  6  0  0  0
 36 35  1  0  0  0  0
 38 36  1  0  0  0  0
 39 40  1  6  0  0  0
 39 38  1  0  0  0  0
 41 43  1  0  0  0  0
 43 39  1  0  0  0  0
 43 42  1  0  0  0  0
M  END
>  <MODEL>
8

>  <REMARK>
 VINA RESULT:      -7.5      1.547      2.590
  Name = 
  11 active torsions:
  status: ('A' for Active; 'I' for Inactive)
    1  A    between atoms: C_1  and  C_9
    2  A    between atoms: C_1  and  S_35
    3  A    between atoms: C_2  and  C_6
    4  A    between atoms: C_2  and  C_13
    5  A    between atoms: C_3  and  C_4
    6  A    between atoms: C_3  and  C_12
    7  A    between atoms: C_6  and  C_12
    8  A    between atoms: C_9  and  C_32
    9  A    between atoms: N_11  and  C_14
   10  A    between atoms: C_32  and  C_37
   11  A    between atoms: C_34  and  S_35
                            x       y       z     vdW  Elec       q    Type
                         _______ _______ _______ _____ _____    ______ ____

>  <TORSDO>
F 11

$$$$
=
 OpenBabel10262422253D

 43 47  0  0  1  0  0  0  0  0999 V2000
  190.7080  176.0060  136.1540 C   0  0  0  0  0  0  0  0  0  0  0  0
  190.1280  177.8050  140.8480 C   0  0  0  0  0  0  0  0  0  0  0  0
  187.4220  178.4130  141.0780 C   0  0  0  0  0  0  0  0  0  0  0  0
  191.0870  176.7410  138.4310 C   0  0  0  0  0  0  0  0  0  0  0  0
  189.3540  176.3330  136.2690 C   0  0  0  0  0  3  0  0  0  0  0  0
  191.1940  175.4780  134.9660 O   0  0  0  0  0  1  0  0  0  0  0  0
  189.7160  177.0720  138.5550 C   0  0  0  0  0  0  0  0  0  0  0  0
  191.5730  176.2090  137.2330 C   0  0  0  0  0  3  0  0  0  0  0  0
  188.8580  176.8640  137.4630 C   0  0  0  0  0  3  0  0  0  0  0  0
  187.9160  177.9130  139.9140 N   0  0  0  0  0  0  0  0  0  0  0  0
  189.2350  177.6010  139.7670 C   0  0  0  0  0  0  0  0  0  0  0  0
  191.4810  177.4700  140.7040 C   0  0  0  0  0  3  0  0  0  0  0  0
  189.6300  178.3370  142.0520 C   0  0  0  0  0  0  0  0  0  0  0  0
  188.2710  178.6370  142.1610 C   0  0  0  0  0  3  0  0  0  0  0  0
  191.9570  176.9410  139.5040 C   0  0  0  0  0  3  0  0  0  0  0  0
  185.9770  178.7440  141.1900 C   0  0  0  0  0  2  0  0  0  0  0  0
  185.3420  178.8020  139.8040 C   0  0  0  0  0  2  0  0  0  0  0  0
  183.3980  178.1490  141.2300 C   0  0  0  0  0  1  0  0  0  0  0  0
  183.8390  178.5200  139.8200 C   0  0  0  0  0  0  0  0  0  0  0  0
  183.0800  179.7560  139.3540 C   0  0  0  0  0  1  0  0  0  0  0  0
  183.5840  177.3470  138.8670 C   0  0  0  0  0  2  0  0  0  0  0  0
  183.9250  177.6410  137.4090 C   0  0  2  0  0  3  0  0  0  0  0  0
  183.7060  175.9900  134.8830 C   0  0  0  0  0  2  0  0  0  0  0  0
  184.4770  175.5040  136.1310 C   0  0  2  0  0  3  0  0  0  0  0  0
  182.6460  177.5540  136.5680 C   0  0  0  0  0  2  0  0  0  0  0  0
  185.0390  176.7010  136.9200 C   0  0  1  0  0  3  0  0  0  0  0  0
  185.9440  177.4100  136.1470 F   0  0  0  0  0  0  0  0  0  0  0  0
  182.9730  177.3210  135.0940 C   0  0  0  0  0  2  0  0  0  0  0  0
  185.5330  174.5400  135.7740 N   0  0  0  0  0  0  0  0  0  0  0  0
  185.2500  173.0220  137.7220 C   0  0  0  0  0  2  0  0  0  0  0  0
  184.1330  172.4890  135.8430 C   0  0  0  0  0  2  0  0  0  0  0  0
  184.9250  171.9530  136.8720 O   0  0  0  0  0  0  0  0  0  0  0  0
  184.9760  173.4310  134.9760 C   0  0  0  0  0  2  0  0  0  0  0  0
  186.1720  174.0030  136.9900 C   0  0  0  0  0  2  0  0  0  0  0  0
  190.6850  178.6300  143.4740 S   0  0  0  0  0  0  0  0  0  0  0  0
  190.0600  177.1630  144.3580 C   0  0  1  0  0  3  0  0  0  0  0  0
  191.0740  176.0350  144.2890 C   0  0  0  0  0  1  0  0  0  0  0  0
  189.6730  177.4970  145.8010 C   0  0  0  0  0  2  0  0  0  0  0  0
  188.2330  177.1120  146.1410 C   0  0  2  0  0  3  0  0  0  0  0  0
  187.3510  177.6090  145.1770 O   0  0  0  0  0  1  0  0  0  0  0  0
  189.0370  178.2490  148.2620 C   0  0  0  0  0  1  0  0  0  0  0  0
  186.7190  178.6070  147.4500 C   0  0  0  0  0  1  0  0  0  0  0  0
  187.8600  177.6130  147.5360 C   0  0  0  0  0  3  0  0  0  0  0  0
  1  5  2  0  0  0  0
  1  8  1  0  0  0  0
  2 13  1  0  0  0  0
  3 16  1  0  0  0  0
  3 14  1  0  0  0  0
  4  7  1  0  0  0  0
  4 15  1  0  0  0  0
  5  9  1  0  0  0  0
  6  1  1  0  0  0  0
  7 11  1  0  0  0  0
  8  4  2  0  0  0  0
  9  7  2  0  0  0  0
 10  3  2  0  0  0  0
 11 10  1  0  0  0  0
 11  2  2  0  0  0  0
 12  2  1  0  0  0  0
 13 14  2  0  0  0  0
 13 35  1  0  0  0  0
 15 12  2  0  0  0  0
 17 19  1  0  0  0  0
 17 16  1  0  0  0  0
 19 18  1  0  0  0  0
 20 19  1  0  0  0  0
 21 19  1  0  0  0  0
 22 21  1  1  0  0  0
 23 28  1  0  0  0  0
 24 23  1  6  0  0  0
 24 26  1  0  0  0  0
 25 22  1  0  0  0  0
 26 27  1  6  0  0  0
 26 22  1  0  0  0  0
 28 25  1  0  0  0  0
 29 24  1  0  0  0  0
 29 34  1  0  0  0  0
 31 32  1  0  0  0  0
 32 30  1  0  0  0  0
 33 29  1  0  0  0  0
 33 31  1  0  0  0  0
 34 30  1  0  0  0  0
 35 36  1  0  0  0  0
 36 37  1  1  0  0  0
 36 38  1  0  0  0  0
 38 39  1  0  0  0  0
 39 40  1  6  0  0  0
 39 43  1  0  0  0  0
 42 43  1  0  0  0  0
 43 41  1  0  0  0  0
M  END
>  <MODEL>
9

>  <REMARK>
 VINA RESULT:      -7.4      2.314      6.341
  Name = 
  11 active torsions:
  status: ('A' for Active; 'I' for Inactive)
    1  A    between atoms: C_1  and  C_9
    2  A    between atoms: C_1  and  S_35
    3  A    between atoms: C_2  and  C_6
    4  A    between atoms: C_2  and  C_13
    5  A    between atoms: C_3  and  C_4
    6  A    between atoms: C_3  and  C_12
    7  A    between atoms: C_6  and  C_12
    8  A    between atoms: C_9  and  C_32
    9  A    between atoms: N_11  and  C_14
   10  A    between atoms: C_32  and  C_37
   11  A    between atoms: C_34  and  S_35
                            x       y       z     vdW  Elec       q    Type
                         _______ _______ _______ _____ _____    ______ ____

>  <TORSDO>
F 11

$$$$
