=
 OpenBabel10262421313D

 32 35  0  0  1  0  0  0  0  0999 V2000
  186.5570  178.7140  141.2970 N   0  0  1  0  0  0  0  0  0  0  0  0
  186.2590  177.4760  146.0220 C   0  0  0  0  0  3  0  0  0  0  0  0
  185.2230  178.3010  146.1520 C   0  0  0  0  0  3  0  0  0  0  0  0
  184.3670  179.1600  140.2200 C   0  0  0  0  0  0  0  0  0  0  0  0
  182.9340  179.2250  140.3030 N   0  0  0  0  0  0  0  0  0  0  0  0
  188.7210  177.9950  140.5430 C   0  0  2  0  0  3  0  0  0  0  0  0
  188.6870  177.9360  142.0610 C   0  0  2  0  0  3  0  0  0  0  0  0
  186.8380  177.1810  144.6740 C   0  0  0  0  0  2  0  0  0  0  0  0
  187.2000  177.9430  142.3510 C   0  0  1  0  0  3  0  0  0  0  0  0
  185.3340  178.9780  143.6960 C   0  0  1  0  0  3  0  0  0  0  0  0
  184.4610  178.2790  142.6360 C   0  0  1  0  0  3  0  0  0  0  0  0
  184.6970  178.9970  145.0170 N   0  0  0  0  0  2  0  0  0  0  0  0
  186.7690  178.3960  143.7480 C   0  0  1  0  0  3  0  0  0  0  0  0
  183.0160  178.7990  142.6860 C   0  0  0  0  0  2  0  0  0  0  0  0
  187.2830  178.2690  140.1110 C   0  0  0  0  0  2  0  0  0  0  0  0
  184.9730  179.7650  139.2930 O   0  0  0  0  0  0  0  0  0  0  0  0
  185.1390  178.3150  141.2180 C   0  0  2  0  0  3  0  0  0  0  0  0
  182.2790  178.4940  141.3940 C   0  0  1  0  0  3  0  0  0  0  0  0
  180.0190  177.7130  141.4000 O   0  0  0  0  0  1  0  0  0  0  0  0
  180.8060  178.8520  141.5620 C   0  0  0  0  0  2  0  0  0  0  0  0
  181.8610  179.0950  138.1080 C   0  0  0  0  0  1  0  0  0  0  0  0
  182.1740  179.9760  139.3040 C   0  0  0  0  0  2  0  0  0  0  0  0
  189.1930  176.6660  139.9830 C   0  0  0  0  0  2  0  0  0  0  0  0
  190.4260  176.3260  140.5390 O   0  0  0  0  0  1  0  0  0  0  0  0
  189.3190  179.1340  142.5980 N   0  0  0  0  0  2  0  0  0  0  0  0
  190.5450  178.7140  143.2560 C   0  0  0  0  0  2  0  0  0  0  0  0
  190.3110  178.5690  144.7520 C   0  0  0  0  0  2  0  0  0  0  0  0
  190.4430  177.1180  145.1890 C   0  0  0  0  0  2  0  0  0  0  0  0
  190.1520  176.9800  146.6790 C   0  0  0  0  0  2  0  0  0  0  0  0
  191.2870  176.2830  147.4220 C   0  0  2  0  0  3  0  0  0  0  0  0
  192.0110  177.1990  148.1870 O   0  0  0  0  0  1  0  0  0  0  0  0
  192.2130  175.5600  146.4600 C   0  0  0  0  0  1  0  0  0  0  0  0
  1 15  1  6  0  0  0
  1  9  1  0  0  0  0
  2  3  2  0  0  0  0
  4  5  1  0  0  0  0
  4 17  1  0  0  0  0
  5 18  1  0  0  0  0
  6 23  1  6  0  0  0
  6  7  1  0  0  0  0
  7  9  1  0  0  0  0
  7 25  1  1  0  0  0
  8  2  1  0  0  0  0
  9 13  1  0  0  0  0
 10 13  1  0  0  0  0
 10 12  1  0  0  0  0
 11 14  1  0  0  0  0
 11 10  1  0  0  0  0
 12  3  1  0  0  0  0
 13  8  1  0  0  0  0
 15  6  1  0  0  0  0
 16  4  2  0  0  0  0
 17  1  1  0  0  0  0
 17 11  1  0  0  0  0
 18 20  1  0  0  0  0
 18 14  1  0  0  0  0
 19 20  1  0  0  0  0
 21 22  1  0  0  0  0
 22  5  1  0  0  0  0
 23 24  1  0  0  0  0
 25 26  1  0  0  0  0
 26 27  1  0  0  0  0
 27 28  1  0  0  0  0
 28 29  1  0  0  0  0
 29 30  1  0  0  0  0
 30 31  1  0  0  0  0
 32 30  1  0  0  0  0
M  END
>  <MODEL>
1

>  <REMARK>
 VINA RESULT:      -7.4      0.000      0.000
  Name = 
  9 active torsions:
  status: ('A' for Active; 'I' for Inactive)
    1  A    between atoms: C_1  and  C_24
    2  A    between atoms: C_2  and  C_10
    3  A    between atoms: C_2  and  C_12
    4  A    between atoms: N_7  and  C_22
    5  A    between atoms: C_8  and  C_19
    6  A    between atoms: C_9  and  N_21
    7  A    between atoms: C_10  and  C_24
    8  A    between atoms: C_12  and  N_21
    9  A    between atoms: C_30  and  C_32
                            x       y       z     vdW  Elec       q    Type
                         _______ _______ _______ _____ _____    ______ ____

>  <TORSDO>
F 9

$$$$
=
 OpenBabel10262421313D

 32 35  0  0  1  0  0  0  0  0999 V2000
  182.7210  179.1640  141.8600 N   0  0  1  0  0  0  0  0  0  0  0  0
  184.9740  177.7200  137.7630 C   0  0  0  0  0  3  0  0  0  0  0  0
  186.1180  178.1950  138.2490 C   0  0  0  0  0  3  0  0  0  0  0  0
  184.1110  178.9820  143.9070 C   0  0  0  0  0  0  0  0  0  0  0  0
  185.3510  178.6150  144.5360 N   0  0  0  0  0  0  0  0  0  0  0  0
  180.3680  179.1480  141.3810 C   0  0  2  0  0  3  0  0  0  0  0  0
  181.1340  179.0250  140.0750 C   0  0  2  0  0  3  0  0  0  0  0  0
  183.7470  177.6590  138.6170 C   0  0  0  0  0  2  0  0  0  0  0  0
  182.5040  178.5800  140.5450 C   0  0  1  0  0  3  0  0  0  0  0  0
  184.9930  178.9650  140.4030 C   0  0  1  0  0  3  0  0  0  0  0  0
  184.9930  178.0790  141.6630 C   0  0  1  0  0  3  0  0  0  0  0  0
  186.1790  178.7450  139.5690 N   0  0  0  0  0  2  0  0  0  0  0  0
  183.6770  178.8330  139.5950 C   0  0  1  0  0  3  0  0  0  0  0  0
  186.3500  178.1450  142.3810 C   0  0  0  0  0  2  0  0  0  0  0  0
  181.4130  178.9990  142.4850 C   0  0  0  0  0  2  0  0  0  0  0  0
  183.3190  179.7720  144.4870 O   0  0  0  0  0  0  0  0  0  0  0  0
  183.7390  178.3660  142.5690 C   0  0  2  0  0  3  0  0  0  0  0  0
  186.2310  177.6830  143.8220 C   0  0  1  0  0  3  0  0  0  0  0  0
  188.3200  176.5220  143.8540 O   0  0  0  0  0  1  0  0  0  0  0  0
  187.6240  177.5820  144.4320 C   0  0  0  0  0  2  0  0  0  0  0  0
  185.0860  178.2680  146.9440 C   0  0  0  0  0  1  0  0  0  0  0  0
  185.6860  179.1440  145.8590 C   0  0  0  0  0  2  0  0  0  0  0  0
  179.3360  178.0390  141.4830 C   0  0  0  0  0  2  0  0  0  0  0  0
  179.5150  177.3320  142.6720 O   0  0  0  0  0  1  0  0  0  0  0  0
  181.2100  180.3350  139.4430 N   0  0  0  0  0  2  0  0  0  0  0  0
  179.9270  180.9870  139.6540 C   0  0  0  0  0  2  0  0  0  0  0  0
  179.7730  182.1560  138.6930 C   0  0  0  0  0  2  0  0  0  0  0  0
  181.0460  182.3760  137.8890 C   0  0  0  0  0  2  0  0  0  0  0  0
  180.7300  183.0530  136.5600 C   0  0  0  0  0  2  0  0  0  0  0  0
  181.1610  184.5150  136.5450 C   0  0  2  0  0  3  0  0  0  0  0  0
  182.2210  184.7260  137.4290 O   0  0  0  0  0  1  0  0  0  0  0  0
  180.0040  185.4350  136.8910 C   0  0  0  0  0  1  0  0  0  0  0  0
  1 15  1  1  0  0  0
  1 17  1  0  0  0  0
  2  3  2  0  0  0  0
  2  8  1  0  0  0  0
  3 12  1  0  0  0  0
  4 16  2  0  0  0  0
  4  5  1  0  0  0  0
  5 22  1  0  0  0  0
  6 23  1  1  0  0  0
  6 15  1  0  0  0  0
  7 25  1  1  0  0  0
  7  9  1  0  0  0  0
  7  6  1  0  0  0  0
  8 13  1  0  0  0  0
  9  1  1  0  0  0  0
 10 11  1  0  0  0  0
 11 14  1  0  0  0  0
 11 17  1  0  0  0  0
 12 10  1  0  0  0  0
 13 10  1  0  0  0  0
 13  9  1  0  0  0  0
 14 18  1  0  0  0  0
 17  4  1  0  0  0  0
 18 20  1  0  0  0  0
 18  5  1  0  0  0  0
 19 20  1  0  0  0  0
 22 21  1  0  0  0  0
 23 24  1  0  0  0  0
 25 26  1  0  0  0  0
 27 26  1  0  0  0  0
 28 27  1  0  0  0  0
 29 28  1  0  0  0  0
 30 29  1  0  0  0  0
 30 32  1  0  0  0  0
 30 31  1  0  0  0  0
M  END
>  <MODEL>
2

>  <REMARK>
 VINA RESULT:      -6.8      2.799      9.247
  Name = 
  9 active torsions:
  status: ('A' for Active; 'I' for Inactive)
    1  A    between atoms: C_1  and  C_24
    2  A    between atoms: C_2  and  C_10
    3  A    between atoms: C_2  and  C_12
    4  A    between atoms: N_7  and  C_22
    5  A    between atoms: C_8  and  C_19
    6  A    between atoms: C_9  and  N_21
    7  A    between atoms: C_10  and  C_24
    8  A    between atoms: C_12  and  N_21
    9  A    between atoms: C_30  and  C_32
                            x       y       z     vdW  Elec       q    Type
                         _______ _______ _______ _____ _____    ______ ____

>  <TORSDO>
F 9

$$$$
=
 OpenBabel10262421313D

 32 35  0  0  1  0  0  0  0  0999 V2000
  190.7560  177.3000  142.0430 N   0  0  1  0  0  0  0  0  0  0  0  0
  185.9340  178.0010  142.4940 C   0  0  0  0  0  3  0  0  0  0  0  0
  185.9350  178.6240  141.3180 C   0  0  0  0  0  3  0  0  0  0  0  0
  191.5170  176.9120  139.7140 C   0  0  0  0  0  0  0  0  0  0  0  0
  191.2110  176.7630  138.3170 N   0  0  0  0  0  0  0  0  0  0  0  0
  191.5630  176.7150  144.2280 C   0  0  2  0  0  3  0  0  0  0  0  0
  190.1490  177.2560  144.3570 C   0  0  2  0  0  3  0  0  0  0  0  0
  187.1590  177.2980  142.9890 C   0  0  0  0  0  2  0  0  0  0  0  0
  189.6240  177.1280  142.9410 C   0  0  1  0  0  3  0  0  0  0  0  0
  188.4460  178.2830  141.0340 C   0  0  1  0  0  3  0  0  0  0  0  0
  189.0030  177.0870  140.2380 C   0  0  1  0  0  3  0  0  0  0  0  0
  187.1340  178.7150  140.5410 N   0  0  0  0  0  2  0  0  0  0  0  0
  188.4390  178.0180  142.5610 C   0  0  1  0  0  3  0  0  0  0  0  0
  188.8930  177.3340  138.7260 C   0  0  0  0  0  2  0  0  0  0  0  0
  191.8040  176.5510  142.7290 C   0  0  0  0  0  2  0  0  0  0  0  0
  192.6920  177.1920  140.0760 O   0  0  0  0  0  0  0  0  0  0  0  0
  190.4310  176.6710  140.7490 C   0  0  2  0  0  3  0  0  0  0  0  0
  189.8300  176.4250  137.9520 C   0  0  1  0  0  3  0  0  0  0  0  0
  188.1860  176.7790  136.2520 O   0  0  0  0  0  1  0  0  0  0  0  0
  189.5490  176.5680  136.4600 C   0  0  0  0  0  2  0  0  0  0  0  0
  192.9800  175.5980  137.0920 C   0  0  0  0  0  1  0  0  0  0  0  0
  192.2650  176.9190  137.3150 C   0  0  0  0  0  2  0  0  0  0  0  0
  191.6700  175.3720  144.9260 C   0  0  0  0  0  2  0  0  0  0  0  0
  192.1570  175.5460  146.2210 O   0  0  0  0  0  1  0  0  0  0  0  0
  190.2110  178.6560  144.7560 N   0  0  0  0  0  2  0  0  0  0  0  0
  189.8150  178.7210  146.1540 C   0  0  0  0  0  2  0  0  0  0  0  0
  188.9850  177.4990  146.5180 C   0  0  0  0  0  2  0  0  0  0  0  0
  187.6920  177.9020  147.2110 C   0  0  0  0  0  2  0  0  0  0  0  0
  186.5070  177.7600  146.2620 C   0  0  0  0  0  2  0  0  0  0  0  0
  185.6990  179.0480  146.1580 C   0  0  2  0  0  3  0  0  0  0  0  0
  185.6760  179.7170  147.3830 O   0  0  0  0  0  1  0  0  0  0  0  0
  184.2820  178.7730  145.6880 C   0  0  0  0  0  1  0  0  0  0  0  0
  1 15  1  1  0  0  0
  1  9  1  0  0  0  0
  2  8  1  0  0  0  0
  3  2  2  0  0  0  0
  4 16  2  0  0  0  0
  4 17  1  0  0  0  0
  5  4  1  0  0  0  0
  6  7  1  0  0  0  0
  6 23  1  1  0  0  0
  7 25  1  6  0  0  0
  9  7  1  0  0  0  0
 10 13  1  0  0  0  0
 11 17  1  0  0  0  0
 11 10  1  0  0  0  0
 12 10  1  0  0  0  0
 12  3  1  0  0  0  0
 13  9  1  0  0  0  0
 13  8  1  0  0  0  0
 14 11  1  0  0  0  0
 15  6  1  0  0  0  0
 17  1  1  0  0  0  0
 18  5  1  0  0  0  0
 18 14  1  0  0  0  0
 19 20  1  0  0  0  0
 20 18  1  0  0  0  0
 21 22  1  0  0  0  0
 22  5  1  0  0  0  0
 23 24  1  0  0  0  0
 25 26  1  0  0  0  0
 26 27  1  0  0  0  0
 27 28  1  0  0  0  0
 29 28  1  0  0  0  0
 30 29  1  0  0  0  0
 30 31  1  0  0  0  0
 32 30  1  0  0  0  0
M  END
>  <MODEL>
3

>  <REMARK>
 VINA RESULT:      -6.8      3.047      6.355
  Name = 
  9 active torsions:
  status: ('A' for Active; 'I' for Inactive)
    1  A    between atoms: C_1  and  C_24
    2  A    between atoms: C_2  and  C_10
    3  A    between atoms: C_2  and  C_12
    4  A    between atoms: N_7  and  C_22
    5  A    between atoms: C_8  and  C_19
    6  A    between atoms: C_9  and  N_21
    7  A    between atoms: C_10  and  C_24
    8  A    between atoms: C_12  and  N_21
    9  A    between atoms: C_30  and  C_32
                            x       y       z     vdW  Elec       q    Type
                         _______ _______ _______ _____ _____    ______ ____

>  <TORSDO>
F 9

$$$$
=
 OpenBabel10262421313D

 32 35  0  0  1  0  0  0  0  0999 V2000
  189.4410  177.5940  140.8600 N   0  0  1  0  0  0  0  0  0  0  0  0
  184.9920  178.3850  142.7390 C   0  0  0  0  0  3  0  0  0  0  0  0
  184.6980  179.1300  141.6770 C   0  0  0  0  0  3  0  0  0  0  0  0
  189.4880  177.4350  138.3840 C   0  0  0  0  0  0  0  0  0  0  0  0
  188.7920  177.4460  137.1260 N   0  0  0  0  0  0  0  0  0  0  0  0
  190.7960  176.7540  142.6560 C   0  0  2  0  0  3  0  0  0  0  0  0
  189.5110  177.3200  143.2360 C   0  0  2  0  0  3  0  0  0  0  0  0
  186.2630  177.5980  142.7930 C   0  0  0  0  0  2  0  0  0  0  0  0
  188.6010  177.3600  142.0250 C   0  0  1  0  0  3  0  0  0  0  0  0
  187.0020  178.7480  140.6530 C   0  0  1  0  0  3  0  0  0  0  0  0
  187.2400  177.6280  139.6220 C   0  0  1  0  0  3  0  0  0  0  0  0
  185.6320  179.2690  140.6010 N   0  0  0  0  0  2  0  0  0  0  0  0
  187.4110  178.3210  142.0850 C   0  0  1  0  0  3  0  0  0  0  0  0
  186.7220  178.0390  138.2350 C   0  0  0  0  0  2  0  0  0  0  0  0
  190.5940  176.7450  141.1430 C   0  0  0  0  0  2  0  0  0  0  0  0
  190.7320  177.6410  138.4190 O   0  0  0  0  0  0  0  0  0  0  0  0
  188.7270  177.1180  139.6600 C   0  0  2  0  0  3  0  0  0  0  0  0
  187.3470  177.1900  137.1430 C   0  0  1  0  0  3  0  0  0  0  0  0
  185.2810  177.4110  135.9600 O   0  0  0  0  0  1  0  0  0  0  0  0
  186.6650  177.5010  135.8150 C   0  0  0  0  0  2  0  0  0  0  0  0
  190.0780  176.3690  135.3450 C   0  0  0  0  0  1  0  0  0  0  0  0
  189.5270  177.6770  135.8830 C   0  0  0  0  0  2  0  0  0  0  0  0
  191.0160  175.3420  143.1640 C   0  0  0  0  0  2  0  0  0  0  0  0
  191.8730  175.3590  144.2630 O   0  0  0  0  0  1  0  0  0  0  0  0
  189.7650  178.6670  143.7300 N   0  0  0  0  0  2  0  0  0  0  0  0
  189.7450  178.6010  145.1830 C   0  0  0  0  0  2  0  0  0  0  0  0
  188.9880  177.3630  145.6380 C   0  0  0  0  0  2  0  0  0  0  0  0
  187.9770  177.7060  146.7220 C   0  0  0  0  0  2  0  0  0  0  0  0
  186.5550  177.5940  146.1840 C   0  0  0  0  0  2  0  0  0  0  0  0
  185.7990  178.9140  146.2870 C   0  0  2  0  0  3  0  0  0  0  0  0
  185.9620  179.4790  147.5530 O   0  0  0  0  0  1  0  0  0  0  0  0
  184.3220  178.7280  145.9870 C   0  0  0  0  0  1  0  0  0  0  0  0
  1 15  1  1  0  0  0
  1  9  1  0  0  0  0
  2  8  1  0  0  0  0
  3  2  2  0  0  0  0
  4 16  2  0  0  0  0
  4 17  1  0  0  0  0
  5 18  1  0  0  0  0
  5  4  1  0  0  0  0
  6 23  1  1  0  0  0
  6  7  1  0  0  0  0
  7 25  1  6  0  0  0
  9 13  1  0  0  0  0
  9  7  1  0  0  0  0
 10 13  1  0  0  0  0
 11 17  1  0  0  0  0
 11 10  1  0  0  0  0
 12 10  1  0  0  0  0
 12  3  1  0  0  0  0
 13  8  1  0  0  0  0
 14 11  1  0  0  0  0
 15  6  1  0  0  0  0
 17  1  1  0  0  0  0
 18 14  1  0  0  0  0
 20 19  1  0  0  0  0
 20 18  1  0  0  0  0
 21 22  1  0  0  0  0
 22  5  1  0  0  0  0
 23 24  1  0  0  0  0
 25 26  1  0  0  0  0
 26 27  1  0  0  0  0
 27 28  1  0  0  0  0
 29 30  1  0  0  0  0
 29 28  1  0  0  0  0
 30 31  1  0  0  0  0
 32 30  1  0  0  0  0
M  END
>  <MODEL>
4

>  <REMARK>
 VINA RESULT:      -6.7      2.701      5.133
  Name = 
  9 active torsions:
  status: ('A' for Active; 'I' for Inactive)
    1  A    between atoms: C_1  and  C_24
    2  A    between atoms: C_2  and  C_10
    3  A    between atoms: C_2  and  C_12
    4  A    between atoms: N_7  and  C_22
    5  A    between atoms: C_8  and  C_19
    6  A    between atoms: C_9  and  N_21
    7  A    between atoms: C_10  and  C_24
    8  A    between atoms: C_12  and  N_21
    9  A    between atoms: C_30  and  C_32
                            x       y       z     vdW  Elec       q    Type
                         _______ _______ _______ _____ _____    ______ ____

>  <TORSDO>
F 9

$$$$
=
 OpenBabel10262421313D

 32 35  0  0  1  0  0  0  0  0999 V2000
  190.5110  176.7870  142.6020 N   0  0  1  0  0  0  0  0  0  0  0  0
  186.2890  178.9270  141.3600 C   0  0  0  0  0  3  0  0  0  0  0  0
  185.7090  178.3450  142.4070 C   0  0  0  0  0  3  0  0  0  0  0  0
  190.8540  176.5530  145.0480 C   0  0  0  0  0  0  0  0  0  0  0  0
  190.3930  176.7690  146.3920 N   0  0  0  0  0  0  0  0  0  0  0  0
  191.9410  176.9420  140.6790 C   0  0  2  0  0  3  0  0  0  0  0  0
  190.5220  177.2920  140.2630 C   0  0  2  0  0  3  0  0  0  0  0  0
  187.7710  178.8510  141.1660 C   0  0  0  0  0  2  0  0  0  0  0  0
  189.8660  177.6120  141.5910 C   0  0  1  0  0  3  0  0  0  0  0  0
  187.8840  177.2080  143.0980 C   0  0  1  0  0  3  0  0  0  0  0  0
  188.8160  177.8420  144.1490 C   0  0  1  0  0  3  0  0  0  0  0  0
  186.4770  177.5560  143.3210 N   0  0  0  0  0  2  0  0  0  0  0  0
  188.3400  177.5170  141.6490 C   0  0  1  0  0  3  0  0  0  0  0  0
  188.2770  177.6140  145.5690 C   0  0  0  0  0  2  0  0  0  0  0  0
  191.9130  176.8590  142.2030 C   0  0  0  0  0  2  0  0  0  0  0  0
  191.7390  175.6850  144.8170 O   0  0  0  0  0  0  0  0  0  0  0  0
  190.3130  177.4160  143.9210 C   0  0  2  0  0  3  0  0  0  0  0  0
  189.3700  177.8000  146.6070 C   0  0  1  0  0  3  0  0  0  0  0  0
  187.3750  177.9610  147.9140 O   0  0  0  0  0  1  0  0  0  0  0  0
  188.7510  177.7560  147.9990 C   0  0  0  0  0  2  0  0  0  0  0  0
  192.2650  176.6170  147.9600 C   0  0  0  0  0  1  0  0  0  0  0  0
  190.9600  175.9950  147.4960 C   0  0  0  0  0  2  0  0  0  0  0  0
  192.8960  178.0330  140.2310 C   0  0  0  0  0  2  0  0  0  0  0  0
  193.9190  177.4820  139.4600 O   0  0  0  0  0  1  0  0  0  0  0  0
  189.9030  176.1210  139.6550 N   0  0  0  0  0  2  0  0  0  0  0  0
  190.5670  175.8990  138.3810 C   0  0  0  0  0  2  0  0  0  0  0  0
  189.6370  175.1580  137.4320 C   0  0  0  0  0  2  0  0  0  0  0  0
  188.6170  176.1030  136.8150 C   0  0  0  0  0  2  0  0  0  0  0  0
  189.2440  177.4680  136.5500 C   0  0  0  0  0  2  0  0  0  0  0  0
  188.2980  178.6100  136.9040 C   0  0  2  0  0  3  0  0  0  0  0  0
  188.9570  179.5770  137.6670 O   0  0  0  0  0  1  0  0  0  0  0  0
  187.0760  178.1040  137.6490 C   0  0  0  0  0  1  0  0  0  0  0  0
  1 15  1  6  0  0  0
  1 17  1  0  0  0  0
  2  3  2  0  0  0  0
  3 12  1  0  0  0  0
  4  5  1  0  0  0  0
  5 18  1  0  0  0  0
  5 22  1  0  0  0  0
  6 23  1  1  0  0  0
  6 15  1  0  0  0  0
  7 25  1  1  0  0  0
  7  6  1  0  0  0  0
  7  9  1  0  0  0  0
  8  2  1  0  0  0  0
  8 13  1  0  0  0  0
  9 13  1  0  0  0  0
  9  1  1  0  0  0  0
 10 12  1  0  0  0  0
 10 11  1  0  0  0  0
 11 14  1  0  0  0  0
 13 10  1  0  0  0  0
 14 18  1  0  0  0  0
 16  4  2  0  0  0  0
 17 11  1  0  0  0  0
 17  4  1  0  0  0  0
 18 20  1  0  0  0  0
 19 20  1  0  0  0  0
 22 21  1  0  0  0  0
 24 23  1  0  0  0  0
 26 25  1  0  0  0  0
 27 26  1  0  0  0  0
 28 27  1  0  0  0  0
 29 28  1  0  0  0  0
 29 30  1  0  0  0  0
 30 32  1  0  0  0  0
 30 31  1  0  0  0  0
M  END
>  <MODEL>
5

>  <REMARK>
 VINA RESULT:      -6.6      3.222      7.603
  Name = 
  9 active torsions:
  status: ('A' for Active; 'I' for Inactive)
    1  A    between atoms: C_1  and  C_24
    2  A    between atoms: C_2  and  C_10
    3  A    between atoms: C_2  and  C_12
    4  A    between atoms: N_7  and  C_22
    5  A    between atoms: C_8  and  C_19
    6  A    between atoms: C_9  and  N_21
    7  A    between atoms: C_10  and  C_24
    8  A    between atoms: C_12  and  N_21
    9  A    between atoms: C_30  and  C_32
                            x       y       z     vdW  Elec       q    Type
                         _______ _______ _______ _____ _____    ______ ____

>  <TORSDO>
F 9

$$$$
=
 OpenBabel10262421313D

 32 35  0  0  1  0  0  0  0  0999 V2000
  188.7310  177.8100  141.6290 N   0  0  1  0  0  0  0  0  0  0  0  0
  191.7990  175.8780  144.9160 C   0  0  0  0  0  3  0  0  0  0  0  0
  191.3270  176.7260  145.8250 C   0  0  0  0  0  3  0  0  0  0  0  0
  186.5530  178.5330  142.5690 C   0  0  0  0  0  0  0  0  0  0  0  0
  185.6670  178.6600  143.6950 N   0  0  0  0  0  0  0  0  0  0  0  0
  189.5150  177.1020  139.4720 C   0  0  2  0  0  3  0  0  0  0  0  0
  190.5920  176.8120  140.5040 C   0  0  2  0  0  3  0  0  0  0  0  0
  191.1560  175.7630  143.5690 C   0  0  0  0  0  2  0  0  0  0  0  0
  189.8140  176.8530  141.8030 C   0  0  1  0  0  3  0  0  0  0  0  0
  189.7090  177.7670  144.1520 C   0  0  1  0  0  3  0  0  0  0  0  0
  188.2480  177.2860  144.0510 C   0  0  1  0  0  3  0  0  0  0  0  0
  190.2510  177.6150  145.5060 N   0  0  0  0  0  2  0  0  0  0  0  0
  190.6150  177.1080  143.0810 C   0  0  1  0  0  3  0  0  0  0  0  0
  187.3990  177.8680  145.1920 C   0  0  0  0  0  2  0  0  0  0  0  0
  188.2820  177.5150  140.2720 C   0  0  0  0  0  2  0  0  0  0  0  0
  186.3700  179.2390  141.5410 O   0  0  0  0  0  0  0  0  0  0  0  0
  187.6690  177.5040  142.6050 C   0  0  2  0  0  3  0  0  0  0  0  0
  185.9190  177.8050  144.8620 C   0  0  1  0  0  3  0  0  0  0  0  0
  185.7200  179.2980  146.7180 O   0  0  0  0  0  1  0  0  0  0  0  0
  185.1140  178.2110  146.0910 C   0  0  0  0  0  2  0  0  0  0  0  0
  183.2830  178.8790  143.1930 C   0  0  0  0  0  1  0  0  0  0  0  0
  184.5440  179.5950  143.6430 C   0  0  0  0  0  2  0  0  0  0  0  0
  189.2210  175.8510  138.6640 C   0  0  0  0  0  2  0  0  0  0  0  0
  188.4700  176.1790  137.5360 O   0  0  0  0  0  1  0  0  0  0  0  0
  191.5850  177.8780  140.4670 N   0  0  0  0  0  2  0  0  0  0  0  0
  192.8480  177.2740  140.0740 C   0  0  0  0  0  2  0  0  0  0  0  0
  192.8910  177.0930  138.5640 C   0  0  0  0  0  2  0  0  0  0  0  0
  193.4580  175.7310  138.1910 C   0  0  0  0  0  2  0  0  0  0  0  0
  193.3130  175.4830  136.6940 C   0  0  0  0  0  2  0  0  0  0  0  0
  194.6580  175.5080  135.9770 C   0  0  2  0  0  3  0  0  0  0  0  0
  195.7080  175.4740  136.8970 O   0  0  0  0  0  1  0  0  0  0  0  0
  194.7860  176.7310  135.0870 C   0  0  0  0  0  1  0  0  0  0  0  0
  1 15  1  6  0  0  0
  1  9  1  0  0  0  0
  1 17  1  0  0  0  0
  2  3  2  0  0  0  0
  4 17  1  0  0  0  0
  4  5  1  0  0  0  0
  5 18  1  0  0  0  0
  6 23  1  1  0  0  0
  6 15  1  0  0  0  0
  6  7  1  0  0  0  0
  7 25  1  1  0  0  0
  7  9  1  0  0  0  0
  8  2  1  0  0  0  0
  9 13  1  0  0  0  0
 10 12  1  0  0  0  0
 11 10  1  0  0  0  0
 11 14  1  0  0  0  0
 12  3  1  0  0  0  0
 13  8  1  0  0  0  0
 13 10  1  0  0  0  0
 16  4  2  0  0  0  0
 17 11  1  0  0  0  0
 18 14  1  0  0  0  0
 18 20  1  0  0  0  0
 20 19  1  0  0  0  0
 21 22  1  0  0  0  0
 22  5  1  0  0  0  0
 24 23  1  0  0  0  0
 26 25  1  0  0  0  0
 27 26  1  0  0  0  0
 28 27  1  0  0  0  0
 29 28  1  0  0  0  0
 30 29  1  0  0  0  0
 30 31  1  0  0  0  0
 32 30  1  0  0  0  0
M  END
>  <MODEL>
6

>  <REMARK>
 VINA RESULT:      -6.4      3.303      5.997
  Name = 
  9 active torsions:
  status: ('A' for Active; 'I' for Inactive)
    1  A    between atoms: C_1  and  C_24
    2  A    between atoms: C_2  and  C_10
    3  A    between atoms: C_2  and  C_12
    4  A    between atoms: N_7  and  C_22
    5  A    between atoms: C_8  and  C_19
    6  A    between atoms: C_9  and  N_21
    7  A    between atoms: C_10  and  C_24
    8  A    between atoms: C_12  and  N_21
    9  A    between atoms: C_30  and  C_32
                            x       y       z     vdW  Elec       q    Type
                         _______ _______ _______ _____ _____    ______ ____

>  <TORSDO>
F 9

$$$$
=
 OpenBabel10262421313D

 32 35  0  0  1  0  0  0  0  0999 V2000
  186.6950  177.9360  141.6330 N   0  0  1  0  0  0  0  0  0  0  0  0
  191.2660  178.0540  143.3760 C   0  0  0  0  0  3  0  0  0  0  0  0
  191.6660  177.3510  142.3200 C   0  0  0  0  0  3  0  0  0  0  0  0
  186.5450  178.0180  139.1580 C   0  0  0  0  0  0  0  0  0  0  0  0
  187.1940  178.1060  137.8780 N   0  0  0  0  0  0  0  0  0  0  0  0
  185.2580  178.5500  143.4570 C   0  0  2  0  0  3  0  0  0  0  0  0
  186.6440  178.2540  144.0040 C   0  0  2  0  0  3  0  0  0  0  0  0
  189.8700  178.5870  143.4580 C   0  0  0  0  0  2  0  0  0  0  0  0
  187.5090  178.3560  142.7640 C   0  0  1  0  0  3  0  0  0  0  0  0
  189.3020  177.2610  141.3680 C   0  0  1  0  0  3  0  0  0  0  0  0
  188.8250  178.2880  140.3230 C   0  0  1  0  0  3  0  0  0  0  0  0
  190.7440  177.0090  141.2790 N   0  0  0  0  0  2  0  0  0  0  0  0
  188.8620  177.6410  142.8040 C   0  0  1  0  0  3  0  0  0  0  0  0
  189.3700  177.9460  138.9280 C   0  0  0  0  0  2  0  0  0  0  0  0
  185.4100  178.5570  141.9380 C   0  0  0  0  0  2  0  0  0  0  0  0
  185.3650  177.5810  139.2390 O   0  0  0  0  0  0  0  0  0  0  0  0
  187.2690  178.5070  140.4010 C   0  0  2  0  0  3  0  0  0  0  0  0
  188.5630  178.6320  137.8400 C   0  0  1  0  0  3  0  0  0  0  0  0
  189.9820  177.2340  136.5180 O   0  0  0  0  0  1  0  0  0  0  0  0
  189.2530  178.4220  136.4970 C   0  0  0  0  0  2  0  0  0  0  0  0
  186.4850  176.1950  136.5240 C   0  0  0  0  0  1  0  0  0  0  0  0
  186.4800  177.7070  136.6650 C   0  0  0  0  0  2  0  0  0  0  0  0
  184.7880  179.9080  143.9430 C   0  0  0  0  0  2  0  0  0  0  0  0
  184.0180  179.7600  145.0970 O   0  0  0  0  0  1  0  0  0  0  0  0
  186.6660  176.8970  144.5340 N   0  0  0  0  0  2  0  0  0  0  0  0
  186.5950  177.0020  145.9830 C   0  0  0  0  0  2  0  0  0  0  0  0
  187.8260  177.7180  146.5150 C   0  0  0  0  0  2  0  0  0  0  0  0
  189.0010  176.7600  146.6540 C   0  0  0  0  0  2  0  0  0  0  0  0
  190.2180  177.4840  147.2170 C   0  0  0  0  0  2  0  0  0  0  0  0
  191.3470  176.5200  147.5640 C   0  0  2  0  0  3  0  0  0  0  0  0
  192.2630  177.1240  148.4280 O   0  0  0  0  0  1  0  0  0  0  0  0
  192.0560  176.0290  146.3150 C   0  0  0  0  0  1  0  0  0  0  0  0
  1 15  1  1  0  0  0
  1  9  1  0  0  0  0
  2  8  1  0  0  0  0
  3  2  2  0  0  0  0
  4 16  2  0  0  0  0
  4 17  1  0  0  0  0
  5  4  1  0  0  0  0
  6 23  1  1  0  0  0
  6  7  1  0  0  0  0
  7 25  1  6  0  0  0
  9 13  1  0  0  0  0
  9  7  1  0  0  0  0
 10 13  1  0  0  0  0
 11 17  1  0  0  0  0
 11 10  1  0  0  0  0
 12 10  1  0  0  0  0
 12  3  1  0  0  0  0
 13  8  1  0  0  0  0
 14 11  1  0  0  0  0
 15  6  1  0  0  0  0
 17  1  1  0  0  0  0
 18  5  1  0  0  0  0
 18 14  1  0  0  0  0
 20 19  1  0  0  0  0
 20 18  1  0  0  0  0
 21 22  1  0  0  0  0
 22  5  1  0  0  0  0
 23 24  1  0  0  0  0
 25 26  1  0  0  0  0
 26 27  1  0  0  0  0
 27 28  1  0  0  0  0
 28 29  1  0  0  0  0
 29 30  1  0  0  0  0
 30 31  1  0  0  0  0
 32 30  1  0  0  0  0
M  END
>  <MODEL>
7

>  <REMARK>
 VINA RESULT:      -6.4      2.469      5.177
  Name = 
  9 active torsions:
  status: ('A' for Active; 'I' for Inactive)
    1  A    between atoms: C_1  and  C_24
    2  A    between atoms: C_2  and  C_10
    3  A    between atoms: C_2  and  C_12
    4  A    between atoms: N_7  and  C_22
    5  A    between atoms: C_8  and  C_19
    6  A    between atoms: C_9  and  N_21
    7  A    between atoms: C_10  and  C_24
    8  A    between atoms: C_12  and  N_21
    9  A    between atoms: C_30  and  C_32
                            x       y       z     vdW  Elec       q    Type
                         _______ _______ _______ _____ _____    ______ ____

>  <TORSDO>
F 9

$$$$
=
 OpenBabel10262421313D

 32 35  0  0  1  0  0  0  0  0999 V2000
  190.4750  176.7430  142.5430 N   0  0  1  0  0  0  0  0  0  0  0  0
  186.2880  178.9970  141.3860 C   0  0  0  0  0  3  0  0  0  0  0  0
  185.7200  178.4470  142.4560 C   0  0  0  0  0  3  0  0  0  0  0  0
  190.8770  176.5290  144.9820 C   0  0  0  0  0  0  0  0  0  0  0  0
  190.4580  176.7760  146.3350 N   0  0  0  0  0  0  0  0  0  0  0  0
  191.8560  176.8290  140.5810 C   0  0  2  0  0  3  0  0  0  0  0  0
  190.4380  177.2180  140.1990 C   0  0  2  0  0  3  0  0  0  0  0  0
  187.7610  178.8730  141.1530 C   0  0  0  0  0  2  0  0  0  0  0  0
  189.8290  177.5750  141.5390 C   0  0  1  0  0  3  0  0  0  0  0  0
  187.8760  177.2510  143.1030 C   0  0  1  0  0  3  0  0  0  0  0  0
  188.8560  177.8690  144.1200 C   0  0  1  0  0  3  0  0  0  0  0  0
  186.4870  177.6460  143.3600 N   0  0  0  0  0  2  0  0  0  0  0  0
  188.3020  177.5280  141.6390 C   0  0  1  0  0  3  0  0  0  0  0  0
  188.3490  177.6760  145.5580 C   0  0  0  0  0  2  0  0  0  0  0  0
  191.8660  176.7660  142.1060 C   0  0  0  0  0  2  0  0  0  0  0  0
  191.7270  175.6300  144.7390 O   0  0  0  0  0  0  0  0  0  0  0  0
  190.3320  177.3940  143.8590 C   0  0  2  0  0  3  0  0  0  0  0  0
  189.4750  177.8410  146.5630 C   0  0  1  0  0  3  0  0  0  0  0  0
  187.5220  177.5860  147.9180 O   0  0  0  0  0  1  0  0  0  0  0  0
  188.8930  177.8330  147.9720 C   0  0  0  0  0  2  0  0  0  0  0  0
  192.2220  176.7280  148.0310 C   0  0  0  0  0  1  0  0  0  0  0  0
  191.0320  175.9980  147.4340 C   0  0  0  0  0  2  0  0  0  0  0  0
  192.8320  177.8840  140.0930 C   0  0  0  0  0  2  0  0  0  0  0  0
  194.1290  177.3730  140.1040 O   0  0  0  0  0  1  0  0  0  0  0  0
  189.7670  176.0600  139.6230 N   0  0  0  0  0  2  0  0  0  0  0  0
  189.7730  176.2350  138.1790 C   0  0  0  0  0  2  0  0  0  0  0  0
  190.6220  175.1550  137.5270 C   0  0  0  0  0  2  0  0  0  0  0  0
  191.8810  175.7460  136.9100 C   0  0  0  0  0  2  0  0  0  0  0  0
  193.1250  175.1750  137.5820 C   0  0  0  0  0  2  0  0  0  0  0  0
  194.3380  175.2000  136.6580 C   0  0  2  0  0  3  0  0  0  0  0  0
  195.5210  175.2200  137.3970 O   0  0  0  0  0  1  0  0  0  0  0  0
  194.2900  176.3920  135.7190 C   0  0  0  0  0  1  0  0  0  0  0  0
  1 15  1  6  0  0  0
  1 17  1  0  0  0  0
  2  3  2  0  0  0  0
  3 12  1  0  0  0  0
  4  5  1  0  0  0  0
  5 18  1  0  0  0  0
  5 22  1  0  0  0  0
  6 23  1  1  0  0  0
  6 15  1  0  0  0  0
  7 25  1  1  0  0  0
  7  6  1  0  0  0  0
  7  9  1  0  0  0  0
  8  2  1  0  0  0  0
  8 13  1  0  0  0  0
  9 13  1  0  0  0  0
  9  1  1  0  0  0  0
 10 12  1  0  0  0  0
 10 11  1  0  0  0  0
 11 14  1  0  0  0  0
 13 10  1  0  0  0  0
 14 18  1  0  0  0  0
 16  4  2  0  0  0  0
 17 11  1  0  0  0  0
 17  4  1  0  0  0  0
 18 20  1  0  0  0  0
 19 20  1  0  0  0  0
 22 21  1  0  0  0  0
 23 24  1  0  0  0  0
 26 25  1  0  0  0  0
 27 26  1  0  0  0  0
 28 27  1  0  0  0  0
 28 29  1  0  0  0  0
 30 31  1  0  0  0  0
 30 29  1  0  0  0  0
 32 30  1  0  0  0  0
M  END
>  <MODEL>
8

>  <REMARK>
 VINA RESULT:      -6.1      3.555      7.622
  Name = 
  9 active torsions:
  status: ('A' for Active; 'I' for Inactive)
    1  A    between atoms: C_1  and  C_24
    2  A    between atoms: C_2  and  C_10
    3  A    between atoms: C_2  and  C_12
    4  A    between atoms: N_7  and  C_22
    5  A    between atoms: C_8  and  C_19
    6  A    between atoms: C_9  and  N_21
    7  A    between atoms: C_10  and  C_24
    8  A    between atoms: C_12  and  N_21
    9  A    between atoms: C_30  and  C_32
                            x       y       z     vdW  Elec       q    Type
                         _______ _______ _______ _____ _____    ______ ____

>  <TORSDO>
F 9

$$$$
=
 OpenBabel10262421313D

 32 35  0  0  1  0  0  0  0  0999 V2000
  186.8220  177.8040  140.5730 N   0  0  1  0  0  0  0  0  0  0  0  0
  182.6070  179.8030  139.0930 C   0  0  0  0  0  3  0  0  0  0  0  0
  182.0000  179.2470  140.1390 C   0  0  0  0  0  3  0  0  0  0  0  0
  187.0760  177.6680  143.0370 C   0  0  0  0  0  0  0  0  0  0  0  0
  186.5590  177.9230  144.3540 N   0  0  0  0  0  0  0  0  0  0  0  0
  188.3220  177.9200  138.7010 C   0  0  2  0  0  3  0  0  0  0  0  0
  186.9130  178.2220  138.2190 C   0  0  2  0  0  3  0  0  0  0  0  0
  184.0970  179.7530  138.9580 C   0  0  0  0  0  2  0  0  0  0  0  0
  186.2000  178.5770  139.5080 C   0  0  1  0  0  3  0  0  0  0  0  0
  184.1700  178.1850  140.9530 C   0  0  1  0  0  3  0  0  0  0  0  0
  185.0480  178.8770  142.0140 C   0  0  1  0  0  3  0  0  0  0  0  0
  182.7490  178.5090  141.1110 N   0  0  0  0  0  2  0  0  0  0  0  0
  184.6750  178.4500  139.5130 C   0  0  1  0  0  3  0  0  0  0  0  0
  184.4600  178.6900  143.4210 C   0  0  0  0  0  2  0  0  0  0  0  0
  188.2360  177.8930  140.2250 C   0  0  0  0  0  2  0  0  0  0  0  0
  187.9870  176.8110  142.8720 O   0  0  0  0  0  0  0  0  0  0  0  0
  186.5610  178.4770  141.8590 C   0  0  2  0  0  3  0  0  0  0  0  0
  185.5080  178.9380  144.4910 C   0  0  1  0  0  3  0  0  0  0  0  0
  183.4530  179.0030  145.7110 O   0  0  0  0  0  1  0  0  0  0  0  0
  184.8370  178.9310  145.8600 C   0  0  0  0  0  2  0  0  0  0  0  0
  188.3650  177.8780  146.0040 C   0  0  0  0  0  1  0  0  0  0  0  0
  187.1000  177.2030  145.5070 C   0  0  0  0  0  2  0  0  0  0  0  0
  189.2700  179.0140  138.2480 C   0  0  0  0  0  2  0  0  0  0  0  0
  188.6870  179.7530  137.2190 O   0  0  0  0  0  1  0  0  0  0  0  0
  186.3420  177.0170  137.6330 N   0  0  0  0  0  2  0  0  0  0  0  0
  186.1380  177.2840  136.2180 C   0  0  0  0  0  2  0  0  0  0  0  0
  187.3560  176.8380  135.4230 C   0  0  0  0  0  2  0  0  0  0  0  0
  187.8780  175.4990  135.9240 C   0  0  0  0  0  2  0  0  0  0  0  0
  189.3680  175.5860  136.2320 C   0  0  0  0  0  2  0  0  0  0  0  0
  189.8210  174.4850  137.1850 C   0  0  2  0  0  3  0  0  0  0  0  0
  190.6310  175.0090  138.1940 O   0  0  0  0  0  1  0  0  0  0  0  0
  190.5570  173.3840  136.4440 C   0  0  0  0  0  1  0  0  0  0  0  0
  1 15  1  6  0  0  0
  1 17  1  0  0  0  0
  2  3  2  0  0  0  0
  3 12  1  0  0  0  0
  4  5  1  0  0  0  0
  5 18  1  0  0  0  0
  5 22  1  0  0  0  0
  6 23  1  1  0  0  0
  6 15  1  0  0  0  0
  7 25  1  1  0  0  0
  7  6  1  0  0  0  0
  7  9  1  0  0  0  0
  8  2  1  0  0  0  0
  8 13  1  0  0  0  0
  9 13  1  0  0  0  0
  9  1  1  0  0  0  0
 10 12  1  0  0  0  0
 10 11  1  0  0  0  0
 11 14  1  0  0  0  0
 13 10  1  0  0  0  0
 14 18  1  0  0  0  0
 16  4  2  0  0  0  0
 17 11  1  0  0  0  0
 17  4  1  0  0  0  0
 18 20  1  0  0  0  0
 19 20  1  0  0  0  0
 22 21  1  0  0  0  0
 24 23  1  0  0  0  0
 26 25  1  0  0  0  0
 27 28  1  0  0  0  0
 27 26  1  0  0  0  0
 28 29  1  0  0  0  0
 29 30  1  0  0  0  0
 30 31  1  0  0  0  0
 32 30  1  0  0  0  0
M  END
>  <MODEL>
9

>  <REMARK>
 VINA RESULT:      -6.1      2.730      6.539
  Name = 
  9 active torsions:
  status: ('A' for Active; 'I' for Inactive)
    1  A    between atoms: C_1  and  C_24
    2  A    between atoms: C_2  and  C_10
    3  A    between atoms: C_2  and  C_12
    4  A    between atoms: N_7  and  C_22
    5  A    between atoms: C_8  and  C_19
    6  A    between atoms: C_9  and  N_21
    7  A    between atoms: C_10  and  C_24
    8  A    between atoms: C_12  and  N_21
    9  A    between atoms: C_30  and  C_32
                            x       y       z     vdW  Elec       q    Type
                         _______ _______ _______ _____ _____    ______ ____

>  <TORSDO>
F 9

$$$$
