=
 OpenBabel10262422003D

 30 30  0  0  1  0  0  0  0  0999 V2000
  188.1340  177.5820  144.5270 C   0  0  2  0  0  3  0  0  0  0  0  0
  188.6060  177.2880  145.9220 C   0  0  0  0  0  0  0  0  0  0  0  0
  187.7510  177.0490  146.8200 O   0  0  0  0  0  0  0  0  0  0  0  0
  189.9710  177.2710  146.2200 O   0  0  0  0  0  0  0  0  0  0  0  0
  190.4770  176.6590  147.3970 C   0  0  0  0  0  2  0  0  0  0  0  0
  191.8510  176.0930  147.1150 C   0  0  0  0  0  1  0  0  0  0  0  0
  186.6410  177.8930  144.3320 C   0  0  1  0  0  3  0  0  0  0  0  0
  186.2430  178.9990  145.0870 O   0  0  0  0  0  1  0  0  0  0  0  0
  186.2860  178.1150  142.8520 C   0  0  0  0  0  2  0  0  0  0  0  0
  184.8190  178.4620  142.5430 C   0  0  1  0  0  3  0  0  0  0  0  0
  184.3620  177.9020  141.2020 C   0  0  0  0  0  2  0  0  0  0  0  0
  184.8240  179.8390  139.9030 O   0  0  0  0  0  1  0  0  0  0  0  0
  182.6520  179.1080  139.8430 O   0  0  0  0  0  0  0  0  0  0  0  0
  183.9670  178.9980  140.2770 C   0  0  0  0  0  0  0  0  0  0  0  0
  183.9480  178.0450  143.5910 O   0  0  0  0  0  0  0  0  0  0  0  0
  182.0660  179.3800  143.4610 O   0  0  0  0  0  0  0  0  0  0  0  0
  183.0920  179.2320  145.5060 O   0  0  0  0  0  1  0  0  0  0  0  0
  182.9980  178.8990  144.1580 C   0  0  0  0  0  0  0  0  0  0  0  0
  188.8960  176.4970  143.2510 S   0  0  0  0  0  0  0  0  0  0  0  0
  190.4570  177.4170  142.7510 C   0  0  1  0  0  0  0  0  0  0  0  0
  190.6550  177.4180  141.2180 C   0  0  2  0  0  3  0  0  0  0  0  0
  189.3620  177.2660  140.5000 C   0  0  2  0  0  3  0  0  0  0  0  0
  190.2840  176.2110  140.5950 O   0  0  0  0  0  0  0  0  0  0  0  0
  189.4380  177.9130  139.1560 C   0  0  0  0  0  0  0  0  0  0  0  0
  190.0590  177.2790  138.0820 O   0  0  0  0  0  0  0  0  0  0  0  0
  188.9340  179.0540  138.9960 O   0  0  0  0  0  1  0  0  0  0  0  0
  190.4100  178.7890  143.1350 O   0  0  0  0  0  0  0  0  0  0  0  0
  191.5320  179.1500  143.8970 C   0  0  0  0  0  1  0  0  0  0  0  0
  191.7340  176.7650  143.3050 C   0  0  0  0  0  2  0  0  0  0  0  0
  191.5250  175.4450  143.7070 O   0  0  0  0  0  1  0  0  0  0  0  0
  1 19  1  6  0  0  0
  1  2  1  0  0  0  0
  2  4  1  0  0  0  0
  2  3  2  0  0  0  0
  4  5  1  0  0  0  0
  6  5  1  0  0  0  0
  7  1  1  0  0  0  0
  7  8  1  1  0  0  0
  9  7  1  0  0  0  0
 10 11  1  6  0  0  0
 10  9  1  0  0  0  0
 10 15  1  0  0  0  0
 12 14  1  0  0  0  0
 13 14  2  0  0  0  0
 14 11  1  0  0  0  0
 15 18  1  0  0  0  0
 16 18  2  0  0  0  0
 18 17  1  0  0  0  0
 20 27  1  0  0  0  0
 20 19  1  0  0  0  0
 20 29  1  1  0  0  0
 21 20  1  1  0  0  0
 22 24  1  6  0  0  0
 22 23  1  0  0  0  0
 22 21  1  0  0  0  0
 23 21  1  0  0  0  0
 25 24  2  0  0  0  0
 26 24  1  0  0  0  0
 27 28  1  0  0  0  0
 29 30  1  0  0  0  0
M  END
>  <MODEL>
1

>  <REMARK>
 VINA RESULT:      -6.3      0.000      0.000
  Name = 
  16 active torsions:
  status: ('A' for Active; 'I' for Inactive)
    1  A    between atoms: C_1  and  C_4
    2  A    between atoms: C_1  and  C_22
    3  A    between atoms: C_2  and  O_20
    4  A    between atoms: C_2  and  C_22
    5  A    between atoms: C_3  and  C_23
    6  A    between atoms: C_4  and  C_12
    7  A    between atoms: C_7  and  C_23
    8  A    between atoms: O_8  and  C_12
    9  A    between atoms: O_8  and  C_30
   10  A    between atoms: C_9  and  C_12
   11  A    between atoms: C_9  and  C_21
   12  A    between atoms: C_10  and  C_15
   13  A    between atoms: O_11  and  C_23
   14  A    between atoms: C_14  and  O_20
   15  A    between atoms: C_22  and  S_29
   16  A    between atoms: C_23  and  S_29
                            x       y       z     vdW  Elec       q    Type
                         _______ _______ _______ _____ _____    ______ ____

>  <TORSDO>
F 16

$$$$
=
 OpenBabel10262422003D

 30 30  0  0  1  0  0  0  0  0999 V2000
  188.5500  177.5290  140.8570 C   0  0  2  0  0  3  0  0  0  0  0  0
  187.2450  178.2380  141.0850 C   0  0  0  0  0  0  0  0  0  0  0  0
  186.6930  178.8290  140.1170 O   0  0  0  0  0  0  0  0  0  0  0  0
  186.6470  178.2340  142.3480 O   0  0  0  0  0  0  0  0  0  0  0  0
  185.2370  178.2450  142.5130 C   0  0  0  0  0  2  0  0  0  0  0  0
  184.8420  179.4390  143.3540 C   0  0  0  0  0  1  0  0  0  0  0  0
  189.2980  177.0010  142.0920 C   0  0  1  0  0  3  0  0  0  0  0  0
  190.2370  176.0270  141.7460 O   0  0  0  0  0  1  0  0  0  0  0  0
  189.9840  178.1310  142.8790 C   0  0  0  0  0  2  0  0  0  0  0  0
  189.8640  178.0690  144.4120 C   0  0  1  0  0  3  0  0  0  0  0  0
  188.8660  177.0150  144.8720 C   0  0  0  0  0  2  0  0  0  0  0  0
  188.5060  177.9510  147.0270 O   0  0  0  0  0  1  0  0  0  0  0  0
  186.6150  177.5760  145.7890 O   0  0  0  0  0  0  0  0  0  0  0  0
  187.9930  177.5470  145.9530 C   0  0  0  0  0  0  0  0  0  0  0  0
  191.1320  177.8720  145.0310 O   0  0  0  0  0  0  0  0  0  0  0  0
  191.6840  176.3110  146.6420 O   0  0  0  0  0  1  0  0  0  0  0  0
  191.9420  175.6760  144.4540 O   0  0  0  0  0  0  0  0  0  0  0  0
  191.5850  176.6090  145.4230 C   0  0  0  0  0  0  0  0  0  0  0  0
  189.5980  178.3200  139.5670 S   0  0  0  0  0  0  0  0  0  0  0  0
  189.0900  177.4520  137.9800 C   0  0  1  0  0  0  0  0  0  0  0  0
  190.2680  176.6720  137.3510 C   0  0  2  0  0  3  0  0  0  0  0  0
  190.9000  175.7530  138.3340 C   0  0  2  0  0  3  0  0  0  0  0  0
  191.5160  176.9530  137.9410 O   0  0  0  0  0  0  0  0  0  0  0  0
  191.5170  174.5890  137.6300 C   0  0  0  0  0  0  0  0  0  0  0  0
  192.8820  174.5510  137.3540 O   0  0  0  0  0  1  0  0  0  0  0  0
  190.7860  173.6280  137.2790 O   0  0  0  0  0  0  0  0  0  0  0  0
  188.0660  176.4880  138.2070 O   0  0  0  0  0  0  0  0  0  0  0  0
  187.0150  176.6250  137.2860 C   0  0  0  0  0  1  0  0  0  0  0  0
  188.6480  178.4330  136.8810 C   0  0  0  0  0  2  0  0  0  0  0  0
  188.7920  179.7660  137.2710 O   0  0  0  0  0  1  0  0  0  0  0  0
  1 19  1  1  0  0  0
  1  2  1  0  0  0  0
  1  7  1  0  0  0  0
  2  4  1  0  0  0  0
  3  2  2  0  0  0  0
  4  5  1  0  0  0  0
  5  6  1  0  0  0  0
  7  8  1  6  0  0  0
  7  9  1  0  0  0  0
 10  9  1  6  0  0  0
 10 11  1  0  0  0  0
 10 15  1  0  0  0  0
 11 14  1  0  0  0  0
 13 14  2  0  0  0  0
 14 12  1  0  0  0  0
 15 18  1  0  0  0  0
 17 18  2  0  0  0  0
 18 16  1  0  0  0  0
 20 29  1  6  0  0  0
 20 27  1  0  0  0  0
 20 19  1  0  0  0  0
 21 23  1  0  0  0  0
 21 20  1  1  0  0  0
 21 22  1  0  0  0  0
 22 24  1  6  0  0  0
 23 22  1  0  0  0  0
 25 24  1  0  0  0  0
 26 24  2  0  0  0  0
 28 27  1  0  0  0  0
 29 30  1  0  0  0  0
M  END
>  <MODEL>
2

>  <REMARK>
 VINA RESULT:      -6.1      2.245      6.463
  Name = 
  16 active torsions:
  status: ('A' for Active; 'I' for Inactive)
    1  A    between atoms: C_1  and  C_4
    2  A    between atoms: C_1  and  C_22
    3  A    between atoms: C_2  and  O_20
    4  A    between atoms: C_2  and  C_22
    5  A    between atoms: C_3  and  C_23
    6  A    between atoms: C_4  and  C_12
    7  A    between atoms: C_7  and  C_23
    8  A    between atoms: O_8  and  C_12
    9  A    between atoms: O_8  and  C_30
   10  A    between atoms: C_9  and  C_12
   11  A    between atoms: C_9  and  C_21
   12  A    between atoms: C_10  and  C_15
   13  A    between atoms: O_11  and  C_23
   14  A    between atoms: C_14  and  O_20
   15  A    between atoms: C_22  and  S_29
   16  A    between atoms: C_23  and  S_29
                            x       y       z     vdW  Elec       q    Type
                         _______ _______ _______ _____ _____    ______ ____

>  <TORSDO>
F 16

$$$$
=
 OpenBabel10262422003D

 30 30  0  0  1  0  0  0  0  0999 V2000
  188.0640  177.9980  141.6050 C   0  0  2  0  0  3  0  0  0  0  0  0
  186.6590  178.4820  141.8230 C   0  0  0  0  0  0  0  0  0  0  0  0
  186.2320  179.4510  141.1360 O   0  0  0  0  0  0  0  0  0  0  0  0
  185.8350  177.8640  142.7670 O   0  0  0  0  0  0  0  0  0  0  0  0
  184.5560  178.3810  143.1030 C   0  0  0  0  0  2  0  0  0  0  0  0
  184.5900  178.9190  144.5170 C   0  0  0  0  0  1  0  0  0  0  0  0
  188.5530  177.8610  140.1540 C   0  0  1  0  0  3  0  0  0  0  0  0
  188.7730  179.1100  139.5660 O   0  0  0  0  0  1  0  0  0  0  0  0
  189.8250  177.0040  140.0510 C   0  0  0  0  0  2  0  0  0  0  0  0
  190.4590  176.8830  138.6540 C   0  0  1  0  0  3  0  0  0  0  0  0
  191.6390  175.9210  138.6360 C   0  0  0  0  0  2  0  0  0  0  0  0
  193.4250  177.1920  139.5570 O   0  0  0  0  0  1  0  0  0  0  0  0
  193.5650  176.7850  137.3060 O   0  0  0  0  0  0  0  0  0  0  0  0
  192.9260  176.6600  138.5320 C   0  0  0  0  0  0  0  0  0  0  0  0
  189.4960  176.5240  137.6680 O   0  0  0  0  0  0  0  0  0  0  0  0
  189.1640  178.4530  136.4390 O   0  0  0  0  0  1  0  0  0  0  0  0
  189.4770  176.5130  135.2570 O   0  0  0  0  0  0  0  0  0  0  0  0
  189.3750  177.2110  136.4570 C   0  0  0  0  0  0  0  0  0  0  0  0
  188.5570  176.6390  142.7440 S   0  0  0  0  0  0  0  0  0  0  0  0
  189.7420  177.4640  143.9460 C   0  0  1  0  0  0  0  0  0  0  0  0
  188.9960  178.0930  145.1450 C   0  0  2  0  0  3  0  0  0  0  0  0
  188.7900  177.1060  146.2380 C   0  0  2  0  0  3  0  0  0  0  0  0
  187.7380  177.5140  145.4010 O   0  0  0  0  0  0  0  0  0  0  0  0
  188.7140  177.8040  147.5560 C   0  0  0  0  0  0  0  0  0  0  0  0
  187.5270  178.3780  148.0030 O   0  0  0  0  0  0  0  0  0  0  0  0
  189.7460  177.8750  148.2720 O   0  0  0  0  0  1  0  0  0  0  0  0
  190.6610  176.5320  144.5080 O   0  0  0  0  0  0  0  0  0  0  0  0
  191.5910  176.0870  143.5560 C   0  0  0  0  0  1  0  0  0  0  0  0
  190.5110  178.6360  143.3120 C   0  0  0  0  0  2  0  0  0  0  0  0
  190.9270  179.5730  144.2600 O   0  0  0  0  0  1  0  0  0  0  0  0
  1  2  1  6  0  0  0
  1 19  1  0  0  0  0
  2  4  1  0  0  0  0
  3  2  2  0  0  0  0
  4  5  1  0  0  0  0
  5  6  1  0  0  0  0
  7  8  1  1  0  0  0
  7  1  1  0  0  0  0
  9  7  1  0  0  0  0
 10 11  1  1  0  0  0
 10  9  1  0  0  0  0
 13 14  2  0  0  0  0
 14 11  1  0  0  0  0
 14 12  1  0  0  0  0
 15 10  1  0  0  0  0
 16 18  1  0  0  0  0
 17 18  2  0  0  0  0
 18 15  1  0  0  0  0
 19 20  1  0  0  0  0
 20 29  1  6  0  0  0
 20 27  1  0  0  0  0
 21 20  1  6  0  0  0
 21 23  1  0  0  0  0
 21 22  1  0  0  0  0
 22 24  1  1  0  0  0
 23 22  1  0  0  0  0
 24 25  2  0  0  0  0
 24 26  1  0  0  0  0
 28 27  1  0  0  0  0
 29 30  1  0  0  0  0
M  END
>  <MODEL>
3

>  <REMARK>
 VINA RESULT:      -6.1      2.088      7.147
  Name = 
  16 active torsions:
  status: ('A' for Active; 'I' for Inactive)
    1  A    between atoms: C_1  and  C_4
    2  A    between atoms: C_1  and  C_22
    3  A    between atoms: C_2  and  O_20
    4  A    between atoms: C_2  and  C_22
    5  A    between atoms: C_3  and  C_23
    6  A    between atoms: C_4  and  C_12
    7  A    between atoms: C_7  and  C_23
    8  A    between atoms: O_8  and  C_12
    9  A    between atoms: O_8  and  C_30
   10  A    between atoms: C_9  and  C_12
   11  A    between atoms: C_9  and  C_21
   12  A    between atoms: C_10  and  C_15
   13  A    between atoms: O_11  and  C_23
   14  A    between atoms: C_14  and  O_20
   15  A    between atoms: C_22  and  S_29
   16  A    between atoms: C_23  and  S_29
                            x       y       z     vdW  Elec       q    Type
                         _______ _______ _______ _____ _____    ______ ____

>  <TORSDO>
F 16

$$$$
=
 OpenBabel10262422003D

 30 30  0  0  1  0  0  0  0  0999 V2000
  188.1040  177.9880  141.5970 C   0  0  2  0  0  3  0  0  0  0  0  0
  186.7000  178.4960  141.7560 C   0  0  0  0  0  0  0  0  0  0  0  0
  186.3220  179.4780  141.0590 O   0  0  0  0  0  0  0  0  0  0  0  0
  185.8230  177.8860  142.6560 O   0  0  0  0  0  0  0  0  0  0  0  0
  184.4750  178.3110  142.7990 C   0  0  0  0  0  2  0  0  0  0  0  0
  184.2590  178.8180  144.2080 C   0  0  0  0  0  1  0  0  0  0  0  0
  188.6310  177.7880  140.1660 C   0  0  1  0  0  3  0  0  0  0  0  0
  188.7910  179.0070  139.5030 O   0  0  0  0  0  1  0  0  0  0  0  0
  189.9530  177.0030  140.1420 C   0  0  0  0  0  2  0  0  0  0  0  0
  190.2930  176.2720  138.8320 C   0  0  1  0  0  3  0  0  0  0  0  0
  189.0900  176.1590  137.9040 C   0  0  0  0  0  2  0  0  0  0  0  0
  188.7320  175.0170  135.8500 O   0  0  0  0  0  0  0  0  0  0  0  0
  189.8550  173.8270  137.4560 O   0  0  0  0  0  1  0  0  0  0  0  0
  189.2190  174.9780  137.0080 C   0  0  0  0  0  0  0  0  0  0  0  0
  191.3960  176.8760  138.1630 O   0  0  0  0  0  0  0  0  0  0  0  0
  192.8650  175.1630  137.6650 O   0  0  0  0  0  0  0  0  0  0  0  0
  193.7380  177.0030  138.7180 O   0  0  0  0  0  1  0  0  0  0  0  0
  192.6720  176.3050  138.1590 C   0  0  0  0  0  0  0  0  0  0  0  0
  188.5480  176.6700  142.8020 S   0  0  0  0  0  0  0  0  0  0  0  0
  189.7420  177.5190  143.9800 C   0  0  1  0  0  0  0  0  0  0  0  0
  189.0010  178.2040  145.1510 C   0  0  2  0  0  3  0  0  0  0  0  0
  188.5310  177.2110  146.1540 C   0  0  2  0  0  3  0  0  0  0  0  0
  187.6450  177.8360  145.2610 O   0  0  0  0  0  0  0  0  0  0  0  0
  188.4480  177.8420  147.5050 C   0  0  0  0  0  0  0  0  0  0  0  0
  189.5730  177.9630  148.3180 O   0  0  0  0  0  1  0  0  0  0  0  0
  187.3370  178.2680  147.9150 O   0  0  0  0  0  0  0  0  0  0  0  0
  190.6420  176.5930  144.5800 O   0  0  0  0  0  0  0  0  0  0  0  0
  191.5260  176.0470  143.6360 C   0  0  0  0  0  1  0  0  0  0  0  0
  190.5330  178.6550  143.3080 C   0  0  0  0  0  2  0  0  0  0  0  0
  191.0140  179.5840  144.2310 O   0  0  0  0  0  1  0  0  0  0  0  0
  1  2  1  6  0  0  0
  1 19  1  0  0  0  0
  2  4  1  0  0  0  0
  3  2  2  0  0  0  0
  4  5  1  0  0  0  0
  5  6  1  0  0  0  0
  7  8  1  1  0  0  0
  7  1  1  0  0  0  0
  9  7  1  0  0  0  0
 10 11  1  6  0  0  0
 10  9  1  0  0  0  0
 12 14  2  0  0  0  0
 14 13  1  0  0  0  0
 14 11  1  0  0  0  0
 15 10  1  0  0  0  0
 16 18  2  0  0  0  0
 18 15  1  0  0  0  0
 18 17  1  0  0  0  0
 19 20  1  0  0  0  0
 20 29  1  6  0  0  0
 20 27  1  0  0  0  0
 21 20  1  6  0  0  0
 21 23  1  0  0  0  0
 21 22  1  0  0  0  0
 22 24  1  1  0  0  0
 23 22  1  0  0  0  0
 24 26  2  0  0  0  0
 24 25  1  0  0  0  0
 28 27  1  0  0  0  0
 29 30  1  0  0  0  0
M  END
>  <MODEL>
4

>  <REMARK>
 VINA RESULT:      -6.0      2.081      7.153
  Name = 
  16 active torsions:
  status: ('A' for Active; 'I' for Inactive)
    1  A    between atoms: C_1  and  C_4
    2  A    between atoms: C_1  and  C_22
    3  A    between atoms: C_2  and  O_20
    4  A    between atoms: C_2  and  C_22
    5  A    between atoms: C_3  and  C_23
    6  A    between atoms: C_4  and  C_12
    7  A    between atoms: C_7  and  C_23
    8  A    between atoms: O_8  and  C_12
    9  A    between atoms: O_8  and  C_30
   10  A    between atoms: C_9  and  C_12
   11  A    between atoms: C_9  and  C_21
   12  A    between atoms: C_10  and  C_15
   13  A    between atoms: O_11  and  C_23
   14  A    between atoms: C_14  and  O_20
   15  A    between atoms: C_22  and  S_29
   16  A    between atoms: C_23  and  S_29
                            x       y       z     vdW  Elec       q    Type
                         _______ _______ _______ _____ _____    ______ ____

>  <TORSDO>
F 16

$$$$
=
 OpenBabel10262422003D

 30 30  0  0  1  0  0  0  0  0999 V2000
  187.6840  177.9180  142.3730 C   0  0  2  0  0  3  0  0  0  0  0  0
  186.6000  178.6340  141.6190 C   0  0  0  0  0  0  0  0  0  0  0  0
  186.7140  178.7730  140.3700 O   0  0  0  0  0  0  0  0  0  0  0  0
  185.4790  179.1300  142.2890 O   0  0  0  0  0  0  0  0  0  0  0  0
  184.2850  178.3730  142.4220 C   0  0  0  0  0  2  0  0  0  0  0  0
  183.3830  178.6530  141.2390 C   0  0  0  0  0  1  0  0  0  0  0  0
  187.3170  177.3030  143.7340 C   0  0  1  0  0  3  0  0  0  0  0  0
  187.3680  175.9070  143.6980 O   0  0  0  0  0  1  0  0  0  0  0  0
  188.2140  177.8290  144.8670 C   0  0  0  0  0  2  0  0  0  0  0  0
  187.5780  177.9060  146.2660 C   0  0  1  0  0  3  0  0  0  0  0  0
  186.0880  177.5940  146.2410 C   0  0  0  0  0  2  0  0  0  0  0  0
  185.7300  179.6580  147.3660 O   0  0  0  0  0  1  0  0  0  0  0  0
  184.0410  178.9940  145.9650 O   0  0  0  0  0  0  0  0  0  0  0  0
  185.2860  178.8080  146.5520 C   0  0  0  0  0  0  0  0  0  0  0  0
  188.2570  177.0710  147.1990 O   0  0  0  0  0  0  0  0  0  0  0  0
  189.3790  178.3990  148.7220 O   0  0  0  0  0  1  0  0  0  0  0  0
  190.6330  176.8720  147.5580 O   0  0  0  0  0  0  0  0  0  0  0  0
  189.4180  177.4800  147.8610 C   0  0  0  0  0  0  0  0  0  0  0  0
  189.3150  178.7660  142.2950 S   0  0  0  0  0  0  0  0  0  0  0  0
  190.5010  177.4130  141.7510 C   0  0  1  0  0  0  0  0  0  0  0  0
  190.7930  177.4830  140.2350 C   0  0  2  0  0  3  0  0  0  0  0  0
  189.5840  177.1610  139.4310 C   0  0  2  0  0  3  0  0  0  0  0  0
  190.6450  176.2510  139.5690 O   0  0  0  0  0  0  0  0  0  0  0  0
  189.6480  177.8470  138.1060 C   0  0  0  0  0  0  0  0  0  0  0  0
  189.0970  179.1120  137.9180 O   0  0  0  0  0  1  0  0  0  0  0  0
  190.2080  177.2640  137.1410 O   0  0  0  0  0  0  0  0  0  0  0  0
  191.7670  177.5290  142.3940 O   0  0  0  0  0  0  0  0  0  0  0  0
  191.7050  178.3830  143.5070 C   0  0  0  0  0  1  0  0  0  0  0  0
  189.9320  176.0010  141.9700 C   0  0  0  0  0  2  0  0  0  0  0  0
  190.6190  175.3010  142.9630 O   0  0  0  0  0  1  0  0  0  0  0  0
  1  2  1  1  0  0  0
  1  7  1  0  0  0  0
  2  4  1  0  0  0  0
  3  2  2  0  0  0  0
  4  5  1  0  0  0  0
  6  5  1  0  0  0  0
  7  8  1  6  0  0  0
  7  9  1  0  0  0  0
 10  9  1  6  0  0  0
 10 15  1  0  0  0  0
 11 10  1  0  0  0  0
 11 14  1  0  0  0  0
 13 14  2  0  0  0  0
 14 12  1  0  0  0  0
 15 18  1  0  0  0  0
 17 18  2  0  0  0  0
 18 16  1  0  0  0  0
 19  1  1  0  0  0  0
 20 29  1  1  0  0  0
 20 19  1  0  0  0  0
 20 27  1  0  0  0  0
 21 20  1  1  0  0  0
 22 24  1  6  0  0  0
 22 23  1  0  0  0  0
 22 21  1  0  0  0  0
 23 21  1  0  0  0  0
 25 24  1  0  0  0  0
 26 24  2  0  0  0  0
 27 28  1  0  0  0  0
 29 30  1  0  0  0  0
M  END
>  <MODEL>
5

>  <REMARK>
 VINA RESULT:      -6.0      1.721      5.087
  Name = 
  16 active torsions:
  status: ('A' for Active; 'I' for Inactive)
    1  A    between atoms: C_1  and  C_4
    2  A    between atoms: C_1  and  C_22
    3  A    between atoms: C_2  and  O_20
    4  A    between atoms: C_2  and  C_22
    5  A    between atoms: C_3  and  C_23
    6  A    between atoms: C_4  and  C_12
    7  A    between atoms: C_7  and  C_23
    8  A    between atoms: O_8  and  C_12
    9  A    between atoms: O_8  and  C_30
   10  A    between atoms: C_9  and  C_12
   11  A    between atoms: C_9  and  C_21
   12  A    between atoms: C_10  and  C_15
   13  A    between atoms: O_11  and  C_23
   14  A    between atoms: C_14  and  O_20
   15  A    between atoms: C_22  and  S_29
   16  A    between atoms: C_23  and  S_29
                            x       y       z     vdW  Elec       q    Type
                         _______ _______ _______ _____ _____    ______ ____

>  <TORSDO>
F 16

$$$$
=
 OpenBabel10262422003D

 30 30  0  0  1  0  0  0  0  0999 V2000
  188.6630  177.0420  141.7150 C   0  0  2  0  0  3  0  0  0  0  0  0
  189.6120  177.0610  140.5510 C   0  0  0  0  0  0  0  0  0  0  0  0
  190.8540  177.0790  140.7740 O   0  0  0  0  0  0  0  0  0  0  0  0
  189.1260  177.0520  139.2400 O   0  0  0  0  0  0  0  0  0  0  0  0
  189.8510  177.6310  138.1650 C   0  0  0  0  0  2  0  0  0  0  0  0
  189.0030  178.6970  137.5070 C   0  0  0  0  0  1  0  0  0  0  0  0
  187.8890  178.3340  142.0240 C   0  0  1  0  0  3  0  0  0  0  0  0
  187.7910  179.1560  140.8980 O   0  0  0  0  0  1  0  0  0  0  0  0
  186.4860  178.0470  142.5840 C   0  0  0  0  0  2  0  0  0  0  0  0
  185.3690  179.0210  142.1690 C   0  0  1  0  0  3  0  0  0  0  0  0
  184.2010  178.3090  141.4990 C   0  0  0  0  0  2  0  0  0  0  0  0
  182.5740  178.9360  139.8830 O   0  0  0  0  0  1  0  0  0  0  0  0
  184.6650  179.8210  139.5690 O   0  0  0  0  0  0  0  0  0  0  0  0
  183.7620  179.0410  140.2810 C   0  0  0  0  0  0  0  0  0  0  0  0
  184.9220  179.8080  143.2690 O   0  0  0  0  0  0  0  0  0  0  0  0
  185.4270  179.2400  145.4510 O   0  0  0  0  0  1  0  0  0  0  0  0
  183.3380  178.6760  144.6920 O   0  0  0  0  0  0  0  0  0  0  0  0
  184.5940  179.2460  144.5060 C   0  0  0  0  0  0  0  0  0  0  0  0
  189.3150  176.1350  143.1770 S   0  0  0  0  0  0  0  0  0  0  0  0
  190.0790  177.4830  144.2410 C   0  0  1  0  0  0  0  0  0  0  0  0
  189.0930  177.9900  145.3180 C   0  0  2  0  0  3  0  0  0  0  0  0
  189.0400  177.0720  146.4860 C   0  0  2  0  0  3  0  0  0  0  0  0
  188.0010  177.1290  145.5420 O   0  0  0  0  0  0  0  0  0  0  0  0
  188.6720  177.8270  147.7210 C   0  0  0  0  0  0  0  0  0  0  0  0
  187.3450  178.1310  148.0140 O   0  0  0  0  0  0  0  0  0  0  0  0
  189.5820  178.1980  148.5060 O   0  0  0  0  0  1  0  0  0  0  0  0
  191.2200  177.0130  144.9520 O   0  0  0  0  0  0  0  0  0  0  0  0
  191.7710  175.8710  144.3490 C   0  0  0  0  0  1  0  0  0  0  0  0
  190.4490  178.7380  143.4330 C   0  0  0  0  0  2  0  0  0  0  0  0
  191.2840  179.6010  144.1460 O   0  0  0  0  0  1  0  0  0  0  0  0
  1  2  1  6  0  0  0
  1  7  1  0  0  0  0
  1 19  1  0  0  0  0
  2  3  2  0  0  0  0
  4  2  1  0  0  0  0
  5  4  1  0  0  0  0
  6  5  1  0  0  0  0
  7  8  1  6  0  0  0
  7  9  1  0  0  0  0
 10 11  1  1  0  0  0
 10  9  1  0  0  0  0
 10 15  1  0  0  0  0
 12 14  1  0  0  0  0
 13 14  2  0  0  0  0
 14 11  1  0  0  0  0
 15 18  1  0  0  0  0
 18 17  2  0  0  0  0
 18 16  1  0  0  0  0
 19 20  1  0  0  0  0
 20 29  1  6  0  0  0
 20 27  1  0  0  0  0
 21 20  1  6  0  0  0
 21 23  1  0  0  0  0
 21 22  1  0  0  0  0
 22 24  1  1  0  0  0
 23 22  1  0  0  0  0
 24 25  2  0  0  0  0
 24 26  1  0  0  0  0
 28 27  1  0  0  0  0
 29 30  1  0  0  0  0
M  END
>  <MODEL>
6

>  <REMARK>
 VINA RESULT:      -5.9      1.371      5.138
  Name = 
  16 active torsions:
  status: ('A' for Active; 'I' for Inactive)
    1  A    between atoms: C_1  and  C_4
    2  A    between atoms: C_1  and  C_22
    3  A    between atoms: C_2  and  O_20
    4  A    between atoms: C_2  and  C_22
    5  A    between atoms: C_3  and  C_23
    6  A    between atoms: C_4  and  C_12
    7  A    between atoms: C_7  and  C_23
    8  A    between atoms: O_8  and  C_12
    9  A    between atoms: O_8  and  C_30
   10  A    between atoms: C_9  and  C_12
   11  A    between atoms: C_9  and  C_21
   12  A    between atoms: C_10  and  C_15
   13  A    between atoms: O_11  and  C_23
   14  A    between atoms: C_14  and  O_20
   15  A    between atoms: C_22  and  S_29
   16  A    between atoms: C_23  and  S_29
                            x       y       z     vdW  Elec       q    Type
                         _______ _______ _______ _____ _____    ______ ____

>  <TORSDO>
F 16

$$$$
=
 OpenBabel10262422003D

 30 30  0  0  1  0  0  0  0  0999 V2000
  189.3590  177.8960  142.4670 C   0  0  2  0  0  3  0  0  0  0  0  0
  190.6740  178.2330  143.1100 C   0  0  0  0  0  0  0  0  0  0  0  0
  190.8220  179.3680  143.6410 O   0  0  0  0  0  0  0  0  0  0  0  0
  191.7150  177.3010  143.1280 O   0  0  0  0  0  0  0  0  0  0  0  0
  191.6840  176.1540  143.9650 C   0  0  0  0  0  2  0  0  0  0  0  0
  191.6360  176.5920  145.4120 C   0  0  0  0  0  1  0  0  0  0  0  0
  188.0920  178.0240  143.3280 C   0  0  1  0  0  3  0  0  0  0  0  0
  186.9400  177.7360  142.5920 O   0  0  0  0  0  1  0  0  0  0  0  0
  188.1510  177.1300  144.5780 C   0  0  0  0  0  2  0  0  0  0  0  0
  187.3960  177.6380  145.8200 C   0  0  1  0  0  3  0  0  0  0  0  0
  185.8850  177.5230  145.6650 C   0  0  0  0  0  2  0  0  0  0  0  0
  185.8360  179.5710  146.8710 O   0  0  0  0  0  1  0  0  0  0  0  0
  183.8780  178.9960  145.8290 O   0  0  0  0  0  0  0  0  0  0  0  0
  185.2070  178.7560  146.1500 C   0  0  0  0  0  0  0  0  0  0  0  0
  187.8360  176.9840  147.0060 O   0  0  0  0  0  0  0  0  0  0  0  0
  187.8120  178.0400  149.0620 O   0  0  0  0  0  1  0  0  0  0  0  0
  189.8230  177.9590  147.9620 O   0  0  0  0  0  0  0  0  0  0  0  0
  188.4640  177.6710  148.0490 C   0  0  0  0  0  0  0  0  0  0  0  0
  189.4360  176.4160  141.3750 S   0  0  0  0  0  0  0  0  0  0  0  0
  189.2120  177.1200  139.6470 C   0  0  1  0  0  0  0  0  0  0  0  0
  190.5690  177.4130  138.9680 C   0  0  2  0  0  3  0  0  0  0  0  0
  191.3750  176.1740  138.8020 C   0  0  2  0  0  3  0  0  0  0  0  0
  191.6860  177.1330  139.7800 O   0  0  0  0  0  0  0  0  0  0  0  0
  192.2890  176.3070  137.6280 C   0  0  0  0  0  0  0  0  0  0  0  0
  193.6020  176.7460  137.7790 O   0  0  0  0  0  1  0  0  0  0  0  0
  191.8590  176.0180  136.4810 O   0  0  0  0  0  0  0  0  0  0  0  0
  188.5380  176.2060  138.7860 O   0  0  0  0  0  0  0  0  0  0  0  0
  188.1000  176.8340  137.6100 C   0  0  0  0  0  1  0  0  0  0  0  0
  188.4800  178.4720  139.6460 C   0  0  0  0  0  2  0  0  0  0  0  0
  189.0560  179.3870  138.7630 O   0  0  0  0  0  1  0  0  0  0  0  0
  1 19  1  1  0  0  0
  1  2  1  0  0  0  0
  1  7  1  0  0  0  0
  2  4  1  0  0  0  0
  2  3  2  0  0  0  0
  4  5  1  0  0  0  0
  5  6  1  0  0  0  0
  7  8  1  6  0  0  0
  7  9  1  0  0  0  0
 10  9  1  6  0  0  0
 10 15  1  0  0  0  0
 11 10  1  0  0  0  0
 11 14  1  0  0  0  0
 13 14  2  0  0  0  0
 14 12  1  0  0  0  0
 15 18  1  0  0  0  0
 17 18  2  0  0  0  0
 18 16  1  0  0  0  0
 20 29  1  1  0  0  0
 20 19  1  0  0  0  0
 21 20  1  1  0  0  0
 21 23  1  0  0  0  0
 22 24  1  6  0  0  0
 22 21  1  0  0  0  0
 22 23  1  0  0  0  0
 24 25  1  0  0  0  0
 26 24  2  0  0  0  0
 27 20  1  0  0  0  0
 28 27  1  0  0  0  0
 30 29  1  0  0  0  0
M  END
>  <MODEL>
7

>  <REMARK>
 VINA RESULT:      -5.8      2.367      4.795
  Name = 
  16 active torsions:
  status: ('A' for Active; 'I' for Inactive)
    1  A    between atoms: C_1  and  C_4
    2  A    between atoms: C_1  and  C_22
    3  A    between atoms: C_2  and  O_20
    4  A    between atoms: C_2  and  C_22
    5  A    between atoms: C_3  and  C_23
    6  A    between atoms: C_4  and  C_12
    7  A    between atoms: C_7  and  C_23
    8  A    between atoms: O_8  and  C_12
    9  A    between atoms: O_8  and  C_30
   10  A    between atoms: C_9  and  C_12
   11  A    between atoms: C_9  and  C_21
   12  A    between atoms: C_10  and  C_15
   13  A    between atoms: O_11  and  C_23
   14  A    between atoms: C_14  and  O_20
   15  A    between atoms: C_22  and  S_29
   16  A    between atoms: C_23  and  S_29
                            x       y       z     vdW  Elec       q    Type
                         _______ _______ _______ _____ _____    ______ ____

>  <TORSDO>
F 16

$$$$
=
 OpenBabel10262422003D

 30 30  0  0  1  0  0  0  0  0999 V2000
  186.2610  178.3250  144.5510 C   0  0  2  0  0  3  0  0  0  0  0  0
  186.2820  178.3990  146.0510 C   0  0  0  0  0  0  0  0  0  0  0  0
  185.2910  178.8970  146.6530 O   0  0  0  0  0  0  0  0  0  0  0  0
  187.3800  177.9170  146.7690 O   0  0  0  0  0  0  0  0  0  0  0  0
  187.5870  178.2430  148.1350 C   0  0  0  0  0  2  0  0  0  0  0  0
  189.0450  178.0390  148.4820 C   0  0  0  0  0  1  0  0  0  0  0  0
  184.9540  178.7100  143.8380 C   0  0  1  0  0  3  0  0  0  0  0  0
  184.8840  180.0850  143.6010 O   0  0  0  0  0  1  0  0  0  0  0  0
  184.7680  177.9430  142.5180 C   0  0  0  0  0  2  0  0  0  0  0  0
  183.7850  178.5520  141.5030 C   0  0  1  0  0  3  0  0  0  0  0  0
  183.8610  177.8700  140.1430 C   0  0  0  0  0  2  0  0  0  0  0  0
  185.1890  178.2140  138.2020 O   0  0  0  0  0  0  0  0  0  0  0  0
  184.5210  180.1190  139.2880 O   0  0  0  0  0  1  0  0  0  0  0  0
  184.5540  178.7370  139.1520 C   0  0  0  0  0  0  0  0  0  0  0  0
  182.4500  178.5520  141.9980 O   0  0  0  0  0  0  0  0  0  0  0  0
  180.4860  177.7570  141.0760 O   0  0  0  0  0  1  0  0  0  0  0  0
  181.1860  179.8300  140.3920 O   0  0  0  0  0  0  0  0  0  0  0  0
  181.3410  178.6780  141.1570 C   0  0  0  0  0  0  0  0  0  0  0  0
  187.1320  176.8510  143.8770 S   0  0  0  0  0  0  0  0  0  0  0  0
  188.4700  177.5810  142.7770 C   0  0  1  0  0  0  0  0  0  0  0  0
  189.8070  177.7480  143.5350 C   0  0  2  0  0  3  0  0  0  0  0  0
  189.8180  176.9670  144.8000 C   0  0  2  0  0  3  0  0  0  0  0  0
  189.6740  178.3640  144.7950 O   0  0  0  0  0  0  0  0  0  0  0  0
  191.2170  176.5830  145.1580 C   0  0  0  0  0  0  0  0  0  0  0  0
  191.9350  175.6710  144.3890 O   0  0  0  0  0  0  0  0  0  0  0  0
  191.7510  177.0940  146.1760 O   0  0  0  0  0  1  0  0  0  0  0  0
  188.7590  176.7400  141.6640 O   0  0  0  0  0  0  0  0  0  0  0  0
  190.1130  176.8120  141.3020 C   0  0  0  0  0  1  0  0  0  0  0  0
  188.1260  178.9970  142.2840 C   0  0  0  0  0  2  0  0  0  0  0  0
  187.4780  178.9860  141.0480 O   0  0  0  0  0  1  0  0  0  0  0  0
  1 19  1  1  0  0  0
  1  2  1  0  0  0  0
  2  3  2  0  0  0  0
  2  4  1  0  0  0  0
  4  5  1  0  0  0  0
  5  6  1  0  0  0  0
  7  8  1  6  0  0  0
  7  1  1  0  0  0  0
  9  7  1  0  0  0  0
 10 11  1  6  0  0  0
 10 15  1  0  0  0  0
 10  9  1  0  0  0  0
 12 14  2  0  0  0  0
 14 13  1  0  0  0  0
 14 11  1  0  0  0  0
 16 18  1  0  0  0  0
 17 18  2  0  0  0  0
 18 15  1  0  0  0  0
 20 29  1  6  0  0  0
 20 19  1  0  0  0  0
 21 20  1  6  0  0  0
 21 23  1  0  0  0  0
 21 22  1  0  0  0  0
 22 24  1  1  0  0  0
 23 22  1  0  0  0  0
 24 26  1  0  0  0  0
 25 24  2  0  0  0  0
 27 20  1  0  0  0  0
 28 27  1  0  0  0  0
 30 29  1  0  0  0  0
M  END
>  <MODEL>
8

>  <REMARK>
 VINA RESULT:      -5.7      1.836      3.747
  Name = 
  16 active torsions:
  status: ('A' for Active; 'I' for Inactive)
    1  A    between atoms: C_1  and  C_4
    2  A    between atoms: C_1  and  C_22
    3  A    between atoms: C_2  and  O_20
    4  A    between atoms: C_2  and  C_22
    5  A    between atoms: C_3  and  C_23
    6  A    between atoms: C_4  and  C_12
    7  A    between atoms: C_7  and  C_23
    8  A    between atoms: O_8  and  C_12
    9  A    between atoms: O_8  and  C_30
   10  A    between atoms: C_9  and  C_12
   11  A    between atoms: C_9  and  C_21
   12  A    between atoms: C_10  and  C_15
   13  A    between atoms: O_11  and  C_23
   14  A    between atoms: C_14  and  O_20
   15  A    between atoms: C_22  and  S_29
   16  A    between atoms: C_23  and  S_29
                            x       y       z     vdW  Elec       q    Type
                         _______ _______ _______ _____ _____    ______ ____

>  <TORSDO>
F 16

$$$$
=
 OpenBabel10262422003D

 30 30  0  0  1  0  0  0  0  0999 V2000
  188.0750  177.6830  142.6970 C   0  0  2  0  0  3  0  0  0  0  0  0
  186.6880  177.7290  143.2720 C   0  0  0  0  0  0  0  0  0  0  0  0
  186.4500  177.1090  144.3450 O   0  0  0  0  0  0  0  0  0  0  0  0
  185.6790  178.4530  142.6310 O   0  0  0  0  0  0  0  0  0  0  0  0
  184.3130  178.3260  142.9990 C   0  0  0  0  0  2  0  0  0  0  0  0
  183.9840  179.3530  144.0600 C   0  0  0  0  0  1  0  0  0  0  0  0
  188.2380  178.0110  141.2040 C   0  0  1  0  0  3  0  0  0  0  0  0
  187.9290  179.3470  140.9350 O   0  0  0  0  0  1  0  0  0  0  0  0
  189.6520  177.6890  140.6930 C   0  0  0  0  0  2  0  0  0  0  0  0
  189.7420  176.8450  139.4090 C   0  0  1  0  0  3  0  0  0  0  0  0
  188.6220  177.1650  138.4270 C   0  0  0  0  0  2  0  0  0  0  0  0
  189.0340  179.4340  137.8480 O   0  0  0  0  0  1  0  0  0  0  0  0
  189.4100  177.9080  136.1790 O   0  0  0  0  0  0  0  0  0  0  0  0
  189.0390  178.2320  137.4780 C   0  0  0  0  0  0  0  0  0  0  0  0
  191.0160  176.9700  138.7850 O   0  0  0  0  0  0  0  0  0  0  0  0
  191.1220  174.7850  138.0390 O   0  0  0  0  0  0  0  0  0  0  0  0
  193.0900  175.9610  138.0830 O   0  0  0  0  0  1  0  0  0  0  0  0
  191.7170  175.8670  138.2900 C   0  0  0  0  0  0  0  0  0  0  0  0
  189.0800  176.2720  143.3180 S   0  0  0  0  0  0  0  0  0  0  0  0
  190.0910  177.0190  144.7150 C   0  0  1  0  0  0  0  0  0  0  0  0
  189.4200  176.7970  146.0900 C   0  0  2  0  0  3  0  0  0  0  0  0
  189.0460  178.0860  146.7290 C   0  0  2  0  0  3  0  0  0  0  0  0
  190.1460  177.3330  147.1720 O   0  0  0  0  0  0  0  0  0  0  0  0
  187.8760  177.8920  147.6370 C   0  0  0  0  0  0  0  0  0  0  0  0
  186.5910  178.2650  147.2500 O   0  0  0  0  0  0  0  0  0  0  0  0
  188.0600  177.3860  148.7740 O   0  0  0  0  0  1  0  0  0  0  0  0
  191.3810  176.4210  144.8140 O   0  0  0  0  0  0  0  0  0  0  0  0
  191.6670  175.6230  143.6950 C   0  0  0  0  0  1  0  0  0  0  0  0
  190.2320  178.5460  144.5960 C   0  0  0  0  0  2  0  0  0  0  0  0
  191.5460  178.9390  144.3380 O   0  0  0  0  0  1  0  0  0  0  0  0
  1  2  1  6  0  0  0
  1 19  1  0  0  0  0
  2  3  2  0  0  0  0
  4  5  1  0  0  0  0
  4  2  1  0  0  0  0
  5  6  1  0  0  0  0
  7  8  1  1  0  0  0
  7  1  1  0  0  0  0
  9  7  1  0  0  0  0
 10 11  1  6  0  0  0
 10  9  1  0  0  0  0
 13 14  2  0  0  0  0
 14 12  1  0  0  0  0
 14 11  1  0  0  0  0
 15 10  1  0  0  0  0
 16 18  2  0  0  0  0
 17 18  1  0  0  0  0
 18 15  1  0  0  0  0
 19 20  1  0  0  0  0
 20 29  1  6  0  0  0
 20 27  1  0  0  0  0
 21 20  1  6  0  0  0
 21 22  1  0  0  0  0
 21 23  1  0  0  0  0
 22 23  1  0  0  0  0
 22 24  1  1  0  0  0
 24 26  1  0  0  0  0
 25 24  2  0  0  0  0
 28 27  1  0  0  0  0
 30 29  1  0  0  0  0
M  END
>  <MODEL>
9

>  <REMARK>
 VINA RESULT:      -5.7      2.022      6.692
  Name = 
  16 active torsions:
  status: ('A' for Active; 'I' for Inactive)
    1  A    between atoms: C_1  and  C_4
    2  A    between atoms: C_1  and  C_22
    3  A    between atoms: C_2  and  O_20
    4  A    between atoms: C_2  and  C_22
    5  A    between atoms: C_3  and  C_23
    6  A    between atoms: C_4  and  C_12
    7  A    between atoms: C_7  and  C_23
    8  A    between atoms: O_8  and  C_12
    9  A    between atoms: O_8  and  C_30
   10  A    between atoms: C_9  and  C_12
   11  A    between atoms: C_9  and  C_21
   12  A    between atoms: C_10  and  C_15
   13  A    between atoms: O_11  and  C_23
   14  A    between atoms: C_14  and  O_20
   15  A    between atoms: C_22  and  S_29
   16  A    between atoms: C_23  and  S_29
                            x       y       z     vdW  Elec       q    Type
                         _______ _______ _______ _____ _____    ______ ____

>  <TORSDO>
F 16

$$$$
