=
 OpenBabel10262423383D

 34 39  0  0  1  0  0  0  0  0999 V2000
  183.8340  176.3700  137.0680 C   0  0  2  0  0  0  0  0  0  0  0  0
  179.4230  178.0770  137.7460 O   0  0  0  0  0  1  0  0  0  0  0  0
  181.7460  177.2690  136.0810 C   0  0  0  0  0  2  0  0  0  0  0  0
  183.7510  173.8520  136.7040 C   0  0  0  0  0  2  0  0  0  0  0  0
  183.5340  174.1080  135.3460 O   0  0  0  0  0  0  0  0  0  0  0  0
  182.9850  176.4260  135.7560 C   0  0  2  0  0  3  0  0  0  0  0  0
  184.5310  175.0120  137.3080 C   0  0  0  0  0  2  0  0  0  0  0  0
  182.4920  175.0420  135.3130 C   0  0  0  0  0  2  0  0  0  0  0  0
  180.5580  177.5430  138.3480 C   0  0  0  0  0  0  0  0  0  0  0  0
  180.6360  177.3570  139.7500 C   0  0  0  0  0  0  0  0  0  0  0  0
  181.8100  176.8050  140.3020 C   0  0  0  0  0  3  0  0  0  0  0  0
  181.6500  177.1750  137.5570 C   0  0  0  0  0  0  0  0  0  0  0  0
  182.8920  176.4480  139.4890 C   0  0  0  0  0  3  0  0  0  0  0  0
  182.7910  176.6460  138.1090 C   0  0  0  0  0  0  0  0  0  0  0  0
  185.4980  177.7960  138.4290 C   0  0  1  0  0  3  0  0  0  0  0  0
  187.3040  176.8020  136.1500 C   0  0  2  0  0  3  0  0  0  0  0  0
  188.9490  177.9020  140.6930 C   0  0  0  0  0  1  0  0  0  0  0  0
  185.9250  177.3740  135.8770 C   0  0  2  0  0  0  0  0  0  0  0  0
  184.8960  177.5080  137.0350 C   0  0  1  0  0  3  0  0  0  0  0  0
  189.8400  177.3450  138.3330 C   0  0  2  0  0  3  0  0  0  0  0  0
  187.7900  178.6440  138.6700 O   0  0  0  0  0  0  0  0  0  0  0  0
  191.1600  176.9280  138.9730 C   0  0  0  0  0  1  0  0  0  0  0  0
  186.9880  177.4770  138.6450 C   0  0  2  0  0  3  0  0  0  0  0  0
  185.4390  177.0930  134.5970 O   0  0  0  0  0  1  0  0  0  0  0  0
  187.5600  178.5990  134.5940 O   0  0  0  0  0  1  0  0  0  0  0  0
  189.0530  178.3260  139.2250 C   0  0  1  0  0  3  0  0  0  0  0  0
  188.9750  176.1800  137.9120 C   0  0  0  0  0  0  0  0  0  0  0  0
  187.5230  176.4440  137.6350 C   0  0  2  0  0  3  0  0  0  0  0  0
  189.5210  175.0550  137.4400 C   0  0  0  0  0  2  0  0  0  0  0  0
  187.1320  178.3050  135.8910 C   0  0  2  0  0  3  0  0  0  0  0  0
  185.0930  179.1750  138.9290 C   0  0  0  0  0  1  0  0  0  0  0  0
  179.5250  177.7210  140.6570 C   0  0  0  0  0  0  0  0  0  0  0  0
  179.1200  179.0430  140.8000 O   0  0  0  0  0  0  0  0  0  0  0  0
  178.9310  176.8290  141.3200 O   0  0  0  0  0  1  0  0  0  0  0  0
  1  7  1  1  0  0  0
  1 14  1  0  0  0  0
  2  9  1  0  0  0  0
  3 12  1  0  0  0  0
  4  7  1  0  0  0  0
  5  4  1  0  0  0  0
  6  8  1  1  0  0  0
  6  3  1  0  0  0  0
  6  1  1  0  0  0  0
  8  5  1  0  0  0  0
  9 10  1  0  0  0  0
 10 11  2  0  0  0  0
 10 32  1  0  0  0  0
 12 14  1  0  0  0  0
 12  9  2  0  0  0  0
 13 11  1  0  0  0  0
 14 13  2  0  0  0  0
 15 23  1  0  0  0  0
 15 31  1  6  0  0  0
 16 28  1  0  0  0  0
 18 30  1  0  0  0  0
 18 16  1  0  0  0  0
 18 19  1  0  0  0  0
 19  1  1  0  0  0  0
 19 15  1  0  0  0  0
 20 22  1  0  0  0  0
 20 26  1  0  0  0  0
 21 26  1  0  0  0  0
 23 21  1  0  0  0  0
 24 18  1  0  0  0  0
 25 30  1  0  0  0  0
 26 17  1  0  0  0  0
 27 20  1  0  0  0  0
 28 27  1  0  0  0  0
 28 23  1  0  0  0  0
 29 27  2  0  0  0  0
 30 16  1  0  0  0  0
 32 33  2  0  0  0  0
 32 34  1  0  0  0  0
M  END
>  <MODEL>
1

>  <REMARK>
 VINA RESULT:      -5.5      0.000      0.000
  Name = 
  2 active torsions:
  status: ('A' for Active; 'I' for Inactive)
    1  A    between atoms: C_1  and  C_9
    2  A    between atoms: C_3  and  C_25
                            x       y       z     vdW  Elec       q    Type
                         _______ _______ _______ _____ _____    ______ ____

>  <TORSDO>
F 2

$$$$
=
 OpenBabel10262423383D

 34 39  0  0  1  0  0  0  0  0999 V2000
  181.6250  177.2150  139.5690 C   0  0  2  0  0  0  0  0  0  0  0  0
  181.1870  180.3140  143.1790 O   0  0  0  0  0  1  0  0  0  0  0  0
  180.2720  178.9540  140.7020 C   0  0  0  0  0  2  0  0  0  0  0  0
  180.5680  174.9870  140.1960 C   0  0  0  0  0  2  0  0  0  0  0  0
  179.3480  175.4970  139.7400 O   0  0  0  0  0  0  0  0  0  0  0  0
  180.1730  177.7690  139.7340 C   0  0  2  0  0  3  0  0  0  0  0  0
  181.7020  175.6770  139.4500 C   0  0  0  0  0  2  0  0  0  0  0  0
  179.2190  176.7440  140.3620 C   0  0  0  0  0  2  0  0  0  0  0  0
  181.9690  179.3180  142.6030 C   0  0  0  0  0  0  0  0  0  0  0  0
  183.2000  178.9160  143.1770 C   0  0  0  0  0  0  0  0  0  0  0  0
  183.9460  177.8960  142.5510 C   0  0  0  0  0  3  0  0  0  0  0  0
  181.5340  178.6900  141.4320 C   0  0  0  0  0  0  0  0  0  0  0  0
  183.4910  177.2860  141.3770 C   0  0  0  0  0  3  0  0  0  0  0  0
  182.2750  177.7040  140.8280 C   0  0  0  0  0  0  0  0  0  0  0  0
  183.7400  178.3120  138.5770 C   0  0  1  0  0  3  0  0  0  0  0  0
  183.1280  176.1820  136.4470 C   0  0  2  0  0  3  0  0  0  0  0  0
  187.6830  177.8630  137.4380 C   0  0  0  0  0  1  0  0  0  0  0  0
  182.0420  177.0870  136.9980 C   0  0  2  0  0  0  0  0  0  0  0  0
  182.2810  177.8720  138.3180 C   0  0  1  0  0  3  0  0  0  0  0  0
  186.4280  176.4140  135.7070 C   0  0  2  0  0  3  0  0  0  0  0  0
  185.3880  178.3670  136.7570 O   0  0  0  0  0  0  0  0  0  0  0  0
  187.7610  175.7680  135.3400 C   0  0  0  0  0  1  0  0  0  0  0  0
  184.8540  177.5810  137.8070 C   0  0  2  0  0  3  0  0  0  0  0  0
  180.7450  176.6470  136.7220 O   0  0  0  0  0  1  0  0  0  0  0  0
  182.0980  177.2870  134.5940 O   0  0  0  0  0  1  0  0  0  0  0  0
  186.6190  177.8070  136.3380 C   0  0  1  0  0  3  0  0  0  0  0  0
  185.5480  175.5410  136.5710 C   0  0  0  0  0  0  0  0  0  0  0  0
  184.4120  176.1930  137.3050 C   0  0  2  0  0  3  0  0  0  0  0  0
  185.5280  174.2140  136.4110 C   0  0  0  0  0  2  0  0  0  0  0  0
  182.8240  177.5210  135.7640 C   0  0  2  0  0  3  0  0  0  0  0  0
  183.8730  179.8260  138.5450 C   0  0  0  0  0  1  0  0  0  0  0  0
  183.7310  179.5310  144.4150 C   0  0  0  0  0  0  0  0  0  0  0  0
  183.3730  179.0460  145.6670 O   0  0  0  0  0  1  0  0  0  0  0  0
  184.5170  180.5120  144.3460 O   0  0  0  0  0  0  0  0  0  0  0  0
  1  7  1  6  0  0  0
  1  6  1  0  0  0  0
  1 14  1  0  0  0  0
  3 12  1  0  0  0  0
  5  4  1  0  0  0  0
  5  8  1  0  0  0  0
  6  8  1  1  0  0  0
  6  3  1  0  0  0  0
  7  4  1  0  0  0  0
  9 10  1  0  0  0  0
  9  2  1  0  0  0  0
 10 32  1  0  0  0  0
 11 10  2  0  0  0  0
 12  9  2  0  0  0  0
 13 11  1  0  0  0  0
 14 13  2  0  0  0  0
 14 12  1  0  0  0  0
 15 31  1  6  0  0  0
 16 18  1  0  0  0  0
 16 28  1  0  0  0  0
 18 19  1  0  0  0  0
 19 15  1  0  0  0  0
 19  1  1  0  0  0  0
 20 26  1  0  0  0  0
 20 27  1  0  0  0  0
 21 23  1  0  0  0  0
 22 20  1  0  0  0  0
 23 15  1  0  0  0  0
 24 18  1  0  0  0  0
 25 30  1  0  0  0  0
 26 21  1  0  0  0  0
 26 17  1  0  0  0  0
 27 28  1  0  0  0  0
 28 23  1  0  0  0  0
 29 27  2  0  0  0  0
 30 16  1  0  0  0  0
 30 18  1  0  0  0  0
 32 33  1  0  0  0  0
 34 32  2  0  0  0  0
M  END
>  <MODEL>
2

>  <REMARK>
 VINA RESULT:      -5.1      2.603      4.494
  Name = 
  2 active torsions:
  status: ('A' for Active; 'I' for Inactive)
    1  A    between atoms: C_1  and  C_9
    2  A    between atoms: C_3  and  C_25
                            x       y       z     vdW  Elec       q    Type
                         _______ _______ _______ _____ _____    ______ ____

>  <TORSDO>
F 2

$$$$
=
 OpenBabel10262423383D

 34 39  0  0  1  0  0  0  0  0999 V2000
  188.0100  176.5830  136.7260 C   0  0  2  0  0  0  0  0  0  0  0  0
  192.2540  176.0020  134.6100 O   0  0  0  0  0  1  0  0  0  0  0  0
  189.7770  177.5080  135.2550 C   0  0  0  0  0  2  0  0  0  0  0  0
  188.3060  177.7270  138.9790 C   0  0  0  0  0  2  0  0  0  0  0  0
  188.2480  178.9520  138.3060 O   0  0  0  0  0  0  0  0  0  0  0  0
  188.6010  177.9120  136.1530 C   0  0  2  0  0  3  0  0  0  0  0  0
  187.5210  176.6900  138.1870 C   0  0  0  0  0  2  0  0  0  0  0  0
  189.1580  178.8300  137.2500 C   0  0  0  0  0  2  0  0  0  0  0  0
  191.3100  175.4510  135.4710 C   0  0  0  0  0  0  0  0  0  0  0  0
  191.5030  174.1830  136.0700 C   0  0  0  0  0  0  0  0  0  0  0  0
  190.5130  173.6790  136.9390 C   0  0  0  0  0  3  0  0  0  0  0  0
  190.1430  176.1640  135.7610 C   0  0  0  0  0  0  0  0  0  0  0  0
  189.3510  174.4100  137.2100 C   0  0  0  0  0  3  0  0  0  0  0  0
  189.1830  175.6580  136.6040 C   0  0  0  0  0  0  0  0  0  0  0  0
  186.5090  174.6140  135.9990 C   0  0  1  0  0  3  0  0  0  0  0  0
  184.3990  176.7480  136.6610 C   0  0  2  0  0  3  0  0  0  0  0  0
  183.6100  171.8730  137.0620 C   0  0  0  0  0  1  0  0  0  0  0  0
  185.6160  177.0720  135.8150 C   0  0  2  0  0  0  0  0  0  0  0  0
  186.8390  176.1130  135.8130 C   0  0  1  0  0  3  0  0  0  0  0  0
  182.3220  174.1110  137.1330 C   0  0  2  0  0  3  0  0  0  0  0  0
  184.2330  173.7640  135.6400 O   0  0  0  0  0  0  0  0  0  0  0  0
  181.2200  173.4050  137.9170 C   0  0  0  0  0  1  0  0  0  0  0  0
  185.1430  174.2530  136.6090 C   0  0  2  0  0  3  0  0  0  0  0  0
  185.8570  178.4420  135.6710 O   0  0  0  0  0  1  0  0  0  0  0  0
  183.6210  177.6630  134.5940 O   0  0  0  0  0  1  0  0  0  0  0  0
  183.1570  173.1210  136.2980 C   0  0  1  0  0  3  0  0  0  0  0  0
  183.2110  174.9840  137.9880 C   0  0  0  0  0  0  0  0  0  0  0  0
  184.5340  175.4120  137.4220 C   0  0  2  0  0  3  0  0  0  0  0  0
  182.7140  175.6600  139.0290 C   0  0  0  0  0  2  0  0  0  0  0  0
  184.3380  176.5940  135.1360 C   0  0  2  0  0  3  0  0  0  0  0  0
  186.8450  173.8170  134.7480 C   0  0  0  0  0  1  0  0  0  0  0  0
  192.7100  173.3650  135.8140 C   0  0  0  0  0  0  0  0  0  0  0  0
  193.8990  173.6100  136.4900 O   0  0  0  0  0  1  0  0  0  0  0  0
  192.6730  172.4300  134.9700 O   0  0  0  0  0  0  0  0  0  0  0  0
  1  7  1  1  0  0  0
  2  9  1  0  0  0  0
  3 12  1  0  0  0  0
  5  4  1  0  0  0  0
  6  3  1  6  0  0  0
  6  1  1  0  0  0  0
  6  8  1  0  0  0  0
  7  4  1  0  0  0  0
  8  5  1  0  0  0  0
  9 12  2  0  0  0  0
  9 10  1  0  0  0  0
 10 11  2  0  0  0  0
 11 13  1  0  0  0  0
 12 14  1  0  0  0  0
 14  1  1  0  0  0  0
 14 13  2  0  0  0  0
 15 31  1  6  0  0  0
 15 23  1  0  0  0  0
 16 28  1  0  0  0  0
 18 16  1  0  0  0  0
 19 18  1  0  0  0  0
 19 15  1  0  0  0  0
 19  1  1  0  0  0  0
 20 22  1  0  0  0  0
 20 27  1  0  0  0  0
 21 26  1  0  0  0  0
 21 23  1  0  0  0  0
 23 28  1  0  0  0  0
 24 18  1  0  0  0  0
 25 30  1  0  0  0  0
 26 17  1  0  0  0  0
 26 20  1  0  0  0  0
 27 29  2  0  0  0  0
 28 27  1  0  0  0  0
 30 18  1  0  0  0  0
 30 16  1  0  0  0  0
 32 10  1  0  0  0  0
 32 33  1  0  0  0  0
 34 32  2  0  0  0  0
M  END
>  <MODEL>
3

>  <REMARK>
 VINA RESULT:      -5.1      2.805      8.288
  Name = 
  2 active torsions:
  status: ('A' for Active; 'I' for Inactive)
    1  A    between atoms: C_1  and  C_9
    2  A    between atoms: C_3  and  C_25
                            x       y       z     vdW  Elec       q    Type
                         _______ _______ _______ _____ _____    ______ ____

>  <TORSDO>
F 2

$$$$
=
 OpenBabel10262423383D

 34 39  0  0  1  0  0  0  0  0999 V2000
  183.4710  175.4200  136.8570 C   0  0  2  0  0  0  0  0  0  0  0  0
  188.1650  174.6060  137.2180 O   0  0  0  0  0  1  0  0  0  0  0  0
  185.3000  173.9200  137.5940 C   0  0  0  0  0  2  0  0  0  0  0  0
  182.5740  174.4200  134.6960 C   0  0  0  0  0  2  0  0  0  0  0  0
  182.4110  173.2120  135.3840 O   0  0  0  0  0  0  0  0  0  0  0  0
  183.8150  173.9370  137.2140 C   0  0  2  0  0  3  0  0  0  0  0  0
  182.4730  175.5710  135.6870 C   0  0  0  0  0  2  0  0  0  0  0  0
  183.6370  172.9890  136.0200 C   0  0  0  0  0  2  0  0  0  0  0  0
  187.1770  175.4670  136.7530 C   0  0  0  0  0  0  0  0  0  0  0  0
  187.4990  176.6720  136.0820 C   0  0  0  0  0  0  0  0  0  0  0  0
  186.4540  177.5020  135.6280 C   0  0  0  0  0  3  0  0  0  0  0  0
  185.8310  175.1400  136.9430 C   0  0  0  0  0  0  0  0  0  0  0  0
  185.1140  177.1550  135.8340 C   0  0  0  0  0  3  0  0  0  0  0  0
  184.8230  175.9620  136.5020 C   0  0  0  0  0  0  0  0  0  0  0  0
  183.3150  177.6190  138.1990 C   0  0  1  0  0  3  0  0  0  0  0  0
  180.3480  176.8430  137.9950 C   0  0  2  0  0  3  0  0  0  0  0  0
  181.9590  181.5160  138.3450 C   0  0  0  0  0  1  0  0  0  0  0  0
  181.4060  175.8320  138.3950 C   0  0  2  0  0  0  0  0  0  0  0  0
  182.9070  176.1290  138.1240 C   0  0  1  0  0  3  0  0  0  0  0  0
  179.7660  180.1520  138.4410 C   0  0  2  0  0  3  0  0  0  0  0  0
  181.8790  179.2700  139.3130 O   0  0  0  0  0  0  0  0  0  0  0  0
  179.0040  181.4300  138.1030 C   0  0  0  0  0  1  0  0  0  0  0  0
  182.2000  178.6720  138.0700 C   0  0  2  0  0  3  0  0  0  0  0  0
  180.9770  174.5040  138.3210 O   0  0  0  0  0  1  0  0  0  0  0  0
  179.6980  175.9090  140.0980 O   0  0  0  0  0  1  0  0  0  0  0  0
  181.1370  180.4530  139.0800 C   0  0  1  0  0  3  0  0  0  0  0  0
  179.9080  179.2030  137.2740 C   0  0  0  0  0  0  0  0  0  0  0  0
  180.9450  178.1210  137.3680 C   0  0  2  0  0  3  0  0  0  0  0  0
  178.9320  179.0760  136.3700 C   0  0  0  0  0  2  0  0  0  0  0  0
  180.7050  176.6490  139.4740 C   0  0  2  0  0  3  0  0  0  0  0  0
  184.2600  177.8740  139.3630 C   0  0  0  0  0  1  0  0  0  0  0  0
  188.8980  177.0920  135.8420 C   0  0  0  0  0  0  0  0  0  0  0  0
  189.5220  178.0180  136.6690 O   0  0  0  0  0  1  0  0  0  0  0  0
  189.5440  176.6120  134.8730 O   0  0  0  0  0  0  0  0  0  0  0  0
  1  7  1  6  0  0  0
  1  6  1  0  0  0  0
  1 19  1  0  0  0  0
  4  5  1  0  0  0  0
  4  7  1  0  0  0  0
  5  8  1  0  0  0  0
  6  8  1  6  0  0  0
  6  3  1  0  0  0  0
  9 12  1  0  0  0  0
  9  2  1  0  0  0  0
 10  9  2  0  0  0  0
 11 13  2  0  0  0  0
 11 10  1  0  0  0  0
 12  3  1  0  0  0  0
 13 14  1  0  0  0  0
 14  1  1  0  0  0  0
 14 12  2  0  0  0  0
 15 31  1  1  0  0  0
 16 18  1  0  0  0  0
 16 30  1  0  0  0  0
 17 26  1  0  0  0  0
 18 30  1  0  0  0  0
 19 15  1  0  0  0  0
 19 18  1  0  0  0  0
 20 26  1  0  0  0  0
 22 20  1  0  0  0  0
 23 15  1  0  0  0  0
 23 21  1  0  0  0  0
 24 18  1  0  0  0  0
 26 21  1  0  0  0  0
 27 28  1  0  0  0  0
 27 20  1  0  0  0  0
 28 16  1  0  0  0  0
 28 23  1  0  0  0  0
 29 27  2  0  0  0  0
 30 25  1  0  0  0  0
 32 10  1  0  0  0  0
 32 33  1  0  0  0  0
 34 32  2  0  0  0  0
M  END
>  <MODEL>
4

>  <REMARK>
 VINA RESULT:      -5.0      2.189      7.224
  Name = 
  2 active torsions:
  status: ('A' for Active; 'I' for Inactive)
    1  A    between atoms: C_1  and  C_9
    2  A    between atoms: C_3  and  C_25
                            x       y       z     vdW  Elec       q    Type
                         _______ _______ _______ _____ _____    ______ ____

>  <TORSDO>
F 2

$$$$
=
 OpenBabel10262423383D

 34 39  0  0  1  0  0  0  0  0999 V2000
  180.3080  178.8230  140.1260 C   0  0  2  0  0  0  0  0  0  0  0  0
  184.5600  180.3790  138.6030 O   0  0  0  0  0  1  0  0  0  0  0  0
  181.5910  180.3280  138.6330 C   0  0  0  0  0  2  0  0  0  0  0  0
  179.4790  180.2790  142.0410 C   0  0  0  0  0  2  0  0  0  0  0  0
  178.9310  181.1380  141.0820 O   0  0  0  0  0  0  0  0  0  0  0  0
  180.2200  180.1440  139.2950 C   0  0  2  0  0  3  0  0  0  0  0  0
  179.5410  178.8700  141.4660 C   0  0  0  0  0  2  0  0  0  0  0  0
  179.9680  181.3770  140.1740 C   0  0  0  0  0  2  0  0  0  0  0  0
  183.8890  179.5410  139.4870 C   0  0  0  0  0  0  0  0  0  0  0  0
  184.5860  178.7100  140.3970 C   0  0  0  0  0  0  0  0  0  0  0  0
  183.8510  177.8870  141.2740 C   0  0  0  0  0  3  0  0  0  0  0  0
  182.4910  179.5180  139.4870 C   0  0  0  0  0  0  0  0  0  0  0  0
  182.4510  177.8770  141.2520 C   0  0  0  0  0  3  0  0  0  0  0  0
  181.7870  178.7040  140.3410 C   0  0  0  0  0  0  0  0  0  0  0  0
  180.1640  177.7830  137.7690 C   0  0  1  0  0  3  0  0  0  0  0  0
  181.1910  175.3920  139.4040 C   0  0  2  0  0  3  0  0  0  0  0  0
  182.1700  176.0690  134.5930 C   0  0  0  0  0  1  0  0  0  0  0  0
  180.0300  176.2410  139.8850 C   0  0  2  0  0  0  0  0  0  0  0  0
  179.7790  177.6420  139.2590 C   0  0  1  0  0  3  0  0  0  0  0  0
  182.4040  174.2780  136.4410 C   0  0  2  0  0  3  0  0  0  0  0  0
  180.4900  175.8040  136.3520 O   0  0  0  0  0  0  0  0  0  0  0  0
  183.5060  173.6240  135.6120 C   0  0  0  0  0  1  0  0  0  0  0  0
  181.1410  176.7490  137.1820 C   0  0  2  0  0  3  0  0  0  0  0  0
  179.7190  176.0620  141.2360 O   0  0  0  0  0  1  0  0  0  0  0  0
  179.3390  173.9310  139.7920 O   0  0  0  0  0  1  0  0  0  0  0  0
  181.4580  175.1290  135.5710 C   0  0  1  0  0  3  0  0  0  0  0  0
  182.9210  175.0730  137.6180 C   0  0  0  0  0  0  0  0  0  0  0  0
  181.9920  176.0590  138.2650 C   0  0  2  0  0  3  0  0  0  0  0  0
  183.9990  174.6710  138.2970 C   0  0  0  0  0  2  0  0  0  0  0  0
  179.7540  175.0180  139.0190 C   0  0  2  0  0  3  0  0  0  0  0  0
  178.9350  178.0180  136.9030 C   0  0  0  0  0  1  0  0  0  0  0  0
  186.0650  178.6760  140.4600 C   0  0  0  0  0  0  0  0  0  0  0  0
  186.8250  178.3960  139.3310 O   0  0  0  0  0  0  0  0  0  0  0  0
  186.6570  178.9000  141.5490 O   0  0  0  0  0  1  0  0  0  0  0  0
  1 14  1  0  0  0  0
  1  7  1  1  0  0  0
  2  9  1  0  0  0  0
  3 12  1  0  0  0  0
  5  4  1  0  0  0  0
  6  3  1  1  0  0  0
  6  1  1  0  0  0  0
  6  8  1  0  0  0  0
  7  4  1  0  0  0  0
  8  5  1  0  0  0  0
  9 10  1  0  0  0  0
 10 32  1  0  0  0  0
 10 11  2  0  0  0  0
 12  9  2  0  0  0  0
 12 14  1  0  0  0  0
 13 11  1  0  0  0  0
 14 13  2  0  0  0  0
 15 31  1  6  0  0  0
 15 19  1  0  0  0  0
 16 18  1  0  0  0  0
 17 26  1  0  0  0  0
 18 24  1  0  0  0  0
 19 18  1  0  0  0  0
 19  1  1  0  0  0  0
 20 27  1  0  0  0  0
 21 23  1  0  0  0  0
 22 20  1  0  0  0  0
 23 15  1  0  0  0  0
 23 28  1  0  0  0  0
 26 21  1  0  0  0  0
 26 20  1  0  0  0  0
 27 28  1  0  0  0  0
 27 29  2  0  0  0  0
 28 16  1  0  0  0  0
 30 16  1  0  0  0  0
 30 25  1  0  0  0  0
 30 18  1  0  0  0  0
 32 34  1  0  0  0  0
 33 32  2  0  0  0  0
M  END
>  <MODEL>
5

>  <REMARK>
 VINA RESULT:      -5.0      3.064      6.988
  Name = 
  2 active torsions:
  status: ('A' for Active; 'I' for Inactive)
    1  A    between atoms: C_1  and  C_9
    2  A    between atoms: C_3  and  C_25
                            x       y       z     vdW  Elec       q    Type
                         _______ _______ _______ _____ _____    ______ ____

>  <TORSDO>
F 2

$$$$
=
 OpenBabel10262423383D

 34 39  0  0  1  0  0  0  0  0999 V2000
  186.7030  177.5120  137.4140 C   0  0  2  0  0  0  0  0  0  0  0  0
  190.6780  175.2050  138.7180 O   0  0  0  0  0  1  0  0  0  0  0  0
  188.1800  175.5410  137.1470 C   0  0  0  0  0  2  0  0  0  0  0  0
  187.1810  179.0190  135.4200 C   0  0  0  0  0  2  0  0  0  0  0  0
  186.9310  177.9190  134.5940 O   0  0  0  0  0  0  0  0  0  0  0  0
  187.0970  176.3600  136.4340 C   0  0  2  0  0  3  0  0  0  0  0  0
  186.3970  178.8560  136.7140 C   0  0  0  0  0  2  0  0  0  0  0  0
  187.7060  176.8820  135.1250 C   0  0  0  0  0  2  0  0  0  0  0  0
  189.9030  176.3490  138.8800 C   0  0  0  0  0  0  0  0  0  0  0  0
  190.2820  177.3800  139.7730 C   0  0  0  0  0  0  0  0  0  0  0  0
  189.4590  178.5200  139.8900 C   0  0  0  0  0  3  0  0  0  0  0  0
  188.7250  176.4930  138.1420 C   0  0  0  0  0  0  0  0  0  0  0  0
  188.2810  178.6390  139.1440 C   0  0  0  0  0  3  0  0  0  0  0  0
  187.9280  177.6050  138.2720 C   0  0  0  0  0  0  0  0  0  0  0  0
  184.7340  178.2580  138.9060 C   0  0  1  0  0  3  0  0  0  0  0  0
  183.2820  176.4810  136.8610 C   0  0  2  0  0  3  0  0  0  0  0  0
  181.1640  180.3120  139.1830 C   0  0  0  0  0  1  0  0  0  0  0  0
  184.5620  176.0280  137.5370 C   0  0  2  0  0  0  0  0  0  0  0  0
  185.4710  177.0650  138.2550 C   0  0  1  0  0  3  0  0  0  0  0  0
  180.5450  178.3070  137.6760 C   0  0  2  0  0  3  0  0  0  0  0  0
  182.3220  178.1640  139.3560 O   0  0  0  0  0  0  0  0  0  0  0  0
  179.2700  179.0480  137.2830 C   0  0  0  0  0  1  0  0  0  0  0  0
  183.3070  178.5670  138.4210 C   0  0  2  0  0  3  0  0  0  0  0  0
  185.1770  174.9390  136.9140 O   0  0  0  0  0  1  0  0  0  0  0  0
  182.8410  174.3800  137.9130 O   0  0  0  0  0  1  0  0  0  0  0  0
  181.0940  178.7900  139.0340 C   0  0  1  0  0  3  0  0  0  0  0  0
  181.6180  178.3400  136.6140 C   0  0  0  0  0  0  0  0  0  0  0  0
  183.0220  177.9950  137.0190 C   0  0  2  0  0  3  0  0  0  0  0  0
  181.3010  178.3030  135.3160 C   0  0  0  0  0  2  0  0  0  0  0  0
  183.2200  175.6980  138.1790 C   0  0  2  0  0  3  0  0  0  0  0  0
  184.8690  178.2290  140.4200 C   0  0  0  0  0  1  0  0  0  0  0  0
  191.5140  177.3040  140.5900 C   0  0  0  0  0  0  0  0  0  0  0  0
  192.7690  177.4340  140.0090 O   0  0  0  0  0  0  0  0  0  0  0  0
  191.4370  177.1140  141.8330 O   0  0  0  0  0  1  0  0  0  0  0  0
  1  7  1  6  0  0  0
  1 19  1  0  0  0  0
  1 14  1  0  0  0  0
  2  9  1  0  0  0  0
  3 12  1  0  0  0  0
  4  7  1  0  0  0  0
  5  8  1  0  0  0  0
  5  4  1  0  0  0  0
  6  8  1  6  0  0  0
  6  3  1  0  0  0  0
  6  1  1  0  0  0  0
  9 10  1  0  0  0  0
 10 11  2  0  0  0  0
 10 32  1  0  0  0  0
 12 14  1  0  0  0  0
 12  9  2  0  0  0  0
 13 11  1  0  0  0  0
 14 13  2  0  0  0  0
 15 31  1  1  0  0  0
 16 28  1  0  0  0  0
 16 18  1  0  0  0  0
 16 30  1  0  0  0  0
 18 30  1  0  0  0  0
 18 19  1  0  0  0  0
 19 15  1  0  0  0  0
 20 26  1  0  0  0  0
 22 20  1  0  0  0  0
 23 15  1  0  0  0  0
 23 21  1  0  0  0  0
 24 18  1  0  0  0  0
 25 30  1  0  0  0  0
 26 17  1  0  0  0  0
 26 21  1  0  0  0  0
 27 28  1  0  0  0  0
 27 20  1  0  0  0  0
 28 23  1  0  0  0  0
 29 27  2  0  0  0  0
 32 34  1  0  0  0  0
 33 32  2  0  0  0  0
M  END
>  <MODEL>
6

>  <REMARK>
 VINA RESULT:      -4.4      2.087      7.414
  Name = 
  2 active torsions:
  status: ('A' for Active; 'I' for Inactive)
    1  A    between atoms: C_1  and  C_9
    2  A    between atoms: C_3  and  C_25
                            x       y       z     vdW  Elec       q    Type
                         _______ _______ _______ _____ _____    ______ ____

>  <TORSDO>
F 2

$$$$
=
 OpenBabel10262423383D

 34 39  0  0  1  0  0  0  0  0999 V2000
  186.9210  177.5920  137.7970 C   0  0  2  0  0  0  0  0  0  0  0  0
  189.8040  175.5320  134.5940 O   0  0  0  0  0  1  0  0  0  0  0  0
  188.6820  177.8490  136.0740 C   0  0  0  0  0  2  0  0  0  0  0  0
  188.1050  177.7880  140.0410 C   0  0  0  0  0  2  0  0  0  0  0  0
  188.6380  179.0020  139.5950 O   0  0  0  0  0  0  0  0  0  0  0  0
  188.0590  178.5380  137.2940 C   0  0  2  0  0  3  0  0  0  0  0  0
  186.7790  177.5410  139.3350 C   0  0  0  0  0  2  0  0  0  0  0  0
  189.1750  178.7210  138.3330 C   0  0  0  0  0  2  0  0  0  0  0  0
  188.8430  175.3290  135.5780 C   0  0  0  0  0  0  0  0  0  0  0  0
  188.3870  174.0310  135.9120 C   0  0  0  0  0  0  0  0  0  0  0  0
  187.4150  173.8860  136.9230 C   0  0  0  0  0  3  0  0  0  0  0  0
  188.3140  176.4270  136.2630 C   0  0  0  0  0  0  0  0  0  0  0  0
  186.8970  175.0020  137.5910 C   0  0  0  0  0  3  0  0  0  0  0  0
  187.3610  176.2720  137.2400 C   0  0  0  0  0  0  0  0  0  0  0  0
  184.9960  176.9800  136.1910 C   0  0  1  0  0  3  0  0  0  0  0  0
  183.4270  177.7730  138.7120 C   0  0  2  0  0  3  0  0  0  0  0  0
  181.8070  174.4890  135.3730 C   0  0  0  0  0  1  0  0  0  0  0  0
  184.5600  178.6310  138.1800 C   0  0  2  0  0  0  0  0  0  0  0  0
  185.5720  178.0380  137.1600 C   0  0  1  0  0  3  0  0  0  0  0  0
  180.9780  175.8070  137.4350 C   0  0  2  0  0  3  0  0  0  0  0  0
  182.5750  176.7640  135.8420 O   0  0  0  0  0  0  0  0  0  0  0  0
  179.8790  174.7640  137.6100 C   0  0  0  0  0  1  0  0  0  0  0  0
  183.6810  176.2870  136.5880 C   0  0  2  0  0  3  0  0  0  0  0  0
  185.0300  179.5780  139.0940 O   0  0  0  0  0  1  0  0  0  0  0  0
  182.5640  179.9750  138.3640 O   0  0  0  0  0  1  0  0  0  0  0  0
  181.4960  175.8590  135.9840 C   0  0  1  0  0  3  0  0  0  0  0  0
  182.1200  175.6550  138.4140 C   0  0  0  0  0  0  0  0  0  0  0  0
  183.4120  176.3540  138.1030 C   0  0  2  0  0  3  0  0  0  0  0  0
  181.9000  175.2460  139.6670 C   0  0  0  0  0  2  0  0  0  0  0  0
  183.1360  178.8880  137.6990 C   0  0  2  0  0  3  0  0  0  0  0  0
  185.0090  177.4830  134.7560 C   0  0  0  0  0  1  0  0  0  0  0  0
  188.8960  172.8170  135.2340 C   0  0  0  0  0  0  0  0  0  0  0  0
  190.2440  172.4830  135.2790 O   0  0  0  0  0  1  0  0  0  0  0  0
  188.1060  172.0680  134.6010 O   0  0  0  0  0  0  0  0  0  0  0  0
  1  7  1  1  0  0  0
  2  9  1  0  0  0  0
  3 12  1  0  0  0  0
  5  4  1  0  0  0  0
  6  3  1  6  0  0  0
  6  1  1  0  0  0  0
  6  8  1  0  0  0  0
  7  4  1  0  0  0  0
  8  5  1  0  0  0  0
  9 10  2  0  0  0  0
  9 12  1  0  0  0  0
 10 11  1  0  0  0  0
 11 13  2  0  0  0  0
 12 14  2  0  0  0  0
 14 13  1  0  0  0  0
 14  1  1  0  0  0  0
 15 31  1  6  0  0  0
 15 23  1  0  0  0  0
 15 19  1  0  0  0  0
 17 26  1  0  0  0  0
 18 16  1  0  0  0  0
 18 24  1  0  0  0  0
 19  1  1  0  0  0  0
 19 18  1  0  0  0  0
 20 22  1  0  0  0  0
 20 27  1  0  0  0  0
 21 26  1  0  0  0  0
 21 23  1  0  0  0  0
 23 28  1  0  0  0  0
 26 20  1  0  0  0  0
 27 29  2  0  0  0  0
 28 27  1  0  0  0  0
 28 16  1  0  0  0  0
 30 18  1  0  0  0  0
 30 25  1  0  0  0  0
 30 16  1  0  0  0  0
 32 33  1  0  0  0  0
 32 10  1  0  0  0  0
 34 32  2  0  0  0  0
M  END
>  <MODEL>
7

>  <REMARK>
 VINA RESULT:      -4.3      2.338      7.517
  Name = 
  2 active torsions:
  status: ('A' for Active; 'I' for Inactive)
    1  A    between atoms: C_1  and  C_9
    2  A    between atoms: C_3  and  C_25
                            x       y       z     vdW  Elec       q    Type
                         _______ _______ _______ _____ _____    ______ ____

>  <TORSDO>
F 2

$$$$
=
 OpenBabel10262423383D

 34 39  0  0  1  0  0  0  0  0999 V2000
  181.2750  176.5270  137.7030 C   0  0  2  0  0  0  0  0  0  0  0  0
  184.5270  173.0300  137.8430 O   0  0  0  0  0  1  0  0  0  0  0  0
  182.9610  175.2670  139.0100 C   0  0  0  0  0  2  0  0  0  0  0  0
  179.0080  175.6440  138.4500 C   0  0  0  0  0  2  0  0  0  0  0  0
  179.3930  175.9200  139.7660 O   0  0  0  0  0  0  0  0  0  0  0  0
  181.7200  176.1560  139.1550 C   0  0  2  0  0  3  0  0  0  0  0  0
  179.7430  176.5900  137.5110 C   0  0  0  0  0  2  0  0  0  0  0  0
  180.6580  175.3390  139.9050 C   0  0  0  0  0  2  0  0  0  0  0  0
  183.5660  173.6800  137.0760 C   0  0  0  0  0  0  0  0  0  0  0  0
  183.2960  173.2940  135.7400 C   0  0  0  0  0  0  0  0  0  0  0  0
  182.3060  173.9870  135.0140 C   0  0  0  0  0  3  0  0  0  0  0  0
  182.8410  174.7380  137.6320 C   0  0  0  0  0  0  0  0  0  0  0  0
  181.5960  175.0460  135.5910 C   0  0  0  0  0  3  0  0  0  0  0  0
  181.8840  175.4110  136.9100 C   0  0  0  0  0  0  0  0  0  0  0  0
  181.0100  178.7140  136.3590 C   0  0  1  0  0  3  0  0  0  0  0  0
  181.7180  179.8150  139.1400 C   0  0  2  0  0  3  0  0  0  0  0  0
  178.9370  182.2460  135.8370 C   0  0  0  0  0  1  0  0  0  0  0  0
  182.5040  178.6800  138.5140 C   0  0  2  0  0  0  0  0  0  0  0  0
  181.9110  177.8940  137.3110 C   0  0  1  0  0  3  0  0  0  0  0  0
  180.1330  182.6240  138.0950 C   0  0  2  0  0  3  0  0  0  0  0  0
  181.0700  181.1690  136.3610 O   0  0  0  0  0  0  0  0  0  0  0  0
  179.1940  183.7990  138.3510 C   0  0  0  0  0  1  0  0  0  0  0  0
  180.4180  180.0300  136.8940 C   0  0  2  0  0  3  0  0  0  0  0  0
  183.3110  177.9830  139.4180 O   0  0  0  0  0  1  0  0  0  0  0  0
  184.0180  180.4660  139.0970 O   0  0  0  0  0  1  0  0  0  0  0  0
  180.2680  182.3130  136.5910 C   0  0  1  0  0  3  0  0  0  0  0  0
  179.7780  181.3810  138.8770 C   0  0  0  0  0  0  0  0  0  0  0  0
  180.3700  180.0750  138.4330 C   0  0  2  0  0  3  0  0  0  0  0  0
  179.2780  181.4680  140.1140 C   0  0  0  0  0  2  0  0  0  0  0  0
  182.9460  180.1180  138.2720 C   0  0  2  0  0  3  0  0  0  0  0  0
  181.6400  178.8470  134.9820 C   0  0  0  0  0  1  0  0  0  0  0  0
  184.0200  172.1850  135.0790 C   0  0  0  0  0  0  0  0  0  0  0  0
  185.3140  172.3560  134.6020 O   0  0  0  0  0  0  0  0  0  0  0  0
  183.4640  171.0630  134.9360 O   0  0  0  0  0  1  0  0  0  0  0  0
  1  7  1  6  0  0  0
  1  6  1  0  0  0  0
  4  5  1  0  0  0  0
  5  8  1  0  0  0  0
  6  3  1  6  0  0  0
  6  8  1  0  0  0  0
  7  4  1  0  0  0  0
  9 12  1  0  0  0  0
  9  2  1  0  0  0  0
 10  9  2  0  0  0  0
 11 13  2  0  0  0  0
 11 10  1  0  0  0  0
 12  3  1  0  0  0  0
 13 14  1  0  0  0  0
 14 12  2  0  0  0  0
 14  1  1  0  0  0  0
 15 31  1  6  0  0  0
 15 23  1  0  0  0  0
 15 19  1  0  0  0  0
 17 26  1  0  0  0  0
 18 16  1  0  0  0  0
 18 24  1  0  0  0  0
 19  1  1  0  0  0  0
 19 18  1  0  0  0  0
 20 22  1  0  0  0  0
 20 27  1  0  0  0  0
 21 26  1  0  0  0  0
 21 23  1  0  0  0  0
 23 28  1  0  0  0  0
 26 20  1  0  0  0  0
 27 29  2  0  0  0  0
 28 27  1  0  0  0  0
 28 16  1  0  0  0  0
 30 18  1  0  0  0  0
 30 25  1  0  0  0  0
 30 16  1  0  0  0  0
 32 10  1  0  0  0  0
 33 32  2  0  0  0  0
 34 32  1  0  0  0  0
M  END
>  <MODEL>
8

>  <REMARK>
 VINA RESULT:      -4.3      4.060      7.382
  Name = 
  2 active torsions:
  status: ('A' for Active; 'I' for Inactive)
    1  A    between atoms: C_1  and  C_9
    2  A    between atoms: C_3  and  C_25
                            x       y       z     vdW  Elec       q    Type
                         _______ _______ _______ _____ _____    ______ ____

>  <TORSDO>
F 2

$$$$
=
 OpenBabel10262423383D

 34 39  0  0  1  0  0  0  0  0999 V2000
  181.1890  176.6100  137.5840 C   0  0  2  0  0  0  0  0  0  0  0  0
  185.7540  175.2000  137.5370 O   0  0  0  0  0  1  0  0  0  0  0  0
  183.0230  175.3650  138.6910 C   0  0  0  0  0  2  0  0  0  0  0  0
  179.7200  174.8520  136.4760 C   0  0  0  0  0  2  0  0  0  0  0  0
  179.6380  174.2130  137.7180 O   0  0  0  0  0  0  0  0  0  0  0  0
  181.4950  175.4740  138.6140 C   0  0  2  0  0  3  0  0  0  0  0  0
  179.9520  176.3400  136.6990 C   0  0  0  0  0  2  0  0  0  0  0  0
  180.9610  174.1090  138.1610 C   0  0  0  0  0  2  0  0  0  0  0  0
  184.7510  175.8820  136.8550 C   0  0  0  0  0  0  0  0  0  0  0  0
  184.9910  176.4960  135.6020 C   0  0  0  0  0  0  0  0  0  0  0  0
  183.9330  177.1680  134.9560 C   0  0  0  0  0  3  0  0  0  0  0  0
  183.4710  175.9610  137.4120 C   0  0  0  0  0  0  0  0  0  0  0  0
  182.6610  177.2380  135.5350 C   0  0  0  0  0  3  0  0  0  0  0  0
  182.4510  176.6260  136.7750 C   0  0  0  0  0  0  0  0  0  0  0  0
  180.3090  177.7670  139.7160 C   0  0  1  0  0  3  0  0  0  0  0  0
  183.1730  178.8740  139.5860 C   0  0  2  0  0  3  0  0  0  0  0  0
  180.6450  178.2510  143.8020 C   0  0  0  0  0  1  0  0  0  0  0  0
  182.2780  178.8480  138.3620 C   0  0  2  0  0  0  0  0  0  0  0  0
  181.0060  177.9540  138.3480 C   0  0  1  0  0  3  0  0  0  0  0  0
  182.8190  179.3370  142.9250 C   0  0  2  0  0  3  0  0  0  0  0  0
  180.7660  179.2870  141.5890 O   0  0  0  0  0  0  0  0  0  0  0  0
  183.3730  179.2800  144.3460 C   0  0  0  0  0  1  0  0  0  0  0  0
  181.1320  178.0600  140.9830 C   0  0  2  0  0  3  0  0  0  0  0  0
  182.9600  179.0360  137.1570 O   0  0  0  0  0  1  0  0  0  0  0  0
  183.0490  181.1040  138.7330 O   0  0  0  0  0  1  0  0  0  0  0  0
  181.2770  179.3220  142.9080 C   0  0  1  0  0  3  0  0  0  0  0  0
  183.3820  178.2740  142.0110 C   0  0  0  0  0  0  0  0  0  0  0  0
  182.6500  177.9830  140.7330 C   0  0  2  0  0  3  0  0  0  0  0  0
  184.6520  177.8740  142.1250 C   0  0  0  0  0  2  0  0  0  0  0  0
  182.2720  180.0740  139.2680 C   0  0  2  0  0  3  0  0  0  0  0  0
  178.9310  178.4090  139.7230 C   0  0  0  0  0  1  0  0  0  0  0  0
  186.3170  176.4580  134.9460 C   0  0  0  0  0  0  0  0  0  0  0  0
  187.0310  177.6250  134.7030 O   0  0  0  0  0  1  0  0  0  0  0  0
  186.8170  175.3570  134.5940 O   0  0  0  0  0  0  0  0  0  0  0  0
  1  7  1  6  0  0  0
  1 19  1  0  0  0  0
  1  6  1  0  0  0  0
  4  7  1  0  0  0  0
  4  5  1  0  0  0  0
  5  8  1  0  0  0  0
  6  8  1  6  0  0  0
  6  3  1  0  0  0  0
  9 12  1  0  0  0  0
  9  2  1  0  0  0  0
 10  9  2  0  0  0  0
 11 13  2  0  0  0  0
 11 10  1  0  0  0  0
 12  3  1  0  0  0  0
 13 14  1  0  0  0  0
 14 12  2  0  0  0  0
 14  1  1  0  0  0  0
 15 31  1  6  0  0  0
 15 23  1  0  0  0  0
 16 28  1  0  0  0  0
 18 30  1  0  0  0  0
 18 16  1  0  0  0  0
 19 18  1  0  0  0  0
 19 15  1  0  0  0  0
 20 22  1  0  0  0  0
 21 26  1  0  0  0  0
 23 21  1  0  0  0  0
 24 18  1  0  0  0  0
 25 30  1  0  0  0  0
 26 20  1  0  0  0  0
 26 17  1  0  0  0  0
 27 29  2  0  0  0  0
 27 20  1  0  0  0  0
 28 23  1  0  0  0  0
 28 27  1  0  0  0  0
 30 16  1  0  0  0  0
 32 10  1  0  0  0  0
 33 32  1  0  0  0  0
 34 32  2  0  0  0  0
M  END
>  <MODEL>
9

>  <REMARK>
 VINA RESULT:      -3.7      2.817      6.325
  Name = 
  2 active torsions:
  status: ('A' for Active; 'I' for Inactive)
    1  A    between atoms: C_1  and  C_9
    2  A    between atoms: C_3  and  C_25
                            x       y       z     vdW  Elec       q    Type
                         _______ _______ _______ _____ _____    ______ ____

>  <TORSDO>
F 2

$$$$
