=
 OpenBabel10262420053D

 27 30  0  0  1  0  0  0  0  0999 V2000
  187.0360  177.2480  144.3570 C   0  0  0  0  0  2  0  0  0  0  0  0
  186.4250  178.2880  142.1260 C   0  0  0  0  0  0  0  0  0  0  0  0
  188.9160  178.4890  142.0570 N   0  0  0  0  0  2  0  0  0  0  0  0
  186.2500  178.3320  137.9700 C   0  0  0  0  0  3  0  0  0  0  0  0
  187.3300  178.4180  135.7200 C   0  0  0  0  0  1  0  0  0  0  0  0
  185.2480  178.2430  141.4430 N   0  0  0  0  0  0  0  0  0  0  0  0
  188.7480  178.4690  139.2260 C   0  0  0  0  0  3  0  0  0  0  0  0
  191.5840  177.7790  143.2230 C   0  0  0  0  0  2  0  0  0  0  0  0
  188.6640  178.4770  137.8300 C   0  0  0  0  0  3  0  0  0  0  0  0
  191.4850  176.0770  143.8510 S   0  0  0  0  0  0  0  0  0  0  0  0
  187.5840  178.3910  140.0040 C   0  0  0  0  0  0  0  0  0  0  0  0
  186.3960  178.2980  143.5620 N   0  0  0  0  0  0  0  0  0  0  0  0
  187.4160  178.4080  137.2030 C   0  0  0  0  0  0  0  0  0  0  0  0
  186.3300  178.3230  139.3650 C   0  0  0  0  0  0  0  0  0  0  0  0
  188.5350  177.1180  144.0930 C   0  0  1  0  0  3  0  0  0  0  0  0
  187.6390  178.3810  141.4050 C   0  0  0  0  0  0  0  0  0  0  0  0
  190.5640  178.6800  143.9080 C   0  0  0  0  0  2  0  0  0  0  0  0
  185.2010  178.2550  140.1110 N   0  0  0  0  0  0  0  0  0  0  0  0
  190.1660  175.6940  142.6650 C   0  0  0  0  0  2  0  0  0  0  0  0
  188.7780  175.8330  143.2840 C   0  0  0  0  0  2  0  0  0  0  0  0
  189.1130  178.4120  143.4990 C   0  0  1  0  0  3  0  0  0  0  0  0
  185.5430  179.2560  144.2520 C   0  0  0  0  0  2  0  0  0  0  0  0
  184.8270  178.5020  146.5150 C   0  0  0  0  0  3  0  0  0  0  0  0
  184.6200  178.5450  145.1940 C   0  0  0  0  0  3  0  0  0  0  0  0
  185.9980  179.1480  147.1900 C   0  0  0  0  0  2  0  0  0  0  0  0
  187.0320  178.1030  147.5670 C   0  0  0  0  0  2  0  0  0  0  0  0
  187.9090  178.6370  148.5090 O   0  0  0  0  0  1  0  0  0  0  0  0
  2 12  1  0  0  0  0
  3 21  1  0  0  0  0
  4 14  1  0  0  0  0
  5 13  1  0  0  0  0
  6  2  1  0  0  0  0
  7 11  1  0  0  0  0
  8 10  1  0  0  0  0
  8 17  1  0  0  0  0
  9  7  2  0  0  0  0
 11 16  1  0  0  0  0
 12 22  1  0  0  0  0
 12  1  1  0  0  0  0
 13  9  1  0  0  0  0
 13  4  2  0  0  0  0
 14 11  2  0  0  0  0
 14 18  1  0  0  0  0
 15 20  1  6  0  0  0
 15  1  1  0  0  0  0
 16  3  1  0  0  0  0
 16  2  2  0  0  0  0
 18  6  2  0  0  0  0
 19 20  1  0  0  0  0
 19 10  1  0  0  0  0
 21 17  1  6  0  0  0
 21 15  1  0  0  0  0
 22 24  1  0  0  0  0
 23 25  1  0  0  0  0
 24 23  2  0  0  0  0
 25 26  1  0  0  0  0
 26 27  1  0  0  0  0
M  END
>  <MODEL>
1

>  <REMARK>
 VINA RESULT:      -7.8      0.000      0.000
  Name = 
  4 active torsions:
  status: ('A' for Active; 'I' for Inactive)
    1  A    between atoms: C_7  and  C_11
    2  A    between atoms: C_7  and  C_25
    3  A    between atoms: C_9  and  N_15
    4  A    between atoms: C_9  and  C_27
                            x       y       z     vdW  Elec       q    Type
                         _______ _______ _______ _____ _____    ______ ____

>  <TORSDO>
F 4

$$$$
=
 OpenBabel10262420053D

 27 30  0  0  1  0  0  0  0  0999 V2000
  190.2520  176.5820  139.9630 C   0  0  0  0  0  2  0  0  0  0  0  0
  188.6590  177.6020  141.6530 C   0  0  0  0  0  0  0  0  0  0  0  0
  187.8860  178.7270  139.5580 N   0  0  0  0  0  2  0  0  0  0  0  0
  184.9130  178.1230  143.3830 C   0  0  0  0  0  3  0  0  0  0  0  0
  182.5410  178.9020  143.3110 C   0  0  0  0  0  1  0  0  0  0  0  0
  188.3810  177.2100  142.9260 N   0  0  0  0  0  0  0  0  0  0  0  0
  185.3360  179.0180  140.7650 C   0  0  0  0  0  3  0  0  0  0  0  0
  187.9580  178.9190  136.5680 C   0  0  0  0  0  2  0  0  0  0  0  0
  184.0840  179.1770  141.3660 C   0  0  0  0  0  3  0  0  0  0  0  0
  188.1290  177.2360  135.9040 S   0  0  0  0  0  0  0  0  0  0  0  0
  186.3850  178.4090  141.4680 C   0  0  0  0  0  0  0  0  0  0  0  0
  189.9880  177.4120  141.1410 N   0  0  0  0  0  0  0  0  0  0  0  0
  183.8730  178.7300  142.6740 C   0  0  0  0  0  0  0  0  0  0  0  0
  186.1650  177.9620  142.7850 C   0  0  0  0  0  0  0  0  0  0  0  0
  189.5190  177.0580  138.7100 C   0  0  1  0  0  3  0  0  0  0  0  0
  187.6510  178.2360  140.8890 C   0  0  0  0  0  0  0  0  0  0  0  0
  189.1290  179.2740  137.4760 C   0  0  0  0  0  2  0  0  0  0  0  0
  187.1770  177.3790  143.4730 N   0  0  0  0  0  0  0  0  0  0  0  0
  187.3470  176.5470  137.3890 C   0  0  0  0  0  2  0  0  0  0  0  0
  188.3740  176.0760  138.4130 C   0  0  0  0  0  2  0  0  0  0  0  0
  189.1290  178.5400  138.8190 C   0  0  1  0  0  3  0  0  0  0  0  0
  191.1260  177.8810  141.9180 C   0  0  0  0  0  2  0  0  0  0  0  0
  191.7630  176.6490  143.9870 C   0  0  0  0  0  3  0  0  0  0  0  0
  191.7610  176.7400  142.6530 C   0  0  0  0  0  3  0  0  0  0  0  0
  191.1400  177.6740  144.8860 C   0  0  0  0  0  2  0  0  0  0  0  0
  190.7230  177.0390  146.1990 C   0  0  0  0  0  2  0  0  0  0  0  0
  191.8440  176.8690  147.0100 O   0  0  0  0  0  1  0  0  0  0  0  0
  1 12  1  0  0  0  0
  2  6  1  0  0  0  0
  3 16  1  0  0  0  0
  6 18  2  0  0  0  0
  7  9  2  0  0  0  0
  7 11  1  0  0  0  0
  8 17  1  0  0  0  0
  9 13  1  0  0  0  0
 10  8  1  0  0  0  0
 10 19  1  0  0  0  0
 11 14  2  0  0  0  0
 12  2  1  0  0  0  0
 12 22  1  0  0  0  0
 13  5  1  0  0  0  0
 13  4  2  0  0  0  0
 14  4  1  0  0  0  0
 14 18  1  0  0  0  0
 15 20  1  1  0  0  0
 15 21  1  0  0  0  0
 15  1  1  0  0  0  0
 16 11  1  0  0  0  0
 16  2  2  0  0  0  0
 19 20  1  0  0  0  0
 21 17  1  6  0  0  0
 21  3  1  0  0  0  0
 22 24  1  0  0  0  0
 23 25  1  0  0  0  0
 24 23  2  0  0  0  0
 25 26  1  0  0  0  0
 26 27  1  0  0  0  0
M  END
>  <MODEL>
2

>  <REMARK>
 VINA RESULT:      -7.8      2.770      5.543
  Name = 
  4 active torsions:
  status: ('A' for Active; 'I' for Inactive)
    1  A    between atoms: C_7  and  C_11
    2  A    between atoms: C_7  and  C_25
    3  A    between atoms: C_9  and  N_15
    4  A    between atoms: C_9  and  C_27
                            x       y       z     vdW  Elec       q    Type
                         _______ _______ _______ _____ _____    ______ ____

>  <TORSDO>
F 4

$$$$
=
 OpenBabel10262420053D

 27 30  0  0  1  0  0  0  0  0999 V2000
  186.8500  177.6010  143.9400 C   0  0  0  0  0  2  0  0  0  0  0  0
  186.5750  178.4810  141.5780 C   0  0  0  0  0  0  0  0  0  0  0  0
  189.0640  178.5480  141.8030 N   0  0  0  0  0  2  0  0  0  0  0  0
  186.9000  178.1850  137.4410 C   0  0  0  0  0  3  0  0  0  0  0  0
  188.2440  178.0270  135.3420 C   0  0  0  0  0  1  0  0  0  0  0  0
  185.4870  178.4390  140.7600 N   0  0  0  0  0  0  0  0  0  0  0  0
  189.2330  178.2990  138.9830 C   0  0  0  0  0  3  0  0  0  0  0  0
  191.5250  177.8020  143.3410 C   0  0  0  0  0  2  0  0  0  0  0  0
  189.3170  178.1950  137.5910 C   0  0  0  0  0  3  0  0  0  0  0  0
  191.2480  176.1660  144.0810 S   0  0  0  0  0  0  0  0  0  0  0  0
  187.9830  178.3460  139.6140 C   0  0  0  0  0  0  0  0  0  0  0  0
  186.3750  178.6130  142.9940 N   0  0  0  0  0  0  0  0  0  0  0  0
  188.1510  178.1370  136.8210 C   0  0  0  0  0  0  0  0  0  0  0  0
  186.8120  178.2890  138.8320 C   0  0  0  0  0  0  0  0  0  0  0  0
  188.3600  177.3740  143.8750 C   0  0  1  0  0  3  0  0  0  0  0  0
  187.8690  178.4510  141.0070 C   0  0  0  0  0  0  0  0  0  0  0  0
  190.4870  178.8080  143.8240 C   0  0  0  0  0  2  0  0  0  0  0  0
  185.6000  178.3420  139.4350 N   0  0  0  0  0  0  0  0  0  0  0  0
  190.0590  175.7530  142.7740 C   0  0  0  0  0  2  0  0  0  0  0  0
  188.6190  176.0150  143.2040 C   0  0  0  0  0  2  0  0  0  0  0  0
  189.0830  178.5820  143.2600 C   0  0  1  0  0  3  0  0  0  0  0  0
  185.5060  179.6670  143.4970 C   0  0  0  0  0  2  0  0  0  0  0  0
  183.3700  178.8540  144.4890 C   0  0  0  0  0  3  0  0  0  0  0  0
  184.6670  179.1550  144.6280 C   0  0  0  0  0  3  0  0  0  0  0  0
  182.6210  179.0020  143.2000 C   0  0  0  0  0  2  0  0  0  0  0  0
  181.1260  179.0190  143.4580 C   0  0  0  0  0  2  0  0  0  0  0  0
  180.5730  180.1740  142.9080 O   0  0  0  0  0  1  0  0  0  0  0  0
  2 12  1  0  0  0  0
  3 21  1  0  0  0  0
  4 14  1  0  0  0  0
  5 13  1  0  0  0  0
  6  2  2  0  0  0  0
  7 11  1  0  0  0  0
  8 17  1  0  0  0  0
  8 10  1  0  0  0  0
  9  7  2  0  0  0  0
 11 16  2  0  0  0  0
 12 22  1  0  0  0  0
 12  1  1  0  0  0  0
 13  4  2  0  0  0  0
 13  9  1  0  0  0  0
 14 18  2  0  0  0  0
 14 11  1  0  0  0  0
 15 20  1  6  0  0  0
 15  1  1  0  0  0  0
 16  2  1  0  0  0  0
 16  3  1  0  0  0  0
 18  6  1  0  0  0  0
 19 20  1  0  0  0  0
 19 10  1  0  0  0  0
 21 17  1  1  0  0  0
 21 15  1  0  0  0  0
 22 24  1  0  0  0  0
 23 24  2  0  0  0  0
 25 26  1  0  0  0  0
 25 23  1  0  0  0  0
 27 26  1  0  0  0  0
M  END
>  <MODEL>
3

>  <REMARK>
 VINA RESULT:      -7.8      2.124      2.601
  Name = 
  4 active torsions:
  status: ('A' for Active; 'I' for Inactive)
    1  A    between atoms: C_7  and  C_11
    2  A    between atoms: C_7  and  C_25
    3  A    between atoms: C_9  and  N_15
    4  A    between atoms: C_9  and  C_27
                            x       y       z     vdW  Elec       q    Type
                         _______ _______ _______ _____ _____    ______ ____

>  <TORSDO>
F 4

$$$$
=
 OpenBabel10262420053D

 27 30  0  0  1  0  0  0  0  0999 V2000
  187.6270  177.3350  142.9160 C   0  0  0  0  0  2  0  0  0  0  0  0
  188.4910  177.5680  140.5430 C   0  0  0  0  0  0  0  0  0  0  0  0
  190.5680  178.0770  141.8380 N   0  0  0  0  0  2  0  0  0  0  0  0
  190.7600  176.3460  137.2770 C   0  0  0  0  0  3  0  0  0  0  0  0
  192.9460  175.9030  136.1550 C   0  0  0  0  0  1  0  0  0  0  0  0
  187.9280  177.1620  139.3720 N   0  0  0  0  0  0  0  0  0  0  0  0
  192.0700  177.1910  139.6020 C   0  0  0  0  0  3  0  0  0  0  0  0
  192.0130  178.1180  144.4630 C   0  0  0  0  0  2  0  0  0  0  0  0
  192.8110  176.7710  138.4930 C   0  0  0  0  0  3  0  0  0  0  0  0
  191.4570  176.6830  145.4300 S   0  0  0  0  0  0  0  0  0  0  0  0
  190.6690  177.1910  139.5570 C   0  0  0  0  0  0  0  0  0  0  0  0
  187.6360  178.0030  141.6120 N   0  0  0  0  0  0  0  0  0  0  0  0
  192.1560  176.3490  137.3320 C   0  0  0  0  0  0  0  0  0  0  0  0
  190.0160  176.7650  138.3840 C   0  0  0  0  0  0  0  0  0  0  0  0
  188.9890  177.3380  143.6070 C   0  0  1  0  0  3  0  0  0  0  0  0
  189.9010  177.6070  140.6540 C   0  0  0  0  0  0  0  0  0  0  0  0
  190.8470  179.0340  144.1160 C   0  0  0  0  0  2  0  0  0  0  0  0
  188.6620  176.7690  138.3310 N   0  0  0  0  0  0  0  0  0  0  0  0
  191.0470  175.7880  143.9060 C   0  0  0  0  0  2  0  0  0  0  0  0
  189.5710  175.9160  143.5450 C   0  0  0  0  0  2  0  0  0  0  0  0
  189.8880  178.4610  143.0690 C   0  0  1  0  0  3  0  0  0  0  0  0
  186.6070  178.9970  141.3440 C   0  0  0  0  0  2  0  0  0  0  0  0
  184.4280  178.6910  142.5140 C   0  0  0  0  0  3  0  0  0  0  0  0
  185.2450  178.3900  141.4980 C   0  0  0  0  0  3  0  0  0  0  0  0
  184.7860  179.6550  143.6040 C   0  0  0  0  0  2  0  0  0  0  0  0
  184.8660  178.9370  144.9380 C   0  0  0  0  0  2  0  0  0  0  0  0
  183.6600  179.0900  145.6200 O   0  0  0  0  0  1  0  0  0  0  0  0
  2 16  1  0  0  0  0
  2 12  1  0  0  0  0
  3 21  1  0  0  0  0
  4 13  2  0  0  0  0
  4 14  1  0  0  0  0
  5 13  1  0  0  0  0
  6  2  2  0  0  0  0
  8 10  1  0  0  0  0
  9  7  2  0  0  0  0
 11  7  1  0  0  0  0
 11 16  2  0  0  0  0
 12  1  1  0  0  0  0
 13  9  1  0  0  0  0
 14 11  1  0  0  0  0
 15  1  1  6  0  0  0
 16  3  1  0  0  0  0
 17  8  1  0  0  0  0
 18 14  2  0  0  0  0
 18  6  1  0  0  0  0
 19 10  1  0  0  0  0
 20 15  1  0  0  0  0
 20 19  1  0  0  0  0
 21 15  1  0  0  0  0
 21 17  1  1  0  0  0
 22 24  1  0  0  0  0
 22 12  1  0  0  0  0
 23 25  1  0  0  0  0
 24 23  2  0  0  0  0
 25 26  1  0  0  0  0
 26 27  1  0  0  0  0
M  END
>  <MODEL>
4

>  <REMARK>
 VINA RESULT:      -7.5      2.589      3.378
  Name = 
  4 active torsions:
  status: ('A' for Active; 'I' for Inactive)
    1  A    between atoms: C_7  and  C_11
    2  A    between atoms: C_7  and  C_25
    3  A    between atoms: C_9  and  N_15
    4  A    between atoms: C_9  and  C_27
                            x       y       z     vdW  Elec       q    Type
                         _______ _______ _______ _____ _____    ______ ____

>  <TORSDO>
F 4

$$$$
=
 OpenBabel10262420053D

 27 30  0  0  1  0  0  0  0  0999 V2000
  190.6100  175.8710  137.8660 C   0  0  0  0  0  2  0  0  0  0  0  0
  190.2850  176.6230  140.2660 C   0  0  0  0  0  0  0  0  0  0  0  0
  188.7090  178.1650  139.0870 N   0  0  0  0  0  2  0  0  0  0  0  0
  188.0920  176.9800  143.7830 C   0  0  0  0  0  3  0  0  0  0  0  0
  186.1640  177.8710  145.0970 C   0  0  0  0  0  1  0  0  0  0  0  0
  190.6530  176.0080  141.4240 N   0  0  0  0  0  0  0  0  0  0  0  0
  187.2230  178.3400  141.4960 C   0  0  0  0  0  3  0  0  0  0  0  0
  187.2510  178.9240  136.5810 C   0  0  0  0  0  2  0  0  0  0  0  0
  186.5000  178.4410  142.6890 C   0  0  0  0  0  3  0  0  0  0  0  0
  186.8110  177.3940  135.7050 S   0  0  0  0  0  0  0  0  0  0  0  0
  188.3850  177.5580  141.4380 C   0  0  0  0  0  0  0  0  0  0  0  0
  191.1140  176.4710  139.1040 N   0  0  0  0  0  0  0  0  0  0  0  0
  186.9340  177.7610  143.8310 C   0  0  0  0  0  0  0  0  0  0  0  0
  188.8170  176.8770  142.5930 C   0  0  0  0  0  0  0  0  0  0  0  0
  189.4110  176.6140  137.2780 C   0  0  1  0  0  3  0  0  0  0  0  0
  189.1290  177.4390  140.2550 C   0  0  0  0  0  0  0  0  0  0  0  0
  188.7590  179.0420  136.7620 C   0  0  0  0  0  2  0  0  0  0  0  0
  189.9440  176.1250  142.5460 N   0  0  0  0  0  0  0  0  0  0  0  0
  186.8210  176.4710  137.2670 C   0  0  0  0  0  2  0  0  0  0  0  0
  188.1510  175.7620  137.5070 C   0  0  0  0  0  2  0  0  0  0  0  0
  189.3490  178.0640  137.7810 C   0  0  1  0  0  3  0  0  0  0  0  0
  192.5440  176.7280  139.2080 C   0  0  0  0  0  2  0  0  0  0  0  0
  193.8990  175.6770  137.4010 C   0  0  0  0  0  3  0  0  0  0  0  0
  193.1760  176.7100  137.8490 C   0  0  0  0  0  3  0  0  0  0  0  0
  194.1580  174.4390  138.2040 C   0  0  0  0  0  2  0  0  0  0  0  0
  195.6120  174.3850  138.6350 C   0  0  0  0  0  2  0  0  0  0  0  0
  195.7870  175.1630  139.7780 O   0  0  0  0  0  1  0  0  0  0  0  0
  1 12  1  0  0  0  0
  2  6  1  0  0  0  0
  3 16  1  0  0  0  0
  4 13  1  0  0  0  0
  6 18  2  0  0  0  0
  7  9  1  0  0  0  0
  8 17  1  0  0  0  0
  9 13  2  0  0  0  0
 10  8  1  0  0  0  0
 10 19  1  0  0  0  0
 11  7  2  0  0  0  0
 11 14  1  0  0  0  0
 12 22  1  0  0  0  0
 12  2  1  0  0  0  0
 13  5  1  0  0  0  0
 14  4  2  0  0  0  0
 15 20  1  1  0  0  0
 15 21  1  0  0  0  0
 15  1  1  0  0  0  0
 16  2  2  0  0  0  0
 16 11  1  0  0  0  0
 18 14  1  0  0  0  0
 19 20  1  0  0  0  0
 21 17  1  6  0  0  0
 21  3  1  0  0  0  0
 23 24  2  0  0  0  0
 23 25  1  0  0  0  0
 24 22  1  0  0  0  0
 25 26  1  0  0  0  0
 26 27  1  0  0  0  0
M  END
>  <MODEL>
5

>  <REMARK>
 VINA RESULT:      -7.5      4.256      7.866
  Name = 
  4 active torsions:
  status: ('A' for Active; 'I' for Inactive)
    1  A    between atoms: C_7  and  C_11
    2  A    between atoms: C_7  and  C_25
    3  A    between atoms: C_9  and  N_15
    4  A    between atoms: C_9  and  C_27
                            x       y       z     vdW  Elec       q    Type
                         _______ _______ _______ _____ _____    ______ ____

>  <TORSDO>
F 4

$$$$
=
 OpenBabel10262420053D

 27 30  0  0  1  0  0  0  0  0999 V2000
  187.7240  177.3580  142.6550 C   0  0  0  0  0  2  0  0  0  0  0  0
  188.6940  177.5480  140.3190 C   0  0  0  0  0  0  0  0  0  0  0  0
  190.7160  178.0610  141.6970 N   0  0  0  0  0  2  0  0  0  0  0  0
  191.0930  176.2560  137.1760 C   0  0  0  0  0  3  0  0  0  0  0  0
  193.3230  175.7780  136.1570 C   0  0  0  0  0  1  0  0  0  0  0  0
  188.1790  177.1270  139.1310 N   0  0  0  0  0  0  0  0  0  0  0  0
  192.3070  177.1280  139.5420 C   0  0  0  0  0  3  0  0  0  0  0  0
  192.0450  178.1330  144.3810 C   0  0  0  0  0  2  0  0  0  0  0  0
  193.0920  176.6840  138.4740 C   0  0  0  0  0  3  0  0  0  0  0  0
  191.4350  176.7180  145.3450 S   0  0  0  0  0  0  0  0  0  0  0  0
  190.9090  177.1380  139.4360 C   0  0  0  0  0  0  0  0  0  0  0  0
  187.7960  178.0060  141.3430 N   0  0  0  0  0  0  0  0  0  0  0  0
  192.4850  176.2490  137.2920 C   0  0  0  0  0  0  0  0  0  0  0  0
  190.3050  176.6980  138.2420 C   0  0  0  0  0  0  0  0  0  0  0  0
  189.0550  177.3630  143.4060 C   0  0  1  0  0  3  0  0  0  0  0  0
  190.0980  177.5770  140.4920 C   0  0  0  0  0  0  0  0  0  0  0  0
  190.9030  179.0520  143.9680 C   0  0  0  0  0  2  0  0  0  0  0  0
  188.9540  176.7120  138.1300 N   0  0  0  0  0  0  0  0  0  0  0  0
  191.0850  175.8020  143.8190 C   0  0  0  0  0  2  0  0  0  0  0  0
  189.6270  175.9350  143.3910 C   0  0  0  0  0  2  0  0  0  0  0  0
  189.9860  178.4700  142.8900 C   0  0  1  0  0  3  0  0  0  0  0  0
  186.7880  179.0030  141.0150 C   0  0  0  0  0  2  0  0  0  0  0  0
  184.3810  178.5420  141.4610 C   0  0  0  0  0  3  0  0  0  0  0  0
  185.5990  178.8570  141.9150 C   0  0  0  0  0  3  0  0  0  0  0  0
  184.0740  178.3080  140.0130 C   0  0  0  0  0  2  0  0  0  0  0  0
  183.2960  179.4800  139.4440 C   0  0  0  0  0  2  0  0  0  0  0  0
  184.1810  180.4980  139.0930 O   0  0  0  0  0  1  0  0  0  0  0  0
  2 16  1  0  0  0  0
  2 12  1  0  0  0  0
  3 21  1  0  0  0  0
  4 13  2  0  0  0  0
  4 14  1  0  0  0  0
  5 13  1  0  0  0  0
  6  2  2  0  0  0  0
  8 10  1  0  0  0  0
  9  7  2  0  0  0  0
 11  7  1  0  0  0  0
 11 16  2  0  0  0  0
 12  1  1  0  0  0  0
 13  9  1  0  0  0  0
 14 11  1  0  0  0  0
 15  1  1  6  0  0  0
 16  3  1  0  0  0  0
 17  8  1  0  0  0  0
 18 14  2  0  0  0  0
 18  6  1  0  0  0  0
 19 10  1  0  0  0  0
 20 15  1  0  0  0  0
 20 19  1  0  0  0  0
 21 15  1  0  0  0  0
 21 17  1  1  0  0  0
 22 12  1  0  0  0  0
 22 24  1  0  0  0  0
 23 24  2  0  0  0  0
 25 23  1  0  0  0  0
 26 25  1  0  0  0  0
 27 26  1  0  0  0  0
M  END
>  <MODEL>
6

>  <REMARK>
 VINA RESULT:      -7.4      3.306      4.477
  Name = 
  4 active torsions:
  status: ('A' for Active; 'I' for Inactive)
    1  A    between atoms: C_7  and  C_11
    2  A    between atoms: C_7  and  C_25
    3  A    between atoms: C_9  and  N_15
    4  A    between atoms: C_9  and  C_27
                            x       y       z     vdW  Elec       q    Type
                         _______ _______ _______ _____ _____    ______ ____

>  <TORSDO>
F 4

$$$$
=
 OpenBabel10262420053D

 27 30  0  0  1  0  0  0  0  0999 V2000
  185.9900  177.7020  137.8070 C   0  0  0  0  0  2  0  0  0  0  0  0
  187.0710  178.1800  140.0510 C   0  0  0  0  0  0  0  0  0  0  0  0
  184.8410  179.2620  140.3780 N   0  0  0  0  0  2  0  0  0  0  0  0
  187.4890  177.6690  144.1580 C   0  0  0  0  0  3  0  0  0  0  0  0
  186.6500  177.8770  146.5010 C   0  0  0  0  0  1  0  0  0  0  0  0
  188.1840  177.6310  140.6100 N   0  0  0  0  0  0  0  0  0  0  0  0
  185.1530  178.8500  143.1670 C   0  0  0  0  0  3  0  0  0  0  0  0
  182.0380  179.7110  139.4180 C   0  0  0  0  0  2  0  0  0  0  0  0
  185.3140  178.6640  144.5430 C   0  0  0  0  0  3  0  0  0  0  0  0
  181.4620  178.1750  138.6360 S   0  0  0  0  0  0  0  0  0  0  0  0
  186.1580  178.4470  142.2760 C   0  0  0  0  0  0  0  0  0  0  0  0
  187.0200  178.3480  138.6250 N   0  0  0  0  0  0  0  0  0  0  0  0
  186.4810  178.0730  145.0380 C   0  0  0  0  0  0  0  0  0  0  0  0
  187.3310  177.8540  142.7820 C   0  0  0  0  0  0  0  0  0  0  0  0
  184.5680  178.0960  138.2020 C   0  0  1  0  0  3  0  0  0  0  0  0
  186.0220  178.6220  140.8910 C   0  0  0  0  0  0  0  0  0  0  0  0
  183.2780  180.2530  138.7190 C   0  0  0  0  0  2  0  0  0  0  0  0
  188.3100  177.4680  141.9270 N   0  0  0  0  0  0  0  0  0  0  0  0
  182.6100  177.2030  139.6500 C   0  0  0  0  0  2  0  0  0  0  0  0
  183.9120  176.9010  138.9140 C   0  0  0  0  0  2  0  0  0  0  0  0
  184.5470  179.4310  138.9600 C   0  0  1  0  0  3  0  0  0  0  0  0
  188.1260  179.0040  137.9430 C   0  0  0  0  0  2  0  0  0  0  0  0
  189.3470  177.4630  136.4140 C   0  0  0  0  0  3  0  0  0  0  0  0
  188.3740  178.3580  136.6140 C   0  0  0  0  0  3  0  0  0  0  0  0
  190.2930  177.0170  137.4870 C   0  0  0  0  0  2  0  0  0  0  0  0
  189.9230  175.6270  137.9720 C   0  0  0  0  0  2  0  0  0  0  0  0
  191.0790  174.9420  138.3420 O   0  0  0  0  0  1  0  0  0  0  0  0
  1 12  1  0  0  0  0
  2  6  2  0  0  0  0
  2 16  1  0  0  0  0
  3 16  1  0  0  0  0
  4 13  2  0  0  0  0
  6 18  1  0  0  0  0
  7  9  2  0  0  0  0
  9 13  1  0  0  0  0
 10  8  1  0  0  0  0
 10 19  1  0  0  0  0
 11 14  1  0  0  0  0
 11  7  1  0  0  0  0
 12  2  1  0  0  0  0
 13  5  1  0  0  0  0
 14  4  1  0  0  0  0
 15  1  1  1  0  0  0
 15 20  1  0  0  0  0
 15 21  1  0  0  0  0
 16 11  2  0  0  0  0
 17  8  1  0  0  0  0
 18 14  2  0  0  0  0
 20 19  1  0  0  0  0
 21 17  1  1  0  0  0
 21  3  1  0  0  0  0
 22 12  1  0  0  0  0
 23 24  2  0  0  0  0
 23 25  1  0  0  0  0
 24 22  1  0  0  0  0
 25 26  1  0  0  0  0
 26 27  1  0  0  0  0
M  END
>  <MODEL>
7

>  <REMARK>
 VINA RESULT:      -7.2      3.673      7.658
  Name = 
  4 active torsions:
  status: ('A' for Active; 'I' for Inactive)
    1  A    between atoms: C_7  and  C_11
    2  A    between atoms: C_7  and  C_25
    3  A    between atoms: C_9  and  N_15
    4  A    between atoms: C_9  and  C_27
                            x       y       z     vdW  Elec       q    Type
                         _______ _______ _______ _____ _____    ______ ____

>  <TORSDO>
F 4

$$$$
=
 OpenBabel10262420053D

 27 30  0  0  1  0  0  0  0  0999 V2000
  190.5510  177.8820  140.5310 C   0  0  0  0  0  2  0  0  0  0  0  0
  188.0180  177.8540  140.6530 C   0  0  0  0  0  0  0  0  0  0  0  0
  188.5940  176.8420  142.8660 N   0  0  0  0  0  2  0  0  0  0  0  0
  184.3540  179.1520  142.1350 C   0  0  0  0  0  3  0  0  0  0  0  0
  182.6840  179.3960  143.9750 C   0  0  0  0  0  1  0  0  0  0  0  0
  187.1070  178.5070  139.8810 N   0  0  0  0  0  0  0  0  0  0  0  0
  186.1040  177.7870  143.8420 C   0  0  0  0  0  3  0  0  0  0  0  0
  190.6630  176.1990  144.9360 C   0  0  0  0  0  2  0  0  0  0  0  0
  184.8690  178.2380  144.3180 C   0  0  0  0  0  3  0  0  0  0  0  0
  191.8760  177.5510  144.9530 S   0  0  0  0  0  0  0  0  0  0  0  0
  186.4740  178.0170  142.5090 C   0  0  0  0  0  0  0  0  0  0  0  0
  189.2480  177.4130  140.0550 N   0  0  0  0  0  0  0  0  0  0  0  0
  183.9960  178.9190  143.4660 C   0  0  0  0  0  0  0  0  0  0  0  0
  185.5880  178.7030  141.6560 C   0  0  0  0  0  0  0  0  0  0  0  0
  190.8080  177.5640  142.0030 C   0  0  1  0  0  3  0  0  0  0  0  0
  187.7060  177.5760  142.0050 C   0  0  0  0  0  0  0  0  0  0  0  0
  190.5920  175.5390  143.5650 C   0  0  0  0  0  2  0  0  0  0  0  0
  185.9360  178.9220  140.3640 N   0  0  0  0  0  0  0  0  0  0  0  0
  190.6280  178.7080  144.3240 C   0  0  0  0  0  2  0  0  0  0  0  0
  190.7070  178.8700  142.8080 C   0  0  0  0  0  2  0  0  0  0  0  0
  189.9300  176.4000  142.4860 C   0  0  1  0  0  3  0  0  0  0  0  0
  189.2050  176.6440  138.8200 C   0  0  0  0  0  2  0  0  0  0  0  0
  191.1380  176.7560  137.2510 C   0  0  0  0  0  3  0  0  0  0  0  0
  190.0330  177.3110  137.7630 C   0  0  0  0  0  3  0  0  0  0  0  0
  191.6670  175.4210  137.6800 C   0  0  0  0  0  2  0  0  0  0  0  0
  193.1780  175.4690  137.8050 C   0  0  0  0  0  2  0  0  0  0  0  0
  193.5740  176.7580  138.1590 O   0  0  0  0  0  1  0  0  0  0  0  0
  2 16  1  0  0  0  0
  4 13  2  0  0  0  0
  6 18  1  0  0  0  0
  6  2  2  0  0  0  0
  7  9  2  0  0  0  0
  8 10  1  0  0  0  0
 11  7  1  0  0  0  0
 12  1  1  0  0  0  0
 12  2  1  0  0  0  0
 13  5  1  0  0  0  0
 13  9  1  0  0  0  0
 14  4  1  0  0  0  0
 14 11  1  0  0  0  0
 15  1  1  6  0  0  0
 15 21  1  0  0  0  0
 15 20  1  0  0  0  0
 16 11  2  0  0  0  0
 16  3  1  0  0  0  0
 17  8  1  0  0  0  0
 18 14  2  0  0  0  0
 19 10  1  0  0  0  0
 20 19  1  0  0  0  0
 21  3  1  0  0  0  0
 21 17  1  1  0  0  0
 22 12  1  0  0  0  0
 23 25  1  0  0  0  0
 23 24  2  0  0  0  0
 24 22  1  0  0  0  0
 25 26  1  0  0  0  0
 26 27  1  0  0  0  0
M  END
>  <MODEL>
8

>  <REMARK>
 VINA RESULT:      -7.1      3.102      6.300
  Name = 
  4 active torsions:
  status: ('A' for Active; 'I' for Inactive)
    1  A    between atoms: C_7  and  C_11
    2  A    between atoms: C_7  and  C_25
    3  A    between atoms: C_9  and  N_15
    4  A    between atoms: C_9  and  C_27
                            x       y       z     vdW  Elec       q    Type
                         _______ _______ _______ _____ _____    ______ ____

>  <TORSDO>
F 4

$$$$
=
 OpenBabel10262420053D

 27 30  0  0  1  0  0  0  0  0999 V2000
  190.8070  177.8770  140.6500 C   0  0  0  0  0  2  0  0  0  0  0  0
  188.2720  177.8620  140.7220 C   0  0  0  0  0  0  0  0  0  0  0  0
  188.7980  176.8070  142.9270 N   0  0  0  0  0  2  0  0  0  0  0  0
  184.5880  179.1560  142.1570 C   0  0  0  0  0  3  0  0  0  0  0  0
  182.8830  179.3780  143.9690 C   0  0  0  0  0  1  0  0  0  0  0  0
  187.3790  178.5350  139.9450 N   0  0  0  0  0  0  0  0  0  0  0  0
  186.2960  177.7500  143.8720 C   0  0  0  0  0  3  0  0  0  0  0  0
  190.8230  176.1140  145.0250 C   0  0  0  0  0  2  0  0  0  0  0  0
  185.0550  178.1990  144.3330 C   0  0  0  0  0  3  0  0  0  0  0  0
  192.0440  177.4580  145.0900 S   0  0  0  0  0  0  0  0  0  0  0  0
  186.6930  178.0010  142.5510 C   0  0  0  0  0  0  0  0  0  0  0  0
  189.5100  177.4250  140.1400 N   0  0  0  0  0  0  0  0  0  0  0  0
  184.2020  178.9020  143.4760 C   0  0  0  0  0  0  0  0  0  0  0  0
  185.8280  178.7090  141.6940 C   0  0  0  0  0  0  0  0  0  0  0  0
  191.0330  177.5300  142.1200 C   0  0  1  0  0  3  0  0  0  0  0  0
  187.9320  177.5620  142.0630 C   0  0  0  0  0  0  0  0  0  0  0  0
  190.7750  175.4790  143.6410 C   0  0  0  0  0  2  0  0  0  0  0  0
  186.2020  178.9490  140.4130 N   0  0  0  0  0  0  0  0  0  0  0  0
  190.8150  178.6340  144.4580 C   0  0  0  0  0  2  0  0  0  0  0  0
  190.9240  178.8220  142.9470 C   0  0  0  0  0  2  0  0  0  0  0  0
  190.1390  176.3630  142.5650 C   0  0  1  0  0  3  0  0  0  0  0  0
  189.4870  176.6780  138.8910 C   0  0  0  0  0  2  0  0  0  0  0  0
  189.4260  177.7130  136.6250 C   0  0  0  0  0  3  0  0  0  0  0  0
  190.0660  177.5030  137.7810 C   0  0  0  0  0  3  0  0  0  0  0  0
  188.0740  177.1460  136.3150 C   0  0  0  0  0  2  0  0  0  0  0  0
  187.0390  178.2540  136.2510 C   0  0  0  0  0  2  0  0  0  0  0  0
  187.5550  179.4050  136.8420 O   0  0  0  0  0  1  0  0  0  0  0  0
  2 16  1  0  0  0  0
  4 13  2  0  0  0  0
  6 18  1  0  0  0  0
  6  2  2  0  0  0  0
  7  9  2  0  0  0  0
  8 10  1  0  0  0  0
 11  7  1  0  0  0  0
 12  1  1  0  0  0  0
 12  2  1  0  0  0  0
 13  5  1  0  0  0  0
 13  9  1  0  0  0  0
 14  4  1  0  0  0  0
 14 11  1  0  0  0  0
 15  1  1  6  0  0  0
 15 21  1  0  0  0  0
 15 20  1  0  0  0  0
 16 11  2  0  0  0  0
 16  3  1  0  0  0  0
 17  8  1  0  0  0  0
 18 14  2  0  0  0  0
 19 10  1  0  0  0  0
 20 19  1  0  0  0  0
 21  3  1  0  0  0  0
 21 17  1  1  0  0  0
 22 12  1  0  0  0  0
 23 24  2  0  0  0  0
 24 22  1  0  0  0  0
 25 23  1  0  0  0  0
 26 25  1  0  0  0  0
 26 27  1  0  0  0  0
M  END
>  <MODEL>
9

>  <REMARK>
 VINA RESULT:      -7.1      2.866      6.196
  Name = 
  4 active torsions:
  status: ('A' for Active; 'I' for Inactive)
    1  A    between atoms: C_7  and  C_11
    2  A    between atoms: C_7  and  C_25
    3  A    between atoms: C_9  and  N_15
    4  A    between atoms: C_9  and  C_27
                            x       y       z     vdW  Elec       q    Type
                         _______ _______ _______ _____ _____    ______ ____

>  <TORSDO>
F 4

$$$$
