=
 OpenBabel10262421263D

 32 36  0  0  1  0  0  0  0  0999 V2000
  181.3980  179.6070  143.8960 C   0  0  1  0  0  3  0  0  0  0  0  0
  185.4960  178.8460  141.3730 C   0  0  0  0  0  2  0  0  0  0  0  0
  186.2890  177.8500  147.3360 C   0  0  0  0  0  2  0  0  0  0  0  0
  187.7560  177.7230  146.9020 C   0  0  0  0  0  2  0  0  0  0  0  0
  183.4320  177.6550  141.9060 O   0  0  0  0  0  0  0  0  0  0  0  0
  183.9320  179.9200  143.8750 C   0  0  0  0  0  2  0  0  0  0  0  0
  181.9770  178.2530  144.2970 C   0  0  0  0  0  2  0  0  0  0  0  0
  185.5340  178.8570  146.4570 C   0  0  0  0  0  2  0  0  0  0  0  0
  185.1700  179.0790  143.8970 C   0  0  0  0  0  0  0  0  0  0  0  0
  185.8240  178.5970  145.0120 C   0  0  0  0  0  0  0  0  0  0  0  0
  186.9430  177.8830  143.2090 N   0  0  0  0  0  0  0  0  0  0  0  0
  182.7370  179.1430  143.3350 C   0  0  1  0  0  0  0  0  0  0  0  0
  182.7220  178.7660  141.9770 O   0  0  0  0  0  0  0  0  0  0  0  0
  187.8670  177.1740  145.4720 C   0  0  0  0  0  2  0  0  0  0  0  0
  186.9210  177.8990  144.5600 C   0  0  0  0  0  0  0  0  0  0  0  0
  184.4010  177.8780  140.9140 C   0  0  0  0  0  2  0  0  0  0  0  0
  185.8840  178.6160  142.8010 C   0  0  0  0  0  0  0  0  0  0  0  0
  178.9310  179.3780  143.6980 C   0  0  0  0  0  1  0  0  0  0  0  0
  180.2400  179.3970  142.9280 C   0  0  1  0  0  3  0  0  0  0  0  0
  179.8570  180.2660  140.5850 C   0  0  0  0  0  0  0  0  0  0  0  0
  180.2210  180.4760  141.9500 N   0  0  0  0  0  2  0  0  0  0  0  0
  179.5320  179.1220  140.1740 O   0  0  0  0  0  0  0  0  0  0  0  0
  179.8690  181.6430  139.4490 S   0  0  0  0  0  1  0  0  0  0  0  0
  187.9350  177.2280  142.3630 C   0  0  0  0  0  2  0  0  0  0  0  0
  190.1550  176.3170  140.9320 O   0  0  0  0  0  1  0  0  0  0  0  0
  191.8130  177.1200  142.4830 C   0  0  2  0  0  3  0  0  0  0  0  0
  189.3350  177.4250  142.9320 C   0  0  2  0  0  3  0  0  0  0  0  0
  190.6970  178.9610  143.8550 C   0  0  0  0  0  2  0  0  0  0  0  0
  191.8960  177.9920  143.7390 C   0  0  0  0  0  2  0  0  0  0  0  0
  192.1790  177.8800  141.3840 F   0  0  0  0  0  0  0  0  0  0  0  0
  189.7280  178.7680  142.8470 O   0  0  0  0  0  0  0  0  0  0  0  0
  190.4050  176.5200  142.2940 C   0  0  1  0  0  3  0  0  0  0  0  0
  1 19  1  6  0  0  0
  1  7  1  0  0  0  0
  2 17  1  0  0  0  0
  4  3  1  0  0  0  0
  5 13  1  0  0  0  0
  6  9  1  0  0  0  0
  8  3  1  0  0  0  0
  9 10  1  0  0  0  0
 10  8  1  0  0  0  0
 11 15  1  0  0  0  0
 12  6  1  1  0  0  0
 12  1  1  0  0  0  0
 12  7  1  0  0  0  0
 13 12  1  0  0  0  0
 14  4  1  0  0  0  0
 15 10  2  0  0  0  0
 15 14  1  0  0  0  0
 16  2  1  0  0  0  0
 16  5  1  0  0  0  0
 17 11  1  0  0  0  0
 17  9  2  0  0  0  0
 19 18  1  1  0  0  0
 20 21  1  0  0  0  0
 21 19  1  0  0  0  0
 22 20  2  0  0  0  0
 23 20  1  0  0  0  0
 24 11  1  0  0  0  0
 26 30  1  6  0  0  0
 26 29  1  0  0  0  0
 27 24  1  6  0  0  0
 29 28  1  0  0  0  0
 31 27  1  0  0  0  0
 31 28  1  0  0  0  0
 32 25  1  6  0  0  0
 32 26  1  0  0  0  0
 32 27  1  0  0  0  0
M  END
>  <MODEL>
1

>  <REMARK>
 VINA RESULT:      -8.5      0.000      0.000
  Name = 
  4 active torsions:
  status: ('A' for Active; 'I' for Inactive)
    1  A    between atoms: C_2  and  C_24
    2  A    between atoms: N_10  and  C_24
    3  A    between atoms: C_11  and  C_27
    4  A    between atoms: N_16  and  C_27
                            x       y       z     vdW  Elec       q    Type
                         _______ _______ _______ _____ _____    ______ ____

>  <TORSDO>
F 4

$$$$
=
 OpenBabel10262421263D

 32 36  0  0  1  0  0  0  0  0999 V2000
  187.7380  177.4020  146.5740 C   0  0  1  0  0  3  0  0  0  0  0  0
  189.7000  177.2370  142.1180 C   0  0  0  0  0  2  0  0  0  0  0  0
  183.8440  178.9300  141.9540 C   0  0  0  0  0  2  0  0  0  0  0  0
  184.0690  178.7930  140.4410 C   0  0  0  0  0  2  0  0  0  0  0  0
  189.6210  178.7630  144.0230 O   0  0  0  0  0  0  0  0  0  0  0  0
  187.3470  176.7440  144.1380 C   0  0  0  0  0  2  0  0  0  0  0  0
  187.4180  178.7070  145.8480 C   0  0  0  0  0  2  0  0  0  0  0  0
  184.7000  177.9240  142.7360 C   0  0  0  0  0  2  0  0  0  0  0  0
  187.2420  177.4030  142.7980 C   0  0  0  0  0  0  0  0  0  0  0  0
  186.1070  177.9400  142.2260 C   0  0  0  0  0  0  0  0  0  0  0  0
  187.7960  178.2380  140.7870 N   0  0  0  0  0  0  0  0  0  0  0  0
  188.1450  177.5970  145.1180 C   0  0  1  0  0  0  0  0  0  0  0  0
  189.5260  177.7800  144.9000 O   0  0  0  0  0  0  0  0  0  0  0  0
  185.5210  179.1180  140.0630 C   0  0  0  0  0  2  0  0  0  0  0  0
  186.4710  178.4120  140.9850 C   0  0  0  0  0  0  0  0  0  0  0  0
  190.4260  178.2740  142.9800 C   0  0  0  0  0  2  0  0  0  0  0  0
  188.2670  177.6070  141.8850 C   0  0  0  0  0  0  0  0  0  0  0  0
  188.3370  177.7160  148.9660 C   0  0  0  0  0  1  0  0  0  0  0  0
  188.8840  177.6340  147.5510 C   0  0  1  0  0  3  0  0  0  0  0  0
  191.2280  176.7020  147.7250 C   0  0  0  0  0  0  0  0  0  0  0  0
  189.8360  176.5360  147.4540 N   0  0  0  0  0  2  0  0  0  0  0  0
  191.6870  177.8240  148.0670 O   0  0  0  0  0  0  0  0  0  0  0  0
  192.3280  175.3050  147.5730 S   0  0  0  0  0  1  0  0  0  0  0  0
  188.5580  178.6270  139.6050 C   0  0  0  0  0  2  0  0  0  0  0  0
  187.7980  179.2260  136.9840 O   0  0  0  0  0  1  0  0  0  0  0  0
  188.1180  177.0070  136.1050 C   0  0  2  0  0  3  0  0  0  0  0  0
  188.5170  177.5210  138.5570 C   0  0  2  0  0  3  0  0  0  0  0  0
  189.7090  175.8110  137.7050 C   0  0  0  0  0  2  0  0  0  0  0  0
  188.6940  175.6590  136.5480 C   0  0  0  0  0  2  0  0  0  0  0  0
  189.0630  177.6670  135.3360 F   0  0  0  0  0  0  0  0  0  0  0  0
  189.8130  177.1360  138.1810 O   0  0  0  0  0  0  0  0  0  0  0  0
  187.6860  177.8690  137.3080 C   0  0  1  0  0  3  0  0  0  0  0  0
  1 19  1  1  0  0  0
  2 16  1  0  0  0  0
  3  8  1  0  0  0  0
  4  3  1  0  0  0  0
  5 13  1  0  0  0  0
  7  1  1  0  0  0  0
  9  6  1  0  0  0  0
 10  8  1  0  0  0  0
 10  9  1  0  0  0  0
 11 15  1  0  0  0  0
 11 17  1  0  0  0  0
 12  6  1  6  0  0  0
 12  7  1  0  0  0  0
 12  1  1  0  0  0  0
 13 12  1  0  0  0  0
 14  4  1  0  0  0  0
 14 15  1  0  0  0  0
 15 10  2  0  0  0  0
 16  5  1  0  0  0  0
 17  2  1  0  0  0  0
 17  9  2  0  0  0  0
 19 18  1  1  0  0  0
 20 22  2  0  0  0  0
 21 19  1  0  0  0  0
 21 20  1  0  0  0  0
 23 20  1  0  0  0  0
 24 11  1  0  0  0  0
 26 30  1  1  0  0  0
 26 29  1  0  0  0  0
 26 32  1  0  0  0  0
 27 24  1  1  0  0  0
 28 31  1  0  0  0  0
 29 28  1  0  0  0  0
 31 27  1  0  0  0  0
 32 25  1  6  0  0  0
 32 27  1  0  0  0  0
M  END
>  <MODEL>
2

>  <REMARK>
 VINA RESULT:      -8.3      4.605      7.604
  Name = 
  4 active torsions:
  status: ('A' for Active; 'I' for Inactive)
    1  A    between atoms: C_2  and  C_24
    2  A    between atoms: N_10  and  C_24
    3  A    between atoms: C_11  and  C_27
    4  A    between atoms: N_16  and  C_27
                            x       y       z     vdW  Elec       q    Type
                         _______ _______ _______ _____ _____    ______ ____

>  <TORSDO>
F 4

$$$$
=
 OpenBabel10262421263D

 32 36  0  0  1  0  0  0  0  0999 V2000
  190.1650  176.8860  141.9010 C   0  0  1  0  0  3  0  0  0  0  0  0
  185.4910  177.9950  141.0900 C   0  0  0  0  0  2  0  0  0  0  0  0
  186.8820  178.2450  147.0220 C   0  0  0  0  0  2  0  0  0  0  0  0
  185.3650  178.4390  147.1500 C   0  0  0  0  0  2  0  0  0  0  0  0
  187.6710  179.0910  140.9930 O   0  0  0  0  0  0  0  0  0  0  0  0
  187.7690  176.6020  142.7400 C   0  0  0  0  0  2  0  0  0  0  0  0
  189.8340  178.1850  142.6320 C   0  0  0  0  0  2  0  0  0  0  0  0
  187.2280  177.3480  145.8250 C   0  0  0  0  0  2  0  0  0  0  0  0
  186.6640  177.4460  143.2930 C   0  0  0  0  0  0  0  0  0  0  0  0
  186.4660  177.7900  144.6140 C   0  0  0  0  0  0  0  0  0  0  0  0
  184.8280  178.7350  143.4160 N   0  0  0  0  0  0  0  0  0  0  0  0
  188.7410  177.4300  141.9060 C   0  0  1  0  0  0  0  0  0  0  0  0
  188.3010  177.9730  140.6820 O   0  0  0  0  0  0  0  0  0  0  0  0
  184.7900  179.1630  145.9240 C   0  0  0  0  0  2  0  0  0  0  0  0
  185.3190  178.5500  144.6610 C   0  0  0  0  0  0  0  0  0  0  0  0
  186.4060  179.0030  140.3880 C   0  0  0  0  0  2  0  0  0  0  0  0
  185.6370  178.0480  142.5790 C   0  0  0  0  0  0  0  0  0  0  0  0
  192.3960  177.3960  140.9310 C   0  0  0  0  0  1  0  0  0  0  0  0
  190.9220  177.2050  140.6180 C   0  0  1  0  0  3  0  0  0  0  0  0
  190.3960  176.3260  138.3070 C   0  0  0  0  0  0  0  0  0  0  0  0
  190.7570  176.1100  139.6710 N   0  0  0  0  0  2  0  0  0  0  0  0
  190.2080  177.4900  137.8660 O   0  0  0  0  0  0  0  0  0  0  0  0
  190.2070  174.9260  137.2140 S   0  0  0  0  0  1  0  0  0  0  0  0
  183.6400  179.5000  143.0540 C   0  0  0  0  0  2  0  0  0  0  0  0
  180.9080  180.0660  143.2060 O   0  0  0  0  0  1  0  0  0  0  0  0
  180.1920  178.2990  141.7340 C   0  0  2  0  0  3  0  0  0  0  0  0
  182.6410  178.6160  142.3160 C   0  0  2  0  0  3  0  0  0  0  0  0
  182.2210  177.6610  140.3210 C   0  0  0  0  0  2  0  0  0  0  0  0
  180.8060  177.2580  140.7940 C   0  0  0  0  0  2  0  0  0  0  0  0
  179.7540  179.3780  140.9830 F   0  0  0  0  0  0  0  0  0  0  0  0
  182.6950  178.8420  140.9340 O   0  0  0  0  0  0  0  0  0  0  0  0
  181.1910  178.7520  142.8180 C   0  0  1  0  0  3  0  0  0  0  0  0
  1 19  1  6  0  0  0
  1 12  1  0  0  0  0
  1  7  1  0  0  0  0
  2 17  1  0  0  0  0
  3  4  1  0  0  0  0
  6  9  1  0  0  0  0
  8  3  1  0  0  0  0
  9 10  1  0  0  0  0
 10 15  2  0  0  0  0
 10  8  1  0  0  0  0
 11 15  1  0  0  0  0
 12  7  1  1  0  0  0
 12  6  1  0  0  0  0
 13  5  1  0  0  0  0
 13 12  1  0  0  0  0
 14  4  1  0  0  0  0
 15 14  1  0  0  0  0
 16  5  1  0  0  0  0
 16  2  1  0  0  0  0
 17  9  2  0  0  0  0
 17 11  1  0  0  0  0
 19 18  1  1  0  0  0
 20 21  1  0  0  0  0
 21 19  1  0  0  0  0
 22 20  2  0  0  0  0
 23 20  1  0  0  0  0
 24 11  1  0  0  0  0
 26 30  1  6  0  0  0
 26 32  1  0  0  0  0
 27 32  1  0  0  0  0
 27 24  1  1  0  0  0
 28 29  1  0  0  0  0
 28 31  1  0  0  0  0
 29 26  1  0  0  0  0
 31 27  1  0  0  0  0
 32 25  1  6  0  0  0
M  END
>  <MODEL>
3

>  <REMARK>
 VINA RESULT:      -7.5      3.690      7.938
  Name = 
  4 active torsions:
  status: ('A' for Active; 'I' for Inactive)
    1  A    between atoms: C_2  and  C_24
    2  A    between atoms: N_10  and  C_24
    3  A    between atoms: C_11  and  C_27
    4  A    between atoms: N_16  and  C_27
                            x       y       z     vdW  Elec       q    Type
                         _______ _______ _______ _____ _____    ______ ____

>  <TORSDO>
F 4

$$$$
=
 OpenBabel10262421263D

 32 36  0  0  1  0  0  0  0  0999 V2000
  189.9420  177.2470  143.8120 C   0  0  1  0  0  3  0  0  0  0  0  0
  185.8520  179.3000  142.1400 C   0  0  0  0  0  2  0  0  0  0  0  0
  189.2390  176.9940  137.6240 C   0  0  0  0  0  2  0  0  0  0  0  0
  188.1860  177.7040  136.7600 C   0  0  0  0  0  2  0  0  0  0  0  0
  186.5580  177.1880  143.1430 O   0  0  0  0  0  0  0  0  0  0  0  0
  188.9270  178.6900  141.9650 C   0  0  0  0  0  2  0  0  0  0  0  0
  189.2530  176.2680  142.8640 C   0  0  0  0  0  2  0  0  0  0  0  0
  189.4840  177.7520  138.9360 C   0  0  0  0  0  2  0  0  0  0  0  0
  187.9330  178.5590  140.8540 C   0  0  0  0  0  0  0  0  0  0  0  0
  188.1780  178.1180  139.5700 C   0  0  0  0  0  0  0  0  0  0  0  0
  185.9980  178.6030  139.7130 N   0  0  0  0  0  0  0  0  0  0  0  0
  188.6820  177.6570  143.0590 C   0  0  1  0  0  0  0  0  0  0  0  0
  187.5180  177.7580  143.8480 O   0  0  0  0  0  0  0  0  0  0  0  0
  186.8230  177.7440  137.4650 C   0  0  0  0  0  2  0  0  0  0  0  0
  186.9840  178.1880  138.8890 C   0  0  0  0  0  0  0  0  0  0  0  0
  185.5180  178.1300  143.0710 C   0  0  0  0  0  2  0  0  0  0  0  0
  186.5760  178.8470  140.9100 C   0  0  0  0  0  0  0  0  0  0  0  0
  190.9800  176.7760  146.0200 C   0  0  0  0  0  1  0  0  0  0  0  0
  189.6710  176.8350  145.2530 C   0  0  1  0  0  3  0  0  0  0  0  0
  188.1090  177.5430  147.1100 C   0  0  0  0  0  0  0  0  0  0  0  0
  188.7780  177.8020  145.8760 N   0  0  0  0  0  2  0  0  0  0  0  0
  188.2740  176.4510  147.7150 O   0  0  0  0  0  0  0  0  0  0  0  0
  187.0240  178.7820  147.8010 S   0  0  0  0  0  1  0  0  0  0  0  0
  184.5920  178.7830  139.3670 C   0  0  0  0  0  2  0  0  0  0  0  0
  182.2120  178.0860  140.6550 O   0  0  0  0  0  1  0  0  0  0  0  0
  181.9240  175.9680  139.5450 C   0  0  2  0  0  3  0  0  0  0  0  0
  183.9390  177.4360  139.0750 C   0  0  2  0  0  3  0  0  0  0  0  0
  183.3010  176.0770  137.3980 C   0  0  0  0  0  2  0  0  0  0  0  0
  182.5490  175.1690  138.3970 C   0  0  0  0  0  2  0  0  0  0  0  0
  180.7790  176.5960  139.0830 F   0  0  0  0  0  0  0  0  0  0  0  0
  183.3490  177.4290  137.8030 O   0  0  0  0  0  0  0  0  0  0  0  0
  182.9140  176.9930  140.1360 C   0  0  1  0  0  3  0  0  0  0  0  0
  1 19  1  1  0  0  0
  2 16  1  0  0  0  0
  3  8  1  0  0  0  0
  4 14  1  0  0  0  0
  4  3  1  0  0  0  0
  5 13  1  0  0  0  0
  7 12  1  0  0  0  0
  7  1  1  0  0  0  0
  8 10  1  0  0  0  0
  9 17  2  0  0  0  0
  9  6  1  0  0  0  0
 10  9  1  0  0  0  0
 11 17  1  0  0  0  0
 12  6  1  6  0  0  0
 12  1  1  0  0  0  0
 12 13  1  0  0  0  0
 14 15  1  0  0  0  0
 15 10  2  0  0  0  0
 15 11  1  0  0  0  0
 16  5  1  0  0  0  0
 17  2  1  0  0  0  0
 19 21  1  0  0  0  0
 19 18  1  1  0  0  0
 20 22  2  0  0  0  0
 20 23  1  0  0  0  0
 21 20  1  0  0  0  0
 24 11  1  0  0  0  0
 26 30  1  6  0  0  0
 26 32  1  0  0  0  0
 27 24  1  1  0  0  0
 27 32  1  0  0  0  0
 28 31  1  0  0  0  0
 28 29  1  0  0  0  0
 29 26  1  0  0  0  0
 31 27  1  0  0  0  0
 32 25  1  6  0  0  0
M  END
>  <MODEL>
4

>  <REMARK>
 VINA RESULT:      -7.1      4.112      8.246
  Name = 
  4 active torsions:
  status: ('A' for Active; 'I' for Inactive)
    1  A    between atoms: C_2  and  C_24
    2  A    between atoms: N_10  and  C_24
    3  A    between atoms: C_11  and  C_27
    4  A    between atoms: N_16  and  C_27
                            x       y       z     vdW  Elec       q    Type
                         _______ _______ _______ _____ _____    ______ ____

>  <TORSDO>
F 4

$$$$
=
 OpenBabel10262421263D

 32 36  0  0  1  0  0  0  0  0999 V2000
  191.1900  176.3830  140.9550 C   0  0  1  0  0  3  0  0  0  0  0  0
  186.7070  177.7260  142.3080 C   0  0  0  0  0  2  0  0  0  0  0  0
  190.4400  177.1500  147.0940 C   0  0  0  0  0  2  0  0  0  0  0  0
  189.1330  177.3710  147.8690 C   0  0  0  0  0  2  0  0  0  0  0  0
  188.7340  178.7610  141.4220 O   0  0  0  0  0  0  0  0  0  0  0  0
  189.3410  176.0610  142.6870 C   0  0  0  0  0  2  0  0  0  0  0  0
  191.2990  177.5830  141.8920 C   0  0  0  0  0  2  0  0  0  0  0  0
  190.1860  176.4100  145.7740 C   0  0  0  0  0  2  0  0  0  0  0  0
  188.6360  176.8570  143.7410 C   0  0  0  0  0  0  0  0  0  0  0  0
  189.0310  177.0300  145.0510 C   0  0  0  0  0  0  0  0  0  0  0  0
  187.1280  178.1720  144.7620 N   0  0  0  0  0  0  0  0  0  0  0  0
  189.9450  176.9620  141.6160 C   0  0  1  0  0  0  0  0  0  0  0  0
  189.0850  177.6750  140.7560 O   0  0  0  0  0  0  0  0  0  0  0  0
  188.1650  178.2670  147.0830 C   0  0  0  0  0  2  0  0  0  0  0  0
  188.0720  177.8100  145.6570 C   0  0  0  0  0  0  0  0  0  0  0  0
  187.3290  178.7900  141.3990 C   0  0  0  0  0  2  0  0  0  0  0  0
  187.4600  177.5780  143.5940 C   0  0  0  0  0  0  0  0  0  0  0  0
  192.8490  176.8250  139.1570 C   0  0  0  0  0  1  0  0  0  0  0  0
  191.3730  176.8450  139.5150 C   0  0  1  0  0  3  0  0  0  0  0  0
  189.8720  176.4470  137.5200 C   0  0  0  0  0  0  0  0  0  0  0  0
  190.6370  175.9600  138.6220 N   0  0  0  0  0  2  0  0  0  0  0  0
  189.8090  177.6800  137.2740 O   0  0  0  0  0  0  0  0  0  0  0  0
  188.9930  175.2920  136.4790 S   0  0  0  0  0  1  0  0  0  0  0  0
  185.9630  179.0120  145.0170 C   0  0  0  0  0  2  0  0  0  0  0  0
  183.3000  179.1180  145.8540 O   0  0  0  0  0  1  0  0  0  0  0  0
  182.3310  178.5840  143.7150 C   0  0  2  0  0  3  0  0  0  0  0  0
  184.8460  178.6890  144.0310 C   0  0  2  0  0  3  0  0  0  0  0  0
  184.0970  179.1390  141.9570 C   0  0  0  0  0  2  0  0  0  0  0  0
  182.7700  178.4060  142.2580 C   0  0  0  0  0  2  0  0  0  0  0  0
  181.7940  179.8520  143.8690 F   0  0  0  0  0  0  0  0  0  0  0  0
  184.6810  179.7250  143.1010 O   0  0  0  0  0  0  0  0  0  0  0  0
  183.4970  178.3560  144.6970 C   0  0  1  0  0  3  0  0  0  0  0  0
  1 19  1  6  0  0  0
  1 12  1  0  0  0  0
  1  7  1  0  0  0  0
  2 17  1  0  0  0  0
  3  4  1  0  0  0  0
  6  9  1  0  0  0  0
  8  3  1  0  0  0  0
  9 10  1  0  0  0  0
 10 15  2  0  0  0  0
 10  8  1  0  0  0  0
 11 24  1  0  0  0  0
 11 15  1  0  0  0  0
 12  7  1  1  0  0  0
 12  6  1  0  0  0  0
 13  5  1  0  0  0  0
 13 12  1  0  0  0  0
 14  4  1  0  0  0  0
 15 14  1  0  0  0  0
 16  5  1  0  0  0  0
 16  2  1  0  0  0  0
 17  9  2  0  0  0  0
 17 11  1  0  0  0  0
 19 18  1  6  0  0  0
 20 21  1  0  0  0  0
 21 19  1  0  0  0  0
 22 20  2  0  0  0  0
 23 20  1  0  0  0  0
 26 30  1  6  0  0  0
 26 32  1  0  0  0  0
 27 32  1  0  0  0  0
 27 24  1  1  0  0  0
 28 29  1  0  0  0  0
 28 31  1  0  0  0  0
 29 26  1  0  0  0  0
 31 27  1  0  0  0  0
 32 25  1  1  0  0  0
M  END
>  <MODEL>
5

>  <REMARK>
 VINA RESULT:      -6.8      3.697      7.727
  Name = 
  4 active torsions:
  status: ('A' for Active; 'I' for Inactive)
    1  A    between atoms: C_2  and  C_24
    2  A    between atoms: N_10  and  C_24
    3  A    between atoms: C_11  and  C_27
    4  A    between atoms: N_16  and  C_27
                            x       y       z     vdW  Elec       q    Type
                         _______ _______ _______ _____ _____    ______ ____

>  <TORSDO>
F 4

$$$$
=
 OpenBabel10262421263D

 32 36  0  0  1  0  0  0  0  0999 V2000
  190.1450  173.6460  135.1360 C   0  0  1  0  0  3  0  0  0  0  0  0
  190.9110  177.3450  138.2130 C   0  0  0  0  0  2  0  0  0  0  0  0
  184.9930  176.6760  136.9030 C   0  0  0  0  0  2  0  0  0  0  0  0
  184.8900  177.9890  137.6910 C   0  0  0  0  0  2  0  0  0  0  0  0
  190.7050  174.9130  138.2960 O   0  0  0  0  0  0  0  0  0  0  0  0
  189.4740  176.0330  135.7490 C   0  0  0  0  0  2  0  0  0  0  0  0
  189.1890  173.5080  136.3180 C   0  0  0  0  0  2  0  0  0  0  0  0
  186.3270  176.5840  136.1490 C   0  0  0  0  0  2  0  0  0  0  0  0
  188.8120  176.7600  136.8780 C   0  0  0  0  0  0  0  0  0  0  0  0
  187.4580  176.9550  137.0570 C   0  0  0  0  0  0  0  0  0  0  0  0
  188.5130  177.9200  138.7790 N   0  0  0  0  0  0  0  0  0  0  0  0
  190.0920  174.7200  136.2170 C   0  0  1  0  0  0  0  0  0  0  0  0
  191.2030  174.7560  137.0830 O   0  0  0  0  0  0  0  0  0  0  0  0
  185.9740  178.0750  138.7750 C   0  0  0  0  0  2  0  0  0  0  0  0
  187.3100  177.6950  138.2080 C   0  0  0  0  0  0  0  0  0  0  0  0
  191.3660  176.0260  138.8440 C   0  0  0  0  0  2  0  0  0  0  0  0
  189.4350  177.3650  137.9600 C   0  0  0  0  0  0  0  0  0  0  0  0
  191.0020  171.3770  134.5940 C   0  0  0  0  0  1  0  0  0  0  0  0
  191.3110  172.6800  135.3100 C   0  0  1  0  0  3  0  0  0  0  0  0
  193.7950  173.1430  135.3860 C   0  0  0  0  0  0  0  0  0  0  0  0
  192.5200  173.2730  134.7560 N   0  0  0  0  0  2  0  0  0  0  0  0
  193.9190  172.4980  136.4600 O   0  0  0  0  0  0  0  0  0  0  0  0
  195.2270  173.9080  134.6440 S   0  0  0  0  0  1  0  0  0  0  0  0
  188.7670  178.6470  140.0180 C   0  0  0  0  0  2  0  0  0  0  0  0
  190.7880  177.8930  141.7930 O   0  0  0  0  0  1  0  0  0  0  0  0
  189.3620  176.7000  143.3230 C   0  0  2  0  0  3  0  0  0  0  0  0
  188.4300  177.7780  141.2240 C   0  0  2  0  0  3  0  0  0  0  0  0
  186.9940  177.5760  142.9460 C   0  0  0  0  0  2  0  0  0  0  0  0
  187.8690  176.4640  143.5670 C   0  0  0  0  0  2  0  0  0  0  0  0
  189.8070  177.6860  144.1890 F   0  0  0  0  0  0  0  0  0  0  0  0
  187.7370  178.5140  142.1960 O   0  0  0  0  0  0  0  0  0  0  0  0
  189.6500  177.0830  141.8570 C   0  0  1  0  0  3  0  0  0  0  0  0
  1 19  1  1  0  0  0
  1 12  1  0  0  0  0
  1  7  1  0  0  0  0
  2 16  1  0  0  0  0
  3  4  1  0  0  0  0
  4 14  1  0  0  0  0
  5 16  1  0  0  0  0
  6  9  1  0  0  0  0
  8  3  1  0  0  0  0
  8 10  1  0  0  0  0
  9 10  1  0  0  0  0
  9 17  2  0  0  0  0
 10 15  2  0  0  0  0
 11 24  1  0  0  0  0
 12  6  1  6  0  0  0
 12  7  1  0  0  0  0
 12 13  1  0  0  0  0
 13  5  1  0  0  0  0
 15 14  1  0  0  0  0
 15 11  1  0  0  0  0
 17  2  1  0  0  0  0
 17 11  1  0  0  0  0
 19 18  1  6  0  0  0
 20 22  2  0  0  0  0
 21 19  1  0  0  0  0
 21 20  1  0  0  0  0
 23 20  1  0  0  0  0
 26 29  1  0  0  0  0
 26 30  1  1  0  0  0
 27 24  1  6  0  0  0
 27 32  1  0  0  0  0
 27 31  1  0  0  0  0
 28 29  1  0  0  0  0
 31 28  1  0  0  0  0
 32 25  1  1  0  0  0
 32 26  1  0  0  0  0
M  END
>  <MODEL>
6

>  <REMARK>
 VINA RESULT:      -6.7      6.055      9.929
  Name = 
  4 active torsions:
  status: ('A' for Active; 'I' for Inactive)
    1  A    between atoms: C_2  and  C_24
    2  A    between atoms: N_10  and  C_24
    3  A    between atoms: C_11  and  C_27
    4  A    between atoms: N_16  and  C_27
                            x       y       z     vdW  Elec       q    Type
                         _______ _______ _______ _____ _____    ______ ____

>  <TORSDO>
F 4

$$$$
=
 OpenBabel10262421263D

 32 36  0  0  1  0  0  0  0  0999 V2000
  184.3340  179.1380  142.8290 C   0  0  1  0  0  3  0  0  0  0  0  0
  183.4680  177.9530  138.1840 C   0  0  0  0  0  2  0  0  0  0  0  0
  189.4160  177.7260  139.5080 C   0  0  0  0  0  2  0  0  0  0  0  0
  189.5260  177.5070  137.9930 C   0  0  0  0  0  2  0  0  0  0  0  0
  183.3970  176.8920  140.3820 O   0  0  0  0  0  0  0  0  0  0  0  0
  185.1440  179.3830  140.4200 C   0  0  0  0  0  2  0  0  0  0  0  0
  185.0620  177.8340  142.5110 C   0  0  0  0  0  2  0  0  0  0  0  0
  188.2230  178.6280  139.8540 C   0  0  0  0  0  2  0  0  0  0  0  0
  185.6840  178.5210  139.3220 C   0  0  0  0  0  0  0  0  0  0  0  0
  187.0030  178.1730  139.1140 C   0  0  0  0  0  0  0  0  0  0  0  0
  185.7860  177.2020  137.5050 N   0  0  0  0  0  0  0  0  0  0  0  0
  184.3220  178.5710  141.4140 C   0  0  1  0  0  0  0  0  0  0  0  0
  183.0930  178.0200  140.9980 O   0  0  0  0  0  0  0  0  0  0  0  0
  188.2930  176.7740  137.4450 C   0  0  0  0  0  2  0  0  0  0  0  0
  187.0360  177.3950  137.9790 C   0  0  0  0  0  0  0  0  0  0  0  0
  182.7770  176.9600  139.1230 C   0  0  0  0  0  2  0  0  0  0  0  0
  184.9590  177.9020  138.3140 C   0  0  0  0  0  0  0  0  0  0  0  0
  183.3180  179.0030  145.0940 C   0  0  0  0  0  1  0  0  0  0  0  0
  183.0600  178.8310  143.6070 C   0  0  1  0  0  3  0  0  0  0  0  0
  180.6350  179.3310  143.0970 C   0  0  0  0  0  0  0  0  0  0  0  0
  182.0010  179.7370  143.1820 N   0  0  0  0  0  2  0  0  0  0  0  0
  180.2920  178.1570  143.3950 O   0  0  0  0  0  0  0  0  0  0  0  0
  179.4000  180.5030  142.5590 S   0  0  0  0  0  1  0  0  0  0  0  0
  185.4100  176.4180  136.3340 C   0  0  0  0  0  2  0  0  0  0  0  0
  183.4890  175.0060  134.8780 O   0  0  0  0  0  1  0  0  0  0  0  0
  183.6670  172.9560  136.1300 C   0  0  2  0  0  3  0  0  0  0  0  0
  185.0490  174.9940  136.7400 C   0  0  2  0  0  3  0  0  0  0  0  0
  185.9450  173.0010  137.2830 C   0  0  0  0  0  2  0  0  0  0  0  0
  184.5500  172.3380  137.2180 C   0  0  0  0  0  2  0  0  0  0  0  0
  184.0740  172.4750  134.8960 F   0  0  0  0  0  0  0  0  0  0  0  0
  186.0780  174.1010  136.4070 O   0  0  0  0  0  0  0  0  0  0  0  0
  183.7100  174.4970  136.1630 C   0  0  1  0  0  3  0  0  0  0  0  0
  1 19  1  1  0  0  0
  2 17  1  0  0  0  0
  2 16  1  0  0  0  0
  3  8  1  0  0  0  0
  4  3  1  0  0  0  0
  5 13  1  0  0  0  0
  7  1  1  0  0  0  0
  9  6  1  0  0  0  0
 10  9  1  0  0  0  0
 10  8  1  0  0  0  0
 11 15  1  0  0  0  0
 11 17  1  0  0  0  0
 12  6  1  6  0  0  0
 12  7  1  0  0  0  0
 12  1  1  0  0  0  0
 13 12  1  0  0  0  0
 14 15  1  0  0  0  0
 14  4  1  0  0  0  0
 15 10  2  0  0  0  0
 16  5  1  0  0  0  0
 17  9  2  0  0  0  0
 19 18  1  1  0  0  0
 20 21  1  0  0  0  0
 20 22  2  0  0  0  0
 21 19  1  0  0  0  0
 23 20  1  0  0  0  0
 24 11  1  0  0  0  0
 26 30  1  6  0  0  0
 26 32  1  0  0  0  0
 26 29  1  0  0  0  0
 27 24  1  6  0  0  0
 29 28  1  0  0  0  0
 31 27  1  0  0  0  0
 31 28  1  0  0  0  0
 32 25  1  6  0  0  0
 32 27  1  0  0  0  0
M  END
>  <MODEL>
7

>  <REMARK>
 VINA RESULT:      -6.7      4.460      6.626
  Name = 
  4 active torsions:
  status: ('A' for Active; 'I' for Inactive)
    1  A    between atoms: C_2  and  C_24
    2  A    between atoms: N_10  and  C_24
    3  A    between atoms: C_11  and  C_27
    4  A    between atoms: N_16  and  C_27
                            x       y       z     vdW  Elec       q    Type
                         _______ _______ _______ _____ _____    ______ ____

>  <TORSDO>
F 4

$$$$
=
 OpenBabel10262421263D

 32 36  0  0  1  0  0  0  0  0999 V2000
  186.2130  178.3160  142.0480 C   0  0  1  0  0  3  0  0  0  0  0  0
  182.8640  178.3460  138.5090 C   0  0  0  0  0  2  0  0  0  0  0  0
  180.4140  179.5680  143.9580 C   0  0  0  0  0  2  0  0  0  0  0  0
  179.1090  179.4630  143.1560 C   0  0  0  0  0  2  0  0  0  0  0  0
  184.5560  179.8440  139.4350 O   0  0  0  0  0  0  0  0  0  0  0  0
  183.8300  177.6500  141.4140 C   0  0  0  0  0  2  0  0  0  0  0  0
  185.3900  179.5970  142.1610 C   0  0  0  0  0  2  0  0  0  0  0  0
  181.4890  178.6270  143.3960 C   0  0  0  0  0  2  0  0  0  0  0  0
  182.5390  178.3100  141.0440 C   0  0  0  0  0  0  0  0  0  0  0  0
  181.5610  178.7590  141.9070 C   0  0  0  0  0  0  0  0  0  0  0  0
  180.8790  179.2030  139.8210 N   0  0  0  0  0  0  0  0  0  0  0  0
  185.0230  178.5550  141.1250 C   0  0  1  0  0  0  0  0  0  0  0  0
  185.3500  178.8490  139.7870 O   0  0  0  0  0  0  0  0  0  0  0  0
  179.3130  179.9060  141.7000 C   0  0  0  0  0  2  0  0  0  0  0  0
  180.5460  179.2690  141.1280 C   0  0  0  0  0  0  0  0  0  0  0  0
  183.9160  179.4290  138.2550 C   0  0  0  0  0  2  0  0  0  0  0  0
  182.0890  178.6020  139.7640 C   0  0  0  0  0  0  0  0  0  0  0  0
  188.6490  178.6190  142.4400 C   0  0  0  0  0  1  0  0  0  0  0  0
  187.5510  178.6300  141.3900 C   0  0  1  0  0  3  0  0  0  0  0  0
  188.5960  177.9310  139.1970 C   0  0  0  0  0  0  0  0  0  0  0  0
  187.8370  177.6320  140.3680 N   0  0  0  0  0  2  0  0  0  0  0  0
  189.0550  179.0880  139.0050 O   0  0  0  0  0  0  0  0  0  0  0  0
  188.8930  176.6500  137.9890 S   0  0  0  0  0  1  0  0  0  0  0  0
  180.0740  179.6610  138.6940 C   0  0  0  0  0  2  0  0  0  0  0  0
  180.9430  180.6530  136.2310 O   0  0  0  0  0  1  0  0  0  0  0  0
  180.8050  182.9840  136.8230 C   0  0  2  0  0  3  0  0  0  0  0  0
  180.2390  181.1640  138.4980 C   0  0  2  0  0  3  0  0  0  0  0  0
  179.2000  183.1380  138.8030 C   0  0  0  0  0  2  0  0  0  0  0  0
  180.2850  183.8560  137.9690 C   0  0  0  0  0  2  0  0  0  0  0  0
  179.8670  182.9780  135.8030 F   0  0  0  0  0  0  0  0  0  0  0  0
  178.9920  181.7980  138.4070 O   0  0  0  0  0  0  0  0  0  0  0  0
  181.1170  181.5480  137.2920 C   0  0  1  0  0  3  0  0  0  0  0  0
  1 19  1  6  0  0  0
  1  7  1  0  0  0  0
  2 17  1  0  0  0  0
  4  3  1  0  0  0  0
  5 13  1  0  0  0  0
  8  3  1  0  0  0  0
  9  6  1  0  0  0  0
  9 10  1  0  0  0  0
 10  8  1  0  0  0  0
 11 15  1  0  0  0  0
 12  6  1  1  0  0  0
 12  1  1  0  0  0  0
 12  7  1  0  0  0  0
 13 12  1  0  0  0  0
 14  4  1  0  0  0  0
 15 14  1  0  0  0  0
 15 10  2  0  0  0  0
 16  2  1  0  0  0  0
 16  5  1  0  0  0  0
 17 11  1  0  0  0  0
 17  9  2  0  0  0  0
 19 18  1  1  0  0  0
 20 21  1  0  0  0  0
 21 19  1  0  0  0  0
 22 20  2  0  0  0  0
 23 20  1  0  0  0  0
 24 11  1  0  0  0  0
 26 30  1  6  0  0  0
 26 32  1  0  0  0  0
 26 29  1  0  0  0  0
 27 24  1  6  0  0  0
 29 28  1  0  0  0  0
 31 27  1  0  0  0  0
 31 28  1  0  0  0  0
 32 25  1  6  0  0  0
 32 27  1  0  0  0  0
M  END
>  <MODEL>
8

>  <REMARK>
 VINA RESULT:      -6.6      4.143      8.721
  Name = 
  4 active torsions:
  status: ('A' for Active; 'I' for Inactive)
    1  A    between atoms: C_2  and  C_24
    2  A    between atoms: N_10  and  C_24
    3  A    between atoms: C_11  and  C_27
    4  A    between atoms: N_16  and  C_27
                            x       y       z     vdW  Elec       q    Type
                         _______ _______ _______ _____ _____    ______ ____

>  <TORSDO>
F 4

$$$$
=
 OpenBabel10262421263D

 32 36  0  0  1  0  0  0  0  0999 V2000
  180.9950  179.1390  141.9230 C   0  0  1  0  0  3  0  0  0  0  0  0
  185.6720  179.0010  140.5630 C   0  0  0  0  0  2  0  0  0  0  0  0
  185.0040  177.8030  146.5050 C   0  0  0  0  0  2  0  0  0  0  0  0
  186.5370  177.8740  146.4730 C   0  0  0  0  0  2  0  0  0  0  0  0
  183.7110  177.5460  140.5100 O   0  0  0  0  0  0  0  0  0  0  0  0
  183.3860  179.7520  142.5800 C   0  0  0  0  0  2  0  0  0  0  0  0
  181.6190  177.8440  142.4390 C   0  0  0  0  0  2  0  0  0  0  0  0
  184.3820  178.7570  145.4760 C   0  0  0  0  0  2  0  0  0  0  0  0
  184.6720  179.0640  142.9140 C   0  0  0  0  0  0  0  0  0  0  0  0
  185.0690  178.6070  144.1540 C   0  0  0  0  0  0  0  0  0  0  0  0
  186.7020  178.1240  142.7010 N   0  0  0  0  0  0  0  0  0  0  0  0
  182.4830  178.8660  141.7290 C   0  0  1  0  0  0  0  0  0  0  0  0
  182.8700  178.5600  140.4090 O   0  0  0  0  0  0  0  0  0  0  0  0
  187.0870  177.4160  145.1140 C   0  0  0  0  0  2  0  0  0  0  0  0
  186.3270  178.0680  143.9970 C   0  0  0  0  0  0  0  0  0  0  0  0
  184.8690  177.9340  139.8140 C   0  0  0  0  0  2  0  0  0  0  0  0
  185.7010  178.7460  142.0390 C   0  0  0  0  0  0  0  0  0  0  0  0
  178.9310  178.0500  141.0700 C   0  0  0  0  0  1  0  0  0  0  0  0
  180.1670  178.8410  140.6790 C   0  0  1  0  0  3  0  0  0  0  0  0
  180.2400  180.4810  138.7560 C   0  0  0  0  0  0  0  0  0  0  0  0
  179.7710  180.0930  140.0480 N   0  0  0  0  0  2  0  0  0  0  0  0
  181.0220  179.7390  138.1060 O   0  0  0  0  0  0  0  0  0  0  0  0
  179.7120  182.0370  138.0580 S   0  0  0  0  0  1  0  0  0  0  0  0
  187.9550  177.6360  142.1350 C   0  0  0  0  0  2  0  0  0  0  0  0
  190.1770  176.0010  141.6930 O   0  0  0  0  0  1  0  0  0  0  0  0
  191.2430  176.4300  143.8100 C   0  0  2  0  0  3  0  0  0  0  0  0
  189.0050  177.4740  143.2290 C   0  0  2  0  0  3  0  0  0  0  0  0
  190.2820  178.6310  144.6770 C   0  0  0  0  0  2  0  0  0  0  0  0
  191.0790  177.3520  145.0220 C   0  0  0  0  0  2  0  0  0  0  0  0
  192.2230  176.9510  142.9800 F   0  0  0  0  0  0  0  0  0  0  0  0
  189.7810  178.6340  143.3570 O   0  0  0  0  0  0  0  0  0  0  0  0
  189.9170  176.2450  143.0460 C   0  0  1  0  0  3  0  0  0  0  0  0
  1 19  1  6  0  0  0
  1  7  1  0  0  0  0
  2 17  1  0  0  0  0
  4  3  1  0  0  0  0
  6  9  1  0  0  0  0
  8  3  1  0  0  0  0
  9 10  1  0  0  0  0
 10  8  1  0  0  0  0
 11 15  1  0  0  0  0
 12  1  1  0  0  0  0
 12  7  1  1  0  0  0
 12  6  1  0  0  0  0
 13  5  1  0  0  0  0
 13 12  1  0  0  0  0
 14  4  1  0  0  0  0
 15 10  2  0  0  0  0
 15 14  1  0  0  0  0
 16  5  1  0  0  0  0
 16  2  1  0  0  0  0
 17 11  1  0  0  0  0
 17  9  2  0  0  0  0
 19 18  1  1  0  0  0
 20 21  1  0  0  0  0
 21 19  1  0  0  0  0
 22 20  2  0  0  0  0
 23 20  1  0  0  0  0
 24 11  1  0  0  0  0
 26 30  1  6  0  0  0
 26 29  1  0  0  0  0
 27 24  1  6  0  0  0
 27 31  1  0  0  0  0
 28 29  1  0  0  0  0
 31 28  1  0  0  0  0
 32 25  1  6  0  0  0
 32 27  1  0  0  0  0
 32 26  1  0  0  0  0
M  END
>  <MODEL>
9

>  <REMARK>
 VINA RESULT:      -6.6      1.390      1.513
  Name = 
  4 active torsions:
  status: ('A' for Active; 'I' for Inactive)
    1  A    between atoms: C_2  and  C_24
    2  A    between atoms: N_10  and  C_24
    3  A    between atoms: C_11  and  C_27
    4  A    between atoms: N_16  and  C_27
                            x       y       z     vdW  Elec       q    Type
                         _______ _______ _______ _____ _____    ______ ____

>  <TORSDO>
F 4

$$$$
