=
 OpenBabel10262420473D

 28 30  0  0  1  0  0  0  0  0999 V2000
  182.7820  178.5540  138.9460 C   0  0  2  0  0  3  0  0  0  0  0  0
  186.8070  177.6990  137.7390 O   0  0  0  0  0  1  0  0  0  0  0  0
  184.8290  178.0470  142.2400 C   0  0  1  0  0  3  0  0  0  0  0  0
  185.3220  178.7110  139.3400 C   0  0  1  0  0  3  0  0  0  0  0  0
  183.8320  177.6810  141.1250 C   0  0  0  0  0  2  0  0  0  0  0  0
  184.4850  177.5100  137.2660 C   0  0  0  0  0  2  0  0  0  0  0  0
  186.4360  178.6960  140.4090 C   0  0  0  0  0  2  0  0  0  0  0  0
  185.5580  177.5560  138.3490 C   0  0  1  0  0  3  0  0  0  0  0  0
  185.9270  179.0340  141.8120 C   0  0  0  0  0  2  0  0  0  0  0  0
  182.8950  177.0060  137.9880 S   0  0  0  0  0  0  0  0  0  0  0  0
  183.9130  178.6840  139.9720 C   0  0  2  0  0  3  0  0  0  0  0  0
  181.4240  178.7810  139.5560 C   0  0  0  0  0  0  0  0  0  0  0  0
  180.7420  177.7140  140.1670 C   0  0  0  0  0  3  0  0  0  0  0  0
  179.5960  180.2690  140.1820 C   0  0  0  0  0  0  0  0  0  0  0  0
  179.5010  177.9190  140.7690 C   0  0  0  0  0  3  0  0  0  0  0  0
  181.5780  181.2290  138.9570 C   0  0  0  0  0  1  0  0  0  0  0  0
  180.8510  180.0710  139.5720 C   0  0  0  0  0  0  0  0  0  0  0  0
  178.9510  181.6160  140.2250 C   0  0  0  0  0  1  0  0  0  0  0  0
  178.9310  179.1920  140.7730 C   0  0  0  0  0  3  0  0  0  0  0  0
  184.1410  178.5030  143.4500 N   0  0  0  0  0  0  0  0  0  0  0  0
  184.1920  179.1590  145.7030 O   0  0  0  0  0  0  0  0  0  0  0  0
  184.7730  178.5740  144.7470 C   0  0  0  0  0  0  0  0  0  0  0  0
  182.8270  178.9750  143.2910 C   0  0  0  0  0  0  0  0  0  0  0  0
  181.7020  179.3870  143.1520 C   0  0  0  0  0  3  0  0  0  0  0  0
  186.0970  177.9330  145.0070 C   0  0  0  0  0  2  0  0  0  0  0  0
  187.6850  177.7250  146.8590 C   0  0  0  0  0  3  0  0  0  0  0  0
  186.5220  178.1930  146.4120 C   0  0  0  0  0  3  0  0  0  0  0  0
  188.1010  177.9970  148.2640 C   0  0  0  0  0  1  0  0  0  0  0  0
  1 12  1  1  0  0  0
  1 11  1  0  0  0  0
  3 20  1  1  0  0  0
  4 11  1  0  0  0  0
  4  7  1  1  0  0  0
  5  3  1  0  0  0  0
  6 10  1  0  0  0  0
  6  8  1  0  0  0  0
  7  9  1  0  0  0  0
  8  2  1  6  0  0  0
  8  4  1  0  0  0  0
  9  3  1  0  0  0  0
 10  1  1  0  0  0  0
 11  5  1  1  0  0  0
 12 17  2  0  0  0  0
 12 13  1  0  0  0  0
 13 15  2  0  0  0  0
 14 18  1  0  0  0  0
 14 19  2  0  0  0  0
 15 19  1  0  0  0  0
 16 17  1  0  0  0  0
 17 14  1  0  0  0  0
 20 22  1  0  0  0  0
 22 25  1  0  0  0  0
 22 21  2  0  0  0  0
 23 20  1  0  0  0  0
 24 23  3  0  0  0  0
 25 27  1  0  0  0  0
 26 28  1  0  0  0  0
 27 26  2  0  0  0  0
M  END
>  <MODEL>
1

>  <REMARK>
 VINA RESULT:      -6.9      0.000      0.000
  Name = 
  5 active torsions:
  status: ('A' for Active; 'I' for Inactive)
    1  A    between atoms: C_1  and  C_2
    2  A    between atoms: C_4  and  N_13
    3  A    between atoms: C_9  and  C_15
    4  A    between atoms: C_9  and  C_18
    5  A    between atoms: C_10  and  N_13
                            x       y       z     vdW  Elec       q    Type
                         _______ _______ _______ _____ _____    ______ ____

>  <TORSDO>
F 5

$$$$
=
 OpenBabel10262420473D

 28 30  0  0  1  0  0  0  0  0999 V2000
  183.1120  178.0800  139.2300 C   0  0  2  0  0  3  0  0  0  0  0  0
  180.5790  179.9670  142.1300 O   0  0  0  0  0  1  0  0  0  0  0  0
  185.3980  178.9470  142.2840 C   0  0  1  0  0  3  0  0  0  0  0  0
  182.4700  178.5490  141.6800 C   0  0  1  0  0  3  0  0  0  0  0  0
  184.8160  179.0970  140.8660 C   0  0  0  0  0  2  0  0  0  0  0  0
  181.0680  179.5870  139.8350 C   0  0  0  0  0  2  0  0  0  0  0  0
  183.0170  178.7980  143.1020 C   0  0  0  0  0  2  0  0  0  0  0  0
  181.6360  179.7670  141.2400 C   0  0  1  0  0  3  0  0  0  0  0  0
  184.4460  178.2850  143.2940 C   0  0  0  0  0  2  0  0  0  0  0  0
  182.4100  179.6460  138.6100 S   0  0  0  0  0  0  0  0  0  0  0  0
  183.5930  178.1950  140.6810 C   0  0  2  0  0  3  0  0  0  0  0  0
  184.1610  177.4950  138.3220 C   0  0  0  0  0  0  0  0  0  0  0  0
  185.2300  178.2930  137.8780 C   0  0  0  0  0  3  0  0  0  0  0  0
  185.1260  175.5960  137.1360 C   0  0  0  0  0  0  0  0  0  0  0  0
  186.2270  177.7540  137.0670 C   0  0  0  0  0  3  0  0  0  0  0  0
  183.0010  175.2560  138.4470 C   0  0  0  0  0  1  0  0  0  0  0  0
  184.1130  176.1320  137.9550 C   0  0  0  0  0  0  0  0  0  0  0  0
  185.1190  174.1590  136.7230 C   0  0  0  0  0  1  0  0  0  0  0  0
  186.1730  176.4100  136.6960 C   0  0  0  0  0  3  0  0  0  0  0  0
  186.7030  178.2830  142.2640 N   0  0  0  0  0  0  0  0  0  0  0  0
  188.2560  176.8030  143.2170 O   0  0  0  0  0  0  0  0  0  0  0  0
  187.2210  177.5110  143.3690 C   0  0  0  0  0  0  0  0  0  0  0  0
  187.4240  178.3410  141.0590 C   0  0  0  0  0  0  0  0  0  0  0  0
  188.0490  178.3920  140.0290 C   0  0  0  0  0  3  0  0  0  0  0  0
  186.5830  177.5550  144.7200 C   0  0  0  0  0  2  0  0  0  0  0  0
  187.3170  177.8170  147.0410 C   0  0  0  0  0  3  0  0  0  0  0  0
  187.6320  177.5360  145.7790 C   0  0  0  0  0  3  0  0  0  0  0  0
  188.3740  177.7890  148.0920 C   0  0  0  0  0  1  0  0  0  0  0  0
  1 12  1  6  0  0  0
  1 11  1  0  0  0  0
  3 20  1  6  0  0  0
  3  9  1  0  0  0  0
  4  7  1  1  0  0  0
  5  3  1  0  0  0  0
  6  8  1  0  0  0  0
  7  9  1  0  0  0  0
  8  4  1  0  0  0  0
  8  2  1  1  0  0  0
 10  1  1  0  0  0  0
 10  6  1  0  0  0  0
 11  5  1  6  0  0  0
 11  4  1  0  0  0  0
 13 12  2  0  0  0  0
 14 17  2  0  0  0  0
 15 13  1  0  0  0  0
 17 12  1  0  0  0  0
 17 16  1  0  0  0  0
 18 14  1  0  0  0  0
 19 15  2  0  0  0  0
 19 14  1  0  0  0  0
 20 22  1  0  0  0  0
 21 22  2  0  0  0  0
 22 25  1  0  0  0  0
 23 20  1  0  0  0  0
 24 23  3  0  0  0  0
 25 27  1  0  0  0  0
 26 28  1  0  0  0  0
 27 26  2  0  0  0  0
M  END
>  <MODEL>
2

>  <REMARK>
 VINA RESULT:      -6.3      2.138      4.990
  Name = 
  5 active torsions:
  status: ('A' for Active; 'I' for Inactive)
    1  A    between atoms: C_1  and  C_2
    2  A    between atoms: C_4  and  N_13
    3  A    between atoms: C_9  and  C_15
    4  A    between atoms: C_9  and  C_18
    5  A    between atoms: C_10  and  N_13
                            x       y       z     vdW  Elec       q    Type
                         _______ _______ _______ _____ _____    ______ ____

>  <TORSDO>
F 5

$$$$
=
 OpenBabel10262420473D

 28 30  0  0  1  0  0  0  0  0999 V2000
  189.5990  177.1160  143.1200 C   0  0  2  0  0  3  0  0  0  0  0  0
  192.2910  177.0590  139.7830 O   0  0  0  0  0  1  0  0  0  0  0  0
  187.6250  178.6160  140.0930 C   0  0  1  0  0  3  0  0  0  0  0  0
  190.0330  176.8700  140.5930 C   0  0  1  0  0  3  0  0  0  0  0  0
  188.4000  178.6330  141.4240 C   0  0  0  0  0  2  0  0  0  0  0  0
  192.0090  177.2830  142.1320 C   0  0  0  0  0  2  0  0  0  0  0  0
  189.4830  177.1740  139.1820 C   0  0  0  0  0  2  0  0  0  0  0  0
  191.4100  177.5410  140.7530 C   0  0  1  0  0  3  0  0  0  0  0  0
  187.9760  177.4370  139.1700 C   0  0  0  0  0  2  0  0  0  0  0  0
  191.0580  178.1740  143.4000 S   0  0  0  0  0  0  0  0  0  0  0  0
  189.0360  177.2690  141.7020 C   0  0  2  0  0  3  0  0  0  0  0  0
  188.5390  177.2680  144.1780 C   0  0  0  0  0  0  0  0  0  0  0  0
  187.1800  177.1630  143.8320 C   0  0  0  0  0  3  0  0  0  0  0  0
  187.8910  177.5610  146.5110 C   0  0  0  0  0  0  0  0  0  0  0  0
  186.1910  177.2650  144.8080 C   0  0  0  0  0  3  0  0  0  0  0  0
  190.3420  177.5380  145.9260 C   0  0  0  0  0  1  0  0  0  0  0  0
  188.8980  177.4590  145.5310 C   0  0  0  0  0  0  0  0  0  0  0  0
  188.2210  177.7620  147.9540 C   0  0  0  0  0  1  0  0  0  0  0  0
  186.5470  177.4660  146.1430 C   0  0  0  0  0  3  0  0  0  0  0  0
  186.1800  178.7150  140.3100 N   0  0  0  0  0  0  0  0  0  0  0  0
  183.9790  178.2260  139.6560 O   0  0  0  0  0  0  0  0  0  0  0  0
  185.1980  178.3010  139.3350 C   0  0  0  0  0  0  0  0  0  0  0  0
  185.7590  179.1530  141.5770 C   0  0  0  0  0  0  0  0  0  0  0  0
  185.3900  179.5290  142.6620 C   0  0  0  0  0  3  0  0  0  0  0  0
  185.5810  177.9920  137.9240 C   0  0  0  0  0  2  0  0  0  0  0  0
  185.2920  175.7080  137.0880 C   0  0  0  0  0  3  0  0  0  0  0  0
  184.7390  176.8780  137.4000 C   0  0  0  0  0  3  0  0  0  0  0  0
  184.4390  174.6010  136.5720 C   0  0  0  0  0  1  0  0  0  0  0  0
  1 10  1  0  0  0  0
  1 12  1  1  0  0  0
  3 20  1  1  0  0  0
  3  5  1  0  0  0  0
  4  7  1  6  0  0  0
  4  8  1  0  0  0  0
  4 11  1  0  0  0  0
  6 10  1  0  0  0  0
  8  2  1  6  0  0  0
  8  6  1  0  0  0  0
  9  7  1  0  0  0  0
  9  3  1  0  0  0  0
 11  5  1  6  0  0  0
 11  1  1  0  0  0  0
 12 17  1  0  0  0  0
 13 12  2  0  0  0  0
 13 15  1  0  0  0  0
 14 18  1  0  0  0  0
 15 19  2  0  0  0  0
 17 16  1  0  0  0  0
 17 14  2  0  0  0  0
 19 14  1  0  0  0  0
 20 23  1  0  0  0  0
 22 21  2  0  0  0  0
 22 20  1  0  0  0  0
 23 24  3  0  0  0  0
 25 22  1  0  0  0  0
 26 27  2  0  0  0  0
 27 25  1  0  0  0  0
 28 26  1  0  0  0  0
M  END
>  <MODEL>
3

>  <REMARK>
 VINA RESULT:      -6.0      4.004      7.910
  Name = 
  5 active torsions:
  status: ('A' for Active; 'I' for Inactive)
    1  A    between atoms: C_1  and  C_2
    2  A    between atoms: C_4  and  N_13
    3  A    between atoms: C_9  and  C_15
    4  A    between atoms: C_9  and  C_18
    5  A    between atoms: C_10  and  N_13
                            x       y       z     vdW  Elec       q    Type
                         _______ _______ _______ _____ _____    ______ ____

>  <TORSDO>
F 5

$$$$
=
 OpenBabel10262420473D

 28 30  0  0  1  0  0  0  0  0999 V2000
  188.4670  177.6470  143.6290 C   0  0  2  0  0  3  0  0  0  0  0  0
  185.1720  179.2590  141.4090 O   0  0  0  0  0  1  0  0  0  0  0  0
  189.3320  177.1270  139.8490 C   0  0  1  0  0  3  0  0  0  0  0  0
  187.5390  178.8540  141.5510 C   0  0  1  0  0  3  0  0  0  0  0  0
  188.8920  176.7200  141.2680 C   0  0  0  0  0  2  0  0  0  0  0  0
  185.9200  178.1560  143.3770 C   0  0  0  0  0  2  0  0  0  0  0  0
  187.6780  179.0220  140.0230 C   0  0  0  0  0  2  0  0  0  0  0  0
  186.1210  178.3490  141.8780 C   0  0  1  0  0  3  0  0  0  0  0  0
  189.0490  178.5960  139.4940 C   0  0  0  0  0  2  0  0  0  0  0  0
  186.9140  176.7510  143.9630 S   0  0  0  0  0  0  0  0  0  0  0  0
  188.6500  177.9550  142.1380 C   0  0  2  0  0  3  0  0  0  0  0  0
  189.6790  176.9860  144.2310 C   0  0  0  0  0  0  0  0  0  0  0  0
  190.5370  176.2220  143.4210 C   0  0  0  0  0  3  0  0  0  0  0  0
  191.1550  176.5780  146.1290 C   0  0  0  0  0  0  0  0  0  0  0  0
  191.6820  175.6360  143.9580 C   0  0  0  0  0  3  0  0  0  0  0  0
  189.1130  178.0150  146.4670 C   0  0  0  0  0  1  0  0  0  0  0  0
  189.9960  177.1740  145.5940 C   0  0  0  0  0  0  0  0  0  0  0  0
  191.5320  176.7480  147.5650 C   0  0  0  0  0  1  0  0  0  0  0  0
  191.9870  175.8120  145.3080 C   0  0  0  0  0  3  0  0  0  0  0  0
  190.7320  176.7760  139.5970 N   0  0  0  0  0  0  0  0  0  0  0  0
  192.3870  175.8490  138.2140 O   0  0  0  0  0  0  0  0  0  0  0  0
  191.1590  175.9510  138.4910 C   0  0  0  0  0  0  0  0  0  0  0  0
  191.6930  177.3610  140.4380 C   0  0  0  0  0  0  0  0  0  0  0  0
  192.5180  177.8700  141.1560 C   0  0  0  0  0  3  0  0  0  0  0  0
  190.1810  175.1710  137.6750 C   0  0  0  0  0  2  0  0  0  0  0  0
  189.5010  176.9360  136.1210 C   0  0  0  0  0  3  0  0  0  0  0  0
  190.0800  175.7520  136.3060 C   0  0  0  0  0  3  0  0  0  0  0  0
  189.4120  177.5100  134.7480 C   0  0  0  0  0  1  0  0  0  0  0  0
  1 10  1  0  0  0  0
  1 12  1  6  0  0  0
  3 20  1  1  0  0  0
  3  5  1  0  0  0  0
  4  7  1  6  0  0  0
  4  8  1  0  0  0  0
  4 11  1  0  0  0  0
  6 10  1  0  0  0  0
  8  2  1  1  0  0  0
  8  6  1  0  0  0  0
  9  3  1  0  0  0  0
  9  7  1  0  0  0  0
 11  5  1  6  0  0  0
 11  1  1  0  0  0  0
 12 17  1  0  0  0  0
 13 15  1  0  0  0  0
 13 12  2  0  0  0  0
 14 18  1  0  0  0  0
 15 19  2  0  0  0  0
 17 14  2  0  0  0  0
 17 16  1  0  0  0  0
 19 14  1  0  0  0  0
 20 23  1  0  0  0  0
 21 22  2  0  0  0  0
 22 20  1  0  0  0  0
 23 24  3  0  0  0  0
 25 22  1  0  0  0  0
 26 27  2  0  0  0  0
 27 25  1  0  0  0  0
 28 26  1  0  0  0  0
M  END
>  <MODEL>
4

>  <REMARK>
 VINA RESULT:      -6.0      4.709      9.492
  Name = 
  5 active torsions:
  status: ('A' for Active; 'I' for Inactive)
    1  A    between atoms: C_1  and  C_2
    2  A    between atoms: C_4  and  N_13
    3  A    between atoms: C_9  and  C_15
    4  A    between atoms: C_9  and  C_18
    5  A    between atoms: C_10  and  N_13
                            x       y       z     vdW  Elec       q    Type
                         _______ _______ _______ _____ _____    ______ ____

>  <TORSDO>
F 5

$$$$
=
 OpenBabel10262420473D

 28 30  0  0  1  0  0  0  0  0999 V2000
  185.1950  178.0720  141.0970 C   0  0  2  0  0  3  0  0  0  0  0  0
  186.9580  177.4640  137.2360 O   0  0  0  0  0  1  0  0  0  0  0  0
  182.6960  179.5920  138.4990 C   0  0  1  0  0  3  0  0  0  0  0  0
  184.9640  177.6050  138.5750 C   0  0  1  0  0  3  0  0  0  0  0  0
  183.7740  179.6060  139.5990 C   0  0  0  0  0  2  0  0  0  0  0  0
  187.2900  177.8790  139.5530 C   0  0  0  0  0  2  0  0  0  0  0  0
  184.1160  177.8780  137.3140 C   0  0  0  0  0  2  0  0  0  0  0  0
  186.3980  178.1140  138.3380 C   0  0  1  0  0  3  0  0  0  0  0  0
  182.6870  178.3200  137.6360 C   0  0  0  0  0  2  0  0  0  0  0  0
  186.7770  178.9620  140.9200 S   0  0  0  0  0  0  0  0  0  0  0  0
  184.3170  178.1960  139.8470 C   0  0  2  0  0  3  0  0  0  0  0  0
  184.4510  178.4240  142.3580 C   0  0  0  0  0  0  0  0  0  0  0  0
  183.0950  178.7890  142.2950 C   0  0  0  0  0  3  0  0  0  0  0  0
  184.3610  178.6300  144.7860 C   0  0  0  0  0  0  0  0  0  0  0  0
  182.3850  179.0810  143.4580 C   0  0  0  0  0  3  0  0  0  0  0  0
  186.5230  177.9110  143.7080 C   0  0  0  0  0  1  0  0  0  0  0  0
  185.0870  178.3330  143.6160 C   0  0  0  0  0  0  0  0  0  0  0  0
  184.9910  178.5470  146.1390 C   0  0  0  0  0  1  0  0  0  0  0  0
  183.0180  179.0030  144.6990 C   0  0  0  0  0  3  0  0  0  0  0  0
  181.3680  179.8810  139.0430 N   0  0  0  0  0  0  0  0  0  0  0  0
  179.4840  181.2740  139.2010 O   0  0  0  0  0  0  0  0  0  0  0  0
  180.7010  181.1520  138.8850 C   0  0  0  0  0  0  0  0  0  0  0  0
  180.6940  178.8160  139.6650 C   0  0  0  0  0  0  0  0  0  0  0  0
  180.1160  177.9060  140.2060 C   0  0  0  0  0  3  0  0  0  0  0  0
  181.4280  182.3590  138.3870 C   0  0  0  0  0  2  0  0  0  0  0  0
  181.1820  184.0120  136.5980 C   0  0  0  0  0  3  0  0  0  0  0  0
  180.7900  182.8600  137.1370 C   0  0  0  0  0  3  0  0  0  0  0  0
  180.5390  184.4980  135.3430 C   0  0  0  0  0  1  0  0  0  0  0  0
  1 12  1  1  0  0  0
  3 20  1  1  0  0  0
  3  5  1  0  0  0  0
  4  7  1  6  0  0  0
  4 11  1  0  0  0  0
  6 10  1  0  0  0  0
  7  9  1  0  0  0  0
  8  2  1  6  0  0  0
  8  4  1  0  0  0  0
  8  6  1  0  0  0  0
  9  3  1  0  0  0  0
 10  1  1  0  0  0  0
 11  5  1  6  0  0  0
 11  1  1  0  0  0  0
 12 17  1  0  0  0  0
 13 12  2  0  0  0  0
 13 15  1  0  0  0  0
 14 18  1  0  0  0  0
 15 19  2  0  0  0  0
 17 16  1  0  0  0  0
 17 14  2  0  0  0  0
 19 14  1  0  0  0  0
 20 23  1  0  0  0  0
 22 20  1  0  0  0  0
 22 21  2  0  0  0  0
 23 24  3  0  0  0  0
 25 22  1  0  0  0  0
 26 27  2  0  0  0  0
 27 25  1  0  0  0  0
 28 26  1  0  0  0  0
M  END
>  <MODEL>
5

>  <REMARK>
 VINA RESULT:      -5.7      2.622      6.794
  Name = 
  5 active torsions:
  status: ('A' for Active; 'I' for Inactive)
    1  A    between atoms: C_1  and  C_2
    2  A    between atoms: C_4  and  N_13
    3  A    between atoms: C_9  and  C_15
    4  A    between atoms: C_9  and  C_18
    5  A    between atoms: C_10  and  N_13
                            x       y       z     vdW  Elec       q    Type
                         _______ _______ _______ _____ _____    ______ ____

>  <TORSDO>
F 5

$$$$
=
 OpenBabel10262420473D

 28 30  0  0  1  0  0  0  0  0999 V2000
  189.3880  177.5660  145.5990 C   0  0  2  0  0  3  0  0  0  0  0  0
  187.7850  178.5210  149.4600 O   0  0  0  0  0  1  0  0  0  0  0  0
  185.5580  178.1630  145.0780 C   0  0  1  0  0  3  0  0  0  0  0  0
  187.7110  178.8450  147.0770 C   0  0  1  0  0  3  0  0  0  0  0  0
  186.8560  177.3460  145.2100 C   0  0  0  0  0  2  0  0  0  0  0  0
  189.3910  177.3070  148.1960 C   0  0  0  0  0  2  0  0  0  0  0  0
  186.2630  179.3720  147.1760 C   0  0  0  0  0  2  0  0  0  0  0  0
  187.9740  177.8700  148.2390 C   0  0  1  0  0  3  0  0  0  0  0  0
  185.5810  179.5140  145.8130 C   0  0  0  0  0  2  0  0  0  0  0  0
  189.5710  176.1850  146.7770 S   0  0  0  0  0  0  0  0  0  0  0  0
  188.0090  178.2280  145.6920 C   0  0  2  0  0  3  0  0  0  0  0  0
  189.7540  177.1970  144.1850 C   0  0  0  0  0  0  0  0  0  0  0  0
  188.9960  176.2380  143.4920 C   0  0  0  0  0  3  0  0  0  0  0  0
  191.1200  177.5170  142.1910 C   0  0  0  0  0  0  0  0  0  0  0  0
  189.3010  175.9150  142.1710 C   0  0  0  0  0  3  0  0  0  0  0  0
  191.6170  178.9020  144.2370 C   0  0  0  0  0  1  0  0  0  0  0  0
  190.8190  177.8500  143.5270 C   0  0  0  0  0  0  0  0  0  0  0  0
  192.2360  178.1810  141.4510 C   0  0  0  0  0  1  0  0  0  0  0  0
  190.3610  176.5510  141.5250 C   0  0  0  0  0  3  0  0  0  0  0  0
  185.1610  178.3230  143.6770 N   0  0  0  0  0  0  0  0  0  0  0  0
  183.5620  178.9140  142.0630 O   0  0  0  0  0  0  0  0  0  0  0  0
  183.8040  178.5910  143.2590 C   0  0  0  0  0  0  0  0  0  0  0  0
  186.1900  178.3010  142.7210 C   0  0  0  0  0  0  0  0  0  0  0  0
  187.0690  178.2850  141.8960 C   0  0  0  0  0  3  0  0  0  0  0  0
  182.6550  178.4570  144.2050 C   0  0  0  0  0  2  0  0  0  0  0  0
  180.2180  178.5610  143.9940 C   0  0  0  0  0  3  0  0  0  0  0  0
  181.4100  178.9730  143.5680 C   0  0  0  0  0  3  0  0  0  0  0  0
  178.9790  179.0890  143.3530 C   0  0  0  0  0  1  0  0  0  0  0  0
  1 12  1  6  0  0  0
  1 11  1  0  0  0  0
  1 10  1  0  0  0  0
  3 20  1  6  0  0  0
  3  5  1  0  0  0  0
  3  9  1  0  0  0  0
  4  7  1  6  0  0  0
  4  8  1  0  0  0  0
  6  8  1  0  0  0  0
  8  2  1  1  0  0  0
  9  7  1  0  0  0  0
 10  6  1  0  0  0  0
 11  5  1  1  0  0  0
 11  4  1  0  0  0  0
 13 12  2  0  0  0  0
 14 17  2  0  0  0  0
 15 13  1  0  0  0  0
 17 12  1  0  0  0  0
 17 16  1  0  0  0  0
 18 14  1  0  0  0  0
 19 15  2  0  0  0  0
 19 14  1  0  0  0  0
 21 22  2  0  0  0  0
 22 20  1  0  0  0  0
 22 25  1  0  0  0  0
 23 20  1  0  0  0  0
 24 23  3  0  0  0  0
 27 26  2  0  0  0  0
 27 25  1  0  0  0  0
 28 26  1  0  0  0  0
M  END
>  <MODEL>
6

>  <REMARK>
 VINA RESULT:      -5.7      3.717      8.652
  Name = 
  5 active torsions:
  status: ('A' for Active; 'I' for Inactive)
    1  A    between atoms: C_1  and  C_2
    2  A    between atoms: C_4  and  N_13
    3  A    between atoms: C_9  and  C_15
    4  A    between atoms: C_9  and  C_18
    5  A    between atoms: C_10  and  N_13
                            x       y       z     vdW  Elec       q    Type
                         _______ _______ _______ _____ _____    ______ ____

>  <TORSDO>
F 5

$$$$
=
 OpenBabel10262420473D

 28 30  0  0  1  0  0  0  0  0999 V2000
  181.6950  178.1650  140.2650 C   0  0  2  0  0  3  0  0  0  0  0  0
  181.9480  179.3240  144.3860 O   0  0  0  0  0  1  0  0  0  0  0  0
  185.4590  178.9910  140.9430 C   0  0  1  0  0  3  0  0  0  0  0  0
  182.9810  178.2520  142.4960 C   0  0  1  0  0  3  0  0  0  0  0  0
  184.0380  179.2190  140.3950 C   0  0  0  0  0  2  0  0  0  0  0  0
  180.6650  179.2840  142.3860 C   0  0  0  0  0  2  0  0  0  0  0  0
  184.3730  178.4100  143.1440 C   0  0  0  0  0  2  0  0  0  0  0  0
  182.0600  179.3810  142.9950 C   0  0  1  0  0  3  0  0  0  0  0  0
  185.5220  178.0880  142.1850 C   0  0  0  0  0  2  0  0  0  0  0  0
  180.7330  179.6750  140.6120 S   0  0  0  0  0  0  0  0  0  0  0  0
  183.0640  178.1800  140.9550 C   0  0  2  0  0  3  0  0  0  0  0  0
  181.7950  177.8450  138.7970 C   0  0  0  0  0  0  0  0  0  0  0  0
  181.6250  178.8630  137.8430 C   0  0  0  0  0  3  0  0  0  0  0  0
  182.2430  176.2680  136.9910 C   0  0  0  0  0  0  0  0  0  0  0  0
  181.7520  178.5870  136.4830 C   0  0  0  0  0  3  0  0  0  0  0  0
  182.3370  175.4460  139.3720 C   0  0  0  0  0  1  0  0  0  0  0  0
  182.1160  176.5380  138.3690 C   0  0  0  0  0  0  0  0  0  0  0  0
  182.5820  174.9020  136.4900 C   0  0  0  0  0  1  0  0  0  0  0  0
  182.0570  177.2920  136.0600 C   0  0  0  0  0  3  0  0  0  0  0  0
  186.3720  178.5270  139.8960 N   0  0  0  0  0  0  0  0  0  0  0  0
  188.4550  177.6670  139.2390 O   0  0  0  0  0  0  0  0  0  0  0  0
  187.7710  178.2500  140.1260 C   0  0  0  0  0  0  0  0  0  0  0  0
  185.8090  178.2580  138.6370 C   0  0  0  0  0  0  0  0  0  0  0  0
  185.3280  178.0340  137.5540 C   0  0  0  0  0  3  0  0  0  0  0  0
  188.4560  178.6740  141.3840 C   0  0  0  0  0  2  0  0  0  0  0  0
  189.1630  176.7650  142.7440 C   0  0  0  0  0  3  0  0  0  0  0  0
  189.4560  177.6470  141.7920 C   0  0  0  0  0  3  0  0  0  0  0  0
  190.1700  175.7390  143.1380 C   0  0  0  0  0  1  0  0  0  0  0  0
  1 12  1  6  0  0  0
  1 10  1  0  0  0  0
  1 11  1  0  0  0  0
  3 20  1  6  0  0  0
  3  9  1  0  0  0  0
  4  8  1  0  0  0  0
  4  7  1  1  0  0  0
  5  3  1  0  0  0  0
  6  8  1  0  0  0  0
  8  2  1  1  0  0  0
  9  7  1  0  0  0  0
 10  6  1  0  0  0  0
 11  5  1  6  0  0  0
 11  4  1  0  0  0  0
 13 12  2  0  0  0  0
 14 17  2  0  0  0  0
 15 13  1  0  0  0  0
 17 12  1  0  0  0  0
 17 16  1  0  0  0  0
 18 14  1  0  0  0  0
 19 15  2  0  0  0  0
 19 14  1  0  0  0  0
 20 22  1  0  0  0  0
 21 22  2  0  0  0  0
 22 25  1  0  0  0  0
 23 20  1  0  0  0  0
 24 23  3  0  0  0  0
 25 27  1  0  0  0  0
 26 28  1  0  0  0  0
 27 26  2  0  0  0  0
M  END
>  <MODEL>
7

>  <REMARK>
 VINA RESULT:      -5.6      2.534      5.093
  Name = 
  5 active torsions:
  status: ('A' for Active; 'I' for Inactive)
    1  A    between atoms: C_1  and  C_2
    2  A    between atoms: C_4  and  N_13
    3  A    between atoms: C_9  and  C_15
    4  A    between atoms: C_9  and  C_18
    5  A    between atoms: C_10  and  N_13
                            x       y       z     vdW  Elec       q    Type
                         _______ _______ _______ _____ _____    ______ ____

>  <TORSDO>
F 5

$$$$
=
 OpenBabel10262420473D

 28 30  0  0  1  0  0  0  0  0999 V2000
  183.5960  176.3000  136.8530 C   0  0  2  0  0  3  0  0  0  0  0  0
  179.8030  177.5300  138.4310 O   0  0  0  0  0  1  0  0  0  0  0  0
  184.3780  178.6480  139.8830 C   0  0  1  0  0  3  0  0  0  0  0  0
  182.1040  176.9600  138.8460 C   0  0  1  0  0  3  0  0  0  0  0  0
  184.2520  178.2460  138.4020 C   0  0  0  0  0  2  0  0  0  0  0  0
  181.0820  176.9180  136.5230 C   0  0  0  0  0  2  0  0  0  0  0  0
  182.0610  177.7020  140.1990 C   0  0  0  0  0  2  0  0  0  0  0  0
  181.0870  177.6040  137.8850 C   0  0  1  0  0  3  0  0  0  0  0  0
  183.4440  177.8780  140.8310 C   0  0  0  0  0  2  0  0  0  0  0  0
  182.6340  177.2690  135.6440 S   0  0  0  0  0  0  0  0  0  0  0  0
  183.5320  176.9030  138.2610 C   0  0  2  0  0  3  0  0  0  0  0  0
  185.0090  176.0260  136.4100 C   0  0  0  0  0  0  0  0  0  0  0  0
  185.7140  176.9930  135.6720 C   0  0  0  0  0  3  0  0  0  0  0  0
  186.9910  174.6050  136.3840 C   0  0  0  0  0  0  0  0  0  0  0  0
  187.0340  176.7670  135.2880 C   0  0  0  0  0  3  0  0  0  0  0  0
  184.9330  173.7960  137.5940 C   0  0  0  0  0  1  0  0  0  0  0  0
  185.6560  174.8260  136.7770 C   0  0  0  0  0  0  0  0  0  0  0  0
  187.7180  173.3520  136.7500 C   0  0  0  0  0  1  0  0  0  0  0  0
  187.6680  175.5750  135.6410 C   0  0  0  0  0  3  0  0  0  0  0  0
  185.7680  178.5940  140.3400 N   0  0  0  0  0  0  0  0  0  0  0  0
  187.3450  178.5230  142.0780 O   0  0  0  0  0  0  0  0  0  0  0  0
  186.1610  178.7770  141.7180 C   0  0  0  0  0  0  0  0  0  0  0  0
  186.7370  178.2530  139.3810 C   0  0  0  0  0  0  0  0  0  0  0  0
  187.5740  177.9600  138.5640 C   0  0  0  0  0  3  0  0  0  0  0  0
  185.2070  179.3040  142.7400 C   0  0  0  0  0  2  0  0  0  0  0  0
  185.2040  179.0780  145.1780 C   0  0  0  0  0  3  0  0  0  0  0  0
  185.2940  178.4920  143.9860 C   0  0  0  0  0  3  0  0  0  0  0  0
  185.2860  178.2530  146.4170 C   0  0  0  0  0  1  0  0  0  0  0  0
  1 12  1  6  0  0  0
  1 11  1  0  0  0  0
  3 20  1  1  0  0  0
  3  9  1  0  0  0  0
  4  7  1  1  0  0  0
  5  3  1  0  0  0  0
  6  8  1  0  0  0  0
  7  9  1  0  0  0  0
  8  2  1  1  0  0  0
  8  4  1  0  0  0  0
 10  6  1  0  0  0  0
 10  1  1  0  0  0  0
 11  5  1  6  0  0  0
 11  4  1  0  0  0  0
 12 17  1  0  0  0  0
 13 12  2  0  0  0  0
 14 18  1  0  0  0  0
 14 17  2  0  0  0  0
 15 19  2  0  0  0  0
 15 13  1  0  0  0  0
 17 16  1  0  0  0  0
 19 14  1  0  0  0  0
 20 22  1  0  0  0  0
 22 21  2  0  0  0  0
 22 25  1  0  0  0  0
 23 20  1  0  0  0  0
 24 23  3  0  0  0  0
 25 27  1  0  0  0  0
 26 28  1  0  0  0  0
 27 26  2  0  0  0  0
M  END
>  <MODEL>
8

>  <REMARK>
 VINA RESULT:      -5.4      2.814      5.972
  Name = 
  5 active torsions:
  status: ('A' for Active; 'I' for Inactive)
    1  A    between atoms: C_1  and  C_2
    2  A    between atoms: C_4  and  N_13
    3  A    between atoms: C_9  and  C_15
    4  A    between atoms: C_9  and  C_18
    5  A    between atoms: C_10  and  N_13
                            x       y       z     vdW  Elec       q    Type
                         _______ _______ _______ _____ _____    ______ ____

>  <TORSDO>
F 5

$$$$
=
 OpenBabel10262420473D

 28 30  0  0  1  0  0  0  0  0999 V2000
  187.6660  174.1680  135.6270 C   0  0  2  0  0  3  0  0  0  0  0  0
  191.8230  174.3820  134.5950 O   0  0  0  0  0  1  0  0  0  0  0  0
  189.3190  176.5780  138.2280 C   0  0  1  0  0  3  0  0  0  0  0  0
  189.8730  175.4870  135.4710 C   0  0  1  0  0  3  0  0  0  0  0  0
  188.6920  175.2690  137.7130 C   0  0  0  0  0  2  0  0  0  0  0  0
  189.8380  173.0770  134.6740 C   0  0  0  0  0  2  0  0  0  0  0  0
  190.7610  176.5460  136.1600 C   0  0  0  0  0  2  0  0  0  0  0  0
  190.6630  174.1710  135.3440 C   0  0  1  0  0  3  0  0  0  0  0  0
  189.9890  177.4320  137.1390 C   0  0  0  0  0  2  0  0  0  0  0  0
  188.4930  172.5500  135.7780 S   0  0  0  0  0  0  0  0  0  0  0  0
  188.5190  175.3100  136.1920 C   0  0  2  0  0  3  0  0  0  0  0  0
  186.2630  174.1750  136.1720 C   0  0  0  0  0  0  0  0  0  0  0  0
  185.8910  173.2550  137.1680 C   0  0  0  0  0  3  0  0  0  0  0  0
  184.0310  175.1520  136.2850 C   0  0  0  0  0  0  0  0  0  0  0  0
  184.6070  173.2750  137.7080 C   0  0  0  0  0  3  0  0  0  0  0  0
  185.7140  176.1510  134.6980 C   0  0  0  0  0  1  0  0  0  0  0  0
  185.3270  175.1380  135.7330 C   0  0  0  0  0  0  0  0  0  0  0  0
  183.0070  176.1520  135.8540 C   0  0  0  0  0  1  0  0  0  0  0  0
  183.6800  174.2200  137.2650 C   0  0  0  0  0  3  0  0  0  0  0  0
  188.3620  177.3620  139.0110 N   0  0  0  0  0  0  0  0  0  0  0  0
  187.8160  178.5810  140.9420 O   0  0  0  0  0  0  0  0  0  0  0  0
  188.5800  177.7420  140.3870 C   0  0  0  0  0  0  0  0  0  0  0  0
  187.2240  177.8330  138.3330 C   0  0  0  0  0  0  0  0  0  0  0  0
  186.2460  178.2300  137.7510 C   0  0  0  0  0  3  0  0  0  0  0  0
  189.6770  177.1340  141.2010 C   0  0  0  0  0  2  0  0  0  0  0  0
  191.1920  177.9100  142.9610 C   0  0  0  0  0  3  0  0  0  0  0  0
  190.0180  178.0280  142.3440 C   0  0  0  0  0  3  0  0  0  0  0  0
  191.5240  178.8140  144.0990 C   0  0  0  0  0  1  0  0  0  0  0  0
  1 10  1  0  0  0  0
  1 12  1  1  0  0  0
  1 11  1  0  0  0  0
  3 20  1  6  0  0  0
  4  7  1  1  0  0  0
  4 11  1  0  0  0  0
  5  3  1  0  0  0  0
  6  8  1  0  0  0  0
  6 10  1  0  0  0  0
  7  9  1  0  0  0  0
  8  2  1  6  0  0  0
  8  4  1  0  0  0  0
  9  3  1  0  0  0  0
 11  5  1  1  0  0  0
 12 13  1  0  0  0  0
 13 15  2  0  0  0  0
 14 19  2  0  0  0  0
 16 17  1  0  0  0  0
 17 12  2  0  0  0  0
 17 14  1  0  0  0  0
 18 14  1  0  0  0  0
 19 15  1  0  0  0  0
 20 22  1  0  0  0  0
 22 21  2  0  0  0  0
 22 25  1  0  0  0  0
 23 20  1  0  0  0  0
 24 23  3  0  0  0  0
 25 27  1  0  0  0  0
 26 28  1  0  0  0  0
 27 26  2  0  0  0  0
M  END
>  <MODEL>
9

>  <REMARK>
 VINA RESULT:      -5.4      5.269      6.831
  Name = 
  5 active torsions:
  status: ('A' for Active; 'I' for Inactive)
    1  A    between atoms: C_1  and  C_2
    2  A    between atoms: C_4  and  N_13
    3  A    between atoms: C_9  and  C_15
    4  A    between atoms: C_9  and  C_18
    5  A    between atoms: C_10  and  N_13
                            x       y       z     vdW  Elec       q    Type
                         _______ _______ _______ _____ _____    ______ ____

>  <TORSDO>
F 5

$$$$
