=
 OpenBabel10262419473D

 25 29  0  0  1  0  0  0  0  0999 V2000
  188.7320  177.7100  143.8280 C   0  0  0  0  0  0  0  0  0  0  0  0
  187.4580  177.8640  144.2300 C   0  0  0  0  0  0  0  0  0  0  0  0
  189.3690  177.0830  146.1630 C   0  0  0  0  0  2  0  0  0  0  0  0
  184.1500  178.4500  142.6550 N   0  0  0  0  0  2  0  0  0  0  0  0
  188.0450  177.5780  146.5510 N   0  0  0  0  0  0  0  0  0  0  0  0
  185.7330  178.2140  146.0940 C   0  0  1  0  0  3  0  0  0  0  0  0
  185.6880  179.1900  147.5880 Cl  0  0  0  0  0  0  0  0  0  0  0  0
  186.3860  177.9570  143.2870 N   0  0  0  0  0  0  0  0  0  0  0  0
  189.8370  177.7170  144.8490 C   0  0  0  0  0  2  0  0  0  0  0  0
  184.9540  178.9510  144.9990 C   0  0  0  0  0  2  0  0  0  0  0  0
  185.2030  178.3840  143.6260 C   0  0  0  0  0  0  0  0  0  0  0  0
  187.1470  177.9210  145.6730 C   0  0  0  0  0  0  0  0  0  0  0  0
  189.0760  177.6720  142.4350 N   0  0  0  0  0  0  0  0  0  0  0  0
  189.7370  177.7860  139.6610 C   0  0  0  0  0  2  0  0  0  0  0  0
  190.2590  176.9310  141.9610 C   0  0  2  0  0  3  0  0  0  0  0  0
  190.1100  176.5620  140.4870 C   0  0  0  0  0  2  0  0  0  0  0  0
  188.4230  178.3590  140.1700 C   0  0  0  0  0  2  0  0  0  0  0  0
  190.4750  175.6470  142.7500 C   0  0  0  0  0  1  0  0  0  0  0  0
  188.5800  178.7830  141.6240 C   0  0  0  0  0  2  0  0  0  0  0  0
  182.9930  176.8000  139.4680 C   0  0  0  0  0  2  0  0  0  0  0  0
  184.8290  179.0370  140.3730 C   0  0  0  0  0  2  0  0  0  0  0  0
  182.8690  178.3040  139.3270 C   0  0  2  0  0  3  0  0  0  0  0  0
  184.2390  177.9790  141.2740 C   0  0  2  0  0  3  0  0  0  0  0  0
  184.1840  178.8920  139.0780 N   0  0  0  0  0  2  0  0  0  0  0  0
  182.8730  177.6680  140.7060 C   0  0  2  0  0  3  0  0  0  0  0  0
  1  2  2  0  0  0  0
  1  9  1  0  0  0  0
  2 12  1  0  0  0  0
  3  5  1  0  0  0  0
  4 11  1  0  0  0  0
  6  7  1  1  0  0  0
  8 11  2  0  0  0  0
  8  2  1  0  0  0  0
  9  3  1  0  0  0  0
 10  6  1  0  0  0  0
 11 10  1  0  0  0  0
 12  6  1  0  0  0  0
 12  5  2  0  0  0  0
 13  1  1  0  0  0  0
 14 17  1  0  0  0  0
 14 16  1  0  0  0  0
 15 13  1  0  0  0  0
 15 18  1  1  0  0  0
 16 15  1  0  0  0  0
 17 19  1  0  0  0  0
 19 13  1  0  0  0  0
 21 23  1  0  0  0  0
 22 20  1  6  0  0  0
 22 25  1  0  0  0  0
 23  4  1  1  0  0  0
 24 22  1  0  0  0  0
 24 21  1  0  0  0  0
 25 20  1  6  0  0  0
 25 23  1  0  0  0  0
M  END
>  <MODEL>
1

>  <REMARK>
 VINA RESULT:      -8.3      0.000      0.000
  Name = 
  2 active torsions:
  status: ('A' for Active; 'I' for Inactive)
    1  A    between atoms: C_1  and  N_5
    2  A    between atoms: N_6  and  C_15
                            x       y       z     vdW  Elec       q    Type
                         _______ _______ _______ _____ _____    ______ ____

>  <TORSDO>
F 2

$$$$
=
 OpenBabel10262419473D

 25 29  0  0  1  0  0  0  0  0999 V2000
  187.9590  177.8850  144.6010 C   0  0  0  0  0  0  0  0  0  0  0  0
  186.9200  178.0890  143.7730 C   0  0  0  0  0  0  0  0  0  0  0  0
  186.3560  177.4800  146.4760 C   0  0  0  0  0  2  0  0  0  0  0  0
  186.3820  178.5520  140.1310 N   0  0  0  0  0  2  0  0  0  0  0  0
  185.3280  178.0230  145.5820 N   0  0  0  0  0  0  0  0  0  0  0  0
  184.4430  178.6330  143.3910 C   0  0  1  0  0  3  0  0  0  0  0  0
  183.2780  179.7480  144.1530 Cl  0  0  0  0  0  0  0  0  0  0  0  0
  187.0910  178.1010  142.3520 N   0  0  0  0  0  0  0  0  0  0  0  0
  187.7510  177.9800  146.0880 C   0  0  0  0  0  2  0  0  0  0  0  0
  184.9610  179.2680  142.0950 C   0  0  0  0  0  2  0  0  0  0  0  0
  186.1780  178.5690  141.5500 C   0  0  0  0  0  0  0  0  0  0  0  0
  185.5660  178.2880  144.3310 C   0  0  0  0  0  0  0  0  0  0  0  0
  189.2920  177.7100  144.0980 N   0  0  0  0  0  0  0  0  0  0  0  0
  192.0030  177.4690  143.2420 C   0  0  0  0  0  2  0  0  0  0  0  0
  189.7990  176.3750  143.7310 C   0  0  2  0  0  3  0  0  0  0  0  0
  190.9510  176.4920  142.7350 C   0  0  0  0  0  2  0  0  0  0  0  0
  191.3700  178.8380  143.4380 C   0  0  0  0  0  2  0  0  0  0  0  0
  188.7150  175.5130  143.1000 C   0  0  0  0  0  1  0  0  0  0  0  0
  190.2570  178.7420  144.4720 C   0  0  0  0  0  2  0  0  0  0  0  0
  188.2370  176.8120  137.3470 C   0  0  0  0  0  2  0  0  0  0  0  0
  188.7520  178.8190  139.5600 C   0  0  0  0  0  2  0  0  0  0  0  0
  188.5280  178.2990  137.2910 C   0  0  2  0  0  3  0  0  0  0  0  0
  187.5230  177.9490  139.4450 C   0  0  2  0  0  3  0  0  0  0  0  0
  189.4980  178.6560  138.3230 N   0  0  0  0  0  2  0  0  0  0  0  0
  187.2620  177.7980  137.9630 C   0  0  2  0  0  3  0  0  0  0  0  0
  1  9  1  0  0  0  0
  2 12  1  0  0  0  0
  2  1  2  0  0  0  0
  4 11  1  0  0  0  0
  5  3  1  0  0  0  0
  6  7  1  1  0  0  0
  6 12  1  0  0  0  0
  8  2  1  0  0  0  0
  9  3  1  0  0  0  0
 10  6  1  0  0  0  0
 11 10  1  0  0  0  0
 11  8  2  0  0  0  0
 12  5  2  0  0  0  0
 13 19  1  0  0  0  0
 13  1  1  0  0  0  0
 14 17  1  0  0  0  0
 15 18  1  6  0  0  0
 15 13  1  0  0  0  0
 16 14  1  0  0  0  0
 16 15  1  0  0  0  0
 17 19  1  0  0  0  0
 22 20  1  6  0  0  0
 22 25  1  0  0  0  0
 22 24  1  0  0  0  0
 23 21  1  0  0  0  0
 23  4  1  1  0  0  0
 24 21  1  0  0  0  0
 25 20  1  1  0  0  0
 25 23  1  0  0  0  0
M  END
>  <MODEL>
2

>  <REMARK>
 VINA RESULT:      -7.6      2.137      3.474
  Name = 
  2 active torsions:
  status: ('A' for Active; 'I' for Inactive)
    1  A    between atoms: C_1  and  N_5
    2  A    between atoms: N_6  and  C_15
                            x       y       z     vdW  Elec       q    Type
                         _______ _______ _______ _____ _____    ______ ____

>  <TORSDO>
F 2

$$$$
=
 OpenBabel10262419473D

 25 29  0  0  1  0  0  0  0  0999 V2000
  188.2650  177.5730  144.3140 C   0  0  0  0  0  0  0  0  0  0  0  0
  187.2380  177.9360  143.5270 C   0  0  0  0  0  0  0  0  0  0  0  0
  186.6790  177.3290  146.2310 C   0  0  0  0  0  2  0  0  0  0  0  0
  186.6570  178.5700  139.9170 N   0  0  0  0  0  2  0  0  0  0  0  0
  185.7060  178.0290  145.3860 N   0  0  0  0  0  0  0  0  0  0  0  0
  184.8450  178.8130  143.2410 C   0  0  1  0  0  3  0  0  0  0  0  0
  183.8610  180.0500  144.0680 Cl  0  0  0  0  0  0  0  0  0  0  0  0
  187.3660  177.9660  142.1010 N   0  0  0  0  0  0  0  0  0  0  0  0
  188.1150  177.6520  145.8090 C   0  0  0  0  0  2  0  0  0  0  0  0
  185.4040  179.4110  141.9440 C   0  0  0  0  0  2  0  0  0  0  0  0
  186.5000  178.5730  141.3420 C   0  0  0  0  0  0  0  0  0  0  0  0
  185.9390  178.2960  144.1340 C   0  0  0  0  0  0  0  0  0  0  0  0
  189.5470  177.2380  143.7620 N   0  0  0  0  0  0  0  0  0  0  0  0
  192.0080  176.4430  142.5570 C   0  0  0  0  0  2  0  0  0  0  0  0
  190.4680  178.2850  143.2860 C   0  0  2  0  0  3  0  0  0  0  0  0
  191.9080  177.7760  143.2860 C   0  0  0  0  0  2  0  0  0  0  0  0
  191.1160  175.4220  143.2450 C   0  0  0  0  0  2  0  0  0  0  0  0
  190.4080  179.5310  144.1580 C   0  0  0  0  0  1  0  0  0  0  0  0
  189.6690  175.8940  143.1990 C   0  0  0  0  0  2  0  0  0  0  0  0
  188.0900  176.3780  137.2040 C   0  0  0  0  0  2  0  0  0  0  0  0
  188.9210  178.6890  138.9810 C   0  0  0  0  0  2  0  0  0  0  0  0
  188.3730  177.8310  136.8750 C   0  0  2  0  0  3  0  0  0  0  0  0
  187.6870  177.8410  139.1780 C   0  0  2  0  0  3  0  0  0  0  0  0
  189.4820  178.3200  137.6910 N   0  0  0  0  0  2  0  0  0  0  0  0
  187.2160  177.4700  137.7910 C   0  0  2  0  0  3  0  0  0  0  0  0
  1  9  1  0  0  0  0
  2 12  1  0  0  0  0
  2  1  2  0  0  0  0
  4 11  1  0  0  0  0
  5  3  1  0  0  0  0
  6  7  1  1  0  0  0
  6 12  1  0  0  0  0
  8  2  1  0  0  0  0
  9  3  1  0  0  0  0
 10  6  1  0  0  0  0
 11 10  1  0  0  0  0
 11  8  2  0  0  0  0
 12  5  2  0  0  0  0
 13  1  1  0  0  0  0
 14 17  1  0  0  0  0
 14 16  1  0  0  0  0
 15 16  1  0  0  0  0
 15 13  1  0  0  0  0
 15 18  1  1  0  0  0
 19 17  1  0  0  0  0
 19 13  1  0  0  0  0
 21 23  1  0  0  0  0
 22 20  1  1  0  0  0
 22 24  1  0  0  0  0
 22 25  1  0  0  0  0
 23  4  1  6  0  0  0
 24 21  1  0  0  0  0
 25 20  1  1  0  0  0
 25 23  1  0  0  0  0
M  END
>  <MODEL>
3

>  <REMARK>
 VINA RESULT:      -7.6      2.252      3.636
  Name = 
  2 active torsions:
  status: ('A' for Active; 'I' for Inactive)
    1  A    between atoms: C_1  and  N_5
    2  A    between atoms: N_6  and  C_15
                            x       y       z     vdW  Elec       q    Type
                         _______ _______ _______ _____ _____    ______ ____

>  <TORSDO>
F 2

$$$$
=
 OpenBabel10262419473D

 25 29  0  0  1  0  0  0  0  0999 V2000
  187.9110  177.6710  146.0890 C   0  0  0  0  0  0  0  0  0  0  0  0
  189.1100  177.4350  145.5300 C   0  0  0  0  0  0  0  0  0  0  0  0
  189.0120  177.8410  148.3270 C   0  0  0  0  0  2  0  0  0  0  0  0
  190.5180  177.1440  142.1090 N   0  0  0  0  0  2  0  0  0  0  0  0
  190.1960  177.2730  147.6760 N   0  0  0  0  0  0  0  0  0  0  0  0
  191.5650  176.7230  145.7310 C   0  0  1  0  0  3  0  0  0  0  0  0
  192.4320  175.4790  146.6710 Cl  0  0  0  0  0  0  0  0  0  0  0  0
  189.3010  177.5190  144.1140 N   0  0  0  0  0  0  0  0  0  0  0  0
  187.7320  177.4740  147.5700 C   0  0  0  0  0  2  0  0  0  0  0  0
  191.3530  176.2060  144.3040 C   0  0  0  0  0  2  0  0  0  0  0  0
  190.3570  177.0290  143.5290 C   0  0  0  0  0  0  0  0  0  0  0  0
  190.2660  177.1000  146.3880 C   0  0  0  0  0  0  0  0  0  0  0  0
  186.7600  177.9780  145.2870 N   0  0  0  0  0  0  0  0  0  0  0  0
  184.4780  178.4090  143.6290 C   0  0  0  0  0  2  0  0  0  0  0  0
  185.5880  178.6590  145.8650 C   0  0  2  0  0  3  0  0  0  0  0  0
  184.7820  179.3630  144.7750 C   0  0  0  0  0  2  0  0  0  0  0  0
  185.7820  177.8970  143.0370 C   0  0  0  0  0  2  0  0  0  0  0  0
  185.9920  179.7000  146.9000 C   0  0  0  0  0  1  0  0  0  0  0  0
  186.5660  177.1430  144.1030 C   0  0  0  0  0  2  0  0  0  0  0  0
  189.4040  178.7930  138.9070 C   0  0  0  0  0  2  0  0  0  0  0  0
  188.2170  177.3330  141.2840 C   0  0  0  0  0  2  0  0  0  0  0  0
  188.7670  177.4220  139.0120 C   0  0  2  0  0  3  0  0  0  0  0  0
  189.6250  177.8720  141.2100 C   0  0  2  0  0  3  0  0  0  0  0  0
  187.6480  177.4610  139.9510 N   0  0  0  0  0  2  0  0  0  0  0  0
  190.0490  177.7240  139.7670 C   0  0  2  0  0  3  0  0  0  0  0  0
  1  9  1  0  0  0  0
  2  1  2  0  0  0  0
  2 12  1  0  0  0  0
  4 11  1  0  0  0  0
  5  3  1  0  0  0  0
  6 12  1  0  0  0  0
  6  7  1  1  0  0  0
  8  2  1  0  0  0  0
  9  3  1  0  0  0  0
 10  6  1  0  0  0  0
 11  8  2  0  0  0  0
 11 10  1  0  0  0  0
 12  5  2  0  0  0  0
 13 15  1  0  0  0  0
 13  1  1  0  0  0  0
 14 16  1  0  0  0  0
 15 18  1  1  0  0  0
 16 15  1  0  0  0  0
 17 14  1  0  0  0  0
 17 19  1  0  0  0  0
 19 13  1  0  0  0  0
 22 20  1  6  0  0  0
 22 25  1  0  0  0  0
 22 24  1  0  0  0  0
 23 21  1  0  0  0  0
 23  4  1  1  0  0  0
 24 21  1  0  0  0  0
 25 20  1  6  0  0  0
 25 23  1  0  0  0  0
M  END
>  <MODEL>
4

>  <REMARK>
 VINA RESULT:      -7.5      2.735      5.280
  Name = 
  2 active torsions:
  status: ('A' for Active; 'I' for Inactive)
    1  A    between atoms: C_1  and  N_5
    2  A    between atoms: N_6  and  C_15
                            x       y       z     vdW  Elec       q    Type
                         _______ _______ _______ _____ _____    ______ ____

>  <TORSDO>
F 2

$$$$
=
 OpenBabel10262419473D

 25 29  0  0  1  0  0  0  0  0999 V2000
  190.2710  177.0200  145.0710 C   0  0  0  0  0  0  0  0  0  0  0  0
  189.0820  177.2230  145.6650 C   0  0  0  0  0  0  0  0  0  0  0  0
  191.1480  176.0570  147.2040 C   0  0  0  0  0  2  0  0  0  0  0  0
  185.6670  178.2620  144.6530 N   0  0  0  0  0  2  0  0  0  0  0  0
  189.9400  176.6030  147.8310 N   0  0  0  0  0  0  0  0  0  0  0  0
  187.6600  177.4720  147.7830 C   0  0  1  0  0  3  0  0  0  0  0  0
  187.9050  178.2530  149.3680 Cl  0  0  0  0  0  0  0  0  0  0  0  0
  187.9090  177.5180  144.9010 N   0  0  0  0  0  0  0  0  0  0  0  0
  191.4960  176.8120  145.9180 C   0  0  0  0  0  2  0  0  0  0  0  0
  186.8170  178.4000  146.9000 C   0  0  0  0  0  2  0  0  0  0  0  0
  186.8270  177.9910  145.4510 C   0  0  0  0  0  0  0  0  0  0  0  0
  188.9710  177.1230  147.1350 C   0  0  0  0  0  0  0  0  0  0  0  0
  190.4230  177.1310  143.6470 N   0  0  0  0  0  0  0  0  0  0  0  0
  190.5700  177.2410  140.7990 C   0  0  0  0  0  2  0  0  0  0  0  0
  190.6360  178.4390  143.0030 C   0  0  2  0  0  3  0  0  0  0  0  0
  191.3130  178.2670  141.6440 C   0  0  0  0  0  2  0  0  0  0  0  0
  190.5540  175.9040  141.5250 C   0  0  0  0  0  2  0  0  0  0  0  0
  191.5090  179.3520  143.8530 C   0  0  0  0  0  1  0  0  0  0  0  0
  189.8300  176.0540  142.8560 C   0  0  0  0  0  2  0  0  0  0  0  0
  183.9040  177.8780  141.3420 C   0  0  0  0  0  2  0  0  0  0  0  0
  186.6450  178.5840  142.4280 C   0  0  0  0  0  2  0  0  0  0  0  0
  184.6550  179.1940  141.3600 C   0  0  2  0  0  3  0  0  0  0  0  0
  185.5270  177.9620  143.2300 C   0  0  2  0  0  3  0  0  0  0  0  0
  186.0810  178.9580  141.1410 N   0  0  0  0  0  2  0  0  0  0  0  0
  184.2470  178.5350  142.6660 C   0  0  2  0  0  3  0  0  0  0  0  0
  1  2  2  0  0  0  0
  1  9  1  0  0  0  0
  2 12  1  0  0  0  0
  3  5  1  0  0  0  0
  4 11  1  0  0  0  0
  6  7  1  1  0  0  0
  8 11  2  0  0  0  0
  8  2  1  0  0  0  0
  9  3  1  0  0  0  0
 10  6  1  0  0  0  0
 11 10  1  0  0  0  0
 12  6  1  0  0  0  0
 12  5  2  0  0  0  0
 13  1  1  0  0  0  0
 14 17  1  0  0  0  0
 14 16  1  0  0  0  0
 15 13  1  0  0  0  0
 15 18  1  1  0  0  0
 16 15  1  0  0  0  0
 17 19  1  0  0  0  0
 19 13  1  0  0  0  0
 21 23  1  0  0  0  0
 22 20  1  6  0  0  0
 22 25  1  0  0  0  0
 23  4  1  1  0  0  0
 24 22  1  0  0  0  0
 24 21  1  0  0  0  0
 25 20  1  6  0  0  0
 25 23  1  0  0  0  0
M  END
>  <MODEL>
5

>  <REMARK>
 VINA RESULT:      -7.4      1.726      2.592
  Name = 
  2 active torsions:
  status: ('A' for Active; 'I' for Inactive)
    1  A    between atoms: C_1  and  N_5
    2  A    between atoms: N_6  and  C_15
                            x       y       z     vdW  Elec       q    Type
                         _______ _______ _______ _____ _____    ______ ____

>  <TORSDO>
F 2

$$$$
=
 OpenBabel10262419473D

 25 29  0  0  1  0  0  0  0  0999 V2000
  189.9030  177.3190  141.8300 C   0  0  0  0  0  0  0  0  0  0  0  0
  189.2600  177.6970  140.7120 C   0  0  0  0  0  0  0  0  0  0  0  0
  192.0710  177.4190  140.5900 C   0  0  0  0  0  2  0  0  0  0  0  0
  185.8260  178.7250  139.7530 N   0  0  0  0  0  2  0  0  0  0  0  0
  191.2570  177.5140  139.3750 N   0  0  0  0  0  0  0  0  0  0  0  0
  189.1890  177.9780  138.1640 C   0  0  1  0  0  3  0  0  0  0  0  0
  189.7580  177.0010  136.7840 Cl  0  0  0  0  0  0  0  0  0  0  0  0
  187.9040  178.1530  140.7510 N   0  0  0  0  0  0  0  0  0  0  0  0
  191.2930  176.7530  141.7300 C   0  0  0  0  0  2  0  0  0  0  0  0
  187.6860  177.7400  138.3530 C   0  0  0  0  0  2  0  0  0  0  0  0
  187.1770  178.2530  139.6740 C   0  0  0  0  0  0  0  0  0  0  0  0
  189.9650  177.6650  139.4140 C   0  0  0  0  0  0  0  0  0  0  0  0
  189.2440  177.3160  143.1060 N   0  0  0  0  0  0  0  0  0  0  0  0
  187.8940  177.1280  145.6130 C   0  0  0  0  0  2  0  0  0  0  0  0
  189.8980  177.8760  144.3030 C   0  0  2  0  0  3  0  0  0  0  0  0
  188.8590  178.2750  145.3480 C   0  0  0  0  0  2  0  0  0  0  0  0
  187.1860  176.7530  144.3200 C   0  0  0  0  0  2  0  0  0  0  0  0
  190.7290  179.1070  143.9690 C   0  0  0  0  0  1  0  0  0  0  0  0
  188.2110  176.2980  143.2900 C   0  0  0  0  0  2  0  0  0  0  0  0
  183.1730  178.9430  142.4230 C   0  0  0  0  0  2  0  0  0  0  0  0
  186.1550  179.3780  142.0940 C   0  0  0  0  0  2  0  0  0  0  0  0
  184.3550  178.1570  142.9550 C   0  0  2  0  0  3  0  0  0  0  0  0
  185.1690  179.2220  140.9600 C   0  0  2  0  0  3  0  0  0  0  0  0
  185.4370  179.0690  143.3200 N   0  0  0  0  0  2  0  0  0  0  0  0
  184.1190  178.2550  141.4580 C   0  0  2  0  0  3  0  0  0  0  0  0
  1 13  1  0  0  0  0
  2  8  1  0  0  0  0
  2  1  2  0  0  0  0
  3  9  1  0  0  0  0
  5 12  2  0  0  0  0
  5  3  1  0  0  0  0
  6  7  1  6  0  0  0
  6 10  1  0  0  0  0
  6 12  1  0  0  0  0
  9  1  1  0  0  0  0
 10 11  1  0  0  0  0
 11  4  1  0  0  0  0
 11  8  2  0  0  0  0
 12  2  1  0  0  0  0
 13 19  1  0  0  0  0
 13 15  1  0  0  0  0
 15 18  1  6  0  0  0
 15 16  1  0  0  0  0
 16 14  1  0  0  0  0
 17 14  1  0  0  0  0
 19 17  1  0  0  0  0
 21 24  1  0  0  0  0
 22 20  1  1  0  0  0
 22 24  1  0  0  0  0
 23  4  1  6  0  0  0
 23 25  1  0  0  0  0
 23 21  1  0  0  0  0
 25 20  1  1  0  0  0
 25 22  1  0  0  0  0
M  END
>  <MODEL>
6

>  <REMARK>
 VINA RESULT:      -7.3      2.863      5.152
  Name = 
  2 active torsions:
  status: ('A' for Active; 'I' for Inactive)
    1  A    between atoms: C_1  and  N_5
    2  A    between atoms: N_6  and  C_15
                            x       y       z     vdW  Elec       q    Type
                         _______ _______ _______ _____ _____    ______ ____

>  <TORSDO>
F 2

$$$$
=
 OpenBabel10262419473D

 25 29  0  0  1  0  0  0  0  0999 V2000
  189.0990  177.5170  142.0180 C   0  0  0  0  0  0  0  0  0  0  0  0
  187.9010  177.8720  142.5150 C   0  0  0  0  0  0  0  0  0  0  0  0
  188.6230  178.8650  139.9680 C   0  0  0  0  0  2  0  0  0  0  0  0
  186.0750  177.5520  145.7290 N   0  0  0  0  0  2  0  0  0  0  0  0
  187.2410  178.9280  140.4510 N   0  0  0  0  0  0  0  0  0  0  0  0
  185.5240  178.7720  142.1800 C   0  0  1  0  0  3  0  0  0  0  0  0
  184.2670  178.5450  140.9350 Cl  0  0  0  0  0  0  0  0  0  0  0  0
  187.5800  177.6750  143.8950 N   0  0  0  0  0  0  0  0  0  0  0  0
  189.3580  177.6500  140.5430 C   0  0  0  0  0  2  0  0  0  0  0  0
  185.2000  177.8740  143.3790 C   0  0  0  0  0  2  0  0  0  0  0  0
  186.3560  177.7420  144.3360 C   0  0  0  0  0  0  0  0  0  0  0  0
  186.8960  178.4950  141.6300 C   0  0  0  0  0  0  0  0  0  0  0  0
  190.0930  176.8890  142.8430 N   0  0  0  0  0  0  0  0  0  0  0  0
  192.0790  175.5010  144.3510 C   0  0  0  0  0  2  0  0  0  0  0  0
  191.2300  177.6550  143.3850 C   0  0  2  0  0  3  0  0  0  0  0  0
  191.7970  176.9720  144.6270 C   0  0  0  0  0  2  0  0  0  0  0  0
  190.7890  174.8070  143.9420 C   0  0  0  0  0  2  0  0  0  0  0  0
  190.8240  179.0720  143.7680 C   0  0  0  0  0  1  0  0  0  0  0  0
  190.2460  175.4450  142.6700 C   0  0  0  0  0  2  0  0  0  0  0  0
  189.4290  176.6860  147.2200 C   0  0  0  0  0  2  0  0  0  0  0  0
  187.0920  178.5500  147.7250 C   0  0  0  0  0  2  0  0  0  0  0  0
  189.3130  178.1910  147.0860 C   0  0  2  0  0  3  0  0  0  0  0  0
  187.0750  177.3730  146.7790 C   0  0  2  0  0  3  0  0  0  0  0  0
  188.4700  178.7240  148.1540 N   0  0  0  0  0  2  0  0  0  0  0  0
  188.4710  177.2840  146.2070 C   0  0  2  0  0  3  0  0  0  0  0  0
  1  2  2  0  0  0  0
  1 13  1  0  0  0  0
  2  8  1  0  0  0  0
  3  5  1  0  0  0  0
  3  9  1  0  0  0  0
  5 12  2  0  0  0  0
  6  7  1  6  0  0  0
  6 10  1  0  0  0  0
  8 11  2  0  0  0  0
  9  1  1  0  0  0  0
 10 11  1  0  0  0  0
 11  4  1  0  0  0  0
 12  6  1  0  0  0  0
 12  2  1  0  0  0  0
 13 15  1  0  0  0  0
 14 16  1  0  0  0  0
 15 18  1  1  0  0  0
 15 16  1  0  0  0  0
 17 14  1  0  0  0  0
 19 13  1  0  0  0  0
 19 17  1  0  0  0  0
 21 24  1  0  0  0  0
 22 20  1  1  0  0  0
 22 24  1  0  0  0  0
 23  4  1  6  0  0  0
 23 21  1  0  0  0  0
 25 23  1  0  0  0  0
 25 22  1  0  0  0  0
 25 20  1  1  0  0  0
M  END
>  <MODEL>
7

>  <REMARK>
 VINA RESULT:      -7.1      2.481      5.624
  Name = 
  2 active torsions:
  status: ('A' for Active; 'I' for Inactive)
    1  A    between atoms: C_1  and  N_5
    2  A    between atoms: N_6  and  C_15
                            x       y       z     vdW  Elec       q    Type
                         _______ _______ _______ _____ _____    ______ ____

>  <TORSDO>
F 2

$$$$
=
 OpenBabel10262419473D

 25 29  0  0  1  0  0  0  0  0999 V2000
  182.7700  178.1860  140.8980 C   0  0  0  0  0  0  0  0  0  0  0  0
  183.9420  178.4540  141.4990 C   0  0  0  0  0  0  0  0  0  0  0  0
  181.5680  179.2320  142.8240 C   0  0  0  0  0  2  0  0  0  0  0  0
  187.5490  178.2900  140.6430 N   0  0  0  0  0  2  0  0  0  0  0  0
  182.8570  179.1900  143.5220 N   0  0  0  0  0  0  0  0  0  0  0  0
  185.2920  179.0340  143.6000 C   0  0  1  0  0  3  0  0  0  0  0  0
  185.2210  178.5260  145.3090 Cl  0  0  0  0  0  0  0  0  0  0  0  0
  185.1800  178.3780  140.7840 N   0  0  0  0  0  0  0  0  0  0  0  0
  181.5050  178.1810  141.7110 C   0  0  0  0  0  2  0  0  0  0  0  0
  186.4010  178.2450  142.8950 C   0  0  0  0  0  2  0  0  0  0  0  0
  186.3300  178.3540  141.3950 C   0  0  0  0  0  0  0  0  0  0  0  0
  183.9620  178.8560  142.9200 C   0  0  0  0  0  0  0  0  0  0  0  0
  182.7120  177.7720  139.5240 N   0  0  0  0  0  0  0  0  0  0  0  0
  182.5300  176.7820  136.8540 C   0  0  0  0  0  2  0  0  0  0  0  0
  182.1070  178.6340  138.4930 C   0  0  2  0  0  3  0  0  0  0  0  0
  182.6460  178.2780  137.1090 C   0  0  0  0  0  2  0  0  0  0  0  0
  183.3210  176.0250  137.9100 C   0  0  0  0  0  2  0  0  0  0  0  0
  182.3940  180.1070  138.7480 C   0  0  0  0  0  1  0  0  0  0  0  0
  182.7530  176.3290  139.2900 C   0  0  0  0  0  2  0  0  0  0  0  0
  189.0170  179.2260  137.2980 C   0  0  0  0  0  2  0  0  0  0  0  0
  187.4150  176.9880  138.5690 C   0  0  0  0  0  2  0  0  0  0  0  0
  189.3990  177.7980  137.6310 C   0  0  2  0  0  3  0  0  0  0  0  0
  187.6510  178.3460  139.1860 C   0  0  2  0  0  3  0  0  0  0  0  0
  188.2630  176.9090  137.3910 N   0  0  0  0  0  2  0  0  0  0  0  0
  189.0340  178.7650  138.7430 C   0  0  2  0  0  3  0  0  0  0  0  0
  1  2  2  0  0  0  0
  1  9  1  0  0  0  0
  2 12  1  0  0  0  0
  3  5  1  0  0  0  0
  4 11  1  0  0  0  0
  6  7  1  1  0  0  0
  8 11  2  0  0  0  0
  8  2  1  0  0  0  0
  9  3  1  0  0  0  0
 10  6  1  0  0  0  0
 11 10  1  0  0  0  0
 12  5  2  0  0  0  0
 12  6  1  0  0  0  0
 13  1  1  0  0  0  0
 14 16  1  0  0  0  0
 14 17  1  0  0  0  0
 15 18  1  1  0  0  0
 15 13  1  0  0  0  0
 16 15  1  0  0  0  0
 17 19  1  0  0  0  0
 19 13  1  0  0  0  0
 21 23  1  0  0  0  0
 22 20  1  6  0  0  0
 22 25  1  0  0  0  0
 23  4  1  1  0  0  0
 24 22  1  0  0  0  0
 24 21  1  0  0  0  0
 25 20  1  6  0  0  0
 25 23  1  0  0  0  0
M  END
>  <MODEL>
8

>  <REMARK>
 VINA RESULT:      -6.7      2.741      6.202
  Name = 
  2 active torsions:
  status: ('A' for Active; 'I' for Inactive)
    1  A    between atoms: C_1  and  N_5
    2  A    between atoms: N_6  and  C_15
                            x       y       z     vdW  Elec       q    Type
                         _______ _______ _______ _____ _____    ______ ____

>  <TORSDO>
F 2

$$$$
=
 OpenBabel10262419473D

 25 29  0  0  1  0  0  0  0  0999 V2000
  189.7800  174.2150  136.1590 C   0  0  0  0  0  0  0  0  0  0  0  0
  190.7370  174.6790  136.9820 C   0  0  0  0  0  0  0  0  0  0  0  0
  191.4440  172.6490  135.1450 C   0  0  0  0  0  2  0  0  0  0  0  0
  190.9500  176.9300  139.9240 N   0  0  0  0  0  2  0  0  0  0  0  0
  192.4620  173.4320  135.8520 N   0  0  0  0  0  0  0  0  0  0  0  0
  193.2110  174.9830  137.5820 C   0  0  1  0  0  3  0  0  0  0  0  0
  194.6880  175.3400  136.6460 Cl  0  0  0  0  0  0  0  0  0  0  0  0
  190.4120  175.4700  138.1300 N   0  0  0  0  0  0  0  0  0  0  0  0
  190.1740  173.4720  134.9120 C   0  0  0  0  0  2  0  0  0  0  0  0
  192.7150  176.2770  138.2370 C   0  0  0  0  0  2  0  0  0  0  0  0
  191.3120  176.1590  138.7720 C   0  0  0  0  0  0  0  0  0  0  0  0
  192.1530  174.3540  136.7170 C   0  0  0  0  0  0  0  0  0  0  0  0
  188.3960  174.5280  136.3720 N   0  0  0  0  0  0  0  0  0  0  0  0
  185.6560  175.2750  136.6540 C   0  0  0  0  0  2  0  0  0  0  0  0
  187.3830  173.4630  136.4900 C   0  0  2  0  0  3  0  0  0  0  0  0
  186.1570  173.9660  137.2490 C   0  0  0  0  0  2  0  0  0  0  0  0
  186.7580  176.3210  136.7310 C   0  0  0  0  0  2  0  0  0  0  0  0
  187.9270  172.2450  137.2260 C   0  0  0  0  0  1  0  0  0  0  0  0
  187.9640  175.8520  135.9280 C   0  0  0  0  0  2  0  0  0  0  0  0
  188.4170  176.7080  142.7090 C   0  0  0  0  0  2  0  0  0  0  0  0
  188.8210  178.1390  140.0670 C   0  0  0  0  0  2  0  0  0  0  0  0
  188.6990  178.1650  142.4030 C   0  0  2  0  0  3  0  0  0  0  0  0
  189.6280  176.9560  140.5470 C   0  0  2  0  0  3  0  0  0  0  0  0
  187.9960  178.5650  141.1860 N   0  0  0  0  0  2  0  0  0  0  0  0
  189.7240  177.1030  142.0480 C   0  0  2  0  0  3  0  0  0  0  0  0
  1 13  1  0  0  0  0
  1  2  2  0  0  0  0
  2  8  1  0  0  0  0
  3  5  1  0  0  0  0
  5 12  2  0  0  0  0
  6  7  1  6  0  0  0
  6 10  1  0  0  0  0
  8 11  2  0  0  0  0
  9  3  1  0  0  0  0
  9  1  1  0  0  0  0
 10 11  1  0  0  0  0
 11  4  1  0  0  0  0
 12  2  1  0  0  0  0
 12  6  1  0  0  0  0
 13 15  1  0  0  0  0
 14 17  1  0  0  0  0
 14 16  1  0  0  0  0
 15 18  1  1  0  0  0
 15 16  1  0  0  0  0
 19 13  1  0  0  0  0
 19 17  1  0  0  0  0
 21 23  1  0  0  0  0
 21 24  1  0  0  0  0
 22 20  1  1  0  0  0
 23  4  1  6  0  0  0
 23 25  1  0  0  0  0
 24 22  1  0  0  0  0
 25 22  1  0  0  0  0
 25 20  1  1  0  0  0
M  END
>  <MODEL>
9

>  <REMARK>
 VINA RESULT:      -6.6      5.328      8.450
  Name = 
  2 active torsions:
  status: ('A' for Active; 'I' for Inactive)
    1  A    between atoms: C_1  and  N_5
    2  A    between atoms: N_6  and  C_15
                            x       y       z     vdW  Elec       q    Type
                         _______ _______ _______ _____ _____    ______ ____

>  <TORSDO>
F 2

$$$$
