=
 OpenBabel10262422003D

 30 34  0  0  1  0  0  0  0  0999 V2000
  187.7240  177.6480  145.0430 C   0  0  0  0  0  0  0  0  0  0  0  0
  187.7250  177.7280  147.5460 C   0  0  0  0  0  3  0  0  0  0  0  0
  191.6140  176.6310  143.5680 C   0  0  0  0  0  2  0  0  0  0  0  0
  186.9450  177.7280  143.9260 C   0  0  0  0  0  0  0  0  0  0  0  0
  185.5210  178.1780  144.0300 C   0  0  0  0  0  0  0  0  0  0  0  0
  183.3540  178.7650  143.0690 C   0  0  0  0  0  3  0  0  0  0  0  0
  188.4330  178.7740  140.7760 C   0  0  0  0  0  2  0  0  0  0  0  0
  184.6680  178.3150  142.9060 C   0  0  0  0  0  0  0  0  0  0  0  0
  185.0120  178.5120  145.3000 C   0  0  0  0  0  0  0  0  0  0  0  0
  189.8880  177.0610  142.0060 C   0  0  2  0  0  3  0  0  0  0  0  0
  191.1010  177.6210  142.6240 N   0  0  0  0  0  0  0  0  0  0  0  0
  185.8120  178.3910  146.4330 O   0  0  0  0  0  0  0  0  0  0  0  0
  185.0850  178.0340  141.6470 F   0  0  0  0  0  0  0  0  0  0  0  0
  189.0600  177.2110  147.8730 C   0  0  0  0  0  3  0  0  0  0  0  0
  190.0460  176.2780  140.6890 C   0  0  0  0  0  2  0  0  0  0  0  0
  189.9000  176.3110  138.2210 C   0  0  0  0  0  1  0  0  0  0  0  0
  183.6970  178.9620  145.4480 C   0  0  0  0  0  3  0  0  0  0  0  0
  187.1260  177.9250  146.3720 C   0  0  0  0  0  0  0  0  0  0  0  0
  191.5640  177.1710  145.0060 C   0  0  0  0  0  2  0  0  0  0  0  0
  191.2440  176.4620  147.7350 O   0  0  0  0  0  1  0  0  0  0  0  0
  182.8690  179.0870  144.3340 C   0  0  0  0  0  3  0  0  0  0  0  0
  189.1640  177.4490  144.8480 C   0  0  0  0  0  3  0  0  0  0  0  0
  187.4600  177.2630  142.5720 C   0  0  0  0  0  2  0  0  0  0  0  0
  192.1490  177.8970  141.6480 C   0  0  0  0  0  1  0  0  0  0  0  0
  188.6900  178.0210  142.0820 C   0  0  2  0  0  3  0  0  0  0  0  0
  189.8240  177.1670  139.4700 C   0  0  1  0  0  3  0  0  0  0  0  0
  188.2250  178.6030  138.4270 F   0  0  0  0  0  0  0  0  0  0  0  0
  190.1120  176.9560  147.0970 C   0  0  0  0  0  0  0  0  0  0  0  0
  190.1910  177.1770  145.6420 C   0  0  0  0  0  0  0  0  0  0  0  0
  188.4610  177.8510  139.5640 C   0  0  2  0  0  3  0  0  0  0  0  0
  1 18  1  0  0  0  0
  2 14  1  0  0  0  0
  3 19  1  0  0  0  0
  4  5  1  0  0  0  0
  4  1  2  0  0  0  0
  5  9  1  0  0  0  0
  6 21  2  0  0  0  0
  8  6  1  0  0  0  0
  8  5  2  0  0  0  0
  9 17  2  0  0  0  0
  9 12  1  0  0  0  0
 10 15  1  6  0  0  0
 10 25  1  0  0  0  0
 10 11  1  0  0  0  0
 11  3  1  0  0  0  0
 13  8  1  0  0  0  0
 18 12  1  0  0  0  0
 18  2  2  0  0  0  0
 19 29  1  0  0  0  0
 21 17  1  0  0  0  0
 22  1  1  0  0  0  0
 22 29  2  0  0  0  0
 23  4  1  0  0  0  0
 24 11  1  0  0  0  0
 25  7  1  6  0  0  0
 25 23  1  0  0  0  0
 26 16  1  6  0  0  0
 26 30  1  0  0  0  0
 26 15  1  0  0  0  0
 28 20  1  0  0  0  0
 28 14  2  0  0  0  0
 29 28  1  0  0  0  0
 30 27  1  6  0  0  0
 30  7  1  0  0  0  0
M  END
>  <MODEL>
1

>  <REMARK>
 VINA RESULT:     -12.9      0.000      0.000
  Name = 
  0 active torsions:
  status: ('A' for Active; 'I' for Inactive)
                            x       y       z     vdW  Elec       q    Type
                         _______ _______ _______ _____ _____    ______ ____

>  <TORSDO>
F 0

$$$$
=
 OpenBabel10262422003D

 30 34  0  0  1  0  0  0  0  0999 V2000
  186.3800  178.1010  144.8310 C   0  0  0  0  0  0  0  0  0  0  0  0
  185.6560  178.4520  147.2010 C   0  0  0  0  0  3  0  0  0  0  0  0
  190.5750  177.2590  144.6470 C   0  0  0  0  0  2  0  0  0  0  0  0
  185.9530  177.9940  143.5390 C   0  0  0  0  0  0  0  0  0  0  0  0
  184.5390  178.3320  143.1820 C   0  0  0  0  0  0  0  0  0  0  0  0
  182.7150  178.6280  141.5840 C   0  0  0  0  0  3  0  0  0  0  0  0
  188.2320  178.8120  140.8260 C   0  0  0  0  0  2  0  0  0  0  0  0
  184.0410  178.2740  141.8550 C   0  0  0  0  0  0  0  0  0  0  0  0
  183.6700  178.7580  144.2040 C   0  0  0  0  0  0  0  0  0  0  0  0
  189.3530  177.3710  142.6230 C   0  0  2  0  0  3  0  0  0  0  0  0
  190.3080  178.0940  143.4790 N   0  0  0  0  0  0  0  0  0  0  0  0
  184.1140  178.8280  145.5220 O   0  0  0  0  0  0  0  0  0  0  0  0
  184.8170  177.8940  140.8110 F   0  0  0  0  0  0  0  0  0  0  0  0
  186.8630  178.0870  147.9530 C   0  0  0  0  0  3  0  0  0  0  0  0
  189.9220  176.4650  141.5140 C   0  0  0  0  0  2  0  0  0  0  0  0
  190.4930  176.2170  139.1210 C   0  0  0  0  0  1  0  0  0  0  0  0
  182.3480  179.1090  143.9190 C   0  0  0  0  0  3  0  0  0  0  0  0
  185.4110  178.4700  145.8920 C   0  0  0  0  0  0  0  0  0  0  0  0
  190.0860  177.9460  145.9330 C   0  0  0  0  0  2  0  0  0  0  0  0
  189.0280  177.5130  148.5300 O   0  0  0  0  0  1  0  0  0  0  0  0
  181.8700  179.0430  142.6120 C   0  0  0  0  0  3  0  0  0  0  0  0
  187.8230  178.0030  145.0740 C   0  0  0  0  0  3  0  0  0  0  0  0
  186.8580  177.4290  142.4540 C   0  0  0  0  0  2  0  0  0  0  0  0
  191.5780  178.3490  142.8080 C   0  0  0  0  0  1  0  0  0  0  0  0
  188.1390  178.2290  142.2370 C   0  0  2  0  0  3  0  0  0  0  0  0
  190.0180  177.1950  140.1780 C   0  0  1  0  0  3  0  0  0  0  0  0
  188.7200  178.3700  138.5540 F   0  0  0  0  0  0  0  0  0  0  0  0
  188.1050  177.8380  147.5430 C   0  0  0  0  0  0  0  0  0  0  0  0
  188.5890  177.9060  146.1520 C   0  0  0  0  0  0  0  0  0  0  0  0
  188.6550  177.7680  139.7980 C   0  0  2  0  0  3  0  0  0  0  0  0
  1 22  1  0  0  0  0
  1 18  1  0  0  0  0
  2 14  1  0  0  0  0
  3 19  1  0  0  0  0
  4  1  2  0  0  0  0
  5  4  1  0  0  0  0
  5  9  1  0  0  0  0
  6  8  1  0  0  0  0
  6 21  2  0  0  0  0
  8  5  2  0  0  0  0
  9 12  1  0  0  0  0
 10 15  1  6  0  0  0
 10 11  1  0  0  0  0
 11  3  1  0  0  0  0
 12 18  1  0  0  0  0
 13  8  1  0  0  0  0
 17  9  2  0  0  0  0
 18  2  2  0  0  0  0
 19 29  1  0  0  0  0
 21 17  1  0  0  0  0
 22 29  2  0  0  0  0
 23  4  1  0  0  0  0
 24 11  1  0  0  0  0
 25  7  1  6  0  0  0
 25 23  1  0  0  0  0
 25 10  1  0  0  0  0
 26 16  1  6  0  0  0
 26 15  1  0  0  0  0
 28 14  2  0  0  0  0
 28 20  1  0  0  0  0
 29 28  1  0  0  0  0
 30 27  1  6  0  0  0
 30 26  1  0  0  0  0
 30  7  1  0  0  0  0
M  END
>  <MODEL>
2

>  <REMARK>
 VINA RESULT:     -11.8      1.119      1.531
  Name = 
  0 active torsions:
  status: ('A' for Active; 'I' for Inactive)
                            x       y       z     vdW  Elec       q    Type
                         _______ _______ _______ _____ _____    ______ ____

>  <TORSDO>
F 0

$$$$
=
 OpenBabel10262422003D

 30 34  0  0  1  0  0  0  0  0999 V2000
  186.4820  178.1660  142.3700 C   0  0  0  0  0  0  0  0  0  0  0  0
  184.3660  178.8430  141.2150 C   0  0  0  0  0  3  0  0  0  0  0  0
  185.8810  177.9390  146.6030 C   0  0  0  0  0  2  0  0  0  0  0  0
  187.7700  177.7560  142.1850 C   0  0  0  0  0  0  0  0  0  0  0  0
  188.3900  177.8060  140.8230 C   0  0  0  0  0  0  0  0  0  0  0  0
  190.2590  177.5230  139.2770 C   0  0  0  0  0  3  0  0  0  0  0  0
  190.2380  178.3810  144.7820 C   0  0  0  0  0  2  0  0  0  0  0  0
  189.7330  177.4280  140.5690 C   0  0  0  0  0  0  0  0  0  0  0  0
  187.6150  178.2830  139.7480 C   0  0  0  0  0  0  0  0  0  0  0  0
  188.0380  177.4860  145.7410 C   0  0  2  0  0  3  0  0  0  0  0  0
  187.2240  178.4910  146.4440 N   0  0  0  0  0  0  0  0  0  0  0  0
  186.2910  178.6640  139.9500 O   0  0  0  0  0  0  0  0  0  0  0  0
  190.5520  176.9780  141.5500 F   0  0  0  0  0  0  0  0  0  0  0  0
  183.3890  178.8100  142.3110 C   0  0  0  0  0  3  0  0  0  0  0  0
  188.8400  176.4840  146.5930 C   0  0  0  0  0  2  0  0  0  0  0  0
  191.0200  175.8800  147.5890 C   0  0  0  0  0  1  0  0  0  0  0  0
  188.1540  178.3730  138.4620 C   0  0  0  0  0  3  0  0  0  0  0  0
  185.6720  178.5790  141.1970 C   0  0  0  0  0  0  0  0  0  0  0  0
  184.8510  178.7740  145.8250 C   0  0  0  0  0  2  0  0  0  0  0  0
  182.4000  178.6830  144.3980 O   0  0  0  0  0  1  0  0  0  0  0  0
  189.4740  177.9920  138.2260 C   0  0  0  0  0  3  0  0  0  0  0  0
  186.0190  178.3310  143.7510 C   0  0  0  0  0  3  0  0  0  0  0  0
  188.5720  177.1390  143.3220 C   0  0  0  0  0  2  0  0  0  0  0  0
  187.7430  178.8020  147.7710 C   0  0  0  0  0  1  0  0  0  0  0  0
  188.7650  178.0660  144.5180 C   0  0  2  0  0  3  0  0  0  0  0  0
  190.2700  176.9560  146.8290 C   0  0  1  0  0  3  0  0  0  0  0  0
  192.2730  177.5990  145.6980 F   0  0  0  0  0  0  0  0  0  0  0  0
  183.5560  178.6760  143.6260 C   0  0  0  0  0  0  0  0  0  0  0  0
  184.8460  178.5540  144.3280 C   0  0  0  0  0  0  0  0  0  0  0  0
  190.9540  177.2380  145.4930 C   0  0  2  0  0  3  0  0  0  0  0  0
  1 22  1  0  0  0  0
  2 14  1  0  0  0  0
  4  1  2  0  0  0  0
  4 23  1  0  0  0  0
  5  4  1  0  0  0  0
  6  8  2  0  0  0  0
  7 30  1  0  0  0  0
  8  5  1  0  0  0  0
  8 13  1  0  0  0  0
  9 12  1  0  0  0  0
  9  5  2  0  0  0  0
 10 11  1  0  0  0  0
 10 15  1  1  0  0  0
 11  3  1  0  0  0  0
 11 24  1  0  0  0  0
 12 18  1  0  0  0  0
 14 28  2  0  0  0  0
 15 26  1  0  0  0  0
 17  9  1  0  0  0  0
 18  2  2  0  0  0  0
 18  1  1  0  0  0  0
 19  3  1  0  0  0  0
 21 17  2  0  0  0  0
 21  6  1  0  0  0  0
 22 29  2  0  0  0  0
 25 23  1  6  0  0  0
 25  7  1  0  0  0  0
 25 10  1  0  0  0  0
 26 16  1  6  0  0  0
 28 29  1  0  0  0  0
 28 20  1  0  0  0  0
 29 19  1  0  0  0  0
 30 27  1  1  0  0  0
 30 26  1  0  0  0  0
M  END
>  <MODEL>
3

>  <REMARK>
 VINA RESULT:     -11.3      2.715      6.454
  Name = 
  0 active torsions:
  status: ('A' for Active; 'I' for Inactive)
                            x       y       z     vdW  Elec       q    Type
                         _______ _______ _______ _____ _____    ______ ____

>  <TORSDO>
F 0

$$$$
=
 OpenBabel10262422003D

 30 34  0  0  1  0  0  0  0  0999 V2000
  188.3970  177.6890  142.4960 C   0  0  0  0  0  0  0  0  0  0  0  0
  190.8210  177.4040  141.9400 C   0  0  0  0  0  3  0  0  0  0  0  0
  186.0760  178.1450  138.9260 C   0  0  0  0  0  2  0  0  0  0  0  0
  187.4760  177.6840  143.5030 C   0  0  0  0  0  0  0  0  0  0  0  0
  187.9220  177.6530  144.9320 C   0  0  0  0  0  0  0  0  0  0  0  0
  187.5020  177.6750  147.3380 C   0  0  0  0  0  3  0  0  0  0  0  0
  184.3950  179.5800  143.1230 C   0  0  0  0  0  2  0  0  0  0  0  0
  187.0190  177.6810  146.0260 C   0  0  0  0  0  0  0  0  0  0  0  0
  189.3030  177.6270  145.2060 C   0  0  0  0  0  0  0  0  0  0  0  0
  184.9690  178.2410  141.0150 C   0  0  2  0  0  3  0  0  0  0  0  0
  185.4630  179.0540  139.8910 N   0  0  0  0  0  0  0  0  0  0  0  0
  190.2270  177.5980  144.1640 O   0  0  0  0  0  0  0  0  0  0  0  0
  185.6760  177.7260  145.8490 F   0  0  0  0  0  0  0  0  0  0  0  0
  190.7920  177.2830  140.4770 C   0  0  0  0  0  3  0  0  0  0  0  0
  183.5120  177.7430  140.9590 C   0  0  0  0  0  2  0  0  0  0  0  0
  181.1700  178.0840  141.6720 C   0  0  0  0  0  1  0  0  0  0  0  0
  189.7710  177.6230  146.5220 C   0  0  0  0  0  3  0  0  0  0  0  0
  189.8390  177.5730  142.8240 C   0  0  0  0  0  0  0  0  0  0  0  0
  187.5810  178.4310  138.7870 C   0  0  0  0  0  2  0  0  0  0  0  0
  190.1180  177.2720  138.2640 O   0  0  0  0  0  1  0  0  0  0  0  0
  188.8730  177.6450  147.5870 C   0  0  0  0  0  3  0  0  0  0  0  0
  187.9120  177.9740  141.1420 C   0  0  0  0  0  3  0  0  0  0  0  0
  185.9860  177.6010  143.2090 C   0  0  0  0  0  2  0  0  0  0  0  0
  184.3940  179.7760  139.2120 C   0  0  0  0  0  1  0  0  0  0  0  0
  185.4520  178.7630  142.3770 C   0  0  2  0  0  3  0  0  0  0  0  0
  182.5610  178.6860  141.6880 C   0  0  1  0  0  3  0  0  0  0  0  0
  182.1360  179.6930  143.8120 F   0  0  0  0  0  0  0  0  0  0  0  0
  189.8070  177.4790  139.6030 C   0  0  0  0  0  0  0  0  0  0  0  0
  188.4380  177.9210  139.9250 C   0  0  0  0  0  0  0  0  0  0  0  0
  183.0330  178.8950  143.1250 C   0  0  2  0  0  3  0  0  0  0  0  0
  1 18  1  0  0  0  0
  1  4  2  0  0  0  0
  2 18  2  0  0  0  0
  3 11  1  0  0  0  0
  4  5  1  0  0  0  0
  5  9  2  0  0  0  0
  5  8  1  0  0  0  0
  6 21  1  0  0  0  0
  7 30  1  0  0  0  0
  8  6  2  0  0  0  0
  9 17  1  0  0  0  0
 10 15  1  1  0  0  0
 10 25  1  0  0  0  0
 11 10  1  0  0  0  0
 12  9  1  0  0  0  0
 13  8  1  0  0  0  0
 14  2  1  0  0  0  0
 15 26  1  0  0  0  0
 17 21  2  0  0  0  0
 18 12  1  0  0  0  0
 19  3  1  0  0  0  0
 19 29  1  0  0  0  0
 20 28  1  0  0  0  0
 22  1  1  0  0  0  0
 23  4  1  0  0  0  0
 24 11  1  0  0  0  0
 25  7  1  1  0  0  0
 25 23  1  0  0  0  0
 26 16  1  1  0  0  0
 26 30  1  0  0  0  0
 28 29  1  0  0  0  0
 28 14  2  0  0  0  0
 29 22  2  0  0  0  0
 30 27  1  1  0  0  0
M  END
>  <MODEL>
4

>  <REMARK>
 VINA RESULT:     -11.2      2.777      6.131
  Name = 
  0 active torsions:
  status: ('A' for Active; 'I' for Inactive)
                            x       y       z     vdW  Elec       q    Type
                         _______ _______ _______ _____ _____    ______ ____

>  <TORSDO>
F 0

$$$$
=
 OpenBabel10262422003D

 30 34  0  0  1  0  0  0  0  0999 V2000
  186.3340  178.3450  141.1800 C   0  0  0  0  0  0  0  0  0  0  0  0
  185.9300  178.4670  138.7130 C   0  0  0  0  0  3  0  0  0  0  0  0
  190.4680  177.5780  141.9940 C   0  0  0  0  0  2  0  0  0  0  0  0
  185.7670  178.5010  142.4120 C   0  0  0  0  0  0  0  0  0  0  0  0
  184.2860  178.6770  142.5430 C   0  0  0  0  0  0  0  0  0  0  0  0
  182.2390  178.9470  143.8480 C   0  0  0  0  0  3  0  0  0  0  0  0
  187.1400  176.7000  145.2570 C   0  0  0  0  0  2  0  0  0  0  0  0
  183.6300  178.8110  143.7930 C   0  0  0  0  0  0  0  0  0  0  0  0
  183.5020  178.6790  141.3730 C   0  0  0  0  0  0  0  0  0  0  0  0
  188.9720  177.7650  143.8180 C   0  0  2  0  0  3  0  0  0  0  0  0
  189.7390  176.8110  143.0000 N   0  0  0  0  0  0  0  0  0  0  0  0
  184.1030  178.5520  140.1230 O   0  0  0  0  0  0  0  0  0  0  0  0
  184.3080  178.7990  144.9670 F   0  0  0  0  0  0  0  0  0  0  0  0
  187.2950  178.4220  138.1720 C   0  0  0  0  0  3  0  0  0  0  0  0
  189.6320  178.3110  145.0980 C   0  0  0  0  0  2  0  0  0  0  0  0
  189.8540  178.1490  147.5550 C   0  0  0  0  0  1  0  0  0  0  0  0
  182.1130  178.8140  141.4430 C   0  0  0  0  0  3  0  0  0  0  0  0
  185.4840  178.4390  139.9680 C   0  0  0  0  0  0  0  0  0  0  0  0
  189.9870  177.2190  140.5790 C   0  0  0  0  0  2  0  0  0  0  0  0
  189.5870  178.2070  137.9490 O   0  0  0  0  0  1  0  0  0  0  0  0
  181.4820  178.9500  142.6780 C   0  0  0  0  0  3  0  0  0  0  0  0
  187.7390  177.9270  141.1340 C   0  0  0  0  0  3  0  0  0  0  0  0
  186.6220  178.6100  143.6660 C   0  0  0  0  0  2  0  0  0  0  0  0
  190.7110  176.0590  143.7840 C   0  0  0  0  0  1  0  0  0  0  0  0
  187.4880  177.3830  143.9340 C   0  0  2  0  0  3  0  0  0  0  0  0
  189.2470  177.4970  146.3280 C   0  0  1  0  0  3  0  0  0  0  0  0
  187.3730  176.7570  147.6100 F   0  0  0  0  0  0  0  0  0  0  0  0
  188.4610  178.1670  138.7630 C   0  0  0  0  0  0  0  0  0  0  0  0
  188.6560  177.8200  140.1820 C   0  0  0  0  0  0  0  0  0  0  0  0
  187.7270  177.4350  146.4570 C   0  0  2  0  0  3  0  0  0  0  0  0
  1  4  2  0  0  0  0
  2 18  2  0  0  0  0
  3 11  1  0  0  0  0
  4  5  1  0  0  0  0
  4 23  1  0  0  0  0
  5  8  2  0  0  0  0
  7 30  1  0  0  0  0
  8  6  1  0  0  0  0
  8 13  1  0  0  0  0
  9 17  2  0  0  0  0
  9  5  1  0  0  0  0
 10 25  1  0  0  0  0
 10 15  1  1  0  0  0
 11 24  1  0  0  0  0
 11 10  1  0  0  0  0
 12  9  1  0  0  0  0
 14  2  1  0  0  0  0
 14 28  2  0  0  0  0
 15 26  1  0  0  0  0
 17 21  1  0  0  0  0
 18 12  1  0  0  0  0
 18  1  1  0  0  0  0
 19  3  1  0  0  0  0
 20 28  1  0  0  0  0
 21  6  2  0  0  0  0
 22  1  1  0  0  0  0
 25 23  1  1  0  0  0
 25  7  1  0  0  0  0
 26 30  1  0  0  0  0
 26 16  1  1  0  0  0
 28 29  1  0  0  0  0
 29 19  1  0  0  0  0
 29 22  2  0  0  0  0
 30 27  1  1  0  0  0
M  END
>  <MODEL>
5

>  <REMARK>
 VINA RESULT:     -10.0      2.936      5.631
  Name = 
  0 active torsions:
  status: ('A' for Active; 'I' for Inactive)
                            x       y       z     vdW  Elec       q    Type
                         _______ _______ _______ _____ _____    ______ ____

>  <TORSDO>
F 0

$$$$
