=
 OpenBabel10262421383D

 32 36  0  0  1  0  0  0  0  0999 V2000
  186.8800  178.6530  138.3910 O   0  0  0  0  0  0  0  0  0  0  0  0
  184.6290  178.7870  139.2890 C   0  0  0  0  0  0  0  0  0  0  0  0
  183.2240  178.5140  138.8980 C   0  0  1  0  0  3  0  0  0  0  0  0
  181.8440  178.6100  137.0220 C   0  0  2  0  0  3  0  0  0  0  0  0
  187.7550  177.5670  138.5580 C   0  0  1  0  0  3  0  0  0  0  0  0
  187.6660  176.6130  137.3400 C   0  0  2  0  0  3  0  0  0  0  0  0
  185.1940  177.0370  137.6010 C   0  0  2  0  0  3  0  0  0  0  0  0
  181.2760  179.4780  137.9870 O   0  0  0  0  0  0  0  0  0  0  0  0
  182.2390  179.6450  139.0160 C   0  0  0  0  0  2  0  0  0  0  0  0
  186.3060  176.6960  136.6060 C   0  0  1  0  0  3  0  0  0  0  0  0
  183.9100  177.2080  136.9800 O   0  0  0  0  0  0  0  0  0  0  0  0
  184.9320  179.5500  140.2450 O   0  0  0  0  0  0  0  0  0  0  0  0
  181.0610  177.3040  136.9920 C   0  0  0  0  0  1  0  0  0  0  0  0
  185.6270  178.1320  138.5020 N   0  0  0  0  0  0  0  0  0  0  0  0
  183.2850  178.4000  137.4180 C   0  0  2  0  0  3  0  0  0  0  0  0
  189.2400  174.7640  136.8490 S   0  0  0  0  0  1  0  0  0  0  0  0
  187.8870  175.3010  137.7630 O   0  0  0  0  0  0  0  0  0  0  0  0
  187.7140  177.6740  134.7890 C   0  0  0  0  0  1  0  0  0  0  0  0
  186.3710  177.7330  135.4910 C   0  0  0  0  0  2  0  0  0  0  0  0
  189.1730  178.0870  138.7370 C   0  0  0  0  0  2  0  0  0  0  0  0
  191.0040  177.6170  140.1810 O   0  0  0  0  0  0  0  0  0  0  0  0
  189.7520  177.6340  140.0340 C   0  0  0  0  0  0  0  0  0  0  0  0
  188.9050  177.2450  141.0720 O   0  0  0  0  0  0  0  0  0  0  0  0
  188.9270  177.8890  142.3370 C   0  0  0  0  0  2  0  0  0  0  0  0
  188.4750  177.4930  144.7540 C   0  0  1  0  0  3  0  0  0  0  0  0
  187.4440  176.7170  143.9620 C   0  0  2  0  0  3  0  0  0  0  0  0
  188.8610  176.8460  143.4390 C   0  0  1  0  0  3  0  0  0  0  0  0
  187.0400  177.9770  144.7030 C   0  0  1  0  0  3  0  0  0  0  0  0
  186.3340  177.6040  145.9920 C   0  0  0  0  0  2  0  0  0  0  0  0
  185.4220  178.7050  146.4060 C   0  0  0  0  0  0  0  0  0  0  0  0
  185.7960  179.5440  147.2670 O   0  0  0  0  0  1  0  0  0  0  0  0
  184.1430  178.7850  145.8720 O   0  0  0  0  0  0  0  0  0  0  0  0
  1 14  1  0  0  0  0
  1  5  1  0  0  0  0
  2 12  2  0  0  0  0
  3  9  1  6  0  0  0
  3  2  1  0  0  0  0
  4 13  1  1  0  0  0
  4 15  1  0  0  0  0
  4  8  1  0  0  0  0
  5 20  1  6  0  0  0
  6 17  1  1  0  0  0
  6  5  1  0  0  0  0
  7 11  1  6  0  0  0
  7 14  1  0  0  0  0
  8  9  1  0  0  0  0
 10 19  1  6  0  0  0
 10  6  1  0  0  0  0
 10  7  1  0  0  0  0
 14  2  1  0  0  0  0
 15 11  1  1  0  0  0
 15  3  1  0  0  0  0
 16 17  1  0  0  0  0
 18 19  1  0  0  0  0
 20 22  1  0  0  0  0
 22 21  2  0  0  0  0
 22 23  1  0  0  0  0
 23 24  1  0  0  0  0
 24 27  1  0  0  0  0
 26 28  1  0  0  0  0
 26 25  1  0  0  0  0
 27 26  1  0  0  0  0
 27 25  1  0  0  0  0
 28 25  1  0  0  0  0
 28 29  1  0  0  0  0
 29 30  1  0  0  0  0
 30 31  1  0  0  0  0
 32 30  2  0  0  0  0
M  END
>  <MODEL>
1

>  <REMARK>
 VINA RESULT:      -7.2      0.000      0.000
  Name = 
  9 active torsions:
  status: ('A' for Active; 'I' for Inactive)
    1  A    between atoms: C_1  and  C_10
    2  A    between atoms: C_8  and  C_23
    3  A    between atoms: C_8  and  O_28
    4  A    between atoms: C_9  and  C_14
    5  A    between atoms: C_9  and  C_21
    6  A    between atoms: C_10  and  C_24
    7  A    between atoms: O_13  and  C_15
    8  A    between atoms: C_21  and  O_28
    9  A    between atoms: C_25  and  C_26
                            x       y       z     vdW  Elec       q    Type
                         _______ _______ _______ _____ _____    ______ ____

>  <TORSDO>
F 9

$$$$
=
 OpenBabel10262421383D

 32 36  0  0  1  0  0  0  0  0999 V2000
  189.0580  178.3570  141.2970 O   0  0  0  0  0  0  0  0  0  0  0  0
  187.7720  177.9330  139.2820 C   0  0  0  0  0  0  0  0  0  0  0  0
  187.9520  177.4520  137.8910 C   0  0  1  0  0  3  0  0  0  0  0  0
  189.5170  177.5330  136.1640 C   0  0  2  0  0  3  0  0  0  0  0  0
  189.2320  177.4470  142.3520 C   0  0  1  0  0  3  0  0  0  0  0  0
  190.5600  176.6670  142.1760 C   0  0  2  0  0  3  0  0  0  0  0  0
  189.8040  176.5680  139.7720 C   0  0  2  0  0  3  0  0  0  0  0  0
  188.3340  178.1370  135.6690 O   0  0  0  0  0  0  0  0  0  0  0  0
  187.4750  178.3460  136.7790 C   0  0  0  0  0  2  0  0  0  0  0  0
  191.0210  176.5850  140.7020 C   0  0  1  0  0  3  0  0  0  0  0  0
  190.1540  176.5730  138.3790 O   0  0  0  0  0  0  0  0  0  0  0  0
  186.7680  178.6050  139.6440 O   0  0  0  0  0  0  0  0  0  0  0  0
  189.6300  176.1170  135.6140 C   0  0  0  0  0  1  0  0  0  0  0  0
  188.8200  177.5950  140.1940 N   0  0  0  0  0  0  0  0  0  0  0  0
  189.4190  177.5520  137.6700 C   0  0  2  0  0  3  0  0  0  0  0  0
  191.5660  175.2670  143.9560 S   0  0  0  0  0  1  0  0  0  0  0  0
  190.4090  175.3760  142.6890 O   0  0  0  0  0  0  0  0  0  0  0  0
  193.2790  177.2530  139.8690 C   0  0  0  0  0  1  0  0  0  0  0  0
  191.9390  177.7550  140.3700 C   0  0  0  0  0  2  0  0  0  0  0  0
  189.2180  178.2000  143.6740 C   0  0  0  0  0  2  0  0  0  0  0  0
  187.5600  176.6020  144.2690 O   0  0  0  0  0  0  0  0  0  0  0  0
  188.2820  177.5650  144.6450 C   0  0  0  0  0  0  0  0  0  0  0  0
  188.2220  178.0330  145.9570 O   0  0  0  0  0  0  0  0  0  0  0  0
  187.1880  177.6380  146.8470 C   0  0  0  0  0  2  0  0  0  0  0  0
  185.6330  179.2980  145.8300 C   0  0  1  0  0  3  0  0  0  0  0  0
  184.8350  178.4590  146.8060 C   0  0  2  0  0  3  0  0  0  0  0  0
  186.2740  178.8200  147.1180 C   0  0  1  0  0  3  0  0  0  0  0  0
  184.6530  178.2630  145.3130 C   0  0  1  0  0  3  0  0  0  0  0  0
  183.3810  178.9530  144.8610 C   0  0  0  0  0  2  0  0  0  0  0  0
  183.2200  178.8050  143.3890 C   0  0  0  0  0  0  0  0  0  0  0  0
  182.1150  179.0630  142.8460 O   0  0  0  0  0  1  0  0  0  0  0  0
  184.2800  178.3430  142.6180 O   0  0  0  0  0  0  0  0  0  0  0  0
  1  5  1  0  0  0  0
  2 12  2  0  0  0  0
  2 14  1  0  0  0  0
  3  9  1  6  0  0  0
  3  2  1  0  0  0  0
  4 13  1  6  0  0  0
  4 15  1  0  0  0  0
  5 20  1  1  0  0  0
  6  5  1  0  0  0  0
  6 17  1  6  0  0  0
  7 11  1  6  0  0  0
  7 14  1  0  0  0  0
  7 10  1  0  0  0  0
  8  4  1  0  0  0  0
  8  9  1  0  0  0  0
 10 19  1  6  0  0  0
 10  6  1  0  0  0  0
 14  1  1  0  0  0  0
 15  3  1  0  0  0  0
 15 11  1  1  0  0  0
 17 16  1  0  0  0  0
 18 19  1  0  0  0  0
 20 22  1  0  0  0  0
 21 22  2  0  0  0  0
 22 23  1  0  0  0  0
 23 24  1  0  0  0  0
 24 27  1  0  0  0  0
 25 26  1  0  0  0  0
 25 27  1  0  0  0  0
 26 27  1  0  0  0  0
 28 25  1  0  0  0  0
 28 26  1  0  0  0  0
 29 28  1  0  0  0  0
 30 29  1  0  0  0  0
 31 30  1  0  0  0  0
 32 30  2  0  0  0  0
M  END
>  <MODEL>
2

>  <REMARK>
 VINA RESULT:      -7.2      3.195      5.429
  Name = 
  9 active torsions:
  status: ('A' for Active; 'I' for Inactive)
    1  A    between atoms: C_1  and  C_10
    2  A    between atoms: C_8  and  C_23
    3  A    between atoms: C_8  and  O_28
    4  A    between atoms: C_9  and  C_14
    5  A    between atoms: C_9  and  C_21
    6  A    between atoms: C_10  and  C_24
    7  A    between atoms: O_13  and  C_15
    8  A    between atoms: C_21  and  O_28
    9  A    between atoms: C_25  and  C_26
                            x       y       z     vdW  Elec       q    Type
                         _______ _______ _______ _____ _____    ______ ____

>  <TORSDO>
F 9

$$$$
=
 OpenBabel10262421383D

 32 36  0  0  1  0  0  0  0  0999 V2000
  184.0730  177.9230  141.0430 O   0  0  0  0  0  0  0  0  0  0  0  0
  186.4200  178.5320  141.1670 C   0  0  0  0  0  0  0  0  0  0  0  0
  187.6120  178.6750  140.2960 C   0  0  1  0  0  3  0  0  0  0  0  0
  188.5790  177.6820  138.4210 C   0  0  2  0  0  3  0  0  0  0  0  0
  183.0100  178.8260  140.8820 C   0  0  1  0  0  3  0  0  0  0  0  0
  182.6240  178.9410  139.3860 C   0  0  2  0  0  3  0  0  0  0  0  0
  185.1270  178.9780  139.0790 C   0  0  2  0  0  3  0  0  0  0  0  0
  189.5190  177.5610  139.4750 O   0  0  0  0  0  0  0  0  0  0  0  0
  188.8460  177.9040  140.6760 C   0  0  0  0  0  2  0  0  0  0  0  0
  183.7920  178.5950  138.4320 C   0  0  1  0  0  3  0  0  0  0  0  0
  186.2670  178.6140  138.2840 O   0  0  0  0  0  0  0  0  0  0  0  0
  186.5040  178.4070  142.4190 O   0  0  0  0  0  0  0  0  0  0  0  0
  188.9990  178.8180  137.4970 C   0  0  0  0  0  1  0  0  0  0  0  0
  185.1580  178.5360  140.4940 N   0  0  0  0  0  0  0  0  0  0  0  0
  187.2360  177.9370  139.0620 C   0  0  2  0  0  3  0  0  0  0  0  0
  181.2970  180.1110  137.6500 S   0  0  0  0  0  1  0  0  0  0  0  0
  182.1760  180.2380  139.1220 O   0  0  0  0  0  0  0  0  0  0  0  0
  182.3470  176.5800  138.1320 C   0  0  0  0  0  1  0  0  0  0  0  0
  183.7660  177.1120  138.0820 C   0  0  0  0  0  2  0  0  0  0  0  0
  181.8240  178.3600  141.7130 C   0  0  0  0  0  2  0  0  0  0  0  0
  180.6550  179.3420  143.5370 O   0  0  0  0  0  0  0  0  0  0  0  0
  181.7740  179.0700  143.0230 C   0  0  0  0  0  0  0  0  0  0  0  0
  182.9600  179.4160  143.6700 O   0  0  0  0  0  0  0  0  0  0  0  0
  183.7080  178.4680  144.4180 C   0  0  0  0  0  2  0  0  0  0  0  0
  184.9520  178.0970  146.5440 C   0  0  1  0  0  3  0  0  0  0  0  0
  185.6580  179.2020  145.7870 C   0  0  2  0  0  3  0  0  0  0  0  0
  184.1470  179.0920  145.7310 C   0  0  1  0  0  3  0  0  0  0  0  0
  186.2840  177.8230  145.8730 C   0  0  1  0  0  3  0  0  0  0  0  0
  187.3850  177.8300  146.9140 C   0  0  0  0  0  2  0  0  0  0  0  0
  188.6150  177.2050  146.3550 C   0  0  0  0  0  0  0  0  0  0  0  0
  188.6810  176.9310  145.1280 O   0  0  0  0  0  0  0  0  0  0  0  0
  189.6760  176.8890  147.1930 O   0  0  0  0  0  1  0  0  0  0  0  0
  2 12  2  0  0  0  0
  3  9  1  1  0  0  0
  3  2  1  0  0  0  0
  4 13  1  6  0  0  0
  4 15  1  0  0  0  0
  4  8  1  0  0  0  0
  5  1  1  0  0  0  0
  5 20  1  1  0  0  0
  6 17  1  1  0  0  0
  6  5  1  0  0  0  0
  7 11  1  6  0  0  0
  7 14  1  0  0  0  0
  8  9  1  0  0  0  0
 10 19  1  1  0  0  0
 10  7  1  0  0  0  0
 10  6  1  0  0  0  0
 14  1  1  0  0  0  0
 14  2  1  0  0  0  0
 15 11  1  6  0  0  0
 15  3  1  0  0  0  0
 16 17  1  0  0  0  0
 19 18  1  0  0  0  0
 20 22  1  0  0  0  0
 22 21  2  0  0  0  0
 22 23  1  0  0  0  0
 23 24  1  0  0  0  0
 24 27  1  0  0  0  0
 26 28  1  0  0  0  0
 26 25  1  0  0  0  0
 27 26  1  0  0  0  0
 27 25  1  0  0  0  0
 28 25  1  0  0  0  0
 28 29  1  0  0  0  0
 30 29  1  0  0  0  0
 30 32  1  0  0  0  0
 31 30  2  0  0  0  0
M  END
>  <MODEL>
3

>  <REMARK>
 VINA RESULT:      -7.1      2.775      5.815
  Name = 
  9 active torsions:
  status: ('A' for Active; 'I' for Inactive)
    1  A    between atoms: C_1  and  C_10
    2  A    between atoms: C_8  and  C_23
    3  A    between atoms: C_8  and  O_28
    4  A    between atoms: C_9  and  C_14
    5  A    between atoms: C_9  and  C_21
    6  A    between atoms: C_10  and  C_24
    7  A    between atoms: O_13  and  C_15
    8  A    between atoms: C_21  and  O_28
    9  A    between atoms: C_25  and  C_26
                            x       y       z     vdW  Elec       q    Type
                         _______ _______ _______ _____ _____    ______ ____

>  <TORSDO>
F 9

$$$$
=
 OpenBabel10262421383D

 32 36  0  0  1  0  0  0  0  0999 V2000
  185.8840  178.9680  139.8750 O   0  0  0  0  0  0  0  0  0  0  0  0
  185.5460  178.3210  142.1900 C   0  0  0  0  0  0  0  0  0  0  0  0
  184.4730  178.2490  143.2110 C   0  0  1  0  0  3  0  0  0  0  0  0
  182.5600  179.4060  143.8740 C   0  0  2  0  0  3  0  0  0  0  0  0
  185.8260  178.0970  138.7740 C   0  0  1  0  0  3  0  0  0  0  0  0
  184.4140  178.1310  138.1360 C   0  0  2  0  0  3  0  0  0  0  0  0
  183.6790  178.0940  140.5480 C   0  0  2  0  0  3  0  0  0  0  0  0
  183.4430  179.4140  144.9820 O   0  0  0  0  0  0  0  0  0  0  0  0
  184.7050  178.9650  144.5140 C   0  0  0  0  0  2  0  0  0  0  0  0
  183.3100  178.5530  139.1350 C   0  0  1  0  0  3  0  0  0  0  0  0
  182.7370  178.5190  141.5460 O   0  0  0  0  0  0  0  0  0  0  0  0
  186.7700  178.3240  142.4890 O   0  0  0  0  0  0  0  0  0  0  0  0
  181.4760  178.3600  144.0980 C   0  0  0  0  0  1  0  0  0  0  0  0
  185.1020  178.3980  140.8320 N   0  0  0  0  0  0  0  0  0  0  0  0
  183.3950  179.1070  142.6530 C   0  0  2  0  0  3  0  0  0  0  0  0
  182.6550  177.0970  136.7290 S   0  0  0  0  0  1  0  0  0  0  0  0
  184.1120  176.8710  137.6140 O   0  0  0  0  0  0  0  0  0  0  0  0
  181.7560  180.4010  138.4940 C   0  0  0  0  0  1  0  0  0  0  0  0
  183.1080  180.0630  139.0910 C   0  0  0  0  0  2  0  0  0  0  0  0
  186.8880  178.4950  137.7610 C   0  0  0  0  0  2  0  0  0  0  0  0
  189.0590  179.4090  138.0870 O   0  0  0  0  0  0  0  0  0  0  0  0
  188.2460  178.4900  138.3760 C   0  0  0  0  0  0  0  0  0  0  0  0
  188.5980  177.4790  139.2690 O   0  0  0  0  0  0  0  0  0  0  0  0
  189.2230  177.7620  140.5120 C   0  0  0  0  0  2  0  0  0  0  0  0
  191.2600  177.2530  141.8540 C   0  0  1  0  0  3  0  0  0  0  0  0
  190.2250  176.1940  142.1710 C   0  0  2  0  0  3  0  0  0  0  0  0
  190.3300  176.7530  140.7660 C   0  0  1  0  0  3  0  0  0  0  0  0
  190.5460  177.2690  143.1910 C   0  0  1  0  0  3  0  0  0  0  0  0
  191.4590  176.7010  144.2590 C   0  0  0  0  0  2  0  0  0  0  0  0
  191.0080  177.1500  145.6040 C   0  0  0  0  0  0  0  0  0  0  0  0
  191.6530  176.8150  146.6310 O   0  0  0  0  0  1  0  0  0  0  0  0
  189.8500  177.9080  145.7300 O   0  0  0  0  0  0  0  0  0  0  0  0
  1 14  1  0  0  0  0
  2 12  2  0  0  0  0
  2  3  1  0  0  0  0
  3  9  1  1  0  0  0
  4 13  1  1  0  0  0
  4  8  1  0  0  0  0
  5 20  1  6  0  0  0
  5  1  1  0  0  0  0
  6 17  1  1  0  0  0
  6  5  1  0  0  0  0
  6 10  1  0  0  0  0
  7 14  1  0  0  0  0
  7 11  1  1  0  0  0
  9  8  1  0  0  0  0
 10 19  1  1  0  0  0
 10  7  1  0  0  0  0
 14  2  1  0  0  0  0
 15 11  1  6  0  0  0
 15  3  1  0  0  0  0
 15  4  1  0  0  0  0
 16 17  1  0  0  0  0
 18 19  1  0  0  0  0
 20 22  1  0  0  0  0
 21 22  2  0  0  0  0
 22 23  1  0  0  0  0
 23 24  1  0  0  0  0
 24 27  1  0  0  0  0
 25 26  1  0  0  0  0
 25 28  1  0  0  0  0
 26 28  1  0  0  0  0
 27 25  1  0  0  0  0
 27 26  1  0  0  0  0
 28 29  1  0  0  0  0
 29 30  1  0  0  0  0
 30 32  2  0  0  0  0
 30 31  1  0  0  0  0
M  END
>  <MODEL>
4

>  <REMARK>
 VINA RESULT:      -7.0      2.824      4.719
  Name = 
  9 active torsions:
  status: ('A' for Active; 'I' for Inactive)
    1  A    between atoms: C_1  and  C_10
    2  A    between atoms: C_8  and  C_23
    3  A    between atoms: C_8  and  O_28
    4  A    between atoms: C_9  and  C_14
    5  A    between atoms: C_9  and  C_21
    6  A    between atoms: C_10  and  C_24
    7  A    between atoms: O_13  and  C_15
    8  A    between atoms: C_21  and  O_28
    9  A    between atoms: C_25  and  C_26
                            x       y       z     vdW  Elec       q    Type
                         _______ _______ _______ _____ _____    ______ ____

>  <TORSDO>
F 9

$$$$
=
 OpenBabel10262421383D

 32 36  0  0  1  0  0  0  0  0999 V2000
  183.4140  178.1850  141.8120 O   0  0  0  0  0  0  0  0  0  0  0  0
  184.6840  178.6570  139.7980 C   0  0  0  0  0  0  0  0  0  0  0  0
  184.5780  178.5320  138.3240 C   0  0  1  0  0  3  0  0  0  0  0  0
  183.6890  177.0980  136.7150 C   0  0  2  0  0  3  0  0  0  0  0  0
  182.5750  179.0970  142.4730 C   0  0  1  0  0  3  0  0  0  0  0  0
  181.1070  178.9090  142.0100 C   0  0  2  0  0  3  0  0  0  0  0  0
  182.1890  178.7210  139.7410 C   0  0  2  0  0  3  0  0  0  0  0  0
  185.0860  177.1490  136.4850 O   0  0  0  0  0  0  0  0  0  0  0  0
  185.6720  177.7860  137.6100 C   0  0  0  0  0  2  0  0  0  0  0  0
  180.9940  178.2920  140.5970 C   0  0  1  0  0  3  0  0  0  0  0  0
  182.1950  178.1220  138.4350 O   0  0  0  0  0  0  0  0  0  0  0  0
  185.7880  178.8010  140.3900 O   0  0  0  0  0  0  0  0  0  0  0  0
  182.9760  177.9780  135.6970 C   0  0  0  0  0  1  0  0  0  0  0  0
  183.4480  178.5940  140.5140 N   0  0  0  0  0  0  0  0  0  0  0  0
  183.4620  177.5690  138.1310 C   0  0  2  0  0  3  0  0  0  0  0  0
  179.1410  179.9280  143.1220 S   0  0  0  0  0  1  0  0  0  0  0  0
  180.4540  180.1430  142.0340 O   0  0  0  0  0  0  0  0  0  0  0  0
  179.4700  176.3290  140.8520 C   0  0  0  0  0  1  0  0  0  0  0  0
  180.9110  176.7730  140.6890 C   0  0  0  0  0  2  0  0  0  0  0  0
  182.6990  178.8980  143.9760 C   0  0  0  0  0  2  0  0  0  0  0  0
  184.7600  180.0590  143.7230 O   0  0  0  0  0  0  0  0  0  0  0  0
  184.0310  179.3510  144.4700 C   0  0  0  0  0  0  0  0  0  0  0  0
  184.4510  178.9960  145.7510 O   0  0  0  0  0  0  0  0  0  0  0  0
  185.8270  178.9370  146.0980 C   0  0  0  0  0  2  0  0  0  0  0  0
  187.3860  177.3650  144.9570 C   0  0  1  0  0  3  0  0  0  0  0  0
  187.7670  177.4050  146.4220 C   0  0  2  0  0  3  0  0  0  0  0  0
  186.3100  177.4990  146.0160 C   0  0  1  0  0  3  0  0  0  0  0  0
  188.6460  178.0870  145.3920 C   0  0  1  0  0  3  0  0  0  0  0  0
  189.8540  177.2190  145.1000 C   0  0  0  0  0  2  0  0  0  0  0  0
  190.5840  177.7490  143.9160 C   0  0  0  0  0  0  0  0  0  0  0  0
  191.8330  177.8990  143.9600 O   0  0  0  0  0  1  0  0  0  0  0  0
  189.8830  178.1140  142.7740 O   0  0  0  0  0  0  0  0  0  0  0  0
  1  5  1  0  0  0  0
  2 12  2  0  0  0  0
  2 14  1  0  0  0  0
  3  9  1  1  0  0  0
  3  2  1  0  0  0  0
  4 13  1  6  0  0  0
  4 15  1  0  0  0  0
  5 20  1  1  0  0  0
  6 17  1  6  0  0  0
  6  5  1  0  0  0  0
  7 11  1  6  0  0  0
  7 14  1  0  0  0  0
  7 10  1  0  0  0  0
  8  4  1  0  0  0  0
  8  9  1  0  0  0  0
 10 19  1  1  0  0  0
 10  6  1  0  0  0  0
 14  1  1  0  0  0  0
 15  3  1  0  0  0  0
 15 11  1  6  0  0  0
 17 16  1  0  0  0  0
 19 18  1  0  0  0  0
 20 22  1  0  0  0  0
 21 22  2  0  0  0  0
 22 23  1  0  0  0  0
 23 24  1  0  0  0  0
 25 28  1  0  0  0  0
 25 27  1  0  0  0  0
 25 26  1  0  0  0  0
 27 24  1  0  0  0  0
 27 26  1  0  0  0  0
 28 26  1  0  0  0  0
 29 28  1  0  0  0  0
 30 31  1  0  0  0  0
 30 29  1  0  0  0  0
 32 30  2  0  0  0  0
M  END
>  <MODEL>
5

>  <REMARK>
 VINA RESULT:      -6.9      3.222      5.913
  Name = 
  9 active torsions:
  status: ('A' for Active; 'I' for Inactive)
    1  A    between atoms: C_1  and  C_10
    2  A    between atoms: C_8  and  C_23
    3  A    between atoms: C_8  and  O_28
    4  A    between atoms: C_9  and  C_14
    5  A    between atoms: C_9  and  C_21
    6  A    between atoms: C_10  and  C_24
    7  A    between atoms: O_13  and  C_15
    8  A    between atoms: C_21  and  O_28
    9  A    between atoms: C_25  and  C_26
                            x       y       z     vdW  Elec       q    Type
                         _______ _______ _______ _____ _____    ______ ____

>  <TORSDO>
F 9

$$$$
=
 OpenBabel10262421383D

 32 36  0  0  1  0  0  0  0  0999 V2000
  188.5670  178.5780  140.0940 O   0  0  0  0  0  0  0  0  0  0  0  0
  188.7380  177.3600  138.0020 C   0  0  0  0  0  0  0  0  0  0  0  0
  189.6410  176.4160  137.2990 C   0  0  1  0  0  3  0  0  0  0  0  0
  191.9160  175.9670  137.0610 C   0  0  2  0  0  3  0  0  0  0  0  0
  187.8850  178.1310  141.2380 C   0  0  1  0  0  3  0  0  0  0  0  0
  188.8670  177.4330  142.2120 C   0  0  2  0  0  3  0  0  0  0  0  0
  189.7440  176.4110  140.0800 C   0  0  2  0  0  3  0  0  0  0  0  0
  191.4240  176.2660  135.7660 O   0  0  0  0  0  0  0  0  0  0  0  0
  190.1230  176.8070  135.9280 C   0  0  0  0  0  2  0  0  0  0  0  0
  190.1110  176.8500  141.5010 C   0  0  1  0  0  3  0  0  0  0  0  0
  190.8690  175.9290  139.3270 O   0  0  0  0  0  0  0  0  0  0  0  0
  187.8700  178.0470  137.3990 O   0  0  0  0  0  0  0  0  0  0  0  0
  192.0780  174.4590  137.2050 C   0  0  0  0  0  1  0  0  0  0  0  0
  188.9200  177.4510  139.4170 N   0  0  0  0  0  0  0  0  0  0  0  0
  190.9210  176.5290  138.0460 C   0  0  2  0  0  3  0  0  0  0  0  0
  188.9080  176.3840  144.4570 S   0  0  0  0  0  1  0  0  0  0  0  0
  188.1980  176.4120  142.8920 O   0  0  0  0  0  0  0  0  0  0  0  0
  191.6690  178.2240  142.8880 C   0  0  0  0  0  1  0  0  0  0  0  0
  191.2360  177.8770  141.4760 C   0  0  0  0  0  2  0  0  0  0  0  0
  187.2030  179.3130  141.9100 C   0  0  0  0  0  2  0  0  0  0  0  0
  185.3330  179.3750  140.4420 O   0  0  0  0  0  0  0  0  0  0  0  0
  185.7370  179.3160  141.6340 C   0  0  0  0  0  0  0  0  0  0  0  0
  184.8330  179.2430  142.6940 O   0  0  0  0  0  0  0  0  0  0  0  0
  184.9910  178.3060  143.7490 C   0  0  0  0  0  2  0  0  0  0  0  0
  185.0060  178.1170  146.2330 C   0  0  1  0  0  3  0  0  0  0  0  0
  185.6740  179.4260  145.8690 C   0  0  2  0  0  3  0  0  0  0  0  0
  184.5030  178.9200  145.0500 C   0  0  1  0  0  3  0  0  0  0  0  0
  186.5080  178.2630  146.3690 C   0  0  1  0  0  3  0  0  0  0  0  0
  186.8650  178.4830  147.8260 C   0  0  0  0  0  2  0  0  0  0  0  0
  188.1780  177.8490  148.1270 C   0  0  0  0  0  0  0  0  0  0  0  0
  189.1590  178.5610  148.4650 O   0  0  0  0  0  1  0  0  0  0  0  0
  188.3310  176.4750  147.9980 O   0  0  0  0  0  0  0  0  0  0  0  0
  1  5  1  0  0  0  0
  2 14  1  0  0  0  0
  3  9  1  6  0  0  0
  3  2  1  0  0  0  0
  3 15  1  0  0  0  0
  4 13  1  6  0  0  0
  4 15  1  0  0  0  0
  5 20  1  1  0  0  0
  5  6  1  0  0  0  0
  6 17  1  6  0  0  0
  7 11  1  6  0  0  0
  7 10  1  0  0  0  0
  8  9  1  0  0  0  0
  8  4  1  0  0  0  0
 10 19  1  6  0  0  0
 10  6  1  0  0  0  0
 12  2  2  0  0  0  0
 14  7  1  0  0  0  0
 14  1  1  0  0  0  0
 15 11  1  1  0  0  0
 17 16  1  0  0  0  0
 19 18  1  0  0  0  0
 21 22  2  0  0  0  0
 22 20  1  0  0  0  0
 22 23  1  0  0  0  0
 23 24  1  0  0  0  0
 24 27  1  0  0  0  0
 25 28  1  0  0  0  0
 26 25  1  0  0  0  0
 26 28  1  0  0  0  0
 27 26  1  0  0  0  0
 27 25  1  0  0  0  0
 28 29  1  0  0  0  0
 29 30  1  0  0  0  0
 30 31  1  0  0  0  0
 32 30  2  0  0  0  0
M  END
>  <MODEL>
6

>  <REMARK>
 VINA RESULT:      -6.9      3.394      6.163
  Name = 
  9 active torsions:
  status: ('A' for Active; 'I' for Inactive)
    1  A    between atoms: C_1  and  C_10
    2  A    between atoms: C_8  and  C_23
    3  A    between atoms: C_8  and  O_28
    4  A    between atoms: C_9  and  C_14
    5  A    between atoms: C_9  and  C_21
    6  A    between atoms: C_10  and  C_24
    7  A    between atoms: O_13  and  C_15
    8  A    between atoms: C_21  and  O_28
    9  A    between atoms: C_25  and  C_26
                            x       y       z     vdW  Elec       q    Type
                         _______ _______ _______ _____ _____    ______ ____

>  <TORSDO>
F 9

$$$$
=
 OpenBabel10262421383D

 32 36  0  0  1  0  0  0  0  0999 V2000
  186.5860  178.7190  137.9750 O   0  0  0  0  0  0  0  0  0  0  0  0
  184.3770  178.8890  138.9680 C   0  0  0  0  0  0  0  0  0  0  0  0
  182.9630  178.5540  138.6730 C   0  0  1  0  0  3  0  0  0  0  0  0
  181.4930  178.4510  136.8660 C   0  0  2  0  0  3  0  0  0  0  0  0
  187.4940  177.6710  138.1950 C   0  0  1  0  0  3  0  0  0  0  0  0
  187.3710  176.6090  137.0730 C   0  0  2  0  0  3  0  0  0  0  0  0
  184.9040  177.0050  137.4180 C   0  0  2  0  0  3  0  0  0  0  0  0
  180.9510  179.3920  137.7770 O   0  0  0  0  0  0  0  0  0  0  0  0
  181.9570  179.6710  138.7380 C   0  0  0  0  0  2  0  0  0  0  0  0
  185.9760  176.5970  136.4030 C   0  0  1  0  0  3  0  0  0  0  0  0
  183.5890  177.0930  136.8470 O   0  0  0  0  0  0  0  0  0  0  0  0
  184.7070  179.7420  139.8350 O   0  0  0  0  0  0  0  0  0  0  0  0
  180.7420  177.1330  136.9920 C   0  0  0  0  0  1  0  0  0  0  0  0
  185.3530  178.1860  138.1940 N   0  0  0  0  0  0  0  0  0  0  0  0
  182.9570  178.3070  137.2070 C   0  0  2  0  0  3  0  0  0  0  0  0
  187.8930  174.3380  136.2310 S   0  0  0  0  0  1  0  0  0  0  0  0
  187.6440  175.3450  137.6010 O   0  0  0  0  0  0  0  0  0  0  0  0
  187.3500  177.6370  134.5940 C   0  0  0  0  0  1  0  0  0  0  0  0
  185.9630  177.5290  135.1970 C   0  0  0  0  0  2  0  0  0  0  0  0
  188.9060  178.2330  138.2570 C   0  0  0  0  0  2  0  0  0  0  0  0
  190.6930  177.5700  139.6790 O   0  0  0  0  0  0  0  0  0  0  0  0
  189.5150  178.0110  139.5990 C   0  0  0  0  0  0  0  0  0  0  0  0
  188.7820  178.3040  140.7490 O   0  0  0  0  0  0  0  0  0  0  0  0
  189.2600  177.9750  142.0450 C   0  0  0  0  0  2  0  0  0  0  0  0
  188.8080  176.6140  144.0820 C   0  0  1  0  0  3  0  0  0  0  0  0
  187.7120  177.6530  143.9720 C   0  0  2  0  0  3  0  0  0  0  0  0
  188.2870  177.0240  142.7180 C   0  0  1  0  0  3  0  0  0  0  0  0
  188.7880  177.7960  145.0300 C   0  0  1  0  0  3  0  0  0  0  0  0
  188.2410  177.3570  146.3740 C   0  0  0  0  0  2  0  0  0  0  0  0
  189.2510  177.6070  147.4380 C   0  0  0  0  0  0  0  0  0  0  0  0
  188.9630  178.3360  148.4240 O   0  0  0  0  0  1  0  0  0  0  0  0
  190.5270  177.0680  147.3260 O   0  0  0  0  0  0  0  0  0  0  0  0
  1 14  1  0  0  0  0
  1  5  1  0  0  0  0
  2 12  2  0  0  0  0
  3  9  1  6  0  0  0
  3  2  1  0  0  0  0
  4 13  1  1  0  0  0
  4 15  1  0  0  0  0
  4  8  1  0  0  0  0
  5 20  1  6  0  0  0
  6 17  1  1  0  0  0
  6  5  1  0  0  0  0
  7 11  1  6  0  0  0
  7 14  1  0  0  0  0
  8  9  1  0  0  0  0
 10 19  1  6  0  0  0
 10  6  1  0  0  0  0
 10  7  1  0  0  0  0
 14  2  1  0  0  0  0
 15 11  1  1  0  0  0
 15  3  1  0  0  0  0
 16 17  1  0  0  0  0
 18 19  1  0  0  0  0
 20 22  1  0  0  0  0
 22 21  2  0  0  0  0
 22 23  1  0  0  0  0
 23 24  1  0  0  0  0
 24 27  1  0  0  0  0
 25 28  1  0  0  0  0
 26 25  1  0  0  0  0
 26 28  1  0  0  0  0
 27 26  1  0  0  0  0
 27 25  1  0  0  0  0
 28 29  1  0  0  0  0
 29 30  1  0  0  0  0
 30 31  1  0  0  0  0
 32 30  2  0  0  0  0
M  END
>  <MODEL>
7

>  <REMARK>
 VINA RESULT:      -6.9      1.449      1.712
  Name = 
  9 active torsions:
  status: ('A' for Active; 'I' for Inactive)
    1  A    between atoms: C_1  and  C_10
    2  A    between atoms: C_8  and  C_23
    3  A    between atoms: C_8  and  O_28
    4  A    between atoms: C_9  and  C_14
    5  A    between atoms: C_9  and  C_21
    6  A    between atoms: C_10  and  C_24
    7  A    between atoms: O_13  and  C_15
    8  A    between atoms: C_21  and  O_28
    9  A    between atoms: C_25  and  C_26
                            x       y       z     vdW  Elec       q    Type
                         _______ _______ _______ _____ _____    ______ ____

>  <TORSDO>
F 9

$$$$
=
 OpenBabel10262421383D

 32 36  0  0  1  0  0  0  0  0999 V2000
  188.5180  176.7920  142.1710 O   0  0  0  0  0  0  0  0  0  0  0  0
  187.4600  177.9560  144.0190 C   0  0  0  0  0  0  0  0  0  0  0  0
  187.6450  178.2060  145.4690 C   0  0  1  0  0  3  0  0  0  0  0  0
  188.4370  177.1270  147.3780 C   0  0  2  0  0  3  0  0  0  0  0  0
  189.4270  177.3650  141.2670 C   0  0  1  0  0  3  0  0  0  0  0  0
  190.8830  177.0900  141.7220 C   0  0  2  0  0  3  0  0  0  0  0  0
  189.9380  177.6630  143.9880 C   0  0  2  0  0  3  0  0  0  0  0  0
  187.0780  177.4420  147.6250 O   0  0  0  0  0  0  0  0  0  0  0  0
  186.5100  177.8420  146.3870 C   0  0  0  0  0  2  0  0  0  0  0  0
  191.0050  176.8540  143.2450 C   0  0  1  0  0  3  0  0  0  0  0  0
  189.9380  177.4340  145.4060 O   0  0  0  0  0  0  0  0  0  0  0  0
  186.3490  178.1010  143.4410 O   0  0  0  0  0  0  0  0  0  0  0  0
  189.3280  178.1270  148.1030 C   0  0  0  0  0  1  0  0  0  0  0  0
  188.6260  177.5260  143.3120 N   0  0  0  0  0  0  0  0  0  0  0  0
  188.6310  177.1730  145.8820 C   0  0  2  0  0  3  0  0  0  0  0  0
  192.8520  177.4920  140.2710 S   0  0  0  0  0  1  0  0  0  0  0  0
  191.6940  178.1650  141.3500 O   0  0  0  0  0  0  0  0  0  0  0  0
  192.0560  174.8980  144.3900 C   0  0  0  0  0  1  0  0  0  0  0  0
  190.8760  175.3690  143.5620 C   0  0  0  0  0  2  0  0  0  0  0  0
  189.1780  176.8010  139.8760 C   0  0  0  0  0  2  0  0  0  0  0  0
  188.9820  179.0030  138.9990 O   0  0  0  0  0  0  0  0  0  0  0  0
  189.4170  177.8320  138.8270 C   0  0  0  0  0  0  0  0  0  0  0  0
  190.1270  177.4960  137.6750 O   0  0  0  0  0  0  0  0  0  0  0  0
  190.3270  176.1450  137.2860 C   0  0  0  0  0  2  0  0  0  0  0  0
  192.7820  175.9550  136.9110 C   0  0  1  0  0  3  0  0  0  0  0  0
  192.1290  174.7320  136.3010 C   0  0  2  0  0  3  0  0  0  0  0  0
  191.4270  176.0740  136.2420 C   0  0  1  0  0  3  0  0  0  0  0  0
  192.9180  174.6070  137.5910 C   0  0  1  0  0  3  0  0  0  0  0  0
  194.2860  174.0260  137.2950 C   0  0  0  0  0  2  0  0  0  0  0  0
  195.1200  174.0420  138.5280 C   0  0  0  0  0  0  0  0  0  0  0  0
  195.4310  172.9620  139.0940 O   0  0  0  0  0  1  0  0  0  0  0  0
  195.5240  175.2530  139.0770 O   0  0  0  0  0  0  0  0  0  0  0  0
  1 14  1  0  0  0  0
  2  3  1  0  0  0  0
  3 15  1  0  0  0  0
  3  9  1  1  0  0  0
  4  8  1  0  0  0  0
  4 13  1  1  0  0  0
  5 20  1  6  0  0  0
  5  6  1  0  0  0  0
  5  1  1  0  0  0  0
  6 17  1  1  0  0  0
  6 10  1  0  0  0  0
  7 11  1  1  0  0  0
  9  8  1  0  0  0  0
 10 19  1  6  0  0  0
 10  7  1  0  0  0  0
 12  2  2  0  0  0  0
 14  7  1  0  0  0  0
 14  2  1  0  0  0  0
 15 11  1  1  0  0  0
 15  4  1  0  0  0  0
 16 17  1  0  0  0  0
 19 18  1  0  0  0  0
 22 21  2  0  0  0  0
 22 20  1  0  0  0  0
 23 22  1  0  0  0  0
 24 23  1  0  0  0  0
 25 28  1  0  0  0  0
 26 25  1  0  0  0  0
 26 28  1  0  0  0  0
 27 26  1  0  0  0  0
 27 25  1  0  0  0  0
 27 24  1  0  0  0  0
 29 28  1  0  0  0  0
 29 30  1  0  0  0  0
 30 32  2  0  0  0  0
 30 31  1  0  0  0  0
M  END
>  <MODEL>
8

>  <REMARK>
 VINA RESULT:      -6.9      4.293      8.783
  Name = 
  9 active torsions:
  status: ('A' for Active; 'I' for Inactive)
    1  A    between atoms: C_1  and  C_10
    2  A    between atoms: C_8  and  C_23
    3  A    between atoms: C_8  and  O_28
    4  A    between atoms: C_9  and  C_14
    5  A    between atoms: C_9  and  C_21
    6  A    between atoms: C_10  and  C_24
    7  A    between atoms: O_13  and  C_15
    8  A    between atoms: C_21  and  O_28
    9  A    between atoms: C_25  and  C_26
                            x       y       z     vdW  Elec       q    Type
                         _______ _______ _______ _____ _____    ______ ____

>  <TORSDO>
F 9

$$$$
=
 OpenBabel10262421383D

 32 36  0  0  1  0  0  0  0  0999 V2000
  188.9240  178.3840  143.5270 O   0  0  0  0  0  0  0  0  0  0  0  0
  188.1950  177.5630  141.3630 C   0  0  0  0  0  0  0  0  0  0  0  0
  188.7530  177.0890  140.0730 C   0  0  1  0  0  3  0  0  0  0  0  0
  190.5510  177.5020  138.6480 C   0  0  2  0  0  3  0  0  0  0  0  0
  189.1110  177.5930  144.6730 C   0  0  1  0  0  3  0  0  0  0  0  0
  190.5980  177.1760  144.8020 C   0  0  2  0  0  3  0  0  0  0  0  0
  190.3670  176.7900  142.3210 C   0  0  2  0  0  3  0  0  0  0  0  0
  189.3740  177.7600  137.9010 O   0  0  0  0  0  0  0  0  0  0  0  0
  188.2940  177.7840  138.8200 C   0  0  0  0  0  2  0  0  0  0  0  0
  191.3400  177.1580  143.4440 C   0  0  1  0  0  3  0  0  0  0  0  0
  190.9670  176.8290  141.0160 O   0  0  0  0  0  0  0  0  0  0  0  0
  187.0070  177.9660  141.4820 O   0  0  0  0  0  0  0  0  0  0  0  0
  191.1130  176.1430  138.2520 C   0  0  0  0  0  1  0  0  0  0  0  0
  189.0990  177.5430  142.4710 N   0  0  0  0  0  0  0  0  0  0  0  0
  190.1630  177.5560  140.1050 C   0  0  2  0  0  3  0  0  0  0  0  0
  191.6760  176.1280  146.7710 S   0  0  0  0  0  1  0  0  0  0  0  0
  190.6750  175.9120  145.3910 O   0  0  0  0  0  0  0  0  0  0  0  0
  191.9190  179.3850  144.4160 C   0  0  0  0  0  1  0  0  0  0  0  0
  191.9880  178.5110  143.1780 C   0  0  0  0  0  2  0  0  0  0  0  0
  188.6580  178.3690  145.9000 C   0  0  0  0  0  2  0  0  0  0  0  0
  187.9290  177.1070  147.7790 O   0  0  0  0  0  0  0  0  0  0  0  0
  187.6260  177.6120  146.6640 C   0  0  0  0  0  0  0  0  0  0  0  0
  186.3380  177.4790  146.1450 O   0  0  0  0  0  0  0  0  0  0  0  0
  185.4850  178.6000  145.9650 C   0  0  0  0  0  2  0  0  0  0  0  0
  184.2900  178.2540  143.8060 C   0  0  1  0  0  3  0  0  0  0  0  0
  184.1570  179.7170  144.1750 C   0  0  2  0  0  3  0  0  0  0  0  0
  185.4370  178.9690  144.4920 C   0  0  1  0  0  3  0  0  0  0  0  0
  182.9620  178.7920  144.3020 C   0  0  1  0  0  3  0  0  0  0  0  0
  182.0300  179.0010  143.1250 C   0  0  0  0  0  2  0  0  0  0  0  0
  180.6170  178.9970  143.5900 C   0  0  0  0  0  0  0  0  0  0  0  0
  179.9500  180.0650  143.5940 O   0  0  0  0  0  0  0  0  0  0  0  0
  180.0430  177.8220  144.0590 O   0  0  0  0  0  1  0  0  0  0  0  0
  1  5  1  0  0  0  0
  2 12  2  0  0  0  0
  2 14  1  0  0  0  0
  3  9  1  6  0  0  0
  3 15  1  0  0  0  0
  3  2  1  0  0  0  0
  4 13  1  6  0  0  0
  4 15  1  0  0  0  0
  5  6  1  0  0  0  0
  5 20  1  1  0  0  0
  6 17  1  6  0  0  0
  7 11  1  6  0  0  0
  7 14  1  0  0  0  0
  7 10  1  0  0  0  0
  8  4  1  0  0  0  0
  8  9  1  0  0  0  0
 10 19  1  6  0  0  0
 10  6  1  0  0  0  0
 14  1  1  0  0  0  0
 15 11  1  1  0  0  0
 17 16  1  0  0  0  0
 19 18  1  0  0  0  0
 20 22  1  0  0  0  0
 22 21  2  0  0  0  0
 23 22  1  0  0  0  0
 24 23  1  0  0  0  0
 25 26  1  0  0  0  0
 25 28  1  0  0  0  0
 25 27  1  0  0  0  0
 26 28  1  0  0  0  0
 26 27  1  0  0  0  0
 27 24  1  0  0  0  0
 29 30  1  0  0  0  0
 29 28  1  0  0  0  0
 30 31  2  0  0  0  0
 30 32  1  0  0  0  0
M  END
>  <MODEL>
9

>  <REMARK>
 VINA RESULT:      -6.8      3.834      6.990
  Name = 
  9 active torsions:
  status: ('A' for Active; 'I' for Inactive)
    1  A    between atoms: C_1  and  C_10
    2  A    between atoms: C_8  and  C_23
    3  A    between atoms: C_8  and  O_28
    4  A    between atoms: C_9  and  C_14
    5  A    between atoms: C_9  and  C_21
    6  A    between atoms: C_10  and  C_24
    7  A    between atoms: O_13  and  C_15
    8  A    between atoms: C_21  and  O_28
    9  A    between atoms: C_25  and  C_26
                            x       y       z     vdW  Elec       q    Type
                         _______ _______ _______ _____ _____    ______ ____

>  <TORSDO>
F 9

$$$$
