=
 OpenBabel10262421583D

 30 34  0  0  1  0  0  0  0  0999 V2000
  184.9080  177.8430  140.0610 C   0  0  1  0  0  3  0  0  0  0  0  0
  185.5910  178.7830  142.4480 C   0  0  1  0  0  3  0  0  0  0  0  0
  181.1420  178.3910  141.4360 C   0  0  1  0  0  3  0  0  0  0  0  0
  183.7010  177.5760  139.1480 C   0  0  2  0  0  3  0  0  0  0  0  0
  185.9120  178.6490  139.3730 N   0  0  0  0  0  0  0  0  0  0  0  0
  185.9780  177.3760  135.6990 S   0  0  0  0  0  0  0  0  0  0  0  0
  181.8460  176.0810  137.5640 C   0  0  0  0  0  0  0  0  0  0  0  0
  185.5950  177.1430  137.4680 C   0  0  1  0  0  3  0  0  0  0  0  0
  187.1870  179.0340  137.4100 N   0  0  0  0  0  2  0  0  0  0  0  0
  181.0830  177.3610  137.8650 C   0  0  1  0  0  3  0  0  0  0  0  0
  181.2330  177.4730  140.3470 O   0  0  0  0  0  0  0  0  0  0  0  0
  186.2620  178.2860  138.1720 C   0  0  0  0  0  0  0  0  0  0  0  0
  184.0740  177.2270  137.7130 C   0  0  1  0  0  3  0  0  0  0  0  0
  184.9780  178.5640  144.1640 S   0  0  0  0  0  0  0  0  0  0  0  0
  181.1910  175.0070  137.4970 O   0  0  0  0  0  0  0  0  0  0  0  0
  188.6710  177.8080  135.9390 C   0  0  0  0  0  1  0  0  0  0  0  0
  186.8610  177.9620  142.3020 C   0  0  0  0  0  1  0  0  0  0  0  0
  182.4670  178.5590  142.1990 C   0  0  2  0  0  3  0  0  0  0  0  0
  183.6410  179.8150  144.0750 C   0  0  0  0  0  2  0  0  0  0  0  0
  187.3480  178.5390  136.0570 C   0  0  1  0  0  3  0  0  0  0  0  0
  184.5080  178.3220  141.4670 C   0  0  1  0  0  3  0  0  0  0  0  0
  182.8230  178.6630  139.0770 O   0  0  0  0  0  0  0  0  0  0  0  0
  180.4040  179.7040  141.1490 C   0  0  0  0  0  1  0  0  0  0  0  0
  181.5110  178.1490  139.1320 C   0  0  1  0  0  3  0  0  0  0  0  0
  183.9070  174.8410  136.8510 C   0  0  0  0  0  1  0  0  0  0  0  0
  182.3160  179.2270  143.5680 C   0  0  0  0  0  2  0  0  0  0  0  0
  183.4370  179.2170  141.4420 O   0  0  0  0  0  0  0  0  0  0  0  0
  183.2730  176.0700  137.3120 N   0  0  0  0  0  0  0  0  0  0  0  0
  181.0940  178.2400  136.7060 N   0  0  0  0  0  2  0  0  0  0  0  0
  180.3050  179.2990  137.0040 O   0  0  0  0  0  1  0  0  0  0  0  0
  1  5  1  6  0  0  0
  1 21  1  0  0  0  0
  2 17  1  1  0  0  0
  2 14  1  0  0  0  0
  3 23  1  6  0  0  0
  3 18  1  0  0  0  0
  4 22  1  6  0  0  0
  4  1  1  0  0  0  0
  6 20  1  0  0  0  0
  7 10  1  0  0  0  0
  8  6  1  6  0  0  0
  8 13  1  0  0  0  0
  8 12  1  0  0  0  0
  9 12  1  0  0  0  0
 10 29  1  6  0  0  0
 10 24  1  0  0  0  0
 11  3  1  0  0  0  0
 12  5  2  0  0  0  0
 13 28  1  1  0  0  0
 13  4  1  0  0  0  0
 15  7  2  0  0  0  0
 18 26  1  1  0  0  0
 19 14  1  0  0  0  0
 20 16  1  1  0  0  0
 20  9  1  0  0  0  0
 21 27  1  6  0  0  0
 21  2  1  0  0  0  0
 24 22  1  6  0  0  0
 24 11  1  0  0  0  0
 25 28  1  0  0  0  0
 26 19  1  0  0  0  0
 27 18  1  0  0  0  0
 28  7  1  0  0  0  0
 29 30  1  0  0  0  0
M  END
>  <MODEL>
1

>  <REMARK>
 VINA RESULT:      -5.9      0.000      0.000
  Name = 
  1 active torsions:
  status: ('A' for Active; 'I' for Inactive)
    1  A    between atoms: C_10  and  N_15
                            x       y       z     vdW  Elec       q    Type
                         _______ _______ _______ _____ _____    ______ ____

>  <TORSDO>
F 1

$$$$
=
 OpenBabel10262421583D

 30 34  0  0  1  0  0  0  0  0999 V2000
  190.9400  175.7470  137.7330 C   0  0  1  0  0  3  0  0  0  0  0  0
  193.0760  174.2020  137.4150 C   0  0  1  0  0  3  0  0  0  0  0  0
  189.5140  173.6280  134.5940 C   0  0  1  0  0  3  0  0  0  0  0  0
  189.5080  175.9780  137.2260 C   0  0  2  0  0  3  0  0  0  0  0  0
  190.9590  175.6030  139.1860 N   0  0  0  0  0  0  0  0  0  0  0  0
  188.3640  178.1560  140.5520 S   0  0  0  0  0  0  0  0  0  0  0  0
  187.3020  177.3520  136.0300 C   0  0  0  0  0  0  0  0  0  0  0  0
  189.4930  177.5640  139.2470 C   0  0  1  0  0  3  0  0  0  0  0  0
  190.2340  176.4010  141.2990 N   0  0  0  0  0  2  0  0  0  0  0  0
  186.8880  175.8930  135.9320 C   0  0  1  0  0  3  0  0  0  0  0  0
  188.8570  174.8790  134.7950 O   0  0  0  0  0  0  0  0  0  0  0  0
  190.3140  176.4880  139.8910 C   0  0  0  0  0  0  0  0  0  0  0  0
  188.6980  176.9480  138.0760 C   0  0  1  0  0  3  0  0  0  0  0  0
  194.0150  173.5500  135.9790 S   0  0  0  0  0  0  0  0  0  0  0  0
  186.9640  178.1250  135.0940 O   0  0  0  0  0  0  0  0  0  0  0  0
  190.2130  178.4780  142.5470 C   0  0  0  0  0  1  0  0  0  0  0  0
  193.8750  175.3500  138.0080 C   0  0  0  0  0  1  0  0  0  0  0  0
  190.9190  173.5760  135.2170 C   0  0  2  0  0  3  0  0  0  0  0  0
  192.9420  172.0980  135.6640 C   0  0  0  0  0  2  0  0  0  0  0  0
  189.3690  177.4040  141.8880 C   0  0  1  0  0  3  0  0  0  0  0  0
  191.6950  174.6670  136.9400 C   0  0  1  0  0  3  0  0  0  0  0  0
  188.7610  174.7980  137.1490 O   0  0  0  0  0  0  0  0  0  0  0  0
  188.6650  172.3750  134.8360 C   0  0  0  0  0  1  0  0  0  0  0  0
  188.0280  174.8400  135.9450 C   0  0  1  0  0  3  0  0  0  0  0  0
  188.2270  179.3180  137.2850 C   0  0  0  0  0  1  0  0  0  0  0  0
  191.7820  172.4180  134.7090 C   0  0  0  0  0  2  0  0  0  0  0  0
  190.8830  173.5800  136.6120 O   0  0  0  0  0  0  0  0  0  0  0  0
  188.0230  177.8790  137.1710 N   0  0  0  0  0  0  0  0  0  0  0  0
  185.9070  175.5760  136.9580 N   0  0  0  0  0  2  0  0  0  0  0  0
  185.4960  174.3060  136.7350 O   0  0  0  0  0  1  0  0  0  0  0  0
  1  5  1  1  0  0  0
  2 17  1  6  0  0  0
  3 11  1  0  0  0  0
  3 23  1  1  0  0  0
  3 18  1  0  0  0  0
  4 22  1  1  0  0  0
  4  1  1  0  0  0  0
  4 13  1  0  0  0  0
  5 12  2  0  0  0  0
  6 20  1  0  0  0  0
  7 28  1  0  0  0  0
  8 12  1  1  0  0  0
  8  6  1  0  0  0  0
  9 20  1  0  0  0  0
 10 24  1  0  0  0  0
 10  7  1  0  0  0  0
 10 29  1  1  0  0  0
 12  9  1  0  0  0  0
 13 28  1  6  0  0  0
 13  8  1  0  0  0  0
 14  2  1  0  0  0  0
 15  7  2  0  0  0  0
 18 26  1  1  0  0  0
 18 27  1  0  0  0  0
 19 14  1  0  0  0  0
 20 16  1  6  0  0  0
 21 27  1  1  0  0  0
 21  2  1  0  0  0  0
 21  1  1  0  0  0  0
 24 11  1  6  0  0  0
 24 22  1  0  0  0  0
 26 19  1  0  0  0  0
 28 25  1  0  0  0  0
 30 29  1  0  0  0  0
M  END
>  <MODEL>
2

>  <REMARK>
 VINA RESULT:      -5.8      5.255      8.636
  Name = 
  1 active torsions:
  status: ('A' for Active; 'I' for Inactive)
    1  A    between atoms: C_10  and  N_15
                            x       y       z     vdW  Elec       q    Type
                         _______ _______ _______ _____ _____    ______ ____

>  <TORSDO>
F 1

$$$$
=
 OpenBabel10262421583D

 30 34  0  0  1  0  0  0  0  0999 V2000
  187.2210  177.6810  141.0280 C   0  0  1  0  0  3  0  0  0  0  0  0
  188.6620  177.4300  143.2440 C   0  0  1  0  0  3  0  0  0  0  0  0
  184.2650  178.6580  143.6150 C   0  0  1  0  0  3  0  0  0  0  0  0
  185.8410  178.1130  140.5050 C   0  0  2  0  0  3  0  0  0  0  0  0
  188.2870  178.3870  140.3240 N   0  0  0  0  0  0  0  0  0  0  0  0
  187.1490  178.6280  136.6140 S   0  0  0  0  0  0  0  0  0  0  0  0
  183.2940  177.8830  139.2240 C   0  0  0  0  0  0  0  0  0  0  0  0
  187.0720  177.8560  138.2660 C   0  0  1  0  0  3  0  0  0  0  0  0
  189.1920  179.1280  138.2610 N   0  0  0  0  0  2  0  0  0  0  0  0
  183.1220  179.1080  140.1070 C   0  0  1  0  0  3  0  0  0  0  0  0
  183.7980  178.2310  142.3360 O   0  0  0  0  0  0  0  0  0  0  0  0
  188.2330  178.4250  139.0240 C   0  0  0  0  0  0  0  0  0  0  0  0
  185.7660  178.2460  138.9900 C   0  0  1  0  0  3  0  0  0  0  0  0
  188.3700  176.7530  144.9240 S   0  0  0  0  0  0  0  0  0  0  0  0
  182.2960  177.1320  139.0580 O   0  0  0  0  0  0  0  0  0  0  0  0
  189.8050  178.1990  136.1080 C   0  0  0  0  0  1  0  0  0  0  0  0
  189.4920  176.4180  142.4740 C   0  0  0  0  0  1  0  0  0  0  0  0
  185.6860  178.1640  143.9360 C   0  0  2  0  0  3  0  0  0  0  0  0
  187.5860  178.2530  145.6270 C   0  0  0  0  0  2  0  0  0  0  0  0
  188.8880  179.1570  136.8430 C   0  0  1  0  0  3  0  0  0  0  0  0
  187.3120  177.6830  142.5630 C   0  0  1  0  0  3  0  0  0  0  0  0
  185.4200  179.3390  141.0320 O   0  0  0  0  0  0  0  0  0  0  0  0
  184.0100  180.1280  143.9690 C   0  0  0  0  0  1  0  0  0  0  0  0
  184.0510  179.2140  141.3460 C   0  0  1  0  0  3  0  0  0  0  0  0
  184.5800  176.5000  137.5720 C   0  0  0  0  0  1  0  0  0  0  0  0
  186.0650  178.2790  145.4150 C   0  0  0  0  0  2  0  0  0  0  0  0
  186.6550  178.7720  143.1370 O   0  0  0  0  0  0  0  0  0  0  0  0
  184.5380  177.5860  138.5440 N   0  0  0  0  0  0  0  0  0  0  0  0
  183.2150  180.3220  139.3110 N   0  0  0  0  0  2  0  0  0  0  0  0
  182.0320  180.4690  138.6710 O   0  0  0  0  0  1  0  0  0  0  0  0
  1  5  1  6  0  0  0
  1 21  1  0  0  0  0
  2 17  1  6  0  0  0
  2 14  1  0  0  0  0
  3 18  1  0  0  0  0
  3 23  1  6  0  0  0
  4  1  1  0  0  0  0
  4 22  1  1  0  0  0
  6 20  1  0  0  0  0
  7 10  1  0  0  0  0
  8  6  1  6  0  0  0
  8 13  1  0  0  0  0
  8 12  1  0  0  0  0
  9 12  1  0  0  0  0
 10 29  1  6  0  0  0
 10 24  1  0  0  0  0
 11  3  1  0  0  0  0
 12  5  2  0  0  0  0
 13 28  1  6  0  0  0
 13  4  1  0  0  0  0
 14 19  1  0  0  0  0
 15  7  2  0  0  0  0
 18 26  1  1  0  0  0
 20 16  1  6  0  0  0
 20  9  1  0  0  0  0
 21 27  1  6  0  0  0
 21  2  1  0  0  0  0
 24 22  1  6  0  0  0
 24 11  1  0  0  0  0
 25 28  1  0  0  0  0
 26 19  1  0  0  0  0
 27 18  1  0  0  0  0
 28  7  1  0  0  0  0
 30 29  1  0  0  0  0
M  END
>  <MODEL>
3

>  <REMARK>
 VINA RESULT:      -5.7      2.077      3.104
  Name = 
  1 active torsions:
  status: ('A' for Active; 'I' for Inactive)
    1  A    between atoms: C_10  and  N_15
                            x       y       z     vdW  Elec       q    Type
                         _______ _______ _______ _____ _____    ______ ____

>  <TORSDO>
F 1

$$$$
=
 OpenBabel10262421583D

 30 34  0  0  1  0  0  0  0  0999 V2000
  183.5140  176.1210  137.7070 C   0  0  1  0  0  3  0  0  0  0  0  0
  182.5360  173.8940  136.6430 C   0  0  1  0  0  3  0  0  0  0  0  0
  187.0630  174.5760  136.5250 C   0  0  1  0  0  3  0  0  0  0  0  0
  184.8120  176.9220  137.8950 C   0  0  2  0  0  3  0  0  0  0  0  0
  182.4710  176.9520  137.1140 N   0  0  0  0  0  0  0  0  0  0  0  0
  182.8510  180.4680  138.7320 S   0  0  0  0  0  0  0  0  0  0  0  0
  186.9590  178.2190  139.2710 C   0  0  0  0  0  0  0  0  0  0  0  0
  183.1230  178.6640  138.7400 C   0  0  1  0  0  3  0  0  0  0  0  0
  181.3120  179.0220  137.0960 N   0  0  0  0  0  2  0  0  0  0  0  0
  187.5270  178.0070  137.8770 C   0  0  1  0  0  3  0  0  0  0  0  0
  187.1740  175.5650  137.5480 O   0  0  0  0  0  0  0  0  0  0  0  0
  182.2640  178.1280  137.6350 C   0  0  0  0  0  0  0  0  0  0  0  0
  184.5990  178.3330  138.4280 C   0  0  1  0  0  3  0  0  0  0  0  0
  183.0390  172.1290  136.6100 S   0  0  0  0  0  0  0  0  0  0  0  0
  187.7490  178.1310  140.2490 O   0  0  0  0  0  0  0  0  0  0  0  0
  180.1140  180.4460  138.6470 C   0  0  0  0  0  1  0  0  0  0  0  0
  181.3970  174.0330  137.6380 C   0  0  0  0  0  1  0  0  0  0  0  0
  185.6730  173.9200  136.4650 C   0  0  2  0  0  3  0  0  0  0  0  0
  184.2070  172.2650  135.2050 C   0  0  0  0  0  2  0  0  0  0  0  0
  181.3200  180.3230  137.7360 C   0  0  1  0  0  3  0  0  0  0  0  0
  183.7410  174.7510  137.0450 C   0  0  1  0  0  3  0  0  0  0  0  0
  185.5470  177.0520  136.7120 O   0  0  0  0  0  0  0  0  0  0  0  0
  187.6460  174.9520  135.1580 C   0  0  0  0  0  1  0  0  0  0  0  0
  186.9060  176.8600  137.0360 C   0  0  1  0  0  3  0  0  0  0  0  0
  185.1350  178.9260  140.8420 C   0  0  0  0  0  1  0  0  0  0  0  0
  185.6310  172.6230  135.6540 C   0  0  0  0  0  2  0  0  0  0  0  0
  184.6870  174.8030  136.0210 O   0  0  0  0  0  0  0  0  0  0  0  0
  185.5690  178.5580  139.5000 N   0  0  0  0  0  0  0  0  0  0  0  0
  187.4930  179.2500  137.1240 N   0  0  0  0  0  2  0  0  0  0  0  0
  188.7040  179.8370  137.2720 O   0  0  0  0  0  1  0  0  0  0  0  0
  1  5  1  6  0  0  0
  1  4  1  0  0  0  0
  2 21  1  0  0  0  0
  2 17  1  1  0  0  0
  3 23  1  6  0  0  0
  3 11  1  0  0  0  0
  4 22  1  6  0  0  0
  4 13  1  0  0  0  0
  5 12  2  0  0  0  0
  6  8  1  0  0  0  0
  7 28  1  0  0  0  0
  7 15  2  0  0  0  0
  8 12  1  6  0  0  0
  9 12  1  0  0  0  0
  9 20  1  0  0  0  0
 10 29  1  6  0  0  0
 10  7  1  0  0  0  0
 13  8  1  0  0  0  0
 13 28  1  1  0  0  0
 14  2  1  0  0  0  0
 18 26  1  6  0  0  0
 18  3  1  0  0  0  0
 19 26  1  0  0  0  0
 19 14  1  0  0  0  0
 20 16  1  1  0  0  0
 20  6  1  0  0  0  0
 21 27  1  6  0  0  0
 21  1  1  0  0  0  0
 24 22  1  1  0  0  0
 24 11  1  0  0  0  0
 24 10  1  0  0  0  0
 27 18  1  0  0  0  0
 28 25  1  0  0  0  0
 29 30  1  0  0  0  0
M  END
>  <MODEL>
4

>  <REMARK>
 VINA RESULT:      -5.6      3.022      7.009
  Name = 
  1 active torsions:
  status: ('A' for Active; 'I' for Inactive)
    1  A    between atoms: C_10  and  N_15
                            x       y       z     vdW  Elec       q    Type
                         _______ _______ _______ _____ _____    ______ ____

>  <TORSDO>
F 1

$$$$
=
 OpenBabel10262421583D

 30 34  0  0  1  0  0  0  0  0999 V2000
  183.8640  177.5870  139.7590 C   0  0  1  0  0  3  0  0  0  0  0  0
  183.5610  178.9880  141.9940 C   0  0  1  0  0  3  0  0  0  0  0  0
  179.8380  177.2420  139.9790 C   0  0  1  0  0  3  0  0  0  0  0  0
  183.0820  176.8750  138.6430 C   0  0  2  0  0  3  0  0  0  0  0  0
  184.8150  178.5420  139.2000 N   0  0  0  0  0  0  0  0  0  0  0  0
  186.2750  176.8620  136.0110 S   0  0  0  0  0  0  0  0  0  0  0  0
  182.1850  174.7260  136.9820 C   0  0  0  0  0  0  0  0  0  0  0  0
  185.4410  176.7680  137.6320 C   0  0  1  0  0  3  0  0  0  0  0  0
  186.4980  179.0030  137.5930 N   0  0  0  0  0  2  0  0  0  0  0  0
  181.0950  175.7710  136.8060 C   0  0  1  0  0  3  0  0  0  0  0  0
  180.4600  176.2490  139.1650 O   0  0  0  0  0  0  0  0  0  0  0  0
  185.5840  178.1350  138.2310 C   0  0  0  0  0  0  0  0  0  0  0  0
  183.9390  176.4570  137.4560 C   0  0  1  0  0  3  0  0  0  0  0  0
  182.5270  178.8370  143.5030 S   0  0  0  0  0  0  0  0  0  0  0  0
  181.8460  173.5130  136.9730 O   0  0  0  0  0  0  0  0  0  0  0  0
  188.5970  178.0550  136.8380 C   0  0  0  0  0  1  0  0  0  0  0  0
  184.9690  178.5410  142.3510 C   0  0  0  0  0  1  0  0  0  0  0  0
  180.7960  177.8720  141.0050 C   0  0  2  0  0  3  0  0  0  0  0  0
  181.0300  179.6420  142.8170 C   0  0  0  0  0  2  0  0  0  0  0  0
  187.1690  178.3970  136.4590 C   0  0  1  0  0  3  0  0  0  0  0  0
  182.9600  178.1180  140.8850 C   0  0  1  0  0  3  0  0  0  0  0  0
  182.0420  177.6550  138.1260 O   0  0  0  0  0  0  0  0  0  0  0  0
  178.9400  178.2470  139.2480 C   0  0  0  0  0  1  0  0  0  0  0  0
  180.9290  176.8080  137.9490 C   0  0  1  0  0  3  0  0  0  0  0  0
  184.5920  174.0260  137.0930 C   0  0  0  0  0  1  0  0  0  0  0  0
  180.0910  178.6470  142.1200 C   0  0  0  0  0  2  0  0  0  0  0  0
  181.7720  178.6670  140.4020 O   0  0  0  0  0  0  0  0  0  0  0  0
  183.5840  175.0790  137.1120 N   0  0  0  0  0  0  0  0  0  0  0  0
  181.2530  176.4560  135.5330 N   0  0  0  0  0  2  0  0  0  0  0  0
  180.2210  177.3250  135.4190 O   0  0  0  0  0  1  0  0  0  0  0  0
  1  5  1  6  0  0  0
  1 21  1  0  0  0  0
  2 17  1  1  0  0  0
  2 14  1  0  0  0  0
  3 23  1  6  0  0  0
  3 18  1  0  0  0  0
  4 22  1  6  0  0  0
  4  1  1  0  0  0  0
  6 20  1  0  0  0  0
  7 28  1  0  0  0  0
  8  6  1  6  0  0  0
  8 12  1  0  0  0  0
  9 12  1  0  0  0  0
 10 29  1  6  0  0  0
 10  7  1  0  0  0  0
 10 24  1  0  0  0  0
 11  3  1  0  0  0  0
 12  5  2  0  0  0  0
 13 28  1  1  0  0  0
 13  8  1  0  0  0  0
 13  4  1  0  0  0  0
 15  7  2  0  0  0  0
 18 26  1  1  0  0  0
 19 14  1  0  0  0  0
 20 16  1  1  0  0  0
 20  9  1  0  0  0  0
 21 27  1  6  0  0  0
 21  2  1  0  0  0  0
 24 22  1  1  0  0  0
 24 11  1  0  0  0  0
 25 28  1  0  0  0  0
 26 19  1  0  0  0  0
 27 18  1  0  0  0  0
 30 29  1  0  0  0  0
M  END
>  <MODEL>
5

>  <REMARK>
 VINA RESULT:      -5.3      1.416      1.770
  Name = 
  1 active torsions:
  status: ('A' for Active; 'I' for Inactive)
    1  A    between atoms: C_10  and  N_15
                            x       y       z     vdW  Elec       q    Type
                         _______ _______ _______ _____ _____    ______ ____

>  <TORSDO>
F 1

$$$$
=
 OpenBabel10262421583D

 30 34  0  0  1  0  0  0  0  0999 V2000
  183.2310  178.8220  139.5680 C   0  0  1  0  0  3  0  0  0  0  0  0
  185.8230  178.7190  139.0020 C   0  0  1  0  0  3  0  0  0  0  0  0
  184.5220  178.4550  143.3850 C   0  0  1  0  0  3  0  0  0  0  0  0
  182.2320  178.8750  140.7350 C   0  0  2  0  0  3  0  0  0  0  0  0
  182.9940  179.9170  138.6310 N   0  0  0  0  0  0  0  0  0  0  0  0
  179.1330  180.3170  138.4050 S   0  0  0  0  0  0  0  0  0  0  0  0
  180.0790  178.0500  142.4280 C   0  0  0  0  0  0  0  0  0  0  0  0
  180.6200  179.3330  138.7880 C   0  0  1  0  0  3  0  0  0  0  0  0
  181.4370  181.1870  137.3710 N   0  0  0  0  0  2  0  0  0  0  0  0
  180.8500  179.0230  143.3060 C   0  0  1  0  0  3  0  0  0  0  0  0
  183.1550  178.0900  143.1990 O   0  0  0  0  0  0  0  0  0  0  0  0
  181.7700  180.1200  138.2350 C   0  0  0  0  0  0  0  0  0  0  0  0
  180.8030  179.1910  140.3140 C   0  0  1  0  0  3  0  0  0  0  0  0
  187.2580  177.7520  139.6160 S   0  0  0  0  0  0  0  0  0  0  0  0
  179.5360  177.0580  142.9840 O   0  0  0  0  0  0  0  0  0  0  0  0
  179.6630  180.8110  135.7640 C   0  0  0  0  0  1  0  0  0  0  0  0
  185.4090  178.1340  137.6630 C   0  0  0  0  0  1  0  0  0  0  0  0
  185.3500  178.3860  142.0910 C   0  0  2  0  0  3  0  0  0  0  0  0
  187.6340  178.8190  141.0570 C   0  0  0  0  0  2  0  0  0  0  0  0
  180.0100  181.3220  137.1480 C   0  0  1  0  0  3  0  0  0  0  0  0
  184.6870  178.6330  140.0270 C   0  0  1  0  0  3  0  0  0  0  0  0
  182.5790  179.8200  141.7050 O   0  0  0  0  0  0  0  0  0  0  0  0
  184.7750  179.7070  144.2340 C   0  0  0  0  0  1  0  0  0  0  0  0
  182.3500  179.2340  142.9660 C   0  0  1  0  0  3  0  0  0  0  0  0
  179.0150  177.3840  140.2550 C   0  0  0  0  0  1  0  0  0  0  0  0
  186.8630  178.4020  142.3180 C   0  0  0  0  0  2  0  0  0  0  0  0
  184.9860  179.3720  141.1730 O   0  0  0  0  0  0  0  0  0  0  0  0
  179.9160  178.2530  141.0030 N   0  0  0  0  0  0  0  0  0  0  0  0
  180.1670  180.3060  143.3590 N   0  0  0  0  0  2  0  0  0  0  0  0
  178.9320  180.0770  143.8650 O   0  0  0  0  0  1  0  0  0  0  0  0
  1  5  1  1  0  0  0
  1 21  1  0  0  0  0
  1  4  1  0  0  0  0
  2 17  1  6  0  0  0
  2 14  1  0  0  0  0
  2 21  1  0  0  0  0
  3 23  1  6  0  0  0
  4 22  1  1  0  0  0
  6  8  1  0  0  0  0
  7 15  2  0  0  0  0
  7 10  1  0  0  0  0
  8 12  1  1  0  0  0
  8 13  1  0  0  0  0
  9 12  1  0  0  0  0
 10 29  1  6  0  0  0
 11  3  1  0  0  0  0
 12  5  2  0  0  0  0
 13  4  1  0  0  0  0
 13 28  1  6  0  0  0
 14 19  1  0  0  0  0
 18 26  1  1  0  0  0
 18  3  1  0  0  0  0
 19 26  1  0  0  0  0
 20 16  1  6  0  0  0
 20  9  1  0  0  0  0
 20  6  1  0  0  0  0
 21 27  1  1  0  0  0
 24 22  1  6  0  0  0
 24 11  1  0  0  0  0
 24 10  1  0  0  0  0
 25 28  1  0  0  0  0
 27 18  1  0  0  0  0
 28  7  1  0  0  0  0
 29 30  1  0  0  0  0
M  END
>  <MODEL>
6

>  <REMARK>
 VINA RESULT:      -5.1      3.050      5.249
  Name = 
  1 active torsions:
  status: ('A' for Active; 'I' for Inactive)
    1  A    between atoms: C_10  and  N_15
                            x       y       z     vdW  Elec       q    Type
                         _______ _______ _______ _____ _____    ______ ____

>  <TORSDO>
F 1

$$$$
=
 OpenBabel10262421583D

 30 34  0  0  1  0  0  0  0  0999 V2000
  188.4890  177.1550  140.7530 C   0  0  1  0  0  3  0  0  0  0  0  0
  187.6460  177.8970  143.1590 C   0  0  1  0  0  3  0  0  0  0  0  0
  184.8430  178.4650  139.5820 C   0  0  1  0  0  3  0  0  0  0  0  0
  188.1070  177.1620  139.2640 C   0  0  2  0  0  3  0  0  0  0  0  0
  189.8100  177.7420  140.9530 N   0  0  0  0  0  0  0  0  0  0  0  0
  191.9830  176.5360  137.9620 S   0  0  0  0  0  0  0  0  0  0  0  0
  187.4660  176.1130  136.6810 C   0  0  0  0  0  0  0  0  0  0  0  0
  190.5400  176.3630  139.0650 C   0  0  1  0  0  3  0  0  0  0  0  0
  192.0780  177.8780  140.2700 N   0  0  0  0  0  2  0  0  0  0  0  0
  186.8940  177.5210  136.6290 C   0  0  1  0  0  3  0  0  0  0  0  0
  185.4580  177.5630  138.6620 O   0  0  0  0  0  0  0  0  0  0  0  0
  190.7780  177.3310  140.1850 C   0  0  0  0  0  0  0  0  0  0  0  0
  189.2420  176.7630  138.3310 C   0  0  1  0  0  3  0  0  0  0  0  0
  186.0620  177.7880  144.0810 S   0  0  0  0  0  0  0  0  0  0  0  0
  186.8450  175.2020  136.0720 O   0  0  0  0  0  0  0  0  0  0  0  0
  193.9460  176.3880  139.8660 C   0  0  0  0  0  1  0  0  0  0  0  0
  188.5760  176.8290  143.7090 C   0  0  0  0  0  1  0  0  0  0  0  0
  185.3940  178.3390  141.0120 C   0  0  2  0  0  3  0  0  0  0  0  0
  185.2970  179.2930  143.3700 C   0  0  0  0  0  2  0  0  0  0  0  0
  192.9790  177.3790  139.2490 C   0  0  1  0  0  3  0  0  0  0  0  0
  187.3710  177.6880  141.6660 C   0  0  1  0  0  3  0  0  0  0  0  0
  187.6520  178.4100  138.8250 O   0  0  0  0  0  0  0  0  0  0  0  0
  184.6660  179.9080  139.0940 C   0  0  0  0  0  1  0  0  0  0  0  0
  186.5410  178.1830  137.9880 C   0  0  1  0  0  3  0  0  0  0  0  0
  189.2910  174.4770  137.2180 C   0  0  0  0  0  1  0  0  0  0  0  0
  184.5180  179.0050  142.0770 C   0  0  0  0  0  2  0  0  0  0  0  0
  186.7110  178.7880  141.1170 O   0  0  0  0  0  0  0  0  0  0  0  0
  188.7070  175.8050  137.3620 N   0  0  0  0  0  0  0  0  0  0  0  0
  187.7690  178.3940  135.8630 N   0  0  0  0  0  2  0  0  0  0  0  0
  187.9410  177.8180  134.6500 O   0  0  0  0  0  1  0  0  0  0  0  0
  1  5  1  6  0  0  0
  1 21  1  0  0  0  0
  2 17  1  1  0  0  0
  2 14  1  0  0  0  0
  3 23  1  6  0  0  0
  3 18  1  0  0  0  0
  4 22  1  6  0  0  0
  4  1  1  0  0  0  0
  6 20  1  0  0  0  0
  7 28  1  0  0  0  0
  8  6  1  6  0  0  0
  8 12  1  0  0  0  0
 10 29  1  1  0  0  0
 10  7  1  0  0  0  0
 10 24  1  0  0  0  0
 11  3  1  0  0  0  0
 12  9  1  0  0  0  0
 12  5  2  0  0  0  0
 13 28  1  1  0  0  0
 13  8  1  0  0  0  0
 13  4  1  0  0  0  0
 15  7  2  0  0  0  0
 18 27  1  0  0  0  0
 18 26  1  1  0  0  0
 19 14  1  0  0  0  0
 20 16  1  1  0  0  0
 20  9  1  0  0  0  0
 21 27  1  6  0  0  0
 21  2  1  0  0  0  0
 24 11  1  1  0  0  0
 24 22  1  0  0  0  0
 25 28  1  0  0  0  0
 26 19  1  0  0  0  0
 30 29  1  0  0  0  0
M  END
>  <MODEL>
7

>  <REMARK>
 VINA RESULT:      -4.9      3.656      4.940
  Name = 
  1 active torsions:
  status: ('A' for Active; 'I' for Inactive)
    1  A    between atoms: C_10  and  N_15
                            x       y       z     vdW  Elec       q    Type
                         _______ _______ _______ _____ _____    ______ ____

>  <TORSDO>
F 1

$$$$
=
 OpenBabel10262421583D

 30 34  0  0  1  0  0  0  0  0999 V2000
  185.3400  175.8990  136.2700 C   0  0  1  0  0  3  0  0  0  0  0  0
  182.6920  175.7580  136.1580 C   0  0  1  0  0  3  0  0  0  0  0  0
  184.6070  178.9760  138.7940 C   0  0  1  0  0  3  0  0  0  0  0  0
  186.5010  176.6220  136.9710 C   0  0  2  0  0  3  0  0  0  0  0  0
  185.4880  174.4510  136.3810 N   0  0  0  0  0  0  0  0  0  0  0  0
  189.2880  173.7260  135.9920 S   0  0  0  0  0  0  0  0  0  0  0  0
  188.8390  178.2480  137.2490 C   0  0  0  0  0  0  0  0  0  0  0  0
  187.8290  174.7950  135.7500 C   0  0  1  0  0  3  0  0  0  0  0  0
  186.9000  172.5520  136.2180 N   0  0  0  0  0  2  0  0  0  0  0  0
  188.2500  178.2540  138.6510 C   0  0  1  0  0  3  0  0  0  0  0  0
  185.9140  178.9960  138.2210 O   0  0  0  0  0  0  0  0  0  0  0  0
  186.6480  173.9360  136.0900 C   0  0  0  0  0  0  0  0  0  0  0  0
  187.8660  175.9970  136.7170 C   0  0  1  0  0  3  0  0  0  0  0  0
  181.3190  176.9740  136.0790 S   0  0  0  0  0  0  0  0  0  0  0  0
  189.4110  179.2950  136.8450 O   0  0  0  0  0  0  0  0  0  0  0  0
  188.4000  171.5360  134.6090 C   0  0  0  0  0  1  0  0  0  0  0  0
  182.8770  175.1780  134.7660 C   0  0  0  0  0  1  0  0  0  0  0  0
  183.5970  178.1610  137.9700 C   0  0  2  0  0  3  0  0  0  0  0  0
  181.2080  177.2880  137.8810 C   0  0  0  0  0  2  0  0  0  0  0  0
  188.2830  172.1940  135.9700 C   0  0  1  0  0  3  0  0  0  0  0  0
  183.9610  176.4660  136.6450 C   0  0  1  0  0  3  0  0  0  0  0  0
  186.3440  176.6820  138.3600 O   0  0  0  0  0  0  0  0  0  0  0  0
  184.5390  178.7290  140.3060 C   0  0  0  0  0  1  0  0  0  0  0  0
  186.7280  177.9750  138.7720 C   0  0  1  0  0  3  0  0  0  0  0  0
  189.5410  177.0820  135.1410 C   0  0  0  0  0  1  0  0  0  0  0  0
  182.1350  178.4230  138.3410 C   0  0  0  0  0  2  0  0  0  0  0  0
  183.8670  176.7920  137.9990 O   0  0  0  0  0  0  0  0  0  0  0  0
  188.8000  177.0770  136.3970 N   0  0  0  0  0  0  0  0  0  0  0  0
  188.9920  177.3490  139.5140 N   0  0  0  0  0  2  0  0  0  0  0  0
  188.6510  177.6480  140.7900 O   0  0  0  0  0  1  0  0  0  0  0  0
  1  5  1  1  0  0  0
  1 21  1  0  0  0  0
  1  4  1  0  0  0  0
  2 17  1  6  0  0  0
  2 21  1  0  0  0  0
  3 23  1  1  0  0  0
  4 22  1  1  0  0  0
  7 10  1  0  0  0  0
  8  6  1  1  0  0  0
  8 12  1  0  0  0  0
  8 13  1  0  0  0  0
 10 24  1  0  0  0  0
 10 29  1  1  0  0  0
 11  3  1  0  0  0  0
 12  9  1  0  0  0  0
 12  5  2  0  0  0  0
 13 28  1  6  0  0  0
 13  4  1  0  0  0  0
 14  2  1  0  0  0  0
 14 19  1  0  0  0  0
 15  7  2  0  0  0  0
 18 27  1  0  0  0  0
 18 26  1  1  0  0  0
 18  3  1  0  0  0  0
 19 26  1  0  0  0  0
 20 16  1  6  0  0  0
 20  6  1  0  0  0  0
 20  9  1  0  0  0  0
 21 27  1  1  0  0  0
 22 24  1  0  0  0  0
 24 11  1  6  0  0  0
 25 28  1  0  0  0  0
 28  7  1  0  0  0  0
 29 30  1  0  0  0  0
M  END
>  <MODEL>
8

>  <REMARK>
 VINA RESULT:      -4.8      3.304      6.213
  Name = 
  1 active torsions:
  status: ('A' for Active; 'I' for Inactive)
    1  A    between atoms: C_10  and  N_15
                            x       y       z     vdW  Elec       q    Type
                         _______ _______ _______ _____ _____    ______ ____

>  <TORSDO>
F 1

$$$$
=
 OpenBabel10262421583D

 30 34  0  0  1  0  0  0  0  0999 V2000
  185.9860  178.2300  138.4410 C   0  0  1  0  0  3  0  0  0  0  0  0
  188.5080  177.6940  137.8080 C   0  0  1  0  0  3  0  0  0  0  0  0
  185.1850  176.1850  135.0420 C   0  0  1  0  0  3  0  0  0  0  0  0
  184.5330  177.9570  138.0230 C   0  0  2  0  0  3  0  0  0  0  0  0
  186.1910  177.9040  139.8490 N   0  0  0  0  0  0  0  0  0  0  0  0
  182.9610  179.0350  141.6950 S   0  0  0  0  0  0  0  0  0  0  0  0
  181.8720  178.5210  137.1370 C   0  0  0  0  0  0  0  0  0  0  0  0
  184.1050  179.1140  140.2760 C   0  0  1  0  0  3  0  0  0  0  0  0
  185.4150  178.0550  142.0860 N   0  0  0  0  0  2  0  0  0  0  0  0
  182.0330  177.0450  136.8140 C   0  0  1  0  0  3  0  0  0  0  0  0
  184.1250  177.0420  135.4660 O   0  0  0  0  0  0  0  0  0  0  0  0
  185.3280  178.3610  140.7090 C   0  0  0  0  0  0  0  0  0  0  0  0
  183.4980  178.4080  139.0450 C   0  0  1  0  0  3  0  0  0  0  0  0
  189.4890  177.6630  136.2570 S   0  0  0  0  0  0  0  0  0  0  0  0
  181.1830  179.2250  136.3510 O   0  0  0  0  0  0  0  0  0  0  0  0
  184.7260  179.7660  143.6570 C   0  0  0  0  0  1  0  0  0  0  0  0
  188.8660  178.9660  138.5570 C   0  0  0  0  0  1  0  0  0  0  0  0
  186.5570  176.5940  135.6050 C   0  0  2  0  0  3  0  0  0  0  0  0
  189.0200  175.9690  135.7410 C   0  0  0  0  0  2  0  0  0  0  0  0
  184.2930  178.5520  142.8580 C   0  0  1  0  0  3  0  0  0  0  0  0
  187.0170  177.6480  137.4590 C   0  0  1  0  0  3  0  0  0  0  0  0
  184.2830  176.6030  137.7770 O   0  0  0  0  0  0  0  0  0  0  0  0
  184.8980  174.6800  135.1020 C   0  0  0  0  0  1  0  0  0  0  0  0
  183.4820  176.5250  136.6190 C   0  0  1  0  0  3  0  0  0  0  0  0
  182.0970  180.4960  138.6680 C   0  0  0  0  0  1  0  0  0  0  0  0
  187.7420  175.9440  134.8880 C   0  0  0  0  0  2  0  0  0  0  0  0
  186.6500  176.3890  136.9820 O   0  0  0  0  0  0  0  0  0  0  0  0
  182.4420  179.1220  138.3260 N   0  0  0  0  0  0  0  0  0  0  0  0
  181.3420  176.2330  137.8030 N   0  0  0  0  0  2  0  0  0  0  0  0
  181.3880  174.9520  137.3680 O   0  0  0  0  0  1  0  0  0  0  0  0
  1  5  1  1  0  0  0
  2 17  1  6  0  0  0
  3 23  1  1  0  0  0
  3 11  1  0  0  0  0
  3 18  1  0  0  0  0
  4 22  1  1  0  0  0
  4  1  1  0  0  0  0
  4 13  1  0  0  0  0
  5 12  2  0  0  0  0
  6 20  1  0  0  0  0
  7 28  1  0  0  0  0
  8 12  1  1  0  0  0
  8  6  1  0  0  0  0
  9 20  1  0  0  0  0
 10  7  1  0  0  0  0
 10 29  1  1  0  0  0
 12  9  1  0  0  0  0
 13 28  1  6  0  0  0
 13  8  1  0  0  0  0
 14  2  1  0  0  0  0
 15  7  2  0  0  0  0
 18 26  1  6  0  0  0
 18 27  1  0  0  0  0
 19 14  1  0  0  0  0
 20 16  1  6  0  0  0
 21 27  1  1  0  0  0
 21  2  1  0  0  0  0
 21  1  1  0  0  0  0
 24 11  1  6  0  0  0
 24 10  1  0  0  0  0
 24 22  1  0  0  0  0
 26 19  1  0  0  0  0
 28 25  1  0  0  0  0
 30 29  1  0  0  0  0
M  END
>  <MODEL>
9

>  <REMARK>
 VINA RESULT:      -4.7      2.225      5.853
  Name = 
  1 active torsions:
  status: ('A' for Active; 'I' for Inactive)
    1  A    between atoms: C_10  and  N_15
                            x       y       z     vdW  Elec       q    Type
                         _______ _______ _______ _____ _____    ______ ____

>  <TORSDO>
F 1

$$$$
