=
 OpenBabel10262421273D

 32 37  0  0  1  0  0  0  0  0999 V2000
  190.5700  176.4320  139.6140 C   0  0  1  0  0  3  0  0  0  0  0  0
  193.3220  173.7730  137.2640 F   0  0  0  0  0  0  0  0  0  0  0  0
  189.4340  178.0630  138.0970 C   0  0  1  0  0  3  0  0  0  0  0  0
  188.5740  178.6280  139.2400 C   0  0  1  0  0  3  0  0  0  0  0  0
  187.3720  178.6470  136.7010 C   0  0  2  0  0  3  0  0  0  0  0  0
  193.2000  174.7680  138.1790 C   0  0  0  0  0  3  0  0  0  0  0  0
  192.2820  177.0190  139.3240 S   0  0  0  0  0  0  0  0  0  0  0  0
  192.4920  175.8860  137.9660 C   0  0  0  0  0  0  0  0  0  0  0  0
  190.1480  175.9280  137.0690 C   0  0  2  0  0  3  0  0  0  0  0  0
  186.5910  177.8770  137.7560 C   0  0  0  0  0  2  0  0  0  0  0  0
  187.0990  178.1930  139.1670 C   0  0  0  0  0  2  0  0  0  0  0  0
  191.6360  176.1730  136.7590 C   0  0  2  0  0  3  0  0  0  0  0  0
  189.0950  176.6480  135.7630 S   0  0  0  0  0  0  0  0  0  0  0  0
  189.9780  177.1950  140.7900 C   0  0  0  0  0  0  0  0  0  0  0  0
  189.1300  178.2360  140.5910 C   0  0  0  0  0  3  0  0  0  0  0  0
  186.7910  178.4890  135.4570 F   0  0  0  0  0  0  0  0  0  0  0  0
  189.6880  176.5980  138.3610 C   0  0  1  0  0  3  0  0  0  0  0  0
  188.8440  178.2120  136.6900 C   0  0  2  0  0  3  0  0  0  0  0  0
  189.8050  178.6170  143.7480 C   0  0  0  0  0  2  0  0  0  0  0  0
  190.4040  176.8350  142.2120 C   0  0  1  0  0  0  0  0  0  0  0  0
  190.6430  175.4630  142.3220 O   0  0  0  0  0  1  0  0  0  0  0  0
  191.3140  178.6300  143.6210 C   0  0  0  0  0  2  0  0  0  0  0  0
  191.6800  177.5850  142.5750 C   0  0  0  0  0  2  0  0  0  0  0  0
  189.3890  177.2390  143.2840 C   0  0  2  0  0  3  0  0  0  0  0  0
  187.9260  177.1810  142.8440 C   0  0  0  0  0  2  0  0  0  0  0  0
  187.2850  177.3770  145.2910 C   0  0  0  0  0  3  0  0  0  0  0  0
  185.8980  178.3550  143.6590 N   0  0  0  0  0  0  0  0  0  0  0  0
  186.3290  177.8790  146.1690 C   0  0  0  0  0  3  0  0  0  0  0  0
  187.0250  177.6560  143.9320 C   0  0  0  0  0  0  0  0  0  0  0  0
  185.2350  178.6270  145.1530 S   0  0  0  0  0  0  0  0  0  0  0  0
  193.1600  176.0840  134.7840 C   0  0  0  0  0  2  0  0  0  0  0  0
  192.1170  175.5910  135.4520 C   0  0  0  0  0  3  0  0  0  0  0  0
  1  7  1  6  0  0  0
  1 14  1  0  0  0  0
  2  6  1  0  0  0  0
  3 17  1  0  0  0  0
  3  4  1  0  0  0  0
  4 15  1  0  0  0  0
  5 10  1  0  0  0  0
  8  6  2  0  0  0  0
  8  7  1  0  0  0  0
  9 17  1  0  0  0  0
 10 11  1  0  0  0  0
 11  4  1  0  0  0  0
 12  9  1  0  0  0  0
 12  8  1  0  0  0  0
 13 18  1  0  0  0  0
 13  9  1  0  0  0  0
 14 20  1  0  0  0  0
 15 14  2  0  0  0  0
 16  5  1  0  0  0  0
 17  1  1  0  0  0  0
 18  5  1  0  0  0  0
 18  3  1  0  0  0  0
 20 21  1  0  0  0  0
 20 23  1  0  0  0  0
 20 24  1  0  0  0  0
 22 19  1  0  0  0  0
 23 22  1  0  0  0  0
 24 19  1  0  0  0  0
 25 24  1  0  0  0  0
 25 29  1  0  0  0  0
 26 28  2  0  0  0  0
 27 29  2  0  0  0  0
 27 30  1  0  0  0  0
 29 26  1  0  0  0  0
 30 28  1  0  0  0  0
 31 32  2  0  0  0  0
 32 12  1  0  0  0  0
M  END
>  <MODEL>
1

>  <REMARK>
 VINA RESULT:      -8.2      0.000      0.000
  Name = 
  4 active torsions:
  status: ('A' for Active; 'I' for Inactive)
    1  A    between atoms: C_8  and  C_28
    2  A    between atoms: C_19  and  C_24
    3  A    between atoms: C_23  and  C_24
    4  A    between atoms: C_25  and  C_26
                            x       y       z     vdW  Elec       q    Type
                         _______ _______ _______ _____ _____    ______ ____

>  <TORSDO>
F 4

$$$$
=
 OpenBabel10262421273D

 32 37  0  0  1  0  0  0  0  0999 V2000
  189.5860  176.6750  140.2980 C   0  0  1  0  0  3  0  0  0  0  0  0
  191.3090  174.2260  136.9510 F   0  0  0  0  0  0  0  0  0  0  0  0
  187.9530  178.3420  139.4020 C   0  0  1  0  0  3  0  0  0  0  0  0
  187.5670  178.8210  140.8120 C   0  0  1  0  0  3  0  0  0  0  0  0
  185.5140  178.9290  138.8980 C   0  0  2  0  0  3  0  0  0  0  0  0
  191.5210  175.1700  137.9040 C   0  0  0  0  0  3  0  0  0  0  0  0
  191.0640  177.3300  139.4350 S   0  0  0  0  0  0  0  0  0  0  0  0
  190.7720  176.2730  138.0310 C   0  0  0  0  0  0  0  0  0  0  0  0
  188.2620  176.2860  138.0610 C   0  0  2  0  0  3  0  0  0  0  0  0
  185.1860  178.0820  140.1190 C   0  0  0  0  0  2  0  0  0  0  0  0
  186.1740  178.3430  141.2610 C   0  0  0  0  0  2  0  0  0  0  0  0
  189.5290  176.5930  137.2420 C   0  0  2  0  0  3  0  0  0  0  0  0
  186.7940  177.0350  137.2780 S   0  0  0  0  0  0  0  0  0  0  0  0
  189.4610  177.3580  141.6520 C   0  0  0  0  0  0  0  0  0  0  0  0
  188.5870  178.3800  141.8390 C   0  0  0  0  0  3  0  0  0  0  0  0
  184.5180  178.8140  137.9460 F   0  0  0  0  0  0  0  0  0  0  0  0
  188.3030  176.8740  139.4690 C   0  0  1  0  0  3  0  0  0  0  0  0
  186.8830  178.5420  138.3210 C   0  0  2  0  0  3  0  0  0  0  0  0
  190.2540  178.5470  144.6110 C   0  0  0  0  0  2  0  0  0  0  0  0
  190.3840  176.9420  142.7950 C   0  0  1  0  0  0  0  0  0  0  0  0
  190.7350  175.5940  142.6780 O   0  0  0  0  0  1  0  0  0  0  0  0
  191.6160  178.7120  143.9700 C   0  0  0  0  0  2  0  0  0  0  0  0
  191.6540  177.7830  142.7640 C   0  0  0  0  0  2  0  0  0  0  0  0
  189.7900  177.1720  144.1860 C   0  0  2  0  0  3  0  0  0  0  0  0
  188.2730  177.0060  144.2780 C   0  0  0  0  0  2  0  0  0  0  0  0
  186.5880  178.2380  145.7190 C   0  0  0  0  0  3  0  0  0  0  0  0
  188.4350  177.2020  146.7460 N   0  0  0  0  0  0  0  0  0  0  0  0
  186.2740  178.6040  147.0250 C   0  0  0  0  0  3  0  0  0  0  0  0
  187.7670  177.4720  145.5990 C   0  0  0  0  0  0  0  0  0  0  0  0
  187.5170  177.9320  147.9160 S   0  0  0  0  0  0  0  0  0  0  0  0
  189.9360  176.8220  134.7890 C   0  0  0  0  0  2  0  0  0  0  0  0
  189.5000  176.0930  135.8170 C   0  0  0  0  0  3  0  0  0  0  0  0
  1  7  1  6  0  0  0
  1 14  1  0  0  0  0
  2  6  1  0  0  0  0
  3 17  1  0  0  0  0
  3  4  1  0  0  0  0
  4 11  1  0  0  0  0
  4 15  1  0  0  0  0
  5 10  1  0  0  0  0
  6  8  2  0  0  0  0
  8  7  1  0  0  0  0
  9 17  1  0  0  0  0
 10 11  1  0  0  0  0
 12  8  1  0  0  0  0
 12  9  1  0  0  0  0
 13  9  1  0  0  0  0
 13 18  1  0  0  0  0
 14 15  2  0  0  0  0
 14 20  1  0  0  0  0
 16  5  1  0  0  0  0
 17  1  1  0  0  0  0
 18  5  1  0  0  0  0
 18  3  1  0  0  0  0
 20 24  1  0  0  0  0
 21 20  1  0  0  0  0
 22 19  1  0  0  0  0
 23 20  1  0  0  0  0
 23 22  1  0  0  0  0
 24 25  1  0  0  0  0
 24 19  1  0  0  0  0
 25 29  1  0  0  0  0
 26 28  2  0  0  0  0
 27 30  1  0  0  0  0
 28 30  1  0  0  0  0
 29 26  1  0  0  0  0
 29 27  2  0  0  0  0
 31 32  2  0  0  0  0
 32 12  1  0  0  0  0
M  END
>  <MODEL>
2

>  <REMARK>
 VINA RESULT:      -7.5      1.815      2.118
  Name = 
  4 active torsions:
  status: ('A' for Active; 'I' for Inactive)
    1  A    between atoms: C_8  and  C_28
    2  A    between atoms: C_19  and  C_24
    3  A    between atoms: C_23  and  C_24
    4  A    between atoms: C_25  and  C_26
                            x       y       z     vdW  Elec       q    Type
                         _______ _______ _______ _____ _____    ______ ____

>  <TORSDO>
F 4

$$$$
=
 OpenBabel10262421273D

 32 37  0  0  1  0  0  0  0  0999 V2000
  180.6630  179.6660  139.8070 C   0  0  1  0  0  3  0  0  0  0  0  0
  181.2290  183.2000  137.0960 F   0  0  0  0  0  0  0  0  0  0  0  0
  180.2150  177.6050  138.4650 C   0  0  1  0  0  3  0  0  0  0  0  0
  180.2130  176.7100  139.7160 C   0  0  1  0  0  3  0  0  0  0  0  0
  181.1470  175.4930  137.3640 C   0  0  2  0  0  3  0  0  0  0  0  0
  180.4530  182.5840  138.0230 C   0  0  0  0  0  3  0  0  0  0  0  0
  179.1680  180.5930  139.2910 S   0  0  0  0  0  0  0  0  0  0  0  0
  180.0350  181.3160  137.9130 C   0  0  0  0  0  0  0  0  0  0  0  0
  181.5250  179.3780  137.3410 C   0  0  2  0  0  3  0  0  0  0  0  0
  182.1470  175.4840  138.5120 C   0  0  0  0  0  2  0  0  0  0  0  0
  181.4710  175.8330  139.8420 C   0  0  0  0  0  2  0  0  0  0  0  0
  180.4380  180.3430  136.8340 C   0  0  2  0  0  3  0  0  0  0  0  0
  181.7200  177.9730  136.1930 S   0  0  0  0  0  0  0  0  0  0  0  0
  180.3370  178.8600  141.0560 C   0  0  0  0  0  0  0  0  0  0  0  0
  180.0650  177.5320  140.9780 C   0  0  0  0  0  3  0  0  0  0  0  0
  181.7320  175.0070  136.2090 F   0  0  0  0  0  0  0  0  0  0  0  0
  181.1810  178.7440  138.6860 C   0  0  1  0  0  3  0  0  0  0  0  0
  180.5780  176.9030  137.1510 C   0  0  2  0  0  3  0  0  0  0  0  0
  180.9280  178.0750  144.1920 C   0  0  0  0  0  2  0  0  0  0  0  0
  180.2400  179.5680  142.4060 C   0  0  1  0  0  0  0  0  0  0  0  0
  180.1790  180.9530  142.2320 O   0  0  0  0  0  1  0  0  0  0  0  0
  179.4310  178.2630  144.3240 C   0  0  0  0  0  2  0  0  0  0  0  0
  178.9850  179.1100  143.1390 C   0  0  0  0  0  2  0  0  0  0  0  0
  181.3940  179.2470  143.3580 C   0  0  2  0  0  3  0  0  0  0  0  0
  182.7400  178.9910  142.6810 C   0  0  0  0  0  2  0  0  0  0  0  0
  185.0260  178.1580  143.4000 C   0  0  0  0  0  3  0  0  0  0  0  0
  183.6870  179.3160  144.9510 N   0  0  0  0  0  0  0  0  0  0  0  0
  185.9170  178.0890  144.4680 C   0  0  0  0  0  3  0  0  0  0  0  0
  183.8230  178.8360  143.6920 C   0  0  0  0  0  0  0  0  0  0  0  0
  185.1060  178.8860  145.6900 S   0  0  0  0  0  0  0  0  0  0  0  0
  179.7290  181.1880  134.5940 C   0  0  0  0  0  2  0  0  0  0  0  0
  180.7010  180.9370  135.4710 C   0  0  0  0  0  3  0  0  0  0  0  0
  1  7  1  6  0  0  0
  1 14  1  0  0  0  0
  2  6  1  0  0  0  0
  3 17  1  0  0  0  0
  3  4  1  0  0  0  0
  4 11  1  0  0  0  0
  4 15  1  0  0  0  0
  5 10  1  0  0  0  0
  8  6  2  0  0  0  0
  8  7  1  0  0  0  0
  9 17  1  0  0  0  0
 10 11  1  0  0  0  0
 12  9  1  0  0  0  0
 12  8  1  0  0  0  0
 13 18  1  0  0  0  0
 13  9  1  0  0  0  0
 14 20  1  0  0  0  0
 15 14  2  0  0  0  0
 16  5  1  0  0  0  0
 17  1  1  0  0  0  0
 18  5  1  0  0  0  0
 18  3  1  0  0  0  0
 19 22  1  0  0  0  0
 20 23  1  0  0  0  0
 20 24  1  0  0  0  0
 21 20  1  0  0  0  0
 23 22  1  0  0  0  0
 24 19  1  0  0  0  0
 25 24  1  0  0  0  0
 25 29  1  0  0  0  0
 26 29  1  0  0  0  0
 26 28  2  0  0  0  0
 27 30  1  0  0  0  0
 28 30  1  0  0  0  0
 29 27  2  0  0  0  0
 31 32  2  0  0  0  0
 32 12  1  0  0  0  0
M  END
>  <MODEL>
3

>  <REMARK>
 VINA RESULT:      -7.1      7.026      9.665
  Name = 
  4 active torsions:
  status: ('A' for Active; 'I' for Inactive)
    1  A    between atoms: C_8  and  C_28
    2  A    between atoms: C_19  and  C_24
    3  A    between atoms: C_23  and  C_24
    4  A    between atoms: C_25  and  C_26
                            x       y       z     vdW  Elec       q    Type
                         _______ _______ _______ _____ _____    ______ ____

>  <TORSDO>
F 4

$$$$
=
 OpenBabel10262421273D

 32 37  0  0  1  0  0  0  0  0999 V2000
  181.6910  177.9350  140.2890 C   0  0  1  0  0  3  0  0  0  0  0  0
  185.7910  178.6030  138.5810 F   0  0  0  0  0  0  0  0  0  0  0  0
  180.4040  176.3420  138.8560 C   0  0  1  0  0  3  0  0  0  0  0  0
  179.2110  176.3290  139.8280 C   0  0  1  0  0  3  0  0  0  0  0  0
  179.6540  173.9330  138.4300 C   0  0  2  0  0  3  0  0  0  0  0  0
  184.5650  179.1210  138.8470 C   0  0  0  0  0  3  0  0  0  0  0  0
  181.8870  179.2530  139.0300 S   0  0  0  0  0  0  0  0  0  0  0  0
  183.4180  178.5460  138.4580 C   0  0  0  0  0  0  0  0  0  0  0  0
  182.8670  176.1200  138.7950 C   0  0  2  0  0  3  0  0  0  0  0  0
  179.6800  173.7860  139.9450 C   0  0  0  0  0  2  0  0  0  0  0  0
  179.0930  175.0230  140.6350 C   0  0  0  0  0  2  0  0  0  0  0  0
  183.2880  177.2040  137.7850 C   0  0  2  0  0  3  0  0  0  0  0  0
  182.3260  174.6090  137.9250 S   0  0  0  0  0  0  0  0  0  0  0  0
  180.4100  178.1850  141.0710 C   0  0  0  0  0  0  0  0  0  0  0  0
  179.2770  177.4920  140.7930 C   0  0  0  0  0  3  0  0  0  0  0  0
  180.0210  172.7460  137.8220 F   0  0  0  0  0  0  0  0  0  0  0  0
  181.6730  176.5320  139.6520 C   0  0  1  0  0  3  0  0  0  0  0  0
  180.5560  175.0910  137.9810 C   0  0  2  0  0  3  0  0  0  0  0  0
  180.9500  178.3700  144.3070 C   0  0  0  0  0  2  0  0  0  0  0  0
  180.3770  179.2830  142.1320 C   0  0  1  0  0  0  0  0  0  0  0  0
  180.4280  180.5450  141.5360 O   0  0  0  0  0  1  0  0  0  0  0  0
  179.4740  178.7070  144.3430 C   0  0  0  0  0  2  0  0  0  0  0  0
  179.0930  179.1760  142.9450 C   0  0  0  0  0  2  0  0  0  0  0  0
  181.5060  179.1840  143.1610 C   0  0  2  0  0  3  0  0  0  0  0  0
  182.8240  178.6250  142.6240 C   0  0  0  0  0  2  0  0  0  0  0  0
  185.1750  178.1430  143.4460 C   0  0  0  0  0  3  0  0  0  0  0  0
  183.6480  179.2000  144.8930 N   0  0  0  0  0  0  0  0  0  0  0  0
  186.0330  178.2530  144.5370 C   0  0  0  0  0  3  0  0  0  0  0  0
  183.8850  178.6710  143.6690 C   0  0  0  0  0  0  0  0  0  0  0  0
  185.0870  179.0030  145.6900 S   0  0  0  0  0  0  0  0  0  0  0  0
  184.4380  177.1280  135.5710 C   0  0  0  0  0  2  0  0  0  0  0  0
  184.4180  176.8100  136.8650 C   0  0  0  0  0  3  0  0  0  0  0  0
  1  7  1  6  0  0  0
  1 14  1  0  0  0  0
  2  6  1  0  0  0  0
  3 17  1  0  0  0  0
  3  4  1  0  0  0  0
  4 11  1  0  0  0  0
  4 15  1  0  0  0  0
  5 10  1  0  0  0  0
  8  6  2  0  0  0  0
  8  7  1  0  0  0  0
  9 17  1  0  0  0  0
 10 11  1  0  0  0  0
 12  8  1  0  0  0  0
 12  9  1  0  0  0  0
 13 18  1  0  0  0  0
 13  9  1  0  0  0  0
 14 20  1  0  0  0  0
 15 14  2  0  0  0  0
 16  5  1  0  0  0  0
 17  1  1  0  0  0  0
 18  5  1  0  0  0  0
 18  3  1  0  0  0  0
 19 22  1  0  0  0  0
 20 23  1  0  0  0  0
 20 24  1  0  0  0  0
 21 20  1  0  0  0  0
 23 22  1  0  0  0  0
 24 19  1  0  0  0  0
 25 24  1  0  0  0  0
 25 29  1  0  0  0  0
 26 29  1  0  0  0  0
 26 28  2  0  0  0  0
 27 30  1  0  0  0  0
 28 30  1  0  0  0  0
 29 27  2  0  0  0  0
 31 32  2  0  0  0  0
 32 12  1  0  0  0  0
M  END
>  <MODEL>
4

>  <REMARK>
 VINA RESULT:      -7.0      6.109      8.578
  Name = 
  4 active torsions:
  status: ('A' for Active; 'I' for Inactive)
    1  A    between atoms: C_8  and  C_28
    2  A    between atoms: C_19  and  C_24
    3  A    between atoms: C_23  and  C_24
    4  A    between atoms: C_25  and  C_26
                            x       y       z     vdW  Elec       q    Type
                         _______ _______ _______ _____ _____    ______ ____

>  <TORSDO>
F 4

$$$$
=
 OpenBabel10262421273D

 32 37  0  0  1  0  0  0  0  0999 V2000
  187.6400  177.5070  141.3290 C   0  0  1  0  0  3  0  0  0  0  0  0
  183.6010  177.7230  143.2800 F   0  0  0  0  0  0  0  0  0  0  0  0
  189.4290  178.1020  142.9700 C   0  0  1  0  0  3  0  0  0  0  0  0
  190.5490  177.7920  141.9610 C   0  0  1  0  0  3  0  0  0  0  0  0
  191.1780  177.2950  144.6530 C   0  0  2  0  0  3  0  0  0  0  0  0
  184.4630  178.2530  142.3750 C   0  0  0  0  0  3  0  0  0  0  0  0
  186.7840  179.1280  141.3410 S   0  0  0  0  0  0  0  0  0  0  0  0
  185.7200  178.6100  142.6720 C   0  0  0  0  0  0  0  0  0  0  0  0
  187.3480  177.1590  143.9170 C   0  0  2  0  0  3  0  0  0  0  0  0
  191.3130  176.0800  143.7450 C   0  0  0  0  0  2  0  0  0  0  0  0
  191.3040  176.4850  142.2670 C   0  0  0  0  0  2  0  0  0  0  0  0
  186.4150  178.3820  143.9900 C   0  0  2  0  0  3  0  0  0  0  0  0
  188.4720  177.1240  145.3550 S   0  0  0  0  0  0  0  0  0  0  0  0
  188.7050  177.5190  140.2420 C   0  0  0  0  0  0  0  0  0  0  0  0
  190.0120  177.7230  140.5480 C   0  0  0  0  0  3  0  0  0  0  0  0
  191.3650  176.9350  145.9750 F   0  0  0  0  0  0  0  0  0  0  0  0
  188.2650  177.1790  142.6980 C   0  0  1  0  0  3  0  0  0  0  0  0
  189.8190  177.9780  144.4470 C   0  0  2  0  0  3  0  0  0  0  0  0
  190.1700  177.8570  137.3200 C   0  0  0  0  0  2  0  0  0  0  0  0
  188.2910  177.3760  138.7790 C   0  0  1  0  0  0  0  0  0  0  0  0
  187.1080  176.6390  138.6720 O   0  0  0  0  0  1  0  0  0  0  0  0
  189.1910  179.0030  137.1730 C   0  0  0  0  0  2  0  0  0  0  0  0
  188.0660  178.7540  138.1700 C   0  0  0  0  0  2  0  0  0  0  0  0
  189.3540  176.7210  137.8950 C   0  0  2  0  0  3  0  0  0  0  0  0
  190.2170  175.6690  138.5920 C   0  0  0  0  0  2  0  0  0  0  0  0
  192.4060  174.8640  137.5940 C   0  0  0  0  0  3  0  0  0  0  0  0
  190.3780  174.1520  136.6350 N   0  0  0  0  0  0  0  0  0  0  0  0
  192.9670  174.0870  136.5840 C   0  0  0  0  0  3  0  0  0  0  0  0
  190.9950  174.8760  137.5980 C   0  0  0  0  0  0  0  0  0  0  0  0
  191.6320  173.4870  135.7810 S   0  0  0  0  0  0  0  0  0  0  0  0
  185.6810  179.3790  146.1590 C   0  0  0  0  0  2  0  0  0  0  0  0
  185.5410  178.4420  145.2200 C   0  0  0  0  0  3  0  0  0  0  0  0
  1 14  1  6  0  0  0
  1  7  1  0  0  0  0
  1 17  1  0  0  0  0
  3 18  1  0  0  0  0
  4 11  1  0  0  0  0
  4  3  1  0  0  0  0
  5 16  1  0  0  0  0
  6  8  2  0  0  0  0
  6  2  1  0  0  0  0
  7  8  1  0  0  0  0
  8 12  1  0  0  0  0
  9 12  1  0  0  0  0
  9 13  1  0  0  0  0
 10  5  1  0  0  0  0
 11 10  1  0  0  0  0
 12 32  1  0  0  0  0
 14 15  2  0  0  0  0
 15  4  1  0  0  0  0
 17  3  1  0  0  0  0
 17  9  1  0  0  0  0
 18  5  1  0  0  0  0
 18 13  1  0  0  0  0
 19 24  1  0  0  0  0
 20 14  1  0  0  0  0
 21 20  1  0  0  0  0
 22 19  1  0  0  0  0
 22 23  1  0  0  0  0
 23 20  1  0  0  0  0
 24 25  1  0  0  0  0
 24 20  1  0  0  0  0
 26 29  1  0  0  0  0
 27 29  2  0  0  0  0
 28 26  2  0  0  0  0
 29 25  1  0  0  0  0
 30 28  1  0  0  0  0
 30 27  1  0  0  0  0
 32 31  2  0  0  0  0
M  END
>  <MODEL>
5

>  <REMARK>
 VINA RESULT:      -7.0      3.424      8.198
  Name = 
  4 active torsions:
  status: ('A' for Active; 'I' for Inactive)
    1  A    between atoms: C_8  and  C_28
    2  A    between atoms: C_19  and  C_24
    3  A    between atoms: C_23  and  C_24
    4  A    between atoms: C_25  and  C_26
                            x       y       z     vdW  Elec       q    Type
                         _______ _______ _______ _____ _____    ______ ____

>  <TORSDO>
F 4

$$$$
=
 OpenBabel10262421273D

 32 37  0  0  1  0  0  0  0  0999 V2000
  185.5970  178.3540  141.8650 C   0  0  1  0  0  3  0  0  0  0  0  0
  182.8170  178.3160  145.3910 F   0  0  0  0  0  0  0  0  0  0  0  0
  187.9740  178.4480  142.6340 C   0  0  1  0  0  3  0  0  0  0  0  0
  188.5130  178.3260  141.1980 C   0  0  1  0  0  3  0  0  0  0  0  0
  190.1210  177.1740  143.1930 C   0  0  2  0  0  3  0  0  0  0  0  0
  183.2940  178.9990  144.3190 C   0  0  0  0  0  3  0  0  0  0  0  0
  185.0780  179.9690  142.5590 S   0  0  0  0  0  0  0  0  0  0  0  0
  184.5990  179.2080  144.0970 C   0  0  0  0  0  0  0  0  0  0  0  0
  186.3580  177.4190  144.2000 C   0  0  2  0  0  3  0  0  0  0  0  0
  189.6820  176.2030  142.1050 C   0  0  0  0  0  2  0  0  0  0  0  0
  189.1200  176.9460  140.8880 C   0  0  0  0  0  2  0  0  0  0  0  0
  185.7350  178.6380  144.9060 C   0  0  2  0  0  3  0  0  0  0  0  0
  187.9580  176.9850  144.9630 S   0  0  0  0  0  0  0  0  0  0  0  0
  186.1030  178.5660  140.4450 C   0  0  0  0  0  0  0  0  0  0  0  0
  187.4330  178.6220  140.1810 C   0  0  0  0  0  3  0  0  0  0  0  0
  190.7830  176.5010  144.2030 F   0  0  0  0  0  0  0  0  0  0  0  0
  186.6770  177.6790  142.7310 C   0  0  1  0  0  3  0  0  0  0  0  0
  188.9180  177.9570  143.7380 C   0  0  2  0  0  3  0  0  0  0  0  0
  184.2230  176.6760  138.5240 C   0  0  0  0  0  2  0  0  0  0  0  0
  185.1020  178.7960  139.3150 C   0  0  1  0  0  0  0  0  0  0  0  0
  184.6630  180.1220  139.3080 O   0  0  0  0  0  1  0  0  0  0  0  0
  185.1240  177.2170  137.4330 C   0  0  0  0  0  2  0  0  0  0  0  0
  185.7600  178.4910  137.9740 C   0  0  0  0  0  2  0  0  0  0  0  0
  183.8790  177.8780  139.3740 C   0  0  2  0  0  3  0  0  0  0  0  0
  183.4260  177.4950  140.7830 C   0  0  0  0  0  2  0  0  0  0  0  0
  181.4000  178.6300  141.8040 C   0  0  0  0  0  3  0  0  0  0  0  0
  181.0790  176.8870  140.2550 N   0  0  0  0  0  0  0  0  0  0  0  0
  180.0070  178.6400  141.8340 C   0  0  0  0  0  3  0  0  0  0  0  0
  181.9530  177.6680  140.9320 C   0  0  0  0  0  0  0  0  0  0  0  0
  179.5970  177.4290  140.7600 S   0  0  0  0  0  0  0  0  0  0  0  0
  186.0560  179.1980  147.3180 C   0  0  0  0  0  2  0  0  0  0  0  0
  185.4710  178.4520  146.3810 C   0  0  0  0  0  3  0  0  0  0  0  0
  1 14  1  6  0  0  0
  1  7  1  0  0  0  0
  1 17  1  0  0  0  0
  3 17  1  0  0  0  0
  3 18  1  0  0  0  0
  4  3  1  0  0  0  0
  5 18  1  0  0  0  0
  5 16  1  0  0  0  0
  6  2  1  0  0  0  0
  7  8  1  0  0  0  0
  8  6  2  0  0  0  0
  8 12  1  0  0  0  0
  9 12  1  0  0  0  0
  9 13  1  0  0  0  0
 10  5  1  0  0  0  0
 11  4  1  0  0  0  0
 11 10  1  0  0  0  0
 12 32  1  0  0  0  0
 15 14  2  0  0  0  0
 15  4  1  0  0  0  0
 17  9  1  0  0  0  0
 18 13  1  0  0  0  0
 19 24  1  0  0  0  0
 20 24  1  0  0  0  0
 20 14  1  0  0  0  0
 21 20  1  0  0  0  0
 22 23  1  0  0  0  0
 22 19  1  0  0  0  0
 23 20  1  0  0  0  0
 24 25  1  0  0  0  0
 25 29  1  0  0  0  0
 26 28  2  0  0  0  0
 27 30  1  0  0  0  0
 27 29  2  0  0  0  0
 29 26  1  0  0  0  0
 30 28  1  0  0  0  0
 32 31  2  0  0  0  0
M  END
>  <MODEL>
6

>  <REMARK>
 VINA RESULT:      -6.8      4.456      8.173
  Name = 
  4 active torsions:
  status: ('A' for Active; 'I' for Inactive)
    1  A    between atoms: C_8  and  C_28
    2  A    between atoms: C_19  and  C_24
    3  A    between atoms: C_23  and  C_24
    4  A    between atoms: C_25  and  C_26
                            x       y       z     vdW  Elec       q    Type
                         _______ _______ _______ _____ _____    ______ ____

>  <TORSDO>
F 4

$$$$
=
 OpenBabel10262421273D

 32 37  0  0  1  0  0  0  0  0999 V2000
  188.9000  177.9150  142.2810 C   0  0  1  0  0  3  0  0  0  0  0  0
  192.0590  177.0980  145.3670 F   0  0  0  0  0  0  0  0  0  0  0  0
  186.6270  177.5050  143.2370 C   0  0  1  0  0  3  0  0  0  0  0  0
  185.9280  177.9960  141.9570 C   0  0  1  0  0  3  0  0  0  0  0  0
  184.5390  178.4760  144.3500 C   0  0  2  0  0  3  0  0  0  0  0  0
  191.4740  176.7190  144.2020 C   0  0  0  0  0  3  0  0  0  0  0  0
  189.5170  176.1960  142.4360 S   0  0  0  0  0  0  0  0  0  0  0  0
  190.1550  176.5210  144.0670 C   0  0  0  0  0  0  0  0  0  0  0  0
  188.3940  178.1290  144.8510 C   0  0  2  0  0  3  0  0  0  0  0  0
  184.8390  179.7290  143.5400 C   0  0  0  0  0  2  0  0  0  0  0  0
  185.2700  179.3790  142.1110 C   0  0  0  0  0  2  0  0  0  0  0  0
  189.1090  176.7920  145.1180 C   0  0  2  0  0  3  0  0  0  0  0  0
  186.8840  178.2620  145.8670 S   0  0  0  0  0  0  0  0  0  0  0  0
  188.2400  178.0820  140.9200 C   0  0  0  0  0  0  0  0  0  0  0  0
  186.8900  178.0420  140.7900 C   0  0  0  0  0  3  0  0  0  0  0  0
  183.9850  178.8110  145.5720 F   0  0  0  0  0  0  0  0  0  0  0  0
  187.9150  178.2740  143.4100 C   0  0  1  0  0  3  0  0  0  0  0  0
  185.8050  177.6270  144.5260 C   0  0  2  0  0  3  0  0  0  0  0  0
  189.5950  176.0340  138.7370 C   0  0  0  0  0  2  0  0  0  0  0  0
  189.1110  178.2210  139.6730 C   0  0  1  0  0  0  0  0  0  0  0  0
  189.0620  179.5270  139.1810 O   0  0  0  0  0  1  0  0  0  0  0  0
  190.8860  176.5570  139.3300 C   0  0  0  0  0  2  0  0  0  0  0  0
  190.5570  177.8790  140.0120 C   0  0  0  0  0  2  0  0  0  0  0  0
  188.7320  177.2600  138.5430 C   0  0  2  0  0  3  0  0  0  0  0  0
  187.2430  176.9260  138.4510 C   0  0  0  0  0  2  0  0  0  0  0  0
  187.5280  177.7140  136.0560 C   0  0  0  0  0  3  0  0  0  0  0  0
  185.5040  176.6960  136.6960 N   0  0  0  0  0  0  0  0  0  0  0  0
  186.8990  177.8100  134.8180 C   0  0  0  0  0  3  0  0  0  0  0  0
  186.7460  177.0990  137.0570 C   0  0  0  0  0  0  0  0  0  0  0  0
  185.4060  177.1150  135.0960 S   0  0  0  0  0  0  0  0  0  0  0  0
  189.6020  177.5630  147.4400 C   0  0  0  0  0  2  0  0  0  0  0  0
  189.5350  176.5740  146.5500 C   0  0  0  0  0  3  0  0  0  0  0  0
  1 14  1  6  0  0  0
  1  7  1  0  0  0  0
  1 17  1  0  0  0  0
  3 17  1  0  0  0  0
  3 18  1  0  0  0  0
  4 11  1  0  0  0  0
  4  3  1  0  0  0  0
  5 18  1  0  0  0  0
  5 16  1  0  0  0  0
  6  2  1  0  0  0  0
  7  8  1  0  0  0  0
  8  6  2  0  0  0  0
  8 12  1  0  0  0  0
  9 12  1  0  0  0  0
  9 13  1  0  0  0  0
 10  5  1  0  0  0  0
 11 10  1  0  0  0  0
 12 32  1  0  0  0  0
 15 14  2  0  0  0  0
 15  4  1  0  0  0  0
 17  9  1  0  0  0  0
 18 13  1  0  0  0  0
 19 22  1  0  0  0  0
 20 23  1  0  0  0  0
 20 14  1  0  0  0  0
 21 20  1  0  0  0  0
 22 23  1  0  0  0  0
 24 19  1  0  0  0  0
 24 20  1  0  0  0  0
 25 24  1  0  0  0  0
 26 29  1  0  0  0  0
 27 29  2  0  0  0  0
 28 30  1  0  0  0  0
 28 26  2  0  0  0  0
 29 25  1  0  0  0  0
 30 27  1  0  0  0  0
 32 31  2  0  0  0  0
M  END
>  <MODEL>
7

>  <REMARK>
 VINA RESULT:      -6.8      3.572      7.305
  Name = 
  4 active torsions:
  status: ('A' for Active; 'I' for Inactive)
    1  A    between atoms: C_8  and  C_28
    2  A    between atoms: C_19  and  C_24
    3  A    between atoms: C_23  and  C_24
    4  A    between atoms: C_25  and  C_26
                            x       y       z     vdW  Elec       q    Type
                         _______ _______ _______ _____ _____    ______ ____

>  <TORSDO>
F 4

$$$$
=
 OpenBabel10262421273D

 32 37  0  0  1  0  0  0  0  0999 V2000
  188.6500  177.1270  139.9910 C   0  0  1  0  0  3  0  0  0  0  0  0
  189.8940  175.1990  136.1300 F   0  0  0  0  0  0  0  0  0  0  0  0
  186.7480  178.7010  139.6010 C   0  0  1  0  0  3  0  0  0  0  0  0
  186.6010  179.0000  141.1030 C   0  0  1  0  0  3  0  0  0  0  0  0
  184.2190  179.0860  139.6170 C   0  0  2  0  0  3  0  0  0  0  0  0
  190.2080  176.0620  137.1300 C   0  0  0  0  0  3  0  0  0  0  0  0
  189.8790  178.0080  138.9540 S   0  0  0  0  0  0  0  0  0  0  0  0
  189.4100  177.0680  137.5160 C   0  0  0  0  0  0  0  0  0  0  0  0
  186.9590  176.8250  138.0010 C   0  0  2  0  0  3  0  0  0  0  0  0
  184.1990  178.0960  140.7730 C   0  0  0  0  0  2  0  0  0  0  0  0
  185.3620  178.3440  141.7390 C   0  0  0  0  0  2  0  0  0  0  0  0
  188.0170  177.3360  137.0060 C   0  0  2  0  0  3  0  0  0  0  0  0
  185.3130  177.4960  137.5870 S   0  0  0  0  0  0  0  0  0  0  0  0
  188.7310  177.6600  141.4140 C   0  0  0  0  0  0  0  0  0  0  0  0
  187.8300  178.5660  141.8710 C   0  0  0  0  0  3  0  0  0  0  0  0
  183.0710  178.9650  138.8550 F   0  0  0  0  0  0  0  0  0  0  0  0
  187.2210  177.2760  139.4360 C   0  0  1  0  0  3  0  0  0  0  0  0
  185.4790  178.8960  138.7620 C   0  0  2  0  0  3  0  0  0  0  0  0
  189.8530  178.4920  144.3880 C   0  0  0  0  0  2  0  0  0  0  0  0
  189.8860  177.2290  142.3150 C   0  0  1  0  0  0  0  0  0  0  0  0
  190.3920  175.9920  141.9100 O   0  0  0  0  0  1  0  0  0  0  0  0
  191.0490  178.9750  143.5940 C   0  0  0  0  0  2  0  0  0  0  0  0
  191.0050  178.2620  142.2490 C   0  0  0  0  0  2  0  0  0  0  0  0
  189.5160  177.1410  143.7970 C   0  0  2  0  0  3  0  0  0  0  0  0
  188.0750  176.7170  144.0800 C   0  0  0  0  0  2  0  0  0  0  0  0
  188.1860  177.2290  146.5620 C   0  0  0  0  0  3  0  0  0  0  0  0
  186.4360  178.1430  145.2800 N   0  0  0  0  0  0  0  0  0  0  0  0
  187.5550  177.9040  147.6040 C   0  0  0  0  0  3  0  0  0  0  0  0
  187.5560  177.3820  145.3080 C   0  0  0  0  0  0  0  0  0  0  0  0
  186.2540  178.6300  146.8520 S   0  0  0  0  0  0  0  0  0  0  0  0
  187.5520  177.8930  134.6170 C   0  0  0  0  0  2  0  0  0  0  0  0
  187.7580  176.9760  135.5630 C   0  0  0  0  0  3  0  0  0  0  0  0
  1  7  1  6  0  0  0
  1 14  1  0  0  0  0
  2  6  1  0  0  0  0
  3  4  1  0  0  0  0
  4 11  1  0  0  0  0
  4 15  1  0  0  0  0
  5 10  1  0  0  0  0
  6  8  2  0  0  0  0
  8  7  1  0  0  0  0
  9 17  1  0  0  0  0
 10 11  1  0  0  0  0
 12  8  1  0  0  0  0
 12  9  1  0  0  0  0
 13  9  1  0  0  0  0
 13 18  1  0  0  0  0
 14 15  2  0  0  0  0
 14 20  1  0  0  0  0
 16  5  1  0  0  0  0
 17  3  1  0  0  0  0
 17  1  1  0  0  0  0
 18  3  1  0  0  0  0
 18  5  1  0  0  0  0
 20 24  1  0  0  0  0
 21 20  1  0  0  0  0
 22 19  1  0  0  0  0
 23 20  1  0  0  0  0
 23 22  1  0  0  0  0
 24 25  1  0  0  0  0
 24 19  1  0  0  0  0
 25 29  1  0  0  0  0
 26 28  2  0  0  0  0
 27 29  2  0  0  0  0
 27 30  1  0  0  0  0
 29 26  1  0  0  0  0
 30 28  1  0  0  0  0
 31 32  2  0  0  0  0
 32 12  1  0  0  0  0
M  END
>  <MODEL>
8

>  <REMARK>
 VINA RESULT:      -6.7      2.091      2.983
  Name = 
  4 active torsions:
  status: ('A' for Active; 'I' for Inactive)
    1  A    between atoms: C_8  and  C_28
    2  A    between atoms: C_19  and  C_24
    3  A    between atoms: C_23  and  C_24
    4  A    between atoms: C_25  and  C_26
                            x       y       z     vdW  Elec       q    Type
                         _______ _______ _______ _____ _____    ______ ____

>  <TORSDO>
F 4

$$$$
=
 OpenBabel10262421273D

 32 37  0  0  1  0  0  0  0  0999 V2000
  183.6830  177.1260  137.5450 C   0  0  1  0  0  3  0  0  0  0  0  0
  180.4450  174.3640  136.1110 F   0  0  0  0  0  0  0  0  0  0  0  0
  185.9300  176.0970  137.1720 C   0  0  1  0  0  3  0  0  0  0  0  0
  186.6620  177.3580  137.6630 C   0  0  1  0  0  3  0  0  0  0  0  0
  187.9930  175.8860  135.6750 C   0  0  2  0  0  3  0  0  0  0  0  0
  181.0570  174.9550  137.1680 C   0  0  0  0  0  3  0  0  0  0  0  0
  183.0560  175.8650  138.7180 S   0  0  0  0  0  0  0  0  0  0  0  0
  182.3780  174.8940  137.3870 C   0  0  0  0  0  0  0  0  0  0  0  0
  184.1260  175.3630  135.6470 C   0  0  2  0  0  3  0  0  0  0  0  0
  187.7190  177.3360  135.3010 C   0  0  0  0  0  2  0  0  0  0  0  0
  187.3210  178.1630  136.5280 C   0  0  0  0  0  2  0  0  0  0  0  0
  183.3990  174.2800  136.4650 C   0  0  2  0  0  3  0  0  0  0  0  0
  185.6100  174.6710  134.8420 S   0  0  0  0  0  0  0  0  0  0  0  0
  184.3760  178.2300  138.3300 C   0  0  0  0  0  0  0  0  0  0  0  0
  185.7300  178.2710  138.4280 C   0  0  0  0  0  3  0  0  0  0  0  0
  188.5180  175.1980  134.5960 F   0  0  0  0  0  0  0  0  0  0  0  0
  184.6410  176.5150  136.5050 C   0  0  1  0  0  3  0  0  0  0  0  0
  186.7190  175.2110  136.2010 C   0  0  2  0  0  3  0  0  0  0  0  0
  181.8810  178.1540  140.4670 C   0  0  0  0  0  2  0  0  0  0  0  0
  183.5380  179.2620  139.0810 C   0  0  1  0  0  0  0  0  0  0  0  0
  184.1790  180.5030  139.0940 O   0  0  0  0  0  1  0  0  0  0  0  0
  181.1340  178.8180  139.3290 C   0  0  0  0  0  2  0  0  0  0  0  0
  182.1830  179.4180  138.4020 C   0  0  0  0  0  2  0  0  0  0  0  0
  183.2140  178.8660  140.5230 C   0  0  2  0  0  3  0  0  0  0  0  0
  184.2940  178.0440  141.2260 C   0  0  0  0  0  2  0  0  0  0  0  0
  185.5470  178.2540  143.4220 C   0  0  0  0  0  3  0  0  0  0  0  0
  183.2550  178.7860  143.3540 N   0  0  0  0  0  0  0  0  0  0  0  0
  185.4170  178.5880  144.7680 C   0  0  0  0  0  3  0  0  0  0  0  0
  184.3540  178.3760  142.6770 C   0  0  0  0  0  0  0  0  0  0  0  0
  183.8060  179.0030  144.9010 S   0  0  0  0  0  0  0  0  0  0  0  0
  182.9880  171.8390  136.1380 C   0  0  0  0  0  2  0  0  0  0  0  0
  182.9370  173.0840  135.6660 C   0  0  0  0  0  3  0  0  0  0  0  0
  1 14  1  1  0  0  0
  1  7  1  0  0  0  0
  2  6  1  0  0  0  0
  3  4  1  0  0  0  0
  4 15  1  0  0  0  0
  5 18  1  0  0  0  0
  6  8  2  0  0  0  0
  8  7  1  0  0  0  0
  9 12  1  0  0  0  0
  9 17  1  0  0  0  0
 10  5  1  0  0  0  0
 10 11  1  0  0  0  0
 11  4  1  0  0  0  0
 12  8  1  0  0  0  0
 13  9  1  0  0  0  0
 13 18  1  0  0  0  0
 14 15  2  0  0  0  0
 14 20  1  0  0  0  0
 16  5  1  0  0  0  0
 17  3  1  0  0  0  0
 17  1  1  0  0  0  0
 18  3  1  0  0  0  0
 19 24  1  0  0  0  0
 20 21  1  0  0  0  0
 20 24  1  0  0  0  0
 22 19  1  0  0  0  0
 23 20  1  0  0  0  0
 23 22  1  0  0  0  0
 24 25  1  0  0  0  0
 25 29  1  0  0  0  0
 26 28  2  0  0  0  0
 27 30  1  0  0  0  0
 28 30  1  0  0  0  0
 29 27  2  0  0  0  0
 29 26  1  0  0  0  0
 32 31  2  0  0  0  0
 32 12  1  0  0  0  0
M  END
>  <MODEL>
9

>  <REMARK>
 VINA RESULT:      -6.7      4.374      7.074
  Name = 
  4 active torsions:
  status: ('A' for Active; 'I' for Inactive)
    1  A    between atoms: C_8  and  C_28
    2  A    between atoms: C_19  and  C_24
    3  A    between atoms: C_23  and  C_24
    4  A    between atoms: C_25  and  C_26
                            x       y       z     vdW  Elec       q    Type
                         _______ _______ _______ _____ _____    ______ ____

>  <TORSDO>
F 4

$$$$
