=
 OpenBabel10262420563D

 28 30  0  0  1  0  0  0  0  0999 V2000
  188.2090  177.0100  143.7980 C   0  0  0  0  0  0  0  0  0  0  0  0
  185.7420  179.1420  140.2500 F   0  0  0  0  0  0  0  0  0  0  0  0
  189.1300  177.7160  140.3270 C   0  0  0  0  0  0  0  0  0  0  0  0
  186.9480  178.0910  142.0110 C   0  0  0  0  0  0  0  0  0  0  0  0
  189.1710  177.2940  141.6200 N   0  0  0  0  0  0  0  0  0  0  0  0
  185.9510  177.8180  144.2040 C   0  0  0  0  0  3  0  0  0  0  0  0
  186.8770  178.5350  140.6850 C   0  0  0  0  0  0  0  0  0  0  0  0
  185.8670  178.2650  142.8840 C   0  0  0  0  0  3  0  0  0  0  0  0
  187.9800  178.3490  139.8240 C   0  0  0  0  0  0  0  0  0  0  0  0
  187.1160  177.1940  144.6580 C   0  0  0  0  0  3  0  0  0  0  0  0
  188.1240  177.4600  142.4710 C   0  0  0  0  0  0  0  0  0  0  0  0
  190.1690  176.2160  138.6380 C   0  0  0  0  0  2  0  0  0  0  0  0
  191.6000  177.4320  140.2690 C   0  0  0  0  0  2  0  0  0  0  0  0
  192.6710  176.3890  138.2670 C   0  0  0  0  0  0  0  0  0  0  0  0
  190.3190  177.5030  139.4420 C   0  0  2  0  0  3  0  0  0  0  0  0
  192.7880  177.0710  139.4180 C   0  0  0  0  0  3  0  0  0  0  0  0
  193.7930  176.1090  137.5570 F   0  0  0  0  0  0  0  0  0  0  0  0
  191.3280  176.0800  137.6510 C   0  0  0  0  0  2  0  0  0  0  0  0
  187.9820  178.7690  138.4820 O   0  0  0  0  0  0  0  0  0  0  0  0
  187.2440  178.1440  137.4420 C   0  0  0  0  0  1  0  0  0  0  0  0
  189.4120  176.3710  144.2560 N   0  0  0  0  0  2  0  0  0  0  0  0
  190.4220  176.9680  145.1330 C   0  0  1  0  0  3  0  0  0  0  0  0
  191.2890  179.1010  144.0320 S   0  0  0  0  0  0  0  0  0  0  0  0
  191.4570  177.7100  144.3390 C   0  0  0  0  0  3  0  0  0  0  0  0
  189.7620  177.8610  146.1770 C   0  0  0  0  0  2  0  0  0  0  0  0
  188.4630  177.3870  148.2580 C   0  0  0  0  0  3  0  0  0  0  0  0
  187.4930  178.4920  147.9920 C   0  0  0  0  0  1  0  0  0  0  0  0
  189.4790  177.0980  147.4370 C   0  0  0  0  0  3  0  0  0  0  0  0
  1 21  1  0  0  0  0
  1 10  1  0  0  0  0
  2  7  1  0  0  0  0
  3  5  2  0  0  0  0
  4 11  1  0  0  0  0
  4  8  2  0  0  0  0
  5 11  1  0  0  0  0
  6 10  2  0  0  0  0
  7  4  1  0  0  0  0
  8  6  1  0  0  0  0
  9  3  1  0  0  0  0
  9  7  2  0  0  0  0
 11  1  2  0  0  0  0
 12 15  1  0  0  0  0
 14 16  2  0  0  0  0
 15 13  1  0  0  0  0
 15  3  1  1  0  0  0
 16 13  1  0  0  0  0
 17 14  1  0  0  0  0
 18 14  1  0  0  0  0
 18 12  1  0  0  0  0
 19  9  1  0  0  0  0
 20 19  1  0  0  0  0
 21 22  1  0  0  0  0
 22 24  1  6  0  0  0
 22 25  1  0  0  0  0
 23 24  2  0  0  0  0
 25 28  1  0  0  0  0
 27 26  1  0  0  0  0
 28 26  2  0  0  0  0
M  END
>  <MODEL>
1

>  <REMARK>
 VINA RESULT:      -8.2      0.000      0.000
  Name = 
  7 active torsions:
  status: ('A' for Active; 'I' for Inactive)
    1  A    between atoms: C_1  and  N_2
    2  A    between atoms: N_2  and  C_3
    3  A    between atoms: C_3  and  C_7
    4  A    between atoms: C_3  and  C_11
    5  A    between atoms: C_7  and  C_28
    6  A    between atoms: C_10  and  C_13
    7  A    between atoms: O_14  and  C_25
                            x       y       z     vdW  Elec       q    Type
                         _______ _______ _______ _____ _____    ______ ____

>  <TORSDO>
F 7

$$$$
=
 OpenBabel10262420563D

 28 30  0  0  1  0  0  0  0  0999 V2000
  184.4200  178.3210  142.6330 C   0  0  0  0  0  0  0  0  0  0  0  0
  184.9410  178.6140  147.4140 F   0  0  0  0  0  0  0  0  0  0  0  0
  187.2230  177.4010  144.7980 C   0  0  0  0  0  0  0  0  0  0  0  0
  184.6700  178.4750  145.0550 C   0  0  0  0  0  0  0  0  0  0  0  0
  186.4420  177.6050  143.7020 N   0  0  0  0  0  0  0  0  0  0  0  0
  182.6130  179.2050  143.9990 C   0  0  0  0  0  3  0  0  0  0  0  0
  185.4510  178.2770  146.2010 C   0  0  0  0  0  0  0  0  0  0  0  0
  183.3810  179.0130  145.1500 C   0  0  0  0  0  3  0  0  0  0  0  0
  186.7480  177.7320  146.0790 C   0  0  0  0  0  0  0  0  0  0  0  0
  183.1300  178.8600  142.7490 C   0  0  0  0  0  3  0  0  0  0  0  0
  185.1910  178.1280  143.7900 C   0  0  0  0  0  0  0  0  0  0  0  0
  189.6580  177.9030  144.7710 C   0  0  0  0  0  2  0  0  0  0  0  0
  188.7320  176.1500  143.2680 C   0  0  0  0  0  2  0  0  0  0  0  0
  191.2040  176.2530  143.6240 C   0  0  0  0  0  0  0  0  0  0  0  0
  188.5940  176.8200  144.6330 C   0  0  2  0  0  3  0  0  0  0  0  0
  190.1440  175.6900  143.0200 C   0  0  0  0  0  3  0  0  0  0  0  0
  192.4430  175.7730  143.3480 F   0  0  0  0  0  0  0  0  0  0  0  0
  191.0500  177.2730  144.7260 C   0  0  0  0  0  2  0  0  0  0  0  0
  187.5870  177.5050  147.1830 O   0  0  0  0  0  0  0  0  0  0  0  0
  187.9460  178.4920  148.1380 C   0  0  0  0  0  1  0  0  0  0  0  0
  184.9590  177.9610  141.3500 N   0  0  0  0  0  2  0  0  0  0  0  0
  185.6580  178.8600  140.4290 C   0  0  1  0  0  3  0  0  0  0  0  0
  187.6650  178.0830  139.0570 S   0  0  0  0  0  0  0  0  0  0  0  0
  187.1090  178.4960  140.3130 C   0  0  0  0  0  3  0  0  0  0  0  0
  184.9680  178.8720  139.0700 C   0  0  0  0  0  2  0  0  0  0  0  0
  182.5120  179.3330  139.0600 C   0  0  0  0  0  3  0  0  0  0  0  0
  182.1650  177.8790  139.0440 C   0  0  0  0  0  1  0  0  0  0  0  0
  183.7730  179.7790  139.0800 C   0  0  0  0  0  3  0  0  0  0  0  0
  1 10  2  0  0  0  0
  1 11  1  0  0  0  0
  3  9  1  0  0  0  0
  4  8  1  0  0  0  0
  4  7  1  0  0  0  0
  5 11  1  0  0  0  0
  5  3  2  0  0  0  0
  6  8  2  0  0  0  0
  7  2  1  0  0  0  0
  9  7  2  0  0  0  0
  9 19  1  0  0  0  0
 10  6  1  0  0  0  0
 11  4  2  0  0  0  0
 13 15  1  0  0  0  0
 14 18  1  0  0  0  0
 15 12  1  0  0  0  0
 15  3  1  6  0  0  0
 16 13  1  0  0  0  0
 16 14  2  0  0  0  0
 17 14  1  0  0  0  0
 18 12  1  0  0  0  0
 19 20  1  0  0  0  0
 21  1  1  0  0  0  0
 22 25  1  6  0  0  0
 22 21  1  0  0  0  0
 23 24  2  0  0  0  0
 24 22  1  0  0  0  0
 25 28  1  0  0  0  0
 26 28  2  0  0  0  0
 27 26  1  0  0  0  0
M  END
>  <MODEL>
2

>  <REMARK>
 VINA RESULT:      -8.2      3.695      6.666
  Name = 
  7 active torsions:
  status: ('A' for Active; 'I' for Inactive)
    1  A    between atoms: C_1  and  N_2
    2  A    between atoms: N_2  and  C_3
    3  A    between atoms: C_3  and  C_7
    4  A    between atoms: C_3  and  C_11
    5  A    between atoms: C_7  and  C_28
    6  A    between atoms: C_10  and  C_13
    7  A    between atoms: O_14  and  C_25
                            x       y       z     vdW  Elec       q    Type
                         _______ _______ _______ _____ _____    ______ ____

>  <TORSDO>
F 7

$$$$
=
 OpenBabel10262420563D

 28 30  0  0  1  0  0  0  0  0999 V2000
  185.3720  178.3930  141.7740 C   0  0  0  0  0  0  0  0  0  0  0  0
  188.4990  178.3010  138.1090 F   0  0  0  0  0  0  0  0  0  0  0  0
  188.9810  177.7920  141.7190 C   0  0  0  0  0  0  0  0  0  0  0  0
  186.9430  178.3500  139.9090 C   0  0  0  0  0  0  0  0  0  0  0  0
  187.7000  177.9570  142.1450 N   0  0  0  0  0  0  0  0  0  0  0  0
  184.5950  178.7950  139.5050 C   0  0  0  0  0  3  0  0  0  0  0  0
  188.2530  178.1840  139.4400 C   0  0  0  0  0  0  0  0  0  0  0  0
  185.8960  178.6320  139.0240 C   0  0  0  0  0  3  0  0  0  0  0  0
  189.2930  177.9000  140.3520 C   0  0  0  0  0  0  0  0  0  0  0  0
  184.3350  178.6770  140.8720 C   0  0  0  0  0  3  0  0  0  0  0  0
  186.6800  178.2300  141.2900 C   0  0  0  0  0  0  0  0  0  0  0  0
  190.1830  175.9900  142.9410 C   0  0  0  0  0  2  0  0  0  0  0  0
  189.7690  178.1810  144.0450 C   0  0  0  0  0  2  0  0  0  0  0  0
  191.4290  176.6120  145.0600 C   0  0  0  0  0  0  0  0  0  0  0  0
  190.0600  177.4930  142.7140 C   0  0  2  0  0  3  0  0  0  0  0  0
  190.7600  177.7760  145.1030 C   0  0  0  0  0  3  0  0  0  0  0  0
  192.3090  176.3270  146.0530 F   0  0  0  0  0  0  0  0  0  0  0  0
  191.3690  175.6970  143.8600 C   0  0  0  0  0  2  0  0  0  0  0  0
  190.6300  177.7230  139.9560 O   0  0  0  0  0  0  0  0  0  0  0  0
  191.1010  176.6290  139.1810 C   0  0  0  0  0  1  0  0  0  0  0  0
  185.1150  178.2720  143.1830 N   0  0  0  0  0  2  0  0  0  0  0  0
  184.9210  179.3800  144.1200 C   0  0  1  0  0  3  0  0  0  0  0  0
  182.4370  178.7920  144.1390 S   0  0  0  0  0  0  0  0  0  0  0  0
  183.4760  179.7800  144.1950 C   0  0  0  0  0  3  0  0  0  0  0  0
  185.4810  179.0220  145.4930 C   0  0  0  0  0  2  0  0  0  0  0  0
  187.1630  177.4130  146.3980 C   0  0  0  0  0  3  0  0  0  0  0  0
  187.3320  178.1870  147.6650 C   0  0  0  0  0  1  0  0  0  0  0  0
  186.3240  177.7840  145.4240 C   0  0  0  0  0  3  0  0  0  0  0  0
  1 21  1  0  0  0  0
  2  7  1  0  0  0  0
  3  5  1  0  0  0  0
  4 11  1  0  0  0  0
  6 10  1  0  0  0  0
  7  4  2  0  0  0  0
  7  9  1  0  0  0  0
  8  6  2  0  0  0  0
  8  4  1  0  0  0  0
  9  3  2  0  0  0  0
 10  1  2  0  0  0  0
 11  1  1  0  0  0  0
 11  5  2  0  0  0  0
 12 18  1  0  0  0  0
 13 16  1  0  0  0  0
 14 16  2  0  0  0  0
 14 17  1  0  0  0  0
 15  3  1  6  0  0  0
 15 12  1  0  0  0  0
 15 13  1  0  0  0  0
 18 14  1  0  0  0  0
 19  9  1  0  0  0  0
 20 19  1  0  0  0  0
 21 22  1  0  0  0  0
 22 24  1  1  0  0  0
 22 25  1  0  0  0  0
 23 24  2  0  0  0  0
 26 27  1  0  0  0  0
 28 25  1  0  0  0  0
 28 26  2  0  0  0  0
M  END
>  <MODEL>
3

>  <REMARK>
 VINA RESULT:      -8.2      3.056      4.754
  Name = 
  7 active torsions:
  status: ('A' for Active; 'I' for Inactive)
    1  A    between atoms: C_1  and  N_2
    2  A    between atoms: N_2  and  C_3
    3  A    between atoms: C_3  and  C_7
    4  A    between atoms: C_3  and  C_11
    5  A    between atoms: C_7  and  C_28
    6  A    between atoms: C_10  and  C_13
    7  A    between atoms: O_14  and  C_25
                            x       y       z     vdW  Elec       q    Type
                         _______ _______ _______ _____ _____    ______ ____

>  <TORSDO>
F 7

$$$$
=
 OpenBabel10262420563D

 28 30  0  0  1  0  0  0  0  0999 V2000
  187.7280  177.3380  143.8560 C   0  0  0  0  0  0  0  0  0  0  0  0
  183.8210  179.0040  146.1310 F   0  0  0  0  0  0  0  0  0  0  0  0
  184.5110  178.5020  142.5550 C   0  0  0  0  0  0  0  0  0  0  0  0
  185.7570  178.1790  145.0210 C   0  0  0  0  0  0  0  0  0  0  0  0
  185.7800  178.0140  142.6340 N   0  0  0  0  0  0  0  0  0  0  0  0
  187.7140  177.5040  146.2820 C   0  0  0  0  0  3  0  0  0  0  0  0
  184.4500  178.6830  144.9710 C   0  0  0  0  0  0  0  0  0  0  0  0
  186.4120  178.0060  146.2470 C   0  0  0  0  0  3  0  0  0  0  0  0
  183.8110  178.8490  143.7230 C   0  0  0  0  0  0  0  0  0  0  0  0
  188.3680  177.1720  145.0940 C   0  0  0  0  0  3  0  0  0  0  0  0
  186.4180  177.8440  143.8210 C   0  0  0  0  0  0  0  0  0  0  0  0
  183.1130  177.3990  140.8190 C   0  0  0  0  0  2  0  0  0  0  0  0
  184.9090  178.9850  140.1480 C   0  0  0  0  0  2  0  0  0  0  0  0
  183.1860  178.3290  138.4610 C   0  0  0  0  0  0  0  0  0  0  0  0
  183.8640  178.6660  141.2140 C   0  0  2  0  0  3  0  0  0  0  0  0
  184.3030  179.0090  138.7700 C   0  0  0  0  0  3  0  0  0  0  0  0
  182.7020  178.4100  137.1950 F   0  0  0  0  0  0  0  0  0  0  0  0
  182.3570  177.6290  139.5100 C   0  0  0  0  0  2  0  0  0  0  0  0
  182.5040  179.3490  143.5950 O   0  0  0  0  0  0  0  0  0  0  0  0
  181.3310  178.6380  143.9630 C   0  0  0  0  0  1  0  0  0  0  0  0
  188.3930  177.0010  142.6270 N   0  0  0  0  0  2  0  0  0  0  0  0
  189.2840  177.8780  141.8640 C   0  0  1  0  0  3  0  0  0  0  0  0
  191.5320  177.2090  142.8710 S   0  0  0  0  0  0  0  0  0  0  0  0
  190.6550  177.2800  141.7380 C   0  0  0  0  0  3  0  0  0  0  0  0
  188.6800  178.1980  140.5020 C   0  0  0  0  0  2  0  0  0  0  0  0
  189.3040  177.8940  138.1020 C   0  0  0  0  0  3  0  0  0  0  0  0
  187.9340  178.2530  137.6240 C   0  0  0  0  0  1  0  0  0  0  0  0
  189.6410  177.8780  139.3960 C   0  0  0  0  0  3  0  0  0  0  0  0
  1 10  1  0  0  0  0
  3  5  2  0  0  0  0
  3  9  1  0  0  0  0
  4  8  2  0  0  0  0
  5 11  1  0  0  0  0
  7  4  1  0  0  0  0
  7  2  1  0  0  0  0
  8  6  1  0  0  0  0
  9  7  2  0  0  0  0
 10  6  2  0  0  0  0
 11  1  2  0  0  0  0
 11  4  1  0  0  0  0
 12 15  1  0  0  0  0
 13 15  1  0  0  0  0
 14 16  2  0  0  0  0
 14 18  1  0  0  0  0
 15  3  1  1  0  0  0
 16 13  1  0  0  0  0
 17 14  1  0  0  0  0
 18 12  1  0  0  0  0
 19  9  1  0  0  0  0
 19 20  1  0  0  0  0
 21  1  1  0  0  0  0
 22 25  1  6  0  0  0
 22 21  1  0  0  0  0
 24 22  1  0  0  0  0
 24 23  2  0  0  0  0
 26 28  2  0  0  0  0
 27 26  1  0  0  0  0
 28 25  1  0  0  0  0
M  END
>  <MODEL>
4

>  <REMARK>
 VINA RESULT:      -8.2      3.245      6.493
  Name = 
  7 active torsions:
  status: ('A' for Active; 'I' for Inactive)
    1  A    between atoms: C_1  and  N_2
    2  A    between atoms: N_2  and  C_3
    3  A    between atoms: C_3  and  C_7
    4  A    between atoms: C_3  and  C_11
    5  A    between atoms: C_7  and  C_28
    6  A    between atoms: C_10  and  C_13
    7  A    between atoms: O_14  and  C_25
                            x       y       z     vdW  Elec       q    Type
                         _______ _______ _______ _____ _____    ______ ____

>  <TORSDO>
F 7

$$$$
=
 OpenBabel10262420563D

 28 30  0  0  1  0  0  0  0  0999 V2000
  185.9870  178.1710  145.1880 C   0  0  0  0  0  0  0  0  0  0  0  0
  189.8860  177.7080  147.9810 F   0  0  0  0  0  0  0  0  0  0  0  0
  189.4460  177.3180  144.3510 C   0  0  0  0  0  0  0  0  0  0  0  0
  187.9530  177.9400  146.6150 C   0  0  0  0  0  0  0  0  0  0  0  0
  188.1170  177.5900  144.2520 N   0  0  0  0  0  0  0  0  0  0  0  0
  185.8110  178.5270  147.5870 C   0  0  0  0  0  3  0  0  0  0  0  0
  189.3200  177.6650  146.7470 C   0  0  0  0  0  0  0  0  0  0  0  0
  187.1730  178.2550  147.7340 C   0  0  0  0  0  3  0  0  0  0  0  0
  190.0850  177.3490  145.6030 C   0  0  0  0  0  0  0  0  0  0  0  0
  185.2220  178.4850  146.3220 C   0  0  0  0  0  3  0  0  0  0  0  0
  187.3560  177.8980  145.3360 C   0  0  0  0  0  0  0  0  0  0  0  0
  191.2950  178.0420  142.8540 C   0  0  0  0  0  2  0  0  0  0  0  0
  189.3030  176.8900  141.9060 C   0  0  0  0  0  2  0  0  0  0  0  0
  191.3570  177.1060  140.4980 C   0  0  0  0  0  0  0  0  0  0  0  0
  190.2280  176.9850  143.1170 C   0  0  2  0  0  3  0  0  0  0  0  0
  190.0820  176.7030  140.6310 C   0  0  0  0  0  3  0  0  0  0  0  0
  191.9890  176.8940  139.3150 F   0  0  0  0  0  0  0  0  0  0  0  0
  192.1620  177.6210  141.6670 C   0  0  0  0  0  2  0  0  0  0  0  0
  191.4590  177.0610  145.6590 O   0  0  0  0  0  0  0  0  0  0  0  0
  192.0210  175.9420  146.3290 C   0  0  0  0  0  1  0  0  0  0  0  0
  185.3900  178.1230  143.8820 N   0  0  0  0  0  2  0  0  0  0  0  0
  184.4810  179.1220  143.3140 C   0  0  1  0  0  3  0  0  0  0  0  0
  185.8450  178.8500  141.1740 S   0  0  0  0  0  0  0  0  0  0  0  0
  184.6080  179.1840  141.8200 C   0  0  0  0  0  3  0  0  0  0  0  0
  183.0460  178.8470  143.7500 C   0  0  0  0  0  2  0  0  0  0  0  0
  180.7840  178.7440  142.6940 C   0  0  0  0  0  3  0  0  0  0  0  0
  180.1090  178.4520  143.9960 C   0  0  0  0  0  1  0  0  0  0  0  0
  182.1040  178.9300  142.5850 C   0  0  0  0  0  3  0  0  0  0  0  0
  1 11  2  0  0  0  0
  1 10  1  0  0  0  0
  3  9  1  0  0  0  0
  4  7  1  0  0  0  0
  4  8  2  0  0  0  0
  5  3  2  0  0  0  0
  5 11  1  0  0  0  0
  6  8  1  0  0  0  0
  7  2  1  0  0  0  0
  9 19  1  0  0  0  0
  9  7  2  0  0  0  0
 10  6  2  0  0  0  0
 11  4  1  0  0  0  0
 12 15  1  0  0  0  0
 13 15  1  0  0  0  0
 14 16  2  0  0  0  0
 14 18  1  0  0  0  0
 15  3  1  1  0  0  0
 16 13  1  0  0  0  0
 17 14  1  0  0  0  0
 18 12  1  0  0  0  0
 19 20  1  0  0  0  0
 21  1  1  0  0  0  0
 22 24  1  6  0  0  0
 22 25  1  0  0  0  0
 22 21  1  0  0  0  0
 23 24  2  0  0  0  0
 26 27  1  0  0  0  0
 28 26  2  0  0  0  0
 28 25  1  0  0  0  0
M  END
>  <MODEL>
5

>  <REMARK>
 VINA RESULT:      -8.1      3.469      5.921
  Name = 
  7 active torsions:
  status: ('A' for Active; 'I' for Inactive)
    1  A    between atoms: C_1  and  N_2
    2  A    between atoms: N_2  and  C_3
    3  A    between atoms: C_3  and  C_7
    4  A    between atoms: C_3  and  C_11
    5  A    between atoms: C_7  and  C_28
    6  A    between atoms: C_10  and  C_13
    7  A    between atoms: O_14  and  C_25
                            x       y       z     vdW  Elec       q    Type
                         _______ _______ _______ _____ _____    ______ ____

>  <TORSDO>
F 7

$$$$
=
 OpenBabel10262420563D

 28 30  0  0  1  0  0  0  0  0999 V2000
  187.2340  177.7600  144.5210 C   0  0  0  0  0  0  0  0  0  0  0  0
  182.8170  179.3460  145.6140 F   0  0  0  0  0  0  0  0  0  0  0  0
  184.3800  178.5720  142.3780 C   0  0  0  0  0  0  0  0  0  0  0  0
  185.0010  178.5630  145.0900 C   0  0  0  0  0  0  0  0  0  0  0  0
  185.6120  178.1840  142.8070 N   0  0  0  0  0  0  0  0  0  0  0  0
  186.6210  178.1430  146.8430 C   0  0  0  0  0  3  0  0  0  0  0  0
  183.7240  178.9670  144.6780 C   0  0  0  0  0  0  0  0  0  0  0  0
  185.3450  178.5480  146.4470 C   0  0  0  0  0  3  0  0  0  0  0  0
  183.4020  178.9740  143.3030 C   0  0  0  0  0  0  0  0  0  0  0  0
  187.5600  177.7530  145.8860 C   0  0  0  0  0  3  0  0  0  0  0  0
  185.9500  178.1670  144.1230 C   0  0  0  0  0  0  0  0  0  0  0  0
  183.3500  177.2860  140.5160 C   0  0  0  0  0  2  0  0  0  0  0  0
  185.3540  178.6990  140.0930 C   0  0  0  0  0  2  0  0  0  0  0  0
  184.0270  177.8720  138.1430 C   0  0  0  0  0  0  0  0  0  0  0  0
  184.0720  178.5690  140.9120 C   0  0  2  0  0  3  0  0  0  0  0  0
  185.0850  178.5490  138.6200 C   0  0  0  0  0  3  0  0  0  0  0  0
  183.8540  177.7900  136.8000 F   0  0  0  0  0  0  0  0  0  0  0  0
  182.9330  177.3550  139.0470 C   0  0  0  0  0  2  0  0  0  0  0  0
  182.1430  179.3670  142.8160 O   0  0  0  0  0  0  0  0  0  0  0  0
  180.9410  178.6350  143.0080 C   0  0  0  0  0  1  0  0  0  0  0  0
  188.1930  177.3610  143.5280 N   0  0  0  0  0  2  0  0  0  0  0  0
  189.4360  176.6300  143.7790 C   0  0  1  0  0  3  0  0  0  0  0  0
  189.9760  176.8610  141.2950 S   0  0  0  0  0  0  0  0  0  0  0  0
  190.0130  176.0880  142.5040 C   0  0  0  0  0  3  0  0  0  0  0  0
  190.4340  177.5120  144.5220 C   0  0  0  0  0  2  0  0  0  0  0  0
  191.7480  176.3700  146.3140 C   0  0  0  0  0  3  0  0  0  0  0  0
  190.7690  176.7510  147.3770 C   0  0  0  0  0  1  0  0  0  0  0  0
  191.5930  176.7060  145.0290 C   0  0  0  0  0  3  0  0  0  0  0  0
  1 10  1  0  0  0  0
  3  5  2  0  0  0  0
  3  9  1  0  0  0  0
  4  8  2  0  0  0  0
  5 11  1  0  0  0  0
  7  4  1  0  0  0  0
  7  2  1  0  0  0  0
  8  6  1  0  0  0  0
  9  7  2  0  0  0  0
 10  6  2  0  0  0  0
 11  1  2  0  0  0  0
 11  4  1  0  0  0  0
 12 15  1  0  0  0  0
 13 15  1  0  0  0  0
 14 16  2  0  0  0  0
 14 18  1  0  0  0  0
 15  3  1  1  0  0  0
 16 13  1  0  0  0  0
 17 14  1  0  0  0  0
 18 12  1  0  0  0  0
 19 20  1  0  0  0  0
 19  9  1  0  0  0  0
 21 22  1  0  0  0  0
 21  1  1  0  0  0  0
 22 24  1  6  0  0  0
 22 25  1  0  0  0  0
 23 24  2  0  0  0  0
 25 28  1  0  0  0  0
 26 27  1  0  0  0  0
 28 26  2  0  0  0  0
M  END
>  <MODEL>
6

>  <REMARK>
 VINA RESULT:      -8.1      3.543      5.447
  Name = 
  7 active torsions:
  status: ('A' for Active; 'I' for Inactive)
    1  A    between atoms: C_1  and  N_2
    2  A    between atoms: N_2  and  C_3
    3  A    between atoms: C_3  and  C_7
    4  A    between atoms: C_3  and  C_11
    5  A    between atoms: C_7  and  C_28
    6  A    between atoms: C_10  and  C_13
    7  A    between atoms: O_14  and  C_25
                            x       y       z     vdW  Elec       q    Type
                         _______ _______ _______ _____ _____    ______ ____

>  <TORSDO>
F 7

$$$$
=
 OpenBabel10262420563D

 28 30  0  0  1  0  0  0  0  0999 V2000
  189.9550  177.8020  142.5020 C   0  0  0  0  0  0  0  0  0  0  0  0
  188.1720  177.9700  138.0290 F   0  0  0  0  0  0  0  0  0  0  0  0
  186.6060  178.6430  141.2870 C   0  0  0  0  0  0  0  0  0  0  0  0
  189.0660  177.8830  140.2310 C   0  0  0  0  0  0  0  0  0  0  0  0
  187.6690  178.4080  142.1030 N   0  0  0  0  0  0  0  0  0  0  0  0
  191.3800  177.2660  140.6060 C   0  0  0  0  0  3  0  0  0  0  0  0
  187.9890  178.1190  139.3660 C   0  0  0  0  0  0  0  0  0  0  0  0
  190.3160  177.4980  139.7320 C   0  0  0  0  0  3  0  0  0  0  0  0
  186.7380  178.5050  139.8940 C   0  0  0  0  0  0  0  0  0  0  0  0
  191.2000  177.4170  141.9820 C   0  0  0  0  0  3  0  0  0  0  0  0
  188.8850  178.0350  141.6230 C   0  0  0  0  0  0  0  0  0  0  0  0
  185.3550  179.0140  143.4040 C   0  0  0  0  0  2  0  0  0  0  0  0
  184.1760  178.1270  141.4000 C   0  0  0  0  0  2  0  0  0  0  0  0
  182.8210  179.0020  143.3090 C   0  0  0  0  0  0  0  0  0  0  0  0
  185.2930  179.0510  141.8810 C   0  0  2  0  0  3  0  0  0  0  0  0
  182.8760  178.4260  142.0970 C   0  0  0  0  0  3  0  0  0  0  0  0
  181.6060  179.2420  143.8650 F   0  0  0  0  0  0  0  0  0  0  0  0
  184.0510  179.5530  143.9910 C   0  0  0  0  0  2  0  0  0  0  0  0
  185.6140  178.7580  139.0890 O   0  0  0  0  0  0  0  0  0  0  0  0
  185.1920  177.9320  138.0130 C   0  0  0  0  0  1  0  0  0  0  0  0
  189.7590  177.9580  143.9170 N   0  0  0  0  0  2  0  0  0  0  0  0
  189.8980  176.9050  144.9250 C   0  0  1  0  0  3  0  0  0  0  0  0
  191.6820  176.3780  146.6730 S   0  0  0  0  0  0  0  0  0  0  0  0
  191.3330  176.7240  145.3250 C   0  0  0  0  0  3  0  0  0  0  0  0
  189.0080  177.1970  146.1280 C   0  0  0  0  0  2  0  0  0  0  0  0
  186.6780  178.0090  146.5190 C   0  0  0  0  0  3  0  0  0  0  0  0
  186.9580  178.3530  147.9460 C   0  0  0  0  0  1  0  0  0  0  0  0
  187.6030  177.4970  145.6990 C   0  0  0  0  0  3  0  0  0  0  0  0
  1 21  1  0  0  0  0
  2  7  1  0  0  0  0
  3  5  2  0  0  0  0
  4 11  1  0  0  0  0
  6 10  2  0  0  0  0
  7  9  2  0  0  0  0
  7  4  1  0  0  0  0
  8  4  2  0  0  0  0
  8  6  1  0  0  0  0
  9  3  1  0  0  0  0
 10  1  1  0  0  0  0
 11  5  1  0  0  0  0
 11  1  2  0  0  0  0
 12 18  1  0  0  0  0
 13 15  1  0  0  0  0
 13 16  1  0  0  0  0
 14 17  1  0  0  0  0
 14 18  1  0  0  0  0
 15  3  1  6  0  0  0
 15 12  1  0  0  0  0
 16 14  2  0  0  0  0
 19  9  1  0  0  0  0
 20 19  1  0  0  0  0
 21 22  1  0  0  0  0
 22 24  1  1  0  0  0
 22 25  1  0  0  0  0
 24 23  2  0  0  0  0
 26 27  1  0  0  0  0
 28 25  1  0  0  0  0
 28 26  2  0  0  0  0
M  END
>  <MODEL>
7

>  <REMARK>
 VINA RESULT:      -7.8      2.111      5.572
  Name = 
  7 active torsions:
  status: ('A' for Active; 'I' for Inactive)
    1  A    between atoms: C_1  and  N_2
    2  A    between atoms: N_2  and  C_3
    3  A    between atoms: C_3  and  C_7
    4  A    between atoms: C_3  and  C_11
    5  A    between atoms: C_7  and  C_28
    6  A    between atoms: C_10  and  C_13
    7  A    between atoms: O_14  and  C_25
                            x       y       z     vdW  Elec       q    Type
                         _______ _______ _______ _____ _____    ______ ____

>  <TORSDO>
F 7

$$$$
=
 OpenBabel10262420563D

 28 30  0  0  1  0  0  0  0  0999 V2000
  187.1620  177.6510  144.4560 C   0  0  0  0  0  0  0  0  0  0  0  0
  184.3850  179.3090  140.8840 F   0  0  0  0  0  0  0  0  0  0  0  0
  187.8550  178.0910  140.8900 C   0  0  0  0  0  0  0  0  0  0  0  0
  185.7440  178.4920  142.6580 C   0  0  0  0  0  0  0  0  0  0  0  0
  187.9890  177.7910  142.2100 N   0  0  0  0  0  0  0  0  0  0  0  0
  184.8830  178.3630  144.9200 C   0  0  0  0  0  3  0  0  0  0  0  0
  185.5770  178.8100  141.3040 C   0  0  0  0  0  0  0  0  0  0  0  0
  184.7020  178.6830  143.5730 C   0  0  0  0  0  3  0  0  0  0  0  0
  186.6430  178.6090  140.4000 C   0  0  0  0  0  0  0  0  0  0  0  0
  186.1060  177.8500  145.3580 C   0  0  0  0  0  3  0  0  0  0  0  0
  186.9790  177.9740  143.1020 C   0  0  0  0  0  0  0  0  0  0  0  0
  188.6900  176.7520  138.9690 C   0  0  0  0  0  2  0  0  0  0  0  0
  190.2660  177.5020  140.7410 C   0  0  0  0  0  2  0  0  0  0  0  0
  191.1940  176.6540  138.5810 C   0  0  0  0  0  0  0  0  0  0  0  0
  189.0070  177.8660  139.9590 C   0  0  2  0  0  3  0  0  0  0  0  0
  191.3970  177.1280  139.8220 C   0  0  0  0  0  3  0  0  0  0  0  0
  192.2710  176.3460  137.8150 F   0  0  0  0  0  0  0  0  0  0  0  0
  189.8230  176.6230  137.9500 C   0  0  0  0  0  2  0  0  0  0  0  0
  186.5490  178.9050  139.0290 O   0  0  0  0  0  0  0  0  0  0  0  0
  185.6530  178.2710  138.1280 C   0  0  0  0  0  1  0  0  0  0  0  0
  188.4240  177.1260  144.8980 N   0  0  0  0  0  2  0  0  0  0  0  0
  189.1660  177.5550  146.0860 C   0  0  1  0  0  3  0  0  0  0  0  0
  188.3060  177.8760  148.4670 S   0  0  0  0  0  0  0  0  0  0  0  0
  188.5380  177.0200  147.3390 C   0  0  0  0  0  3  0  0  0  0  0  0
  190.6330  177.1560  145.9720 C   0  0  0  0  0  2  0  0  0  0  0  0
  191.5000  177.9880  143.7820 C   0  0  0  0  0  3  0  0  0  0  0  0
  191.6820  179.3790  144.2980 C   0  0  0  0  0  1  0  0  0  0  0  0
  191.0360  176.9870  144.5370 C   0  0  0  0  0  3  0  0  0  0  0  0
  1 21  1  0  0  0  0
  1 10  1  0  0  0  0
  2  7  1  0  0  0  0
  3  5  2  0  0  0  0
  4 11  1  0  0  0  0
  4  8  2  0  0  0  0
  5 11  1  0  0  0  0
  6 10  2  0  0  0  0
  7  4  1  0  0  0  0
  8  6  1  0  0  0  0
  9  3  1  0  0  0  0
  9  7  2  0  0  0  0
 11  1  2  0  0  0  0
 12 15  1  0  0  0  0
 14 16  2  0  0  0  0
 15 13  1  0  0  0  0
 15  3  1  1  0  0  0
 16 13  1  0  0  0  0
 17 14  1  0  0  0  0
 18 14  1  0  0  0  0
 18 12  1  0  0  0  0
 19  9  1  0  0  0  0
 20 19  1  0  0  0  0
 21 22  1  0  0  0  0
 22 25  1  6  0  0  0
 22 24  1  0  0  0  0
 24 23  2  0  0  0  0
 26 27  1  0  0  0  0
 26 28  2  0  0  0  0
 28 25  1  0  0  0  0
M  END
>  <MODEL>
8

>  <REMARK>
 VINA RESULT:      -7.7      1.557      2.470
  Name = 
  7 active torsions:
  status: ('A' for Active; 'I' for Inactive)
    1  A    between atoms: C_1  and  N_2
    2  A    between atoms: N_2  and  C_3
    3  A    between atoms: C_3  and  C_7
    4  A    between atoms: C_3  and  C_11
    5  A    between atoms: C_7  and  C_28
    6  A    between atoms: C_10  and  C_13
    7  A    between atoms: O_14  and  C_25
                            x       y       z     vdW  Elec       q    Type
                         _______ _______ _______ _____ _____    ______ ____

>  <TORSDO>
F 7

$$$$
=
 OpenBabel10262420563D

 28 30  0  0  1  0  0  0  0  0999 V2000
  187.0280  178.5500  140.8220 C   0  0  0  0  0  0  0  0  0  0  0  0
  183.8190  178.3270  144.4100 F   0  0  0  0  0  0  0  0  0  0  0  0
  187.4200  177.5860  144.3310 C   0  0  0  0  0  0  0  0  0  0  0  0
  185.3920  178.4420  142.6290 C   0  0  0  0  0  0  0  0  0  0  0  0
  187.6800  177.8600  143.0240 N   0  0  0  0  0  0  0  0  0  0  0  0
  184.7050  179.1420  140.4120 C   0  0  0  0  0  3  0  0  0  0  0  0
  185.0950  178.1680  143.9700 C   0  0  0  0  0  0  0  0  0  0  0  0
  184.3940  178.8730  141.7470 C   0  0  0  0  0  3  0  0  0  0  0  0
  186.1180  177.7340  144.8400 C   0  0  0  0  0  0  0  0  0  0  0  0
  186.0140  178.9800  139.9530 C   0  0  0  0  0  3  0  0  0  0  0  0
  186.7150  178.2800  142.1640 C   0  0  0  0  0  0  0  0  0  0  0  0
  188.6730  178.0550  146.4270 C   0  0  0  0  0  2  0  0  0  0  0  0
  189.8510  177.0820  144.4640 C   0  0  0  0  0  2  0  0  0  0  0  0
  190.9760  177.0290  146.6950 C   0  0  0  0  0  0  0  0  0  0  0  0
  188.5300  177.1270  145.2260 C   0  0  2  0  0  3  0  0  0  0  0  0
  191.0050  176.7660  145.3780 C   0  0  0  0  0  3  0  0  0  0  0  0
  192.0580  176.7060  147.4490 F   0  0  0  0  0  0  0  0  0  0  0  0
  189.7220  177.5010  147.3910 C   0  0  0  0  0  2  0  0  0  0  0  0
  185.8940  177.4410  146.1970 O   0  0  0  0  0  0  0  0  0  0  0  0
  185.3020  178.3350  147.1270 C   0  0  0  0  0  1  0  0  0  0  0  0
  188.3780  178.3790  140.3590 N   0  0  0  0  0  2  0  0  0  0  0  0
  188.7880  177.6510  139.1570 C   0  0  1  0  0  3  0  0  0  0  0  0
  188.2140  178.5830  136.8510 S   0  0  0  0  0  0  0  0  0  0  0  0
  189.0500  178.5910  138.0170 C   0  0  0  0  0  3  0  0  0  0  0  0
  189.9970  176.7700  139.4530 C   0  0  0  0  0  2  0  0  0  0  0  0
  191.7270  177.2800  141.1810 C   0  0  0  0  0  3  0  0  0  0  0  0
  192.7920  177.5020  140.1560 C   0  0  0  0  0  1  0  0  0  0  0  0
  190.4680  176.9590  140.8650 C   0  0  0  0  0  3  0  0  0  0  0  0
  1 11  1  0  0  0  0
  3  9  1  0  0  0  0
  4  7  1  0  0  0  0
  5  3  2  0  0  0  0
  6  8  2  0  0  0  0
  7  2  1  0  0  0  0
  7  9  2  0  0  0  0
  8  4  1  0  0  0  0
  9 19  1  0  0  0  0
 10  6  1  0  0  0  0
 10  1  2  0  0  0  0
 11  4  2  0  0  0  0
 11  5  1  0  0  0  0
 12 18  1  0  0  0  0
 13 15  1  0  0  0  0
 13 16  1  0  0  0  0
 14 18  1  0  0  0  0
 14 17  1  0  0  0  0
 15  3  1  6  0  0  0
 15 12  1  0  0  0  0
 16 14  2  0  0  0  0
 19 20  1  0  0  0  0
 21  1  1  0  0  0  0
 22 24  1  6  0  0  0
 22 25  1  0  0  0  0
 22 21  1  0  0  0  0
 23 24  2  0  0  0  0
 25 28  1  0  0  0  0
 27 26  1  0  0  0  0
 28 26  2  0  0  0  0
M  END
>  <MODEL>
9

>  <REMARK>
 VINA RESULT:      -7.7      3.252      6.449
  Name = 
  7 active torsions:
  status: ('A' for Active; 'I' for Inactive)
    1  A    between atoms: C_1  and  N_2
    2  A    between atoms: N_2  and  C_3
    3  A    between atoms: C_3  and  C_7
    4  A    between atoms: C_3  and  C_11
    5  A    between atoms: C_7  and  C_28
    6  A    between atoms: C_10  and  C_13
    7  A    between atoms: O_14  and  C_25
                            x       y       z     vdW  Elec       q    Type
                         _______ _______ _______ _____ _____    ______ ____

>  <TORSDO>
F 7

$$$$
