=
 OpenBabel10262419493D

 25 28  0  0  1  0  0  0  0  0999 V2000
  187.4940  178.0990  145.6820 C   0  0  0  0  0  0  0  0  0  0  0  0
  188.7480  177.5980  145.3210 C   0  0  0  0  0  0  0  0  0  0  0  0
  187.9230  177.5790  147.9850 C   0  0  0  0  0  3  0  0  0  0  0  0
  186.4640  178.6880  144.7900 C   0  0  2  0  0  3  0  0  0  0  0  0
  183.7100  178.9140  143.9250 C   0  0  0  0  0  2  0  0  0  0  0  0
  189.1470  177.0910  147.6350 N   0  0  0  0  0  0  0  0  0  0  0  0
  185.3720  179.1780  145.7810 C   0  0  1  0  0  3  0  0  0  0  0  0
  183.9590  178.7140  145.4180 C   0  0  0  0  0  2  0  0  0  0  0  0
  190.9370  176.5210  145.9910 C   0  0  2  0  0  3  0  0  0  0  0  0
  191.8940  176.7760  147.0550 N   0  0  0  0  0  1  0  0  0  0  0  0
  189.1910  177.6120  143.9610 N   0  0  0  0  0  2  0  0  0  0  0  0
  184.7170  178.1500  143.0510 C   0  0  0  0  0  2  0  0  0  0  0  0
  187.0940  178.0980  146.9920 C   0  0  0  0  0  0  0  0  0  0  0  0
  185.7490  178.6790  147.1820 C   0  0  0  0  0  2  0  0  0  0  0  0
  191.4800  177.0910  144.6800 C   0  0  0  0  0  2  0  0  0  0  0  0
  185.9310  177.6280  143.8240 C   0  0  0  0  0  2  0  0  0  0  0  0
  190.4350  176.9560  143.5720 C   0  0  2  0  0  3  0  0  0  0  0  0
  189.5890  177.1060  146.3410 C   0  0  0  0  0  0  0  0  0  0  0  0
  190.9470  177.5070  142.2470 C   0  0  0  0  0  2  0  0  0  0  0  0
  190.3950  176.7370  141.0550 C   0  0  0  0  0  2  0  0  0  0  0  0
  189.8430  177.6920  138.7580 N   0  0  0  0  0  0  0  0  0  0  0  0
  190.8640  176.8630  138.1370 C   0  0  0  0  0  1  0  0  0  0  0  0
  189.0600  178.5710  137.9050 C   0  0  0  0  0  1  0  0  0  0  0  0
  189.6140  177.6550  140.1750 C   0  0  0  0  0  0  0  0  0  0  0  0
  188.7270  178.3860  140.6920 O   0  0  0  0  0  0  0  0  0  0  0  0
  1 13  1  0  0  0  0
  2  1  2  0  0  0  0
  2 18  1  0  0  0  0
  4 16  1  6  0  0  0
  4  1  1  0  0  0  0
  4  7  1  0  0  0  0
  5  8  1  0  0  0  0
  6  3  1  0  0  0  0
  7  8  1  6  0  0  0
  7 14  1  0  0  0  0
  9 18  1  0  0  0  0
  9 10  1  1  0  0  0
 11  2  1  0  0  0  0
 12 16  1  0  0  0  0
 12  5  1  0  0  0  0
 13 14  1  0  0  0  0
 13  3  2  0  0  0  0
 15  9  1  0  0  0  0
 17 19  1  6  0  0  0
 17 11  1  0  0  0  0
 17 15  1  0  0  0  0
 18  6  2  0  0  0  0
 20 19  1  0  0  0  0
 21 24  1  0  0  0  0
 22 21  1  0  0  0  0
 23 21  1  0  0  0  0
 24 25  2  0  0  0  0
 24 20  1  0  0  0  0
M  END
>  <MODEL>
1

>  <REMARK>
 VINA RESULT:     -10.0      0.000      0.000
  Name = 
  3 active torsions:
  status: ('A' for Active; 'I' for Inactive)
    1  A    between atoms: C_6  and  C_15
    2  A    between atoms: C_6  and  C_23
    3  A    between atoms: C_15  and  C_21
                            x       y       z     vdW  Elec       q    Type
                         _______ _______ _______ _____ _____    ______ ____

>  <TORSDO>
F 3

$$$$
=
 OpenBabel10262419493D

 25 28  0  0  1  0  0  0  0  0999 V2000
  187.4140  177.8180  145.5190 C   0  0  0  0  0  0  0  0  0  0  0  0
  186.5990  178.3320  144.5080 C   0  0  0  0  0  0  0  0  0  0  0  0
  185.7840  178.4210  147.1740 C   0  0  0  0  0  3  0  0  0  0  0  0
  188.7460  177.1790  145.3710 C   0  0  2  0  0  3  0  0  0  0  0  0
  191.5000  176.8700  146.2090 C   0  0  0  0  0  2  0  0  0  0  0  0
  184.9860  178.9220  146.1880 N   0  0  0  0  0  0  0  0  0  0  0  0
  189.0750  176.7000  146.8120 C   0  0  1  0  0  3  0  0  0  0  0  0
  190.4630  177.1230  147.3000 C   0  0  0  0  0  2  0  0  0  0  0  0
  184.4500  179.4740  143.8130 C   0  0  2  0  0  3  0  0  0  0  0  0
  183.0530  179.2720  144.1580 N   0  0  0  0  0  1  0  0  0  0  0  0
  186.9960  178.2820  143.1340 N   0  0  0  0  0  2  0  0  0  0  0  0
  191.1860  177.6250  144.9080 C   0  0  0  0  0  2  0  0  0  0  0  0
  187.0090  177.8540  146.8270 C   0  0  0  0  0  0  0  0  0  0  0  0
  187.9940  177.2520  147.7500 C   0  0  0  0  0  2  0  0  0  0  0  0
  184.7180  178.8720  142.4330 C   0  0  0  0  0  2  0  0  0  0  0  0
  189.7670  178.1960  144.8560 C   0  0  0  0  0  2  0  0  0  0  0  0
  186.2090  178.9500  142.1030 C   0  0  2  0  0  3  0  0  0  0  0  0
  185.3470  178.8740  144.8690 C   0  0  0  0  0  0  0  0  0  0  0  0
  186.5110  178.3660  140.7280 C   0  0  0  0  0  2  0  0  0  0  0  0
  188.0080  178.2180  140.4860 C   0  0  0  0  0  2  0  0  0  0  0  0
  189.4960  177.5670  138.5220 N   0  0  0  0  0  0  0  0  0  0  0  0
  190.5180  177.0660  139.4260 C   0  0  0  0  0  1  0  0  0  0  0  0
  189.7400  177.4770  137.0920 C   0  0  0  0  0  1  0  0  0  0  0  0
  188.2790  178.1450  139.0200 C   0  0  0  0  0  0  0  0  0  0  0  0
  187.4090  178.5770  138.2180 O   0  0  0  0  0  0  0  0  0  0  0  0
  1 13  1  0  0  0  0
  2 18  1  0  0  0  0
  2  1  2  0  0  0  0
  4 16  1  1  0  0  0
  4  1  1  0  0  0  0
  4  7  1  0  0  0  0
  5  8  1  0  0  0  0
  6  3  1  0  0  0  0
  7  8  1  1  0  0  0
  7 14  1  0  0  0  0
  9 10  1  1  0  0  0
  9 18  1  0  0  0  0
 11  2  1  0  0  0  0
 12  5  1  0  0  0  0
 13  3  2  0  0  0  0
 13 14  1  0  0  0  0
 15  9  1  0  0  0  0
 16 12  1  0  0  0  0
 17 19  1  6  0  0  0
 17 15  1  0  0  0  0
 17 11  1  0  0  0  0
 18  6  2  0  0  0  0
 20 19  1  0  0  0  0
 21 24  1  0  0  0  0
 21 22  1  0  0  0  0
 23 21  1  0  0  0  0
 24 20  1  0  0  0  0
 25 24  2  0  0  0  0
M  END
>  <MODEL>
2

>  <REMARK>
 VINA RESULT:      -9.5      2.070      4.703
  Name = 
  3 active torsions:
  status: ('A' for Active; 'I' for Inactive)
    1  A    between atoms: C_6  and  C_15
    2  A    between atoms: C_6  and  C_23
    3  A    between atoms: C_15  and  C_21
                            x       y       z     vdW  Elec       q    Type
                         _______ _______ _______ _____ _____    ______ ____

>  <TORSDO>
F 3

$$$$
=
 OpenBabel10262419493D

 25 28  0  0  1  0  0  0  0  0999 V2000
  186.9390  178.1270  144.4670 C   0  0  0  0  0  0  0  0  0  0  0  0
  188.0700  177.6280  143.8150 C   0  0  0  0  0  0  0  0  0  0  0  0
  187.8160  177.4160  146.5840 C   0  0  0  0  0  3  0  0  0  0  0  0
  185.7690  178.8080  143.8570 C   0  0  2  0  0  3  0  0  0  0  0  0
  182.9060  179.1630  143.6090 C   0  0  0  0  0  2  0  0  0  0  0  0
  188.9210  176.9300  145.9500 N   0  0  0  0  0  0  0  0  0  0  0  0
  184.9260  179.2420  145.0890 C   0  0  1  0  0  3  0  0  0  0  0  0
  183.4520  178.8400  144.9980 C   0  0  0  0  0  2  0  0  0  0  0  0
  190.3070  176.4520  143.9290 C   0  0  2  0  0  3  0  0  0  0  0  0
  191.4730  176.6010  144.7840 N   0  0  0  0  0  1  0  0  0  0  0  0
  188.2200  177.7410  142.3970 N   0  0  0  0  0  2  0  0  0  0  0  0
  183.6790  178.4490  142.4900 C   0  0  0  0  0  2  0  0  0  0  0  0
  186.8200  178.0300  145.8280 C   0  0  0  0  0  0  0  0  0  0  0  0
  185.5670  178.6250  146.3390 C   0  0  0  0  0  2  0  0  0  0  0  0
  190.5870  177.1130  142.5790 C   0  0  0  0  0  2  0  0  0  0  0  0
  185.0060  177.8400  142.9500 C   0  0  0  0  0  2  0  0  0  0  0  0
  189.3310  177.0900  141.7090 C   0  0  2  0  0  3  0  0  0  0  0  0
  189.0850  177.0380  144.5960 C   0  0  0  0  0  0  0  0  0  0  0  0
  189.5770  177.7330  140.3490 C   0  0  0  0  0  2  0  0  0  0  0  0
  188.2770  178.0340  139.6140 C   0  0  0  0  0  2  0  0  0  0  0  0
  188.3630  177.3730  137.1550 N   0  0  0  0  0  0  0  0  0  0  0  0
  187.9050  176.0290  137.4710 C   0  0  0  0  0  1  0  0  0  0  0  0
  188.6200  177.7010  135.7620 C   0  0  0  0  0  1  0  0  0  0  0  0
  188.5640  178.3530  138.1850 C   0  0  0  0  0  0  0  0  0  0  0  0
  188.9660  179.5100  137.8890 O   0  0  0  0  0  0  0  0  0  0  0  0
  1 13  1  0  0  0  0
  2  1  2  0  0  0  0
  2 18  1  0  0  0  0
  4 16  1  6  0  0  0
  4  1  1  0  0  0  0
  4  7  1  0  0  0  0
  5  8  1  0  0  0  0
  6  3  1  0  0  0  0
  7  8  1  6  0  0  0
  7 14  1  0  0  0  0
  9 18  1  0  0  0  0
  9 10  1  1  0  0  0
 11  2  1  0  0  0  0
 12 16  1  0  0  0  0
 12  5  1  0  0  0  0
 13 14  1  0  0  0  0
 13  3  2  0  0  0  0
 15  9  1  0  0  0  0
 17 19  1  6  0  0  0
 17 11  1  0  0  0  0
 17 15  1  0  0  0  0
 18  6  2  0  0  0  0
 20 19  1  0  0  0  0
 21 22  1  0  0  0  0
 21 24  1  0  0  0  0
 23 21  1  0  0  0  0
 24 20  1  0  0  0  0
 25 24  2  0  0  0  0
M  END
>  <MODEL>
3

>  <REMARK>
 VINA RESULT:      -9.2      1.496      1.934
  Name = 
  3 active torsions:
  status: ('A' for Active; 'I' for Inactive)
    1  A    between atoms: C_6  and  C_15
    2  A    between atoms: C_6  and  C_23
    3  A    between atoms: C_15  and  C_21
                            x       y       z     vdW  Elec       q    Type
                         _______ _______ _______ _____ _____    ______ ____

>  <TORSDO>
F 3

$$$$
=
 OpenBabel10262419493D

 25 28  0  0  1  0  0  0  0  0999 V2000
  187.4830  177.8120  145.3370 C   0  0  0  0  0  0  0  0  0  0  0  0
  186.4380  178.3300  144.5670 C   0  0  0  0  0  0  0  0  0  0  0  0
  186.3190  178.3970  147.3520 C   0  0  0  0  0  3  0  0  0  0  0  0
  188.7360  177.1810  144.8550 C   0  0  2  0  0  3  0  0  0  0  0  0
  191.6140  176.8780  144.9720 C   0  0  0  0  0  2  0  0  0  0  0  0
  185.2980  178.9010  146.6020 N   0  0  0  0  0  0  0  0  0  0  0  0
  189.4180  176.6930  146.1630 C   0  0  1  0  0  3  0  0  0  0  0  0
  190.8830  177.1190  146.2900 C   0  0  0  0  0  2  0  0  0  0  0  0
  184.1810  179.4670  144.4430 C   0  0  2  0  0  3  0  0  0  0  0  0
  182.9160  179.2570  145.1260 N   0  0  0  0  0  1  0  0  0  0  0  0
  186.4790  178.2910  143.1370 N   0  0  0  0  0  2  0  0  0  0  0  0
  190.9810  177.6400  143.7970 C   0  0  0  0  0  2  0  0  0  0  0  0
  187.4190  177.8380  146.7050 C   0  0  0  0  0  0  0  0  0  0  0  0
  188.6060  177.2340  147.3470 C   0  0  0  0  0  2  0  0  0  0  0  0
  184.0960  178.8760  143.0350 C   0  0  0  0  0  2  0  0  0  0  0  0
  189.5930  178.2060  144.1070 C   0  0  0  0  0  2  0  0  0  0  0  0
  185.4560  178.9620  142.3420 C   0  0  2  0  0  3  0  0  0  0  0  0
  185.3160  178.8630  145.2350 C   0  0  0  0  0  0  0  0  0  0  0  0
  185.4050  178.3900  140.9300 C   0  0  0  0  0  2  0  0  0  0  0  0
  183.9760  178.2450  140.4230 C   0  0  0  0  0  2  0  0  0  0  0  0
  182.2580  179.7470  139.2900 N   0  0  0  0  0  0  0  0  0  0  0  0
  181.1660  178.9590  139.8370 C   0  0  0  0  0  1  0  0  0  0  0  0
  181.9280  180.8940  138.4600 C   0  0  0  0  0  1  0  0  0  0  0  0
  183.6280  179.4050  139.5500 C   0  0  0  0  0  0  0  0  0  0  0  0
  184.5590  180.0990  139.0620 O   0  0  0  0  0  0  0  0  0  0  0  0
  1 13  1  0  0  0  0
  2 18  1  0  0  0  0
  2  1  2  0  0  0  0
  4 16  1  1  0  0  0
  4  1  1  0  0  0  0
  4  7  1  0  0  0  0
  5  8  1  0  0  0  0
  6  3  1  0  0  0  0
  7  8  1  1  0  0  0
  7 14  1  0  0  0  0
  9 10  1  1  0  0  0
  9 18  1  0  0  0  0
 11  2  1  0  0  0  0
 12 16  1  0  0  0  0
 12  5  1  0  0  0  0
 13 14  1  0  0  0  0
 13  3  2  0  0  0  0
 15  9  1  0  0  0  0
 17 19  1  6  0  0  0
 17 15  1  0  0  0  0
 17 11  1  0  0  0  0
 18  6  2  0  0  0  0
 20 19  1  0  0  0  0
 21 24  1  0  0  0  0
 21 22  1  0  0  0  0
 23 21  1  0  0  0  0
 24 20  1  0  0  0  0
 25 24  2  0  0  0  0
M  END
>  <MODEL>
4

>  <REMARK>
 VINA RESULT:      -9.1      3.185      5.903
  Name = 
  3 active torsions:
  status: ('A' for Active; 'I' for Inactive)
    1  A    between atoms: C_6  and  C_15
    2  A    between atoms: C_6  and  C_23
    3  A    between atoms: C_15  and  C_21
                            x       y       z     vdW  Elec       q    Type
                         _______ _______ _______ _____ _____    ______ ____

>  <TORSDO>
F 3

$$$$
=
 OpenBabel10262419493D

 25 28  0  0  1  0  0  0  0  0999 V2000
  187.9680  177.4270  143.7710 C   0  0  0  0  0  0  0  0  0  0  0  0
  186.7530  177.9940  144.1650 C   0  0  0  0  0  0  0  0  0  0  0  0
  188.7570  177.4870  146.0370 C   0  0  0  0  0  3  0  0  0  0  0  0
  188.3770  177.0200  142.4040 C   0  0  2  0  0  3  0  0  0  0  0  0
  190.3350  176.9580  140.2720 C   0  0  0  0  0  2  0  0  0  0  0  0
  187.5710  178.0390  146.4230 N   0  0  0  0  0  0  0  0  0  0  0  0
  189.7560  176.3410  142.6300 C   0  0  1  0  0  3  0  0  0  0  0  0
  190.8570  176.8620  141.7030 C   0  0  0  0  0  2  0  0  0  0  0  0
  185.2770  178.9270  145.9960 C   0  0  2  0  0  3  0  0  0  0  0  0
  184.9310  178.4710  147.3320 N   0  0  0  0  0  1  0  0  0  0  0  0
  185.7110  178.2490  143.2180 N   0  0  0  0  0  2  0  0  0  0  0  0
  189.1140  177.8830  140.1500 C   0  0  0  0  0  2  0  0  0  0  0  0
  188.9480  177.1700  144.6940 C   0  0  0  0  0  0  0  0  0  0  0  0
  190.1530  176.5570  144.0960 C   0  0  0  0  0  2  0  0  0  0  0  0
  184.1160  178.6270  145.0470 C   0  0  0  0  0  2  0  0  0  0  0  0
  188.4810  178.2480  141.4950 C   0  0  0  0  0  2  0  0  0  0  0  0
  184.5060  178.9730  143.6100 C   0  0  2  0  0  3  0  0  0  0  0  0
  186.5610  178.2800  145.5330 C   0  0  0  0  0  0  0  0  0  0  0  0
  183.3660  178.6950  142.6360 C   0  0  0  0  0  2  0  0  0  0  0  0
  183.8590  178.0500  141.3470 C   0  0  0  0  0  2  0  0  0  0  0  0
  182.4550  179.0890  139.4910 N   0  0  0  0  0  0  0  0  0  0  0  0
  181.3290  178.2300  139.8250 C   0  0  0  0  0  1  0  0  0  0  0  0
  182.2960  180.0370  138.4010 C   0  0  0  0  0  1  0  0  0  0  0  0
  183.6950  179.0020  140.2090 C   0  0  0  0  0  0  0  0  0  0  0  0
  184.6600  179.7520  139.9010 O   0  0  0  0  0  0  0  0  0  0  0  0
  1  2  2  0  0  0  0
  1 13  1  0  0  0  0
  2 18  1  0  0  0  0
  3  6  1  0  0  0  0
  4 16  1  6  0  0  0
  4  7  1  0  0  0  0
  4  1  1  0  0  0  0
  5  8  1  0  0  0  0
  7  8  1  6  0  0  0
  7 14  1  0  0  0  0
  9 10  1  1  0  0  0
 11 17  1  0  0  0  0
 11  2  1  0  0  0  0
 12  5  1  0  0  0  0
 12 16  1  0  0  0  0
 13  3  2  0  0  0  0
 14 13  1  0  0  0  0
 15  9  1  0  0  0  0
 17 19  1  6  0  0  0
 17 15  1  0  0  0  0
 18  9  1  0  0  0  0
 18  6  2  0  0  0  0
 20 19  1  0  0  0  0
 21 22  1  0  0  0  0
 21 24  1  0  0  0  0
 23 21  1  0  0  0  0
 24 20  1  0  0  0  0
 25 24  2  0  0  0  0
M  END
>  <MODEL>
5

>  <REMARK>
 VINA RESULT:      -9.1      2.841      5.822
  Name = 
  3 active torsions:
  status: ('A' for Active; 'I' for Inactive)
    1  A    between atoms: C_6  and  C_15
    2  A    between atoms: C_6  and  C_23
    3  A    between atoms: C_15  and  C_21
                            x       y       z     vdW  Elec       q    Type
                         _______ _______ _______ _____ _____    ______ ____

>  <TORSDO>
F 3

$$$$
=
 OpenBabel10262419493D

 25 28  0  0  1  0  0  0  0  0999 V2000
  187.2920  177.8590  145.4460 C   0  0  0  0  0  0  0  0  0  0  0  0
  186.4110  178.3570  144.4820 C   0  0  0  0  0  0  0  0  0  0  0  0
  185.7550  178.4520  147.1910 C   0  0  0  0  0  3  0  0  0  0  0  0
  188.6210  177.2370  145.2230 C   0  0  2  0  0  3  0  0  0  0  0  0
  191.4240  176.9690  145.8970 C   0  0  0  0  0  2  0  0  0  0  0  0
  184.8940  178.9370  146.2520 N   0  0  0  0  0  0  0  0  0  0  0  0
  189.0410  176.7720  146.6450 C   0  0  1  0  0  3  0  0  0  0  0  0
  190.4500  177.2160  147.0460 C   0  0  0  0  0  2  0  0  0  0  0  0
  184.2100  179.4670  143.9100 C   0  0  2  0  0  3  0  0  0  0  0  0
  182.8390  179.2490  144.3380 N   0  0  0  0  0  1  0  0  0  0  0  0
  186.7270  178.3040  143.0880 N   0  0  0  0  0  2  0  0  0  0  0  0
  191.0230  177.7120  144.6130 C   0  0  0  0  0  2  0  0  0  0  0  0
  186.9640  177.8990  146.7760 C   0  0  0  0  0  0  0  0  0  0  0  0
  188.0100  177.3150  147.6420 C   0  0  0  0  0  2  0  0  0  0  0  0
  184.4040  178.8600  142.5200 C   0  0  0  0  0  2  0  0  0  0  0  0
  189.5960  178.2650  144.6420 C   0  0  0  0  0  2  0  0  0  0  0  0
  185.8710  178.9550  142.1020 C   0  0  2  0  0  3  0  0  0  0  0  0
  185.1760  178.8850  144.9150 C   0  0  0  0  0  0  0  0  0  0  0  0
  186.0990  178.3670  140.7140 C   0  0  0  0  0  2  0  0  0  0  0  0
  185.0170  178.7880  139.7290 C   0  0  0  0  0  2  0  0  0  0  0  0
  184.5660  177.3750  137.6570 N   0  0  0  0  0  0  0  0  0  0  0  0
  183.3860  176.7920  138.2770 C   0  0  0  0  0  1  0  0  0  0  0  0
  184.9100  176.9560  136.3090 C   0  0  0  0  0  1  0  0  0  0  0  0
  185.3780  178.3320  138.3540 C   0  0  0  0  0  0  0  0  0  0  0  0
  186.3980  178.8210  137.7990 O   0  0  0  0  0  0  0  0  0  0  0  0
  1 13  1  0  0  0  0
  2 18  1  0  0  0  0
  2  1  2  0  0  0  0
  4 16  1  1  0  0  0
  4  1  1  0  0  0  0
  4  7  1  0  0  0  0
  5  8  1  0  0  0  0
  6  3  1  0  0  0  0
  7  8  1  1  0  0  0
  7 14  1  0  0  0  0
  9 10  1  1  0  0  0
  9 18  1  0  0  0  0
 11  2  1  0  0  0  0
 12 16  1  0  0  0  0
 12  5  1  0  0  0  0
 13  3  2  0  0  0  0
 13 14  1  0  0  0  0
 15  9  1  0  0  0  0
 17 19  1  6  0  0  0
 17 15  1  0  0  0  0
 17 11  1  0  0  0  0
 18  6  2  0  0  0  0
 20 19  1  0  0  0  0
 21 22  1  0  0  0  0
 21 24  1  0  0  0  0
 23 21  1  0  0  0  0
 24 20  1  0  0  0  0
 25 24  2  0  0  0  0
M  END
>  <MODEL>
6

>  <REMARK>
 VINA RESULT:      -9.0      2.892      5.355
  Name = 
  3 active torsions:
  status: ('A' for Active; 'I' for Inactive)
    1  A    between atoms: C_6  and  C_15
    2  A    between atoms: C_6  and  C_23
    3  A    between atoms: C_15  and  C_21
                            x       y       z     vdW  Elec       q    Type
                         _______ _______ _______ _____ _____    ______ ____

>  <TORSDO>
F 3

$$$$
=
 OpenBabel10262419493D

 25 28  0  0  1  0  0  0  0  0999 V2000
  187.2300  177.8040  143.6570 C   0  0  0  0  0  0  0  0  0  0  0  0
  187.7040  177.8820  142.3450 C   0  0  0  0  0  0  0  0  0  0  0  0
  185.2060  178.9240  143.0180 C   0  0  0  0  0  3  0  0  0  0  0  0
  187.9080  177.1980  144.8300 C   0  0  2  0  0  3  0  0  0  0  0  0
  188.7170  177.3080  147.6080 C   0  0  0  0  0  2  0  0  0  0  0  0
  185.6670  179.0000  141.7370 N   0  0  0  0  0  0  0  0  0  0  0  0
  186.8370  177.2970  145.9530 C   0  0  1  0  0  3  0  0  0  0  0  0
  187.3620  177.9140  147.2510 C   0  0  0  0  0  2  0  0  0  0  0  0
  187.3660  178.6170  139.9480 C   0  0  2  0  0  3  0  0  0  0  0  0
  186.2550  178.5130  139.0160 N   0  0  0  0  0  1  0  0  0  0  0  0
  188.9770  177.3400  141.9820 N   0  0  0  0  0  2  0  0  0  0  0  0
  189.7670  177.5190  146.5070 C   0  0  0  0  0  2  0  0  0  0  0  0
  185.9990  178.3090  143.9840 C   0  0  0  0  0  0  0  0  0  0  0  0
  185.6630  178.1220  145.4120 C   0  0  0  0  0  2  0  0  0  0  0  0
  188.4110  177.5560  139.6020 C   0  0  0  0  0  2  0  0  0  0  0  0
  189.1750  177.9850  145.1740 C   0  0  0  0  0  2  0  0  0  0  0  0
  189.5270  177.5540  140.6470 C   0  0  2  0  0  3  0  0  0  0  0  0
  186.8770  178.4790  141.3700 C   0  0  0  0  0  0  0  0  0  0  0  0
  190.5940  176.5130  140.3270 C   0  0  0  0  0  2  0  0  0  0  0  0
  191.2590  176.7690  138.9810 C   0  0  0  0  0  2  0  0  0  0  0  0
  192.4420  174.9640  137.6260 N   0  0  0  0  0  0  0  0  0  0  0  0
  193.7290  175.6050  137.8440 C   0  0  0  0  0  1  0  0  0  0  0  0
  192.4090  173.7380  136.8470 C   0  0  0  0  0  1  0  0  0  0  0  0
  191.2320  175.5250  138.1570 C   0  0  0  0  0  0  0  0  0  0  0  0
  190.1260  174.9550  137.9530 O   0  0  0  0  0  0  0  0  0  0  0  0
  1 13  1  0  0  0  0
  1  4  1  0  0  0  0
  2  1  2  0  0  0  0
  3 13  2  0  0  0  0
  4 16  1  1  0  0  0
  4  7  1  0  0  0  0
  6  3  1  0  0  0  0
  7 14  1  6  0  0  0
  7  8  1  0  0  0  0
  8  5  1  0  0  0  0
  9 10  1  6  0  0  0
  9 18  1  0  0  0  0
 11  2  1  0  0  0  0
 12  5  1  0  0  0  0
 13 14  1  0  0  0  0
 15  9  1  0  0  0  0
 15 17  1  0  0  0  0
 16 12  1  0  0  0  0
 17 19  1  6  0  0  0
 17 11  1  0  0  0  0
 18  6  2  0  0  0  0
 18  2  1  0  0  0  0
 20 19  1  0  0  0  0
 21 22  1  0  0  0  0
 21 24  1  0  0  0  0
 23 21  1  0  0  0  0
 24 20  1  0  0  0  0
 25 24  2  0  0  0  0
M  END
>  <MODEL>
7

>  <REMARK>
 VINA RESULT:      -8.9      2.399      4.771
  Name = 
  3 active torsions:
  status: ('A' for Active; 'I' for Inactive)
    1  A    between atoms: C_6  and  C_15
    2  A    between atoms: C_6  and  C_23
    3  A    between atoms: C_15  and  C_21
                            x       y       z     vdW  Elec       q    Type
                         _______ _______ _______ _____ _____    ______ ____

>  <TORSDO>
F 3

$$$$
=
 OpenBabel10262419493D

 25 28  0  0  1  0  0  0  0  0999 V2000
  187.5900  177.7130  142.6730 C   0  0  0  0  0  0  0  0  0  0  0  0
  188.1850  177.7960  141.4110 C   0  0  0  0  0  0  0  0  0  0  0  0
  185.6130  178.7870  141.8370 C   0  0  0  0  0  3  0  0  0  0  0  0
  188.1650  177.1260  143.9090 C   0  0  2  0  0  3  0  0  0  0  0  0
  188.7030  177.2640  146.7500 C   0  0  0  0  0  2  0  0  0  0  0  0
  186.1930  178.8680  140.6050 N   0  0  0  0  0  0  0  0  0  0  0  0
  186.9910  177.2060  144.9230 C   0  0  1  0  0  3  0  0  0  0  0  0
  187.3760  177.8390  146.2620 C   0  0  0  0  0  2  0  0  0  0  0  0
  188.0620  178.5150  138.9890 C   0  0  2  0  0  3  0  0  0  0  0  0
  187.0480  178.3840  137.9560 N   0  0  0  0  0  1  0  0  0  0  0  0
  189.4990  177.2810  141.1740 N   0  0  0  0  0  2  0  0  0  0  0  0
  189.8490  177.4930  145.7530 C   0  0  0  0  0  2  0  0  0  0  0  0
  186.3230  178.1920  142.8780 C   0  0  0  0  0  0  0  0  0  0  0  0
  185.8560  178.0040  144.2670 C   0  0  0  0  0  2  0  0  0  0  0  0
  189.1590  177.4760  138.7500 C   0  0  0  0  0  2  0  0  0  0  0  0
  189.3770  177.9410  144.3670 C   0  0  0  0  0  2  0  0  0  0  0  0
  190.1690  177.5010  139.8970 C   0  0  2  0  0  3  0  0  0  0  0  0
  187.4430  178.3720  140.3580 C   0  0  0  0  0  0  0  0  0  0  0  0
  191.2830  176.4830  139.6870 C   0  0  0  0  0  2  0  0  0  0  0  0
  191.3720  176.0230  138.2370 C   0  0  0  0  0  2  0  0  0  0  0  0
  193.0440  176.0730  136.3140 N   0  0  0  0  0  0  0  0  0  0  0  0
  192.0610  175.5000  135.4080 C   0  0  0  0  0  1  0  0  0  0  0  0
  194.3620  176.3870  135.7880 C   0  0  0  0  0  1  0  0  0  0  0  0
  192.7310  176.3170  137.6940 C   0  0  0  0  0  0  0  0  0  0  0  0
  193.5990  176.8100  138.4630 O   0  0  0  0  0  0  0  0  0  0  0  0
  1 13  1  0  0  0  0
  1  4  1  0  0  0  0
  2  1  2  0  0  0  0
  3 13  2  0  0  0  0
  4 16  1  1  0  0  0
  4  7  1  0  0  0  0
  6  3  1  0  0  0  0
  7 14  1  6  0  0  0
  7  8  1  0  0  0  0
  8  5  1  0  0  0  0
  9 10  1  6  0  0  0
  9 18  1  0  0  0  0
 11  2  1  0  0  0  0
 12  5  1  0  0  0  0
 13 14  1  0  0  0  0
 15  9  1  0  0  0  0
 15 17  1  0  0  0  0
 16 12  1  0  0  0  0
 17 19  1  6  0  0  0
 17 11  1  0  0  0  0
 18  6  2  0  0  0  0
 18  2  1  0  0  0  0
 20 19  1  0  0  0  0
 21 24  1  0  0  0  0
 22 21  1  0  0  0  0
 23 21  1  0  0  0  0
 24 20  1  0  0  0  0
 24 25  2  0  0  0  0
M  END
>  <MODEL>
8

>  <REMARK>
 VINA RESULT:      -8.8      2.657      5.190
  Name = 
  3 active torsions:
  status: ('A' for Active; 'I' for Inactive)
    1  A    between atoms: C_6  and  C_15
    2  A    between atoms: C_6  and  C_23
    3  A    between atoms: C_15  and  C_21
                            x       y       z     vdW  Elec       q    Type
                         _______ _______ _______ _____ _____    ______ ____

>  <TORSDO>
F 3

$$$$
=
 OpenBabel10262419493D

 25 28  0  0  1  0  0  0  0  0999 V2000
  185.9420  178.2200  142.7520 C   0  0  0  0  0  0  0  0  0  0  0  0
  187.0430  178.0810  141.9020 C   0  0  0  0  0  0  0  0  0  0  0  0
  184.6900  179.2730  140.9970 C   0  0  0  0  0  3  0  0  0  0  0  0
  185.8320  177.7890  144.1680 C   0  0  2  0  0  3  0  0  0  0  0  0
  185.0590  178.3130  146.9090 C   0  0  0  0  0  2  0  0  0  0  0  0
  185.7620  179.1370  140.1660 N   0  0  0  0  0  0  0  0  0  0  0  0
  184.3470  178.0870  144.5180 C   0  0  1  0  0  3  0  0  0  0  0  0
  184.1680  178.8870  145.8100 C   0  0  0  0  0  2  0  0  0  0  0  0
  188.0990  178.4400  139.6310 C   0  0  2  0  0  3  0  0  0  0  0  0
  187.6440  178.2180  138.2690 N   0  0  0  0  0  1  0  0  0  0  0  0
  188.2520  177.4600  142.3480 N   0  0  0  0  0  2  0  0  0  0  0  0
  186.5470  178.3240  146.5280 C   0  0  0  0  0  2  0  0  0  0  0  0
  184.7840  178.7980  142.3030 C   0  0  0  0  0  0  0  0  0  0  0  0
  183.7280  178.8450  143.3360 C   0  0  0  0  0  2  0  0  0  0  0  0
  189.0540  177.3150  140.0310 C   0  0  0  0  0  2  0  0  0  0  0  0
  186.8000  178.5900  145.0420 C   0  0  0  0  0  2  0  0  0  0  0  0
  189.4420  177.4490  141.5030 C   0  0  2  0  0  3  0  0  0  0  0  0
  186.9220  178.5370  140.5730 C   0  0  0  0  0  0  0  0  0  0  0  0
  190.4020  176.3470  141.9340 C   0  0  0  0  0  2  0  0  0  0  0  0
  191.6120  176.9000  142.6770 C   0  0  0  0  0  2  0  0  0  0  0  0
  191.0720  177.2170  145.1470 N   0  0  0  0  0  0  0  0  0  0  0  0
  190.5460  178.5480  144.8900 C   0  0  0  0  0  1  0  0  0  0  0  0
  191.0500  176.7210  146.5130 C   0  0  0  0  0  1  0  0  0  0  0  0
  191.6090  176.4100  144.0870 C   0  0  0  0  0  0  0  0  0  0  0  0
  192.0640  175.2620  144.3330 O   0  0  0  0  0  0  0  0  0  0  0  0
  1  4  1  0  0  0  0
  2 11  1  0  0  0  0
  2  1  2  0  0  0  0
  3 13  2  0  0  0  0
  4  7  1  0  0  0  0
  4 16  1  1  0  0  0
  6 18  2  0  0  0  0
  6  3  1  0  0  0  0
  7 14  1  6  0  0  0
  7  8  1  0  0  0  0
  8  5  1  0  0  0  0
  9 10  1  6  0  0  0
  9 15  1  0  0  0  0
  9 18  1  0  0  0  0
 12  5  1  0  0  0  0
 13  1  1  0  0  0  0
 13 14  1  0  0  0  0
 15 17  1  0  0  0  0
 16 12  1  0  0  0  0
 17 19  1  1  0  0  0
 17 11  1  0  0  0  0
 18  2  1  0  0  0  0
 19 20  1  0  0  0  0
 20 24  1  0  0  0  0
 21 23  1  0  0  0  0
 22 21  1  0  0  0  0
 24 25  2  0  0  0  0
 24 21  1  0  0  0  0
M  END
>  <MODEL>
9

>  <REMARK>
 VINA RESULT:      -8.8      2.044      5.305
  Name = 
  3 active torsions:
  status: ('A' for Active; 'I' for Inactive)
    1  A    between atoms: C_6  and  C_15
    2  A    between atoms: C_6  and  C_23
    3  A    between atoms: C_15  and  C_21
                            x       y       z     vdW  Elec       q    Type
                         _______ _______ _______ _____ _____    ______ ____

>  <TORSDO>
F 3

$$$$
