=
 OpenBabel10262420513D

 28 32  0  0  0  0  0  0  0  0999 V2000
  189.7260  176.8790  142.6300 N   0  0  0  0  0  0  0  0  0  0  0  0
  184.6860  178.3350  142.6740 C   0  0  0  0  0  3  0  0  0  0  0  0
  188.8820  177.6160  147.4460 C   0  0  0  0  0  1  0  0  0  0  0  0
  184.3670  178.6870  145.0910 C   0  0  0  0  0  0  0  0  0  0  0  0
  186.5760  177.9570  144.3740 C   0  0  0  0  0  0  0  0  0  0  0  0
  182.5010  179.0660  143.4340 C   0  0  0  0  0  0  0  0  0  0  0  0
  185.1780  178.3370  144.0680 C   0  0  0  0  0  0  0  0  0  0  0  0
  186.1730  178.3330  146.7290 C   0  0  0  0  0  3  0  0  0  0  0  0
  182.9290  179.0890  144.8740 C   0  0  0  0  0  2  0  0  0  0  0  0
  189.2880  177.2480  144.9900 C   0  0  0  0  0  0  0  0  0  0  0  0
  187.4320  177.5990  143.4140 C   0  0  0  0  0  3  0  0  0  0  0  0
  184.8540  178.6870  146.4080 O   0  0  0  0  0  0  0  0  0  0  0  0
  191.6430  177.0420  144.1190 C   0  0  0  0  0  2  0  0  0  0  0  0
  188.3980  177.6110  146.0690 N   0  0  0  0  0  0  0  0  0  0  0  0
  190.7060  176.8280  145.3020 C   0  0  0  0  0  2  0  0  0  0  0  0
  181.3220  179.3870  143.1330 O   0  0  0  0  0  0  0  0  0  0  0  0
  183.4350  178.6760  142.3750 C   0  0  0  0  0  3  0  0  0  0  0  0
  187.0370  177.9760  145.7730 C   0  0  0  0  0  0  0  0  0  0  0  0
  191.0560  176.3430  142.9060 C   0  0  0  0  0  2  0  0  0  0  0  0
  188.8350  177.2230  143.7130 C   0  0  0  0  0  0  0  0  0  0  0  0
  189.3780  177.1720  141.2450 C   0  0  0  0  0  2  0  0  0  0  0  0
  190.5550  176.9550  140.3560 C   0  0  0  0  0  0  0  0  0  0  0  0
  192.7490  176.5930  138.6560 C   0  0  0  0  0  0  0  0  0  0  0  0
  191.7760  177.5770  140.6440 C   0  0  0  0  0  3  0  0  0  0  0  0
  190.4320  176.1590  139.2120 C   0  0  0  0  0  3  0  0  0  0  0  0
  191.5280  175.9760  138.3640 C   0  0  0  0  0  3  0  0  0  0  0  0
  193.8110  176.4160  137.8340 F   0  0  0  0  0  0  0  0  0  0  0  0
  192.8720  177.3940  139.7960 C   0  0  0  0  0  3  0  0  0  0  0  0
  1 19  1  0  0  0  0
  1 20  1  0  0  0  0
  2  7  1  0  0  0  0
  4 12  1  0  0  0  0
  5 18  1  0  0  0  0
  6  9  1  0  0  0  0
  7  5  1  0  0  0  0
  7  4  2  0  0  0  0
  9  4  1  0  0  0  0
 10 15  1  0  0  0  0
 10 14  1  0  0  0  0
 11 20  1  0  0  0  0
 11  5  2  0  0  0  0
 12  8  1  0  0  0  0
 13 15  1  0  0  0  0
 14  3  1  0  0  0  0
 16  6  2  0  0  0  0
 17  2  2  0  0  0  0
 17  6  1  0  0  0  0
 18 14  1  0  0  0  0
 18  8  2  0  0  0  0
 19 13  1  0  0  0  0
 20 10  2  0  0  0  0
 21  1  1  0  0  0  0
 22 24  1  0  0  0  0
 22 21  1  0  0  0  0
 23 28  1  0  0  0  0
 25 22  2  0  0  0  0
 26 23  2  0  0  0  0
 26 25  1  0  0  0  0
 27 23  1  0  0  0  0
 28 24  2  0  0  0  0
M  END
>  <MODEL>
1

>  <REMARK>
 VINA RESULT:     -10.6      0.000      0.000
  Name = 
  2 active torsions:
  status: ('A' for Active; 'I' for Inactive)
    1  A    between atoms: N_1  and  C_2
    2  A    between atoms: C_2  and  C_3
                            x       y       z     vdW  Elec       q    Type
                         _______ _______ _______ _____ _____    ______ ____

>  <TORSDO>
F 2

$$$$
=
 OpenBabel10262420513D

 28 32  0  0  0  0  0  0  0  0999 V2000
  187.2300  178.2370  140.8530 N   0  0  0  0  0  0  0  0  0  0  0  0
  190.4640  177.0870  144.8210 C   0  0  0  0  0  3  0  0  0  0  0  0
  184.2640  178.6560  144.7870 C   0  0  0  0  0  1  0  0  0  0  0  0
  188.9060  177.3090  146.7170 C   0  0  0  0  0  0  0  0  0  0  0  0
  188.0000  177.7450  144.4990 C   0  0  0  0  0  0  0  0  0  0  0  0
  191.3220  176.6600  147.0510 C   0  0  0  0  0  0  0  0  0  0  0  0
  189.1270  177.3760  145.3850 C   0  0  0  0  0  0  0  0  0  0  0  0
  186.5410  177.9340  146.4190 C   0  0  0  0  0  3  0  0  0  0  0  0
  189.9950  176.9430  147.6950 C   0  0  0  0  0  2  0  0  0  0  0  0
  185.7930  178.4360  142.8010 C   0  0  0  0  0  0  0  0  0  0  0  0
  188.1470  177.8320  143.1750 C   0  0  0  0  0  3  0  0  0  0  0  0
  187.6280  177.5850  147.2320 O   0  0  0  0  0  0  0  0  0  0  0  0
  184.8280  178.3180  140.4760 C   0  0  0  0  0  2  0  0  0  0  0  0
  185.5830  178.3730  144.2290 N   0  0  0  0  0  0  0  0  0  0  0  0
  184.6520  178.8430  141.8950 C   0  0  0  0  0  2  0  0  0  0  0  0
  192.3030  176.3400  147.7700 O   0  0  0  0  0  0  0  0  0  0  0  0
  191.4910  176.7520  145.5980 C   0  0  0  0  0  3  0  0  0  0  0  0
  186.6800  178.0200  145.0920 C   0  0  0  0  0  0  0  0  0  0  0  0
  186.1910  178.7530  139.9660 C   0  0  0  0  0  2  0  0  0  0  0  0
  187.0210  178.1940  142.2820 C   0  0  0  0  0  0  0  0  0  0  0  0
  188.4220  177.6550  140.2480 C   0  0  0  0  0  2  0  0  0  0  0  0
  188.3420  177.7340  138.7610 C   0  0  0  0  0  0  0  0  0  0  0  0
  188.2390  177.8540  135.9670 C   0  0  0  0  0  0  0  0  0  0  0  0
  187.6670  176.7430  138.0410 C   0  0  0  0  0  3  0  0  0  0  0  0
  188.9730  178.7820  138.0810 C   0  0  0  0  0  3  0  0  0  0  0  0
  188.9200  178.8430  136.6850 C   0  0  0  0  0  3  0  0  0  0  0  0
  188.1880  177.9130  134.6150 F   0  0  0  0  0  0  0  0  0  0  0  0
  187.6130  176.8040  136.6450 C   0  0  0  0  0  3  0  0  0  0  0  0
  1 20  1  0  0  0  0
  2  7  1  0  0  0  0
  2 17  2  0  0  0  0
  4 12  1  0  0  0  0
  4  9  1  0  0  0  0
  5 18  1  0  0  0  0
  5  7  1  0  0  0  0
  6  9  1  0  0  0  0
  6 16  2  0  0  0  0
  7  4  2  0  0  0  0
  8 12  1  0  0  0  0
 10 14  1  0  0  0  0
 11  5  2  0  0  0  0
 13 15  1  0  0  0  0
 14  3  1  0  0  0  0
 14 18  1  0  0  0  0
 15 10  1  0  0  0  0
 17  6  1  0  0  0  0
 18  8  2  0  0  0  0
 19 13  1  0  0  0  0
 19  1  1  0  0  0  0
 20 10  2  0  0  0  0
 20 11  1  0  0  0  0
 21  1  1  0  0  0  0
 22 21  1  0  0  0  0
 23 28  2  0  0  0  0
 23 26  1  0  0  0  0
 24 22  2  0  0  0  0
 25 22  1  0  0  0  0
 26 25  2  0  0  0  0
 27 23  1  0  0  0  0
 28 24  1  0  0  0  0
M  END
>  <MODEL>
2

>  <REMARK>
 VINA RESULT:     -10.2      2.967      5.634
  Name = 
  2 active torsions:
  status: ('A' for Active; 'I' for Inactive)
    1  A    between atoms: N_1  and  C_2
    2  A    between atoms: C_2  and  C_3
                            x       y       z     vdW  Elec       q    Type
                         _______ _______ _______ _____ _____    ______ ____

>  <TORSDO>
F 2

$$$$
=
 OpenBabel10262420513D

 28 32  0  0  0  0  0  0  0  0999 V2000
  189.8840  177.7040  140.4230 N   0  0  0  0  0  0  0  0  0  0  0  0
  185.6800  178.5330  143.4520 C   0  0  0  0  0  3  0  0  0  0  0  0
  191.5790  176.5450  144.9210 C   0  0  0  0  0  1  0  0  0  0  0  0
  186.6200  177.9450  145.6520 C   0  0  0  0  0  0  0  0  0  0  0  0
  188.1120  177.7510  143.7380 C   0  0  0  0  0  0  0  0  0  0  0  0
  184.2300  178.7140  145.3890 C   0  0  0  0  0  0  0  0  0  0  0  0
  186.7890  178.0750  144.3180 C   0  0  0  0  0  0  0  0  0  0  0  0
  188.9510  177.1990  145.9380 C   0  0  0  0  0  3  0  0  0  0  0  0
  185.3070  178.2520  146.3290 C   0  0  0  0  0  2  0  0  0  0  0  0
  190.6930  177.1400  142.6420 C   0  0  0  0  0  0  0  0  0  0  0  0
  188.3500  177.8550  142.4280 C   0  0  0  0  0  3  0  0  0  0  0  0
  187.6860  177.5120  146.4580 O   0  0  0  0  0  0  0  0  0  0  0  0
  192.2890  177.5030  140.7260 C   0  0  0  0  0  2  0  0  0  0  0  0
  190.4850  176.9940  144.0640 N   0  0  0  0  0  0  0  0  0  0  0  0
  192.0340  176.7800  142.0430 C   0  0  0  0  0  2  0  0  0  0  0  0
  183.0930  179.0030  145.8440 O   0  0  0  0  0  0  0  0  0  0  0  0
  184.4840  178.8320  143.9500 C   0  0  0  0  0  3  0  0  0  0  0  0
  189.1970  177.3040  144.6280 C   0  0  0  0  0  0  0  0  0  0  0  0
  191.1180  177.2400  139.7960 C   0  0  0  0  0  2  0  0  0  0  0  0
  189.6740  177.5380  141.8430 C   0  0  0  0  0  0  0  0  0  0  0  0
  188.9340  178.4460  139.6030 C   0  0  0  0  0  2  0  0  0  0  0  0
  188.7570  177.7800  138.2810 C   0  0  0  0  0  0  0  0  0  0  0  0
  188.3740  176.5510  135.7960 C   0  0  0  0  0  0  0  0  0  0  0  0
  189.1290  178.4430  137.1060 C   0  0  0  0  0  3  0  0  0  0  0  0
  188.1850  176.5040  138.2100 C   0  0  0  0  0  3  0  0  0  0  0  0
  187.9960  175.8890  136.9690 C   0  0  0  0  0  3  0  0  0  0  0  0
  188.1900  175.9550  134.5940 F   0  0  0  0  0  0  0  0  0  0  0  0
  188.9390  177.8280  135.8640 C   0  0  0  0  0  3  0  0  0  0  0  0
  1 20  1  0  0  0  0
  2 17  2  0  0  0  0
  2  7  1  0  0  0  0
  4  9  1  0  0  0  0
  4 12  1  0  0  0  0
  5  7  1  0  0  0  0
  5 18  1  0  0  0  0
  6 16  2  0  0  0  0
  6  9  1  0  0  0  0
  7  4  2  0  0  0  0
  8 12  1  0  0  0  0
 10 14  1  0  0  0  0
 11  5  2  0  0  0  0
 13 15  1  0  0  0  0
 14 18  1  0  0  0  0
 14  3  1  0  0  0  0
 15 10  1  0  0  0  0
 17  6  1  0  0  0  0
 18  8  2  0  0  0  0
 19  1  1  0  0  0  0
 19 13  1  0  0  0  0
 20 11  1  0  0  0  0
 20 10  2  0  0  0  0
 21  1  1  0  0  0  0
 22 21  1  0  0  0  0
 23 28  2  0  0  0  0
 23 26  1  0  0  0  0
 24 22  2  0  0  0  0
 25 22  1  0  0  0  0
 26 25  2  0  0  0  0
 27 23  1  0  0  0  0
 28 24  1  0  0  0  0
M  END
>  <MODEL>
3

>  <REMARK>
 VINA RESULT:     -10.0      2.288      3.275
  Name = 
  2 active torsions:
  status: ('A' for Active; 'I' for Inactive)
    1  A    between atoms: N_1  and  C_2
    2  A    between atoms: C_2  and  C_3
                            x       y       z     vdW  Elec       q    Type
                         _______ _______ _______ _____ _____    ______ ____

>  <TORSDO>
F 2

$$$$
=
 OpenBabel10262420513D

 28 32  0  0  0  0  0  0  0  0999 V2000
  186.8430  178.4230  140.4640 N   0  0  0  0  0  0  0  0  0  0  0  0
  187.2410  178.0010  145.6780 C   0  0  0  0  0  3  0  0  0  0  0  0
  191.5360  176.9820  141.0510 C   0  0  0  0  0  1  0  0  0  0  0  0
  189.5940  177.2960  145.8690 C   0  0  0  0  0  0  0  0  0  0  0  0
  188.7400  177.6630  143.6180 C   0  0  0  0  0  0  0  0  0  0  0  0
  188.1360  177.6270  147.9030 C   0  0  0  0  0  0  0  0  0  0  0  0
  188.5490  177.6440  145.0860 C   0  0  0  0  0  0  0  0  0  0  0  0
  191.0420  176.9750  143.9010 C   0  0  0  0  0  3  0  0  0  0  0  0
  189.4900  177.2500  147.3730 C   0  0  0  0  0  2  0  0  0  0  0  0
  189.1450  177.7160  140.7780 C   0  0  0  0  0  0  0  0  0  0  0  0
  187.7520  177.9940  142.7850 C   0  0  0  0  0  3  0  0  0  0  0  0
  190.8290  176.9640  145.2870 O   0  0  0  0  0  0  0  0  0  0  0  0
  188.3560  178.6430  138.5710 C   0  0  0  0  0  2  0  0  0  0  0  0
  190.2440  177.3320  141.6340 N   0  0  0  0  0  0  0  0  0  0  0  0
  189.3280  177.7050  139.2770 C   0  0  0  0  0  2  0  0  0  0  0  0
  187.9350  177.6270  149.1450 O   0  0  0  0  0  0  0  0  0  0  0  0
  187.0460  177.9940  146.9940 C   0  0  0  0  0  3  0  0  0  0  0  0
  190.0570  177.3080  143.0610 C   0  0  0  0  0  0  0  0  0  0  0  0
  186.9450  178.2970  139.0130 C   0  0  0  0  0  2  0  0  0  0  0  0
  187.9390  178.0210  141.3150 C   0  0  0  0  0  0  0  0  0  0  0  0
  185.6640  179.0800  141.0140 C   0  0  0  0  0  2  0  0  0  0  0  0
  184.4440  178.6810  140.2540 C   0  0  0  0  0  0  0  0  0  0  0  0
  182.1250  177.9610  138.8640 C   0  0  0  0  0  0  0  0  0  0  0  0
  183.9800  179.4800  139.2030 C   0  0  0  0  0  3  0  0  0  0  0  0
  183.7410  177.5260  140.6150 C   0  0  0  0  0  3  0  0  0  0  0  0
  182.5830  177.1650  139.9190 C   0  0  0  0  0  3  0  0  0  0  0  0
  181.0030  177.6120  138.1910 F   0  0  0  0  0  0  0  0  0  0  0  0
  182.8230  179.1190  138.5070 C   0  0  0  0  0  3  0  0  0  0  0  0
  1 21  1  0  0  0  0
  1 20  1  0  0  0  0
  2 17  2  0  0  0  0
  3 14  1  0  0  0  0
  4  9  1  0  0  0  0
  5  7  1  0  0  0  0
  6 16  2  0  0  0  0
  7  2  1  0  0  0  0
  7  4  2  0  0  0  0
  8 12  1  0  0  0  0
  9  6  1  0  0  0  0
 10 20  2  0  0  0  0
 10 14  1  0  0  0  0
 11  5  2  0  0  0  0
 12  4  1  0  0  0  0
 13 19  1  0  0  0  0
 13 15  1  0  0  0  0
 14 18  1  0  0  0  0
 15 10  1  0  0  0  0
 17  6  1  0  0  0  0
 18  5  1  0  0  0  0
 18  8  2  0  0  0  0
 19  1  1  0  0  0  0
 20 11  1  0  0  0  0
 22 25  1  0  0  0  0
 22 21  1  0  0  0  0
 23 26  1  0  0  0  0
 24 22  2  0  0  0  0
 26 25  2  0  0  0  0
 27 23  1  0  0  0  0
 28 23  2  0  0  0  0
 28 24  1  0  0  0  0
M  END
>  <MODEL>
4

>  <REMARK>
 VINA RESULT:      -9.8      3.696      6.689
  Name = 
  2 active torsions:
  status: ('A' for Active; 'I' for Inactive)
    1  A    between atoms: N_1  and  C_2
    2  A    between atoms: C_2  and  C_3
                            x       y       z     vdW  Elec       q    Type
                         _______ _______ _______ _____ _____    ______ ____

>  <TORSDO>
F 2

$$$$
=
 OpenBabel10262420513D

 28 32  0  0  0  0  0  0  0  0999 V2000
  189.7640  177.6900  140.1480 N   0  0  0  0  0  0  0  0  0  0  0  0
  184.9470  178.7030  141.9630 C   0  0  0  0  0  3  0  0  0  0  0  0
  190.2490  176.7920  144.9860 C   0  0  0  0  0  1  0  0  0  0  0  0
  185.2900  178.2430  144.3590 C   0  0  0  0  0  0  0  0  0  0  0  0
  187.2140  177.9340  142.8990 C   0  0  0  0  0  0  0  0  0  0  0  0
  183.0580  179.0000  143.4580 C   0  0  0  0  0  0  0  0  0  0  0  0
  185.7930  178.2950  143.1060 C   0  0  0  0  0  0  0  0  0  0  0  0
  187.4610  177.5100  145.2670 C   0  0  0  0  0  3  0  0  0  0  0  0
  183.8550  178.5920  144.6640 C   0  0  0  0  0  2  0  0  0  0  0  0
  189.9770  177.2560  142.5270 C   0  0  0  0  0  0  0  0  0  0  0  0
  187.7760  177.9610  141.6880 C   0  0  0  0  0  3  0  0  0  0  0  0
  186.1110  177.8550  145.4310 O   0  0  0  0  0  0  0  0  0  0  0  0
  192.0110  177.5030  141.0600 C   0  0  0  0  0  2  0  0  0  0  0  0
  189.4140  177.1930  143.8560 N   0  0  0  0  0  0  0  0  0  0  0  0
  191.4190  176.8580  142.3080 C   0  0  0  0  0  2  0  0  0  0  0  0
  181.8480  179.3180  143.5930 O   0  0  0  0  0  0  0  0  0  0  0  0
  183.6680  179.0340  142.1260 C   0  0  0  0  0  3  0  0  0  0  0  0
  188.0310  177.5380  144.0580 C   0  0  0  0  0  0  0  0  0  0  0  0
  191.1080  177.1890  139.8800 C   0  0  0  0  0  2  0  0  0  0  0  0
  189.2000  177.6080  141.4750 C   0  0  0  0  0  0  0  0  0  0  0  0
  189.0640  178.3860  139.0740 C   0  0  0  0  0  2  0  0  0  0  0  0
  188.2420  177.4260  138.2820 C   0  0  0  0  0  0  0  0  0  0  0  0
  186.6820  175.6000  136.8460 C   0  0  0  0  0  0  0  0  0  0  0  0
  186.9230  177.7450  137.9420 C   0  0  0  0  0  3  0  0  0  0  0  0
  188.7770  176.1870  137.9100 C   0  0  0  0  0  3  0  0  0  0  0  0
  187.9980  175.2760  137.1900 C   0  0  0  0  0  3  0  0  0  0  0  0
  185.9280  174.7170  136.1490 F   0  0  0  0  0  0  0  0  0  0  0  0
  186.1440  176.8340  137.2220 C   0  0  0  0  0  3  0  0  0  0  0  0
  1 20  1  0  0  0  0
  2 17  2  0  0  0  0
  2  7  1  0  0  0  0
  4  9  1  0  0  0  0
  4 12  1  0  0  0  0
  5  7  1  0  0  0  0
  5 18  1  0  0  0  0
  6 16  2  0  0  0  0
  6  9  1  0  0  0  0
  7  4  2  0  0  0  0
  8 12  1  0  0  0  0
 10 14  1  0  0  0  0
 11  5  2  0  0  0  0
 13 15  1  0  0  0  0
 14 18  1  0  0  0  0
 14  3  1  0  0  0  0
 15 10  1  0  0  0  0
 17  6  1  0  0  0  0
 18  8  2  0  0  0  0
 19  1  1  0  0  0  0
 19 13  1  0  0  0  0
 20 11  1  0  0  0  0
 20 10  2  0  0  0  0
 21  1  1  0  0  0  0
 22 21  1  0  0  0  0
 23 26  2  0  0  0  0
 23 28  1  0  0  0  0
 24 22  1  0  0  0  0
 25 22  2  0  0  0  0
 26 25  1  0  0  0  0
 27 23  1  0  0  0  0
 28 24  2  0  0  0  0
M  END
>  <MODEL>
5

>  <REMARK>
 VINA RESULT:      -9.6      2.536      3.342
  Name = 
  2 active torsions:
  status: ('A' for Active; 'I' for Inactive)
    1  A    between atoms: N_1  and  C_2
    2  A    between atoms: C_2  and  C_3
                            x       y       z     vdW  Elec       q    Type
                         _______ _______ _______ _____ _____    ______ ____

>  <TORSDO>
F 2

$$$$
=
 OpenBabel10262420513D

 28 32  0  0  0  0  0  0  0  0999 V2000
  189.6530  177.3080  141.6160 N   0  0  0  0  0  0  0  0  0  0  0  0
  184.5890  178.5010  142.2920 C   0  0  0  0  0  3  0  0  0  0  0  0
  189.2070  177.2640  146.5400 C   0  0  0  0  0  1  0  0  0  0  0  0
  184.4700  178.4660  144.7530 C   0  0  0  0  0  0  0  0  0  0  0  0
  186.6320  177.9590  143.7550 C   0  0  0  0  0  0  0  0  0  0  0  0
  182.4540  179.0040  143.3310 C   0  0  0  0  0  0  0  0  0  0  0  0
  185.2010  178.3150  143.6260 C   0  0  0  0  0  0  0  0  0  0  0  0
  186.4230  177.9530  146.1650 C   0  0  0  0  0  3  0  0  0  0  0  0
  183.0050  178.8280  144.7180 C   0  0  0  0  0  2  0  0  0  0  0  0
  189.4100  177.2930  144.0320 C   0  0  0  0  0  0  0  0  0  0  0  0
  187.4130  177.7910  142.6850 C   0  0  0  0  0  3  0  0  0  0  0  0
  185.0700  178.2880  146.0100 O   0  0  0  0  0  0  0  0  0  0  0  0
  191.6860  177.3340  142.9520 C   0  0  0  0  0  2  0  0  0  0  0  0
  188.6050  177.4450  145.2220 N   0  0  0  0  0  0  0  0  0  0  0  0
  190.8640  176.8980  144.1590 C   0  0  0  0  0  2  0  0  0  0  0  0
  181.2440  179.3110  143.1800 O   0  0  0  0  0  0  0  0  0  0  0  0
  183.3060  178.8240  142.1520 C   0  0  0  0  0  3  0  0  0  0  0  0
  187.2120  177.7860  145.0980 C   0  0  0  0  0  0  0  0  0  0  0  0
  191.0200  176.8010  141.6970 C   0  0  0  0  0  2  0  0  0  0  0  0
  188.8480  177.4410  142.8080 C   0  0  0  0  0  0  0  0  0  0  0  0
  189.1760  177.7920  140.3260 C   0  0  0  0  0  2  0  0  0  0  0  0
  189.8040  177.0190  139.2160 C   0  0  0  0  0  0  0  0  0  0  0  0
  190.9730  175.6120  137.0990 C   0  0  0  0  0  0  0  0  0  0  0  0
  191.1850  177.0920  139.0040 C   0  0  0  0  0  3  0  0  0  0  0  0
  189.0070  176.2480  138.3620 C   0  0  0  0  0  3  0  0  0  0  0  0
  189.5920  175.5430  137.3050 C   0  0  0  0  0  3  0  0  0  0  0  0
  191.5390  174.9300  136.0750 F   0  0  0  0  0  0  0  0  0  0  0  0
  191.7690  176.3870  137.9480 C   0  0  0  0  0  3  0  0  0  0  0  0
  1 19  1  0  0  0  0
  1 20  1  0  0  0  0
  2  7  1  0  0  0  0
  4 12  1  0  0  0  0
  5 18  1  0  0  0  0
  6  9  1  0  0  0  0
  7  5  1  0  0  0  0
  7  4  2  0  0  0  0
  9  4  1  0  0  0  0
 10 15  1  0  0  0  0
 10 14  1  0  0  0  0
 11 20  1  0  0  0  0
 11  5  2  0  0  0  0
 12  8  1  0  0  0  0
 13 15  1  0  0  0  0
 14  3  1  0  0  0  0
 16  6  2  0  0  0  0
 17  2  2  0  0  0  0
 17  6  1  0  0  0  0
 18 14  1  0  0  0  0
 18  8  2  0  0  0  0
 19 13  1  0  0  0  0
 20 10  2  0  0  0  0
 21  1  1  0  0  0  0
 22 21  1  0  0  0  0
 23 26  2  0  0  0  0
 23 28  1  0  0  0  0
 24 22  1  0  0  0  0
 25 22  2  0  0  0  0
 26 25  1  0  0  0  0
 27 23  1  0  0  0  0
 28 24  2  0  0  0  0
M  END
>  <MODEL>
6

>  <REMARK>
 VINA RESULT:      -9.6      1.125      1.327
  Name = 
  2 active torsions:
  status: ('A' for Active; 'I' for Inactive)
    1  A    between atoms: N_1  and  C_2
    2  A    between atoms: C_2  and  C_3
                            x       y       z     vdW  Elec       q    Type
                         _______ _______ _______ _____ _____    ______ ____

>  <TORSDO>
F 2

$$$$
=
 OpenBabel10262420513D

 28 32  0  0  0  0  0  0  0  0999 V2000
  186.7320  178.3500  138.6240 N   0  0  0  0  0  0  0  0  0  0  0  0
  185.2860  178.4620  143.6660 C   0  0  0  0  0  3  0  0  0  0  0  0
  190.9570  177.2770  140.9570 C   0  0  0  0  0  1  0  0  0  0  0  0
  187.4400  177.9320  144.7370 C   0  0  0  0  0  0  0  0  0  0  0  0
  187.4210  178.0230  142.3040 C   0  0  0  0  0  0  0  0  0  0  0  0
  185.3530  178.3640  146.0900 C   0  0  0  0  0  0  0  0  0  0  0  0
  186.7270  178.1340  143.6070 C   0  0  0  0  0  0  0  0  0  0  0  0
  189.4940  177.5140  143.4420 C   0  0  0  0  0  3  0  0  0  0  0  0
  186.8170  178.0250  146.1080 C   0  0  0  0  0  2  0  0  0  0  0  0
  188.7950  177.8260  139.7930 C   0  0  0  0  0  0  0  0  0  0  0  0
  186.7790  178.2080  141.1490 C   0  0  0  0  0  3  0  0  0  0  0  0
  188.8090  177.6250  144.6600 O   0  0  0  0  0  0  0  0  0  0  0  0
  188.8060  178.4820  137.3600 C   0  0  0  0  0  2  0  0  0  0  0  0
  189.5330  177.5980  141.0130 N   0  0  0  0  0  0  0  0  0  0  0  0
  189.4930  177.6810  138.4590 C   0  0  0  0  0  2  0  0  0  0  0  0
  184.7290  178.4710  147.1770 O   0  0  0  0  0  0  0  0  0  0  0  0
  184.6420  178.5700  144.8250 C   0  0  0  0  0  3  0  0  0  0  0  0
  188.8580  177.7010  142.2800 C   0  0  0  0  0  0  0  0  0  0  0  0
  187.3400  178.0910  137.3220 C   0  0  0  0  0  2  0  0  0  0  0  0
  187.4700  178.1040  139.8410 C   0  0  0  0  0  0  0  0  0  0  0  0
  185.4170  178.9810  138.6540 C   0  0  0  0  0  2  0  0  0  0  0  0
  184.3490  177.9480  138.7800 C   0  0  0  0  0  0  0  0  0  0  0  0
  182.3810  175.9770  139.0430 C   0  0  0  0  0  0  0  0  0  0  0  0
  183.5060  177.9430  139.8970 C   0  0  0  0  0  3  0  0  0  0  0  0
  184.2110  176.9600  137.7990 C   0  0  0  0  0  3  0  0  0  0  0  0
  183.2260  175.9760  137.9290 C   0  0  0  0  0  3  0  0  0  0  0  0
  181.4270  175.0230  139.1690 F   0  0  0  0  0  0  0  0  0  0  0  0
  182.5210  176.9600  140.0270 C   0  0  0  0  0  3  0  0  0  0  0  0
  1 21  1  0  0  0  0
  1 20  1  0  0  0  0
  2 17  2  0  0  0  0
  3 14  1  0  0  0  0
  4  9  1  0  0  0  0
  5  7  1  0  0  0  0
  6  9  1  0  0  0  0
  6 16  2  0  0  0  0
  7  2  1  0  0  0  0
  7  4  2  0  0  0  0
  8 12  1  0  0  0  0
 10 20  2  0  0  0  0
 10 14  1  0  0  0  0
 11  5  2  0  0  0  0
 12  4  1  0  0  0  0
 13 15  1  0  0  0  0
 14 18  1  0  0  0  0
 15 10  1  0  0  0  0
 17  6  1  0  0  0  0
 18  5  1  0  0  0  0
 18  8  2  0  0  0  0
 19 13  1  0  0  0  0
 19  1  1  0  0  0  0
 20 11  1  0  0  0  0
 21 22  1  0  0  0  0
 22 24  1  0  0  0  0
 23 27  1  0  0  0  0
 23 28  1  0  0  0  0
 24 28  2  0  0  0  0
 25 26  1  0  0  0  0
 25 22  2  0  0  0  0
 26 23  2  0  0  0  0
M  END
>  <MODEL>
7

>  <REMARK>
 VINA RESULT:      -9.5      3.689      6.185
  Name = 
  2 active torsions:
  status: ('A' for Active; 'I' for Inactive)
    1  A    between atoms: N_1  and  C_2
    2  A    between atoms: C_2  and  C_3
                            x       y       z     vdW  Elec       q    Type
                         _______ _______ _______ _____ _____    ______ ____

>  <TORSDO>
F 2

$$$$
=
 OpenBabel10262420513D

 28 32  0  0  0  0  0  0  0  0999 V2000
  189.6280  177.6880  139.4050 N   0  0  0  0  0  0  0  0  0  0  0  0
  189.1770  177.3100  144.6190 C   0  0  0  0  0  3  0  0  0  0  0  0
  184.8780  178.8460  140.1400 C   0  0  0  0  0  1  0  0  0  0  0  0
  186.7970  177.8880  144.8820 C   0  0  0  0  0  0  0  0  0  0  0  0
  187.6800  177.8950  142.6130 C   0  0  0  0  0  0  0  0  0  0  0  0
  188.2520  177.3130  146.8620 C   0  0  0  0  0  0  0  0  0  0  0  0
  187.8600  177.7010  144.0690 C   0  0  0  0  0  0  0  0  0  0  0  0
  185.3510  178.4450  142.9650 C   0  0  0  0  0  3  0  0  0  0  0  0
  186.8870  177.7130  146.3780 C   0  0  0  0  0  2  0  0  0  0  0  0
  187.2980  178.2530  139.7910 C   0  0  0  0  0  0  0  0  0  0  0  0
  188.6870  177.7300  141.7520 C   0  0  0  0  0  3  0  0  0  0  0  0
  185.5540  178.2560  144.3400 O   0  0  0  0  0  0  0  0  0  0  0  0
  188.1390  177.6970  137.4820 C   0  0  0  0  0  2  0  0  0  0  0  0
  186.1790  178.4620  140.6800 N   0  0  0  0  0  0  0  0  0  0  0  0
  187.1260  178.4820  138.3070 C   0  0  0  0  0  2  0  0  0  0  0  0
  188.4440  177.1340  148.0930 O   0  0  0  0  0  0  0  0  0  0  0  0
  189.3620  177.1270  145.9230 C   0  0  0  0  0  3  0  0  0  0  0  0
  186.3550  178.2790  142.0970 C   0  0  0  0  0  0  0  0  0  0  0  0
  189.5320  178.0270  137.9880 C   0  0  0  0  0  2  0  0  0  0  0  0
  188.5120  177.9160  140.2920 C   0  0  0  0  0  0  0  0  0  0  0  0
  190.8290  177.0020  139.8670 C   0  0  0  0  0  2  0  0  0  0  0  0
  191.5120  176.3260  138.7260 C   0  0  0  0  0  0  0  0  0  0  0  0
  192.8190  175.0230  136.6220 C   0  0  0  0  0  0  0  0  0  0  0  0
  190.9030  175.2400  138.0870 C   0  0  0  0  0  3  0  0  0  0  0  0
  192.7800  176.7530  138.3160 C   0  0  0  0  0  3  0  0  0  0  0  0
  193.4320  176.1040  137.2640 C   0  0  0  0  0  3  0  0  0  0  0  0
  193.4510  174.3940  135.6030 F   0  0  0  0  0  0  0  0  0  0  0  0
  191.5550  174.5910  137.0350 C   0  0  0  0  0  3  0  0  0  0  0  0
  1 21  1  0  0  0  0
  1 20  1  0  0  0  0
  2 17  2  0  0  0  0
  3 14  1  0  0  0  0
  4  9  1  0  0  0  0
  5  7  1  0  0  0  0
  6 16  2  0  0  0  0
  7  2  1  0  0  0  0
  7  4  2  0  0  0  0
  8 12  1  0  0  0  0
  9  6  1  0  0  0  0
 10 20  2  0  0  0  0
 10 14  1  0  0  0  0
 11  5  2  0  0  0  0
 12  4  1  0  0  0  0
 13 19  1  0  0  0  0
 13 15  1  0  0  0  0
 14 18  1  0  0  0  0
 15 10  1  0  0  0  0
 17  6  1  0  0  0  0
 18  5  1  0  0  0  0
 18  8  2  0  0  0  0
 19  1  1  0  0  0  0
 20 11  1  0  0  0  0
 22 21  1  0  0  0  0
 23 28  2  0  0  0  0
 23 26  1  0  0  0  0
 24 22  2  0  0  0  0
 25 22  1  0  0  0  0
 26 25  2  0  0  0  0
 27 23  1  0  0  0  0
 28 24  1  0  0  0  0
M  END
>  <MODEL>
8

>  <REMARK>
 VINA RESULT:      -9.4      2.224      4.843
  Name = 
  2 active torsions:
  status: ('A' for Active; 'I' for Inactive)
    1  A    between atoms: N_1  and  C_2
    2  A    between atoms: C_2  and  C_3
                            x       y       z     vdW  Elec       q    Type
                         _______ _______ _______ _____ _____    ______ ____

>  <TORSDO>
F 2

$$$$
=
 OpenBabel10262420513D

 28 32  0  0  0  0  0  0  0  0999 V2000
  188.4330  178.0630  145.4480 N   0  0  0  0  0  0  0  0  0  0  0  0
  188.5620  178.2830  140.2080 C   0  0  0  0  0  3  0  0  0  0  0  0
  183.6340  178.3180  144.2850 C   0  0  0  0  0  1  0  0  0  0  0  0
  186.1490  178.4180  139.7290 C   0  0  0  0  0  0  0  0  0  0  0  0
  186.7930  178.2700  142.0730 C   0  0  0  0  0  0  0  0  0  0  0  0
  187.8730  178.4350  137.8860 C   0  0  0  0  0  0  0  0  0  0  0  0
  187.1470  178.3260  140.6360 C   0  0  0  0  0  0  0  0  0  0  0  0
  184.4450  178.4120  141.5090 C   0  0  0  0  0  3  0  0  0  0  0  0
  186.4150  178.4800  138.2460 C   0  0  0  0  0  2  0  0  0  0  0  0
  186.0820  178.1900  144.8520 C   0  0  0  0  0  0  0  0  0  0  0  0
  187.7260  178.1770  143.0230 C   0  0  0  0  0  3  0  0  0  0  0  0
  184.8110  178.4610  140.1570 O   0  0  0  0  0  0  0  0  0  0  0  0
  186.8500  178.5940  147.2180 C   0  0  0  0  0  2  0  0  0  0  0  0
  185.0320  178.2730  143.8640 N   0  0  0  0  0  0  0  0  0  0  0  0
  185.7230  178.1000  146.3180 C   0  0  0  0  0  2  0  0  0  0  0  0
  188.2140  178.4840  136.6760 O   0  0  0  0  0  0  0  0  0  0  0  0
  188.9030  178.3340  138.9230 C   0  0  0  0  0  3  0  0  0  0  0  0
  185.3750  178.3210  142.4660 C   0  0  0  0  0  0  0  0  0  0  0  0
  188.1190  177.8430  146.8570 C   0  0  0  0  0  2  0  0  0  0  0  0
  187.3790  178.1270  144.4630 C   0  0  0  0  0  0  0  0  0  0  0  0
  189.8180  178.3410  145.0890 C   0  0  0  0  0  2  0  0  0  0  0  0
  190.6160  177.0800  145.0800 C   0  0  0  0  0  0  0  0  0  0  0  0
  192.1570  174.7450  145.0480 C   0  0  0  0  0  0  0  0  0  0  0  0
  191.2680  176.6550  146.2420 C   0  0  0  0  0  3  0  0  0  0  0  0
  190.7430  176.3400  143.8990 C   0  0  0  0  0  3  0  0  0  0  0  0
  191.5110  175.1720  143.8830 C   0  0  0  0  0  3  0  0  0  0  0  0
  192.9020  173.6140  145.0320 F   0  0  0  0  0  0  0  0  0  0  0  0
  192.0360  175.4870  146.2270 C   0  0  0  0  0  3  0  0  0  0  0  0
  1 19  1  0  0  0  0
  2  7  1  0  0  0  0
  4 12  1  0  0  0  0
  4  7  2  0  0  0  0
  5 18  1  0  0  0  0
  5 11  2  0  0  0  0
  6  9  1  0  0  0  0
  6 17  1  0  0  0  0
  7  5  1  0  0  0  0
  8 18  2  0  0  0  0
  9  4  1  0  0  0  0
 10 15  1  0  0  0  0
 11 20  1  0  0  0  0
 12  8  1  0  0  0  0
 14  3  1  0  0  0  0
 14 10  1  0  0  0  0
 15 13  1  0  0  0  0
 16  6  2  0  0  0  0
 17  2  2  0  0  0  0
 18 14  1  0  0  0  0
 19 13  1  0  0  0  0
 20 10  2  0  0  0  0
 20  1  1  0  0  0  0
 21  1  1  0  0  0  0
 22 21  1  0  0  0  0
 22 24  1  0  0  0  0
 23 28  1  0  0  0  0
 25 22  2  0  0  0  0
 26 25  1  0  0  0  0
 26 23  2  0  0  0  0
 27 23  1  0  0  0  0
 28 24  2  0  0  0  0
M  END
>  <MODEL>
9

>  <REMARK>
 VINA RESULT:      -9.3      3.145      5.513
  Name = 
  2 active torsions:
  status: ('A' for Active; 'I' for Inactive)
    1  A    between atoms: N_1  and  C_2
    2  A    between atoms: C_2  and  C_3
                            x       y       z     vdW  Elec       q    Type
                         _______ _______ _______ _____ _____    ______ ____

>  <TORSDO>
F 2

$$$$
