=
 OpenBabel10252415103D

 34 38  0  0  1  0  0  0  0  0999 V2000
  181.9170  179.0050  141.1320 C   0  0  0  0  0  0  0  0  0  0  0  0
  182.4650  178.9860  143.3440 C   0  0  2  0  0  3  0  0  0  0  0  0
  184.2460  178.7740  141.7080 C   0  0  0  0  0  0  0  0  0  0  0  0
  186.3590  177.7280  142.6760 C   0  0  1  0  0  3  0  0  0  0  0  0
  181.1470  178.8700  143.1650 C   0  0  2  0  0  3  0  0  0  0  0  0
  180.1790  178.5200  144.2400 C   0  0  0  0  0  1  0  0  0  0  0  0
  184.8110  178.8440  144.1850 C   0  0  1  0  0  3  0  0  0  0  0  0
  183.0090  179.0740  142.0310 C   0  0  0  0  0  0  0  0  0  0  0  0
  186.8430  177.5100  144.1020 C   0  0  0  0  0  2  0  0  0  0  0  0
  180.7960  178.8630  141.7640 N   0  0  0  0  0  0  0  0  0  0  0  0
  183.3530  178.5270  139.3210 C   0  0  0  0  0  3  0  0  0  0  0  0
  182.1330  178.7340  139.7490 N   0  0  0  0  0  0  0  0  0  0  0  0
  183.3190  178.5650  144.5030 C   0  0  0  0  0  2  0  0  0  0  0  0
  185.7120  177.9630  145.0260 C   0  0  1  0  0  3  0  0  0  0  0  0
  185.1690  178.5470  142.7910 N   0  0  0  0  0  0  0  0  0  0  0  0
  184.5800  178.5400  140.2440 C   0  0  0  0  0  2  0  0  0  0  0  0
  186.2610  178.7500  146.2070 C   0  0  0  0  0  2  0  0  0  0  0  0
  186.8790  177.8280  147.2470 C   0  0  0  0  0  2  0  0  0  0  0  0
  187.8200  178.6010  148.1500 C   0  0  0  0  0  2  0  0  0  0  0  0
  189.1810  177.9330  148.1510 C   0  0  0  0  0  2  0  0  0  0  0  0
  189.2910  176.9460  147.0000 C   0  0  0  0  0  2  0  0  0  0  0  0
  190.5850  177.1210  146.2670 C   0  0  0  0  0  0  0  0  0  0  0  0
  190.5620  177.3990  145.0400 O   0  0  0  0  0  0  0  0  0  0  0  0
  192.1950  175.7330  147.5190 C   0  0  0  0  0  1  0  0  0  0  0  0
  191.8160  176.9550  146.9060 O   0  0  0  0  0  0  0  0  0  0  0  0
  187.4260  178.4630  141.8750 C   0  0  0  0  0  2  0  0  0  0  0  0
  188.7530  177.7220  141.9220 C   0  0  0  0  0  2  0  0  0  0  0  0
  189.5320  177.9410  140.6360 C   0  0  2  0  0  3  0  0  0  0  0  0
  188.5710  177.9350  139.4650 C   0  0  2  0  0  3  0  0  0  0  0  0
  189.4330  176.7020  139.7680 C   0  0  1  0  0  3  0  0  0  0  0  0
  189.0990  178.8250  138.3810 C   0  0  0  0  0  3  0  0  0  0  0  0
  188.5350  178.8150  137.1770 C   0  0  0  0  0  2  0  0  0  0  0  0
  190.7000  176.5690  138.9320 C   0  0  0  0  0  2  0  0  0  0  0  0
  190.8750  175.2380  138.5620 O   0  0  0  0  0  1  0  0  0  0  0  0
  1 10  2  0  0  0  0
  1  8  1  0  0  0  0
  2 13  1  6  0  0  0
  3  8  2  0  0  0  0
  3 15  1  0  0  0  0
  4 26  1  6  0  0  0
  4 15  1  0  0  0  0
  4  9  1  0  0  0  0
  5  2  1  0  0  0  0
  5  6  1  6  0  0  0
  7 13  1  6  0  0  0
  7 14  1  0  0  0  0
  8  2  1  0  0  0  0
  9 14  1  0  0  0  0
 10  5  1  0  0  0  0
 11 12  2  0  0  0  0
 11 16  1  0  0  0  0
 12  1  1  0  0  0  0
 14 17  1  1  0  0  0
 15  7  1  0  0  0  0
 16  3  1  0  0  0  0
 17 18  1  0  0  0  0
 18 19  1  0  0  0  0
 19 20  1  0  0  0  0
 21 20  1  0  0  0  0
 22 25  1  0  0  0  0
 22 21  1  0  0  0  0
 23 22  2  0  0  0  0
 25 24  1  0  0  0  0
 26 27  1  0  0  0  0
 28 27  1  1  0  0  0
 29 31  1  6  0  0  0
 29 30  1  0  0  0  0
 29 28  1  0  0  0  0
 30 33  1  6  0  0  0
 30 28  1  0  0  0  0
 32 31  2  0  0  0  0
 34 33  1  0  0  0  0
M  END
>  <MODEL>
1

>  <REMARK>
 VINA RESULT:      -8.3      0.000      0.000
  Name = 
  12 active torsions:
  status: ('A' for Active; 'I' for Inactive)
    1  A    between atoms: C_3  and  C_13
    2  A    between atoms: C_3  and  C_17
    3  A    between atoms: C_5  and  C_26
    4  A    between atoms: C_7  and  C_16
    5  A    between atoms: C_12  and  C_28
    6  A    between atoms: C_13  and  C_33
    7  A    between atoms: O_14  and  C_20
    8  A    between atoms: C_17  and  C_29
    9  A    between atoms: C_20  and  C_34
   10  A    between atoms: C_23  and  C_27
   11  A    between atoms: C_26  and  C_28
   12  A    between atoms: C_33  and  C_34
                            x       y       z     vdW  Elec       q    Type
                         _______ _______ _______ _____ _____    ______ ____

>  <TORSDO>
F 12

$$$$
=
 OpenBabel10252415103D

 34 38  0  0  1  0  0  0  0  0999 V2000
  190.1850  177.1710  145.6310 C   0  0  0  0  0  0  0  0  0  0  0  0
  187.9240  177.4450  145.5760 C   0  0  2  0  0  3  0  0  0  0  0  0
  189.1450  177.4720  143.4790 C   0  0  0  0  0  0  0  0  0  0  0  0
  187.8630  178.6260  141.6020 C   0  0  1  0  0  3  0  0  0  0  0  0
  188.3980  177.5380  146.8200 C   0  0  2  0  0  3  0  0  0  0  0  0
  187.6070  178.0060  147.9910 C   0  0  0  0  0  1  0  0  0  0  0  0
  186.6130  177.6880  143.4660 C   0  0  1  0  0  3  0  0  0  0  0  0
  189.0680  177.2080  144.7630 C   0  0  0  0  0  0  0  0  0  0  0  0
  186.4000  179.0080  141.4350 C   0  0  0  0  0  2  0  0  0  0  0  0
  189.8340  177.3830  146.8600 N   0  0  0  0  0  0  0  0  0  0  0  0
  191.6820  177.4400  143.8260 C   0  0  0  0  0  3  0  0  0  0  0  0
  191.5100  177.2820  145.1140 N   0  0  0  0  0  0  0  0  0  0  0  0
  186.6610  177.9980  144.9850 C   0  0  0  0  0  2  0  0  0  0  0  0
  185.7000  178.6610  142.7490 C   0  0  1  0  0  3  0  0  0  0  0  0
  187.9190  177.8230  142.8080 N   0  0  0  0  0  0  0  0  0  0  0  0
  190.5180  177.5370  142.8290 C   0  0  0  0  0  2  0  0  0  0  0  0
  184.3470  178.0160  142.4870 C   0  0  0  0  0  2  0  0  0  0  0  0
  183.2130  178.8620  143.0470 C   0  0  0  0  0  2  0  0  0  0  0  0
  182.0100  178.8150  142.1260 C   0  0  0  0  0  2  0  0  0  0  0  0
  182.4000  178.1520  140.8200 C   0  0  0  0  0  2  0  0  0  0  0  0
  182.3570  179.1560  139.6790 C   0  0  0  0  0  2  0  0  0  0  0  0
  183.6950  179.2710  139.0170 C   0  0  0  0  0  0  0  0  0  0  0  0
  184.2950  180.3780  139.0350 O   0  0  0  0  0  0  0  0  0  0  0  0
  185.6270  178.2120  137.9060 C   0  0  0  0  0  1  0  0  0  0  0  0
  184.2820  178.1880  138.3580 O   0  0  0  0  0  0  0  0  0  0  0  0
  188.3250  177.8060  140.4040 C   0  0  0  0  0  2  0  0  0  0  0  0
  189.0860  178.6700  139.4100 C   0  0  0  0  0  2  0  0  0  0  0  0
  189.5180  177.8460  138.2100 C   0  0  2  0  0  3  0  0  0  0  0  0
  189.0250  176.4230  138.3780 C   0  0  2  0  0  3  0  0  0  0  0  0
  190.4930  176.7750  138.6560 C   0  0  1  0  0  3  0  0  0  0  0  0
  188.7630  175.8230  137.0300 C   0  0  0  0  0  3  0  0  0  0  0  0
  187.6280  175.1670  136.8030 C   0  0  0  0  0  2  0  0  0  0  0  0
  191.4640  176.4700  137.5210 C   0  0  0  0  0  2  0  0  0  0  0  0
  192.6760  176.0350  138.0510 O   0  0  0  0  0  1  0  0  0  0  0  0
  1 10  2  0  0  0  0
  2 13  1  6  0  0  0
  2  5  1  0  0  0  0
  3  8  2  0  0  0  0
  4 26  1  6  0  0  0
  4 15  1  0  0  0  0
  5 10  1  0  0  0  0
  5  6  1  6  0  0  0
  7 13  1  1  0  0  0
  8  2  1  0  0  0  0
  8  1  1  0  0  0  0
  9  4  1  0  0  0  0
  9 14  1  0  0  0  0
 11 12  2  0  0  0  0
 12  1  1  0  0  0  0
 14 17  1  6  0  0  0
 14  7  1  0  0  0  0
 15  7  1  0  0  0  0
 15  3  1  0  0  0  0
 16  3  1  0  0  0  0
 16 11  1  0  0  0  0
 17 18  1  0  0  0  0
 19 18  1  0  0  0  0
 20 19  1  0  0  0  0
 21 20  1  0  0  0  0
 22 23  2  0  0  0  0
 22 21  1  0  0  0  0
 24 25  1  0  0  0  0
 25 22  1  0  0  0  0
 27 26  1  0  0  0  0
 28 29  1  0  0  0  0
 28 30  1  0  0  0  0
 28 27  1  1  0  0  0
 29 31  1  6  0  0  0
 29 30  1  0  0  0  0
 30 33  1  6  0  0  0
 32 31  2  0  0  0  0
 33 34  1  0  0  0  0
M  END
>  <MODEL>
2

>  <REMARK>
 VINA RESULT:      -8.3      2.955      6.844
  Name = 
  12 active torsions:
  status: ('A' for Active; 'I' for Inactive)
    1  A    between atoms: C_3  and  C_13
    2  A    between atoms: C_3  and  C_17
    3  A    between atoms: C_5  and  C_26
    4  A    between atoms: C_7  and  C_16
    5  A    between atoms: C_12  and  C_28
    6  A    between atoms: C_13  and  C_33
    7  A    between atoms: O_14  and  C_20
    8  A    between atoms: C_17  and  C_29
    9  A    between atoms: C_20  and  C_34
   10  A    between atoms: C_23  and  C_27
   11  A    between atoms: C_26  and  C_28
   12  A    between atoms: C_33  and  C_34
                            x       y       z     vdW  Elec       q    Type
                         _______ _______ _______ _____ _____    ______ ____

>  <TORSDO>
F 12

$$$$
=
 OpenBabel10252415103D

 34 38  0  0  1  0  0  0  0  0999 V2000
  189.7540  177.6130  138.1860 C   0  0  0  0  0  0  0  0  0  0  0  0
  187.7960  178.3000  139.1290 C   0  0  2  0  0  3  0  0  0  0  0  0
  189.5510  177.4650  140.5830 C   0  0  0  0  0  0  0  0  0  0  0  0
  188.6750  176.6910  142.8480 C   0  0  1  0  0  3  0  0  0  0  0  0
  187.6920  178.2000  137.8020 C   0  0  2  0  0  3  0  0  0  0  0  0
  186.4090  178.2780  137.0490 C   0  0  0  0  0  1  0  0  0  0  0  0
  187.3820  178.3230  141.5900 C   0  0  1  0  0  3  0  0  0  0  0  0
  189.1360  177.9190  139.4230 C   0  0  0  0  0  0  0  0  0  0  0  0
  187.3670  176.9330  143.5860 C   0  0  0  0  0  2  0  0  0  0  0  0
  188.9250  177.7470  137.2000 N   0  0  0  0  0  0  0  0  0  0  0  0
  191.5220  176.4870  139.2710 C   0  0  0  0  0  3  0  0  0  0  0  0
  190.9800  176.8870  138.1480 N   0  0  0  0  0  0  0  0  0  0  0  0
  186.7320  178.2440  140.1840 C   0  0  0  0  0  2  0  0  0  0  0  0
  186.4660  177.7260  142.6390 C   0  0  1  0  0  3  0  0  0  0  0  0
  188.6350  177.5620  141.6900 N   0  0  0  0  0  0  0  0  0  0  0  0
  190.8870  176.7410  140.6460 C   0  0  0  0  0  2  0  0  0  0  0  0
  185.7340  178.8300  143.3860 C   0  0  0  0  0  2  0  0  0  0  0  0
  185.4640  178.4350  144.8300 C   0  0  0  0  0  2  0  0  0  0  0  0
  184.0700  178.8630  145.2470 C   0  0  0  0  0  2  0  0  0  0  0  0
  183.2960  179.3180  144.0250 C   0  0  0  0  0  2  0  0  0  0  0  0
  181.8760  178.7760  144.0630 C   0  0  0  0  0  2  0  0  0  0  0  0
  181.1290  179.1480  142.8190 C   0  0  0  0  0  0  0  0  0  0  0  0
  180.2150  180.0100  142.8880 O   0  0  0  0  0  0  0  0  0  0  0  0
  181.4070  179.2660  140.3710 C   0  0  0  0  0  1  0  0  0  0  0  0
  181.4040  178.5420  141.5910 O   0  0  0  0  0  0  0  0  0  0  0  0
  189.8510  177.0610  143.7430 C   0  0  0  0  0  2  0  0  0  0  0  0
  189.5590  178.3250  144.5360 C   0  0  0  0  0  2  0  0  0  0  0  0
  190.0650  178.1890  145.9610 C   0  0  2  0  0  3  0  0  0  0  0  0
  190.2230  176.7190  146.2960 C   0  0  2  0  0  3  0  0  0  0  0  0
  189.0100  177.5080  146.8100 C   0  0  1  0  0  3  0  0  0  0  0  0
  191.3330  176.5490  147.2870 C   0  0  0  0  0  3  0  0  0  0  0  0
  192.2420  175.5940  147.1120 C   0  0  0  0  0  2  0  0  0  0  0  0
  189.1180  178.0080  148.2460 C   0  0  0  0  0  2  0  0  0  0  0  0
  187.8460  178.0910  148.8060 O   0  0  0  0  0  1  0  0  0  0  0  0
  1  8  1  0  0  0  0
  2  8  1  0  0  0  0
  2 13  1  1  0  0  0
  3 16  1  0  0  0  0
  3 15  1  0  0  0  0
  4  9  1  0  0  0  0
  4 26  1  1  0  0  0
  5  6  1  1  0  0  0
  5  2  1  0  0  0  0
  7 13  1  6  0  0  0
  7 15  1  0  0  0  0
  7 14  1  0  0  0  0
  8  3  2  0  0  0  0
 10  5  1  0  0  0  0
 10  1  2  0  0  0  0
 11 16  1  0  0  0  0
 12  1  1  0  0  0  0
 12 11  2  0  0  0  0
 14 17  1  1  0  0  0
 14  9  1  0  0  0  0
 15  4  1  0  0  0  0
 17 18  1  0  0  0  0
 18 19  1  0  0  0  0
 20 21  1  0  0  0  0
 20 19  1  0  0  0  0
 22 23  2  0  0  0  0
 22 21  1  0  0  0  0
 24 25  1  0  0  0  0
 25 22  1  0  0  0  0
 26 27  1  0  0  0  0
 28 27  1  6  0  0  0
 28 29  1  0  0  0  0
 28 30  1  0  0  0  0
 29 30  1  0  0  0  0
 29 31  1  1  0  0  0
 30 33  1  1  0  0  0
 32 31  2  0  0  0  0
 33 34  1  0  0  0  0
M  END
>  <MODEL>
3

>  <REMARK>
 VINA RESULT:      -8.3      3.406      7.658
  Name = 
  12 active torsions:
  status: ('A' for Active; 'I' for Inactive)
    1  A    between atoms: C_3  and  C_13
    2  A    between atoms: C_3  and  C_17
    3  A    between atoms: C_5  and  C_26
    4  A    between atoms: C_7  and  C_16
    5  A    between atoms: C_12  and  C_28
    6  A    between atoms: C_13  and  C_33
    7  A    between atoms: O_14  and  C_20
    8  A    between atoms: C_17  and  C_29
    9  A    between atoms: C_20  and  C_34
   10  A    between atoms: C_23  and  C_27
   11  A    between atoms: C_26  and  C_28
   12  A    between atoms: C_33  and  C_34
                            x       y       z     vdW  Elec       q    Type
                         _______ _______ _______ _____ _____    ______ ____

>  <TORSDO>
F 12

$$$$
=
 OpenBabel10252415103D

 34 38  0  0  1  0  0  0  0  0999 V2000
  189.4630  177.3510  137.7100 C   0  0  0  0  0  0  0  0  0  0  0  0
  187.4120  178.0020  138.4630 C   0  0  2  0  0  3  0  0  0  0  0  0
  189.2340  177.8380  140.0590 C   0  0  0  0  0  0  0  0  0  0  0  0
  188.4240  177.6030  142.4650 C   0  0  1  0  0  3  0  0  0  0  0  0
  187.3490  177.5290  137.2170 C   0  0  2  0  0  3  0  0  0  0  0  0
  186.0830  177.2260  136.4940 C   0  0  0  0  0  1  0  0  0  0  0  0
  186.9500  178.6410  140.8310 C   0  0  1  0  0  3  0  0  0  0  0  0
  188.7850  177.8990  138.8270 C   0  0  0  0  0  0  0  0  0  0  0  0
  187.0810  177.8610  143.1310 C   0  0  0  0  0  2  0  0  0  0  0  0
  188.6430  177.0980  136.7400 N   0  0  0  0  0  0  0  0  0  0  0  0
  191.3430  176.8110  139.0310 C   0  0  0  0  0  3  0  0  0  0  0  0
  190.7760  176.8130  137.8510 N   0  0  0  0  0  0  0  0  0  0  0  0
  186.3440  178.0940  139.5120 C   0  0  0  0  0  2  0  0  0  0  0  0
  186.1010  178.2370  142.0190 C   0  0  1  0  0  3  0  0  0  0  0  0
  188.2910  178.1120  141.1140 N   0  0  0  0  0  0  0  0  0  0  0  0
  190.6520  177.3450  140.2950 C   0  0  0  0  0  2  0  0  0  0  0  0
  185.2130  179.3950  142.4490 C   0  0  0  0  0  2  0  0  0  0  0  0
  185.2710  179.6070  143.9540 C   0  0  0  0  0  2  0  0  0  0  0  0
  184.0660  178.9800  144.6260 C   0  0  0  0  0  2  0  0  0  0  0  0
  184.4710  178.4350  145.9820 C   0  0  0  0  0  2  0  0  0  0  0  0
  185.6680  179.1980  146.5260 C   0  0  0  0  0  2  0  0  0  0  0  0
  186.7020  178.2570  147.0630 C   0  0  0  0  0  0  0  0  0  0  0  0
  186.8460  177.1300  146.5210 O   0  0  0  0  0  0  0  0  0  0  0  0
  188.7620  178.0020  148.3960 C   0  0  0  0  0  1  0  0  0  0  0  0
  187.4900  178.5880  148.1680 O   0  0  0  0  0  0  0  0  0  0  0  0
  189.5220  178.3580  143.2040 C   0  0  0  0  0  2  0  0  0  0  0  0
  189.4650  178.0830  144.6980 C   0  0  0  0  0  2  0  0  0  0  0  0
  190.1490  176.7670  145.0240 C   0  0  2  0  0  3  0  0  0  0  0  0
  191.4120  177.0430  145.8150 C   0  0  2  0  0  3  0  0  0  0  0  0
  191.4900  176.7060  144.3190 C   0  0  1  0  0  3  0  0  0  0  0  0
  191.6840  175.8950  146.7380 C   0  0  0  0  0  3  0  0  0  0  0  0
  192.2650  176.1100  147.9150 C   0  0  0  0  0  2  0  0  0  0  0  0
  191.8240  175.2550  143.9940 C   0  0  0  0  0  2  0  0  0  0  0  0
  190.8060  174.7060  143.2190 O   0  0  0  0  0  1  0  0  0  0  0  0
  1 12  1  0  0  0  0
  1  8  1  0  0  0  0
  2  8  1  0  0  0  0
  2 13  1  1  0  0  0
  3 16  1  0  0  0  0
  3 15  1  0  0  0  0
  4  9  1  0  0  0  0
  4 26  1  1  0  0  0
  5  6  1  1  0  0  0
  5  2  1  0  0  0  0
  7 13  1  6  0  0  0
  7 15  1  0  0  0  0
  7 14  1  0  0  0  0
  8  3  2  0  0  0  0
 10  5  1  0  0  0  0
 10  1  2  0  0  0  0
 11 16  1  0  0  0  0
 12 11  2  0  0  0  0
 14 17  1  1  0  0  0
 14  9  1  0  0  0  0
 15  4  1  0  0  0  0
 17 18  1  0  0  0  0
 18 19  1  0  0  0  0
 19 20  1  0  0  0  0
 20 21  1  0  0  0  0
 21 22  1  0  0  0  0
 22 25  1  0  0  0  0
 23 22  2  0  0  0  0
 25 24  1  0  0  0  0
 26 27  1  0  0  0  0
 28 27  1  6  0  0  0
 28 29  1  0  0  0  0
 29 31  1  1  0  0  0
 30 33  1  1  0  0  0
 30 28  1  0  0  0  0
 30 29  1  0  0  0  0
 31 32  2  0  0  0  0
 34 33  1  0  0  0  0
M  END
>  <MODEL>
4

>  <REMARK>
 VINA RESULT:      -8.2      2.697      6.138
  Name = 
  12 active torsions:
  status: ('A' for Active; 'I' for Inactive)
    1  A    between atoms: C_3  and  C_13
    2  A    between atoms: C_3  and  C_17
    3  A    between atoms: C_5  and  C_26
    4  A    between atoms: C_7  and  C_16
    5  A    between atoms: C_12  and  C_28
    6  A    between atoms: C_13  and  C_33
    7  A    between atoms: O_14  and  C_20
    8  A    between atoms: C_17  and  C_29
    9  A    between atoms: C_20  and  C_34
   10  A    between atoms: C_23  and  C_27
   11  A    between atoms: C_26  and  C_28
   12  A    between atoms: C_33  and  C_34
                            x       y       z     vdW  Elec       q    Type
                         _______ _______ _______ _____ _____    ______ ____

>  <TORSDO>
F 12

$$$$
=
 OpenBabel10252415103D

 34 38  0  0  1  0  0  0  0  0999 V2000
  189.3810  177.4220  147.1320 C   0  0  0  0  0  0  0  0  0  0  0  0
  190.8900  176.9630  145.4880 C   0  0  2  0  0  3  0  0  0  0  0  0
  188.7350  177.8860  144.8580 C   0  0  0  0  0  0  0  0  0  0  0  0
  188.1420  177.4380  142.4200 C   0  0  1  0  0  3  0  0  0  0  0  0
  191.2640  176.4390  146.6570 C   0  0  2  0  0  3  0  0  0  0  0  0
  192.3830  175.4700  146.8250 C   0  0  0  0  0  1  0  0  0  0  0  0
  190.4860  177.4370  143.0710 C   0  0  1  0  0  3  0  0  0  0  0  0
  189.6530  177.6160  145.7570 C   0  0  0  0  0  0  0  0  0  0  0  0
  188.9700  177.0060  141.2190 C   0  0  0  0  0  2  0  0  0  0  0  0
  190.3020  176.7100  147.7000 N   0  0  0  0  0  0  0  0  0  0  0  0
  187.1200  178.0360  146.8400 C   0  0  0  0  0  3  0  0  0  0  0  0
  188.0740  177.6570  147.6530 N   0  0  0  0  0  0  0  0  0  0  0  0
  191.2600  176.5620  144.0910 C   0  0  0  0  0  2  0  0  0  0  0  0
  190.3850  176.7370  141.7310 C   0  0  1  0  0  3  0  0  0  0  0  0
  189.0990  177.7040  143.4750 N   0  0  0  0  0  0  0  0  0  0  0  0
  187.3300  178.2210  145.3300 C   0  0  0  0  0  2  0  0  0  0  0  0
  191.4240  177.2920  140.7690 C   0  0  0  0  0  2  0  0  0  0  0  0
  190.8530  177.4490  139.3680 C   0  0  0  0  0  2  0  0  0  0  0  0
  191.3550  176.3430  138.4610 C   0  0  0  0  0  2  0  0  0  0  0  0
  192.7740  176.6540  138.0260 C   0  0  0  0  0  2  0  0  0  0  0  0
  193.2960  175.5690  137.0980 C   0  0  0  0  0  2  0  0  0  0  0  0
  194.2760  174.6850  137.8070 C   0  0  0  0  0  0  0  0  0  0  0  0
  194.1050  173.4390  137.7850 O   0  0  0  0  0  0  0  0  0  0  0  0
  196.1580  174.4210  139.3800 C   0  0  0  0  0  1  0  0  0  0  0  0
  195.3580  175.2130  138.5160 O   0  0  0  0  0  0  0  0  0  0  0  0
  187.3640  178.7050  142.0840 C   0  0  0  0  0  2  0  0  0  0  0  0
  186.2410  178.4140  141.1010 C   0  0  0  0  0  2  0  0  0  0  0  0
  184.9350  179.0150  141.5910 C   0  0  2  0  0  3  0  0  0  0  0  0
  184.4820  178.2760  142.8350 C   0  0  2  0  0  3  0  0  0  0  0  0
  183.8300  177.9850  141.4760 C   0  0  1  0  0  3  0  0  0  0  0  0
  183.7130  179.2110  143.7180 C   0  0  0  0  0  3  0  0  0  0  0  0
  183.6100  178.9630  145.0210 C   0  0  0  0  0  2  0  0  0  0  0  0
  182.5040  178.6930  141.2230 C   0  0  0  0  0  2  0  0  0  0  0  0
  182.4740  179.1690  139.9150 O   0  0  0  0  0  1  0  0  0  0  0  0
  1 12  1  0  0  0  0
  1 10  2  0  0  0  0
  2 13  1  6  0  0  0
  2  8  1  0  0  0  0
  2  5  1  0  0  0  0
  3 16  1  0  0  0  0
  3  8  2  0  0  0  0
  4 26  1  6  0  0  0
  4 15  1  0  0  0  0
  5  6  1  6  0  0  0
  5 10  1  0  0  0  0
  7 15  1  0  0  0  0
  7 13  1  1  0  0  0
  8  1  1  0  0  0  0
  9 14  1  0  0  0  0
  9  4  1  0  0  0  0
 11 12  2  0  0  0  0
 14 17  1  6  0  0  0
 14  7  1  0  0  0  0
 15  3  1  0  0  0  0
 16 11  1  0  0  0  0
 18 17  1  0  0  0  0
 19 18  1  0  0  0  0
 20 19  1  0  0  0  0
 21 22  1  0  0  0  0
 21 20  1  0  0  0  0
 22 25  1  0  0  0  0
 23 22  2  0  0  0  0
 25 24  1  0  0  0  0
 27 26  1  0  0  0  0
 28 27  1  6  0  0  0
 28 29  1  0  0  0  0
 29 31  1  1  0  0  0
 30 33  1  1  0  0  0
 30 28  1  0  0  0  0
 30 29  1  0  0  0  0
 31 32  2  0  0  0  0
 34 33  1  0  0  0  0
M  END
>  <MODEL>
5

>  <REMARK>
 VINA RESULT:      -8.1      3.416      8.188
  Name = 
  12 active torsions:
  status: ('A' for Active; 'I' for Inactive)
    1  A    between atoms: C_3  and  C_13
    2  A    between atoms: C_3  and  C_17
    3  A    between atoms: C_5  and  C_26
    4  A    between atoms: C_7  and  C_16
    5  A    between atoms: C_12  and  C_28
    6  A    between atoms: C_13  and  C_33
    7  A    between atoms: O_14  and  C_20
    8  A    between atoms: C_17  and  C_29
    9  A    between atoms: C_20  and  C_34
   10  A    between atoms: C_23  and  C_27
   11  A    between atoms: C_26  and  C_28
   12  A    between atoms: C_33  and  C_34
                            x       y       z     vdW  Elec       q    Type
                         _______ _______ _______ _____ _____    ______ ____

>  <TORSDO>
F 12

$$$$
=
 OpenBabel10252415103D

 34 38  0  0  1  0  0  0  0  0999 V2000
  189.1730  177.4490  147.1270 C   0  0  0  0  0  0  0  0  0  0  0  0
  190.7580  177.0500  145.5390 C   0  0  2  0  0  3  0  0  0  0  0  0
  188.6050  177.9200  144.8330 C   0  0  0  0  0  0  0  0  0  0  0  0
  188.1220  177.4830  142.3680 C   0  0  1  0  0  3  0  0  0  0  0  0
  191.1010  176.5230  146.7170 C   0  0  2  0  0  3  0  0  0  0  0  0
  192.2390  175.5840  146.9200 C   0  0  0  0  0  1  0  0  0  0  0  0
  190.4370  177.5400  143.1120 C   0  0  1  0  0  3  0  0  0  0  0  0
  189.4940  177.6650  145.7650 C   0  0  0  0  0  0  0  0  0  0  0  0
  189.0080  177.0880  141.1970 C   0  0  0  0  0  2  0  0  0  0  0  0
  190.0910  176.7560  147.7230 N   0  0  0  0  0  0  0  0  0  0  0  0
  186.9090  178.0030  146.7500 C   0  0  0  0  0  3  0  0  0  0  0  0
  187.8400  177.6420  147.5970 N   0  0  0  0  0  0  0  0  0  0  0  0
  191.1940  176.6750  144.1540 C   0  0  0  0  0  2  0  0  0  0  0  0
  190.4090  176.8510  141.7630 C   0  0  1  0  0  3  0  0  0  0  0  0
  189.0280  177.7640  143.4640 N   0  0  0  0  0  0  0  0  0  0  0  0
  187.1730  178.2110  145.2510 C   0  0  0  0  0  2  0  0  0  0  0  0
  191.4690  177.4460  140.8490 C   0  0  0  0  0  2  0  0  0  0  0  0
  191.0090  177.4510  139.3990 C   0  0  0  0  0  2  0  0  0  0  0  0
  191.6690  176.3260  138.6270 C   0  0  0  0  0  2  0  0  0  0  0  0
  190.6130  175.5540  137.8590 C   0  0  0  0  0  2  0  0  0  0  0  0
  189.8400  176.4840  136.9380 C   0  0  0  0  0  2  0  0  0  0  0  0
  188.3640  176.3240  137.1350 C   0  0  0  0  0  0  0  0  0  0  0  0
  187.7670  175.3760  136.5600 O   0  0  0  0  0  0  0  0  0  0  0  0
  186.5600  177.9870  137.3910 C   0  0  0  0  0  1  0  0  0  0  0  0
  187.6280  177.2170  137.9180 O   0  0  0  0  0  0  0  0  0  0  0  0
  187.3230  178.7310  142.0150 C   0  0  0  0  0  2  0  0  0  0  0  0
  186.2050  178.4070  141.0370 C   0  0  0  0  0  2  0  0  0  0  0  0
  184.8920  179.0070  141.5090 C   0  0  2  0  0  3  0  0  0  0  0  0
  184.4150  178.2570  142.7370 C   0  0  2  0  0  3  0  0  0  0  0  0
  183.7860  177.9820  141.3640 C   0  0  1  0  0  3  0  0  0  0  0  0
  183.6330  179.1850  143.6160 C   0  0  0  0  0  3  0  0  0  0  0  0
  183.5180  178.9310  144.9170 C   0  0  0  0  0  2  0  0  0  0  0  0
  182.4670  178.6970  141.0950 C   0  0  0  0  0  2  0  0  0  0  0  0
  181.6580  177.8930  140.2960 O   0  0  0  0  0  1  0  0  0  0  0  0
  1 12  1  0  0  0  0
  1 10  2  0  0  0  0
  2 13  1  6  0  0  0
  2  8  1  0  0  0  0
  2  5  1  0  0  0  0
  3 16  1  0  0  0  0
  3  8  2  0  0  0  0
  4 26  1  6  0  0  0
  4 15  1  0  0  0  0
  5  6  1  6  0  0  0
  5 10  1  0  0  0  0
  7 15  1  0  0  0  0
  7 13  1  1  0  0  0
  8  1  1  0  0  0  0
  9 14  1  0  0  0  0
  9  4  1  0  0  0  0
 11 12  2  0  0  0  0
 14 17  1  6  0  0  0
 14  7  1  0  0  0  0
 15  3  1  0  0  0  0
 16 11  1  0  0  0  0
 18 17  1  0  0  0  0
 19 18  1  0  0  0  0
 20 19  1  0  0  0  0
 21 22  1  0  0  0  0
 21 20  1  0  0  0  0
 22 25  1  0  0  0  0
 23 22  2  0  0  0  0
 24 25  1  0  0  0  0
 27 26  1  0  0  0  0
 28 27  1  6  0  0  0
 28 29  1  0  0  0  0
 29 31  1  1  0  0  0
 30 33  1  1  0  0  0
 30 28  1  0  0  0  0
 30 29  1  0  0  0  0
 31 32  2  0  0  0  0
 34 33  1  0  0  0  0
M  END
>  <MODEL>
6

>  <REMARK>
 VINA RESULT:      -8.1      3.367      8.235
  Name = 
  12 active torsions:
  status: ('A' for Active; 'I' for Inactive)
    1  A    between atoms: C_3  and  C_13
    2  A    between atoms: C_3  and  C_17
    3  A    between atoms: C_5  and  C_26
    4  A    between atoms: C_7  and  C_16
    5  A    between atoms: C_12  and  C_28
    6  A    between atoms: C_13  and  C_33
    7  A    between atoms: O_14  and  C_20
    8  A    between atoms: C_17  and  C_29
    9  A    between atoms: C_20  and  C_34
   10  A    between atoms: C_23  and  C_27
   11  A    between atoms: C_26  and  C_28
   12  A    between atoms: C_33  and  C_34
                            x       y       z     vdW  Elec       q    Type
                         _______ _______ _______ _____ _____    ______ ____

>  <TORSDO>
F 12

$$$$
=
 OpenBabel10252415103D

 34 38  0  0  1  0  0  0  0  0999 V2000
  190.1300  177.1910  145.6420 C   0  0  0  0  0  0  0  0  0  0  0  0
  187.8750  177.4160  145.4040 C   0  0  2  0  0  3  0  0  0  0  0  0
  189.2590  177.4510  143.4110 C   0  0  0  0  0  0  0  0  0  0  0  0
  188.1070  178.5600  141.4260 C   0  0  1  0  0  3  0  0  0  0  0  0
  188.2470  177.5300  146.6810 C   0  0  2  0  0  3  0  0  0  0  0  0
  187.3550  177.9920  147.7800 C   0  0  0  0  0  1  0  0  0  0  0  0
  186.7320  177.6110  143.1940 C   0  0  1  0  0  3  0  0  0  0  0  0
  189.0850  177.1960  144.6870 C   0  0  0  0  0  0  0  0  0  0  0  0
  186.6540  178.9090  141.1380 C   0  0  0  0  0  2  0  0  0  0  0  0
  189.6780  177.4060  146.8360 N   0  0  0  0  0  0  0  0  0  0  0  0
  191.7600  177.4770  143.9590 C   0  0  0  0  0  3  0  0  0  0  0  0
  191.4890  177.3270  145.2310 N   0  0  0  0  0  0  0  0  0  0  0  0
  186.6520  177.9370  144.7080 C   0  0  0  0  0  2  0  0  0  0  0  0
  185.8590  178.5580  142.3960 C   0  0  1  0  0  3  0  0  0  0  0  0
  188.0840  177.7690  142.6410 N   0  0  0  0  0  0  0  0  0  0  0  0
  190.6780  177.5390  142.8720 C   0  0  0  0  0  2  0  0  0  0  0  0
  184.5450  177.8820  142.0350 C   0  0  0  0  0  2  0  0  0  0  0  0
  183.3570  178.7800  142.3440 C   0  0  0  0  0  2  0  0  0  0  0  0
  183.3780  179.2080  143.7980 C   0  0  0  0  0  2  0  0  0  0  0  0
  182.0060  178.9950  144.4070 C   0  0  0  0  0  2  0  0  0  0  0  0
  180.9190  179.2660  143.3800 C   0  0  0  0  0  2  0  0  0  0  0  0
  179.9650  178.1150  143.2960 C   0  0  0  0  0  0  0  0  0  0  0  0
  179.6780  177.4790  144.3430 O   0  0  0  0  0  0  0  0  0  0  0  0
  179.8090  178.2730  140.8390 C   0  0  0  0  0  1  0  0  0  0  0  0
  179.4070  177.7140  142.0800 O   0  0  0  0  0  0  0  0  0  0  0  0
  188.6800  177.7400  140.2770 C   0  0  0  0  0  2  0  0  0  0  0  0
  189.1100  178.6360  139.1260 C   0  0  0  0  0  2  0  0  0  0  0  0
  189.5610  177.8010  137.9400 C   0  0  2  0  0  3  0  0  0  0  0  0
  188.5460  176.7040  137.6880 C   0  0  2  0  0  3  0  0  0  0  0  0
  189.8680  176.3900  138.4020 C   0  0  1  0  0  3  0  0  0  0  0  0
  188.5220  176.3720  136.2270 C   0  0  0  0  0  3  0  0  0  0  0  0
  188.3180  177.3320  135.3300 C   0  0  0  0  0  2  0  0  0  0  0  0
  190.9620  175.7970  137.5220 C   0  0  0  0  0  2  0  0  0  0  0  0
  191.2720  174.5150  137.9680 O   0  0  0  0  0  1  0  0  0  0  0  0
  1 10  2  0  0  0  0
  2 13  1  6  0  0  0
  2  5  1  0  0  0  0
  3  8  2  0  0  0  0
  4 26  1  6  0  0  0
  4 15  1  0  0  0  0
  5 10  1  0  0  0  0
  5  6  1  6  0  0  0
  7 13  1  1  0  0  0
  8  2  1  0  0  0  0
  8  1  1  0  0  0  0
  9  4  1  0  0  0  0
  9 14  1  0  0  0  0
 11 12  2  0  0  0  0
 12  1  1  0  0  0  0
 14 17  1  6  0  0  0
 14  7  1  0  0  0  0
 15  7  1  0  0  0  0
 15  3  1  0  0  0  0
 16  3  1  0  0  0  0
 16 11  1  0  0  0  0
 17 18  1  0  0  0  0
 18 19  1  0  0  0  0
 19 20  1  0  0  0  0
 21 20  1  0  0  0  0
 22 21  1  0  0  0  0
 22 23  2  0  0  0  0
 24 25  1  0  0  0  0
 25 22  1  0  0  0  0
 27 26  1  0  0  0  0
 28 30  1  0  0  0  0
 28 27  1  1  0  0  0
 29 31  1  6  0  0  0
 29 28  1  0  0  0  0
 29 30  1  0  0  0  0
 30 33  1  6  0  0  0
 32 31  2  0  0  0  0
 33 34  1  0  0  0  0
M  END
>  <MODEL>
7

>  <REMARK>
 VINA RESULT:      -8.0      3.471      7.014
  Name = 
  12 active torsions:
  status: ('A' for Active; 'I' for Inactive)
    1  A    between atoms: C_3  and  C_13
    2  A    between atoms: C_3  and  C_17
    3  A    between atoms: C_5  and  C_26
    4  A    between atoms: C_7  and  C_16
    5  A    between atoms: C_12  and  C_28
    6  A    between atoms: C_13  and  C_33
    7  A    between atoms: O_14  and  C_20
    8  A    between atoms: C_17  and  C_29
    9  A    between atoms: C_20  and  C_34
   10  A    between atoms: C_23  and  C_27
   11  A    between atoms: C_26  and  C_28
   12  A    between atoms: C_33  and  C_34
                            x       y       z     vdW  Elec       q    Type
                         _______ _______ _______ _____ _____    ______ ____

>  <TORSDO>
F 12

$$$$
=
 OpenBabel10252415103D

 34 38  0  0  1  0  0  0  0  0999 V2000
  189.7470  176.8870  136.7150 C   0  0  0  0  0  0  0  0  0  0  0  0
  190.8910  176.3680  138.6170 C   0  0  2  0  0  3  0  0  0  0  0  0
  188.7280  177.4510  138.8250 C   0  0  0  0  0  0  0  0  0  0  0  0
  188.4130  178.6060  141.0760 C   0  0  1  0  0  3  0  0  0  0  0  0
  191.6570  176.2350  137.5320 C   0  0  2  0  0  3  0  0  0  0  0  0
  193.1310  176.0220  137.5630 C   0  0  0  0  0  1  0  0  0  0  0  0
  190.0060  176.7740  140.9150 C   0  0  1  0  0  3  0  0  0  0  0  0
  189.6260  176.7990  138.1230 C   0  0  0  0  0  0  0  0  0  0  0  0
  189.1430  178.4920  142.4050 C   0  0  0  0  0  2  0  0  0  0  0  0
  190.9430  176.5800  136.3250 N   0  0  0  0  0  0  0  0  0  0  0  0
  187.7860  178.1920  136.5620 C   0  0  0  0  0  3  0  0  0  0  0  0
  188.7790  177.6000  135.9480 N   0  0  0  0  0  0  0  0  0  0  0  0
  191.2790  176.6050  140.0460 C   0  0  0  0  0  2  0  0  0  0  0  0
  190.3210  177.5420  142.1830 C   0  0  1  0  0  3  0  0  0  0  0  0
  188.9490  177.5450  140.2460 N   0  0  0  0  0  0  0  0  0  0  0  0
  187.6160  178.1800  138.0880 C   0  0  0  0  0  2  0  0  0  0  0  0
  190.4710  176.5830  143.3540 C   0  0  0  0  0  2  0  0  0  0  0  0
  191.6730  176.9450  144.2140 C   0  0  0  0  0  2  0  0  0  0  0  0
  191.3570  176.7390  145.6820 C   0  0  0  0  0  2  0  0  0  0  0  0
  189.9430  177.2090  145.9650 C   0  0  0  0  0  2  0  0  0  0  0  0
  189.4950  176.7510  147.3430 C   0  0  0  0  0  2  0  0  0  0  0  0
  188.7740  177.8490  148.0630 C   0  0  0  0  0  0  0  0  0  0  0  0
  189.4230  178.6100  148.8270 O   0  0  0  0  0  0  0  0  0  0  0  0
  186.7330  177.9170  146.6780 C   0  0  0  0  0  1  0  0  0  0  0  0
  187.3960  178.0320  147.9280 O   0  0  0  0  0  0  0  0  0  0  0  0
  186.9180  178.4020  141.2870 C   0  0  0  0  0  2  0  0  0  0  0  0
  186.6050  178.1160  142.7470 C   0  0  0  0  0  2  0  0  0  0  0  0
  185.1040  178.0390  142.9650 C   0  0  2  0  0  3  0  0  0  0  0  0
  184.4220  179.1000  142.1240 C   0  0  2  0  0  3  0  0  0  0  0  0
  184.6230  179.3130  143.6310 C   0  0  1  0  0  3  0  0  0  0  0  0
  183.0580  178.6230  141.7280 C   0  0  0  0  0  3  0  0  0  0  0  0
  182.9250  177.5290  140.9830 C   0  0  0  0  0  2  0  0  0  0  0  0
  183.4110  179.0010  144.5010 C   0  0  0  0  0  2  0  0  0  0  0  0
  183.7890  179.0030  145.8410 O   0  0  0  0  0  1  0  0  0  0  0  0
  1  8  1  0  0  0  0
  2 13  1  1  0  0  0
  3 15  1  0  0  0  0
  4 26  1  1  0  0  0
  4  9  1  0  0  0  0
  5  6  1  1  0  0  0
  5  2  1  0  0  0  0
  7 13  1  6  0  0  0
  7 14  1  0  0  0  0
  8  2  1  0  0  0  0
  8  3  2  0  0  0  0
 10  1  2  0  0  0  0
 10  5  1  0  0  0  0
 11 16  1  0  0  0  0
 12 11  2  0  0  0  0
 12  1  1  0  0  0  0
 14  9  1  0  0  0  0
 14 17  1  1  0  0  0
 15  7  1  0  0  0  0
 15  4  1  0  0  0  0
 16  3  1  0  0  0  0
 17 18  1  0  0  0  0
 18 19  1  0  0  0  0
 19 20  1  0  0  0  0
 20 21  1  0  0  0  0
 21 22  1  0  0  0  0
 22 23  2  0  0  0  0
 24 25  1  0  0  0  0
 25 22  1  0  0  0  0
 26 27  1  0  0  0  0
 28 27  1  6  0  0  0
 28 30  1  0  0  0  0
 29 31  1  1  0  0  0
 29 28  1  0  0  0  0
 29 30  1  0  0  0  0
 30 33  1  1  0  0  0
 32 31  2  0  0  0  0
 33 34  1  0  0  0  0
M  END
>  <MODEL>
8

>  <REMARK>
 VINA RESULT:      -7.8      3.123      6.989
  Name = 
  12 active torsions:
  status: ('A' for Active; 'I' for Inactive)
    1  A    between atoms: C_3  and  C_13
    2  A    between atoms: C_3  and  C_17
    3  A    between atoms: C_5  and  C_26
    4  A    between atoms: C_7  and  C_16
    5  A    between atoms: C_12  and  C_28
    6  A    between atoms: C_13  and  C_33
    7  A    between atoms: O_14  and  C_20
    8  A    between atoms: C_17  and  C_29
    9  A    between atoms: C_20  and  C_34
   10  A    between atoms: C_23  and  C_27
   11  A    between atoms: C_26  and  C_28
   12  A    between atoms: C_33  and  C_34
                            x       y       z     vdW  Elec       q    Type
                         _______ _______ _______ _____ _____    ______ ____

>  <TORSDO>
F 12

$$$$
=
 OpenBabel10252415103D

 34 38  0  0  1  0  0  0  0  0999 V2000
  190.1080  177.1250  146.2770 C   0  0  0  0  0  0  0  0  0  0  0  0
  187.8720  177.5030  146.0490 C   0  0  2  0  0  3  0  0  0  0  0  0
  189.2260  177.3170  144.0430 C   0  0  0  0  0  0  0  0  0  0  0  0
  188.1300  178.3910  142.0070 C   0  0  1  0  0  3  0  0  0  0  0  0
  188.2700  177.6640  147.3130 C   0  0  2  0  0  3  0  0  0  0  0  0
  187.4300  178.2550  148.3920 C   0  0  0  0  0  1  0  0  0  0  0  0
  186.7150  177.6530  143.8430 C   0  0  1  0  0  3  0  0  0  0  0  0
  189.0520  177.1520  145.3340 C   0  0  0  0  0  0  0  0  0  0  0  0
  186.7030  178.8290  141.7140 C   0  0  0  0  0  2  0  0  0  0  0  0
  189.6900  177.4440  147.4610 N   0  0  0  0  0  0  0  0  0  0  0  0
  191.7300  177.1900  144.5630 C   0  0  0  0  0  3  0  0  0  0  0  0
  191.4670  177.1350  145.8450 N   0  0  0  0  0  0  0  0  0  0  0  0
  186.6810  178.0710  145.3360 C   0  0  0  0  0  2  0  0  0  0  0  0
  185.9020  178.6130  142.9990 C   0  0  1  0  0  3  0  0  0  0  0  0
  188.0660  177.6770  143.2670 N   0  0  0  0  0  0  0  0  0  0  0  0
  190.6390  177.2680  143.4860 C   0  0  0  0  0  2  0  0  0  0  0  0
  184.5370  178.0170  142.6920 C   0  0  0  0  0  2  0  0  0  0  0  0
  183.4480  178.6660  143.5320 C   0  0  0  0  0  2  0  0  0  0  0  0
  182.2470  179.0090  142.6740 C   0  0  0  0  0  2  0  0  0  0  0  0
  182.3900  178.3450  141.3180 C   0  0  0  0  0  2  0  0  0  0  0  0
  182.1030  179.3400  140.2050 C   0  0  0  0  0  2  0  0  0  0  0  0
  183.2490  179.4110  139.2430 C   0  0  0  0  0  0  0  0  0  0  0  0
  184.2470  180.1220  139.5300 O   0  0  0  0  0  0  0  0  0  0  0  0
  183.4160  177.3250  137.9360 C   0  0  0  0  0  1  0  0  0  0  0  0
  183.2260  178.7280  138.0250 O   0  0  0  0  0  0  0  0  0  0  0  0
  188.6240  177.4640  140.9030 C   0  0  0  0  0  2  0  0  0  0  0  0
  188.8750  178.2320  139.6150 C   0  0  0  0  0  2  0  0  0  0  0  0
  188.7960  177.3020  138.4170 C   0  0  2  0  0  3  0  0  0  0  0  0
  189.9480  177.6000  137.4780 C   0  0  2  0  0  3  0  0  0  0  0  0
  188.5360  178.1140  137.1630 C   0  0  1  0  0  3  0  0  0  0  0  0
  190.3400  176.3470  136.7560 C   0  0  0  0  0  3  0  0  0  0  0  0
  190.7870  175.2970  137.4400 C   0  0  0  0  0  2  0  0  0  0  0  0
  187.7400  177.2720  136.1730 C   0  0  0  0  0  2  0  0  0  0  0  0
  186.5490  177.9220  135.8620 O   0  0  0  0  0  1  0  0  0  0  0  0
  1 10  2  0  0  0  0
  2 13  1  6  0  0  0
  2  5  1  0  0  0  0
  3  8  2  0  0  0  0
  4 26  1  6  0  0  0
  4 15  1  0  0  0  0
  5 10  1  0  0  0  0
  5  6  1  6  0  0  0
  7 13  1  1  0  0  0
  8  2  1  0  0  0  0
  8  1  1  0  0  0  0
  9  4  1  0  0  0  0
  9 14  1  0  0  0  0
 11 12  2  0  0  0  0
 12  1  1  0  0  0  0
 14 17  1  6  0  0  0
 14  7  1  0  0  0  0
 15  7  1  0  0  0  0
 15  3  1  0  0  0  0
 16  3  1  0  0  0  0
 16 11  1  0  0  0  0
 17 18  1  0  0  0  0
 19 18  1  0  0  0  0
 20 19  1  0  0  0  0
 21 20  1  0  0  0  0
 22 23  2  0  0  0  0
 22 21  1  0  0  0  0
 24 25  1  0  0  0  0
 25 22  1  0  0  0  0
 27 26  1  0  0  0  0
 28 27  1  1  0  0  0
 29 31  1  6  0  0  0
 29 28  1  0  0  0  0
 30 33  1  6  0  0  0
 30 29  1  0  0  0  0
 30 28  1  0  0  0  0
 31 32  2  0  0  0  0
 34 33  1  0  0  0  0
M  END
>  <MODEL>
9

>  <REMARK>
 VINA RESULT:      -7.7      3.409      7.095
  Name = 
  12 active torsions:
  status: ('A' for Active; 'I' for Inactive)
    1  A    between atoms: C_3  and  C_13
    2  A    between atoms: C_3  and  C_17
    3  A    between atoms: C_5  and  C_26
    4  A    between atoms: C_7  and  C_16
    5  A    between atoms: C_12  and  C_28
    6  A    between atoms: C_13  and  C_33
    7  A    between atoms: O_14  and  C_20
    8  A    between atoms: C_17  and  C_29
    9  A    between atoms: C_20  and  C_34
   10  A    between atoms: C_23  and  C_27
   11  A    between atoms: C_26  and  C_28
   12  A    between atoms: C_33  and  C_34
                            x       y       z     vdW  Elec       q    Type
                         _______ _______ _______ _____ _____    ______ ____

>  <TORSDO>
F 12

$$$$
