=
 OpenBabel10262423343D

 34 37  0  0  1  0  0  0  0  0999 V2000
  189.9970  176.5500  143.5080 C   0  0  1  0  0  3  0  0  0  0  0  0
  187.5240  178.0080  146.1070 C   0  0  0  0  0  2  0  0  0  0  0  0
  189.8320  177.3400  146.2240 O   0  0  0  0  0  0  0  0  0  0  0  0
  191.0860  177.0160  145.7000 C   0  0  0  0  0  0  0  0  0  0  0  0
  191.3030  176.9500  144.2190 C   0  0  2  0  0  3  0  0  0  0  0  0
  192.0660  176.8760  146.4760 O   0  0  0  0  0  0  0  0  0  0  0  0
  186.1610  177.3970  145.8110 C   0  0  0  0  0  2  0  0  0  0  0  0
  185.5200  177.9160  144.5120 C   0  0  2  0  0  3  0  0  0  0  0  0
  186.5030  178.1050  143.3460 C   0  0  0  0  0  2  0  0  0  0  0  0
  188.6170  177.1350  145.5030 C   0  0  2  0  0  3  0  0  0  0  0  0
  187.5230  176.9820  143.2380 C   0  0  0  0  0  2  0  0  0  0  0  0
  188.7930  177.3730  143.9940 C   0  0  2  0  0  3  0  0  0  0  0  0
  184.7390  179.2060  144.7650 C   0  0  2  0  0  3  0  0  0  0  0  0
  183.8300  179.0320  145.8860 N   0  0  0  0  0  1  0  0  0  0  0  0
  184.0000  179.5550  143.6330 O   0  0  0  0  0  1  0  0  0  0  0  0
  191.8470  178.2940  143.7490 C   0  0  0  0  0  2  0  0  0  0  0  0
  190.9840  179.3150  144.1430 O   0  0  0  0  0  1  0  0  0  0  0  0
  190.1380  176.4520  141.9820 C   0  0  0  0  0  2  0  0  0  0  0  0
  189.5950  177.6310  141.3230 N   0  0  0  0  0  2  0  0  0  0  0  0
  191.0720  176.4890  139.7710 C   0  0  0  0  0  1  0  0  0  0  0  0
  190.2200  177.7210  140.0120 C   0  0  1  0  0  3  0  0  0  0  0  0
  186.8470  178.4220  138.4300 N   0  0  0  0  0  2  0  0  0  0  0  0
  189.0710  176.6310  138.1230 N   0  0  0  0  0  2  0  0  0  0  0  0
  185.8940  175.5520  134.8550 C   0  0  2  0  0  3  0  0  0  0  0  0
  185.1360  176.0660  136.0870 C   0  0  1  0  0  3  0  0  0  0  0  0
  185.6590  177.4060  136.5810 C   0  0  0  0  0  2  0  0  0  0  0  0
  185.6200  174.0720  134.6600 C   0  0  0  0  0  1  0  0  0  0  0  0
  186.7220  177.1920  137.6520 C   0  0  1  0  0  3  0  0  0  0  0  0
  183.7800  176.1870  135.7820 O   0  0  0  0  0  1  0  0  0  0  0  0
  188.0380  175.5320  136.2280 C   0  0  0  0  0  2  0  0  0  0  0  0
  188.0940  176.8160  137.0490 C   0  0  2  0  0  3  0  0  0  0  0  0
  187.4040  175.8040  134.8710 C   0  0  0  0  0  2  0  0  0  0  0  0
  189.1740  177.8630  138.9070 C   0  0  1  0  0  3  0  0  0  0  0  0
  187.8140  178.2130  139.5050 C   0  0  0  0  0  2  0  0  0  0  0  0
  1 18  1  6  0  0  0
  1 12  1  0  0  0  0
  1  5  1  0  0  0  0
  4  3  1  0  0  0  0
  4  6  2  0  0  0  0
  5 16  1  6  0  0  0
  5  4  1  0  0  0  0
  7  2  1  0  0  0  0
  8 13  1  1  0  0  0
  8  7  1  0  0  0  0
  9  8  1  0  0  0  0
 10  2  1  1  0  0  0
 10  3  1  0  0  0  0
 11  9  1  0  0  0  0
 12 11  1  6  0  0  0
 12 10  1  0  0  0  0
 13 15  1  6  0  0  0
 13 14  1  0  0  0  0
 16 17  1  0  0  0  0
 19 18  1  0  0  0  0
 21 20  1  6  0  0  0
 21 19  1  0  0  0  0
 22 34  1  0  0  0  0
 23 33  1  0  0  0  0
 24 27  1  1  0  0  0
 24 32  1  0  0  0  0
 24 25  1  0  0  0  0
 25 29  1  6  0  0  0
 25 26  1  0  0  0  0
 28 26  1  6  0  0  0
 28 22  1  0  0  0  0
 31 30  1  1  0  0  0
 31 28  1  0  0  0  0
 31 23  1  0  0  0  0
 32 30  1  0  0  0  0
 33 34  1  0  0  0  0
 33 21  1  1  0  0  0
M  END
>  <MODEL>
1

>  <REMARK>
 VINA RESULT:      -9.4      0.000      0.000
  Name = 
  6 active torsions:
  status: ('A' for Active; 'I' for Inactive)
    1  A    between atoms: C_1  and  C_9
    2  A    between atoms: C_3  and  C_25
    3  A    between atoms: N_8  and  C_9
    4  A    between atoms: N_8  and  C_18
    5  A    between atoms: C_10  and  C_20
    6  A    between atoms: C_18  and  C_30
                            x       y       z     vdW  Elec       q    Type
                         _______ _______ _______ _____ _____    ______ ____

>  <TORSDO>
F 6

$$$$
=
 OpenBabel10262423343D

 34 37  0  0  1  0  0  0  0  0999 V2000
  189.9270  176.7300  143.1580 C   0  0  1  0  0  3  0  0  0  0  0  0
  187.5380  177.9410  145.9550 C   0  0  0  0  0  2  0  0  0  0  0  0
  189.8460  177.2610  145.9400 O   0  0  0  0  0  0  0  0  0  0  0  0
  191.0830  176.9860  145.3510 C   0  0  0  0  0  0  0  0  0  0  0  0
  191.2550  177.0590  143.8640 C   0  0  2  0  0  3  0  0  0  0  0  0
  192.0840  176.7720  146.0810 O   0  0  0  0  0  0  0  0  0  0  0  0
  186.1640  177.3630  145.6430 C   0  0  0  0  0  2  0  0  0  0  0  0
  185.4880  178.0030  144.4180 C   0  0  2  0  0  3  0  0  0  0  0  0
  186.4370  178.2990  143.2470 C   0  0  0  0  0  2  0  0  0  0  0  0
  188.6090  177.1270  145.2390 C   0  0  2  0  0  3  0  0  0  0  0  0
  187.4490  177.1900  143.0030 C   0  0  0  0  0  2  0  0  0  0  0  0
  188.7410  177.5060  143.7550 C   0  0  2  0  0  3  0  0  0  0  0  0
  184.7200  179.2640  144.8150 C   0  0  2  0  0  3  0  0  0  0  0  0
  183.8610  178.9930  145.9560 N   0  0  0  0  0  1  0  0  0  0  0  0
  183.9320  179.7080  143.7510 O   0  0  0  0  0  1  0  0  0  0  0  0
  191.7910  178.4410  143.5070 C   0  0  0  0  0  2  0  0  0  0  0  0
  190.9940  179.4220  144.0950 O   0  0  0  0  0  1  0  0  0  0  0  0
  190.0230  176.7770  141.6260 C   0  0  0  0  0  2  0  0  0  0  0  0
  189.5960  178.0690  141.1080 N   0  0  0  0  0  2  0  0  0  0  0  0
  190.4190  176.9010  139.1440 C   0  0  0  0  0  1  0  0  0  0  0  0
  189.4280  177.9230  139.6690 C   0  0  1  0  0  3  0  0  0  0  0  0
  186.5340  176.7520  137.5180 N   0  0  0  0  0  2  0  0  0  0  0  0
  187.0410  178.5370  139.7110 N   0  0  0  0  0  2  0  0  0  0  0  0
  182.4730  178.7580  138.7020 C   0  0  2  0  0  3  0  0  0  0  0  0
  183.2230  178.4820  137.3920 C   0  0  1  0  0  3  0  0  0  0  0  0
  184.1760  177.3010  137.5010 C   0  0  0  0  0  2  0  0  0  0  0  0
  181.8680  180.1500  138.6670 C   0  0  0  0  0  1  0  0  0  0  0  0
  185.5680  177.7840  137.8890 C   0  0  1  0  0  3  0  0  0  0  0  0
  182.3040  178.2380  136.3720 O   0  0  0  0  0  1  0  0  0  0  0  0
  184.7070  179.1640  139.8540 C   0  0  0  0  0  2  0  0  0  0  0  0
  185.6850  178.0860  139.4000 C   0  0  2  0  0  3  0  0  0  0  0  0
  183.3040  178.5850  139.9760 C   0  0  0  0  0  2  0  0  0  0  0  0
  188.0020  177.5040  139.3180 C   0  0  1  0  0  3  0  0  0  0  0  0
  187.8820  177.2260  137.8210 C   0  0  0  0  0  2  0  0  0  0  0  0
  1 18  1  6  0  0  0
  1 12  1  0  0  0  0
  1  5  1  0  0  0  0
  4  3  1  0  0  0  0
  4  6  2  0  0  0  0
  5 16  1  1  0  0  0
  5  4  1  0  0  0  0
  7  2  1  0  0  0  0
  8 13  1  1  0  0  0
  8  7  1  0  0  0  0
  9  8  1  0  0  0  0
 10  3  1  0  0  0  0
 10  2  1  1  0  0  0
 11  9  1  0  0  0  0
 12 11  1  6  0  0  0
 12 10  1  0  0  0  0
 13 15  1  6  0  0  0
 13 14  1  0  0  0  0
 16 17  1  0  0  0  0
 19 18  1  0  0  0  0
 21 20  1  1  0  0  0
 21 19  1  0  0  0  0
 22 34  1  0  0  0  0
 22 28  1  0  0  0  0
 24 27  1  6  0  0  0
 24 32  1  0  0  0  0
 25 29  1  6  0  0  0
 25 26  1  0  0  0  0
 25 24  1  0  0  0  0
 28 26  1  1  0  0  0
 28 31  1  0  0  0  0
 30 32  1  0  0  0  0
 31 23  1  0  0  0  0
 31 30  1  6  0  0  0
 33 21  1  6  0  0  0
 33 23  1  0  0  0  0
 34 33  1  0  0  0  0
M  END
>  <MODEL>
2

>  <REMARK>
 VINA RESULT:      -9.3      1.764      2.714
  Name = 
  6 active torsions:
  status: ('A' for Active; 'I' for Inactive)
    1  A    between atoms: C_1  and  C_9
    2  A    between atoms: C_3  and  C_25
    3  A    between atoms: N_8  and  C_9
    4  A    between atoms: N_8  and  C_18
    5  A    between atoms: C_10  and  C_20
    6  A    between atoms: C_18  and  C_30
                            x       y       z     vdW  Elec       q    Type
                         _______ _______ _______ _____ _____    ______ ____

>  <TORSDO>
F 6

$$$$
=
 OpenBabel10262423343D

 34 37  0  0  1  0  0  0  0  0999 V2000
  189.6040  176.7270  138.3030 C   0  0  1  0  0  3  0  0  0  0  0  0
  191.6600  174.1720  136.2420 C   0  0  0  0  0  2  0  0  0  0  0  0
  189.3000  174.5170  136.5550 O   0  0  0  0  0  0  0  0  0  0  0  0
  188.1610  175.2430  136.9140 C   0  0  0  0  0  0  0  0  0  0  0  0
  188.2840  176.6090  137.5190 C   0  0  2  0  0  3  0  0  0  0  0  0
  187.0220  174.7880  136.6370 O   0  0  0  0  0  0  0  0  0  0  0  0
  192.8940  173.8310  137.0670 C   0  0  0  0  0  2  0  0  0  0  0  0
  193.9120  174.9810  137.1600 C   0  0  2  0  0  3  0  0  0  0  0  0
  193.2880  176.3750  137.3240 C   0  0  0  0  0  2  0  0  0  0  0  0
  190.5770  174.7370  137.1540 C   0  0  2  0  0  3  0  0  0  0  0  0
  192.1070  176.3910  138.2830 C   0  0  0  0  0  2  0  0  0  0  0  0
  190.8090  176.2180  137.4940 C   0  0  2  0  0  3  0  0  0  0  0  0
  194.8680  174.9620  135.9660 C   0  0  2  0  0  3  0  0  0  0  0  0
  195.6450  173.7330  135.9620 N   0  0  0  0  0  1  0  0  0  0  0  0
  195.7420  176.0500  136.0270 O   0  0  0  0  0  1  0  0  0  0  0  0
  188.1600  177.6430  136.4060 C   0  0  0  0  0  2  0  0  0  0  0  0
  186.9270  178.2870  136.4970 O   0  0  0  0  0  1  0  0  0  0  0  0
  189.8020  178.1000  138.9610 C   0  0  0  0  0  2  0  0  0  0  0  0
  189.0860  178.1900  140.2250 N   0  0  0  0  0  2  0  0  0  0  0  0
  191.0120  177.5140  141.5400 C   0  0  0  0  0  1  0  0  0  0  0  0
  189.6100  177.1460  141.0940 C   0  0  1  0  0  3  0  0  0  0  0  0
  186.5610  177.5000  143.3180 N   0  0  0  0  0  2  0  0  0  0  0  0
  189.4140  177.2660  143.5480 N   0  0  0  0  0  2  0  0  0  0  0  0
  187.6450  177.5930  147.8730 C   0  0  2  0  0  3  0  0  0  0  0  0
  186.7410  178.4100  146.9390 C   0  0  1  0  0  3  0  0  0  0  0  0
  186.2880  177.6190  145.7220 C   0  0  0  0  0  2  0  0  0  0  0  0
  188.3810  178.5210  148.8220 C   0  0  0  0  0  1  0  0  0  0  0  0
  187.2480  177.8480  144.5600 C   0  0  1  0  0  3  0  0  0  0  0  0
  185.6210  178.8500  147.6440 O   0  0  0  0  0  1  0  0  0  0  0  0
  189.3130  177.3290  145.9670 C   0  0  0  0  0  2  0  0  0  0  0  0
  188.5390  177.0090  144.6920 C   0  0  2  0  0  3  0  0  0  0  0  0
  188.6440  176.6720  147.1670 C   0  0  0  0  0  2  0  0  0  0  0  0
  188.7090  176.9320  142.3090 C   0  0  1  0  0  3  0  0  0  0  0  0
  187.4440  177.7780  142.1890 C   0  0  0  0  0  2  0  0  0  0  0  0
  1 18  1  6  0  0  0
  2  7  1  0  0  0  0
  3  4  1  0  0  0  0
  3 10  1  0  0  0  0
  4  5  1  0  0  0  0
  5 16  1  6  0  0  0
  5  1  1  0  0  0  0
  6  4  2  0  0  0  0
  7  8  1  0  0  0  0
  8 13  1  6  0  0  0
  8  9  1  0  0  0  0
  9 11  1  0  0  0  0
 10  2  1  6  0  0  0
 10 12  1  0  0  0  0
 12 11  1  1  0  0  0
 12  1  1  0  0  0  0
 13 14  1  1  0  0  0
 13 15  1  0  0  0  0
 16 17  1  0  0  0  0
 18 19  1  0  0  0  0
 19 21  1  0  0  0  0
 21 20  1  1  0  0  0
 22 28  1  0  0  0  0
 23 31  1  0  0  0  0
 24 27  1  6  0  0  0
 25 29  1  1  0  0  0
 25 24  1  0  0  0  0
 26 25  1  0  0  0  0
 28 31  1  0  0  0  0
 28 26  1  1  0  0  0
 30 32  1  0  0  0  0
 31 30  1  1  0  0  0
 32 24  1  0  0  0  0
 33 21  1  6  0  0  0
 33 23  1  0  0  0  0
 34 33  1  0  0  0  0
 34 22  1  0  0  0  0
M  END
>  <MODEL>
3

>  <REMARK>
 VINA RESULT:      -9.0      3.416      9.534
  Name = 
  6 active torsions:
  status: ('A' for Active; 'I' for Inactive)
    1  A    between atoms: C_1  and  C_9
    2  A    between atoms: C_3  and  C_25
    3  A    between atoms: N_8  and  C_9
    4  A    between atoms: N_8  and  C_18
    5  A    between atoms: C_10  and  C_20
    6  A    between atoms: C_18  and  C_30
                            x       y       z     vdW  Elec       q    Type
                         _______ _______ _______ _____ _____    ______ ____

>  <TORSDO>
F 6

$$$$
=
 OpenBabel10262423343D

 34 37  0  0  1  0  0  0  0  0999 V2000
  189.8450  176.4020  143.7230 C   0  0  1  0  0  3  0  0  0  0  0  0
  187.4900  178.1530  146.2500 C   0  0  0  0  0  2  0  0  0  0  0  0
  189.8040  177.5010  146.3350 O   0  0  0  0  0  0  0  0  0  0  0  0
  191.0340  177.1180  145.7930 C   0  0  0  0  0  0  0  0  0  0  0  0
  191.1800  176.8810  144.3210 C   0  0  2  0  0  3  0  0  0  0  0  0
  192.0490  177.0680  146.5340 O   0  0  0  0  0  0  0  0  0  0  0  0
  186.1170  177.5120  146.0920 C   0  0  0  0  0  2  0  0  0  0  0  0
  185.4140  177.8770  144.7730 C   0  0  2  0  0  3  0  0  0  0  0  0
  186.3400  177.9300  143.5480 C   0  0  0  0  0  2  0  0  0  0  0  0
  188.5570  177.2150  145.7000 C   0  0  2  0  0  3  0  0  0  0  0  0
  187.3590  176.8010  143.5230 C   0  0  0  0  0  2  0  0  0  0  0  0
  188.6610  177.2770  144.1680 C   0  0  2  0  0  3  0  0  0  0  0  0
  184.6390  179.1880  144.9130 C   0  0  2  0  0  3  0  0  0  0  0  0
  183.2080  178.9290  144.9290 N   0  0  0  0  0  1  0  0  0  0  0  0
  184.9320  180.0410  143.8460 O   0  0  0  0  0  1  0  0  0  0  0  0
  191.6950  178.1610  143.6740 C   0  0  0  0  0  2  0  0  0  0  0  0
  191.1280  179.2680  144.3030 O   0  0  0  0  0  1  0  0  0  0  0  0
  189.9140  176.1290  142.2150 C   0  0  0  0  0  2  0  0  0  0  0  0
  190.0450  177.3650  141.4570 N   0  0  0  0  0  2  0  0  0  0  0  0
  188.2660  178.6290  140.3920 C   0  0  0  0  0  1  0  0  0  0  0  0
  189.0490  177.3300  140.3970 C   0  0  1  0  0  3  0  0  0  0  0  0
  189.5180  175.8940  136.9200 N   0  0  0  0  0  2  0  0  0  0  0  0
  191.0970  176.6920  139.1820 N   0  0  0  0  0  2  0  0  0  0  0  0
  194.0180  175.1480  135.8630 C   0  0  2  0  0  3  0  0  0  0  0  0
  192.7120  174.3540  135.7360 C   0  0  1  0  0  3  0  0  0  0  0  0
  191.4850  175.2510  135.6620 C   0  0  0  0  0  2  0  0  0  0  0  0
  195.1350  174.2350  136.3350 C   0  0  0  0  0  1  0  0  0  0  0  0
  190.9090  175.4670  137.0560 C   0  0  1  0  0  3  0  0  0  0  0  0
  192.7630  173.5520  134.5960 O   0  0  0  0  0  1  0  0  0  0  0  0
  193.1630  176.1360  138.0480 C   0  0  0  0  0  2  0  0  0  0  0  0
  191.7000  176.5240  137.8600 C   0  0  2  0  0  3  0  0  0  0  0  0
  193.9420  176.3840  136.7640 C   0  0  0  0  0  2  0  0  0  0  0  0
  189.6990  177.1010  139.0330 C   0  0  1  0  0  3  0  0  0  0  0  0
  188.9300  176.0420  138.2480 C   0  0  0  0  0  2  0  0  0  0  0  0
  1 18  1  6  0  0  0
  1 12  1  0  0  0  0
  1  5  1  0  0  0  0
  4  3  1  0  0  0  0
  4  6  2  0  0  0  0
  5 16  1  6  0  0  0
  5  4  1  0  0  0  0
  7  2  1  0  0  0  0
  8 13  1  1  0  0  0
  8  7  1  0  0  0  0
  9  8  1  0  0  0  0
 10  2  1  1  0  0  0
 10  3  1  0  0  0  0
 11  9  1  0  0  0  0
 12 11  1  6  0  0  0
 12 10  1  0  0  0  0
 13 15  1  6  0  0  0
 13 14  1  0  0  0  0
 16 17  1  0  0  0  0
 19 18  1  0  0  0  0
 21 20  1  6  0  0  0
 21 19  1  0  0  0  0
 22 28  1  0  0  0  0
 22 34  1  0  0  0  0
 24 27  1  1  0  0  0
 24 32  1  0  0  0  0
 25 29  1  6  0  0  0
 25 24  1  0  0  0  0
 26 25  1  0  0  0  0
 28 26  1  6  0  0  0
 28 31  1  0  0  0  0
 31 30  1  1  0  0  0
 31 23  1  0  0  0  0
 32 30  1  0  0  0  0
 33 23  1  0  0  0  0
 33 21  1  1  0  0  0
 34 33  1  0  0  0  0
M  END
>  <MODEL>
4

>  <REMARK>
 VINA RESULT:      -9.0      2.651      3.867
  Name = 
  6 active torsions:
  status: ('A' for Active; 'I' for Inactive)
    1  A    between atoms: C_1  and  C_9
    2  A    between atoms: C_3  and  C_25
    3  A    between atoms: N_8  and  C_9
    4  A    between atoms: N_8  and  C_18
    5  A    between atoms: C_10  and  C_20
    6  A    between atoms: C_18  and  C_30
                            x       y       z     vdW  Elec       q    Type
                         _______ _______ _______ _____ _____    ______ ____

>  <TORSDO>
F 6

$$$$
=
 OpenBabel10262423343D

 34 37  0  0  1  0  0  0  0  0999 V2000
  183.8480  178.2440  140.0440 C   0  0  1  0  0  3  0  0  0  0  0  0
  182.9080  178.8920  143.7450 C   0  0  0  0  0  2  0  0  0  0  0  0
  181.6180  178.7430  141.7200 O   0  0  0  0  0  0  0  0  0  0  0  0
  181.3850  178.3870  140.3890 C   0  0  0  0  0  0  0  0  0  0  0  0
  182.4670  177.7630  139.5630 C   0  0  2  0  0  3  0  0  0  0  0  0
  180.2270  178.5010  139.9100 O   0  0  0  0  0  0  0  0  0  0  0  0
  184.0220  179.7410  144.3420 C   0  0  0  0  0  2  0  0  0  0  0  0
  185.3450  178.9790  144.5320 C   0  0  2  0  0  3  0  0  0  0  0  0
  185.6960  178.0140  143.3890 C   0  0  0  0  0  2  0  0  0  0  0  0
  182.9230  179.0240  142.2270 C   0  0  2  0  0  3  0  0  0  0  0  0
  185.3950  178.5850  142.0120 C   0  0  0  0  0  2  0  0  0  0  0  0
  184.0000  178.1430  141.5720 C   0  0  2  0  0  3  0  0  0  0  0  0
  185.3660  178.2470  145.8740 C   0  0  2  0  0  3  0  0  0  0  0  0
  185.3060  179.2010  146.9690 N   0  0  0  0  0  1  0  0  0  0  0  0
  186.5330  177.4900  145.9960 O   0  0  0  0  0  1  0  0  0  0  0  0
  182.3100  176.2480  139.6250 C   0  0  0  0  0  2  0  0  0  0  0  0
  182.0430  175.7500  138.3510 O   0  0  0  0  0  1  0  0  0  0  0  0
  185.0150  177.6530  139.2410 C   0  0  0  0  0  2  0  0  0  0  0  0
  186.0650  178.6380  139.0270 N   0  0  0  0  0  2  0  0  0  0  0  0
  187.4630  178.6810  137.0420 C   0  0  0  0  0  1  0  0  0  0  0  0
  187.1580  177.9640  138.3430 C   0  0  1  0  0  3  0  0  0  0  0  0
  190.3780  176.5850  139.7950 N   0  0  0  0  0  2  0  0  0  0  0  0
  188.0640  178.0660  140.6340 N   0  0  0  0  0  2  0  0  0  0  0  0
  190.8510  177.5210  144.3590 C   0  0  2  0  0  3  0  0  0  0  0  0
  191.0260  176.2860  143.4640 C   0  0  1  0  0  3  0  0  0  0  0  0
  191.3340  176.6480  142.0190 C   0  0  0  0  0  2  0  0  0  0  0  0
  190.1600  177.1280  145.6520 C   0  0  0  0  0  1  0  0  0  0  0  0
  190.0440  176.7230  141.2110 C   0  0  1  0  0  3  0  0  0  0  0  0
  192.0550  175.4900  143.9670 O   0  0  0  0  0  1  0  0  0  0  0  0
  188.8970  178.2550  142.9000 C   0  0  0  0  0  2  0  0  0  0  0  0
  189.2850  178.0500  141.4390 C   0  0  2  0  0  3  0  0  0  0  0  0
  190.1100  178.6930  143.7090 C   0  0  0  0  0  2  0  0  0  0  0  0
  188.4090  177.9070  139.2200 C   0  0  1  0  0  3  0  0  0  0  0  0
  189.1460  176.5870  139.0100 C   0  0  0  0  0  2  0  0  0  0  0  0
  1 18  1  6  0  0  0
  1 12  1  0  0  0  0
  2  7  1  0  0  0  0
  3 10  1  0  0  0  0
  4  3  1  0  0  0  0
  5 16  1  1  0  0  0
  5  1  1  0  0  0  0
  5  4  1  0  0  0  0
  6  4  2  0  0  0  0
  7  8  1  0  0  0  0
  8 13  1  1  0  0  0
  9  8  1  0  0  0  0
 10  2  1  1  0  0  0
 11  9  1  0  0  0  0
 12 11  1  6  0  0  0
 12 10  1  0  0  0  0
 13 15  1  1  0  0  0
 13 14  1  0  0  0  0
 17 16  1  0  0  0  0
 19 18  1  0  0  0  0
 21 20  1  6  0  0  0
 21 19  1  0  0  0  0
 22 28  1  0  0  0  0
 23 31  1  0  0  0  0
 24 27  1  1  0  0  0
 25 29  1  1  0  0  0
 25 24  1  0  0  0  0
 26 25  1  0  0  0  0
 28 31  1  0  0  0  0
 28 26  1  1  0  0  0
 30 32  1  0  0  0  0
 31 30  1  1  0  0  0
 32 24  1  0  0  0  0
 33 21  1  6  0  0  0
 33 23  1  0  0  0  0
 34 33  1  0  0  0  0
 34 22  1  0  0  0  0
M  END
>  <MODEL>
5

>  <REMARK>
 VINA RESULT:      -8.9      2.550      7.303
  Name = 
  6 active torsions:
  status: ('A' for Active; 'I' for Inactive)
    1  A    between atoms: C_1  and  C_9
    2  A    between atoms: C_3  and  C_25
    3  A    between atoms: N_8  and  C_9
    4  A    between atoms: N_8  and  C_18
    5  A    between atoms: C_10  and  C_20
    6  A    between atoms: C_18  and  C_30
                            x       y       z     vdW  Elec       q    Type
                         _______ _______ _______ _____ _____    ______ ____

>  <TORSDO>
F 6

$$$$
=
 OpenBabel10262423343D

 34 37  0  0  1  0  0  0  0  0999 V2000
  189.7150  176.7860  143.1640 C   0  0  1  0  0  3  0  0  0  0  0  0
  187.4810  178.0050  146.0840 C   0  0  0  0  0  2  0  0  0  0  0  0
  189.7830  177.3180  145.9470 O   0  0  0  0  0  0  0  0  0  0  0  0
  190.9860  177.0390  145.2920 C   0  0  0  0  0  0  0  0  0  0  0  0
  191.0790  177.1120  143.7990 C   0  0  2  0  0  3  0  0  0  0  0  0
  192.0240  176.8220  145.9690 O   0  0  0  0  0  0  0  0  0  0  0  0
  186.0910  177.4300  145.8460 C   0  0  0  0  0  2  0  0  0  0  0  0
  185.3520  178.0720  144.6590 C   0  0  2  0  0  3  0  0  0  0  0  0
  186.2390  178.3650  143.4380 C   0  0  0  0  0  2  0  0  0  0  0  0
  188.5100  177.1880  145.3130 C   0  0  2  0  0  3  0  0  0  0  0  0
  187.2330  177.2530  143.1420 C   0  0  0  0  0  2  0  0  0  0  0  0
  188.5650  177.5660  143.8230 C   0  0  2  0  0  3  0  0  0  0  0  0
  184.6100  179.3360  145.0950 C   0  0  2  0  0  3  0  0  0  0  0  0
  183.3900  178.9850  145.8030 N   0  0  0  0  0  1  0  0  0  0  0  0
  184.2820  180.1140  143.9830 O   0  0  0  0  0  1  0  0  0  0  0  0
  191.5990  178.4920  143.4130 C   0  0  0  0  0  2  0  0  0  0  0  0
  190.9340  179.4690  144.1510 O   0  0  0  0  0  1  0  0  0  0  0  0
  189.7290  176.8320  141.6300 C   0  0  0  0  0  2  0  0  0  0  0  0
  191.0140  176.4010  141.0980 N   0  0  0  0  0  2  0  0  0  0  0  0
  192.9370  177.4940  140.0970 C   0  0  0  0  0  1  0  0  0  0  0  0
  191.4240  177.3860  140.1090 C   0  0  1  0  0  3  0  0  0  0  0  0
  189.1880  177.4730  137.0480 N   0  0  0  0  0  2  0  0  0  0  0  0
  190.6830  175.5790  138.6060 N   0  0  0  0  0  2  0  0  0  0  0  0
  188.6060  173.2490  135.1130 C   0  0  2  0  0  3  0  0  0  0  0  0
  187.6910  174.4190  135.4980 C   0  0  1  0  0  3  0  0  0  0  0  0
  188.4230  175.7520  135.5260 C   0  0  0  0  0  2  0  0  0  0  0  0
  187.9500  171.9330  135.4910 C   0  0  0  0  0  1  0  0  0  0  0  0
  188.9390  176.0380  136.9310 C   0  0  1  0  0  3  0  0  0  0  0  0
  186.6300  174.4970  134.5950 O   0  0  0  0  0  1  0  0  0  0  0  0
  190.0420  173.7480  137.1550 C   0  0  0  0  0  2  0  0  0  0  0  0
  190.2340  175.2580  137.2500 C   0  0  2  0  0  3  0  0  0  0  0  0
  190.0200  173.3120  135.6970 C   0  0  0  0  0  2  0  0  0  0  0  0
  190.9110  177.0210  138.7160 C   0  0  1  0  0  3  0  0  0  0  0  0
  189.6200  177.7750  138.4100 C   0  0  0  0  0  2  0  0  0  0  0  0
  1 18  1  6  0  0  0
  1  5  1  0  0  0  0
  1 12  1  0  0  0  0
  4  3  1  0  0  0  0
  4  6  2  0  0  0  0
  5 16  1  1  0  0  0
  5  4  1  0  0  0  0
  7  2  1  0  0  0  0
  8 13  1  1  0  0  0
  8  7  1  0  0  0  0
  9  8  1  0  0  0  0
 10  3  1  0  0  0  0
 10  2  1  1  0  0  0
 11  9  1  0  0  0  0
 12 11  1  6  0  0  0
 12 10  1  0  0  0  0
 13 15  1  6  0  0  0
 13 14  1  0  0  0  0
 16 17  1  0  0  0  0
 19 18  1  0  0  0  0
 21 20  1  6  0  0  0
 21 19  1  0  0  0  0
 22 34  1  0  0  0  0
 23 33  1  0  0  0  0
 24 27  1  1  0  0  0
 24 25  1  0  0  0  0
 24 32  1  0  0  0  0
 25 29  1  6  0  0  0
 25 26  1  0  0  0  0
 28 26  1  6  0  0  0
 28 22  1  0  0  0  0
 28 31  1  0  0  0  0
 31 30  1  1  0  0  0
 31 23  1  0  0  0  0
 32 30  1  0  0  0  0
 33 21  1  1  0  0  0
 34 33  1  0  0  0  0
M  END
>  <MODEL>
6

>  <REMARK>
 VINA RESULT:      -8.7      1.518      1.925
  Name = 
  6 active torsions:
  status: ('A' for Active; 'I' for Inactive)
    1  A    between atoms: C_1  and  C_9
    2  A    between atoms: C_3  and  C_25
    3  A    between atoms: N_8  and  C_9
    4  A    between atoms: N_8  and  C_18
    5  A    between atoms: C_10  and  C_20
    6  A    between atoms: C_18  and  C_30
                            x       y       z     vdW  Elec       q    Type
                         _______ _______ _______ _____ _____    ______ ____

>  <TORSDO>
F 6

$$$$
=
 OpenBabel10262423343D

 34 37  0  0  1  0  0  0  0  0999 V2000
  183.7210  178.3940  139.6090 C   0  0  1  0  0  3  0  0  0  0  0  0
  186.1470  177.4200  136.7520 C   0  0  0  0  0  2  0  0  0  0  0  0
  183.7520  177.5990  136.8890 O   0  0  0  0  0  0  0  0  0  0  0  0
  182.5420  178.0240  137.4450 C   0  0  0  0  0  0  0  0  0  0  0  0
  182.5190  178.7900  138.7330 C   0  0  2  0  0  3  0  0  0  0  0  0
  181.4710  177.8470  136.8100 O   0  0  0  0  0  0  0  0  0  0  0  0
  187.2820  176.6270  137.3870 C   0  0  0  0  0  2  0  0  0  0  0  0
  188.2220  177.4820  138.2550 C   0  0  2  0  0  3  0  0  0  0  0  0
  187.5120  178.5480  139.1040 C   0  0  0  0  0  2  0  0  0  0  0  0
  184.9310  177.3940  137.6690 C   0  0  2  0  0  3  0  0  0  0  0  0
  186.2200  178.0490  139.7320 C   0  0  0  0  0  2  0  0  0  0  0  0
  185.0430  178.4030  138.8240 C   0  0  2  0  0  3  0  0  0  0  0  0
  189.3210  178.1210  137.4050 C   0  0  2  0  0  3  0  0  0  0  0  0
  189.0540  179.5370  137.2190 N   0  0  0  0  0  1  0  0  0  0  0  0
  189.3860  177.5040  136.1540 O   0  0  0  0  0  1  0  0  0  0  0  0
  182.4860  180.2790  138.4090 C   0  0  0  0  0  2  0  0  0  0  0  0
  181.2250  180.7960  138.7000 O   0  0  0  0  0  1  0  0  0  0  0  0
  183.7660  179.1320  140.9540 C   0  0  0  0  0  2  0  0  0  0  0  0
  183.4820  178.2330  142.0630 N   0  0  0  0  0  2  0  0  0  0  0  0
  182.8150  179.0020  144.2680 C   0  0  0  0  0  1  0  0  0  0  0  0
  183.9570  178.8800  143.2770 C   0  0  1  0  0  3  0  0  0  0  0  0
  186.6020  177.9580  145.8310 N   0  0  0  0  0  2  0  0  0  0  0  0
  186.2530  178.0330  142.9810 N   0  0  0  0  0  2  0  0  0  0  0  0
  190.5760  176.4590  143.8590 C   0  0  2  0  0  3  0  0  0  0  0  0
  190.2050  177.4410  144.9780 C   0  0  1  0  0  3  0  0  0  0  0  0
  188.8640  177.1190  145.6210 C   0  0  0  0  0  2  0  0  0  0  0  0
  191.6820  177.0450  143.0010 C   0  0  0  0  0  1  0  0  0  0  0  0
  187.7500  177.8960  144.9290 C   0  0  1  0  0  3  0  0  0  0  0  0
  191.1980  177.4290  145.9570 O   0  0  0  0  0  1  0  0  0  0  0  0
  188.4780  177.1600  142.5970 C   0  0  0  0  0  2  0  0  0  0  0  0
  187.3260  177.2480  143.5920 C   0  0  2  0  0  3  0  0  0  0  0  0
  189.4100  176.0150  142.9720 C   0  0  0  0  0  2  0  0  0  0  0  0
  185.1160  178.1040  143.9010 C   0  0  1  0  0  3  0  0  0  0  0  0
  185.5490  178.7570  145.2120 C   0  0  0  0  0  2  0  0  0  0  0  0
  1 18  1  1  0  0  0
  2  7  1  0  0  0  0
  3  4  1  0  0  0  0
  3 10  1  0  0  0  0
  4  5  1  0  0  0  0
  5 16  1  6  0  0  0
  5  1  1  0  0  0  0
  6  4  2  0  0  0  0
  7  8  1  0  0  0  0
  8 13  1  6  0  0  0
  8  9  1  0  0  0  0
  9 11  1  0  0  0  0
 10  2  1  6  0  0  0
 10 12  1  0  0  0  0
 12  1  1  0  0  0  0
 12 11  1  1  0  0  0
 13 15  1  6  0  0  0
 14 13  1  0  0  0  0
 16 17  1  0  0  0  0
 18 19  1  0  0  0  0
 19 21  1  0  0  0  0
 21 20  1  1  0  0  0
 23 31  1  0  0  0  0
 23 33  1  0  0  0  0
 24 27  1  6  0  0  0
 24 25  1  0  0  0  0
 25 26  1  0  0  0  0
 25 29  1  1  0  0  0
 28 26  1  1  0  0  0
 28 22  1  0  0  0  0
 30 32  1  0  0  0  0
 31 30  1  6  0  0  0
 31 28  1  0  0  0  0
 32 24  1  0  0  0  0
 33 21  1  6  0  0  0
 33 34  1  0  0  0  0
 34 22  1  0  0  0  0
M  END
>  <MODEL>
7

>  <REMARK>
 VINA RESULT:      -8.4      2.628      8.924
  Name = 
  6 active torsions:
  status: ('A' for Active; 'I' for Inactive)
    1  A    between atoms: C_1  and  C_9
    2  A    between atoms: C_3  and  C_25
    3  A    between atoms: N_8  and  C_9
    4  A    between atoms: N_8  and  C_18
    5  A    between atoms: C_10  and  C_20
    6  A    between atoms: C_18  and  C_30
                            x       y       z     vdW  Elec       q    Type
                         _______ _______ _______ _____ _____    ______ ____

>  <TORSDO>
F 6

$$$$
=
 OpenBabel10262423343D

 34 37  0  0  1  0  0  0  0  0999 V2000
  189.9500  176.5220  138.0690 C   0  0  1  0  0  3  0  0  0  0  0  0
  192.2040  175.2350  135.1940 C   0  0  0  0  0  2  0  0  0  0  0  0
  189.8570  175.7440  135.3460 O   0  0  0  0  0  0  0  0  0  0  0  0
  188.7210  176.3290  135.9100 C   0  0  0  0  0  0  0  0  0  0  0  0
  188.8110  177.0850  137.2000 C   0  0  2  0  0  3  0  0  0  0  0  0
  187.6330  176.3060  135.2790 O   0  0  0  0  0  0  0  0  0  0  0  0
  193.2210  174.2900  135.8200 C   0  0  0  0  0  2  0  0  0  0  0  0
  194.2740  175.0010  136.6870 C   0  0  2  0  0  3  0  0  0  0  0  0
  193.7240  176.1510  137.5440 C   0  0  0  0  0  2  0  0  0  0  0  0
  191.0000  175.3730  136.1180 C   0  0  2  0  0  3  0  0  0  0  0  0
  192.3780  175.8330  138.1770 C   0  0  0  0  0  2  0  0  0  0  0  0
  191.2570  176.3510  137.2760 C   0  0  2  0  0  3  0  0  0  0  0  0
  195.4470  175.4850  135.8340 C   0  0  2  0  0  3  0  0  0  0  0  0
  195.5150  174.7290  134.5940 N   0  0  0  0  0  1  0  0  0  0  0  0
  196.6490  175.3270  136.5270 O   0  0  0  0  0  1  0  0  0  0  0  0
  188.9830  178.5660  136.8830 C   0  0  0  0  0  2  0  0  0  0  0  0
  187.7780  179.2350  137.0910 O   0  0  0  0  0  1  0  0  0  0  0  0
  190.1030  177.2410  139.4170 C   0  0  0  0  0  2  0  0  0  0  0  0
  189.3150  176.5940  140.4550 N   0  0  0  0  0  2  0  0  0  0  0  0
  191.3600  177.4470  141.4470 C   0  0  0  0  0  1  0  0  0  0  0  0
  190.0410  176.7460  141.7070 C   0  0  1  0  0  3  0  0  0  0  0  0
  188.6010  177.6820  145.0870 N   0  0  0  0  0  2  0  0  0  0  0  0
  187.8170  177.6110  142.3250 N   0  0  0  0  0  2  0  0  0  0  0  0
  184.1850  179.2140  144.8110 C   0  0  2  0  0  3  0  0  0  0  0  0
  184.9540  178.2260  145.6980 C   0  0  1  0  0  3  0  0  0  0  0  0
  186.4410  178.5380  145.7700 C   0  0  0  0  0  2  0  0  0  0  0  0
  182.8280  178.6370  144.4500 C   0  0  0  0  0  1  0  0  0  0  0  0
  187.1930  177.7540  144.7010 C   0  0  1  0  0  3  0  0  0  0  0  0
  184.4180  178.2440  146.9860 O   0  0  0  0  0  1  0  0  0  0  0  0
  185.6230  178.5000  142.8340 C   0  0  0  0  0  2  0  0  0  0  0  0
  187.0700  178.4010  143.3040 C   0  0  2  0  0  3  0  0  0  0  0  0
  184.9180  179.6510  143.5390 C   0  0  0  0  0  2  0  0  0  0  0  0
  189.2210  177.5290  142.7320 C   0  0  1  0  0  3  0  0  0  0  0  0
  189.3260  176.8770  144.1080 C   0  0  0  0  0  2  0  0  0  0  0  0
  1 18  1  1  0  0  0
  2  7  1  0  0  0  0
  3  4  1  0  0  0  0
  3 10  1  0  0  0  0
  4  5  1  0  0  0  0
  5 16  1  6  0  0  0
  5  1  1  0  0  0  0
  6  4  2  0  0  0  0
  7  8  1  0  0  0  0
  8 13  1  6  0  0  0
  8  9  1  0  0  0  0
  9 11  1  0  0  0  0
 10  2  1  6  0  0  0
 10 12  1  0  0  0  0
 12  1  1  0  0  0  0
 12 11  1  1  0  0  0
 13 14  1  6  0  0  0
 13 15  1  0  0  0  0
 16 17  1  0  0  0  0
 18 19  1  0  0  0  0
 19 21  1  0  0  0  0
 21 20  1  6  0  0  0
 23 33  1  0  0  0  0
 23 31  1  0  0  0  0
 24 27  1  6  0  0  0
 24 25  1  0  0  0  0
 25 26  1  0  0  0  0
 25 29  1  1  0  0  0
 28 22  1  0  0  0  0
 28 26  1  1  0  0  0
 30 32  1  0  0  0  0
 31 30  1  6  0  0  0
 31 28  1  0  0  0  0
 32 24  1  0  0  0  0
 33 21  1  6  0  0  0
 33 34  1  0  0  0  0
 34 22  1  0  0  0  0
M  END
>  <MODEL>
8

>  <REMARK>
 VINA RESULT:      -8.4      3.590      9.326
  Name = 
  6 active torsions:
  status: ('A' for Active; 'I' for Inactive)
    1  A    between atoms: C_1  and  C_9
    2  A    between atoms: C_3  and  C_25
    3  A    between atoms: N_8  and  C_9
    4  A    between atoms: N_8  and  C_18
    5  A    between atoms: C_10  and  C_20
    6  A    between atoms: C_18  and  C_30
                            x       y       z     vdW  Elec       q    Type
                         _______ _______ _______ _____ _____    ______ ____

>  <TORSDO>
F 6

$$$$
=
 OpenBabel10262423343D

 34 37  0  0  1  0  0  0  0  0999 V2000
  186.4240  177.7660  137.0720 C   0  0  1  0  0  3  0  0  0  0  0  0
  182.7060  177.3300  138.0640 C   0  0  0  0  0  2  0  0  0  0  0  0
  184.0600  176.4060  136.3030 O   0  0  0  0  0  0  0  0  0  0  0  0
  185.2590  176.0660  135.6720 C   0  0  0  0  0  0  0  0  0  0  0  0
  186.5760  176.4640  136.2660 C   0  0  2  0  0  3  0  0  0  0  0  0
  185.2360  175.3330  134.6490 O   0  0  0  0  0  0  0  0  0  0  0  0
  182.2160  178.6880  138.5500 C   0  0  0  0  0  2  0  0  0  0  0  0
  182.8070  179.1080  139.9070 C   0  0  2  0  0  3  0  0  0  0  0  0
  184.2920  178.7600  140.0920 C   0  0  0  0  0  2  0  0  0  0  0  0
  183.9440  177.5140  137.1960 C   0  0  2  0  0  3  0  0  0  0  0  0
  185.1240  179.0110  138.8440 C   0  0  0  0  0  2  0  0  0  0  0  0
  185.2200  177.7220  138.0280 C   0  0  2  0  0  3  0  0  0  0  0  0
  181.9790  178.5450  141.0620 C   0  0  2  0  0  3  0  0  0  0  0  0
  180.7350  179.2850  141.1990 N   0  0  0  0  0  1  0  0  0  0  0  0
  182.6930  178.6330  142.2590 O   0  0  0  0  0  1  0  0  0  0  0  0
  187.0990  175.3040  137.1040 C   0  0  0  0  0  2  0  0  0  0  0  0
  188.3320  174.8840  136.6110 O   0  0  0  0  0  1  0  0  0  0  0  0
  187.7350  178.2470  137.7080 C   0  0  0  0  0  2  0  0  0  0  0  0
  187.7480  178.0050  139.1440 N   0  0  0  0  0  2  0  0  0  0  0  0
  189.9480  177.4040  138.3120 C   0  0  0  0  0  1  0  0  0  0  0  0
  188.9520  177.2440  139.4440 C   0  0  1  0  0  3  0  0  0  0  0  0
  191.5960  177.6310  142.1330 N   0  0  0  0  0  2  0  0  0  0  0  0
  188.7560  177.2710  141.9010 N   0  0  0  0  0  2  0  0  0  0  0  0
  189.8100  177.5030  146.4590 C   0  0  2  0  0  3  0  0  0  0  0  0
  191.0020  176.8560  145.7410 C   0  0  1  0  0  3  0  0  0  0  0  0
  191.4830  177.6730  144.5510 C   0  0  0  0  0  2  0  0  0  0  0  0
  189.1270  176.4820  147.3510 C   0  0  0  0  0  1  0  0  0  0  0  0
  190.7960  177.1990  143.2760 C   0  0  1  0  0  3  0  0  0  0  0  0
  192.0540  176.6910  146.6410 O   0  0  0  0  0  1  0  0  0  0  0  0
  188.4640  177.3310  144.3040 C   0  0  0  0  0  2  0  0  0  0  0  0
  189.3590  177.7530  143.1440 C   0  0  2  0  0  3  0  0  0  0  0  0
  188.7790  178.1630  145.5400 C   0  0  0  0  0  2  0  0  0  0  0  0
  189.5770  177.6930  140.7640 C   0  0  1  0  0  3  0  0  0  0  0  0
  190.9880  177.1280  140.9040 C   0  0  0  0  0  2  0  0  0  0  0  0
  1 18  1  1  0  0  0
  1 12  1  0  0  0  0
  2  7  1  0  0  0  0
  3 10  1  0  0  0  0
  4  5  1  0  0  0  0
  4  3  1  0  0  0  0
  5  1  1  0  0  0  0
  5 16  1  1  0  0  0
  6  4  2  0  0  0  0
  7  8  1  0  0  0  0
  8  9  1  0  0  0  0
  8 13  1  1  0  0  0
 10 12  1  0  0  0  0
 10  2  1  1  0  0  0
 11  9  1  0  0  0  0
 12 11  1  6  0  0  0
 13 14  1  1  0  0  0
 13 15  1  0  0  0  0
 17 16  1  0  0  0  0
 18 19  1  0  0  0  0
 19 21  1  0  0  0  0
 21 20  1  6  0  0  0
 22 28  1  0  0  0  0
 23 31  1  0  0  0  0
 24 27  1  6  0  0  0
 25 24  1  0  0  0  0
 25 29  1  1  0  0  0
 26 25  1  0  0  0  0
 28 26  1  1  0  0  0
 30 32  1  0  0  0  0
 31 28  1  0  0  0  0
 31 30  1  1  0  0  0
 32 24  1  0  0  0  0
 33 21  1  6  0  0  0
 33 34  1  0  0  0  0
 33 23  1  0  0  0  0
 34 22  1  0  0  0  0
M  END
>  <MODEL>
9

>  <REMARK>
 VINA RESULT:      -8.1      2.372      8.264
  Name = 
  6 active torsions:
  status: ('A' for Active; 'I' for Inactive)
    1  A    between atoms: C_1  and  C_9
    2  A    between atoms: C_3  and  C_25
    3  A    between atoms: N_8  and  C_9
    4  A    between atoms: N_8  and  C_18
    5  A    between atoms: C_10  and  C_20
    6  A    between atoms: C_18  and  C_30
                            x       y       z     vdW  Elec       q    Type
                         _______ _______ _______ _____ _____    ______ ____

>  <TORSDO>
F 6

$$$$
