=
 OpenBabel10262423183D

 34 38  0  0  1  0  0  0  0  0999 V2000
  185.4200  178.8290  143.0170 C   0  0  1  0  0  3  0  0  0  0  0  0
  185.2550  179.6380  146.6680 C   0  0  0  0  0  3  0  0  0  0  0  0
  188.2920  177.5600  147.5790 C   0  0  0  0  0  0  0  0  0  0  0  0
  183.5320  179.5040  145.0630 O   0  0  0  0  0  0  0  0  0  0  0  0
  183.4180  178.3220  141.5480 C   0  0  0  0  0  3  0  0  0  0  0  0
  181.1640  178.7060  142.3420 C   0  0  0  0  0  3  0  0  0  0  0  0
  188.7720  176.1460  147.4850 C   0  0  0  0  0  1  0  0  0  0  0  0
  182.0380  178.3140  141.3250 C   0  0  0  0  0  3  0  0  0  0  0  0
  183.0470  179.1080  143.8130 C   0  0  0  0  0  0  0  0  0  0  0  0
  183.9330  178.7010  142.7970 C   0  0  0  0  0  0  0  0  0  0  0  0
  181.6690  179.1070  143.5820 C   0  0  0  0  0  3  0  0  0  0  0  0
  186.6520  179.3870  147.1690 C   0  0  0  0  0  2  0  0  0  0  0  0
  189.1740  178.5330  148.2970 C   0  0  0  0  0  1  0  0  0  0  0  0
  187.1020  177.9370  147.0610 C   0  0  0  0  0  0  0  0  0  0  0  0
  186.2180  176.9150  146.3750 C   0  0  0  0  0  2  0  0  0  0  0  0
  184.8670  179.3110  145.4340 C   0  0  0  0  0  0  0  0  0  0  0  0
  186.0540  177.1610  144.8670 C   0  0  0  0  0  2  0  0  0  0  0  0
  185.8300  178.6360  144.4890 C   0  0  1  0  0  3  0  0  0  0  0  0
  186.1750  177.9420  142.1400 N   0  0  0  0  0  2  0  0  0  0  0  0
  190.3590  177.8620  139.6800 C   0  0  0  0  0  2  0  0  0  0  0  0
  188.9730  177.1560  142.5360 C   0  0  0  0  0  2  0  0  0  0  0  0
  187.1310  178.7590  141.4100 C   0  0  1  0  0  3  0  0  0  0  0  0
  190.4530  176.5530  140.5020 C   0  0  0  0  0  2  0  0  0  0  0  0
  188.5540  178.4300  141.8370 C   0  0  2  0  0  3  0  0  0  0  0  0
  190.3790  176.7810  142.0310 C   0  0  2  0  0  3  0  0  0  0  0  0
  187.9880  177.8690  140.5460 C   0  0  2  0  0  3  0  0  0  0  0  0
  188.9270  178.4270  139.4940 C   0  0  0  0  0  2  0  0  0  0  0  0
  190.8000  175.6250  142.6910 O   0  0  0  0  0  0  0  0  0  0  0  0
  191.8330  176.0410  143.5420 C   0  0  0  0  0  2  0  0  0  0  0  0
  191.2930  176.3910  144.9230 C   0  0  2  0  0  3  0  0  0  0  0  0
  191.3780  177.8840  145.1780 C   0  0  0  0  0  1  0  0  0  0  0  0
  192.0280  175.6700  145.9460 N   0  0  0  0  0  2  0  0  0  0  0  0
  192.1950  176.5500  147.0230 N   0  0  0  0  0  2  0  0  0  0  0  0
  192.8510  175.8630  147.9870 O   0  0  0  0  0  1  0  0  0  0  0  0
  1 19  1  6  0  0  0
  1 18  1  0  0  0  0
  2 12  1  0  0  0  0
  3 13  1  0  0  0  0
  4 16  1  0  0  0  0
  5 10  1  0  0  0  0
  6 11  2  0  0  0  0
  7  3  1  0  0  0  0
  8  5  2  0  0  0  0
  8  6  1  0  0  0  0
  9  4  1  0  0  0  0
 10  1  1  0  0  0  0
 10  9  2  0  0  0  0
 11  9  1  0  0  0  0
 14 12  1  0  0  0  0
 14  3  2  0  0  0  0
 15 14  1  0  0  0  0
 16  2  2  0  0  0  0
 17 15  1  0  0  0  0
 18 17  1  1  0  0  0
 18 16  1  0  0  0  0
 20 23  1  0  0  0  0
 22 24  1  0  0  0  0
 22 19  1  1  0  0  0
 23 25  1  0  0  0  0
 24 21  1  1  0  0  0
 25 21  1  0  0  0  0
 25 28  1  1  0  0  0
 26 27  1  6  0  0  0
 26 22  1  0  0  0  0
 26 24  1  0  0  0  0
 27 20  1  0  0  0  0
 28 29  1  0  0  0  0
 29 30  1  0  0  0  0
 30 31  1  1  0  0  0
 30 32  1  0  0  0  0
 32 33  1  0  0  0  0
 33 34  1  0  0  0  0
M  END
>  <MODEL>
1

>  <REMARK>
 VINA RESULT:      -8.1      0.000      0.000
  Name = 
  7 active torsions:
  status: ('A' for Active; 'I' for Inactive)
    1  A    between atoms: C_1  and  N_9
    2  A    between atoms: C_7  and  N_21
    3  A    between atoms: C_7  and  C_29
    4  A    between atoms: C_8  and  N_9
    5  A    between atoms: N_11  and  N_21
    6  A    between atoms: O_26  and  C_28
    7  A    between atoms: O_26  and  C_29
                            x       y       z     vdW  Elec       q    Type
                         _______ _______ _______ _____ _____    ______ ____

>  <TORSDO>
F 7

$$$$
=
 OpenBabel10262423183D

 34 38  0  0  1  0  0  0  0  0999 V2000
  188.7700  176.7130  138.6130 C   0  0  1  0  0  3  0  0  0  0  0  0
  190.0210  173.7370  136.7210 C   0  0  0  0  0  3  0  0  0  0  0  0
  193.5910  174.9920  136.4980 C   0  0  0  0  0  0  0  0  0  0  0  0
  187.8790  174.7230  136.7570 O   0  0  0  0  0  0  0  0  0  0  0  0
  186.5540  177.8730  138.2020 C   0  0  0  0  0  3  0  0  0  0  0  0
  184.8770  176.8770  136.7700 C   0  0  0  0  0  3  0  0  0  0  0  0
  194.3510  176.1700  135.9770 C   0  0  0  0  0  1  0  0  0  0  0  0
  185.2810  177.9040  137.6260 C   0  0  0  0  0  3  0  0  0  0  0  0
  187.0230  175.7860  137.0560 C   0  0  0  0  0  0  0  0  0  0  0  0
  187.4410  176.8250  137.9090 C   0  0  0  0  0  0  0  0  0  0  0  0
  185.7450  175.8180  136.4900 C   0  0  0  0  0  3  0  0  0  0  0  0
  191.5040  173.7250  136.9800 C   0  0  0  0  0  2  0  0  0  0  0  0
  194.3900  173.8660  137.0750 C   0  0  0  0  0  1  0  0  0  0  0  0
  192.2420  174.9370  136.4300 C   0  0  0  0  0  0  0  0  0  0  0  0
  191.4690  176.0800  135.8040 C   0  0  0  0  0  2  0  0  0  0  0  0
  189.2340  174.7450  137.1000 C   0  0  0  0  0  0  0  0  0  0  0  0
  190.5930  176.8480  136.8060 C   0  0  0  0  0  2  0  0  0  0  0  0
  189.8250  175.9500  137.7910 C   0  0  1  0  0  3  0  0  0  0  0  0
  189.2730  178.0180  139.0310 N   0  0  0  0  0  2  0  0  0  0  0  0
  189.3210  176.2530  143.5520 C   0  0  0  0  0  2  0  0  0  0  0  0
  187.8550  178.3770  141.5730 C   0  0  0  0  0  2  0  0  0  0  0  0
  190.1020  177.8090  140.2080 C   0  0  1  0  0  3  0  0  0  0  0  0
  187.8060  176.4640  143.3130 C   0  0  0  0  0  2  0  0  0  0  0  0
  189.3560  178.2240  141.4670 C   0  0  2  0  0  3  0  0  0  0  0  0
  187.4330  177.9300  142.9850 C   0  0  2  0  0  3  0  0  0  0  0  0
  189.4640  176.7600  141.0840 C   0  0  2  0  0  3  0  0  0  0  0  0
  190.1860  176.1510  142.2710 C   0  0  0  0  0  2  0  0  0  0  0  0
  186.0530  178.0960  143.1150 O   0  0  0  0  0  0  0  0  0  0  0  0
  185.8260  178.2360  144.4900 C   0  0  0  0  0  2  0  0  0  0  0  0
  184.3630  178.5580  144.7710 C   0  0  2  0  0  3  0  0  0  0  0  0
  183.9140  179.7770  143.9880 C   0  0  0  0  0  1  0  0  0  0  0  0
  184.1620  178.7790  146.1910 N   0  0  0  0  0  2  0  0  0  0  0  0
  185.4100  178.6310  146.8070 N   0  0  0  0  0  2  0  0  0  0  0  0
  185.6910  179.8140  147.4040 O   0  0  0  0  0  1  0  0  0  0  0  0
  1 19  1  6  0  0  0
  2 12  1  0  0  0  0
  2 16  2  0  0  0  0
  3 13  1  0  0  0  0
  4  9  1  0  0  0  0
  4 16  1  0  0  0  0
  6  8  1  0  0  0  0
  7  3  1  0  0  0  0
  8  5  2  0  0  0  0
  9 10  2  0  0  0  0
 10  5  1  0  0  0  0
 10  1  1  0  0  0  0
 11  6  2  0  0  0  0
 11  9  1  0  0  0  0
 14  3  2  0  0  0  0
 14 12  1  0  0  0  0
 15 14  1  0  0  0  0
 15 17  1  0  0  0  0
 16 18  1  0  0  0  0
 18 17  1  6  0  0  0
 18  1  1  0  0  0  0
 21 25  1  0  0  0  0
 22 19  1  6  0  0  0
 22 26  1  0  0  0  0
 22 24  1  0  0  0  0
 23 20  1  0  0  0  0
 24 21  1  6  0  0  0
 25 28  1  6  0  0  0
 25 23  1  0  0  0  0
 26 24  1  0  0  0  0
 26 27  1  1  0  0  0
 27 20  1  0  0  0  0
 28 29  1  0  0  0  0
 29 30  1  0  0  0  0
 30 31  1  6  0  0  0
 30 32  1  0  0  0  0
 32 33  1  0  0  0  0
 33 34  1  0  0  0  0
M  END
>  <MODEL>
2

>  <REMARK>
 VINA RESULT:      -7.3      3.676      8.160
  Name = 
  7 active torsions:
  status: ('A' for Active; 'I' for Inactive)
    1  A    between atoms: C_1  and  N_9
    2  A    between atoms: C_7  and  N_21
    3  A    between atoms: C_7  and  C_29
    4  A    between atoms: C_8  and  N_9
    5  A    between atoms: N_11  and  N_21
    6  A    between atoms: O_26  and  C_28
    7  A    between atoms: O_26  and  C_29
                            x       y       z     vdW  Elec       q    Type
                         _______ _______ _______ _____ _____    ______ ____

>  <TORSDO>
F 7

$$$$
=
 OpenBabel10262423183D

 34 38  0  0  1  0  0  0  0  0999 V2000
  185.9530  178.9890  143.1690 C   0  0  1  0  0  3  0  0  0  0  0  0
  185.4450  179.3370  146.8600 C   0  0  0  0  0  3  0  0  0  0  0  0
  188.6110  177.4660  147.7820 C   0  0  0  0  0  0  0  0  0  0  0  0
  183.8650  179.2300  145.1140 O   0  0  0  0  0  0  0  0  0  0  0  0
  184.1250  178.4700  141.4910 C   0  0  0  0  0  3  0  0  0  0  0  0
  181.7920  178.5380  142.1340 C   0  0  0  0  0  3  0  0  0  0  0  0
  189.2430  176.1270  147.5710 C   0  0  0  0  0  1  0  0  0  0  0  0
  182.7730  178.3560  141.1560 C   0  0  0  0  0  3  0  0  0  0  0  0
  183.5140  178.9410  143.7920 C   0  0  0  0  0  0  0  0  0  0  0  0
  184.5070  178.7450  142.8140 C   0  0  0  0  0  0  0  0  0  0  0  0
  182.1630  178.8350  143.4480 C   0  0  0  0  0  3  0  0  0  0  0  0
  186.8220  179.1630  147.4450 C   0  0  0  0  0  2  0  0  0  0  0  0
  189.3330  178.4270  148.6740 C   0  0  0  0  0  1  0  0  0  0  0  0
  187.4280  177.7870  147.2130 C   0  0  0  0  0  0  0  0  0  0  0  0
  186.7070  176.7740  146.3460 C   0  0  0  0  0  2  0  0  0  0  0  0
  185.1820  179.1240  145.5700 C   0  0  0  0  0  0  0  0  0  0  0  0
  186.6260  177.1810  144.8670 C   0  0  0  0  0  2  0  0  0  0  0  0
  186.2750  178.6610  144.6380 C   0  0  1  0  0  3  0  0  0  0  0  0
  186.8580  178.2890  142.2640 N   0  0  0  0  0  2  0  0  0  0  0  0
  191.6370  177.4770  142.5080 C   0  0  0  0  0  2  0  0  0  0  0  0
  188.9750  176.9880  140.7050 C   0  0  0  0  0  2  0  0  0  0  0  0
  187.9160  177.7030  143.0720 C   0  0  1  0  0  3  0  0  0  0  0  0
  191.4380  177.7250  140.9930 C   0  0  0  0  0  2  0  0  0  0  0  0
  188.8490  176.8680  142.2080 C   0  0  2  0  0  3  0  0  0  0  0  0
  190.4480  176.7350  140.3330 C   0  0  2  0  0  3  0  0  0  0  0  0
  189.2440  178.2690  142.6360 C   0  0  2  0  0  3  0  0  0  0  0  0
  190.5190  178.0360  143.4240 C   0  0  0  0  0  2  0  0  0  0  0  0
  190.5790  176.8070  138.9450 O   0  0  0  0  0  0  0  0  0  0  0  0
  189.2800  176.6610  138.4430 C   0  0  0  0  0  2  0  0  0  0  0  0
  189.2000  177.1210  136.9930 C   0  0  2  0  0  3  0  0  0  0  0  0
  190.2770  176.4600  136.1520 C   0  0  0  0  0  1  0  0  0  0  0  0
  189.3280  178.5650  136.9170 N   0  0  0  0  0  2  0  0  0  0  0  0
  188.3610  179.1040  137.7730 N   0  0  0  0  0  2  0  0  0  0  0  0
  187.2380  179.2710  137.0350 O   0  0  0  0  0  1  0  0  0  0  0  0
  1 19  1  6  0  0  0
  1 18  1  0  0  0  0
  2 12  1  0  0  0  0
  3 13  1  0  0  0  0
  4 16  1  0  0  0  0
  5 10  1  0  0  0  0
  6 11  2  0  0  0  0
  7  3  1  0  0  0  0
  8  5  2  0  0  0  0
  8  6  1  0  0  0  0
  9  4  1  0  0  0  0
 10  1  1  0  0  0  0
 10  9  2  0  0  0  0
 11  9  1  0  0  0  0
 14 12  1  0  0  0  0
 14  3  2  0  0  0  0
 15 14  1  0  0  0  0
 16  2  2  0  0  0  0
 17 15  1  0  0  0  0
 18 17  1  6  0  0  0
 18 16  1  0  0  0  0
 20 27  1  0  0  0  0
 22 19  1  6  0  0  0
 23 20  1  0  0  0  0
 24 21  1  6  0  0  0
 24 26  1  0  0  0  0
 24 22  1  0  0  0  0
 25 28  1  6  0  0  0
 25 21  1  0  0  0  0
 25 23  1  0  0  0  0
 26 22  1  0  0  0  0
 26 27  1  1  0  0  0
 29 28  1  0  0  0  0
 30 31  1  6  0  0  0
 30 29  1  0  0  0  0
 32 30  1  0  0  0  0
 32 33  1  0  0  0  0
 34 33  1  0  0  0  0
M  END
>  <MODEL>
3

>  <REMARK>
 VINA RESULT:      -7.2      2.645      4.282
  Name = 
  7 active torsions:
  status: ('A' for Active; 'I' for Inactive)
    1  A    between atoms: C_1  and  N_9
    2  A    between atoms: C_7  and  N_21
    3  A    between atoms: C_7  and  C_29
    4  A    between atoms: C_8  and  N_9
    5  A    between atoms: N_11  and  N_21
    6  A    between atoms: O_26  and  C_28
    7  A    between atoms: O_26  and  C_29
                            x       y       z     vdW  Elec       q    Type
                         _______ _______ _______ _____ _____    ______ ____

>  <TORSDO>
F 7

$$$$
=
 OpenBabel10262423183D

 34 38  0  0  1  0  0  0  0  0999 V2000
  184.0200  177.8760  141.9050 C   0  0  1  0  0  3  0  0  0  0  0  0
  183.0360  176.8390  138.4460 C   0  0  0  0  0  3  0  0  0  0  0  0
  186.4110  177.6400  136.9150 C   0  0  0  0  0  0  0  0  0  0  0  0
  181.7240  177.7110  140.2010 O   0  0  0  0  0  0  0  0  0  0  0  0
  182.5510  179.1810  143.5060 C   0  0  0  0  0  3  0  0  0  0  0  0
  180.2030  179.5300  143.0340 C   0  0  0  0  0  3  0  0  0  0  0  0
  187.3400  178.8010  136.7560 C   0  0  0  0  0  1  0  0  0  0  0  0
  181.3030  179.6880  143.8800 C   0  0  0  0  0  3  0  0  0  0  0  0
  181.5960  178.3650  141.4290 C   0  0  0  0  0  0  0  0  0  0  0  0
  182.7120  178.5320  142.2720 C   0  0  0  0  0  0  0  0  0  0  0  0
  180.3490  178.8660  141.8130 C   0  0  0  0  0  3  0  0  0  0  0  0
  184.3430  176.5420  137.7600 C   0  0  0  0  0  2  0  0  0  0  0  0
  186.8000  176.3590  136.2460 C   0  0  0  0  0  1  0  0  0  0  0  0
  185.2580  177.7490  137.6130 C   0  0  0  0  0  0  0  0  0  0  0  0
  184.8790  179.0730  138.2440 C   0  0  0  0  0  2  0  0  0  0  0  0
  182.9730  177.3930  139.6580 C   0  0  0  0  0  0  0  0  0  0  0  0
  184.8770  179.0410  139.7810 C   0  0  0  0  0  2  0  0  0  0  0  0
  184.2390  177.7770  140.3840 C   0  0  1  0  0  3  0  0  0  0  0  0
  185.1520  178.5230  142.5580 N   0  0  0  0  0  2  0  0  0  0  0  0
  188.7100  177.4790  145.6910 C   0  0  0  0  0  2  0  0  0  0  0  0
  187.9160  177.5410  142.5370 C   0  0  0  0  0  2  0  0  0  0  0  0
  185.5060  177.7200  143.7170 C   0  0  1  0  0  3  0  0  0  0  0  0
  189.5020  178.0860  144.5070 C   0  0  0  0  0  2  0  0  0  0  0  0
  186.8700  177.0750  143.5250 C   0  0  2  0  0  3  0  0  0  0  0  0
  189.3000  177.3220  143.1760 C   0  0  2  0  0  3  0  0  0  0  0  0
  186.7200  178.3170  144.3840 C   0  0  2  0  0  3  0  0  0  0  0  0
  187.2060  177.8510  145.7430 C   0  0  0  0  0  2  0  0  0  0  0  0
  190.2820  177.7140  142.2650 O   0  0  0  0  0  0  0  0  0  0  0  0
  190.3660  176.6670  141.3380 C   0  0  0  0  0  2  0  0  0  0  0  0
  190.7890  177.1830  139.9680 C   0  0  2  0  0  3  0  0  0  0  0  0
  189.6210  177.8290  139.2460 C   0  0  0  0  0  1  0  0  0  0  0  0
  191.3300  176.0990  139.1690 N   0  0  0  0  0  2  0  0  0  0  0  0
  190.2610  175.5510  138.4510 N   0  0  0  0  0  2  0  0  0  0  0  0
  190.7240  174.4200  137.8680 O   0  0  0  0  0  1  0  0  0  0  0  0
  1 10  1  0  0  0  0
  1 19  1  1  0  0  0
  2 16  2  0  0  0  0
  3 14  2  0  0  0  0
  4  9  1  0  0  0  0
  5  8  1  0  0  0  0
  6  8  2  0  0  0  0
  7  3  1  0  0  0  0
  9 11  2  0  0  0  0
  9 10  1  0  0  0  0
 10  5  2  0  0  0  0
 11  6  1  0  0  0  0
 12  2  1  0  0  0  0
 13  3  1  0  0  0  0
 14 12  1  0  0  0  0
 14 15  1  0  0  0  0
 15 17  1  0  0  0  0
 16  4  1  0  0  0  0
 16 18  1  0  0  0  0
 18 17  1  6  0  0  0
 18  1  1  0  0  0  0
 20 27  1  0  0  0  0
 21 25  1  0  0  0  0
 22 19  1  6  0  0  0
 22 26  1  0  0  0  0
 23 20  1  0  0  0  0
 24 21  1  6  0  0  0
 24 22  1  0  0  0  0
 24 26  1  0  0  0  0
 25 28  1  6  0  0  0
 25 23  1  0  0  0  0
 26 27  1  1  0  0  0
 29 28  1  0  0  0  0
 30 31  1  6  0  0  0
 30 29  1  0  0  0  0
 32 30  1  0  0  0  0
 33 32  1  0  0  0  0
 34 33  1  0  0  0  0
M  END
>  <MODEL>
4

>  <REMARK>
 VINA RESULT:      -7.2      2.846      6.303
  Name = 
  7 active torsions:
  status: ('A' for Active; 'I' for Inactive)
    1  A    between atoms: C_1  and  N_9
    2  A    between atoms: C_7  and  N_21
    3  A    between atoms: C_7  and  C_29
    4  A    between atoms: C_8  and  N_9
    5  A    between atoms: N_11  and  N_21
    6  A    between atoms: O_26  and  C_28
    7  A    between atoms: O_26  and  C_29
                            x       y       z     vdW  Elec       q    Type
                         _______ _______ _______ _____ _____    ______ ____

>  <TORSDO>
F 7

$$$$
=
 OpenBabel10262423183D

 34 38  0  0  1  0  0  0  0  0999 V2000
  185.7920  178.8870  143.3050 C   0  0  1  0  0  3  0  0  0  0  0  0
  185.6610  179.3770  147.0130 C   0  0  0  0  0  3  0  0  0  0  0  0
  188.8600  177.4580  147.6890 C   0  0  0  0  0  0  0  0  0  0  0  0
  183.9130  179.2510  145.4360 O   0  0  0  0  0  0  0  0  0  0  0  0
  183.7950  178.3570  141.8360 C   0  0  0  0  0  3  0  0  0  0  0  0
  181.5400  178.5090  142.7020 C   0  0  0  0  0  3  0  0  0  0  0  0
  189.4370  176.0970  147.4670 C   0  0  0  0  0  1  0  0  0  0  0  0
  182.4140  178.2670  141.6400 C   0  0  0  0  0  3  0  0  0  0  0  0
  183.4260  178.9240  144.1670 C   0  0  0  0  0  0  0  0  0  0  0  0
  184.3130  178.6680  143.1030 C   0  0  0  0  0  0  0  0  0  0  0  0
  182.0460  178.8420  143.9620 C   0  0  0  0  0  3  0  0  0  0  0  0
  187.0850  179.1880  147.4650 C   0  0  0  0  0  2  0  0  0  0  0  0
  189.6880  178.4310  148.4690 C   0  0  0  0  0  1  0  0  0  0  0  0
  187.6340  177.7890  147.2260 C   0  0  0  0  0  0  0  0  0  0  0  0
  186.8080  176.7660  146.4740 C   0  0  0  0  0  2  0  0  0  0  0  0
  185.2660  179.1260  145.7630 C   0  0  0  0  0  0  0  0  0  0  0  0
  186.5890  177.1220  144.9950 C   0  0  0  0  0  2  0  0  0  0  0  0
  186.2510  178.6030  144.7470 C   0  0  1  0  0  3  0  0  0  0  0  0
  186.5870  178.1320  142.3420 N   0  0  0  0  0  2  0  0  0  0  0  0
  187.8460  178.0240  137.6560 C   0  0  0  0  0  2  0  0  0  0  0  0
  188.9430  177.5790  140.6860 C   0  0  0  0  0  2  0  0  0  0  0  0
  186.6490  178.9150  141.1190 C   0  0  1  0  0  3  0  0  0  0  0  0
  188.6540  176.8320  138.2260 C   0  0  0  0  0  2  0  0  0  0  0  0
  187.9950  178.7310  140.4330 C   0  0  2  0  0  3  0  0  0  0  0  0
  189.6350  177.2370  139.3530 C   0  0  2  0  0  3  0  0  0  0  0  0
  186.7710  177.9840  139.9390 C   0  0  2  0  0  3  0  0  0  0  0  0
  186.6310  178.4690  138.5090 C   0  0  0  0  0  2  0  0  0  0  0  0
  190.5410  176.1980  139.5710 O   0  0  0  0  0  0  0  0  0  0  0  0
  191.7980  176.7320  139.2600 C   0  0  0  0  0  2  0  0  0  0  0  0
  192.2090  176.3660  137.8390 C   0  0  2  0  0  3  0  0  0  0  0  0
  192.0340  174.8810  137.5870 C   0  0  0  0  0  1  0  0  0  0  0  0
  193.5880  176.7520  137.6010 N   0  0  0  0  0  2  0  0  0  0  0  0
  194.3760  175.6250  137.8650 N   0  0  0  0  0  2  0  0  0  0  0  0
  195.3290  175.5840  136.9040 O   0  0  0  0  0  1  0  0  0  0  0  0
  1 19  1  6  0  0  0
  1 18  1  0  0  0  0
  2 12  1  0  0  0  0
  3 13  1  0  0  0  0
  4 16  1  0  0  0  0
  5 10  1  0  0  0  0
  6 11  2  0  0  0  0
  7  3  1  0  0  0  0
  8  5  2  0  0  0  0
  8  6  1  0  0  0  0
  9  4  1  0  0  0  0
 10  1  1  0  0  0  0
 10  9  2  0  0  0  0
 11  9  1  0  0  0  0
 14 12  1  0  0  0  0
 14  3  2  0  0  0  0
 15 14  1  0  0  0  0
 16  2  2  0  0  0  0
 17 15  1  0  0  0  0
 18 17  1  6  0  0  0
 18 16  1  0  0  0  0
 20 23  1  0  0  0  0
 20 27  1  0  0  0  0
 22 19  1  1  0  0  0
 23 25  1  0  0  0  0
 24 21  1  1  0  0  0
 24 22  1  0  0  0  0
 25 28  1  1  0  0  0
 25 21  1  0  0  0  0
 26 27  1  6  0  0  0
 26 24  1  0  0  0  0
 26 22  1  0  0  0  0
 29 28  1  0  0  0  0
 30 31  1  1  0  0  0
 30 29  1  0  0  0  0
 32 30  1  0  0  0  0
 32 33  1  0  0  0  0
 34 33  1  0  0  0  0
M  END
>  <MODEL>
5

>  <REMARK>
 VINA RESULT:      -7.2      2.768      3.781
  Name = 
  7 active torsions:
  status: ('A' for Active; 'I' for Inactive)
    1  A    between atoms: C_1  and  N_9
    2  A    between atoms: C_7  and  N_21
    3  A    between atoms: C_7  and  C_29
    4  A    between atoms: C_8  and  N_9
    5  A    between atoms: N_11  and  N_21
    6  A    between atoms: O_26  and  C_28
    7  A    between atoms: O_26  and  C_29
                            x       y       z     vdW  Elec       q    Type
                         _______ _______ _______ _____ _____    ______ ____

>  <TORSDO>
F 7

$$$$
=
 OpenBabel10262423183D

 34 38  0  0  1  0  0  0  0  0999 V2000
  183.4110  178.0630  141.9030 C   0  0  1  0  0  3  0  0  0  0  0  0
  183.0130  176.6820  138.4480 C   0  0  0  0  0  3  0  0  0  0  0  0
  186.5440  177.5410  137.3660 C   0  0  0  0  0  0  0  0  0  0  0  0
  181.4120  177.6240  139.9000 O   0  0  0  0  0  0  0  0  0  0  0  0
  181.6590  179.4140  143.1410 C   0  0  0  0  0  3  0  0  0  0  0  0
  179.3980  179.5880  142.2960 C   0  0  0  0  0  3  0  0  0  0  0  0
  187.4350  178.7350  137.2400 C   0  0  0  0  0  1  0  0  0  0  0  0
  180.3480  179.8790  143.2780 C   0  0  0  0  0  3  0  0  0  0  0  0
  181.0700  178.3720  141.0300 C   0  0  0  0  0  0  0  0  0  0  0  0
  182.0350  178.6730  142.0100 C   0  0  0  0  0  0  0  0  0  0  0  0
  179.7580  178.8320  141.1770 C   0  0  0  0  0  3  0  0  0  0  0  0
  184.4210  176.4030  137.9930 C   0  0  0  0  0  2  0  0  0  0  0  0
  187.0850  176.2310  136.8830 C   0  0  0  0  0  1  0  0  0  0  0  0
  185.2940  177.6430  137.8720 C   0  0  0  0  0  0  0  0  0  0  0  0
  184.7660  178.9920  138.3150 C   0  0  0  0  0  2  0  0  0  0  0  0
  182.7420  177.3330  139.5800 C   0  0  0  0  0  0  0  0  0  0  0  0
  184.5310  179.0900  139.8310 C   0  0  0  0  0  2  0  0  0  0  0  0
  183.8640  177.8480  140.4470 C   0  0  1  0  0  3  0  0  0  0  0  0
  184.4010  178.8270  142.6540 N   0  0  0  0  0  2  0  0  0  0  0  0
  186.9280  178.2160  146.7530 C   0  0  0  0  0  2  0  0  0  0  0  0
  186.7550  177.3660  143.6190 C   0  0  0  0  0  2  0  0  0  0  0  0
  184.3120  178.4090  144.0440 C   0  0  1  0  0  3  0  0  0  0  0  0
  188.0520  178.2170  145.6890 C   0  0  0  0  0  2  0  0  0  0  0  0
  185.4630  177.4790  144.3980 C   0  0  2  0  0  3  0  0  0  0  0  0
  187.8920  177.1040  144.6250 C   0  0  2  0  0  3  0  0  0  0  0  0
  185.5040  178.9410  144.8000 C   0  0  2  0  0  3  0  0  0  0  0  0
  185.5970  178.8760  146.3120 C   0  0  0  0  0  2  0  0  0  0  0  0
  189.0890  176.9620  143.9210 O   0  0  0  0  0  0  0  0  0  0  0  0
  189.9490  177.9290  144.4570 C   0  0  0  0  0  2  0  0  0  0  0  0
  191.4060  177.5020  144.3140 C   0  0  2  0  0  3  0  0  0  0  0  0
  191.7330  177.1570  142.8740 C   0  0  0  0  0  1  0  0  0  0  0  0
  191.6810  176.3650  145.1730 N   0  0  0  0  0  2  0  0  0  0  0  0
  191.7470  176.8510  146.4840 N   0  0  0  0  0  2  0  0  0  0  0  0
  192.5800  176.0270  147.1620 O   0  0  0  0  0  1  0  0  0  0  0  0
  1 10  1  0  0  0  0
  1 19  1  6  0  0  0
  2 16  2  0  0  0  0
  3 14  2  0  0  0  0
  4  9  1  0  0  0  0
  5  8  1  0  0  0  0
  6  8  2  0  0  0  0
  7  3  1  0  0  0  0
  9 11  2  0  0  0  0
  9 10  1  0  0  0  0
 10  5  2  0  0  0  0
 11  6  1  0  0  0  0
 12  2  1  0  0  0  0
 13  3  1  0  0  0  0
 14 12  1  0  0  0  0
 14 15  1  0  0  0  0
 15 17  1  0  0  0  0
 16  4  1  0  0  0  0
 16 18  1  0  0  0  0
 18 17  1  6  0  0  0
 18  1  1  0  0  0  0
 21 25  1  0  0  0  0
 22 19  1  6  0  0  0
 22 24  1  0  0  0  0
 22 26  1  0  0  0  0
 23 20  1  0  0  0  0
 24 21  1  6  0  0  0
 24 26  1  0  0  0  0
 25 28  1  6  0  0  0
 25 23  1  0  0  0  0
 26 27  1  1  0  0  0
 27 20  1  0  0  0  0
 28 29  1  0  0  0  0
 30 31  1  6  0  0  0
 30 29  1  0  0  0  0
 30 32  1  0  0  0  0
 32 33  1  0  0  0  0
 33 34  1  0  0  0  0
M  END
>  <MODEL>
6

>  <REMARK>
 VINA RESULT:      -7.1      2.285      5.792
  Name = 
  7 active torsions:
  status: ('A' for Active; 'I' for Inactive)
    1  A    between atoms: C_1  and  N_9
    2  A    between atoms: C_7  and  N_21
    3  A    between atoms: C_7  and  C_29
    4  A    between atoms: C_8  and  N_9
    5  A    between atoms: N_11  and  N_21
    6  A    between atoms: O_26  and  C_28
    7  A    between atoms: O_26  and  C_29
                            x       y       z     vdW  Elec       q    Type
                         _______ _______ _______ _____ _____    ______ ____

>  <TORSDO>
F 7

$$$$
=
 OpenBabel10262423183D

 34 38  0  0  1  0  0  0  0  0999 V2000
  183.6410  178.3070  139.4570 C   0  0  1  0  0  3  0  0  0  0  0  0
  184.7830  176.4690  136.4040 C   0  0  0  0  0  3  0  0  0  0  0  0
  188.4550  176.5730  137.3390 C   0  0  0  0  0  0  0  0  0  0  0  0
  182.9150  177.8740  136.7210 O   0  0  0  0  0  0  0  0  0  0  0  0
  181.8480  180.0990  139.4920 C   0  0  0  0  0  3  0  0  0  0  0  0
  180.4460  180.4910  137.5590 C   0  0  0  0  0  3  0  0  0  0  0  0
  189.5210  177.5750  137.6480 C   0  0  0  0  0  1  0  0  0  0  0  0
  180.7930  180.7810  138.8810 C   0  0  0  0  0  3  0  0  0  0  0  0
  182.2150  178.8380  137.4510 C   0  0  0  0  0  0  0  0  0  0  0  0
  182.5790  179.1360  138.7780 C   0  0  0  0  0  0  0  0  0  0  0  0
  181.1520  179.5170  136.8480 C   0  0  0  0  0  3  0  0  0  0  0  0
  186.1230  175.9010  136.7890 C   0  0  0  0  0  2  0  0  0  0  0  0
  188.8650  175.1340  137.2900 C   0  0  0  0  0  1  0  0  0  0  0  0
  187.1810  176.9510  137.0910 C   0  0  0  0  0  0  0  0  0  0  0  0
  186.8120  178.4200  137.1110 C   0  0  0  0  0  2  0  0  0  0  0  0
  184.1180  177.3280  137.1790 C   0  0  0  0  0  0  0  0  0  0  0  0
  185.8600  178.7970  138.2580 C   0  0  0  0  0  2  0  0  0  0  0  0
  184.7170  177.7920  138.4840 C   0  0  1  0  0  3  0  0  0  0  0  0
  184.2440  179.0150  140.5810 N   0  0  0  0  0  2  0  0  0  0  0  0
  184.4350  178.8720  145.4290 C   0  0  0  0  0  2  0  0  0  0  0  0
  185.9350  177.9110  142.7080 C   0  0  0  0  0  2  0  0  0  0  0  0
  183.5160  178.6310  141.7800 C   0  0  1  0  0  3  0  0  0  0  0  0
  185.9340  178.9900  145.0590 C   0  0  0  0  0  2  0  0  0  0  0  0
  184.4240  177.8740  142.7380 C   0  0  2  0  0  3  0  0  0  0  0  0
  186.4380  177.8340  144.1620 C   0  0  2  0  0  3  0  0  0  0  0  0
  184.1110  179.3410  142.9710 C   0  0  2  0  0  3  0  0  0  0  0  0
  183.4420  179.3340  144.3320 C   0  0  0  0  0  2  0  0  0  0  0  0
  187.8350  177.8320  144.1540 O   0  0  0  0  0  0  0  0  0  0  0  0
  188.2110  177.7880  145.5020 C   0  0  0  0  0  2  0  0  0  0  0  0
  189.7200  177.9480  145.6520 C   0  0  2  0  0  3  0  0  0  0  0  0
  190.3700  178.2560  144.3170 C   0  0  0  0  0  1  0  0  0  0  0  0
  190.2980  176.7440  146.2200 N   0  0  0  0  0  2  0  0  0  0  0  0
  191.6790  176.9550  146.2990 N   0  0  0  0  0  2  0  0  0  0  0  0
  192.0290  176.7530  147.5910 O   0  0  0  0  0  1  0  0  0  0  0  0
  1 19  1  1  0  0  0
  2 12  1  0  0  0  0
  2 16  2  0  0  0  0
  3  7  1  0  0  0  0
  4 16  1  0  0  0  0
  4  9  1  0  0  0  0
  6  8  2  0  0  0  0
  8  5  1  0  0  0  0
  9 10  1  0  0  0  0
 10  1  1  0  0  0  0
 10  5  2  0  0  0  0
 11  9  2  0  0  0  0
 11  6  1  0  0  0  0
 12 14  1  0  0  0  0
 13  3  1  0  0  0  0
 14 15  1  0  0  0  0
 14  3  2  0  0  0  0
 15 17  1  0  0  0  0
 16 18  1  0  0  0  0
 18 17  1  6  0  0  0
 18  1  1  0  0  0  0
 21 25  1  0  0  0  0
 22 19  1  6  0  0  0
 22 24  1  0  0  0  0
 22 26  1  0  0  0  0
 23 20  1  0  0  0  0
 24 21  1  6  0  0  0
 24 26  1  0  0  0  0
 25 28  1  6  0  0  0
 25 23  1  0  0  0  0
 26 27  1  1  0  0  0
 27 20  1  0  0  0  0
 28 29  1  0  0  0  0
 29 30  1  0  0  0  0
 30 31  1  6  0  0  0
 30 32  1  0  0  0  0
 32 33  1  0  0  0  0
 33 34  1  0  0  0  0
M  END
>  <MODEL>
7

>  <REMARK>
 VINA RESULT:      -7.0      3.207      6.591
  Name = 
  7 active torsions:
  status: ('A' for Active; 'I' for Inactive)
    1  A    between atoms: C_1  and  N_9
    2  A    between atoms: C_7  and  N_21
    3  A    between atoms: C_7  and  C_29
    4  A    between atoms: C_8  and  N_9
    5  A    between atoms: N_11  and  N_21
    6  A    between atoms: O_26  and  C_28
    7  A    between atoms: O_26  and  C_29
                            x       y       z     vdW  Elec       q    Type
                         _______ _______ _______ _____ _____    ______ ____

>  <TORSDO>
F 7

$$$$
=
 OpenBabel10262423183D

 34 38  0  0  1  0  0  0  0  0999 V2000
  185.9960  179.1400  142.3630 C   0  0  1  0  0  3  0  0  0  0  0  0
  184.6280  179.0020  145.8440 C   0  0  0  0  0  3  0  0  0  0  0  0
  187.8220  177.6510  147.3750 C   0  0  0  0  0  0  0  0  0  0  0  0
  183.5250  178.7940  143.7700 O   0  0  0  0  0  0  0  0  0  0  0  0
  184.7250  178.4760  140.2730 C   0  0  0  0  0  3  0  0  0  0  0  0
  182.3430  178.0530  140.3490 C   0  0  0  0  0  3  0  0  0  0  0  0
  188.7400  176.4780  147.2400 C   0  0  0  0  0  1  0  0  0  0  0  0
  183.5310  178.1550  139.6210 C   0  0  0  0  0  3  0  0  0  0  0  0
  183.5400  178.5850  142.3880 C   0  0  0  0  0  0  0  0  0  0  0  0
  184.7430  178.6760  141.6620 C   0  0  0  0  0  0  0  0  0  0  0  0
  182.3470  178.2730  141.7290 C   0  0  0  0  0  3  0  0  0  0  0  0
  185.8480  179.0210  146.7260 C   0  0  0  0  0  2  0  0  0  0  0  0
  188.1210  178.6280  148.4690 C   0  0  0  0  0  1  0  0  0  0  0  0
  186.7540  177.8090  146.5620 C   0  0  0  0  0  0  0  0  0  0  0  0
  186.4600  176.7790  145.4910 C   0  0  0  0  0  2  0  0  0  0  0  0
  184.7040  178.8810  144.5180 C   0  0  0  0  0  0  0  0  0  0  0  0
  186.6270  177.3160  144.0610 C   0  0  0  0  0  2  0  0  0  0  0  0
  186.0450  178.7250  143.8450 C   0  0  1  0  0  3  0  0  0  0  0  0
  187.2000  178.7150  141.6580 N   0  0  0  0  0  2  0  0  0  0  0  0
  191.6540  177.1090  142.7240 C   0  0  0  0  0  2  0  0  0  0  0  0
  189.4030  177.2610  140.3810 C   0  0  0  0  0  2  0  0  0  0  0  0
  187.9660  177.8790  142.5680 C   0  0  1  0  0  3  0  0  0  0  0  0
  191.8230  177.5480  141.2490 C   0  0  0  0  0  2  0  0  0  0  0  0
  188.9400  177.0010  141.7970 C   0  0  2  0  0  3  0  0  0  0  0  0
  190.8730  176.8110  140.2750 C   0  0  2  0  0  3  0  0  0  0  0  0
  189.4230  178.2630  142.4870 C   0  0  2  0  0  3  0  0  0  0  0  0
  190.4520  177.7410  143.4700 C   0  0  0  0  0  2  0  0  0  0  0  0
  191.3100  177.0100  138.9640 O   0  0  0  0  0  0  0  0  0  0  0  0
  192.6860  176.7530  138.9900 C   0  0  0  0  0  2  0  0  0  0  0  0
  193.1200  175.9780  137.7510 C   0  0  2  0  0  3  0  0  0  0  0  0
  192.2240  174.7750  137.5210 C   0  0  0  0  0  1  0  0  0  0  0  0
  194.5010  175.5510  137.8850 N   0  0  0  0  0  2  0  0  0  0  0  0
  195.0780  175.6370  136.6130 N   0  0  0  0  0  2  0  0  0  0  0  0
  194.6960  176.8270  136.0930 O   0  0  0  0  0  1  0  0  0  0  0  0
  1 19  1  6  0  0  0
  1 18  1  0  0  0  0
  2 12  1  0  0  0  0
  3 13  1  0  0  0  0
  4 16  1  0  0  0  0
  5 10  1  0  0  0  0
  6 11  2  0  0  0  0
  7  3  1  0  0  0  0
  8  5  2  0  0  0  0
  8  6  1  0  0  0  0
  9  4  1  0  0  0  0
 10  1  1  0  0  0  0
 10  9  2  0  0  0  0
 11  9  1  0  0  0  0
 14 12  1  0  0  0  0
 14  3  2  0  0  0  0
 15 14  1  0  0  0  0
 16  2  2  0  0  0  0
 17 15  1  0  0  0  0
 18 17  1  6  0  0  0
 18 16  1  0  0  0  0
 20 27  1  0  0  0  0
 22 19  1  6  0  0  0
 23 20  1  0  0  0  0
 24 21  1  6  0  0  0
 24 26  1  0  0  0  0
 24 22  1  0  0  0  0
 25 28  1  6  0  0  0
 25 21  1  0  0  0  0
 25 23  1  0  0  0  0
 26 22  1  0  0  0  0
 26 27  1  1  0  0  0
 28 29  1  0  0  0  0
 30 31  1  1  0  0  0
 30 32  1  0  0  0  0
 30 29  1  0  0  0  0
 33 32  1  0  0  0  0
 34 33  1  0  0  0  0
M  END
>  <MODEL>
8

>  <REMARK>
 VINA RESULT:      -7.0      3.048      4.149
  Name = 
  7 active torsions:
  status: ('A' for Active; 'I' for Inactive)
    1  A    between atoms: C_1  and  N_9
    2  A    between atoms: C_7  and  N_21
    3  A    between atoms: C_7  and  C_29
    4  A    between atoms: C_8  and  N_9
    5  A    between atoms: N_11  and  N_21
    6  A    between atoms: O_26  and  C_28
    7  A    between atoms: O_26  and  C_29
                            x       y       z     vdW  Elec       q    Type
                         _______ _______ _______ _____ _____    ______ ____

>  <TORSDO>
F 7

$$$$
=
 OpenBabel10262423183D

 34 38  0  0  1  0  0  0  0  0999 V2000
  182.5350  178.6430  139.0100 C   0  0  1  0  0  3  0  0  0  0  0  0
  183.0070  176.3900  136.0600 C   0  0  0  0  0  3  0  0  0  0  0  0
  186.4280  175.1720  137.1480 C   0  0  0  0  0  0  0  0  0  0  0  0
  181.7820  178.3950  136.2580 O   0  0  0  0  0  0  0  0  0  0  0  0
  181.5310  180.9690  138.9190 C   0  0  0  0  0  3  0  0  0  0  0  0
  180.4310  181.7700  136.9180 C   0  0  0  0  0  3  0  0  0  0  0  0
  187.7790  175.7220  137.4750 C   0  0  0  0  0  1  0  0  0  0  0  0
  180.8220  181.9670  138.2440 C   0  0  0  0  0  3  0  0  0  0  0  0
  181.4670  179.5790  136.9310 C   0  0  0  0  0  0  0  0  0  0  0  0
  181.8750  179.7760  138.2640 C   0  0  0  0  0  0  0  0  0  0  0  0
  180.7490  180.5760  136.2650 C   0  0  0  0  0  3  0  0  0  0  0  0
  184.0300  175.3840  136.5170 C   0  0  0  0  0  2  0  0  0  0  0  0
  186.2780  173.6830  137.1570 C   0  0  0  0  0  1  0  0  0  0  0  0
  185.3920  175.9820  136.8350 C   0  0  0  0  0  0  0  0  0  0  0  0
  185.5910  177.4840  136.8000 C   0  0  0  0  0  2  0  0  0  0  0  0
  182.6840  177.4640  136.7820 C   0  0  0  0  0  0  0  0  0  0  0  0
  184.8130  178.2320  137.8940 C   0  0  0  0  0  2  0  0  0  0  0  0
  183.3730  177.7280  138.0980 C   0  0  1  0  0  3  0  0  0  0  0  0
  183.3230  179.1250  140.1390 N   0  0  0  0  0  2  0  0  0  0  0  0
  183.8620  178.6990  144.9440 C   0  0  0  0  0  2  0  0  0  0  0  0
  185.2670  178.0890  142.0750 C   0  0  0  0  0  2  0  0  0  0  0  0
  182.7260  178.5860  141.3500 C   0  0  1  0  0  3  0  0  0  0  0  0
  185.3090  179.0100  144.4920 C   0  0  0  0  0  2  0  0  0  0  0  0
  183.7750  177.8780  142.1950 C   0  0  2  0  0  3  0  0  0  0  0  0
  185.8750  177.9780  143.4860 C   0  0  2  0  0  3  0  0  0  0  0  0
  183.3200  179.2820  142.5490 C   0  0  2  0  0  3  0  0  0  0  0  0
  182.7520  179.1130  143.9450 C   0  0  0  0  0  2  0  0  0  0  0  0
  187.2590  178.1350  143.3930 O   0  0  0  0  0  0  0  0  0  0  0  0
  187.5320  178.1900  142.0200 C   0  0  0  0  0  2  0  0  0  0  0  0
  188.8020  177.4160  141.6860 C   0  0  2  0  0  3  0  0  0  0  0  0
  189.9610  177.8710  142.5540 C   0  0  0  0  0  1  0  0  0  0  0  0
  189.1370  177.5840  140.2830 N   0  0  0  0  0  2  0  0  0  0  0  0
  188.3570  178.6430  139.8030 N   0  0  0  0  0  2  0  0  0  0  0  0
  188.9760  179.1060  138.6910 O   0  0  0  0  0  1  0  0  0  0  0  0
  1 19  1  1  0  0  0
  2 12  1  0  0  0  0
  2 16  2  0  0  0  0
  3 13  1  0  0  0  0
  3  7  1  0  0  0  0
  4 16  1  0  0  0  0
  4  9  1  0  0  0  0
  6  8  1  0  0  0  0
  8  5  2  0  0  0  0
  9 10  2  0  0  0  0
 10  5  1  0  0  0  0
 10  1  1  0  0  0  0
 11  6  2  0  0  0  0
 11  9  1  0  0  0  0
 12 14  1  0  0  0  0
 14  3  2  0  0  0  0
 15 14  1  0  0  0  0
 15 17  1  0  0  0  0
 16 18  1  0  0  0  0
 18 17  1  6  0  0  0
 18  1  1  0  0  0  0
 21 25  1  0  0  0  0
 22 19  1  6  0  0  0
 22 24  1  0  0  0  0
 22 26  1  0  0  0  0
 23 20  1  0  0  0  0
 24 21  1  6  0  0  0
 24 26  1  0  0  0  0
 25 28  1  6  0  0  0
 25 23  1  0  0  0  0
 26 27  1  1  0  0  0
 27 20  1  0  0  0  0
 29 28  1  0  0  0  0
 30 29  1  0  0  0  0
 30 31  1  1  0  0  0
 32 30  1  0  0  0  0
 33 32  1  0  0  0  0
 34 33  1  0  0  0  0
M  END
>  <MODEL>
9

>  <REMARK>
 VINA RESULT:      -6.9      4.007      7.562
  Name = 
  7 active torsions:
  status: ('A' for Active; 'I' for Inactive)
    1  A    between atoms: C_1  and  N_9
    2  A    between atoms: C_7  and  N_21
    3  A    between atoms: C_7  and  C_29
    4  A    between atoms: C_8  and  N_9
    5  A    between atoms: N_11  and  N_21
    6  A    between atoms: O_26  and  C_28
    7  A    between atoms: O_26  and  C_29
                            x       y       z     vdW  Elec       q    Type
                         _______ _______ _______ _____ _____    ______ ____

>  <TORSDO>
F 7

$$$$
