=
 OpenBabel10262419243D

 31 35  0  0  1  0  0  0  0  0999 V2000
  183.4640  178.3770  142.3470 C   0  0  0  0  0  0  0  0  0  0  0  0
  187.1150  177.9820  142.9700 C   0  0  0  0  0  0  0  0  0  0  0  0
  187.1270  177.5780  144.4360 C   0  0  2  0  0  3  0  0  0  0  0  0
  186.6570  178.5290  146.6750 C   0  0  0  0  0  3  0  0  0  0  0  0
  185.9670  178.2850  142.3230 C   0  0  0  0  0  0  0  0  0  0  0  0
  183.3560  177.9600  140.6080 S   0  0  0  0  0  0  0  0  0  0  0  0
  186.4030  178.5290  145.3600 C   0  0  0  0  0  3  0  0  0  0  0  0
  188.3360  178.1520  140.7680 N   0  0  0  0  0  0  0  0  0  0  0  0
  182.4380  178.7620  142.9650 O   0  0  0  0  0  0  0  0  0  0  0  0
  189.5750  177.1580  144.2020 C   0  0  0  0  0  3  0  0  0  0  0  0
  187.9080  177.5560  148.9780 Cl  0  0  0  0  0  0  0  0  0  0  0  0
  187.1060  178.5570  140.1600 C   0  0  0  0  0  3  0  0  0  0  0  0
  188.3680  177.8550  142.1770 C   0  0  0  0  0  0  0  0  0  0  0  0
  184.7160  178.2890  143.0270 N   0  0  0  0  0  2  0  0  0  0  0  0
  187.7350  177.6870  147.2420 C   0  0  0  0  0  0  0  0  0  0  0  0
  185.9780  178.6170  140.8690 C   0  0  0  0  0  0  0  0  0  0  0  0
  184.7270  179.0780  140.1930 C   0  0  0  0  0  2  0  0  0  0  0  0
  189.5000  177.4420  142.7620 C   0  0  0  0  0  3  0  0  0  0  0  0
  188.5020  177.2550  144.9850 C   0  0  0  0  0  0  0  0  0  0  0  0
  188.6430  177.1160  146.4410 C   0  0  0  0  0  3  0  0  0  0  0  0
  189.5400  178.1300  139.9440 C   0  0  0  0  0  2  0  0  0  0  0  0
  189.6310  173.4540  136.3820 C   0  0  1  0  0  3  0  0  0  0  0  0
  188.6830  176.6790  138.0660 N   0  0  0  0  0  2  0  0  0  0  0  0
  187.5180  174.2060  135.3720 C   0  0  0  0  0  2  0  0  0  0  0  0
  190.4680  176.0030  139.4300 O   0  0  0  0  0  0  0  0  0  0  0  0
  191.0130  173.0870  136.1330 N   0  0  0  0  0  1  0  0  0  0  0  0
  189.5980  176.8700  139.1510 C   0  0  0  0  0  0  0  0  0  0  0  0
  189.5840  174.6440  137.2360 N   0  0  0  0  0  0  0  0  0  0  0  0
  187.6230  175.5540  136.0780 C   0  0  0  0  0  2  0  0  0  0  0  0
  188.6560  175.5580  137.1750 C   0  0  0  0  0  0  0  0  0  0  0  0
  188.9090  173.6820  135.0620 C   0  0  0  0  0  2  0  0  0  0  0  0
  1  9  2  0  0  0  0
  1 14  1  0  0  0  0
  2  3  1  0  0  0  0
  3 19  1  0  0  0  0
  3  7  1  1  0  0  0
  4 15  1  0  0  0  0
  5  2  2  0  0  0  0
  5 14  1  0  0  0  0
  6  1  1  0  0  0  0
  7  4  2  0  0  0  0
  8 13  1  0  0  0  0
 10 19  2  0  0  0  0
 12  8  1  0  0  0  0
 12 16  2  0  0  0  0
 13 18  2  0  0  0  0
 13  2  1  0  0  0  0
 15 11  1  0  0  0  0
 16  5  1  0  0  0  0
 17  6  1  0  0  0  0
 17 16  1  0  0  0  0
 18 10  1  0  0  0  0
 19 20  1  0  0  0  0
 20 15  2  0  0  0  0
 21  8  1  0  0  0  0
 22 26  1  6  0  0  0
 22 28  1  0  0  0  0
 23 27  1  0  0  0  0
 24 29  1  0  0  0  0
 27 25  2  0  0  0  0
 27 21  1  0  0  0  0
 29 30  1  0  0  0  0
 30 28  2  0  0  0  0
 30 23  1  0  0  0  0
 31 24  1  0  0  0  0
 31 22  1  0  0  0  0
M  END
>  <MODEL>
1

>  <REMARK>
 VINA RESULT:      -9.9      0.000      0.000
  Name = 
  2 active torsions:
  status: ('A' for Active; 'I' for Inactive)
    1  A    between atoms: C_9  and  C_23
    2  A    between atoms: N_15  and  C_23
                            x       y       z     vdW  Elec       q    Type
                         _______ _______ _______ _____ _____    ______ ____

>  <TORSDO>
F 2

$$$$
=
 OpenBabel10262419243D

 31 35  0  0  1  0  0  0  0  0999 V2000
  185.2610  178.2700  144.4030 C   0  0  0  0  0  0  0  0  0  0  0  0
  188.6680  177.6040  143.0540 C   0  0  0  0  0  0  0  0  0  0  0  0
  189.3410  176.9460  144.2490 C   0  0  2  0  0  3  0  0  0  0  0  0
  190.1460  177.5050  146.5240 C   0  0  0  0  0  3  0  0  0  0  0  0
  187.4010  178.0690  143.1160 C   0  0  0  0  0  0  0  0  0  0  0  0
  184.2680  178.1740  142.9150 S   0  0  0  0  0  0  0  0  0  0  0  0
  189.2870  177.7500  145.5270 C   0  0  0  0  0  3  0  0  0  0  0  0
  188.6730  178.1060  140.5800 N   0  0  0  0  0  0  0  0  0  0  0  0
  184.7250  178.5860  145.4970 O   0  0  0  0  0  0  0  0  0  0  0  0
  191.2880  176.4630  142.7670 C   0  0  0  0  0  3  0  0  0  0  0  0
  192.2240  176.0820  147.7390 Cl  0  0  0  0  0  0  0  0  0  0  0  0
  187.3670  178.6690  140.7310 C   0  0  0  0  0  3  0  0  0  0  0  0
  189.3490  177.5630  141.7310 C   0  0  0  0  0  0  0  0  0  0  0  0
  186.6630  178.0050  144.3450 N   0  0  0  0  0  2  0  0  0  0  0  0
  191.2460  176.5270  146.3580 C   0  0  0  0  0  0  0  0  0  0  0  0
  186.7450  178.6540  141.9100 C   0  0  0  0  0  0  0  0  0  0  0  0
  185.3940  179.2850  142.0200 C   0  0  0  0  0  2  0  0  0  0  0  0
  190.5590  177.0010  141.6100 C   0  0  0  0  0  3  0  0  0  0  0  0
  190.7550  176.4690  143.9870 C   0  0  0  0  0  0  0  0  0  0  0  0
  191.5670  176.0660  145.1430 C   0  0  0  0  0  3  0  0  0  0  0  0
  189.3100  178.1760  139.2700 C   0  0  0  0  0  2  0  0  0  0  0  0
  185.3300  176.2620  135.3890 C   0  0  1  0  0  3  0  0  0  0  0  0
  188.0570  176.4100  137.9750 N   0  0  0  0  0  2  0  0  0  0  0  0
  186.1080  173.9570  135.7570 C   0  0  0  0  0  2  0  0  0  0  0  0
  187.7620  178.6980  137.5430 O   0  0  0  0  0  0  0  0  0  0  0  0
  184.1890  177.1580  135.4140 N   0  0  0  0  0  1  0  0  0  0  0  0
  188.3400  177.7950  138.2060 C   0  0  0  0  0  0  0  0  0  0  0  0
  186.3190  176.6960  136.3800 N   0  0  0  0  0  0  0  0  0  0  0  0
  186.9390  174.3950  136.9590 C   0  0  0  0  0  2  0  0  0  0  0  0
  187.1050  175.8910  137.0380 C   0  0  0  0  0  0  0  0  0  0  0  0
  184.8730  174.8330  135.6440 C   0  0  0  0  0  2  0  0  0  0  0  0
  1  9  2  0  0  0  0
  2  5  2  0  0  0  0
  2  3  1  0  0  0  0
  3  7  1  1  0  0  0
  5 14  1  0  0  0  0
  6  1  1  0  0  0  0
  7  4  2  0  0  0  0
  8 12  1  0  0  0  0
  8 13  1  0  0  0  0
 10 19  2  0  0  0  0
 12 16  2  0  0  0  0
 13  2  1  0  0  0  0
 14  1  1  0  0  0  0
 15  4  1  0  0  0  0
 15 11  1  0  0  0  0
 16 17  1  0  0  0  0
 16  5  1  0  0  0  0
 17  6  1  0  0  0  0
 18 13  2  0  0  0  0
 18 10  1  0  0  0  0
 19  3  1  0  0  0  0
 19 20  1  0  0  0  0
 20 15  2  0  0  0  0
 21  8  1  0  0  0  0
 22 26  1  1  0  0  0
 22 31  1  0  0  0  0
 22 28  1  0  0  0  0
 23 27  1  0  0  0  0
 24 29  1  0  0  0  0
 25 27  2  0  0  0  0
 27 21  1  0  0  0  0
 28 30  2  0  0  0  0
 29 30  1  0  0  0  0
 30 23  1  0  0  0  0
 31 24  1  0  0  0  0
M  END
>  <MODEL>
2

>  <REMARK>
 VINA RESULT:      -9.8      2.248      3.050
  Name = 
  2 active torsions:
  status: ('A' for Active; 'I' for Inactive)
    1  A    between atoms: C_9  and  C_23
    2  A    between atoms: N_15  and  C_23
                            x       y       z     vdW  Elec       q    Type
                         _______ _______ _______ _____ _____    ______ ____

>  <TORSDO>
F 2

$$$$
=
 OpenBabel10262419243D

 31 35  0  0  1  0  0  0  0  0999 V2000
  185.2820  178.3310  144.3440 C   0  0  0  0  0  0  0  0  0  0  0  0
  188.6780  177.5780  143.0100 C   0  0  0  0  0  0  0  0  0  0  0  0
  189.3320  176.9170  144.2130 C   0  0  2  0  0  3  0  0  0  0  0  0
  190.1450  177.4800  146.4850 C   0  0  0  0  0  3  0  0  0  0  0  0
  187.4200  178.0710  143.0640 C   0  0  0  0  0  0  0  0  0  0  0  0
  184.2910  178.2420  142.8540 S   0  0  0  0  0  0  0  0  0  0  0  0
  189.2930  177.7340  145.4830 C   0  0  0  0  0  3  0  0  0  0  0  0
  188.7000  178.0560  140.5320 N   0  0  0  0  0  0  0  0  0  0  0  0
  184.7500  178.6680  145.4330 O   0  0  0  0  0  0  0  0  0  0  0  0
  191.2730  176.3780  142.7410 C   0  0  0  0  0  3  0  0  0  0  0  0
  192.1870  176.0240  147.7180 Cl  0  0  0  0  0  0  0  0  0  0  0  0
  187.4050  178.6480  140.6730 C   0  0  0  0  0  3  0  0  0  0  0  0
  189.3610  177.5100  141.6890 C   0  0  0  0  0  0  0  0  0  0  0  0
  186.6780  178.0350  144.2920 N   0  0  0  0  0  2  0  0  0  0  0  0
  191.2240  176.4770  146.3310 C   0  0  0  0  0  0  0  0  0  0  0  0
  186.7810  178.6580  141.8510 C   0  0  0  0  0  0  0  0  0  0  0  0
  185.4430  179.3190  141.9510 C   0  0  0  0  0  2  0  0  0  0  0  0
  190.5590  176.9200  141.5770 C   0  0  0  0  0  3  0  0  0  0  0  0
  190.7360  176.4060  143.9590 C   0  0  0  0  0  0  0  0  0  0  0  0
  191.5380  175.9980  145.1220 C   0  0  0  0  0  3  0  0  0  0  0  0
  189.3410  178.1000  139.2220 C   0  0  0  0  0  2  0  0  0  0  0  0
  187.3900  173.5960  135.9870 C   0  0  1  0  0  3  0  0  0  0  0  0
  189.5880  175.9450  137.9340 N   0  0  0  0  0  2  0  0  0  0  0  0
  189.6970  172.7660  135.7840 C   0  0  0  0  0  2  0  0  0  0  0  0
  187.5660  177.1340  137.9720 O   0  0  0  0  0  0  0  0  0  0  0  0
  186.0360  173.2780  136.4030 N   0  0  0  0  0  1  0  0  0  0  0  0
  188.7690  177.0490  138.3350 C   0  0  0  0  0  0  0  0  0  0  0  0
  187.9130  174.6900  136.8090 N   0  0  0  0  0  0  0  0  0  0  0  0
  190.1790  173.7530  136.8430 C   0  0  0  0  0  2  0  0  0  0  0  0
  189.1660  174.8280  137.1410 C   0  0  0  0  0  0  0  0  0  0  0  0
  188.2660  172.3550  136.0820 C   0  0  0  0  0  2  0  0  0  0  0  0
  1  9  2  0  0  0  0
  2  5  2  0  0  0  0
  2  3  1  0  0  0  0
  3  7  1  1  0  0  0
  5 14  1  0  0  0  0
  6  1  1  0  0  0  0
  7  4  2  0  0  0  0
  8 12  1  0  0  0  0
  8 13  1  0  0  0  0
 10 19  2  0  0  0  0
 12 16  2  0  0  0  0
 13  2  1  0  0  0  0
 14  1  1  0  0  0  0
 15  4  1  0  0  0  0
 15 11  1  0  0  0  0
 16 17  1  0  0  0  0
 16  5  1  0  0  0  0
 17  6  1  0  0  0  0
 18 13  2  0  0  0  0
 18 10  1  0  0  0  0
 19  3  1  0  0  0  0
 19 20  1  0  0  0  0
 20 15  2  0  0  0  0
 21  8  1  0  0  0  0
 22 31  1  0  0  0  0
 22 26  1  1  0  0  0
 22 28  1  0  0  0  0
 23 27  1  0  0  0  0
 24 31  1  0  0  0  0
 24 29  1  0  0  0  0
 25 27  2  0  0  0  0
 27 21  1  0  0  0  0
 28 30  2  0  0  0  0
 29 30  1  0  0  0  0
 30 23  1  0  0  0  0
M  END
>  <MODEL>
3

>  <REMARK>
 VINA RESULT:      -9.6      1.950      2.560
  Name = 
  2 active torsions:
  status: ('A' for Active; 'I' for Inactive)
    1  A    between atoms: C_9  and  C_23
    2  A    between atoms: N_15  and  C_23
                            x       y       z     vdW  Elec       q    Type
                         _______ _______ _______ _____ _____    ______ ____

>  <TORSDO>
F 2

$$$$
=
 OpenBabel10262419243D

 31 35  0  0  1  0  0  0  0  0999 V2000
  189.1830  178.2200  139.4070 C   0  0  0  0  0  0  0  0  0  0  0  0
  186.0240  178.3910  141.3730 C   0  0  0  0  0  0  0  0  0  0  0  0
  186.5600  178.4720  142.7940 C   0  0  2  0  0  3  0  0  0  0  0  0
  187.7440  177.0750  144.4630 C   0  0  0  0  0  3  0  0  0  0  0  0
  186.8460  178.2590  140.3080 C   0  0  0  0  0  0  0  0  0  0  0  0
  188.6860  179.0020  137.8730 S   0  0  0  0  0  0  0  0  0  0  0  0
  187.5110  177.3610  143.1760 C   0  0  0  0  0  3  0  0  0  0  0  0
  184.0890  178.6680  139.7770 N   0  0  0  0  0  0  0  0  0  0  0  0
  190.3380  177.7360  139.5190 O   0  0  0  0  0  0  0  0  0  0  0  0
  184.2180  178.8760  143.5520 C   0  0  0  0  0  3  0  0  0  0  0  0
  187.4550  177.5050  147.2100 Cl  0  0  0  0  0  0  0  0  0  0  0  0
  184.9960  178.4300  138.6960 C   0  0  0  0  0  3  0  0  0  0  0  0
  184.5790  178.6560  141.1310 C   0  0  0  0  0  0  0  0  0  0  0  0
  188.2630  178.1330  140.4950 N   0  0  0  0  0  2  0  0  0  0  0  0
  186.9890  177.7510  145.5430 C   0  0  0  0  0  0  0  0  0  0  0  0
  186.2970  178.2450  138.9210 C   0  0  0  0  0  0  0  0  0  0  0  0
  187.1960  177.9670  137.7590 C   0  0  0  0  0  2  0  0  0  0  0  0
  183.7570  178.9080  142.1580 C   0  0  0  0  0  3  0  0  0  0  0  0
  185.4920  178.6380  143.8570 C   0  0  0  0  0  0  0  0  0  0  0  0
  185.8890  178.4600  145.2610 C   0  0  0  0  0  3  0  0  0  0  0  0
  182.6740  178.8380  139.4670 C   0  0  0  0  0  2  0  0  0  0  0  0
  181.2970  183.9140  136.8410 C   0  0  1  0  0  3  0  0  0  0  0  0
  181.1820  180.3920  138.1540 N   0  0  0  0  0  2  0  0  0  0  0  0
  179.1980  182.9100  136.0430 C   0  0  0  0  0  2  0  0  0  0  0  0
  183.3820  180.9800  138.7190 O   0  0  0  0  0  0  0  0  0  0  0  0
  181.8930  185.0030  137.5940 N   0  0  0  0  0  1  0  0  0  0  0  0
  182.4540  180.1290  138.7570 C   0  0  0  0  0  0  0  0  0  0  0  0
  181.5920  182.6400  137.5010 N   0  0  0  0  0  0  0  0  0  0  0  0
  179.3990  181.6950  136.9420 C   0  0  0  0  0  2  0  0  0  0  0  0
  180.7980  181.6060  137.4960 C   0  0  0  0  0  0  0  0  0  0  0  0
  179.7980  184.1390  136.7020 C   0  0  0  0  0  2  0  0  0  0  0  0
  1  9  2  0  0  0  0
  1 14  1  0  0  0  0
  2  3  1  0  0  0  0
  3  7  1  1  0  0  0
  3 19  1  0  0  0  0
  4 15  1  0  0  0  0
  5 14  1  0  0  0  0
  5  2  2  0  0  0  0
  6  1  1  0  0  0  0
  7  4  2  0  0  0  0
  8 13  1  0  0  0  0
 10 19  2  0  0  0  0
 12 16  2  0  0  0  0
 12  8  1  0  0  0  0
 13  2  1  0  0  0  0
 13 18  2  0  0  0  0
 15 11  1  0  0  0  0
 16  5  1  0  0  0  0
 17  6  1  0  0  0  0
 17 16  1  0  0  0  0
 18 10  1  0  0  0  0
 19 20  1  0  0  0  0
 20 15  2  0  0  0  0
 21  8  1  0  0  0  0
 22 28  1  0  0  0  0
 22 26  1  1  0  0  0
 23 27  1  0  0  0  0
 24 31  1  0  0  0  0
 24 29  1  0  0  0  0
 25 27  2  0  0  0  0
 27 21  1  0  0  0  0
 29 30  1  0  0  0  0
 30 28  2  0  0  0  0
 30 23  1  0  0  0  0
 31 22  1  0  0  0  0
M  END
>  <MODEL>
4

>  <REMARK>
 VINA RESULT:      -9.0      4.179      7.388
  Name = 
  2 active torsions:
  status: ('A' for Active; 'I' for Inactive)
    1  A    between atoms: C_9  and  C_23
    2  A    between atoms: N_15  and  C_23
                            x       y       z     vdW  Elec       q    Type
                         _______ _______ _______ _____ _____    ______ ____

>  <TORSDO>
F 2

$$$$
=
 OpenBabel10262419243D

 31 35  0  0  1  0  0  0  0  0999 V2000
  191.1990  177.0390  142.1010 C   0  0  0  0  0  0  0  0  0  0  0  0
  187.7050  177.9860  141.2200 C   0  0  0  0  0  0  0  0  0  0  0  0
  187.1400  178.3470  142.5850 C   0  0  2  0  0  3  0  0  0  0  0  0
  186.5080  177.2740  144.7270 C   0  0  0  0  0  3  0  0  0  0  0  0
  188.9670  177.5240  141.0710 C   0  0  0  0  0  0  0  0  0  0  0  0
  192.0720  177.4810  140.6000 S   0  0  0  0  0  0  0  0  0  0  0  0
  187.2830  177.2690  143.6340 C   0  0  0  0  0  3  0  0  0  0  0  0
  187.4970  178.0690  138.7070 N   0  0  0  0  0  0  0  0  0  0  0  0
  191.8150  176.4820  143.0450 O   0  0  0  0  0  0  0  0  0  0  0  0
  185.0880  179.1520  141.4160 C   0  0  0  0  0  3  0  0  0  0  0  0
  184.5550  178.3690  146.4010 Cl  0  0  0  0  0  0  0  0  0  0  0  0
  188.8030  177.4930  138.6170 C   0  0  0  0  0  3  0  0  0  0  0  0
  186.9230  178.3290  140.0020 C   0  0  0  0  0  0  0  0  0  0  0  0
  189.8010  177.3050  142.2180 N   0  0  0  0  0  2  0  0  0  0  0  0
  185.4130  178.2590  144.8810 C   0  0  0  0  0  0  0  0  0  0  0  0
  189.5160  177.2370  139.7150 C   0  0  0  0  0  0  0  0  0  0  0  0
  190.8630  176.6030  139.5660 C   0  0  0  0  0  2  0  0  0  0  0  0
  185.7150  178.8990  140.1120 C   0  0  0  0  0  3  0  0  0  0  0  0
  185.7160  178.8660  142.5550 C   0  0  0  0  0  0  0  0  0  0  0  0
  185.0040  178.9870  143.8350 C   0  0  0  0  0  3  0  0  0  0  0  0
  186.7570  178.3020  137.4710 C   0  0  0  0  0  2  0  0  0  0  0  0
  183.4370  173.5050  136.7390 C   0  0  1  0  0  3  0  0  0  0  0  0
  186.3630  175.8270  137.1750 N   0  0  0  0  0  2  0  0  0  0  0  0
  185.4780  172.1440  136.5530 C   0  0  0  0  0  2  0  0  0  0  0  0
  184.6130  177.3820  137.0200 O   0  0  0  0  0  0  0  0  0  0  0  0
  182.1850  173.6950  137.4490 N   0  0  0  0  0  1  0  0  0  0  0  0
  185.8400  177.1600  137.1990 C   0  0  0  0  0  0  0  0  0  0  0  0
  184.2990  174.6730  136.9420 N   0  0  0  0  0  0  0  0  0  0  0  0
  186.3390  173.3140  137.0190 C   0  0  0  0  0  2  0  0  0  0  0  0
  185.6010  174.6280  136.9930 C   0  0  0  0  0  0  0  0  0  0  0  0
  184.1110  172.2230  137.2080 C   0  0  0  0  0  2  0  0  0  0  0  0
  1 14  1  0  0  0  0
  1  9  2  0  0  0  0
  2  3  1  0  0  0  0
  3  7  1  1  0  0  0
  4 15  1  0  0  0  0
  5  2  2  0  0  0  0
  5 14  1  0  0  0  0
  6  1  1  0  0  0  0
  7  4  2  0  0  0  0
  8 13  1  0  0  0  0
 10 19  2  0  0  0  0
 12  8  1  0  0  0  0
 12 16  2  0  0  0  0
 13 18  2  0  0  0  0
 13  2  1  0  0  0  0
 15 11  1  0  0  0  0
 16  5  1  0  0  0  0
 17 16  1  0  0  0  0
 17  6  1  0  0  0  0
 18 10  1  0  0  0  0
 19  3  1  0  0  0  0
 19 20  1  0  0  0  0
 20 15  2  0  0  0  0
 21  8  1  0  0  0  0
 22 28  1  0  0  0  0
 22 31  1  0  0  0  0
 22 26  1  1  0  0  0
 23 27  1  0  0  0  0
 24 29  1  0  0  0  0
 24 31  1  0  0  0  0
 25 27  2  0  0  0  0
 27 21  1  0  0  0  0
 28 30  2  0  0  0  0
 30 29  1  0  0  0  0
 30 23  1  0  0  0  0
M  END
>  <MODEL>
5

>  <REMARK>
 VINA RESULT:      -8.9      3.291      5.002
  Name = 
  2 active torsions:
  status: ('A' for Active; 'I' for Inactive)
    1  A    between atoms: C_9  and  C_23
    2  A    between atoms: N_15  and  C_23
                            x       y       z     vdW  Elec       q    Type
                         _______ _______ _______ _____ _____    ______ ____

>  <TORSDO>
F 2

$$$$
=
 OpenBabel10262419243D

 31 35  0  0  1  0  0  0  0  0999 V2000
  190.0130  178.2530  144.5620 C   0  0  0  0  0  0  0  0  0  0  0  0
  188.1150  178.1020  141.3610 C   0  0  0  0  0  0  0  0  0  0  0  0
  186.7540  178.6230  141.7950 C   0  0  0  0  0  0  0  0  0  0  0  0
  184.8180  177.9580  143.1910 C   0  0  0  0  0  3  0  0  0  0  0  0
  189.1270  177.9350  142.2400 C   0  0  0  0  0  0  0  0  0  0  0  0
  191.6810  178.5300  143.9690 S   0  0  0  0  0  0  0  0  0  0  0  0
  186.1350  177.8860  142.9590 C   0  0  0  0  0  3  0  0  0  0  0  0
  189.7180  177.5460  139.4930 N   0  0  0  0  0  0  0  0  0  0  0  0
  189.8020  178.0950  145.7920 O   0  0  0  0  0  0  0  0  0  0  0  0
  186.0910  178.6180  139.3890 C   0  0  0  0  0  3  0  0  0  0  0  0
  182.2400  178.9100  142.6800 Cl  0  0  0  0  0  0  0  0  0  0  0  0
  190.7220  177.2960  140.4800 C   0  0  0  0  0  3  0  0  0  0  0  0
  188.4010  177.9540  139.9070 C   0  0  0  0  0  0  0  0  0  0  0  0
  188.9270  178.1950  143.6370 N   0  0  0  0  0  2  0  0  0  0  0  0
  183.9160  178.6590  142.2490 C   0  0  0  0  0  0  0  0  0  0  0  0
  190.4700  177.4800  141.7760 C   0  0  0  0  0  0  0  0  0  0  0  0
  191.5450  177.1720  142.7690 C   0  0  0  0  0  2  0  0  0  0  0  0
  187.4530  178.2270  139.0000 C   0  0  0  0  0  3  0  0  0  0  0  0
  185.7500  178.7640  140.6680 C   0  0  0  0  0  0  0  0  0  0  0  0
  184.3450  179.0040  141.0290 C   0  0  0  0  0  2  0  0  0  0  0  0
  190.0480  177.3010  138.0930 C   0  0  0  0  0  2  0  0  0  0  0  0
  194.7490  173.8000  137.6420 C   0  0  1  0  0  3  0  0  0  0  0  0
  192.2700  176.5830  137.1390 N   0  0  0  0  0  2  0  0  0  0  0  0
  195.5650  175.1690  135.7680 C   0  0  0  0  0  2  0  0  0  0  0  0
  191.1020  175.2530  138.6780 O   0  0  0  0  0  0  0  0  0  0  0  0
  195.0560  173.2630  138.9550 N   0  0  0  0  0  1  0  0  0  0  0  0
  191.1530  176.3070  137.9920 C   0  0  0  0  0  0  0  0  0  0  0  0
  193.6040  174.7090  137.7360 N   0  0  0  0  0  0  0  0  0  0  0  0
  194.5150  176.2390  136.0500 C   0  0  0  0  0  2  0  0  0  0  0  0
  193.4340  175.7620  136.9860 C   0  0  0  0  0  0  0  0  0  0  0  0
  195.9740  174.4980  137.0670 C   0  0  0  0  0  2  0  0  0  0  0  0
  1  9  2  0  0  0  0
  2  3  1  0  0  0  0
  2  5  2  0  0  0  0
  3  7  2  0  0  0  0
  5 14  1  0  0  0  0
  6  1  1  0  0  0  0
  7  4  1  0  0  0  0
  8 13  1  0  0  0  0
  8 12  1  0  0  0  0
 10 19  2  0  0  0  0
 12 16  2  0  0  0  0
 13  2  1  0  0  0  0
 14  1  1  0  0  0  0
 15 11  1  0  0  0  0
 15  4  2  0  0  0  0
 16  5  1  0  0  0  0
 16 17  1  0  0  0  0
 17  6  1  0  0  0  0
 18 10  1  0  0  0  0
 18 13  2  0  0  0  0
 19 20  1  0  0  0  0
 19  3  1  0  0  0  0
 20 15  1  0  0  0  0
 21  8  1  0  0  0  0
 22 28  1  0  0  0  0
 22 26  1  1  0  0  0
 23 27  1  0  0  0  0
 24 29  1  0  0  0  0
 24 31  1  0  0  0  0
 27 21  1  0  0  0  0
 27 25  2  0  0  0  0
 29 30  1  0  0  0  0
 30 23  1  0  0  0  0
 30 28  2  0  0  0  0
 31 22  1  0  0  0  0
M  END
>  <MODEL>
6

>  <REMARK>
 VINA RESULT:      -8.9      3.801      5.359
  Name = 
  2 active torsions:
  status: ('A' for Active; 'I' for Inactive)
    1  A    between atoms: C_9  and  C_23
    2  A    between atoms: N_15  and  C_23
                            x       y       z     vdW  Elec       q    Type
                         _______ _______ _______ _____ _____    ______ ____

>  <TORSDO>
F 2

$$$$
=
 OpenBabel10262419243D

 31 35  0  0  1  0  0  0  0  0999 V2000
  190.4340  177.6680  140.8770 C   0  0  0  0  0  0  0  0  0  0  0  0
  188.7940  177.5360  144.2190 C   0  0  0  0  0  0  0  0  0  0  0  0
  189.9980  177.4080  145.1390 C   0  0  2  0  0  3  0  0  0  0  0  0
  191.7710  175.7840  145.7370 C   0  0  0  0  0  3  0  0  0  0  0  0
  188.9240  177.5650  142.8740 C   0  0  0  0  0  0  0  0  0  0  0  0
  189.2680  178.6660  139.9520 S   0  0  0  0  0  0  0  0  0  0  0  0
  190.9210  176.2570  144.8160 C   0  0  0  0  0  3  0  0  0  0  0  0
  186.3360  178.0390  143.9360 N   0  0  0  0  0  0  0  0  0  0  0  0
  191.4370  177.1770  140.2990 O   0  0  0  0  0  0  0  0  0  0  0  0
  188.4360  177.6880  147.0640 C   0  0  0  0  0  3  0  0  0  0  0  0
  192.9960  175.8040  148.2500 Cl  0  0  0  0  0  0  0  0  0  0  0  0
  186.5230  177.9660  142.5200 C   0  0  0  0  0  3  0  0  0  0  0  0
  187.4600  177.8290  144.8130 C   0  0  0  0  0  0  0  0  0  0  0  0
  190.2160  177.4180  142.2660 N   0  0  0  0  0  2  0  0  0  0  0  0
  191.7460  176.2920  147.1280 C   0  0  0  0  0  0  0  0  0  0  0  0
  187.7320  177.7540  141.9980 C   0  0  0  0  0  0  0  0  0  0  0  0
  187.8660  177.6540  140.5120 C   0  0  0  0  0  2  0  0  0  0  0  0
  187.3180  177.9240  146.1410 C   0  0  0  0  0  3  0  0  0  0  0  0
  189.6600  177.4130  146.6160 C   0  0  0  0  0  0  0  0  0  0  0  0
  190.7180  177.0300  147.5620 C   0  0  0  0  0  3  0  0  0  0  0  0
  184.9860  178.2470  144.4470 C   0  0  0  0  0  2  0  0  0  0  0  0
  181.3020  179.4420  140.0230 C   0  0  1  0  0  3  0  0  0  0  0  0
  183.9400  177.8560  142.1840 N   0  0  0  0  0  2  0  0  0  0  0  0
  182.2900  177.5980  138.7280 C   0  0  0  0  0  2  0  0  0  0  0  0
  183.4360  179.7570  143.4630 O   0  0  0  0  0  0  0  0  0  0  0  0
  180.0800  179.9970  140.5740 N   0  0  0  0  0  1  0  0  0  0  0  0
  184.0820  178.6830  143.3450 C   0  0  0  0  0  0  0  0  0  0  0  0
  182.2210  179.0970  141.1110 N   0  0  0  0  0  0  0  0  0  0  0  0
  183.0460  177.0980  139.9550 C   0  0  0  0  0  2  0  0  0  0  0  0
  183.0650  178.1050  141.0770 C   0  0  0  0  0  0  0  0  0  0  0  0
  180.9790  178.2320  139.1580 C   0  0  0  0  0  2  0  0  0  0  0  0
  1 14  1  0  0  0  0
  2 13  1  0  0  0  0
  2  3  1  0  0  0  0
  3  7  1  6  0  0  0
  3 19  1  0  0  0  0
  4 15  1  0  0  0  0
  5  2  2  0  0  0  0
  6 17  1  0  0  0  0
  6  1  1  0  0  0  0
  7  4  2  0  0  0  0
  8 21  1  0  0  0  0
  8 13  1  0  0  0  0
  9  1  2  0  0  0  0
 12  8  1  0  0  0  0
 13 18  2  0  0  0  0
 14  5  1  0  0  0  0
 15 20  2  0  0  0  0
 15 11  1  0  0  0  0
 16 12  2  0  0  0  0
 16  5  1  0  0  0  0
 17 16  1  0  0  0  0
 18 10  1  0  0  0  0
 19 10  2  0  0  0  0
 19 20  1  0  0  0  0
 22 26  1  1  0  0  0
 22 28  1  0  0  0  0
 23 27  1  0  0  0  0
 24 31  1  0  0  0  0
 24 29  1  0  0  0  0
 27 25  2  0  0  0  0
 27 21  1  0  0  0  0
 29 30  1  0  0  0  0
 30 28  2  0  0  0  0
 30 23  1  0  0  0  0
 31 22  1  0  0  0  0
M  END
>  <MODEL>
7

>  <REMARK>
 VINA RESULT:      -8.7      3.489      6.402
  Name = 
  2 active torsions:
  status: ('A' for Active; 'I' for Inactive)
    1  A    between atoms: C_9  and  C_23
    2  A    between atoms: N_15  and  C_23
                            x       y       z     vdW  Elec       q    Type
                         _______ _______ _______ _____ _____    ______ ____

>  <TORSDO>
F 2

$$$$
=
 OpenBabel10262419243D

 31 35  0  0  1  0  0  0  0  0999 V2000
  184.7230  178.5990  145.8110 C   0  0  0  0  0  0  0  0  0  0  0  0
  187.4770  177.8700  143.4120 C   0  0  0  0  0  0  0  0  0  0  0  0
  188.4570  177.1180  144.3000 C   0  0  2  0  0  3  0  0  0  0  0  0
  189.9770  177.5150  146.2160 C   0  0  0  0  0  3  0  0  0  0  0  0
  186.3240  178.3830  143.8970 C   0  0  0  0  0  0  0  0  0  0  0  0
  183.3020  178.6280  144.7190 S   0  0  0  0  0  0  0  0  0  0  0  0
  188.8600  177.8510  145.5580 C   0  0  0  0  0  3  0  0  0  0  0  0
  186.7210  178.5100  141.0910 N   0  0  0  0  0  0  0  0  0  0  0  0
  184.5830  178.8740  147.0310 O   0  0  0  0  0  0  0  0  0  0  0  0
  189.7980  176.6400  142.2520 C   0  0  0  0  0  3  0  0  0  0  0  0
  192.2490  175.9410  146.6390 Cl  0  0  0  0  0  0  0  0  0  0  0  0
  185.5650  179.1170  141.6760 C   0  0  0  0  0  3  0  0  0  0  0  0
  187.6960  177.8750  141.9400 C   0  0  0  0  0  0  0  0  0  0  0  0
  186.0150  178.2800  145.2950 N   0  0  0  0  0  2  0  0  0  0  0  0
  190.9090  176.5030  145.6660 C   0  0  0  0  0  0  0  0  0  0  0  0
  185.3530  179.0610  142.9910 C   0  0  0  0  0  0  0  0  0  0  0  0
  184.1450  179.7400  143.5550 C   0  0  0  0  0  2  0  0  0  0  0  0
  188.7700  177.2720  141.4140 C   0  0  0  0  0  3  0  0  0  0  0  0
  189.6830  176.5990  143.5780 C   0  0  0  0  0  0  0  0  0  0  0  0
  190.7990  176.0990  144.3950 C   0  0  0  0  0  3  0  0  0  0  0  0
  186.9090  178.6270  139.6490 C   0  0  0  0  0  2  0  0  0  0  0  0
  181.6220  178.2430  137.1070 C   0  0  1  0  0  3  0  0  0  0  0  0
  185.0770  177.4590  138.3670 N   0  0  0  0  0  2  0  0  0  0  0  0
  182.1930  175.9890  136.3040 C   0  0  0  0  0  2  0  0  0  0  0  0
  184.9300  179.7310  138.9300 O   0  0  0  0  0  0  0  0  0  0  0  0
  180.6790  179.0380  137.8740 N   0  0  0  0  0  1  0  0  0  0  0  0
  185.5890  178.6580  138.9590 C   0  0  0  0  0  0  0  0  0  0  0  0
  182.9400  178.2900  137.7460 N   0  0  0  0  0  0  0  0  0  0  0  0
  183.4380  175.9560  137.1840 C   0  0  0  0  0  2  0  0  0  0  0  0
  183.8020  177.3130  137.7300 C   0  0  0  0  0  0  0  0  0  0  0  0
  181.1120  176.8150  136.9790 C   0  0  0  0  0  2  0  0  0  0  0  0
  1  9  2  0  0  0  0
  2  5  2  0  0  0  0
  2  3  1  0  0  0  0
  3  7  1  1  0  0  0
  5 14  1  0  0  0  0
  6  1  1  0  0  0  0
  7  4  2  0  0  0  0
  8 12  1  0  0  0  0
  8 13  1  0  0  0  0
 10 19  2  0  0  0  0
 12 16  2  0  0  0  0
 13  2  1  0  0  0  0
 14  1  1  0  0  0  0
 15  4  1  0  0  0  0
 15 11  1  0  0  0  0
 16 17  1  0  0  0  0
 16  5  1  0  0  0  0
 17  6  1  0  0  0  0
 18 13  2  0  0  0  0
 18 10  1  0  0  0  0
 19  3  1  0  0  0  0
 19 20  1  0  0  0  0
 20 15  2  0  0  0  0
 21  8  1  0  0  0  0
 22 28  1  0  0  0  0
 22 26  1  1  0  0  0
 23 27  1  0  0  0  0
 24 31  1  0  0  0  0
 24 29  1  0  0  0  0
 25 27  2  0  0  0  0
 27 21  1  0  0  0  0
 29 30  1  0  0  0  0
 30 28  2  0  0  0  0
 30 23  1  0  0  0  0
 31 22  1  0  0  0  0
M  END
>  <MODEL>
8

>  <REMARK>
 VINA RESULT:      -8.5      3.583      4.743
  Name = 
  2 active torsions:
  status: ('A' for Active; 'I' for Inactive)
    1  A    between atoms: C_9  and  C_23
    2  A    between atoms: N_15  and  C_23
                            x       y       z     vdW  Elec       q    Type
                         _______ _______ _______ _____ _____    ______ ____

>  <TORSDO>
F 2

$$$$
=
 OpenBabel10262419243D

 31 35  0  0  1  0  0  0  0  0999 V2000
  190.1210  178.0760  144.6640 C   0  0  0  0  0  0  0  0  0  0  0  0
  188.0770  178.0560  141.5510 C   0  0  0  0  0  0  0  0  0  0  0  0
  186.7570  178.6200  142.0550 C   0  0  0  0  0  0  0  0  0  0  0  0
  184.8620  178.0020  143.5270 C   0  0  0  0  0  3  0  0  0  0  0  0
  189.1210  177.8350  142.3800 C   0  0  0  0  0  0  0  0  0  0  0  0
  191.7700  178.3020  144.0010 S   0  0  0  0  0  0  0  0  0  0  0  0
  186.1640  177.8850  143.2340 C   0  0  0  0  0  3  0  0  0  0  0  0
  189.5720  177.4750  139.6020 N   0  0  0  0  0  0  0  0  0  0  0  0
  189.9590  177.9040  145.8990 O   0  0  0  0  0  0  0  0  0  0  0  0
  185.9880  178.6840  139.6830 C   0  0  0  0  0  3  0  0  0  0  0  0
  182.3020  179.0600  143.1490 Cl  0  0  0  0  0  0  0  0  0  0  0  0
  190.6090  177.1690  140.5390 C   0  0  0  0  0  3  0  0  0  0  0  0
  188.2910  177.9250  140.0830 C   0  0  0  0  0  0  0  0  0  0  0  0
  188.9930  178.0760  143.7890 N   0  0  0  0  0  2  0  0  0  0  0  0
  183.9470  178.7540  142.6380 C   0  0  0  0  0  0  0  0  0  0  0  0
  190.4230  177.3390  141.8480 C   0  0  0  0  0  0  0  0  0  0  0  0
  191.5280  176.9720  142.7860 C   0  0  0  0  0  2  0  0  0  0  0  0
  187.3150  178.2500  139.2250 C   0  0  0  0  0  3  0  0  0  0  0  0
  185.7100  178.8200  140.9780 C   0  0  0  0  0  0  0  0  0  0  0  0
  184.3330  179.1050  141.4060 C   0  0  0  0  0  2  0  0  0  0  0  0
  189.8290  177.2440  138.1850 C   0  0  0  0  0  2  0  0  0  0  0  0
  187.8380  172.0380  136.3150 C   0  0  1  0  0  3  0  0  0  0  0  0
  188.0560  175.6350  137.3870 N   0  0  0  0  0  2  0  0  0  0  0  0
  185.5480  172.9370  136.3080 C   0  0  0  0  0  2  0  0  0  0  0  0
  190.2500  174.9320  137.8300 O   0  0  0  0  0  0  0  0  0  0  0  0
  188.8760  171.4000  135.5250 N   0  0  0  0  0  1  0  0  0  0  0  0
  189.4060  175.8670  137.8050 C   0  0  0  0  0  0  0  0  0  0  0  0
  188.2970  173.3570  136.7580 N   0  0  0  0  0  0  0  0  0  0  0  0
  186.0700  174.3550  136.5150 C   0  0  0  0  0  2  0  0  0  0  0  0
  187.5180  174.3880  136.9310 C   0  0  0  0  0  0  0  0  0  0  0  0
  186.5540  172.1350  135.5020 C   0  0  0  0  0  2  0  0  0  0  0  0
  1  9  2  0  0  0  0
  2  3  1  0  0  0  0
  2  5  2  0  0  0  0
  3  7  2  0  0  0  0
  5 14  1  0  0  0  0
  6  1  1  0  0  0  0
  7  4  1  0  0  0  0
  8 13  1  0  0  0  0
  8 12  1  0  0  0  0
 10 19  2  0  0  0  0
 12 16  2  0  0  0  0
 13  2  1  0  0  0  0
 14  1  1  0  0  0  0
 15 11  1  0  0  0  0
 15  4  2  0  0  0  0
 16  5  1  0  0  0  0
 16 17  1  0  0  0  0
 17  6  1  0  0  0  0
 18 10  1  0  0  0  0
 18 13  2  0  0  0  0
 19 20  1  0  0  0  0
 19  3  1  0  0  0  0
 20 15  1  0  0  0  0
 21  8  1  0  0  0  0
 22 26  1  6  0  0  0
 22 28  1  0  0  0  0
 23 27  1  0  0  0  0
 24 29  1  0  0  0  0
 27 25  2  0  0  0  0
 27 21  1  0  0  0  0
 28 30  2  0  0  0  0
 29 30  1  0  0  0  0
 30 23  1  0  0  0  0
 31 24  1  0  0  0  0
 31 22  1  0  0  0  0
M  END
>  <MODEL>
9

>  <REMARK>
 VINA RESULT:      -8.5      3.231      4.543
  Name = 
  2 active torsions:
  status: ('A' for Active; 'I' for Inactive)
    1  A    between atoms: C_9  and  C_23
    2  A    between atoms: N_15  and  C_23
                            x       y       z     vdW  Elec       q    Type
                         _______ _______ _______ _____ _____    ______ ____

>  <TORSDO>
F 2

$$$$
