=
 OpenBabel10262419203D

 31 35  0  0  1  0  0  0  0  0999 V2000
  189.3050  177.6430  147.2480 C   0  0  0  0  0  0  0  0  0  0  0  0
  187.7810  177.8360  143.7440 C   0  0  0  0  0  0  0  0  0  0  0  0
  186.4120  178.2090  143.9200 C   0  0  0  0  0  0  0  0  0  0  0  0
  184.5850  178.4260  145.8030 C   0  0  0  0  0  3  0  0  0  0  0  0
  188.6910  177.5030  144.8920 C   0  0  0  0  0  0  0  0  0  0  0  0
  190.4810  176.9370  146.9940 C   0  0  0  0  0  3  0  0  0  0  0  0
  185.8650  178.1390  145.2430 N   0  0  0  0  0  2  0  0  0  0  0  0
  189.7710  177.3650  142.2270 C   0  0  2  0  0  3  0  0  0  0  0  0
  188.9340  178.1710  148.8750 Cl  0  0  0  0  0  0  0  0  0  0  0  0
  186.2440  178.5740  141.5230 C   0  0  0  0  0  3  0  0  0  0  0  0
  183.5130  178.8620  145.1590 C   0  0  0  0  0  3  0  0  0  0  0  0
  190.2380  176.3500  143.2680 C   0  0  0  0  0  2  0  0  0  0  0  0
  188.3250  177.7660  142.4380 C   0  0  0  0  0  0  0  0  0  0  0  0
  188.4220  177.9280  146.2040 C   0  0  0  0  0  3  0  0  0  0  0  0
  183.3620  179.1520  143.7380 C   0  0  0  0  0  3  0  0  0  0  0  0
  189.9010  176.8190  144.6460 C   0  0  0  0  0  0  0  0  0  0  0  0
  190.7780  176.5260  145.6940 C   0  0  0  0  0  3  0  0  0  0  0  0
  187.5580  178.1710  141.3480 C   0  0  0  0  0  3  0  0  0  0  0  0
  185.6520  178.5900  142.7850 C   0  0  0  0  0  0  0  0  0  0  0  0
  184.2530  179.0340  142.7630 C   0  0  0  0  0  3  0  0  0  0  0  0
  192.1720  177.7400  140.6300 O   0  0  0  0  0  0  0  0  0  0  0  0
  191.2220  177.0750  140.1350 C   0  0  0  0  0  0  0  0  0  0  0  0
  190.0190  176.8510  140.8790 N   0  0  0  0  0  2  0  0  0  0  0  0
  191.3410  176.5400  138.7500 C   0  0  0  0  0  2  0  0  0  0  0  0
  188.4160  177.4810  136.4460 C   0  0  1  0  0  3  0  0  0  0  0  0
  188.6350  175.1090  136.3550 C   0  0  0  0  0  2  0  0  0  0  0  0
  187.4290  178.6270  136.5130 C   0  0  0  0  0  1  0  0  0  0  0  0
  189.5120  177.6830  137.4990 C   0  0  0  0  0  2  0  0  0  0  0  0
  189.9870  175.2430  137.0770 C   0  0  0  0  0  2  0  0  0  0  0  0
  189.9690  176.3610  138.1220 C   0  0  1  0  0  3  0  0  0  0  0  0
  187.7180  176.2140  136.6540 N   0  0  0  0  0  2  0  0  0  0  0  0
  1  9  1  0  0  0  0
  2  3  1  0  0  0  0
  2  5  1  0  0  0  0
  3  7  1  0  0  0  0
  5 14  1  0  0  0  0
  6  1  1  0  0  0  0
  7  4  1  0  0  0  0
  8 23  1  6  0  0  0
  8 13  1  0  0  0  0
  8 12  1  0  0  0  0
 10 19  1  0  0  0  0
 11  4  2  0  0  0  0
 12 16  1  0  0  0  0
 13  2  2  0  0  0  0
 14  1  2  0  0  0  0
 15 11  1  0  0  0  0
 16  5  2  0  0  0  0
 16 17  1  0  0  0  0
 17  6  2  0  0  0  0
 18 10  2  0  0  0  0
 18 13  1  0  0  0  0
 19  3  2  0  0  0  0
 20 19  1  0  0  0  0
 20 15  2  0  0  0  0
 22 21  2  0  0  0  0
 22 23  1  0  0  0  0
 24 22  1  0  0  0  0
 25 27  1  1  0  0  0
 25 31  1  0  0  0  0
 25 28  1  0  0  0  0
 26 31  1  0  0  0  0
 26 29  1  0  0  0  0
 28 30  1  0  0  0  0
 29 30  1  0  0  0  0
 30 24  1  6  0  0  0
M  END
>  <MODEL>
1

>  <REMARK>
 VINA RESULT:     -11.0      0.000      0.000
  Name = 
  3 active torsions:
  status: ('A' for Active; 'I' for Inactive)
    1  A    between atoms: C_3  and  C_9
    2  A    between atoms: C_3  and  C_22
    3  A    between atoms: C_15  and  N_23
                            x       y       z     vdW  Elec       q    Type
                         _______ _______ _______ _____ _____    ______ ____

>  <TORSDO>
F 3

$$$$
=
 OpenBabel10262419203D

 31 35  0  0  1  0  0  0  0  0999 V2000
  190.7110  176.9970  146.0180 C   0  0  0  0  0  0  0  0  0  0  0  0
  187.9670  177.6590  143.4350 C   0  0  0  0  0  0  0  0  0  0  0  0
  186.7860  177.9790  144.1740 C   0  0  0  0  0  0  0  0  0  0  0  0
  185.8320  177.8940  146.6270 C   0  0  0  0  0  3  0  0  0  0  0  0
  189.2350  177.1830  144.0850 C   0  0  0  0  0  0  0  0  0  0  0  0
  191.6710  176.3560  145.2350 C   0  0  0  0  0  3  0  0  0  0  0  0
  186.7870  177.7120  145.5830 N   0  0  0  0  0  2  0  0  0  0  0  0
  189.2020  177.4440  141.2180 C   0  0  2  0  0  3  0  0  0  0  0  0
  191.0140  177.2830  147.7170 Cl  0  0  0  0  0  0  0  0  0  0  0  0
  185.7250  178.6780  142.1030 C   0  0  0  0  0  3  0  0  0  0  0  0
  184.6120  178.3980  146.5120 C   0  0  0  0  0  3  0  0  0  0  0  0
  189.9930  176.2990  141.8490 C   0  0  0  0  0  2  0  0  0  0  0  0
  187.9640  177.7850  142.0240 C   0  0  0  0  0  0  0  0  0  0  0  0
  189.5070  177.4120  145.4450 C   0  0  0  0  0  3  0  0  0  0  0  0
  183.9390  178.8840  145.3140 C   0  0  0  0  0  3  0  0  0  0  0  0
  190.2300  176.5630  143.3000 C   0  0  0  0  0  0  0  0  0  0  0  0
  191.4300  176.1390  143.8780 C   0  0  0  0  0  3  0  0  0  0  0  0
  186.8540  178.3270  141.3810 C   0  0  0  0  0  3  0  0  0  0  0  0
  185.6630  178.5040  143.4850 C   0  0  0  0  0  0  0  0  0  0  0  0
  184.3820  178.9220  144.0640 C   0  0  0  0  0  3  0  0  0  0  0  0
  189.1580  179.3000  138.9810 O   0  0  0  0  0  0  0  0  0  0  0  0
  188.8790  178.0910  138.7600 C   0  0  0  0  0  0  0  0  0  0  0  0
  188.8940  177.1300  139.8220 N   0  0  0  0  0  2  0  0  0  0  0  0
  188.5030  177.6610  137.3840 C   0  0  0  0  0  2  0  0  0  0  0  0
  184.6670  177.4670  137.3620 C   0  0  1  0  0  3  0  0  0  0  0  0
  185.4590  175.7010  135.9710 C   0  0  0  0  0  2  0  0  0  0  0  0
  183.6490  177.8450  138.4160 C   0  0  0  0  0  1  0  0  0  0  0  0
  186.0600  177.9360  137.8000 C   0  0  0  0  0  2  0  0  0  0  0  0
  186.8590  176.3390  136.0200 C   0  0  0  0  0  2  0  0  0  0  0  0
  187.1590  176.9520  137.3900 C   0  0  1  0  0  3  0  0  0  0  0  0
  184.6450  176.0220  137.1480 N   0  0  0  0  0  2  0  0  0  0  0  0
  1  9  1  0  0  0  0
  2  5  1  0  0  0  0
  2  3  1  0  0  0  0
  3  7  1  0  0  0  0
  5 14  2  0  0  0  0
  6  1  2  0  0  0  0
  7  4  1  0  0  0  0
  8 23  1  6  0  0  0
  8 12  1  0  0  0  0
  8 13  1  0  0  0  0
 10 19  1  0  0  0  0
 11  4  2  0  0  0  0
 12 16  1  0  0  0  0
 13  2  2  0  0  0  0
 14  1  1  0  0  0  0
 15 11  1  0  0  0  0
 16 17  2  0  0  0  0
 16  5  1  0  0  0  0
 17  6  1  0  0  0  0
 18 13  1  0  0  0  0
 18 10  2  0  0  0  0
 19 20  1  0  0  0  0
 19  3  2  0  0  0  0
 20 15  2  0  0  0  0
 22 21  2  0  0  0  0
 22 23  1  0  0  0  0
 24 22  1  0  0  0  0
 25 28  1  0  0  0  0
 25 27  1  1  0  0  0
 26 29  1  0  0  0  0
 26 31  1  0  0  0  0
 29 30  1  0  0  0  0
 30 24  1  6  0  0  0
 30 28  1  0  0  0  0
 31 25  1  0  0  0  0
M  END
>  <MODEL>
2

>  <REMARK>
 VINA RESULT:     -10.6      1.790      2.303
  Name = 
  3 active torsions:
  status: ('A' for Active; 'I' for Inactive)
    1  A    between atoms: C_3  and  C_9
    2  A    between atoms: C_3  and  C_22
    3  A    between atoms: C_15  and  N_23
                            x       y       z     vdW  Elec       q    Type
                         _______ _______ _______ _____ _____    ______ ____

>  <TORSDO>
F 3

$$$$
=
 OpenBabel10262419203D

 31 35  0  0  1  0  0  0  0  0999 V2000
  189.7880  177.5050  146.8730 C   0  0  0  0  0  0  0  0  0  0  0  0
  188.0600  177.7710  143.4700 C   0  0  0  0  0  0  0  0  0  0  0  0
  186.7100  178.1570  143.7320 C   0  0  0  0  0  0  0  0  0  0  0  0
  185.0000  178.3650  145.7240 C   0  0  0  0  0  3  0  0  0  0  0  0
  189.0330  177.4100  144.5560 C   0  0  0  0  0  0  0  0  0  0  0  0
  190.9370  176.7900  146.5390 C   0  0  0  0  0  3  0  0  0  0  0  0
  186.2410  178.0720  145.0850 N   0  0  0  0  0  2  0  0  0  0  0  0
  189.9500  177.3010  141.8290 C   0  0  2  0  0  3  0  0  0  0  0  0
  189.5210  178.0110  148.5270 Cl  0  0  0  0  0  0  0  0  0  0  0  0
  186.4040  178.5620  141.3560 C   0  0  0  0  0  3  0  0  0  0  0  0
  183.8970  178.8240  145.1520 C   0  0  0  0  0  3  0  0  0  0  0  0
  190.4660  176.2640  142.8260 C   0  0  0  0  0  2  0  0  0  0  0  0
  188.5250  177.7160  142.1330 C   0  0  0  0  0  0  0  0  0  0  0  0
  188.8480  177.8160  145.8880 C   0  0  0  0  0  3  0  0  0  0  0  0
  183.6660  179.1380  143.7470 C   0  0  0  0  0  3  0  0  0  0  0  0
  190.2180  176.7160  144.2280 C   0  0  0  0  0  0  0  0  0  0  0  0
  191.1520  176.3950  145.2180 C   0  0  0  0  0  3  0  0  0  0  0  0
  187.6990  178.1470  141.0960 C   0  0  0  0  0  3  0  0  0  0  0  0
  185.8870  178.5650  142.6510 C   0  0  0  0  0  0  0  0  0  0  0  0
  184.4960  179.0260  142.7190 C   0  0  0  0  0  3  0  0  0  0  0  0
  192.3180  177.5320  140.1570 O   0  0  0  0  0  0  0  0  0  0  0  0
  191.3030  176.9560  139.6810 C   0  0  0  0  0  0  0  0  0  0  0  0
  190.1120  176.8050  140.4620 N   0  0  0  0  0  2  0  0  0  0  0  0
  191.3320  176.4500  138.2790 C   0  0  0  0  0  2  0  0  0  0  0  0
  194.5150  174.4650  137.4540 C   0  0  1  0  0  3  0  0  0  0  0  0
  194.2690  176.1190  135.7560 C   0  0  0  0  0  2  0  0  0  0  0  0
  195.5070  173.7600  138.3550 C   0  0  0  0  0  1  0  0  0  0  0  0
  193.3100  174.9310  138.2800 C   0  0  0  0  0  2  0  0  0  0  0  0
  192.8460  176.3880  136.2750 C   0  0  0  0  0  2  0  0  0  0  0  0
  192.7640  176.2780  137.7990 C   0  0  1  0  0  3  0  0  0  0  0  0
  195.1650  175.5940  136.7930 N   0  0  0  0  0  2  0  0  0  0  0  0
  1  9  1  0  0  0  0
  2  3  1  0  0  0  0
  2  5  1  0  0  0  0
  3  7  1  0  0  0  0
  5 14  1  0  0  0  0
  6  1  1  0  0  0  0
  7  4  1  0  0  0  0
  8 23  1  6  0  0  0
  8 13  1  0  0  0  0
  8 12  1  0  0  0  0
 10 19  1  0  0  0  0
 11  4  2  0  0  0  0
 12 16  1  0  0  0  0
 13  2  2  0  0  0  0
 14  1  2  0  0  0  0
 15 11  1  0  0  0  0
 16  5  2  0  0  0  0
 16 17  1  0  0  0  0
 17  6  2  0  0  0  0
 18 10  2  0  0  0  0
 18 13  1  0  0  0  0
 19 20  1  0  0  0  0
 19  3  2  0  0  0  0
 20 15  2  0  0  0  0
 22 21  2  0  0  0  0
 22 23  1  0  0  0  0
 24 22  1  0  0  0  0
 25 28  1  0  0  0  0
 25 27  1  1  0  0  0
 26 29  1  0  0  0  0
 26 31  1  0  0  0  0
 29 30  1  0  0  0  0
 30 24  1  6  0  0  0
 30 28  1  0  0  0  0
 31 25  1  0  0  0  0
M  END
>  <MODEL>
3

>  <REMARK>
 VINA RESULT:     -10.3      2.024      2.976
  Name = 
  3 active torsions:
  status: ('A' for Active; 'I' for Inactive)
    1  A    between atoms: C_3  and  C_9
    2  A    between atoms: C_3  and  C_22
    3  A    between atoms: C_15  and  N_23
                            x       y       z     vdW  Elec       q    Type
                         _______ _______ _______ _____ _____    ______ ____

>  <TORSDO>
F 3

$$$$
=
 OpenBabel10262419203D

 31 35  0  0  1  0  0  0  0  0999 V2000
  185.0240  178.5270  144.0770 C   0  0  0  0  0  0  0  0  0  0  0  0
  188.6410  177.4960  143.3730 C   0  0  0  0  0  0  0  0  0  0  0  0
  189.2700  177.3380  144.6470 C   0  0  0  0  0  0  0  0  0  0  0  0
  188.8740  177.8710  147.1950 C   0  0  0  0  0  3  0  0  0  0  0  0
  187.2520  178.0460  143.2100 C   0  0  0  0  0  0  0  0  0  0  0  0
  184.6280  178.9990  142.8250 C   0  0  0  0  0  3  0  0  0  0  0  0
  188.5830  177.8450  145.7990 N   0  0  0  0  0  2  0  0  0  0  0  0
  188.6960  177.2930  140.8360 C   0  0  2  0  0  3  0  0  0  0  0  0
  183.8940  178.5330  145.4130 Cl  0  0  0  0  0  0  0  0  0  0  0  0
  191.1750  176.3180  143.5370 C   0  0  0  0  0  3  0  0  0  0  0  0
  189.9520  177.3850  147.7930 C   0  0  0  0  0  3  0  0  0  0  0  0
  187.7730  178.5100  140.7870 C   0  0  0  0  0  2  0  0  0  0  0  0
  189.3400  177.1280  142.1980 C   0  0  0  0  0  0  0  0  0  0  0  0
  186.3230  178.0490  144.2640 C   0  0  0  0  0  3  0  0  0  0  0  0
  191.1000  176.7150  147.1940 C   0  0  0  0  0  3  0  0  0  0  0  0
  186.8260  178.4960  141.9420 C   0  0  0  0  0  0  0  0  0  0  0  0
  185.5290  178.9840  141.7600 C   0  0  0  0  0  3  0  0  0  0  0  0
  190.5850  176.5100  142.2990 C   0  0  0  0  0  3  0  0  0  0  0  0
  190.5490  176.7300  144.7120 C   0  0  0  0  0  0  0  0  0  0  0  0
  191.3390  176.4510  145.9170 C   0  0  0  0  0  3  0  0  0  0  0  0
  188.3760  176.3260  138.1120 O   0  0  0  0  0  0  0  0  0  0  0  0
  189.4700  176.8650  138.4310 C   0  0  0  0  0  0  0  0  0  0  0  0
  189.6810  177.3680  139.7550 N   0  0  0  0  0  2  0  0  0  0  0  0
  190.5660  176.9560  137.4260 C   0  0  0  0  0  2  0  0  0  0  0  0
  192.8120  174.0270  136.3610 C   0  0  1  0  0  3  0  0  0  0  0  0
  194.0630  175.3310  137.9150 C   0  0  0  0  0  2  0  0  0  0  0  0
  192.4660  172.6180  135.9300 C   0  0  0  0  0  1  0  0  0  0  0  0
  191.5280  174.8570  136.4820 C   0  0  0  0  0  2  0  0  0  0  0  0
  192.9970  176.4340  137.7930 C   0  0  0  0  0  2  0  0  0  0  0  0
  191.5890  175.8520  137.6440 C   0  0  1  0  0  3  0  0  0  0  0  0
  193.5340  173.9930  137.6310 N   0  0  0  0  0  2  0  0  0  0  0  0
  1 14  1  0  0  0  0
  1  9  1  0  0  0  0
  2  3  1  0  0  0  0
  3 19  2  0  0  0  0
  3  7  1  0  0  0  0
  4 11  2  0  0  0  0
  5  2  1  0  0  0  0
  5 14  2  0  0  0  0
  6  1  2  0  0  0  0
  7  4  1  0  0  0  0
  8 23  1  6  0  0  0
  8 13  1  0  0  0  0
 10 19  1  0  0  0  0
 12  8  1  0  0  0  0
 12 16  1  0  0  0  0
 13 18  1  0  0  0  0
 13  2  2  0  0  0  0
 15 11  1  0  0  0  0
 16  5  1  0  0  0  0
 17 16  2  0  0  0  0
 17  6  1  0  0  0  0
 18 10  2  0  0  0  0
 19 20  1  0  0  0  0
 20 15  2  0  0  0  0
 21 22  2  0  0  0  0
 22 23  1  0  0  0  0
 24 22  1  0  0  0  0
 25 27  1  1  0  0  0
 25 28  1  0  0  0  0
 25 31  1  0  0  0  0
 28 30  1  0  0  0  0
 29 26  1  0  0  0  0
 30 24  1  6  0  0  0
 30 29  1  0  0  0  0
 31 26  1  0  0  0  0
M  END
>  <MODEL>
4

>  <REMARK>
 VINA RESULT:     -10.3      2.256      4.959
  Name = 
  3 active torsions:
  status: ('A' for Active; 'I' for Inactive)
    1  A    between atoms: C_3  and  C_9
    2  A    between atoms: C_3  and  C_22
    3  A    between atoms: C_15  and  N_23
                            x       y       z     vdW  Elec       q    Type
                         _______ _______ _______ _____ _____    ______ ____

>  <TORSDO>
F 3

$$$$
=
 OpenBabel10262419203D

 31 35  0  0  1  0  0  0  0  0999 V2000
  190.4310  177.1910  146.2100 C   0  0  0  0  0  0  0  0  0  0  0  0
  187.8420  177.7600  143.4510 C   0  0  0  0  0  0  0  0  0  0  0  0
  186.6160  178.0870  144.1100 C   0  0  0  0  0  0  0  0  0  0  0  0
  185.5160  178.0520  146.5020 C   0  0  0  0  0  3  0  0  0  0  0  0
  189.0730  177.3130  144.1890 C   0  0  0  0  0  0  0  0  0  0  0  0
  191.4420  176.5400  145.5040 C   0  0  0  0  0  3  0  0  0  0  0  0
  186.5340  177.8540  145.5220 N   0  0  0  0  0  2  0  0  0  0  0  0
  189.2100  177.5020  141.3190 C   0  0  2  0  0  3  0  0  0  0  0  0
  190.6280  177.5210  147.9180 Cl  0  0  0  0  0  0  0  0  0  0  0  0
  185.6760  178.7230  141.9610 C   0  0  0  0  0  3  0  0  0  0  0  0
  184.3020  178.5410  146.3010 C   0  0  0  0  0  3  0  0  0  0  0  0
  189.9720  176.3820  142.0250 C   0  0  0  0  0  2  0  0  0  0  0  0
  187.9240  177.8510  142.0400 C   0  0  0  0  0  0  0  0  0  0  0  0
  189.2600  177.5790  145.5560 C   0  0  0  0  0  3  0  0  0  0  0  0
  183.6970  178.9900  145.0530 C   0  0  0  0  0  3  0  0  0  0  0  0
  190.1190  176.6840  143.4800 C   0  0  0  0  0  0  0  0  0  0  0  0
  191.2850  176.2860  144.1400 C   0  0  0  0  0  3  0  0  0  0  0  0
  186.8490  178.3660  141.3170 C   0  0  0  0  0  3  0  0  0  0  0  0
  185.5330  178.5820  143.3410 C   0  0  0  0  0  0  0  0  0  0  0  0
  184.2150  179.0020  143.8320 C   0  0  0  0  0  3  0  0  0  0  0  0
  189.0590  179.3330  139.0650 O   0  0  0  0  0  0  0  0  0  0  0  0
  188.9160  178.1000  138.8450 C   0  0  0  0  0  0  0  0  0  0  0  0
  188.9900  177.1510  139.9160 N   0  0  0  0  0  2  0  0  0  0  0  0
  188.6390  177.6260  137.4600 C   0  0  0  0  0  2  0  0  0  0  0  0
  187.5280  174.0510  136.6000 C   0  0  1  0  0  3  0  0  0  0  0  0
  189.8380  174.2140  136.0350 C   0  0  0  0  0  2  0  0  0  0  0  0
  186.4700  173.1640  137.2200 C   0  0  0  0  0  1  0  0  0  0  0  0
  187.4280  175.4630  137.1890 C   0  0  0  0  0  2  0  0  0  0  0  0
  189.7370  175.7390  136.2150 C   0  0  0  0  0  2  0  0  0  0  0  0
  188.8000  176.1170  137.3650 C   0  0  1  0  0  3  0  0  0  0  0  0
  188.8530  173.4790  136.8340 N   0  0  0  0  0  2  0  0  0  0  0  0
  1  9  1  0  0  0  0
  2  3  1  0  0  0  0
  2  5  1  0  0  0  0
  3  7  1  0  0  0  0
  5 14  2  0  0  0  0
  6  1  2  0  0  0  0
  7  4  1  0  0  0  0
  8 23  1  6  0  0  0
  8 12  1  0  0  0  0
  8 13  1  0  0  0  0
 10 19  1  0  0  0  0
 11  4  2  0  0  0  0
 12 16  1  0  0  0  0
 13  2  2  0  0  0  0
 14  1  1  0  0  0  0
 15 11  1  0  0  0  0
 16 17  2  0  0  0  0
 16  5  1  0  0  0  0
 17  6  1  0  0  0  0
 18 10  2  0  0  0  0
 18 13  1  0  0  0  0
 19 20  1  0  0  0  0
 19  3  2  0  0  0  0
 20 15  2  0  0  0  0
 22 21  2  0  0  0  0
 22 23  1  0  0  0  0
 24 22  1  0  0  0  0
 25 31  1  0  0  0  0
 25 28  1  0  0  0  0
 25 27  1  1  0  0  0
 26 29  1  0  0  0  0
 26 31  1  0  0  0  0
 28 30  1  0  0  0  0
 29 30  1  0  0  0  0
 30 24  1  6  0  0  0
M  END
>  <MODEL>
5

>  <REMARK>
 VINA RESULT:     -10.0      1.463      2.050
  Name = 
  3 active torsions:
  status: ('A' for Active; 'I' for Inactive)
    1  A    between atoms: C_3  and  C_9
    2  A    between atoms: C_3  and  C_22
    3  A    between atoms: C_15  and  N_23
                            x       y       z     vdW  Elec       q    Type
                         _______ _______ _______ _____ _____    ______ ____

>  <TORSDO>
F 3

$$$$
=
 OpenBabel10262419203D

 31 35  0  0  1  0  0  0  0  0999 V2000
  185.1500  178.3760  144.6720 C   0  0  0  0  0  0  0  0  0  0  0  0
  188.6780  177.5050  143.4730 C   0  0  0  0  0  0  0  0  0  0  0  0
  189.4570  177.2740  144.6490 C   0  0  0  0  0  0  0  0  0  0  0  0
  189.3580  177.6100  147.2590 C   0  0  0  0  0  3  0  0  0  0  0  0
  187.2680  178.0240  143.5160 C   0  0  0  0  0  0  0  0  0  0  0  0
  184.5980  178.9250  143.5150 C   0  0  0  0  0  3  0  0  0  0  0  0
  188.9020  177.6770  145.9080 N   0  0  0  0  0  2  0  0  0  0  0  0
  188.4340  177.4870  140.9390 C   0  0  2  0  0  3  0  0  0  0  0  0
  184.1870  178.2530  146.1280 Cl  0  0  0  0  0  0  0  0  0  0  0  0
  191.2370  176.3930  143.2490 C   0  0  0  0  0  3  0  0  0  0  0  0
  190.5080  177.1140  147.6880 C   0  0  0  0  0  3  0  0  0  0  0  0
  187.4870  178.6770  141.0900 C   0  0  0  0  0  2  0  0  0  0  0  0
  189.2390  177.2430  142.1990 C   0  0  0  0  0  0  0  0  0  0  0  0
  186.4720  177.9250  144.6690 C   0  0  0  0  0  3  0  0  0  0  0  0
  191.5900  176.5230  146.9100 C   0  0  0  0  0  3  0  0  0  0  0  0
  186.6850  178.5520  142.3440 C   0  0  0  0  0  0  0  0  0  0  0  0
  185.3660  179.0140  142.3520 C   0  0  0  0  0  3  0  0  0  0  0  0
  190.4990  176.6560  142.1070 C   0  0  0  0  0  3  0  0  0  0  0  0
  190.7480  176.7010  144.5180 C   0  0  0  0  0  0  0  0  0  0  0  0
  191.6810  176.3580  145.5970 C   0  0  0  0  0  3  0  0  0  0  0  0
  187.6150  177.2940  138.1560 O   0  0  0  0  0  0  0  0  0  0  0  0
  188.8230  177.5520  138.4070 C   0  0  0  0  0  0  0  0  0  0  0  0
  189.2810  177.6680  139.7590 N   0  0  0  0  0  2  0  0  0  0  0  0
  189.7910  177.7110  137.2860 C   0  0  0  0  0  2  0  0  0  0  0  0
  192.3360  174.8780  137.7850 C   0  0  1  0  0  3  0  0  0  0  0  0
  190.2760  173.8570  137.1540 C   0  0  0  0  0  2  0  0  0  0  0  0
  193.8370  174.8480  137.5940 C   0  0  0  0  0  1  0  0  0  0  0  0
  191.8280  176.3180  137.6440 C   0  0  0  0  0  2  0  0  0  0  0  0
  189.5780  175.2090  137.3830 C   0  0  0  0  0  2  0  0  0  0  0  0
  190.4600  176.3860  136.9600 C   0  0  1  0  0  3  0  0  0  0  0  0
  191.6950  173.9990  136.8090 N   0  0  0  0  0  2  0  0  0  0  0  0
  1  9  1  0  0  0  0
  2  5  1  0  0  0  0
  2  3  1  0  0  0  0
  3  7  1  0  0  0  0
  4 11  2  0  0  0  0
  5 14  2  0  0  0  0
  6  1  2  0  0  0  0
  7  4  1  0  0  0  0
  8 23  1  6  0  0  0
  8 12  1  0  0  0  0
  8 13  1  0  0  0  0
 10 19  1  0  0  0  0
 12 16  1  0  0  0  0
 13  2  2  0  0  0  0
 14  1  1  0  0  0  0
 15 11  1  0  0  0  0
 16 17  2  0  0  0  0
 16  5  1  0  0  0  0
 17  6  1  0  0  0  0
 18 13  1  0  0  0  0
 18 10  2  0  0  0  0
 19  3  2  0  0  0  0
 19 20  1  0  0  0  0
 20 15  2  0  0  0  0
 21 22  2  0  0  0  0
 22 23  1  0  0  0  0
 24 22  1  0  0  0  0
 25 27  1  6  0  0  0
 26 29  1  0  0  0  0
 28 25  1  0  0  0  0
 30 24  1  1  0  0  0
 30 29  1  0  0  0  0
 30 28  1  0  0  0  0
 31 26  1  0  0  0  0
 31 25  1  0  0  0  0
M  END
>  <MODEL>
6

>  <REMARK>
 VINA RESULT:      -9.8      2.014      4.752
  Name = 
  3 active torsions:
  status: ('A' for Active; 'I' for Inactive)
    1  A    between atoms: C_3  and  C_9
    2  A    between atoms: C_3  and  C_22
    3  A    between atoms: C_15  and  N_23
                            x       y       z     vdW  Elec       q    Type
                         _______ _______ _______ _____ _____    ______ ____

>  <TORSDO>
F 3

$$$$
=
 OpenBabel10262419203D

 31 35  0  0  1  0  0  0  0  0999 V2000
  182.7510  179.4310  139.4700 C   0  0  0  0  0  0  0  0  0  0  0  0
  186.2950  178.4610  140.5370 C   0  0  0  0  0  0  0  0  0  0  0  0
  187.0680  178.3760  139.3380 C   0  0  0  0  0  0  0  0  0  0  0  0
  186.7700  178.3010  136.7220 C   0  0  0  0  0  3  0  0  0  0  0  0
  184.8070  178.6690  140.5370 C   0  0  0  0  0  0  0  0  0  0  0  0
  182.0280  179.1300  140.6240 C   0  0  0  0  0  3  0  0  0  0  0  0
  186.3640  178.3660  138.0880 N   0  0  0  0  0  0  0  0  0  0  0  0
  186.1380  178.4230  143.0780 C   0  0  2  0  0  3  0  0  0  0  0  0
  181.9320  180.0890  138.0700 Cl  0  0  0  0  0  0  0  0  0  0  0  0
  189.0800  178.2230  140.6910 C   0  0  0  0  0  3  0  0  0  0  0  0
  188.0100  178.2260  136.2620 C   0  0  0  0  0  3  0  0  0  0  0  0
  184.7390  177.8310  142.9140 C   0  0  0  0  0  2  0  0  0  0  0  0
  186.9380  178.3430  141.7930 C   0  0  2  0  0  3  0  0  0  0  0  0
  184.1290  179.2080  139.4310 C   0  0  0  0  0  3  0  0  0  0  0  0
  189.2580  178.1850  137.0150 C   0  0  0  0  0  3  0  0  0  0  0  0
  184.0660  178.4010  141.7090 C   0  0  0  0  0  0  0  0  0  0  0  0
  182.6850  178.6150  141.7410 C   0  0  0  0  0  3  0  0  0  0  0  0
  188.3270  178.2620  141.8530 C   0  0  0  0  0  3  0  0  0  0  0  0
  188.4780  178.2660  139.4340 C   0  0  0  0  0  0  0  0  0  0  0  0
  189.4410  178.2010  138.3290 C   0  0  0  0  0  3  0  0  0  0  0  0
  186.0230  179.2290  145.8690 O   0  0  0  0  0  0  0  0  0  0  0  0
  186.7350  178.2350  145.5620 C   0  0  0  0  0  0  0  0  0  0  0  0
  186.8220  177.7870  144.2050 N   0  0  0  0  0  2  0  0  0  0  0  0
  187.5160  177.5340  146.6200 C   0  0  0  0  0  2  0  0  0  0  0  0
  191.0020  178.1770  145.1390 C   0  0  1  0  0  3  0  0  0  0  0  0
  191.2460  176.4490  146.7630 C   0  0  0  0  0  2  0  0  0  0  0  0
  191.4240  178.6440  143.7630 C   0  0  0  0  0  1  0  0  0  0  0  0
  189.4780  178.2810  145.2730 C   0  0  0  0  0  2  0  0  0  0  0  0
  189.8210  176.7600  147.2550 C   0  0  0  0  0  2  0  0  0  0  0  0
  188.8880  177.1370  146.1010 C   0  0  1  0  0  3  0  0  0  0  0  0
  191.4530  176.8030  145.3550 N   0  0  0  0  0  2  0  0  0  0  0  0
  1  6  1  0  0  0  0
  2  5  1  0  0  0  0
  2 13  1  0  0  0  0
  3 19  1  0  0  0  0
  3  2  2  0  0  0  0
  4  7  2  0  0  0  0
  5 16  2  0  0  0  0
  6 17  2  0  0  0  0
  7  3  1  0  0  0  0
  8 23  1  1  0  0  0
  9  1  1  0  0  0  0
 10 18  2  0  0  0  0
 11  4  1  0  0  0  0
 11 15  2  0  0  0  0
 12  8  1  0  0  0  0
 13 18  1  1  0  0  0
 13  8  1  0  0  0  0
 14  1  2  0  0  0  0
 14  5  1  0  0  0  0
 15 20  1  0  0  0  0
 16 17  1  0  0  0  0
 16 12  1  0  0  0  0
 19 10  1  0  0  0  0
 20 19  2  0  0  0  0
 22 21  2  0  0  0  0
 22 24  1  0  0  0  0
 23 22  1  0  0  0  0
 25 27  1  6  0  0  0
 25 28  1  0  0  0  0
 25 31  1  0  0  0  0
 26 29  1  0  0  0  0
 28 30  1  0  0  0  0
 30 24  1  1  0  0  0
 30 29  1  0  0  0  0
 31 26  1  0  0  0  0
M  END
>  <MODEL>
7

>  <REMARK>
 VINA RESULT:      -9.7      3.359      7.857
  Name = 
  3 active torsions:
  status: ('A' for Active; 'I' for Inactive)
    1  A    between atoms: C_3  and  C_9
    2  A    between atoms: C_3  and  C_22
    3  A    between atoms: C_15  and  N_23
                            x       y       z     vdW  Elec       q    Type
                         _______ _______ _______ _____ _____    ______ ____

>  <TORSDO>
F 3

$$$$
=
 OpenBabel10262419203D

 31 35  0  0  1  0  0  0  0  0999 V2000
  184.9190  177.7420  137.7260 C   0  0  0  0  0  0  0  0  0  0  0  0
  185.7810  178.2640  141.4170 C   0  0  0  0  0  0  0  0  0  0  0  0
  184.5430  178.4950  142.0920 C   0  0  0  0  0  0  0  0  0  0  0  0
  182.0150  179.0330  141.5840 C   0  0  0  0  0  3  0  0  0  0  0  0
  185.8920  178.1650  139.9220 C   0  0  0  0  0  0  0  0  0  0  0  0
  186.1710  177.8940  137.1310 C   0  0  0  0  0  3  0  0  0  0  0  0
  183.3860  178.7660  141.2900 N   0  0  0  0  0  0  0  0  0  0  0  0
  188.2980  177.8830  141.4780 C   0  0  2  0  0  3  0  0  0  0  0  0
  183.5170  177.3910  136.7400 Cl  0  0  0  0  0  0  0  0  0  0  0  0
  185.7020  178.2740  144.2160 C   0  0  0  0  0  3  0  0  0  0  0  0
  181.4560  179.0970  142.7830 C   0  0  0  0  0  3  0  0  0  0  0  0
  188.3690  178.5910  140.1260 C   0  0  0  0  0  2  0  0  0  0  0  0
  186.9720  178.1210  142.1710 C   0  0  2  0  0  3  0  0  0  0  0  0
  184.7840  177.8710  139.1100 C   0  0  0  0  0  3  0  0  0  0  0  0
  182.0810  178.9210  144.0880 C   0  0  0  0  0  3  0  0  0  0  0  0
  187.1580  178.2830  139.3080 C   0  0  0  0  0  0  0  0  0  0  0  0
  187.2890  178.1650  137.9220 C   0  0  0  0  0  3  0  0  0  0  0  0
  186.9100  178.0930  143.5630 C   0  0  0  0  0  3  0  0  0  0  0  0
  184.5190  178.4870  143.5100 C   0  0  0  0  0  0  0  0  0  0  0  0
  183.3510  178.6700  144.3790 C   0  0  0  0  0  3  0  0  0  0  0  0
  190.2720  176.1070  142.6640 O   0  0  0  0  0  0  0  0  0  0  0  0
  190.3790  177.3460  142.8720 C   0  0  0  0  0  0  0  0  0  0  0  0
  189.4420  178.2680  142.3060 N   0  0  0  0  0  2  0  0  0  0  0  0
  191.4790  177.8540  143.7400 C   0  0  0  0  0  2  0  0  0  0  0  0
  189.1590  177.0570  146.6960 C   0  0  1  0  0  3  0  0  0  0  0  0
  191.3080  176.1880  147.2470 C   0  0  0  0  0  2  0  0  0  0  0  0
  187.9500  177.7930  147.2350 C   0  0  0  0  0  1  0  0  0  0  0  0
  189.6000  177.6930  145.3720 C   0  0  0  0  0  2  0  0  0  0  0  0
  191.7370  176.4210  145.7880 C   0  0  0  0  0  2  0  0  0  0  0  0
  191.1220  177.6970  145.2090 C   0  0  1  0  0  3  0  0  0  0  0  0
  190.2390  177.0940  147.6790 N   0  0  0  0  0  2  0  0  0  0  0  0
  1 14  1  0  0  0  0
  2  3  2  0  0  0  0
  2 13  1  0  0  0  0
  3 19  1  0  0  0  0
  4 11  1  0  0  0  0
  5  2  1  0  0  0  0
  6  1  2  0  0  0  0
  6 17  1  0  0  0  0
  7  4  2  0  0  0  0
  7  3  1  0  0  0  0
  8 13  1  0  0  0  0
  8 23  1  1  0  0  0
  9  1  1  0  0  0  0
 11 15  2  0  0  0  0
 12  8  1  0  0  0  0
 13 18  1  1  0  0  0
 14  5  2  0  0  0  0
 15 20  1  0  0  0  0
 16  5  1  0  0  0  0
 16 12  1  0  0  0  0
 17 16  2  0  0  0  0
 18 10  2  0  0  0  0
 19 10  1  0  0  0  0
 19 20  2  0  0  0  0
 21 22  2  0  0  0  0
 22 24  1  0  0  0  0
 23 22  1  0  0  0  0
 25 27  1  1  0  0  0
 25 31  1  0  0  0  0
 26 31  1  0  0  0  0
 28 25  1  0  0  0  0
 29 26  1  0  0  0  0
 30 24  1  6  0  0  0
 30 28  1  0  0  0  0
 30 29  1  0  0  0  0
M  END
>  <MODEL>
8

>  <REMARK>
 VINA RESULT:      -9.6      3.346      6.847
  Name = 
  3 active torsions:
  status: ('A' for Active; 'I' for Inactive)
    1  A    between atoms: C_3  and  C_9
    2  A    between atoms: C_3  and  C_22
    3  A    between atoms: C_15  and  N_23
                            x       y       z     vdW  Elec       q    Type
                         _______ _______ _______ _____ _____    ______ ____

>  <TORSDO>
F 3

$$$$
=
 OpenBabel10262419203D

 31 35  0  0  1  0  0  0  0  0999 V2000
  190.8050  177.5910  140.7560 C   0  0  0  0  0  0  0  0  0  0  0  0
  188.7090  177.4170  143.9530 C   0  0  0  0  0  0  0  0  0  0  0  0
  189.5970  177.0090  144.9950 C   0  0  0  0  0  0  0  0  0  0  0  0
  192.0110  176.0150  145.3440 C   0  0  0  0  0  3  0  0  0  0  0  0
  189.1110  177.4570  142.5050 C   0  0  0  0  0  0  0  0  0  0  0  0
  189.8090  177.6280  139.7810 C   0  0  0  0  0  3  0  0  0  0  0  0
  190.8830  176.5000  144.6160 N   0  0  0  0  0  0  0  0  0  0  0  0
  186.4220  178.2320  143.1840 C   0  0  2  0  0  3  0  0  0  0  0  0
  192.4900  177.6420  140.2890 Cl  0  0  0  0  0  0  0  0  0  0  0  0
  187.8710  177.5370  146.6210 C   0  0  0  0  0  3  0  0  0  0  0  0
  192.1280  175.9160  146.6590 C   0  0  0  0  0  3  0  0  0  0  0  0
  186.6680  177.4780  141.8790 C   0  0  0  0  0  2  0  0  0  0  0  0
  187.3850  177.8030  144.2740 C   0  0  0  0  0  0  0  0  0  0  0  0
  190.4570  177.5120  142.1060 C   0  0  0  0  0  3  0  0  0  0  0  0
  191.1550  176.2650  147.6870 C   0  0  0  0  0  3  0  0  0  0  0  0
  188.1140  177.5290  141.5080 C   0  0  0  0  0  0  0  0  0  0  0  0
  188.4650  177.5970  140.1570 C   0  0  0  0  0  3  0  0  0  0  0  0
  186.9950  177.8910  145.6080 C   0  0  0  0  0  3  0  0  0  0  0  0
  189.1600  177.0850  146.3420 C   0  0  2  0  0  3  0  0  0  0  0  0
  189.9280  176.7470  147.5460 C   0  0  0  0  0  3  0  0  0  0  0  0
  184.6370  180.3580  144.0490 O   0  0  0  0  0  0  0  0  0  0  0  0
  184.1910  179.1800  144.0130 C   0  0  0  0  0  0  0  0  0  0  0  0
  185.0220  178.0940  143.5860 N   0  0  0  0  0  2  0  0  0  0  0  0
  182.7910  178.9090  144.4440 C   0  0  0  0  0  2  0  0  0  0  0  0
  181.2510  178.5530  140.9440 C   0  0  1  0  0  3  0  0  0  0  0  0
  179.4450  178.8790  142.4660 C   0  0  0  0  0  2  0  0  0  0  0  0
  181.7940  178.9180  139.5790 C   0  0  0  0  0  1  0  0  0  0  0  0
  182.3530  178.7140  141.9970 C   0  0  0  0  0  2  0  0  0  0  0  0
  180.4300  178.6460  143.6260 C   0  0  0  0  0  2  0  0  0  0  0  0
  181.8110  179.2360  143.3300 C   0  0  1  0  0  3  0  0  0  0  0  0
  180.0990  179.3960  141.2590 N   0  0  0  0  0  2  0  0  0  0  0  0
  1 14  1  0  0  0  0
  2 13  2  0  0  0  0
  2  3  1  0  0  0  0
  3 19  1  0  0  0  0
  4 11  2  0  0  0  0
  5  2  1  0  0  0  0
  6 17  1  0  0  0  0
  6  1  2  0  0  0  0
  7  3  2  0  0  0  0
  7  4  1  0  0  0  0
  8 23  1  1  0  0  0
  8 13  1  0  0  0  0
  9  1  1  0  0  0  0
 11 15  1  0  0  0  0
 12  8  1  0  0  0  0
 13 18  1  0  0  0  0
 14  5  2  0  0  0  0
 16 12  1  0  0  0  0
 16  5  1  0  0  0  0
 17 16  2  0  0  0  0
 18 10  2  0  0  0  0
 19 10  1  1  0  0  0
 19 20  1  0  0  0  0
 20 15  2  0  0  0  0
 22 21  2  0  0  0  0
 22 24  1  0  0  0  0
 23 22  1  0  0  0  0
 25 27  1  6  0  0  0
 25 31  1  0  0  0  0
 25 28  1  0  0  0  0
 26 29  1  0  0  0  0
 28 30  1  0  0  0  0
 30 29  1  0  0  0  0
 30 24  1  1  0  0  0
 31 26  1  0  0  0  0
M  END
>  <MODEL>
9

>  <REMARK>
 VINA RESULT:      -9.4      3.293      7.301
  Name = 
  3 active torsions:
  status: ('A' for Active; 'I' for Inactive)
    1  A    between atoms: C_3  and  C_9
    2  A    between atoms: C_3  and  C_22
    3  A    between atoms: C_15  and  N_23
                            x       y       z     vdW  Elec       q    Type
                         _______ _______ _______ _____ _____    ______ ____

>  <TORSDO>
F 3

$$$$
