=
 OpenBabel10262421373D

 32 38  0  0  1  0  0  0  0  0999 V2000
  180.9130  179.2820  143.2420 C   0  0  1  0  0  3  0  0  0  0  0  0
  186.0250  178.1690  142.9950 C   0  0  0  0  0  0  0  0  0  0  0  0
  187.4310  177.5060  147.7130 C   0  0  0  0  0  2  0  0  0  0  0  0
  188.8050  178.0230  147.3310 C   0  0  0  0  0  2  0  0  0  0  0  0
  187.8100  178.0240  141.1570 C   0  0  0  0  0  0  0  0  0  0  0  0
  189.0550  177.6500  140.8220 C   0  0  0  0  0  0  0  0  0  0  0  0
  183.5400  178.1810  142.4810 C   0  0  1  0  0  3  0  0  0  0  0  0
  184.2780  178.3360  144.8480 C   0  0  0  0  0  2  0  0  0  0  0  0
  191.8250  177.4180  140.2700 C   0  0  0  0  0  3  0  0  0  0  0  0
  181.9060  178.7970  144.2960 C   0  0  0  0  0  2  0  0  0  0  0  0
  186.3860  178.1500  146.8100 C   0  0  0  0  0  2  0  0  0  0  0  0
  185.7110  178.2100  144.3790 C   0  0  0  0  0  0  0  0  0  0  0  0
  186.7230  178.0280  145.3400 C   0  0  0  0  0  0  0  0  0  0  0  0
  188.3620  177.7640  143.5640 C   0  0  0  0  0  0  0  0  0  0  0  0
  190.8540  177.6410  139.1800 C   0  0  0  0  0  3  0  0  0  0  0  0
  181.0690  180.6450  143.0370 F   0  0  0  0  0  0  0  0  0  0  0  0
  183.3470  178.9280  143.8010 C   0  0  2  0  0  3  0  0  0  0  0  0
  189.5490  177.7650  139.4360 C   0  0  0  0  0  3  0  0  0  0  0  0
  182.5440  178.6700  141.4330 C   0  0  0  0  0  2  0  0  0  0  0  0
  181.1110  178.5040  141.9400 C   0  0  2  0  0  3  0  0  0  0  0  0
  189.1500  177.5390  145.9290 C   0  0  0  0  0  2  0  0  0  0  0  0
  188.0570  177.8270  144.9280 C   0  0  0  0  0  0  0  0  0  0  0  0
  189.6780  177.5050  143.1620 O   0  0  0  0  0  0  0  0  0  0  0  0
  184.9480  178.4380  141.9710 C   0  0  0  0  0  2  0  0  0  0  0  0
  186.9660  178.5160  140.1640 O   0  0  0  0  0  1  0  0  0  0  0  0
  191.4180  177.1740  141.5210 C   0  0  0  0  0  3  0  0  0  0  0  0
  187.3670  177.9710  142.5870 C   0  0  0  0  0  0  0  0  0  0  0  0
  189.9600  177.0170  141.8540 C   0  0  2  0  0  3  0  0  0  0  0  0
  180.1110  178.9620  140.8900 C   0  0  0  0  0  2  0  0  0  0  0  0
  180.7830  179.8670  139.8730 C   0  0  0  0  0  3  0  0  0  0  0  0
  179.9730  181.1410  139.7310 C   0  0  0  0  0  2  0  0  0  0  0  0
  179.8560  180.0500  138.6890 C   0  0  0  0  0  2  0  0  0  0  0  0
  1 16  1  6  0  0  0
  1 10  1  0  0  0  0
  2 12  1  0  0  0  0
  4  3  1  0  0  0  0
  5 27  1  0  0  0  0
  6  5  2  0  0  0  0
  6 28  1  0  0  0  0
  7 19  1  6  0  0  0
  7 17  1  0  0  0  0
  9 26  2  0  0  0  0
 11  3  1  0  0  0  0
 12  8  1  0  0  0  0
 12 13  2  0  0  0  0
 13 11  1  0  0  0  0
 14 22  2  0  0  0  0
 15 18  2  0  0  0  0
 15  9  1  0  0  0  0
 17 10  1  1  0  0  0
 17  8  1  0  0  0  0
 18  6  1  0  0  0  0
 19 20  1  0  0  0  0
 20 29  1  6  0  0  0
 20  1  1  0  0  0  0
 21  4  1  0  0  0  0
 22 13  1  0  0  0  0
 22 21  1  0  0  0  0
 23 14  1  0  0  0  0
 24  7  1  0  0  0  0
 24  2  1  0  0  0  0
 25  5  1  0  0  0  0
 27  2  2  0  0  0  0
 27 14  1  0  0  0  0
 28 26  1  6  0  0  0
 28 23  1  0  0  0  0
 30 29  1  0  0  0  0
 31 30  1  0  0  0  0
 32 31  1  0  0  0  0
 32 30  1  0  0  0  0
M  END
>  <MODEL>
1

>  <REMARK>
 VINA RESULT:     -11.0      0.000      0.000
  Name = 
  2 active torsions:
  status: ('A' for Active; 'I' for Inactive)
    1  A    between atoms: C_1  and  C_10
    2  A    between atoms: C_10  and  C_24
                            x       y       z     vdW  Elec       q    Type
                         _______ _______ _______ _____ _____    ______ ____

>  <TORSDO>
F 2

$$$$
=
 OpenBabel10262421373D

 32 38  0  0  1  0  0  0  0  0999 V2000
  183.0290  179.3100  144.5610 C   0  0  1  0  0  3  0  0  0  0  0  0
  187.5470  177.7930  142.3900 C   0  0  0  0  0  0  0  0  0  0  0  0
  190.5050  176.6670  146.2180 C   0  0  0  0  0  2  0  0  0  0  0  0
  191.6900  177.0940  145.3730 C   0  0  0  0  0  2  0  0  0  0  0  0
  188.5090  177.6350  140.0160 C   0  0  0  0  0  0  0  0  0  0  0  0
  189.4990  177.1830  139.2290 C   0  0  0  0  0  0  0  0  0  0  0  0
  185.0620  178.0510  142.8380 C   0  0  1  0  0  3  0  0  0  0  0  0
  186.6280  177.9680  144.7640 C   0  0  0  0  0  2  0  0  0  0  0  0
  191.8330  176.7620  137.6780 C   0  0  0  0  0  3  0  0  0  0  0  0
  184.2820  178.6660  145.1510 C   0  0  0  0  0  2  0  0  0  0  0  0
  189.2760  177.4610  145.7940 C   0  0  0  0  0  2  0  0  0  0  0  0
  187.7680  177.7570  143.7920 C   0  0  0  0  0  0  0  0  0  0  0  0
  189.0370  177.4210  144.3000 C   0  0  0  0  0  0  0  0  0  0  0  0
  189.8740  177.1520  142.0340 C   0  0  0  0  0  0  0  0  0  0  0  0
  190.5590  177.1460  137.0360 C   0  0  0  0  0  3  0  0  0  0  0  0
  183.2410  180.6660  144.3640 F   0  0  0  0  0  0  0  0  0  0  0  0
  185.4460  178.7120  144.1610 C   0  0  2  0  0  3  0  0  0  0  0  0
  189.4600  177.3590  137.7640 C   0  0  0  0  0  3  0  0  0  0  0  0
  183.8100  178.6980  142.2530 C   0  0  0  0  0  2  0  0  0  0  0  0
  182.6530  178.6160  143.2500 C   0  0  2  0  0  3  0  0  0  0  0  0
  191.4450  176.6880  143.9260 C   0  0  0  0  0  2  0  0  0  0  0  0
  190.0970  177.1390  143.4150 C   0  0  0  0  0  0  0  0  0  0  0  0
  190.9160  176.8140  141.1610 O   0  0  0  0  0  0  0  0  0  0  0  0
  186.2050  178.2260  141.8500 C   0  0  0  0  0  2  0  0  0  0  0  0
  187.4160  178.2680  139.4270 O   0  0  0  0  0  1  0  0  0  0  0  0
  191.8890  176.4610  138.9800 C   0  0  0  0  0  3  0  0  0  0  0  0
  188.6170  177.5130  141.5050 C   0  0  0  0  0  0  0  0  0  0  0  0
  190.6460  176.4030  139.8250 C   0  0  2  0  0  3  0  0  0  0  0  0
  181.3920  179.2330  142.6650 C   0  0  0  0  0  2  0  0  0  0  0  0
  180.1910  178.3440  142.9300 C   0  0  0  0  0  3  0  0  0  0  0  0
  178.9310  179.1830  142.8780 C   0  0  0  0  0  2  0  0  0  0  0  0
  179.5230  178.7900  144.2140 C   0  0  0  0  0  2  0  0  0  0  0  0
  1 16  1  6  0  0  0
  1 10  1  0  0  0  0
  2 12  1  0  0  0  0
  4  3  1  0  0  0  0
  5 27  1  0  0  0  0
  6 28  1  0  0  0  0
  6  5  2  0  0  0  0
  7 24  1  6  0  0  0
  7 17  1  0  0  0  0
  9 26  2  0  0  0  0
 11  3  1  0  0  0  0
 12 13  2  0  0  0  0
 12  8  1  0  0  0  0
 13 11  1  0  0  0  0
 14 22  2  0  0  0  0
 15  9  1  0  0  0  0
 15 18  2  0  0  0  0
 17  8  1  1  0  0  0
 17 10  1  0  0  0  0
 18  6  1  0  0  0  0
 19  7  1  0  0  0  0
 19 20  1  0  0  0  0
 20 29  1  6  0  0  0
 20  1  1  0  0  0  0
 21  4  1  0  0  0  0
 22 21  1  0  0  0  0
 22 13  1  0  0  0  0
 23 14  1  0  0  0  0
 24  2  1  0  0  0  0
 25  5  1  0  0  0  0
 27 14  1  0  0  0  0
 27  2  2  0  0  0  0
 28 26  1  6  0  0  0
 28 23  1  0  0  0  0
 29 30  1  0  0  0  0
 30 32  1  0  0  0  0
 31 30  1  0  0  0  0
 31 32  1  0  0  0  0
M  END
>  <MODEL>
2

>  <REMARK>
 VINA RESULT:     -10.8      1.720      2.605
  Name = 
  2 active torsions:
  status: ('A' for Active; 'I' for Inactive)
    1  A    between atoms: C_1  and  C_10
    2  A    between atoms: C_10  and  C_24
                            x       y       z     vdW  Elec       q    Type
                         _______ _______ _______ _____ _____    ______ ____

>  <TORSDO>
F 2

$$$$
=
 OpenBabel10262421373D

 32 38  0  0  1  0  0  0  0  0999 V2000
  188.3850  177.3380  148.1010 C   0  0  1  0  0  3  0  0  0  0  0  0
  187.1330  177.9930  143.0590 C   0  0  0  0  0  0  0  0  0  0  0  0
  182.3500  179.3320  143.0800 C   0  0  0  0  0  2  0  0  0  0  0  0
  182.1980  178.6520  141.7310 C   0  0  0  0  0  2  0  0  0  0  0  0
  188.3060  177.6870  140.7960 C   0  0  0  0  0  0  0  0  0  0  0  0
  188.2720  177.9020  139.4710 C   0  0  0  0  0  0  0  0  0  0  0  0
  188.4080  178.0880  145.2510 C   0  0  1  0  0  3  0  0  0  0  0  0
  185.9320  178.2780  145.2920 C   0  0  0  0  0  2  0  0  0  0  0  0
  187.9350  177.8220  136.6590 C   0  0  0  0  0  3  0  0  0  0  0  0
  187.1450  177.9150  147.4230 C   0  0  0  0  0  2  0  0  0  0  0  0
  183.4430  178.6280  143.8740 C   0  0  0  0  0  2  0  0  0  0  0  0
  185.9310  178.2110  143.7810 C   0  0  0  0  0  0  0  0  0  0  0  0
  184.7300  178.4740  143.0940 C   0  0  0  0  0  0  0  0  0  0  0  0
  185.9070  178.3070  140.9730 C   0  0  0  0  0  0  0  0  0  0  0  0
  189.2380  177.4940  137.2730 C   0  0  0  0  0  3  0  0  0  0  0  0
  188.3420  175.9520  148.0650 F   0  0  0  0  0  0  0  0  0  0  0  0
  187.1310  177.5910  145.9290 C   0  0  2  0  0  3  0  0  0  0  0  0
  189.3980  177.5170  138.5990 C   0  0  0  0  0  3  0  0  0  0  0  0
  189.6430  177.5080  145.9340 C   0  0  0  0  0  2  0  0  0  0  0  0
  189.6480  177.8670  147.4210 C   0  0  2  0  0  3  0  0  0  0  0  0
  183.4680  178.8650  140.9190 C   0  0  0  0  0  2  0  0  0  0  0  0
  184.7170  178.4990  141.6840 C   0  0  0  0  0  0  0  0  0  0  0  0
  185.8990  178.3910  139.5750 O   0  0  0  0  0  0  0  0  0  0  0  0
  188.4010  177.6400  143.7980 C   0  0  0  0  0  2  0  0  0  0  0  0
  189.4400  177.1020  141.3540 O   0  0  0  0  0  1  0  0  0  0  0  0
  186.9250  178.3040  137.3920 C   0  0  0  0  0  3  0  0  0  0  0  0
  187.1140  178.0150  141.6420 C   0  0  0  0  0  0  0  0  0  0  0  0
  187.1010  178.6280  138.8500 C   0  0  2  0  0  3  0  0  0  0  0  0
  190.8910  177.3170  148.1040 C   0  0  0  0  0  2  0  0  0  0  0  0
  191.6380  176.3780  147.1760 C   0  0  0  0  0  3  0  0  0  0  0  0
  191.5410  174.9650  147.7170 C   0  0  0  0  0  2  0  0  0  0  0  0
  192.8050  175.7710  147.9260 C   0  0  0  0  0  2  0  0  0  0  0  0
  1 16  1  6  0  0  0
  2 12  1  0  0  0  0
  2 24  1  0  0  0  0
  3 11  1  0  0  0  0
  4  3  1  0  0  0  0
  5 25  1  0  0  0  0
  5 27  1  0  0  0  0
  6  5  2  0  0  0  0
  7 24  1  6  0  0  0
  7 17  1  0  0  0  0
  7 19  1  0  0  0  0
  9 15  1  0  0  0  0
  9 26  2  0  0  0  0
 10  1  1  0  0  0  0
 12  8  1  0  0  0  0
 13 12  2  0  0  0  0
 13 11  1  0  0  0  0
 14 27  1  0  0  0  0
 14 22  2  0  0  0  0
 15 18  2  0  0  0  0
 17  8  1  6  0  0  0
 17 10  1  0  0  0  0
 18  6  1  0  0  0  0
 19 20  1  0  0  0  0
 20  1  1  0  0  0  0
 20 29  1  1  0  0  0
 21 22  1  0  0  0  0
 21  4  1  0  0  0  0
 22 13  1  0  0  0  0
 23 14  1  0  0  0  0
 27  2  2  0  0  0  0
 28 26  1  6  0  0  0
 28  6  1  0  0  0  0
 28 23  1  0  0  0  0
 30 31  1  0  0  0  0
 30 32  1  0  0  0  0
 30 29  1  0  0  0  0
 31 32  1  0  0  0  0
M  END
>  <MODEL>
3

>  <REMARK>
 VINA RESULT:     -10.7      2.522      7.316
  Name = 
  2 active torsions:
  status: ('A' for Active; 'I' for Inactive)
    1  A    between atoms: C_1  and  C_10
    2  A    between atoms: C_10  and  C_24
                            x       y       z     vdW  Elec       q    Type
                         _______ _______ _______ _____ _____    ______ ____

>  <TORSDO>
F 2

$$$$
=
 OpenBabel10262421373D

 32 38  0  0  1  0  0  0  0  0999 V2000
  180.4230  179.4500  141.0310 C   0  0  1  0  0  3  0  0  0  0  0  0
  185.3540  178.3210  142.3850 C   0  0  0  0  0  0  0  0  0  0  0  0
  185.2940  178.0180  147.3430 C   0  0  0  0  0  2  0  0  0  0  0  0
  186.7310  178.5040  147.3470 C   0  0  0  0  0  2  0  0  0  0  0  0
  187.5980  178.0360  141.1710 C   0  0  0  0  0  0  0  0  0  0  0  0
  188.8770  177.6370  141.2470 C   0  0  0  0  0  0  0  0  0  0  0  0
  183.1310  178.2940  141.1610 C   0  0  1  0  0  3  0  0  0  0  0  0
  183.1430  178.6280  143.6230 C   0  0  0  0  0  2  0  0  0  0  0  0
  191.6810  177.3630  141.5560 C   0  0  0  0  0  3  0  0  0  0  0  0
  181.0500  179.0470  142.3630 C   0  0  0  0  0  2  0  0  0  0  0  0
  184.5760  178.5920  146.1280 C   0  0  0  0  0  2  0  0  0  0  0  0
  184.6480  178.4660  143.6070 C   0  0  0  0  0  0  0  0  0  0  0  0
  185.3280  178.3580  144.8360 C   0  0  0  0  0  0  0  0  0  0  0  0
  187.4110  177.9590  143.6470 C   0  0  0  0  0  0  0  0  0  0  0  0
  191.0790  177.5030  140.2140 C   0  0  0  0  0  3  0  0  0  0  0  0
  180.6630  180.7940  140.7830 F   0  0  0  0  0  0  0  0  0  0  0  0
  182.5750  179.1390  142.3070 C   0  0  2  0  0  3  0  0  0  0  0  0
  189.7600  177.6460  140.0640 C   0  0  0  0  0  3  0  0  0  0  0  0
  182.5000  178.7020  139.8330 C   0  0  0  0  0  2  0  0  0  0  0  0
  180.9780  178.5760  139.9050 C   0  0  2  0  0  3  0  0  0  0  0  0
  187.4620  177.9150  146.1480 C   0  0  0  0  0  2  0  0  0  0  0  0
  186.7190  178.1260  144.8510 C   0  0  0  0  0  0  0  0  0  0  0  0
  188.7810  177.6700  143.6710 O   0  0  0  0  0  0  0  0  0  0  0  0
  184.6330  178.5110  141.0720 C   0  0  0  0  0  2  0  0  0  0  0  0
  187.0940  178.4510  139.9400 O   0  0  0  0  0  1  0  0  0  0  0  0
  190.9190  177.2150  142.6450 C   0  0  0  0  0  3  0  0  0  0  0  0
  186.7520  178.0910  142.4070 C   0  0  0  0  0  0  0  0  0  0  0  0
  189.4230  177.0840  142.5430 C   0  0  2  0  0  3  0  0  0  0  0  0
  180.3410  178.9530  138.5760 C   0  0  0  0  0  2  0  0  0  0  0  0
  181.3520  179.6420  137.6780 C   0  0  0  0  0  3  0  0  0  0  0  0
  180.8050  180.9920  137.2600 C   0  0  0  0  0  2  0  0  0  0  0  0
  180.7450  179.8210  136.3020 C   0  0  0  0  0  2  0  0  0  0  0  0
  1 16  1  6  0  0  0
  1 10  1  0  0  0  0
  2 27  2  0  0  0  0
  2 12  1  0  0  0  0
  3  4  1  0  0  0  0
  5  6  2  0  0  0  0
  5 27  1  0  0  0  0
  6 28  1  0  0  0  0
  7 19  1  6  0  0  0
  7 17  1  0  0  0  0
  9 26  2  0  0  0  0
 11  3  1  0  0  0  0
 12  8  1  0  0  0  0
 12 13  2  0  0  0  0
 13 22  1  0  0  0  0
 13 11  1  0  0  0  0
 14 23  1  0  0  0  0
 14 22  2  0  0  0  0
 15  9  1  0  0  0  0
 17 10  1  1  0  0  0
 17  8  1  0  0  0  0
 18 15  2  0  0  0  0
 18  6  1  0  0  0  0
 19 20  1  0  0  0  0
 20 29  1  6  0  0  0
 20  1  1  0  0  0  0
 21  4  1  0  0  0  0
 22 21  1  0  0  0  0
 24  7  1  0  0  0  0
 24  2  1  0  0  0  0
 25  5  1  0  0  0  0
 27 14  1  0  0  0  0
 28 26  1  1  0  0  0
 28 23  1  0  0  0  0
 30 29  1  0  0  0  0
 31 30  1  0  0  0  0
 32 31  1  0  0  0  0
 32 30  1  0  0  0  0
M  END
>  <MODEL>
4

>  <REMARK>
 VINA RESULT:     -10.5      1.148      1.638
  Name = 
  2 active torsions:
  status: ('A' for Active; 'I' for Inactive)
    1  A    between atoms: C_1  and  C_10
    2  A    between atoms: C_10  and  C_24
                            x       y       z     vdW  Elec       q    Type
                         _______ _______ _______ _____ _____    ______ ____

>  <TORSDO>
F 2

$$$$
=
 OpenBabel10262421373D

 32 38  0  0  1  0  0  0  0  0999 V2000
  181.9130  178.8960  140.4880 C   0  0  1  0  0  3  0  0  0  0  0  0
  186.7150  178.0940  142.4190 C   0  0  0  0  0  0  0  0  0  0  0  0
  189.7310  178.2320  138.4750 C   0  0  0  0  0  2  0  0  0  0  0  0
  190.6420  177.2530  139.1910 C   0  0  0  0  0  2  0  0  0  0  0  0
  187.7330  177.5770  144.7180 C   0  0  0  0  0  0  0  0  0  0  0  0
  188.8470  177.4770  145.4600 C   0  0  0  0  0  0  0  0  0  0  0  0
  184.3510  178.9750  142.1440 C   0  0  1  0  0  3  0  0  0  0  0  0
  185.7280  178.5770  140.1160 C   0  0  0  0  0  2  0  0  0  0  0  0
  191.1860  176.6940  146.8550 C   0  0  0  0  0  3  0  0  0  0  0  0
  183.2990  178.9970  139.8560 C   0  0  0  0  0  2  0  0  0  0  0  0
  188.2950  178.0020  138.9290 C   0  0  0  0  0  2  0  0  0  0  0  0
  186.8790  178.1760  141.0120 C   0  0  0  0  0  0  0  0  0  0  0  0
  188.1500  177.9870  140.4350 C   0  0  0  0  0  0  0  0  0  0  0  0
  189.1000  177.6350  142.6450 C   0  0  0  0  0  0  0  0  0  0  0  0
  189.8960  176.8290  147.5610 C   0  0  0  0  0  3  0  0  0  0  0  0
  181.5220  177.5670  140.5620 F   0  0  0  0  0  0  0  0  0  0  0  0
  184.3620  178.3540  140.7470 C   0  0  2  0  0  3  0  0  0  0  0  0
  188.7880  177.1850  146.9050 C   0  0  0  0  0  3  0  0  0  0  0  0
  182.9620  178.8710  142.7700 C   0  0  0  0  0  2  0  0  0  0  0  0
  181.9220  179.5430  141.8740 C   0  0  2  0  0  3  0  0  0  0  0  0
  190.6490  177.5730  140.6800 C   0  0  0  0  0  2  0  0  0  0  0  0
  189.2580  177.6930  141.2560 C   0  0  0  0  0  0  0  0  0  0  0  0
  190.2160  177.4010  143.4590 O   0  0  0  0  0  0  0  0  0  0  0  0
  185.3370  178.2250  143.0250 C   0  0  0  0  0  2  0  0  0  0  0  0
  186.4950  177.4170  145.3370 O   0  0  0  0  0  1  0  0  0  0  0  0
  191.3220  177.0740  145.5800 C   0  0  0  0  0  3  0  0  0  0  0  0
  187.8310  177.7940  143.2390 C   0  0  0  0  0  0  0  0  0  0  0  0
  190.1980  177.7470  144.8400 C   0  0  2  0  0  3  0  0  0  0  0  0
  180.5390  179.4700  142.5040 C   0  0  0  0  0  2  0  0  0  0  0  0
  180.6260  178.9280  143.9190 C   0  0  0  0  0  3  0  0  0  0  0  0
  179.7810  177.6750  144.0230 C   0  0  0  0  0  2  0  0  0  0  0  0
  179.2530  178.9890  144.5550 C   0  0  0  0  0  2  0  0  0  0  0  0
  1 16  1  1  0  0  0
  1 20  1  0  0  0  0
  2 24  1  0  0  0  0
  2 27  1  0  0  0  0
  3 11  1  0  0  0  0
  3  4  1  0  0  0  0
  4 21  1  0  0  0  0
  5 25  1  0  0  0  0
  5  6  2  0  0  0  0
  6 18  1  0  0  0  0
  7 19  1  1  0  0  0
  7 24  1  0  0  0  0
  8 17  1  0  0  0  0
  8 12  1  0  0  0  0
  9 15  1  0  0  0  0
 10  1  1  0  0  0  0
 11 13  1  0  0  0  0
 12  2  2  0  0  0  0
 13 12  1  0  0  0  0
 13 22  2  0  0  0  0
 14 27  2  0  0  0  0
 14 23  1  0  0  0  0
 17 10  1  6  0  0  0
 17  7  1  0  0  0  0
 18 15  2  0  0  0  0
 20 29  1  1  0  0  0
 20 19  1  0  0  0  0
 21 22  1  0  0  0  0
 22 14  1  0  0  0  0
 23 28  1  0  0  0  0
 26  9  2  0  0  0  0
 27  5  1  0  0  0  0
 28  6  1  0  0  0  0
 28 26  1  1  0  0  0
 29 30  1  0  0  0  0
 30 31  1  0  0  0  0
 30 32  1  0  0  0  0
 31 32  1  0  0  0  0
M  END
>  <MODEL>
5

>  <REMARK>
 VINA RESULT:     -10.4      1.744      4.841
  Name = 
  2 active torsions:
  status: ('A' for Active; 'I' for Inactive)
    1  A    between atoms: C_1  and  C_10
    2  A    between atoms: C_10  and  C_24
                            x       y       z     vdW  Elec       q    Type
                         _______ _______ _______ _____ _____    ______ ____

>  <TORSDO>
F 2

$$$$
=
 OpenBabel10262421373D

 32 38  0  0  1  0  0  0  0  0999 V2000
  191.0610  176.5940  137.7500 C   0  0  1  0  0  3  0  0  0  0  0  0
  188.4210  177.5590  142.1680 C   0  0  0  0  0  0  0  0  0  0  0  0
  191.7320  176.9260  145.8150 C   0  0  0  0  0  2  0  0  0  0  0  0
  190.5930  176.4790  146.7130 C   0  0  0  0  0  2  0  0  0  0  0  0
  185.9960  178.1160  142.8020 C   0  0  0  0  0  0  0  0  0  0  0  0
  185.1470  178.5230  143.7590 C   0  0  0  0  0  0  0  0  0  0  0  0
  189.2880  177.7660  139.7920 C   0  0  1  0  0  3  0  0  0  0  0  0
  190.8320  176.9760  141.5700 C   0  0  0  0  0  2  0  0  0  0  0  0
  183.2930  178.7960  145.8850 C   0  0  0  0  0  3  0  0  0  0  0  0
  191.5160  176.7540  139.1990 C   0  0  0  0  0  2  0  0  0  0  0  0
  191.3970  176.5740  144.3710 C   0  0  0  0  0  2  0  0  0  0  0  0
  189.7220  177.1710  142.5790 C   0  0  0  0  0  0  0  0  0  0  0  0
  190.0280  177.0630  143.9500 C   0  0  0  0  0  0  0  0  0  0  0  0
  187.7570  177.7240  144.5090 C   0  0  0  0  0  0  0  0  0  0  0  0
  182.8500  178.8970  144.4790 C   0  0  0  0  0  3  0  0  0  0  0  0
  190.5320  175.3270  137.5580 F   0  0  0  0  0  0  0  0  0  0  0  0
  190.3280  176.7080  140.1590 C   0  0  2  0  0  3  0  0  0  0  0  0
  183.7180  178.7550  143.4730 C   0  0  0  0  0  3  0  0  0  0  0  0
  188.8380  177.6000  138.3430 C   0  0  0  0  0  2  0  0  0  0  0  0
  190.0390  177.6760  137.3990 C   0  0  2  0  0  3  0  0  0  0  0  0
  189.3500  177.2990  146.3910 C   0  0  0  0  0  2  0  0  0  0  0  0
  189.0330  177.3190  144.9150 C   0  0  0  0  0  0  0  0  0  0  0  0
  186.7900  178.0340  145.4740 O   0  0  0  0  0  0  0  0  0  0  0  0
  188.0780  177.6020  140.6970 C   0  0  0  0  0  2  0  0  0  0  0  0
  185.5130  177.9280  141.5080 O   0  0  0  0  0  1  0  0  0  0  0  0
  184.5910  178.7200  146.1980 C   0  0  0  0  0  3  0  0  0  0  0  0
  187.4230  177.8110  143.1420 C   0  0  0  0  0  0  0  0  0  0  0  0
  185.6600  178.8340  145.1450 C   0  0  2  0  0  3  0  0  0  0  0  0
  189.5960  177.5400  135.9500 C   0  0  0  0  0  2  0  0  0  0  0  0
  188.1790  177.0040  135.8740 C   0  0  0  0  0  3  0  0  0  0  0  0
  188.0580  176.0930  134.6690 C   0  0  0  0  0  2  0  0  0  0  0  0
  187.5290  177.5100  134.6030 C   0  0  0  0  0  2  0  0  0  0  0  0
  1 16  1  1  0  0  0
  1 10  1  0  0  0  0
  2 12  2  0  0  0  0
  2 27  1  0  0  0  0
  3  4  1  0  0  0  0
  5 27  1  0  0  0  0
  5  6  2  0  0  0  0
  6 28  1  0  0  0  0
  7 19  1  6  0  0  0
  7 17  1  0  0  0  0
  7 24  1  0  0  0  0
  8 12  1  0  0  0  0
  9 26  2  0  0  0  0
 11  3  1  0  0  0  0
 12 13  1  0  0  0  0
 13 11  1  0  0  0  0
 13 22  2  0  0  0  0
 14 22  1  0  0  0  0
 14 23  1  0  0  0  0
 15  9  1  0  0  0  0
 17 10  1  6  0  0  0
 17  8  1  0  0  0  0
 18  6  1  0  0  0  0
 18 15  2  0  0  0  0
 20 29  1  6  0  0  0
 20  1  1  0  0  0  0
 20 19  1  0  0  0  0
 21  4  1  0  0  0  0
 22 21  1  0  0  0  0
 24  2  1  0  0  0  0
 25  5  1  0  0  0  0
 27 14  2  0  0  0  0
 28 23  1  0  0  0  0
 28 26  1  1  0  0  0
 30 29  1  0  0  0  0
 31 30  1  0  0  0  0
 32 31  1  0  0  0  0
 32 30  1  0  0  0  0
M  END
>  <MODEL>
6

>  <REMARK>
 VINA RESULT:     -10.4      3.209      7.160
  Name = 
  2 active torsions:
  status: ('A' for Active; 'I' for Inactive)
    1  A    between atoms: C_1  and  C_10
    2  A    between atoms: C_10  and  C_24
                            x       y       z     vdW  Elec       q    Type
                         _______ _______ _______ _____ _____    ______ ____

>  <TORSDO>
F 2

$$$$
=
 OpenBabel10262421373D

 32 38  0  0  1  0  0  0  0  0999 V2000
  191.6760  177.7490  144.3560 C   0  0  1  0  0  3  0  0  0  0  0  0
  186.9820  178.2150  142.0820 C   0  0  0  0  0  0  0  0  0  0  0  0
  187.8590  177.7880  137.2120 C   0  0  0  0  0  2  0  0  0  0  0  0
  186.6770  178.7070  136.9620 C   0  0  0  0  0  2  0  0  0  0  0  0
  184.5800  178.6880  142.8540 C   0  0  0  0  0  0  0  0  0  0  0  0
  183.2770  178.7150  142.5300 C   0  0  0  0  0  0  0  0  0  0  0  0
  188.8150  177.5120  143.6900 C   0  0  1  0  0  3  0  0  0  0  0  0
  189.3650  177.7730  141.2820 C   0  0  0  0  0  2  0  0  0  0  0  0
  180.6400  179.3410  141.7040 C   0  0  0  0  0  3  0  0  0  0  0  0
  191.2110  177.5340  142.9180 C   0  0  0  0  0  2  0  0  0  0  0  0
  188.4840  178.1330  138.5580 C   0  0  0  0  0  2  0  0  0  0  0  0
  187.9110  178.0980  141.0160 C   0  0  0  0  0  0  0  0  0  0  0  0
  187.4720  178.1820  139.6810 C   0  0  0  0  0  0  0  0  0  0  0  0
  185.1880  178.4960  140.4530 C   0  0  0  0  0  0  0  0  0  0  0  0
  180.9950  179.3140  143.1370 C   0  0  0  0  0  3  0  0  0  0  0  0
  191.8330  179.1050  144.6050 F   0  0  0  0  0  0  0  0  0  0  0  0
  189.8120  178.1080  142.6970 C   0  0  2  0  0  3  0  0  0  0  0  0
  182.2400  179.0330  143.5310 C   0  0  0  0  0  3  0  0  0  0  0  0
  189.2850  177.7300  145.1260 C   0  0  0  0  0  2  0  0  0  0  0  0
  190.6750  177.1240  145.3290 C   0  0  2  0  0  3  0  0  0  0  0  0
  185.5880  178.4100  137.9850 C   0  0  0  0  0  2  0  0  0  0  0  0
  186.1070  178.4040  139.4030 C   0  0  0  0  0  0  0  0  0  0  0  0
  183.8260  178.6570  140.1680 O   0  0  0  0  0  0  0  0  0  0  0  0
  187.4700  178.1980  143.5110 C   0  0  0  0  0  2  0  0  0  0  0  0
  184.9520  178.9510  144.1700 O   0  0  0  0  0  1  0  0  0  0  0  0
  181.5030  178.9310  140.7680 C   0  0  0  0  0  3  0  0  0  0  0  0
  185.6130  178.4420  141.7970 C   0  0  0  0  0  0  0  0  0  0  0  0
  182.8340  178.3340  141.1370 C   0  0  2  0  0  3  0  0  0  0  0  0
  191.1400  177.3120  146.7650 C   0  0  0  0  0  2  0  0  0  0  0  0
  191.2620  175.9710  147.4650 C   0  0  0  0  0  3  0  0  0  0  0  0
  192.6240  175.8760  148.1230 C   0  0  0  0  0  2  0  0  0  0  0  0
  192.3680  175.1710  146.8080 C   0  0  0  0  0  2  0  0  0  0  0  0
  1 16  1  1  0  0  0
  1 20  1  0  0  0  0
  2 24  1  0  0  0  0
  3 11  1  0  0  0  0
  4  3  1  0  0  0  0
  4 21  1  0  0  0  0
  5 25  1  0  0  0  0
  6  5  2  0  0  0  0
  6 18  1  0  0  0  0
  7 24  1  1  0  0  0
  7 19  1  0  0  0  0
  9 15  1  0  0  0  0
 10  1  1  0  0  0  0
 11 13  1  0  0  0  0
 12  8  1  0  0  0  0
 12  2  2  0  0  0  0
 13 12  1  0  0  0  0
 14 27  2  0  0  0  0
 15 18  2  0  0  0  0
 17  8  1  6  0  0  0
 17 10  1  0  0  0  0
 17  7  1  0  0  0  0
 19 20  1  0  0  0  0
 20 29  1  1  0  0  0
 21 22  1  0  0  0  0
 22 13  2  0  0  0  0
 22 14  1  0  0  0  0
 23 14  1  0  0  0  0
 23 28  1  0  0  0  0
 26  9  2  0  0  0  0
 27  2  1  0  0  0  0
 27  5  1  0  0  0  0
 28 26  1  6  0  0  0
 28  6  1  0  0  0  0
 29 30  1  0  0  0  0
 30 31  1  0  0  0  0
 32 30  1  0  0  0  0
 32 31  1  0  0  0  0
M  END
>  <MODEL>
7

>  <REMARK>
 VINA RESULT:     -10.1      2.936      8.897
  Name = 
  2 active torsions:
  status: ('A' for Active; 'I' for Inactive)
    1  A    between atoms: C_1  and  C_10
    2  A    between atoms: C_10  and  C_24
                            x       y       z     vdW  Elec       q    Type
                         _______ _______ _______ _____ _____    ______ ____

>  <TORSDO>
F 2

$$$$
=
 OpenBabel10262421373D

 32 38  0  0  1  0  0  0  0  0999 V2000
  191.0990  176.8430  139.0820 C   0  0  1  0  0  3  0  0  0  0  0  0
  187.0910  177.8980  142.2840 C   0  0  0  0  0  0  0  0  0  0  0  0
  189.0470  177.8780  146.8500 C   0  0  0  0  0  2  0  0  0  0  0  0
  187.7070  177.3970  147.3750 C   0  0  0  0  0  2  0  0  0  0  0  0
  184.5630  178.2680  142.0400 C   0  0  0  0  0  0  0  0  0  0  0  0
  183.4210  178.6650  142.6230 C   0  0  0  0  0  0  0  0  0  0  0  0
  188.6790  177.9970  140.3070 C   0  0  1  0  0  3  0  0  0  0  0  0
  189.5970  177.5040  142.5610 C   0  0  0  0  0  2  0  0  0  0  0  0
  180.9560  178.9270  143.9960 C   0  0  0  0  0  3  0  0  0  0  0  0
  191.0390  177.1610  140.5750 C   0  0  0  0  0  2  0  0  0  0  0  0
  189.2310  177.3830  145.4210 C   0  0  0  0  0  2  0  0  0  0  0  0
  188.2060  177.6710  143.1320 C   0  0  0  0  0  0  0  0  0  0  0  0
  188.0490  177.7020  144.5310 C   0  0  0  0  0  0  0  0  0  0  0  0
  185.6820  178.1830  144.2550 C   0  0  0  0  0  0  0  0  0  0  0  0
  180.9960  178.8720  142.5210 C   0  0  0  0  0  3  0  0  0  0  0  0
  190.7450  175.5190  138.8660 F   0  0  0  0  0  0  0  0  0  0  0  0
  189.6060  177.0770  141.1010 C   0  0  2  0  0  3  0  0  0  0  0  0
  182.1540  178.7350  141.8690 C   0  0  0  0  0  3  0  0  0  0  0  0
  188.7440  177.6740  138.8160 C   0  0  0  0  0  2  0  0  0  0  0  0
  190.1810  177.7900  138.3080 C   0  0  2  0  0  3  0  0  0  0  0  0
  186.5900  178.0660  146.5840 C   0  0  0  0  0  2  0  0  0  0  0  0
  186.7770  177.9370  145.0910 C   0  0  0  0  0  0  0  0  0  0  0  0
  184.4340  178.4750  144.8190 O   0  0  0  0  0  0  0  0  0  0  0  0
  187.2510  177.7900  140.7860 C   0  0  0  0  0  2  0  0  0  0  0  0
  184.5470  177.9320  140.6880 O   0  0  0  0  0  1  0  0  0  0  0  0
  182.0800  179.0020  144.7180 C   0  0  0  0  0  3  0  0  0  0  0  0
  185.8140  178.1300  142.8520 C   0  0  0  0  0  0  0  0  0  0  0  0
  183.4260  179.1340  144.0590 C   0  0  2  0  0  3  0  0  0  0  0  0
  190.2510  177.4980  136.8170 C   0  0  0  0  0  2  0  0  0  0  0  0
  188.8690  177.2020  136.2660 C   0  0  0  0  0  3  0  0  0  0  0  0
  188.9370  175.9670  135.3910 C   0  0  0  0  0  2  0  0  0  0  0  0
  188.9000  177.3420  134.7580 C   0  0  0  0  0  2  0  0  0  0  0  0
  1 16  1  1  0  0  0
  1 10  1  0  0  0  0
  2 27  2  0  0  0  0
  2 12  1  0  0  0  0
  3  4  1  0  0  0  0
  5  6  2  0  0  0  0
  5 27  1  0  0  0  0
  6 28  1  0  0  0  0
  7 19  1  6  0  0  0
  7 24  1  0  0  0  0
  7 17  1  0  0  0  0
  8 12  1  0  0  0  0
  9 26  2  0  0  0  0
 11  3  1  0  0  0  0
 12 13  2  0  0  0  0
 13 22  1  0  0  0  0
 13 11  1  0  0  0  0
 14 23  1  0  0  0  0
 14 22  2  0  0  0  0
 15  9  1  0  0  0  0
 17 10  1  6  0  0  0
 17  8  1  0  0  0  0
 18 15  2  0  0  0  0
 18  6  1  0  0  0  0
 20 29  1  6  0  0  0
 20 19  1  0  0  0  0
 20  1  1  0  0  0  0
 21  4  1  0  0  0  0
 22 21  1  0  0  0  0
 24  2  1  0  0  0  0
 25  5  1  0  0  0  0
 27 14  1  0  0  0  0
 28 26  1  1  0  0  0
 28 23  1  0  0  0  0
 30 29  1  0  0  0  0
 31 30  1  0  0  0  0
 32 31  1  0  0  0  0
 32 30  1  0  0  0  0
M  END
>  <MODEL>
8

>  <REMARK>
 VINA RESULT:     -10.0      2.747      7.197
  Name = 
  2 active torsions:
  status: ('A' for Active; 'I' for Inactive)
    1  A    between atoms: C_1  and  C_10
    2  A    between atoms: C_10  and  C_24
                            x       y       z     vdW  Elec       q    Type
                         _______ _______ _______ _____ _____    ______ ____

>  <TORSDO>
F 2

$$$$
=
 OpenBabel10262421373D

 32 38  0  0  1  0  0  0  0  0999 V2000
  191.1190  177.5630  144.3840 C   0  0  1  0  0  3  0  0  0  0  0  0
  187.2140  178.0800  140.9340 C   0  0  0  0  0  0  0  0  0  0  0  0
  189.3360  177.4850  136.4830 C   0  0  0  0  0  2  0  0  0  0  0  0
  188.2930  178.4250  135.9080 C   0  0  0  0  0  2  0  0  0  0  0  0
  184.7100  178.6380  141.0290 C   0  0  0  0  0  0  0  0  0  0  0  0
  183.5410  178.6880  140.3700 C   0  0  0  0  0  0  0  0  0  0  0  0
  188.5300  177.3780  142.9870 C   0  0  1  0  0  3  0  0  0  0  0  0
  189.7070  177.5530  140.8070 C   0  0  0  0  0  2  0  0  0  0  0  0
  181.2390  179.3560  138.8590 C   0  0  0  0  0  3  0  0  0  0  0  0
  191.0450  177.3160  142.8790 C   0  0  0  0  0  2  0  0  0  0  0  0
  189.5930  177.8540  137.9390 C   0  0  0  0  0  2  0  0  0  0  0  0
  188.3880  177.9080  140.1560 C   0  0  0  0  0  0  0  0  0  0  0  0
  188.3210  177.9630  138.7510 C   0  0  0  0  0  0  0  0  0  0  0  0
  185.9250  178.3580  138.8810 C   0  0  0  0  0  0  0  0  0  0  0  0
  181.2010  179.3640  140.3350 C   0  0  0  0  0  3  0  0  0  0  0  0
  191.2490  178.9200  144.6360 F   0  0  0  0  0  0  0  0  0  0  0  0
  189.7740  177.9190  142.2820 C   0  0  2  0  0  3  0  0  0  0  0  0
  182.2870  179.0630  141.0520 C   0  0  0  0  0  3  0  0  0  0  0  0
  188.6100  177.6270  144.4910 C   0  0  0  0  0  2  0  0  0  0  0  0
  189.8760  176.9930  145.0700 C   0  0  2  0  0  3  0  0  0  0  0  0
  186.9630  178.1870  136.6100 C   0  0  0  0  0  2  0  0  0  0  0  0
  187.0870  178.2110  138.1150 C   0  0  0  0  0  0  0  0  0  0  0  0
  184.6940  178.5450  138.2410 O   0  0  0  0  0  0  0  0  0  0  0  0
  187.3040  178.0930  142.4420 C   0  0  0  0  0  2  0  0  0  0  0  0
  184.7280  178.9300  142.3910 O   0  0  0  0  0  1  0  0  0  0  0  0
  182.3060  178.8970  138.1950 C   0  0  0  0  0  3  0  0  0  0  0  0
  185.9770  178.3330  140.2900 C   0  0  0  0  0  0  0  0  0  0  0  0
  183.4700  178.2770  138.9180 C   0  0  2  0  0  3  0  0  0  0  0  0
  189.9500  177.2110  146.5730 C   0  0  0  0  0  2  0  0  0  0  0  0
  188.7050  177.9230  147.0700 C   0  0  0  0  0  3  0  0  0  0  0  0
  188.9240  178.3610  148.5040 C   0  0  0  0  0  2  0  0  0  0  0  0
  188.1030  177.1240  148.2080 C   0  0  0  0  0  2  0  0  0  0  0  0
  1 16  1  6  0  0  0
  1 20  1  0  0  0  0
  2 24  1  0  0  0  0
  3 11  1  0  0  0  0
  4  3  1  0  0  0  0
  4 21  1  0  0  0  0
  5 25  1  0  0  0  0
  6  5  2  0  0  0  0
  6 18  1  0  0  0  0
  7 24  1  6  0  0  0
  7 19  1  0  0  0  0
  9 15  1  0  0  0  0
 10  1  1  0  0  0  0
 11 13  1  0  0  0  0
 12  8  1  0  0  0  0
 12  2  2  0  0  0  0
 13 12  1  0  0  0  0
 14 27  2  0  0  0  0
 15 18  2  0  0  0  0
 17  8  1  6  0  0  0
 17 10  1  0  0  0  0
 17  7  1  0  0  0  0
 19 20  1  0  0  0  0
 20 29  1  1  0  0  0
 21 22  1  0  0  0  0
 22 13  2  0  0  0  0
 22 14  1  0  0  0  0
 23 14  1  0  0  0  0
 23 28  1  0  0  0  0
 26  9  2  0  0  0  0
 27  2  1  0  0  0  0
 27  5  1  0  0  0  0
 28 26  1  6  0  0  0
 28  6  1  0  0  0  0
 29 30  1  0  0  0  0
 30 32  1  0  0  0  0
 30 31  1  0  0  0  0
 32 31  1  0  0  0  0
M  END
>  <MODEL>
9

>  <REMARK>
 VINA RESULT:      -9.8      2.730      8.426
  Name = 
  2 active torsions:
  status: ('A' for Active; 'I' for Inactive)
    1  A    between atoms: C_1  and  C_10
    2  A    between atoms: C_10  and  C_24
                            x       y       z     vdW  Elec       q    Type
                         _______ _______ _______ _____ _____    ______ ____

>  <TORSDO>
F 2

$$$$
