=
 OpenBabel10262423313D

 34 39  0  0  1  0  0  0  0  0999 V2000
  180.1830  178.2030  140.1350 C   0  0  1  0  0  3  0  0  0  0  0  0
  182.3930  178.1590  137.0630 C   0  0  0  0  0  3  0  0  0  0  0  0
  185.4630  178.3720  138.5210 C   0  0  0  0  0  0  0  0  0  0  0  0
  180.3100  179.3380  137.4270 C   0  0  0  0  0  2  0  0  0  0  0  0
  180.9600  179.3980  142.2000 N   0  0  0  0  0  0  0  0  0  0  0  0
  180.4990  178.1110  141.6480 C   0  0  0  0  0  2  0  0  0  0  0  0
  179.5970  180.5780  140.6220 C   0  0  0  0  0  0  0  0  0  0  0  0
  179.5710  181.7420  139.9470 N   0  0  0  0  0  0  0  0  0  0  0  0
  186.0290  178.7130  137.2980 O   0  0  0  0  0  0  0  0  0  0  0  0
  179.9200  180.4290  142.0670 C   0  0  0  0  0  2  0  0  0  0  0  0
  179.7600  180.0910  138.5850 C   0  0  0  0  0  0  0  0  0  0  0  0
  179.6860  179.5320  139.7950 N   0  0  0  0  0  0  0  0  0  0  0  0
  179.6750  181.4350  138.6580 N   0  0  0  0  0  0  0  0  0  0  0  0
  183.5650  177.2670  137.3250 C   0  0  0  0  0  2  0  0  0  0  0  0
  186.0450  178.7130  139.5860 O   0  0  0  0  0  1  0  0  0  0  0  0
  184.2300  177.6420  138.5700 N   0  0  0  0  0  0  0  0  0  0  0  0
  183.6370  177.2970  139.8630 C   0  0  0  0  0  2  0  0  0  0  0  0
  181.3920  178.4080  137.9200 C   0  0  0  0  0  0  0  0  0  0  0  0
  182.2130  176.7760  139.7080 C   0  0  0  0  0  2  0  0  0  0  0  0
  181.3260  177.8550  139.2710 N   0  0  0  0  0  0  0  0  0  0  0  0
  181.3390  179.2400  143.6110 C   0  0  0  0  0  2  0  0  0  0  0  0
  184.9610  178.3110  142.9110 C   0  0  0  0  0  3  0  0  0  0  0  0
  183.3090  178.8180  145.1200 C   0  0  0  0  0  3  0  0  0  0  0  0
  187.3530  177.8330  145.7000 C   0  0  0  0  0  0  0  0  0  0  0  0
  186.8280  177.9070  144.4000 C   0  0  0  0  0  3  0  0  0  0  0  0
  185.4850  178.2340  144.2030 C   0  0  0  0  0  0  0  0  0  0  0  0
  185.1770  178.4150  146.6090 C   0  0  0  0  0  3  0  0  0  0  0  0
  184.6530  178.4900  145.3170 C   0  0  0  0  0  0  0  0  0  0  0  0
  186.5230  178.0870  146.8000 C   0  0  0  0  0  3  0  0  0  0  0  0
  182.7860  178.8890  143.8230 C   0  0  0  0  0  0  0  0  0  0  0  0
  183.6150  178.6380  142.7220 C   0  0  0  0  0  3  0  0  0  0  0  0
  188.7860  177.4790  145.9360 C   0  0  1  0  0  3  0  0  0  0  0  0
  189.6970  178.2610  145.0080 C   0  0  0  0  0  1  0  0  0  0  0  0
  189.1520  177.7350  147.3190 N   0  0  0  0  0  1  0  0  0  0  0  0
  1  6  1  1  0  0  0
  2 14  1  0  0  0  0
  2 18  2  0  0  0  0
  3 16  1  0  0  0  0
  3 15  1  0  0  0  0
  4 18  1  0  0  0  0
  4 11  1  0  0  0  0
  5 21  1  0  0  0  0
  6  5  1  0  0  0  0
  7 10  1  0  0  0  0
  8  7  2  0  0  0  0
  9  3  2  0  0  0  0
 10  5  1  0  0  0  0
 11 13  2  0  0  0  0
 11 12  1  0  0  0  0
 12  1  1  0  0  0  0
 12  7  1  0  0  0  0
 13  8  1  0  0  0  0
 14 16  1  0  0  0  0
 16 17  1  0  0  0  0
 18 20  1  0  0  0  0
 19 17  1  0  0  0  0
 20 19  1  0  0  0  0
 20  1  1  0  0  0  0
 21 30  1  0  0  0  0
 22 26  1  0  0  0  0
 23 28  1  0  0  0  0
 24 32  1  0  0  0  0
 24 29  1  0  0  0  0
 25 24  2  0  0  0  0
 26 25  1  0  0  0  0
 26 28  2  0  0  0  0
 27 29  2  0  0  0  0
 28 27  1  0  0  0  0
 30 23  2  0  0  0  0
 31 22  2  0  0  0  0
 31 30  1  0  0  0  0
 32 33  1  6  0  0  0
 32 34  1  0  0  0  0
M  END
>  <MODEL>
1

>  <REMARK>
 VINA RESULT:     -10.2      0.000      0.000
  Name = 
  3 active torsions:
  status: ('A' for Active; 'I' for Inactive)
    1  A    between atoms: C_7  and  C_11
    2  A    between atoms: N_8  and  C_18
    3  A    between atoms: C_18  and  C_30
                            x       y       z     vdW  Elec       q    Type
                         _______ _______ _______ _____ _____    ______ ____

>  <TORSDO>
F 3

$$$$
=
 OpenBabel10262423313D

 34 39  0  0  1  0  0  0  0  0999 V2000
  188.8730  176.8760  136.2200 C   0  0  1  0  0  3  0  0  0  0  0  0
  185.2810  176.0060  135.4030 C   0  0  0  0  0  3  0  0  0  0  0  0
  183.7500  176.9840  138.2830 C   0  0  0  0  0  0  0  0  0  0  0  0
  187.2970  174.7420  134.9550 C   0  0  0  0  0  2  0  0  0  0  0  0
  189.6430  176.8300  138.6080 N   0  0  0  0  0  0  0  0  0  0  0  0
  189.5150  177.6560  137.3940 C   0  0  0  0  0  2  0  0  0  0  0  0
  189.9280  174.8700  137.2600 C   0  0  0  0  0  0  0  0  0  0  0  0
  189.6920  173.5450  137.3010 N   0  0  0  0  0  0  0  0  0  0  0  0
  182.6130  176.2630  137.9320 O   0  0  0  0  0  0  0  0  0  0  0  0
  190.5170  175.6730  138.3660 C   0  0  0  0  0  2  0  0  0  0  0  0
  188.5200  174.4670  135.7540 C   0  0  0  0  0  0  0  0  0  0  0  0
  189.2310  175.4630  136.2870 N   0  0  0  0  0  0  0  0  0  0  0  0
  188.8000  173.2900  136.3490 N   0  0  0  0  0  0  0  0  0  0  0  0
  184.3970  177.1190  135.8710 C   0  0  0  0  0  2  0  0  0  0  0  0
  183.9690  177.2370  139.4980 O   0  0  0  0  0  1  0  0  0  0  0  0
  184.6630  177.4320  137.2720 N   0  0  0  0  0  0  0  0  0  0  0  0
  185.8610  178.1820  137.6530 C   0  0  0  0  0  2  0  0  0  0  0  0
  186.6170  175.9700  135.5110 C   0  0  0  0  0  0  0  0  0  0  0  0
  186.8300  178.3240  136.4850 C   0  0  0  0  0  2  0  0  0  0  0  0
  187.4070  177.0220  136.1470 N   0  0  0  0  0  0  0  0  0  0  0  0
  190.1670  177.6360  139.7190 C   0  0  0  0  0  2  0  0  0  0  0  0
  188.9240  176.9760  143.2540 C   0  0  0  0  0  3  0  0  0  0  0  0
  188.0530  178.2780  140.9270 C   0  0  0  0  0  3  0  0  0  0  0  0
  185.6260  178.2570  144.3570 C   0  0  0  0  0  0  0  0  0  0  0  0
  186.8730  177.6100  144.3760 C   0  0  0  0  0  3  0  0  0  0  0  0
  187.6830  177.6160  143.2380 C   0  0  0  0  0  0  0  0  0  0  0  0
  186.0020  178.9130  142.0490 C   0  0  0  0  0  3  0  0  0  0  0  0
  187.2430  178.2730  142.0650 C   0  0  0  0  0  0  0  0  0  0  0  0
  185.1960  178.9040  143.1920 C   0  0  0  0  0  3  0  0  0  0  0  0
  189.2950  177.6310  140.9460 C   0  0  0  0  0  0  0  0  0  0  0  0
  189.7280  176.9850  142.1100 C   0  0  0  0  0  3  0  0  0  0  0  0
  184.7390  178.2600  145.5620 C   0  0  1  0  0  3  0  0  0  0  0  0
  185.4960  178.7310  146.7890 C   0  0  0  0  0  1  0  0  0  0  0  0
  183.5820  179.1080  145.3380 N   0  0  0  0  0  1  0  0  0  0  0  0
  1 12  1  0  0  0  0
  1  6  1  1  0  0  0
  2 18  2  0  0  0  0
  2 14  1  0  0  0  0
  3 15  1  0  0  0  0
  4 18  1  0  0  0  0
  4 11  1  0  0  0  0
  5 21  1  0  0  0  0
  6  5  1  0  0  0  0
  7  8  2  0  0  0  0
  7 10  1  0  0  0  0
  9  3  2  0  0  0  0
 10  5  1  0  0  0  0
 11 12  1  0  0  0  0
 11 13  2  0  0  0  0
 12  7  1  0  0  0  0
 13  8  1  0  0  0  0
 14 16  1  0  0  0  0
 16 17  1  0  0  0  0
 16  3  1  0  0  0  0
 18 20  1  0  0  0  0
 19 17  1  0  0  0  0
 20  1  1  0  0  0  0
 20 19  1  0  0  0  0
 21 30  1  0  0  0  0
 23 30  2  0  0  0  0
 23 28  1  0  0  0  0
 24 25  1  0  0  0  0
 24 32  1  0  0  0  0
 26 22  1  0  0  0  0
 26 25  2  0  0  0  0
 27 28  2  0  0  0  0
 27 29  1  0  0  0  0
 28 26  1  0  0  0  0
 29 24  2  0  0  0  0
 30 31  1  0  0  0  0
 31 22  2  0  0  0  0
 32 33  1  1  0  0  0
 34 32  1  0  0  0  0
M  END
>  <MODEL>
2

>  <REMARK>
 VINA RESULT:      -9.6      3.809      7.273
  Name = 
  3 active torsions:
  status: ('A' for Active; 'I' for Inactive)
    1  A    between atoms: C_7  and  C_11
    2  A    between atoms: N_8  and  C_18
    3  A    between atoms: C_18  and  C_30
                            x       y       z     vdW  Elec       q    Type
                         _______ _______ _______ _____ _____    ______ ____

>  <TORSDO>
F 3

$$$$
=
 OpenBabel10262423313D

 34 39  0  0  1  0  0  0  0  0999 V2000
  188.6310  176.9840  136.4040 C   0  0  1  0  0  3  0  0  0  0  0  0
  184.9610  176.1750  135.9520 C   0  0  0  0  0  3  0  0  0  0  0  0
  183.7430  177.1800  138.9690 C   0  0  0  0  0  0  0  0  0  0  0  0
  186.8990  174.8770  135.3070 C   0  0  0  0  0  2  0  0  0  0  0  0
  189.6360  176.9250  138.7020 N   0  0  0  0  0  0  0  0  0  0  0  0
  189.4010  177.7530  137.5060 C   0  0  0  0  0  2  0  0  0  0  0  0
  189.7500  174.9600  137.3370 C   0  0  0  0  0  0  0  0  0  0  0  0
  189.4970  173.6390  137.4040 N   0  0  0  0  0  0  0  0  0  0  0  0
  182.5650  176.4800  138.7360 O   0  0  0  0  0  0  0  0  0  0  0  0
  190.4610  175.7530  138.3770 C   0  0  0  0  0  2  0  0  0  0  0  0
  188.1920  174.5810  135.9810 C   0  0  0  0  0  0  0  0  0  0  0  0
  188.9700  175.5650  136.4370 N   0  0  0  0  0  0  0  0  0  0  0  0
  188.5100  173.3990  136.5460 N   0  0  0  0  0  0  0  0  0  0  0  0
  184.1470  177.3030  136.5040 C   0  0  0  0  0  2  0  0  0  0  0  0
  184.0870  177.4300  140.1550 O   0  0  0  0  0  1  0  0  0  0  0  0
  184.5580  177.6120  137.8710 N   0  0  0  0  0  0  0  0  0  0  0  0
  185.8010  178.3410  138.1280 C   0  0  0  0  0  2  0  0  0  0  0  0
  186.3000  176.1160  135.9260 C   0  0  0  0  0  0  0  0  0  0  0  0
  186.6500  178.4660  136.8690 C   0  0  0  0  0  2  0  0  0  0  0  0
  187.1680  177.1550  136.4770 N   0  0  0  0  0  0  0  0  0  0  0  0
  190.2820  177.7220  139.7540 C   0  0  0  0  0  2  0  0  0  0  0  0
  187.4690  177.8880  142.3100 C   0  0  0  0  0  3  0  0  0  0  0  0
  190.2510  177.5300  142.2640 C   0  0  0  0  0  3  0  0  0  0  0  0
  188.1900  177.5170  145.9260 C   0  0  0  0  0  0  0  0  0  0  0  0
  187.4860  177.7030  144.7260 C   0  0  0  0  0  3  0  0  0  0  0  0
  188.1670  177.7070  143.5060 C   0  0  0  0  0  0  0  0  0  0  0  0
  190.2670  177.3440  144.6790 C   0  0  0  0  0  3  0  0  0  0  0  0
  189.5690  177.5250  143.4840 C   0  0  0  0  0  0  0  0  0  0  0  0
  189.5790  177.3400  145.8970 C   0  0  0  0  0  3  0  0  0  0  0  0
  189.5480  177.7170  141.0670 C   0  0  0  0  0  0  0  0  0  0  0  0
  188.1580  177.8920  141.0940 C   0  0  0  0  0  3  0  0  0  0  0  0
  187.4830  177.5150  147.2440 C   0  0  1  0  0  3  0  0  0  0  0  0
  188.3950  178.0200  148.3470 C   0  0  0  0  0  1  0  0  0  0  0  0
  186.2850  178.3330  147.1790 N   0  0  0  0  0  1  0  0  0  0  0  0
  1 12  1  0  0  0  0
  1 20  1  0  0  0  0
  1  6  1  1  0  0  0
  2 14  1  0  0  0  0
  3 15  1  0  0  0  0
  4 18  1  0  0  0  0
  4 11  1  0  0  0  0
  5 21  1  0  0  0  0
  6  5  1  0  0  0  0
  7  8  2  0  0  0  0
  7 10  1  0  0  0  0
  9  3  2  0  0  0  0
 10  5  1  0  0  0  0
 11 12  1  0  0  0  0
 11 13  2  0  0  0  0
 12  7  1  0  0  0  0
 13  8  1  0  0  0  0
 14 16  1  0  0  0  0
 16 17  1  0  0  0  0
 16  3  1  0  0  0  0
 18  2  2  0  0  0  0
 18 20  1  0  0  0  0
 19 17  1  0  0  0  0
 20 19  1  0  0  0  0
 21 30  1  0  0  0  0
 22 26  1  0  0  0  0
 23 28  1  0  0  0  0
 24 32  1  0  0  0  0
 25 24  2  0  0  0  0
 26 25  1  0  0  0  0
 27 29  2  0  0  0  0
 28 26  2  0  0  0  0
 28 27  1  0  0  0  0
 29 24  1  0  0  0  0
 30 31  1  0  0  0  0
 30 23  2  0  0  0  0
 31 22  2  0  0  0  0
 32 33  1  1  0  0  0
 34 32  1  0  0  0  0
M  END
>  <MODEL>
3

>  <REMARK>
 VINA RESULT:      -9.4      3.736      7.027
  Name = 
  3 active torsions:
  status: ('A' for Active; 'I' for Inactive)
    1  A    between atoms: C_7  and  C_11
    2  A    between atoms: N_8  and  C_18
    3  A    between atoms: C_18  and  C_30
                            x       y       z     vdW  Elec       q    Type
                         _______ _______ _______ _____ _____    ______ ____

>  <TORSDO>
F 3

$$$$
=
 OpenBabel10262423313D

 34 39  0  0  1  0  0  0  0  0999 V2000
  185.1280  177.1710  137.1600 C   0  0  1  0  0  3  0  0  0  0  0  0
  182.4090  177.2620  139.7910 C   0  0  0  0  0  3  0  0  0  0  0  0
  184.1860  178.4070  142.4610 C   0  0  0  0  0  0  0  0  0  0  0  0
  182.8550  175.5720  138.1160 C   0  0  0  0  0  2  0  0  0  0  0  0
  187.5090  176.7910  137.8560 N   0  0  0  0  0  0  0  0  0  0  0  0
  186.5860  177.6960  137.1490 C   0  0  0  0  0  2  0  0  0  0  0  0
  186.1730  174.9070  137.2180 C   0  0  0  0  0  0  0  0  0  0  0  0
  185.8370  173.6810  137.6610 N   0  0  0  0  0  0  0  0  0  0  0  0
  183.1660  178.0110  143.3190 O   0  0  0  0  0  1  0  0  0  0  0  0
  187.5500  175.4710  137.2090 C   0  0  0  0  0  2  0  0  0  0  0  0
  184.1090  174.9560  137.6060 C   0  0  0  0  0  0  0  0  0  0  0  0
  185.1090  175.7120  137.1480 N   0  0  0  0  0  0  0  0  0  0  0  0
  184.5310  173.7120  137.9080 N   0  0  0  0  0  0  0  0  0  0  0  0
  182.5420  178.5270  140.5790 C   0  0  0  0  0  2  0  0  0  0  0  0
  185.3570  178.5230  142.9090 O   0  0  0  0  0  0  0  0  0  0  0  0
  183.9050  178.6780  141.0810 N   0  0  0  0  0  0  0  0  0  0  0  0
  184.9880  179.0860  140.1840 C   0  0  0  0  0  2  0  0  0  0  0  0
  183.1910  176.8920  138.7660 C   0  0  0  0  0  0  0  0  0  0  0  0
  184.5490  179.0570  138.7240 C   0  0  0  0  0  2  0  0  0  0  0  0
  184.3280  177.6770  138.2910 N   0  0  0  0  0  0  0  0  0  0  0  0
  188.8570  177.3730  137.9030 C   0  0  0  0  0  2  0  0  0  0  0  0
  191.4630  177.4840  140.6730 C   0  0  0  0  0  3  0  0  0  0  0  0
  188.6830  177.2170  140.4100 C   0  0  0  0  0  3  0  0  0  0  0  0
  190.4480  177.1790  144.2230 C   0  0  0  0  0  0  0  0  0  0  0  0
  191.2500  177.3240  143.0800 C   0  0  0  0  0  3  0  0  0  0  0  0
  190.6680  177.3370  141.8110 C   0  0  0  0  0  0  0  0  0  0  0  0
  188.4710  177.0580  142.8170 C   0  0  0  0  0  3  0  0  0  0  0  0
  189.2660  177.2040  141.6790 C   0  0  0  0  0  0  0  0  0  0  0  0
  189.0600  177.0450  144.0860 C   0  0  0  0  0  3  0  0  0  0  0  0
  189.4850  177.3590  139.2700 C   0  0  0  0  0  0  0  0  0  0  0  0
  190.8720  177.4960  139.4050 C   0  0  0  0  0  3  0  0  0  0  0  0
  191.0500  177.1550  145.5920 C   0  0  1  0  0  3  0  0  0  0  0  0
  189.9690  177.1230  146.6570 C   0  0  0  0  0  1  0  0  0  0  0  0
  191.9270  176.0070  145.7420 N   0  0  0  0  0  1  0  0  0  0  0  0
  1  6  1  1  0  0  0
  1 20  1  0  0  0  0
  2 14  1  0  0  0  0
  3 15  2  0  0  0  0
  3  9  1  0  0  0  0
  4 18  1  0  0  0  0
  5 21  1  0  0  0  0
  6  5  1  0  0  0  0
  7  8  2  0  0  0  0
  8 13  1  0  0  0  0
 10  7  1  0  0  0  0
 10  5  1  0  0  0  0
 11 13  2  0  0  0  0
 11  4  1  0  0  0  0
 12  1  1  0  0  0  0
 12  7  1  0  0  0  0
 12 11  1  0  0  0  0
 14 16  1  0  0  0  0
 16  3  1  0  0  0  0
 17 16  1  0  0  0  0
 18  2  2  0  0  0  0
 19 17  1  0  0  0  0
 20 19  1  0  0  0  0
 20 18  1  0  0  0  0
 21 30  1  0  0  0  0
 22 26  1  0  0  0  0
 23 28  1  0  0  0  0
 24 32  1  0  0  0  0
 25 24  2  0  0  0  0
 26 25  1  0  0  0  0
 27 29  2  0  0  0  0
 28 26  2  0  0  0  0
 28 27  1  0  0  0  0
 29 24  1  0  0  0  0
 30 31  1  0  0  0  0
 30 23  2  0  0  0  0
 31 22  2  0  0  0  0
 32 34  1  0  0  0  0
 32 33  1  1  0  0  0
M  END
>  <MODEL>
4

>  <REMARK>
 VINA RESULT:      -9.2      3.087      6.174
  Name = 
  3 active torsions:
  status: ('A' for Active; 'I' for Inactive)
    1  A    between atoms: C_7  and  C_11
    2  A    between atoms: N_8  and  C_18
    3  A    between atoms: C_18  and  C_30
                            x       y       z     vdW  Elec       q    Type
                         _______ _______ _______ _____ _____    ______ ____

>  <TORSDO>
F 3

$$$$
=
 OpenBabel10262423313D

 34 39  0  0  1  0  0  0  0  0999 V2000
  181.8380  178.3990  138.1920 C   0  0  1  0  0  3  0  0  0  0  0  0
  179.0220  177.5940  140.5890 C   0  0  0  0  0  3  0  0  0  0  0  0
  180.4880  178.4260  143.5480 C   0  0  0  0  0  0  0  0  0  0  0  0
  179.7900  176.3450  138.6630 C   0  0  0  0  0  2  0  0  0  0  0  0
  184.2160  178.2220  138.9730 N   0  0  0  0  0  0  0  0  0  0  0  0
  183.2000  179.1120  138.3850 C   0  0  0  0  0  2  0  0  0  0  0  0
  183.2060  176.3340  137.8980 C   0  0  0  0  0  0  0  0  0  0  0  0
  183.0380  175.0110  138.0770 N   0  0  0  0  0  0  0  0  0  0  0  0
  179.5020  177.7320  144.2400 O   0  0  0  0  0  1  0  0  0  0  0  0
  184.4820  177.0740  138.0940 C   0  0  0  0  0  2  0  0  0  0  0  0
  181.1430  176.0210  138.1380 C   0  0  0  0  0  0  0  0  0  0  0  0
  182.0380  176.9820  137.9040 N   0  0  0  0  0  0  0  0  0  0  0  0
  181.7330  174.8110  138.2300 N   0  0  0  0  0  0  0  0  0  0  0  0
  178.9310  178.6860  141.6090 C   0  0  0  0  0  2  0  0  0  0  0  0
  181.6090  178.6130  144.0930 O   0  0  0  0  0  0  0  0  0  0  0  0
  180.2320  178.9220  142.2270 N   0  0  0  0  0  0  0  0  0  0  0  0
  181.2800  179.6440  141.5030 C   0  0  0  0  0  2  0  0  0  0  0  0
  179.8950  177.5450  139.5720 C   0  0  0  0  0  0  0  0  0  0  0  0
  180.9150  179.8420  140.0360 C   0  0  0  0  0  2  0  0  0  0  0  0
  180.9220  178.5570  139.3370 N   0  0  0  0  0  0  0  0  0  0  0  0
  185.4580  178.9640  139.2270 C   0  0  0  0  0  2  0  0  0  0  0  0
  188.1080  177.9690  141.7690 C   0  0  0  0  0  3  0  0  0  0  0  0
  185.3860  178.6450  141.7230 C   0  0  0  0  0  3  0  0  0  0  0  0
  187.2540  177.6870  145.3630 C   0  0  0  0  0  0  0  0  0  0  0  0
  187.9920  177.6670  144.1700 C   0  0  0  0  0  3  0  0  0  0  0  0
  187.3750  177.9850  142.9570 C   0  0  0  0  0  0  0  0  0  0  0  0
  185.2710  178.3440  144.1230 C   0  0  0  0  0  3  0  0  0  0  0  0
  186.0040  178.3270  142.9350 C   0  0  0  0  0  0  0  0  0  0  0  0
  185.8950  178.0250  145.3340 C   0  0  0  0  0  3  0  0  0  0  0  0
  186.1240  178.6220  140.5320 C   0  0  0  0  0  0  0  0  0  0  0  0
  187.4830  178.2880  140.5590 C   0  0  0  0  0  3  0  0  0  0  0  0
  187.8910  177.3450  146.6720 C   0  0  1  0  0  3  0  0  0  0  0  0
  189.4030  177.4200  146.5730 C   0  0  0  0  0  1  0  0  0  0  0  0
  187.4180  178.2380  147.7160 N   0  0  0  0  0  1  0  0  0  0  0  0
  1  6  1  1  0  0  0
  1 20  1  0  0  0  0
  2 14  1  0  0  0  0
  3 15  2  0  0  0  0
  3  9  1  0  0  0  0
  4 18  1  0  0  0  0
  5 21  1  0  0  0  0
  6  5  1  0  0  0  0
  7 12  1  0  0  0  0
  7  8  2  0  0  0  0
  7 10  1  0  0  0  0
  8 13  1  0  0  0  0
 10  5  1  0  0  0  0
 11 13  2  0  0  0  0
 11  4  1  0  0  0  0
 12 11  1  0  0  0  0
 12  1  1  0  0  0  0
 14 16  1  0  0  0  0
 16  3  1  0  0  0  0
 17 16  1  0  0  0  0
 18  2  2  0  0  0  0
 19 17  1  0  0  0  0
 20 18  1  0  0  0  0
 20 19  1  0  0  0  0
 21 30  1  0  0  0  0
 22 26  1  0  0  0  0
 23 28  1  0  0  0  0
 24 32  1  0  0  0  0
 25 24  2  0  0  0  0
 26 25  1  0  0  0  0
 27 29  2  0  0  0  0
 28 26  2  0  0  0  0
 28 27  1  0  0  0  0
 29 24  1  0  0  0  0
 30 31  1  0  0  0  0
 30 23  2  0  0  0  0
 31 22  2  0  0  0  0
 32 33  1  6  0  0  0
 32 34  1  0  0  0  0
M  END
>  <MODEL>
5

>  <REMARK>
 VINA RESULT:      -9.0      2.391      4.649
  Name = 
  3 active torsions:
  status: ('A' for Active; 'I' for Inactive)
    1  A    between atoms: C_7  and  C_11
    2  A    between atoms: N_8  and  C_18
    3  A    between atoms: C_18  and  C_30
                            x       y       z     vdW  Elec       q    Type
                         _______ _______ _______ _____ _____    ______ ____

>  <TORSDO>
F 3

$$$$
=
 OpenBabel10262423313D

 34 39  0  0  1  0  0  0  0  0999 V2000
  181.6800  179.3360  140.1020 C   0  0  1  0  0  3  0  0  0  0  0  0
  180.2360  176.7230  137.7750 C   0  0  0  0  0  3  0  0  0  0  0  0
  179.6540  174.1980  139.9850 C   0  0  0  0  0  0  0  0  0  0  0  0
  182.1180  178.2050  137.4250 C   0  0  0  0  0  2  0  0  0  0  0  0
  182.9230  178.6090  142.1580 N   0  0  0  0  0  0  0  0  0  0  0  0
  181.7950  179.4080  141.6450 C   0  0  0  0  0  2  0  0  0  0  0  0
  184.1550  179.0350  140.1480 C   0  0  0  0  0  0  0  0  0  0  0  0
  185.0900  178.4610  139.3680 N   0  0  0  0  0  0  0  0  0  0  0  0
  179.5170  173.2990  138.9330 O   0  0  0  0  0  0  0  0  0  0  0  0
  184.2020  179.1090  141.6340 C   0  0  0  0  0  2  0  0  0  0  0  0
  183.2360  178.6490  138.2990 C   0  0  0  0  0  0  0  0  0  0  0  0
  182.9990  179.1890  139.4960 N   0  0  0  0  0  0  0  0  0  0  0  0
  184.5090  178.2150  138.1980 N   0  0  0  0  0  0  0  0  0  0  0  0
  179.0640  176.0770  138.4440 C   0  0  0  0  0  2  0  0  0  0  0  0
  179.9800  173.7690  141.1240 O   0  0  0  0  0  1  0  0  0  0  0  0
  179.4290  175.5980  139.7740 N   0  0  0  0  0  0  0  0  0  0  0  0
  179.5860  176.5370  140.8850 C   0  0  0  0  0  2  0  0  0  0  0  0
  180.9900  177.7030  138.2930 C   0  0  0  0  0  0  0  0  0  0  0  0
  179.5770  177.9840  140.4050 C   0  0  0  0  0  2  0  0  0  0  0  0
  180.7850  178.2640  139.6270 N   0  0  0  0  0  0  0  0  0  0  0  0
  182.9350  178.6290  143.6270 C   0  0  0  0  0  2  0  0  0  0  0  0
  185.8250  178.7810  146.0960 C   0  0  0  0  0  3  0  0  0  0  0  0
  185.3190  177.8310  143.5060 C   0  0  0  0  0  3  0  0  0  0  0  0
  189.1340  177.3710  145.2070 C   0  0  0  0  0  0  0  0  0  0  0  0
  188.1130  178.0020  145.9350 C   0  0  0  0  0  3  0  0  0  0  0  0
  186.8430  178.1570  145.3730 C   0  0  0  0  0  0  0  0  0  0  0  0
  187.6070  177.0510  143.3450 C   0  0  0  0  0  3  0  0  0  0  0  0
  186.5890  177.6760  144.0680 C   0  0  0  0  0  0  0  0  0  0  0  0
  188.8760  176.8990  143.9140 C   0  0  0  0  0  3  0  0  0  0  0  0
  184.3020  178.4630  144.2320 C   0  0  0  0  0  0  0  0  0  0  0  0
  184.5570  178.9330  145.5270 C   0  0  0  0  0  3  0  0  0  0  0  0
  190.5030  177.1990  145.7850 C   0  0  1  0  0  3  0  0  0  0  0  0
  190.4320  176.5820  147.1690 C   0  0  0  0  0  1  0  0  0  0  0  0
  191.3210  176.3720  144.9150 N   0  0  0  0  0  1  0  0  0  0  0  0
  1  6  1  1  0  0  0
  2 18  2  0  0  0  0
  2 14  1  0  0  0  0
  3 15  1  0  0  0  0
  4 18  1  0  0  0  0
  4 11  1  0  0  0  0
  5 21  1  0  0  0  0
  6  5  1  0  0  0  0
  7 10  1  0  0  0  0
  8  7  2  0  0  0  0
  9  3  2  0  0  0  0
 10  5  1  0  0  0  0
 11 12  1  0  0  0  0
 12  1  1  0  0  0  0
 12  7  1  0  0  0  0
 13 11  2  0  0  0  0
 13  8  1  0  0  0  0
 14 16  1  0  0  0  0
 16  3  1  0  0  0  0
 16 17  1  0  0  0  0
 18 20  1  0  0  0  0
 19 17  1  0  0  0  0
 20  1  1  0  0  0  0
 20 19  1  0  0  0  0
 21 30  1  0  0  0  0
 23 28  2  0  0  0  0
 23 30  1  0  0  0  0
 24 32  1  0  0  0  0
 24 25  2  0  0  0  0
 26 25  1  0  0  0  0
 26 22  2  0  0  0  0
 27 29  2  0  0  0  0
 27 28  1  0  0  0  0
 28 26  1  0  0  0  0
 29 24  1  0  0  0  0
 30 31  2  0  0  0  0
 31 22  1  0  0  0  0
 32 33  1  1  0  0  0
 34 32  1  0  0  0  0
M  END
>  <MODEL>
6

>  <REMARK>
 VINA RESULT:      -8.9      2.645      4.007
  Name = 
  3 active torsions:
  status: ('A' for Active; 'I' for Inactive)
    1  A    between atoms: C_7  and  C_11
    2  A    between atoms: N_8  and  C_18
    3  A    between atoms: C_18  and  C_30
                            x       y       z     vdW  Elec       q    Type
                         _______ _______ _______ _____ _____    ______ ____

>  <TORSDO>
F 3

$$$$
=
 OpenBabel10262423313D

 34 39  0  0  1  0  0  0  0  0999 V2000
  189.0810  176.8400  136.1440 C   0  0  1  0  0  3  0  0  0  0  0  0
  186.9200  173.9890  134.9110 C   0  0  0  0  0  3  0  0  0  0  0  0
  184.2980  174.2370  137.0680 C   0  0  0  0  0  0  0  0  0  0  0  0
  189.3200  174.0610  135.2180 C   0  0  0  0  0  2  0  0  0  0  0  0
  188.9770  177.5160  138.5590 N   0  0  0  0  0  0  0  0  0  0  0  0
  188.8250  177.9750  137.1670 C   0  0  0  0  0  2  0  0  0  0  0  0
  190.6360  175.9310  137.8700 C   0  0  0  0  0  0  0  0  0  0  0  0
  191.1200  174.7240  138.2180 N   0  0  0  0  0  0  0  0  0  0  0  0
  183.8730  172.9630  136.7110 O   0  0  0  0  0  0  0  0  0  0  0  0
  190.3470  177.0460  138.8110 C   0  0  0  0  0  2  0  0  0  0  0  0
  190.1890  174.6270  136.2840 C   0  0  0  0  0  0  0  0  0  0  0  0
  190.0760  175.9040  136.6570 N   0  0  0  0  0  0  0  0  0  0  0  0
  190.8370  173.8980  137.2160 N   0  0  0  0  0  0  0  0  0  0  0  0
  185.4940  174.4410  134.8820 C   0  0  0  0  0  2  0  0  0  0  0  0
  183.9640  174.7070  138.1890 O   0  0  0  0  0  1  0  0  0  0  0  0
  185.1090  175.0080  136.1710 N   0  0  0  0  0  0  0  0  0  0  0  0
  185.5590  176.3450  136.5610 C   0  0  0  0  0  2  0  0  0  0  0  0
  187.9710  174.7340  135.2820 C   0  0  0  0  0  0  0  0  0  0  0  0
  186.6220  176.8810  135.6090 C   0  0  0  0  0  2  0  0  0  0  0  0
  187.8590  176.1140  135.7520 N   0  0  0  0  0  0  0  0  0  0  0  0
  188.6320  178.5960  139.4930 C   0  0  0  0  0  2  0  0  0  0  0  0
  187.5450  177.4570  142.9560 C   0  0  0  0  0  3  0  0  0  0  0  0
  189.9050  178.1810  141.6240 C   0  0  0  0  0  3  0  0  0  0  0  0
  190.0330  177.0610  145.6730 C   0  0  0  0  0  0  0  0  0  0  0  0
  188.8080  177.0740  144.9870 C   0  0  0  0  0  3  0  0  0  0  0  0
  188.7610  177.4460  143.6410 C   0  0  0  0  0  0  0  0  0  0  0  0
  191.1680  177.7970  143.6550 C   0  0  0  0  0  3  0  0  0  0  0  0
  189.9520  177.8090  142.9700 C   0  0  0  0  0  0  0  0  0  0  0  0
  191.2080  177.4240  145.0030 C   0  0  0  0  0  3  0  0  0  0  0  0
  188.6820  178.1960  140.9420 C   0  0  0  0  0  0  0  0  0  0  0  0
  187.5060  177.8310  141.6090 C   0  0  0  0  0  3  0  0  0  0  0  0
  190.1070  176.6730  147.1150 C   0  0  1  0  0  3  0  0  0  0  0  0
  191.5460  176.4440  147.5400 C   0  0  0  0  0  1  0  0  0  0  0  0
  189.5030  177.6980  147.9480 N   0  0  0  0  0  1  0  0  0  0  0  0
  1 12  1  0  0  0  0
  1  6  1  1  0  0  0
  2 18  2  0  0  0  0
  3 15  1  0  0  0  0
  4 18  1  0  0  0  0
  4 11  1  0  0  0  0
  5 10  1  0  0  0  0
  5 21  1  0  0  0  0
  6  5  1  0  0  0  0
  7  8  2  0  0  0  0
  7 10  1  0  0  0  0
  9  3  2  0  0  0  0
 11 12  1  0  0  0  0
 11 13  2  0  0  0  0
 12  7  1  0  0  0  0
 13  8  1  0  0  0  0
 14  2  1  0  0  0  0
 14 16  1  0  0  0  0
 16 17  1  0  0  0  0
 16  3  1  0  0  0  0
 18 20  1  0  0  0  0
 19 20  1  0  0  0  0
 19 17  1  0  0  0  0
 20  1  1  0  0  0  0
 21 30  1  0  0  0  0
 22 26  1  0  0  0  0
 23 28  1  0  0  0  0
 24 32  1  0  0  0  0
 25 24  2  0  0  0  0
 26 25  1  0  0  0  0
 27 29  2  0  0  0  0
 28 26  2  0  0  0  0
 28 27  1  0  0  0  0
 29 24  1  0  0  0  0
 30 31  1  0  0  0  0
 30 23  2  0  0  0  0
 31 22  2  0  0  0  0
 32 33  1  1  0  0  0
 32 34  1  0  0  0  0
M  END
>  <MODEL>
7

>  <REMARK>
 VINA RESULT:      -8.7      5.327      7.624
  Name = 
  3 active torsions:
  status: ('A' for Active; 'I' for Inactive)
    1  A    between atoms: C_7  and  C_11
    2  A    between atoms: N_8  and  C_18
    3  A    between atoms: C_18  and  C_30
                            x       y       z     vdW  Elec       q    Type
                         _______ _______ _______ _____ _____    ______ ____

>  <TORSDO>
F 3

$$$$
=
 OpenBabel10262423313D

 34 39  0  0  1  0  0  0  0  0999 V2000
  187.2720  176.3410  136.1140 C   0  0  1  0  0  3  0  0  0  0  0  0
  183.6680  176.3060  137.2700 C   0  0  0  0  0  3  0  0  0  0  0  0
  183.9670  177.9450  140.2400 C   0  0  0  0  0  0  0  0  0  0  0  0
  184.9520  174.5400  136.2260 C   0  0  0  0  0  2  0  0  0  0  0  0
  189.1160  176.3690  137.8160 N   0  0  0  0  0  0  0  0  0  0  0  0
  188.5320  177.0620  136.6530 C   0  0  0  0  0  2  0  0  0  0  0  0
  188.3650  174.2630  136.9550 C   0  0  0  0  0  0  0  0  0  0  0  0
  187.9700  173.0510  137.3880 N   0  0  0  0  0  0  0  0  0  0  0  0
  182.7090  177.4950  140.6240 O   0  0  0  0  0  0  0  0  0  0  0  0
  189.5500  175.0120  137.4550 C   0  0  0  0  0  2  0  0  0  0  0  0
  186.3480  174.0600  136.4040 C   0  0  0  0  0  0  0  0  0  0  0  0
  187.3810  174.9000  136.3140 N   0  0  0  0  0  0  0  0  0  0  0  0
  186.6940  172.9220  137.0410 N   0  0  0  0  0  0  0  0  0  0  0  0
  183.3310  177.6480  137.8400 C   0  0  0  0  0  2  0  0  0  0  0  0
  184.8030  178.2680  141.1260 O   0  0  0  0  0  1  0  0  0  0  0  0
  184.3100  178.0380  138.8510 N   0  0  0  0  0  0  0  0  0  0  0  0
  185.6400  178.5040  138.4570 C   0  0  0  0  0  2  0  0  0  0  0  0
  184.8520  175.9510  136.7510 C   0  0  0  0  0  0  0  0  0  0  0  0
  185.9020  178.2710  136.9740 C   0  0  0  0  0  2  0  0  0  0  0  0
  186.0130  176.8380  136.7000 N   0  0  0  0  0  0  0  0  0  0  0  0
  190.2480  177.1380  138.3510 C   0  0  0  0  0  2  0  0  0  0  0  0
  191.4760  177.4930  141.9340 C   0  0  0  0  0  3  0  0  0  0  0  0
  189.0420  177.2740  140.5570 C   0  0  0  0  0  3  0  0  0  0  0  0
  189.0650  177.6230  144.7450 C   0  0  0  0  0  0  0  0  0  0  0  0
  190.2760  177.6140  144.0350 C   0  0  0  0  0  3  0  0  0  0  0  0
  190.2730  177.4990  142.6430 C   0  0  0  0  0  0  0  0  0  0  0  0
  187.8420  177.3960  142.6580 C   0  0  0  0  0  3  0  0  0  0  0  0
  189.0460  177.3890  141.9500 C   0  0  0  0  0  0  0  0  0  0  0  0
  187.8520  177.5120  144.0520 C   0  0  0  0  0  3  0  0  0  0  0  0
  190.2520  177.2630  139.8510 C   0  0  0  0  0  0  0  0  0  0  0  0
  191.4650  177.3760  140.5410 C   0  0  0  0  0  3  0  0  0  0  0  0
  189.0430  177.7400  146.2350 C   0  0  1  0  0  3  0  0  0  0  0  0
  187.6390  177.5380  146.7730 C   0  0  0  0  0  1  0  0  0  0  0  0
  189.9460  176.7720  146.8340 N   0  0  0  0  0  1  0  0  0  0  0  0
  1 12  1  0  0  0  0
  1  6  1  1  0  0  0
  1 20  1  0  0  0  0
  2 14  1  0  0  0  0
  3  9  2  0  0  0  0
  3 15  1  0  0  0  0
  4 11  1  0  0  0  0
  4 18  1  0  0  0  0
  5 21  1  0  0  0  0
  6  5  1  0  0  0  0
  7  8  2  0  0  0  0
  7 10  1  0  0  0  0
 10  5  1  0  0  0  0
 11 13  2  0  0  0  0
 12 11  1  0  0  0  0
 12  7  1  0  0  0  0
 13  8  1  0  0  0  0
 14 16  1  0  0  0  0
 16  3  1  0  0  0  0
 17 16  1  0  0  0  0
 18  2  2  0  0  0  0
 19 17  1  0  0  0  0
 20 18  1  0  0  0  0
 20 19  1  0  0  0  0
 21 30  1  0  0  0  0
 22 26  1  0  0  0  0
 23 28  1  0  0  0  0
 24 32  1  0  0  0  0
 25 24  2  0  0  0  0
 26 25  1  0  0  0  0
 27 29  2  0  0  0  0
 28 26  2  0  0  0  0
 28 27  1  0  0  0  0
 29 24  1  0  0  0  0
 30 31  1  0  0  0  0
 30 23  2  0  0  0  0
 31 22  2  0  0  0  0
 32 33  1  1  0  0  0
 32 34  1  0  0  0  0
M  END
>  <MODEL>
8

>  <REMARK>
 VINA RESULT:      -8.6      3.421      6.900
  Name = 
  3 active torsions:
  status: ('A' for Active; 'I' for Inactive)
    1  A    between atoms: C_7  and  C_11
    2  A    between atoms: N_8  and  C_18
    3  A    between atoms: C_18  and  C_30
                            x       y       z     vdW  Elec       q    Type
                         _______ _______ _______ _____ _____    ______ ____

>  <TORSDO>
F 3

$$$$
=
 OpenBabel10262423313D

 34 39  0  0  1  0  0  0  0  0999 V2000
  185.8980  176.4940  135.8020 C   0  0  1  0  0  3  0  0  0  0  0  0
  182.5790  174.7380  136.2820 C   0  0  0  0  0  3  0  0  0  0  0  0
  181.6760  175.9690  139.3260 C   0  0  0  0  0  0  0  0  0  0  0  0
  184.6590  173.8570  135.4110 C   0  0  0  0  0  2  0  0  0  0  0  0
  187.2650  177.1240  137.8100 N   0  0  0  0  0  0  0  0  0  0  0  0
  186.6030  177.6250  136.5920 C   0  0  0  0  0  2  0  0  0  0  0  0
  187.6830  175.0240  136.7350 C   0  0  0  0  0  0  0  0  0  0  0  0
  187.8240  173.7200  137.0360 N   0  0  0  0  0  0  0  0  0  0  0  0
  180.7190  174.9690  139.4540 O   0  0  0  0  0  0  0  0  0  0  0  0
  188.3140  176.1510  137.4750 C   0  0  0  0  0  2  0  0  0  0  0  0
  186.0800  174.0220  135.8190 C   0  0  0  0  0  0  0  0  0  0  0  0
  186.6200  175.2350  135.9540 N   0  0  0  0  0  0  0  0  0  0  0  0
  186.8100  173.0850  136.4580 N   0  0  0  0  0  0  0  0  0  0  0  0
  181.5930  175.7150  136.8390 C   0  0  0  0  0  2  0  0  0  0  0  0
  182.1380  176.5170  140.3620 O   0  0  0  0  0  1  0  0  0  0  0  0
  182.1330  176.3710  138.0270 N   0  0  0  0  0  0  0  0  0  0  0  0
  183.1480  177.4180  137.9030 C   0  0  0  0  0  2  0  0  0  0  0  0
  183.8560  175.0060  135.9710 C   0  0  0  0  0  0  0  0  0  0  0  0
  183.6950  177.5050  136.4820 C   0  0  0  0  0  2  0  0  0  0  0  0
  184.4810  176.3120  136.1710 N   0  0  0  0  0  0  0  0  0  0  0  0
  187.8360  178.2410  138.5750 C   0  0  0  0  0  2  0  0  0  0  0  0
  188.6560  177.3940  142.1920 C   0  0  0  0  0  3  0  0  0  0  0  0
  186.5460  178.5130  140.7200 C   0  0  0  0  0  3  0  0  0  0  0  0
  186.2090  178.0880  144.8870 C   0  0  0  0  0  0  0  0  0  0  0  0
  187.3770  177.6690  144.2310 C   0  0  0  0  0  3  0  0  0  0  0  0
  187.4930  177.8080  142.8460 C   0  0  0  0  0  0  0  0  0  0  0  0
  185.2680  178.7870  142.7590 C   0  0  0  0  0  3  0  0  0  0  0  0
  186.4300  178.3730  142.1050 C   0  0  0  0  0  0  0  0  0  0  0  0
  185.1580  178.6450  144.1460 C   0  0  0  0  0  3  0  0  0  0  0  0
  187.7110  178.0910  140.0670 C   0  0  0  0  0  0  0  0  0  0  0  0
  188.7640  177.5360  140.8050 C   0  0  0  0  0  3  0  0  0  0  0  0
  186.0590  177.9440  146.3680 C   0  0  1  0  0  3  0  0  0  0  0  0
  187.4010  177.6780  147.0230 C   0  0  0  0  0  1  0  0  0  0  0  0
  185.4580  179.1380  146.9370 N   0  0  0  0  0  1  0  0  0  0  0  0
  1 12  1  0  0  0  0
  1 20  1  0  0  0  0
  1  6  1  1  0  0  0
  2 14  1  0  0  0  0
  3  9  2  0  0  0  0
  3 15  1  0  0  0  0
  4 11  1  0  0  0  0
  4 18  1  0  0  0  0
  5 21  1  0  0  0  0
  6  5  1  0  0  0  0
  7  8  2  0  0  0  0
  7 10  1  0  0  0  0
 10  5  1  0  0  0  0
 11 12  1  0  0  0  0
 11 13  2  0  0  0  0
 12  7  1  0  0  0  0
 13  8  1  0  0  0  0
 14 16  1  0  0  0  0
 16  3  1  0  0  0  0
 17 16  1  0  0  0  0
 18 20  1  0  0  0  0
 18  2  2  0  0  0  0
 19 17  1  0  0  0  0
 20 19  1  0  0  0  0
 21 30  1  0  0  0  0
 22 26  1  0  0  0  0
 23 28  1  0  0  0  0
 24 32  1  0  0  0  0
 25 24  1  0  0  0  0
 26 25  2  0  0  0  0
 27 29  1  0  0  0  0
 28 27  2  0  0  0  0
 28 26  1  0  0  0  0
 29 24  2  0  0  0  0
 30 23  2  0  0  0  0
 30 31  1  0  0  0  0
 31 22  2  0  0  0  0
 32 34  1  0  0  0  0
 32 33  1  1  0  0  0
M  END
>  <MODEL>
9

>  <REMARK>
 VINA RESULT:      -8.5      3.270      6.243
  Name = 
  3 active torsions:
  status: ('A' for Active; 'I' for Inactive)
    1  A    between atoms: C_7  and  C_11
    2  A    between atoms: N_8  and  C_18
    3  A    between atoms: C_18  and  C_30
                            x       y       z     vdW  Elec       q    Type
                         _______ _______ _______ _____ _____    ______ ____

>  <TORSDO>
F 3

$$$$
