=
 OpenBabel10262420523D

 28 32  0  0  1  0  0  0  0  0999 V2000
  189.9310  177.0070  142.6490 N   0  0  0  0  0  0  0  0  0  0  0  0
  185.0250  178.3340  142.8170 C   0  0  0  0  0  2  0  0  0  0  0  0
  188.9300  177.4640  147.3810 F   0  0  0  0  0  0  0  0  0  0  0  0
  184.5330  178.5710  145.1830 C   0  0  0  0  0  0  0  0  0  0  0  0
  186.7480  177.9320  144.4470 C   0  0  0  0  0  0  0  0  0  0  0  0
  182.8070  178.9720  143.5270 C   0  0  0  0  0  0  0  0  0  0  0  0
  185.4660  178.2710  144.1550 C   0  0  0  0  0  0  0  0  0  0  0  0
  186.2560  178.1740  146.9320 C   0  0  0  0  0  3  0  0  0  0  0  0
  183.2170  178.9170  144.8580 C   0  0  0  0  0  3  0  0  0  0  0  0
  189.4200  177.2320  145.0500 C   0  0  0  0  0  0  0  0  0  0  0  0
  187.6670  177.6390  143.4240 C   0  0  0  0  0  3  0  0  0  0  0  0
  184.8740  178.5330  146.4730 C   0  0  0  0  0  3  0  0  0  0  0  0
  191.6520  176.5690  144.2630 C   0  0  0  0  0  3  0  0  0  0  0  0
  188.5200  177.5230  146.0850 C   0  0  0  0  0  0  0  0  0  0  0  0
  190.6860  176.8890  145.3320 C   0  0  0  0  0  3  0  0  0  0  0  0
  181.4050  179.3420  143.1960 C   0  0  0  0  0  1  0  0  0  0  0  0
  183.7100  178.6800  142.5060 C   0  0  0  0  0  3  0  0  0  0  0  0
  187.1910  177.8720  145.7910 C   0  0  0  0  0  0  0  0  0  0  0  0
  191.2750  176.6280  142.9850 C   0  0  0  0  0  3  0  0  0  0  0  0
  188.9930  177.2970  143.7080 C   0  0  0  0  0  0  0  0  0  0  0  0
  189.5430  177.0660  141.2400 C   0  0  0  0  0  2  0  0  0  0  0  0
  190.6490  176.5680  140.3070 C   0  0  2  0  0  3  0  0  0  0  0  0
  192.5730  176.3170  138.2100 C   0  0  0  0  0  0  0  0  0  0  0  0
  191.8240  177.5420  140.2580 C   0  0  0  0  0  2  0  0  0  0  0  0
  190.1330  176.3140  138.8940 C   0  0  0  0  0  2  0  0  0  0  0  0
  191.2240  175.6580  138.0500 C   0  0  0  0  0  2  0  0  0  0  0  0
  193.6690  175.9360  137.2760 C   0  0  0  0  0  1  0  0  0  0  0  0
  192.8620  177.1080  139.2560 C   0  0  0  0  0  3  0  0  0  0  0  0
  1 19  1  0  0  0  0
  1 20  1  0  0  0  0
  2  7  1  0  0  0  0
  4 12  1  0  0  0  0
  5 18  1  0  0  0  0
  6  9  1  0  0  0  0
  7  5  2  0  0  0  0
  7  4  1  0  0  0  0
  9  4  2  0  0  0  0
 10 15  2  0  0  0  0
 10 14  1  0  0  0  0
 11 20  2  0  0  0  0
 11  5  1  0  0  0  0
 12  8  2  0  0  0  0
 13 15  1  0  0  0  0
 14  3  1  0  0  0  0
 16  6  1  0  0  0  0
 17  2  1  0  0  0  0
 17  6  2  0  0  0  0
 18 14  2  0  0  0  0
 18  8  1  0  0  0  0
 19 13  2  0  0  0  0
 20 10  1  0  0  0  0
 21  1  1  0  0  0  0
 22 21  1  1  0  0  0
 23 28  2  0  0  0  0
 24 22  1  0  0  0  0
 25 22  1  0  0  0  0
 26 23  1  0  0  0  0
 26 25  1  0  0  0  0
 27 23  1  0  0  0  0
 28 24  1  0  0  0  0
M  END
>  <MODEL>
1

>  <REMARK>
 VINA RESULT:     -11.9      0.000      0.000
  Name = 
  2 active torsions:
  status: ('A' for Active; 'I' for Inactive)
    1  A    between atoms: N_1  and  C_2
    2  A    between atoms: C_2  and  C_3
                            x       y       z     vdW  Elec       q    Type
                         _______ _______ _______ _____ _____    ______ ____

>  <TORSDO>
F 2

$$$$
=
 OpenBabel10262420523D

 28 32  0  0  1  0  0  0  0  0999 V2000
  187.3550  178.1670  141.1490 N   0  0  0  0  0  0  0  0  0  0  0  0
  190.5060  176.8890  144.9290 C   0  0  0  0  0  2  0  0  0  0  0  0
  184.6650  178.5150  145.1780 F   0  0  0  0  0  0  0  0  0  0  0  0
  189.1540  177.0550  146.9390 C   0  0  0  0  0  0  0  0  0  0  0  0
  188.2010  177.5600  144.7720 C   0  0  0  0  0  0  0  0  0  0  0  0
  191.4800  176.3810  147.0800 C   0  0  0  0  0  0  0  0  0  0  0  0
  189.2630  177.1770  145.5280 C   0  0  0  0  0  0  0  0  0  0  0  0
  186.7640  177.7400  146.8650 C   0  0  0  0  0  3  0  0  0  0  0  0
  190.2610  176.6590  147.6970 C   0  0  0  0  0  3  0  0  0  0  0  0
  185.9920  178.3500  143.1940 C   0  0  0  0  0  0  0  0  0  0  0  0
  188.3150  177.6760  143.3760 C   0  0  0  0  0  3  0  0  0  0  0  0
  188.0100  177.3100  147.5790 C   0  0  0  0  0  3  0  0  0  0  0  0
  185.0670  178.8710  140.9780 C   0  0  0  0  0  3  0  0  0  0  0  0
  185.8570  178.2380  144.5860 C   0  0  0  0  0  0  0  0  0  0  0  0
  184.9500  178.7360  142.4420 C   0  0  0  0  0  3  0  0  0  0  0  0
  192.6480  175.9610  147.8980 C   0  0  0  0  0  1  0  0  0  0  0  0
  191.6030  176.4960  145.6960 C   0  0  0  0  0  3  0  0  0  0  0  0
  186.9510  177.8460  145.3740 C   0  0  0  0  0  0  0  0  0  0  0  0
  186.2250  178.5980  140.3740 C   0  0  0  0  0  3  0  0  0  0  0  0
  187.2290  178.0610  142.5830 C   0  0  0  0  0  0  0  0  0  0  0  0
  188.6130  177.8720  140.4620 C   0  0  0  0  0  2  0  0  0  0  0  0
  188.4400  177.7590  138.9460 C   0  0  2  0  0  3  0  0  0  0  0  0
  188.8880  177.4490  136.1410 C   0  0  0  0  0  0  0  0  0  0  0  0
  188.9530  176.4200  138.4200 C   0  0  0  0  0  2  0  0  0  0  0  0
  189.1280  178.9000  138.2050 C   0  0  0  0  0  2  0  0  0  0  0  0
  188.7840  178.8400  136.7180 C   0  0  0  0  0  2  0  0  0  0  0  0
  188.8130  177.2810  134.6630 C   0  0  0  0  0  1  0  0  0  0  0  0
  188.8860  176.3530  136.9170 C   0  0  0  0  0  3  0  0  0  0  0  0
  1 20  1  0  0  0  0
  2  7  1  0  0  0  0
  2 17  1  0  0  0  0
  4 12  1  0  0  0  0
  4  9  2  0  0  0  0
  5 18  1  0  0  0  0
  5  7  2  0  0  0  0
  6  9  1  0  0  0  0
  6 16  1  0  0  0  0
  7  4  1  0  0  0  0
  8 12  2  0  0  0  0
 10 14  1  0  0  0  0
 11  5  1  0  0  0  0
 13 15  1  0  0  0  0
 14  3  1  0  0  0  0
 14 18  2  0  0  0  0
 15 10  2  0  0  0  0
 17  6  2  0  0  0  0
 18  8  1  0  0  0  0
 19 13  2  0  0  0  0
 19  1  1  0  0  0  0
 20 10  1  0  0  0  0
 20 11  2  0  0  0  0
 21  1  1  0  0  0  0
 22 21  1  1  0  0  0
 23 26  1  0  0  0  0
 23 28  2  0  0  0  0
 24 22  1  0  0  0  0
 25 22  1  0  0  0  0
 26 25  1  0  0  0  0
 27 23  1  0  0  0  0
 28 24  1  0  0  0  0
M  END
>  <MODEL>
2

>  <REMARK>
 VINA RESULT:     -11.8      2.384      5.411
  Name = 
  2 active torsions:
  status: ('A' for Active; 'I' for Inactive)
    1  A    between atoms: N_1  and  C_2
    2  A    between atoms: C_2  and  C_3
                            x       y       z     vdW  Elec       q    Type
                         _______ _______ _______ _____ _____    ______ ____

>  <TORSDO>
F 2

$$$$
=
 OpenBabel10262420523D

 28 32  0  0  1  0  0  0  0  0999 V2000
  189.7540  177.4450  141.8590 N   0  0  0  0  0  0  0  0  0  0  0  0
  184.8260  178.5020  142.5280 C   0  0  0  0  0  2  0  0  0  0  0  0
  189.1210  177.4120  146.6750 F   0  0  0  0  0  0  0  0  0  0  0  0
  184.5170  178.4950  144.9380 C   0  0  0  0  0  0  0  0  0  0  0  0
  186.6910  178.0390  143.9760 C   0  0  0  0  0  0  0  0  0  0  0  0
  182.6470  178.9600  143.4650 C   0  0  0  0  0  0  0  0  0  0  0  0
  185.3760  178.3380  143.8170 C   0  0  0  0  0  0  0  0  0  0  0  0
  186.3920  178.0250  146.5030 C   0  0  0  0  0  3  0  0  0  0  0  0
  183.1660  178.8030  144.7490 C   0  0  0  0  0  3  0  0  0  0  0  0
  189.4300  177.4210  144.3030 C   0  0  0  0  0  0  0  0  0  0  0  0
  187.5360  177.8880  142.8620 C   0  0  0  0  0  3  0  0  0  0  0  0
  184.9630  178.3550  146.1870 C   0  0  0  0  0  3  0  0  0  0  0  0
  191.6180  176.9470  143.2870 C   0  0  0  0  0  3  0  0  0  0  0  0
  188.6050  177.5700  145.4270 C   0  0  0  0  0  0  0  0  0  0  0  0
  190.7290  177.1180  144.4520 C   0  0  0  0  0  3  0  0  0  0  0  0
  181.2080  179.2880  143.2790 C   0  0  0  0  0  1  0  0  0  0  0  0
  183.4760  178.8090  142.3540 C   0  0  0  0  0  3  0  0  0  0  0  0
  187.2440  177.8770  145.2700 C   0  0  0  0  0  0  0  0  0  0  0  0
  191.1360  177.1040  142.0530 C   0  0  0  0  0  3  0  0  0  0  0  0
  188.8930  177.5880  143.0100 C   0  0  0  0  0  0  0  0  0  0  0  0
  189.2510  177.6140  140.4960 C   0  0  0  0  0  2  0  0  0  0  0  0
  189.9250  176.6670  139.5010 C   0  0  2  0  0  3  0  0  0  0  0  0
  191.1580  175.5290  137.1880 C   0  0  0  0  0  0  0  0  0  0  0  0
  191.2780  177.2050  139.0400 C   0  0  0  0  0  2  0  0  0  0  0  0
  189.0430  176.3900  138.2880 C   0  0  0  0  0  2  0  0  0  0  0  0
  189.6820  175.3110  137.4140 C   0  0  0  0  0  2  0  0  0  0  0  0
  191.8550  174.6950  136.1700 C   0  0  0  0  0  1  0  0  0  0  0  0
  191.8910  176.3300  137.9790 C   0  0  0  0  0  3  0  0  0  0  0  0
  1 19  1  0  0  0  0
  1 20  1  0  0  0  0
  2  7  1  0  0  0  0
  4 12  1  0  0  0  0
  5 18  1  0  0  0  0
  6  9  1  0  0  0  0
  7  5  2  0  0  0  0
  7  4  1  0  0  0  0
  9  4  2  0  0  0  0
 10 15  2  0  0  0  0
 10 14  1  0  0  0  0
 11 20  2  0  0  0  0
 11  5  1  0  0  0  0
 12  8  2  0  0  0  0
 13 15  1  0  0  0  0
 14  3  1  0  0  0  0
 16  6  1  0  0  0  0
 17  2  1  0  0  0  0
 17  6  2  0  0  0  0
 18 14  2  0  0  0  0
 18  8  1  0  0  0  0
 19 13  2  0  0  0  0
 20 10  1  0  0  0  0
 21  1  1  0  0  0  0
 22 21  1  1  0  0  0
 23 26  1  0  0  0  0
 23 28  2  0  0  0  0
 24 22  1  0  0  0  0
 25 22  1  0  0  0  0
 26 25  1  0  0  0  0
 27 23  1  0  0  0  0
 28 24  1  0  0  0  0
M  END
>  <MODEL>
3

>  <REMARK>
 VINA RESULT:     -11.2      0.866      1.022
  Name = 
  2 active torsions:
  status: ('A' for Active; 'I' for Inactive)
    1  A    between atoms: N_1  and  C_2
    2  A    between atoms: C_2  and  C_3
                            x       y       z     vdW  Elec       q    Type
                         _______ _______ _______ _____ _____    ______ ____

>  <TORSDO>
F 2

$$$$
=
 OpenBabel10262420523D

 28 32  0  0  1  0  0  0  0  0999 V2000
  183.3040  178.3950  141.7270 N   0  0  0  0  0  0  0  0  0  0  0  0
  188.1420  177.1570  142.6810 C   0  0  0  0  0  2  0  0  0  0  0  0
  183.8060  178.9590  146.5260 F   0  0  0  0  0  0  0  0  0  0  0  0
  188.3850  177.4310  145.0830 C   0  0  0  0  0  0  0  0  0  0  0  0
  186.2680  177.8880  144.0010 C   0  0  0  0  0  0  0  0  0  0  0  0
  190.2650  176.6950  143.7380 C   0  0  0  0  0  0  0  0  0  0  0  0
  187.5680  177.5010  143.9220 C   0  0  0  0  0  0  0  0  0  0  0  0
  186.4980  178.1820  146.5190 C   0  0  0  0  0  3  0  0  0  0  0  0
  189.7210  177.0300  144.9770 C   0  0  0  0  0  3  0  0  0  0  0  0
  183.5610  178.6870  144.1610 C   0  0  0  0  0  0  0  0  0  0  0  0
  185.4650  177.9530  142.8490 C   0  0  0  0  0  3  0  0  0  0  0  0
  187.9130  177.7400  146.2920 C   0  0  0  0  0  3  0  0  0  0  0  0
  181.4340  179.1580  143.0230 C   0  0  0  0  0  3  0  0  0  0  0  0
  184.3450  178.6270  145.3220 C   0  0  0  0  0  0  0  0  0  0  0  0
  182.2790  179.0770  144.2300 C   0  0  0  0  0  3  0  0  0  0  0  0
  191.6860  176.2700  143.6400 C   0  0  0  0  0  1  0  0  0  0  0  0
  189.4770  176.7590  142.5900 C   0  0  0  0  0  3  0  0  0  0  0  0
  185.6900  178.2310  145.2480 C   0  0  0  0  0  0  0  0  0  0  0  0
  181.9400  178.8310  141.8330 C   0  0  0  0  0  3  0  0  0  0  0  0
  184.1230  178.3410  142.9150 C   0  0  0  0  0  0  0  0  0  0  0  0
  183.8330  178.0400  140.4100 C   0  0  0  0  0  2  0  0  0  0  0  0
  182.7480  177.5280  139.4610 C   0  0  2  0  0  3  0  0  0  0  0  0
  181.3270  176.2120  137.3600 C   0  0  0  0  0  0  0  0  0  0  0  0
  182.6810  176.0030  139.4530 C   0  0  0  0  0  2  0  0  0  0  0  0
  182.9450  178.0410  138.0380 C   0  0  0  0  0  2  0  0  0  0  0  0
  181.7500  177.6490  137.1710 C   0  0  0  0  0  2  0  0  0  0  0  0
  180.3360  175.6290  136.4140 C   0  0  0  0  0  1  0  0  0  0  0  0
  181.6900  175.4970  138.4370 C   0  0  0  0  0  3  0  0  0  0  0  0
  1 19  1  0  0  0  0
  1 20  1  0  0  0  0
  2  7  1  0  0  0  0
  4 12  1  0  0  0  0
  5 18  1  0  0  0  0
  6  9  1  0  0  0  0
  7  5  2  0  0  0  0
  7  4  1  0  0  0  0
  9  4  2  0  0  0  0
 10 15  2  0  0  0  0
 10 14  1  0  0  0  0
 11 20  2  0  0  0  0
 11  5  1  0  0  0  0
 12  8  2  0  0  0  0
 13 15  1  0  0  0  0
 14  3  1  0  0  0  0
 16  6  1  0  0  0  0
 17  2  1  0  0  0  0
 17  6  2  0  0  0  0
 18 14  2  0  0  0  0
 18  8  1  0  0  0  0
 19 13  2  0  0  0  0
 20 10  1  0  0  0  0
 21  1  1  0  0  0  0
 22 21  1  1  0  0  0
 23 28  2  0  0  0  0
 24 22  1  0  0  0  0
 25 22  1  0  0  0  0
 26 23  1  0  0  0  0
 26 25  1  0  0  0  0
 27 23  1  0  0  0  0
 28 24  1  0  0  0  0
M  END
>  <MODEL>
4

>  <REMARK>
 VINA RESULT:     -10.9      3.297      7.366
  Name = 
  2 active torsions:
  status: ('A' for Active; 'I' for Inactive)
    1  A    between atoms: N_1  and  C_2
    2  A    between atoms: C_2  and  C_3
                            x       y       z     vdW  Elec       q    Type
                         _______ _______ _______ _____ _____    ______ ____

>  <TORSDO>
F 2

$$$$
=
 OpenBabel10262420523D

 28 32  0  0  1  0  0  0  0  0999 V2000
  186.4420  178.4490  140.0230 N   0  0  0  0  0  0  0  0  0  0  0  0
  188.0510  178.0100  144.8260 C   0  0  0  0  0  2  0  0  0  0  0  0
  182.4350  178.9430  142.7250 F   0  0  0  0  0  0  0  0  0  0  0  0
  186.0430  178.2470  146.1720 C   0  0  0  0  0  0  0  0  0  0  0  0
  185.9270  178.3760  143.7580 C   0  0  0  0  0  0  0  0  0  0  0  0
  188.1930  177.8770  147.2340 C   0  0  0  0  0  0  0  0  0  0  0  0
  186.6580  178.2150  144.8910 C   0  0  0  0  0  0  0  0  0  0  0  0
  183.8090  178.6280  145.1460 C   0  0  0  0  0  3  0  0  0  0  0  0
  186.8160  178.0790  147.3260 C   0  0  0  0  0  3  0  0  0  0  0  0
  184.4100  178.7060  141.3950 C   0  0  0  0  0  0  0  0  0  0  0  0
  186.5410  178.3410  142.4930 C   0  0  0  0  0  3  0  0  0  0  0  0
  184.7300  178.4360  146.3150 C   0  0  0  0  0  3  0  0  0  0  0  0
  184.3360  178.8480  138.9420 C   0  0  0  0  0  3  0  0  0  0  0  0
  183.7780  178.7430  142.6460 C   0  0  0  0  0  0  0  0  0  0  0  0
  183.6960  178.8730  140.2720 C   0  0  0  0  0  3  0  0  0  0  0  0
  189.0020  177.6990  148.4690 C   0  0  0  0  0  1  0  0  0  0  0  0
  188.8110  177.8440  145.9850 C   0  0  0  0  0  3  0  0  0  0  0  0
  184.5270  178.5790  143.8230 C   0  0  0  0  0  0  0  0  0  0  0  0
  185.6510  178.6470  138.8410 C   0  0  0  0  0  3  0  0  0  0  0  0
  185.8020  178.4970  141.3170 C   0  0  0  0  0  0  0  0  0  0  0  0
  187.8810  178.2280  139.8840 C   0  0  0  0  0  2  0  0  0  0  0  0
  188.2610  177.7010  138.4980 C   0  0  2  0  0  3  0  0  0  0  0  0
  189.6910  176.8490  136.1760 C   0  0  0  0  0  0  0  0  0  0  0  0
  189.1630  176.4720  138.5910 C   0  0  0  0  0  2  0  0  0  0  0  0
  188.9360  178.7710  137.6460 C   0  0  0  0  0  2  0  0  0  0  0  0
  189.1390  178.2530  136.2230 C   0  0  0  0  0  2  0  0  0  0  0  0
  190.1580  176.3090  134.8690 C   0  0  0  0  0  1  0  0  0  0  0  0
  189.6280  176.0210  137.2320 C   0  0  0  0  0  3  0  0  0  0  0  0
  1 20  1  0  0  0  0
  2  7  1  0  0  0  0
  2 17  1  0  0  0  0
  4 12  1  0  0  0  0
  4  9  2  0  0  0  0
  5 18  1  0  0  0  0
  5  7  2  0  0  0  0
  6  9  1  0  0  0  0
  6 16  1  0  0  0  0
  7  4  1  0  0  0  0
  8 12  2  0  0  0  0
 10 14  1  0  0  0  0
 11  5  1  0  0  0  0
 13 15  1  0  0  0  0
 14  3  1  0  0  0  0
 14 18  2  0  0  0  0
 15 10  2  0  0  0  0
 17  6  2  0  0  0  0
 18  8  1  0  0  0  0
 19 13  2  0  0  0  0
 19  1  1  0  0  0  0
 20 10  1  0  0  0  0
 20 11  2  0  0  0  0
 21  1  1  0  0  0  0
 22 24  1  0  0  0  0
 22 21  1  1  0  0  0
 23 26  1  0  0  0  0
 23 28  2  0  0  0  0
 25 22  1  0  0  0  0
 26 25  1  0  0  0  0
 27 23  1  0  0  0  0
 28 24  1  0  0  0  0
M  END
>  <MODEL>
5

>  <REMARK>
 VINA RESULT:     -10.8      2.720      5.109
  Name = 
  2 active torsions:
  status: ('A' for Active; 'I' for Inactive)
    1  A    between atoms: N_1  and  C_2
    2  A    between atoms: C_2  and  C_3
                            x       y       z     vdW  Elec       q    Type
                         _______ _______ _______ _____ _____    ______ ____

>  <TORSDO>
F 2

$$$$
=
 OpenBabel10262420523D

 28 32  0  0  1  0  0  0  0  0999 V2000
  189.9120  177.7950  140.6560 N   0  0  0  0  0  0  0  0  0  0  0  0
  185.1970  178.5080  142.4220 C   0  0  0  0  0  2  0  0  0  0  0  0
  190.2620  177.0880  145.4500 F   0  0  0  0  0  0  0  0  0  0  0  0
  185.3800  178.1630  144.8190 C   0  0  0  0  0  0  0  0  0  0  0  0
  187.3250  177.9480  143.3950 C   0  0  0  0  0  0  0  0  0  0  0  0
  183.2410  178.7270  143.8230 C   0  0  0  0  0  0  0  0  0  0  0  0
  185.9980  178.2000  143.5410 C   0  0  0  0  0  0  0  0  0  0  0  0
  187.5410  177.5820  145.9050 C   0  0  0  0  0  3  0  0  0  0  0  0
  184.0120  178.4260  144.9450 C   0  0  0  0  0  3  0  0  0  0  0  0
  190.0870  177.4290  143.0880 C   0  0  0  0  0  0  0  0  0  0  0  0
  187.9310  177.9900  142.1280 C   0  0  0  0  0  3  0  0  0  0  0  0
  186.0710  177.8800  145.9250 C   0  0  0  0  0  3  0  0  0  0  0  0
  192.0350  177.2040  141.6060 C   0  0  0  0  0  3  0  0  0  0  0  0
  189.5020  177.3850  144.3610 C   0  0  0  0  0  0  0  0  0  0  0  0
  191.3950  177.1730  142.9350 C   0  0  0  0  0  3  0  0  0  0  0  0
  181.7880  179.0050  143.9710 C   0  0  0  0  0  1  0  0  0  0  0  0
  183.8330  178.7680  142.5610 C   0  0  0  0  0  3  0  0  0  0  0  0
  188.1300  177.6420  144.5200 C   0  0  0  0  0  0  0  0  0  0  0  0
  191.3110  177.5010  140.5250 C   0  0  0  0  0  3  0  0  0  0  0  0
  189.2970  177.7410  141.9620 C   0  0  0  0  0  0  0  0  0  0  0  0
  189.1410  178.1200  139.4560 C   0  0  0  0  0  2  0  0  0  0  0  0
  189.0630  176.9480  138.4750 C   0  0  2  0  0  3  0  0  0  0  0  0
  188.7240  175.3270  136.1470 C   0  0  0  0  0  0  0  0  0  0  0  0
  190.0090  177.1410  137.2920 C   0  0  0  0  0  2  0  0  0  0  0  0
  187.6430  176.7220  137.9670 C   0  0  0  0  0  2  0  0  0  0  0  0
  187.5850  175.4440  137.1320 C   0  0  0  0  0  2  0  0  0  0  0  0
  188.6650  174.2570  135.1120 C   0  0  0  0  0  1  0  0  0  0  0  0
  189.8520  176.0440  136.2720 C   0  0  0  0  0  3  0  0  0  0  0  0
  1 20  1  0  0  0  0
  2 17  1  0  0  0  0
  2  7  1  0  0  0  0
  4  9  2  0  0  0  0
  4 12  1  0  0  0  0
  5  7  2  0  0  0  0
  5 18  1  0  0  0  0
  6 16  1  0  0  0  0
  6  9  1  0  0  0  0
  7  4  1  0  0  0  0
  8 12  2  0  0  0  0
 10 14  1  0  0  0  0
 11  5  1  0  0  0  0
 13 15  1  0  0  0  0
 14 18  2  0  0  0  0
 14  3  1  0  0  0  0
 15 10  2  0  0  0  0
 17  6  2  0  0  0  0
 18  8  1  0  0  0  0
 19  1  1  0  0  0  0
 19 13  2  0  0  0  0
 20 11  2  0  0  0  0
 20 10  1  0  0  0  0
 21  1  1  0  0  0  0
 22 21  1  1  0  0  0
 23 28  2  0  0  0  0
 23 26  1  0  0  0  0
 24 22  1  0  0  0  0
 25 22  1  0  0  0  0
 26 25  1  0  0  0  0
 27 23  1  0  0  0  0
 28 24  1  0  0  0  0
M  END
>  <MODEL>
6

>  <REMARK>
 VINA RESULT:     -10.7      1.723      2.489
  Name = 
  2 active torsions:
  status: ('A' for Active; 'I' for Inactive)
    1  A    between atoms: N_1  and  C_2
    2  A    between atoms: C_2  and  C_3
                            x       y       z     vdW  Elec       q    Type
                         _______ _______ _______ _____ _____    ______ ____

>  <TORSDO>
F 2

$$$$
=
 OpenBabel10262420523D

 28 32  0  0  1  0  0  0  0  0999 V2000
  190.3540  176.0550  143.8390 N   0  0  0  0  0  0  0  0  0  0  0  0
  185.5550  177.6820  143.4310 C   0  0  0  0  0  2  0  0  0  0  0  0
  189.4290  178.2650  148.0650 F   0  0  0  0  0  0  0  0  0  0  0  0
  185.1010  178.7950  145.5410 C   0  0  0  0  0  0  0  0  0  0  0  0
  187.2600  177.7840  145.1250 C   0  0  0  0  0  0  0  0  0  0  0  0
  183.3920  178.6840  143.8230 C   0  0  0  0  0  0  0  0  0  0  0  0
  186.0020  178.0790  144.7080 C   0  0  0  0  0  0  0  0  0  0  0  0
  186.8080  178.9440  147.3440 C   0  0  0  0  0  3  0  0  0  0  0  0
  183.8100  179.0880  145.0910 C   0  0  0  0  0  3  0  0  0  0  0  0
  189.8820  177.1710  145.9860 C   0  0  0  0  0  0  0  0  0  0  0  0
  188.1470  177.0780  144.2930 C   0  0  0  0  0  3  0  0  0  0  0  0
  185.4510  179.2050  146.7620 C   0  0  0  0  0  3  0  0  0  0  0  0
  192.0560  176.1170  145.5310 C   0  0  0  0  0  3  0  0  0  0  0  0
  189.0130  177.8780  146.8290 C   0  0  0  0  0  0  0  0  0  0  0  0
  191.1240  176.8680  146.3940 C   0  0  0  0  0  3  0  0  0  0  0  0
  182.0170  179.0030  143.3570 C   0  0  0  0  0  1  0  0  0  0  0  0
  184.2640  177.9810  142.9930 C   0  0  0  0  0  3  0  0  0  0  0  0
  187.7100  178.1850  146.4070 C   0  0  0  0  0  0  0  0  0  0  0  0
  191.6720  175.7330  144.3130 C   0  0  0  0  0  3  0  0  0  0  0  0
  189.4480  176.7730  144.7050 C   0  0  0  0  0  0  0  0  0  0  0  0
  189.9590  175.6250  142.4980 C   0  0  0  0  0  2  0  0  0  0  0  0
  189.8570  176.7920  141.5140 C   0  0  2  0  0  3  0  0  0  0  0  0
  189.2470  178.4550  139.2720 C   0  0  0  0  0  0  0  0  0  0  0  0
  188.4030  177.1800  141.2510 C   0  0  0  0  0  2  0  0  0  0  0  0
  190.5550  176.4890  140.1930 C   0  0  0  0  0  2  0  0  0  0  0  0
  190.5760  177.7390  139.3140 C   0  0  0  0  0  2  0  0  0  0  0  0
  189.0560  179.5460  138.2770 C   0  0  0  0  0  1  0  0  0  0  0  0
  188.2980  178.2530  140.2000 C   0  0  0  0  0  3  0  0  0  0  0  0
  1 19  1  0  0  0  0
  1 20  1  0  0  0  0
  2  7  1  0  0  0  0
  4 12  1  0  0  0  0
  5 18  1  0  0  0  0
  6  9  1  0  0  0  0
  7  5  2  0  0  0  0
  7  4  1  0  0  0  0
  9  4  2  0  0  0  0
 10 15  2  0  0  0  0
 10 14  1  0  0  0  0
 11 20  2  0  0  0  0
 11  5  1  0  0  0  0
 12  8  2  0  0  0  0
 13 15  1  0  0  0  0
 14  3  1  0  0  0  0
 16  6  1  0  0  0  0
 17  2  1  0  0  0  0
 17  6  2  0  0  0  0
 18 14  2  0  0  0  0
 18  8  1  0  0  0  0
 19 13  2  0  0  0  0
 20 10  1  0  0  0  0
 21  1  1  0  0  0  0
 22 21  1  1  0  0  0
 23 26  1  0  0  0  0
 23 28  2  0  0  0  0
 24 22  1  0  0  0  0
 25 22  1  0  0  0  0
 26 25  1  0  0  0  0
 27 23  1  0  0  0  0
 28 24  1  0  0  0  0
M  END
>  <MODEL>
7

>  <REMARK>
 VINA RESULT:     -10.6      1.460      2.112
  Name = 
  2 active torsions:
  status: ('A' for Active; 'I' for Inactive)
    1  A    between atoms: N_1  and  C_2
    2  A    between atoms: C_2  and  C_3
                            x       y       z     vdW  Elec       q    Type
                         _______ _______ _______ _____ _____    ______ ____

>  <TORSDO>
F 2

$$$$
=
 OpenBabel10262420523D

 28 32  0  0  1  0  0  0  0  0999 V2000
  184.3490  178.7900  143.1630 N   0  0  0  0  0  0  0  0  0  0  0  0
  188.6900  177.7330  140.7360 C   0  0  0  0  0  2  0  0  0  0  0  0
  187.5140  177.7210  146.6900 F   0  0  0  0  0  0  0  0  0  0  0  0
  190.2660  177.1900  142.5030 C   0  0  0  0  0  0  0  0  0  0  0  0
  187.9850  177.8000  143.0350 C   0  0  0  0  0  0  0  0  0  0  0  0
  190.9610  177.1270  140.1790 C   0  0  0  0  0  0  0  0  0  0  0  0
  188.9570  177.5800  142.1120 C   0  0  0  0  0  0  0  0  0  0  0  0
  189.6180  177.2350  144.9040 C   0  0  0  0  0  3  0  0  0  0  0  0
  191.2500  176.9690  141.5340 C   0  0  0  0  0  3  0  0  0  0  0  0
  185.9580  178.2550  144.9530 C   0  0  0  0  0  0  0  0  0  0  0  0
  186.6910  178.1840  142.6420 C   0  0  0  0  0  3  0  0  0  0  0  0
  190.5950  177.0240  143.7850 C   0  0  0  0  0  3  0  0  0  0  0  0
  183.6380  178.8960  145.4530 C   0  0  0  0  0  3  0  0  0  0  0  0
  187.2420  177.8700  145.3660 C   0  0  0  0  0  0  0  0  0  0  0  0
  184.9950  178.4820  145.8590 C   0  0  0  0  0  3  0  0  0  0  0  0
  192.0170  176.8890  139.1610 C   0  0  0  0  0  1  0  0  0  0  0  0
  189.6820  177.5100  139.7800 C   0  0  0  0  0  3  0  0  0  0  0  0
  188.2520  177.6430  144.4180 C   0  0  0  0  0  0  0  0  0  0  0  0
  183.3460  179.0410  144.1600 C   0  0  0  0  0  3  0  0  0  0  0  0
  185.6770  178.4060  143.5790 C   0  0  0  0  0  0  0  0  0  0  0  0
  184.0020  178.9550  141.7520 C   0  0  0  0  0  2  0  0  0  0  0  0
  182.9390  177.9560  141.2890 C   0  0  2  0  0  3  0  0  0  0  0  0
  180.9850  176.5210  139.7780 C   0  0  0  0  0  0  0  0  0  0  0  0
  183.3730  177.2180  140.0250 C   0  0  0  0  0  2  0  0  0  0  0  0
  181.5890  178.6250  141.0550 C   0  0  0  0  0  2  0  0  0  0  0  0
  180.5260  177.5670  140.7650 C   0  0  0  0  0  2  0  0  0  0  0  0
  179.9790  175.5710  139.2250 C   0  0  0  0  0  1  0  0  0  0  0  0
  182.2840  176.3170  139.5070 C   0  0  0  0  0  3  0  0  0  0  0  0
  1 20  1  0  0  0  0
  1 19  1  0  0  0  0
  2  7  1  0  0  0  0
  4 12  1  0  0  0  0
  5 18  1  0  0  0  0
  6  9  1  0  0  0  0
  7  4  1  0  0  0  0
  7  5  2  0  0  0  0
  9  4  2  0  0  0  0
 10 14  1  0  0  0  0
 10 15  2  0  0  0  0
 11  5  1  0  0  0  0
 11 20  2  0  0  0  0
 12  8  2  0  0  0  0
 13 15  1  0  0  0  0
 14  3  1  0  0  0  0
 16  6  1  0  0  0  0
 17  6  2  0  0  0  0
 17  2  1  0  0  0  0
 18  8  1  0  0  0  0
 18 14  2  0  0  0  0
 19 13  2  0  0  0  0
 20 10  1  0  0  0  0
 21  1  1  0  0  0  0
 22 21  1  6  0  0  0
 23 26  1  0  0  0  0
 24 22  1  0  0  0  0
 25 22  1  0  0  0  0
 26 25  1  0  0  0  0
 27 23  1  0  0  0  0
 28 23  2  0  0  0  0
 28 24  1  0  0  0  0
M  END
>  <MODEL>
8

>  <REMARK>
 VINA RESULT:     -10.5      2.309      7.422
  Name = 
  2 active torsions:
  status: ('A' for Active; 'I' for Inactive)
    1  A    between atoms: N_1  and  C_2
    2  A    between atoms: C_2  and  C_3
                            x       y       z     vdW  Elec       q    Type
                         _______ _______ _______ _____ _____    ______ ____

>  <TORSDO>
F 2

$$$$
=
 OpenBabel10262420523D

 28 32  0  0  1  0  0  0  0  0999 V2000
  186.8590  178.4090  140.1310 N   0  0  0  0  0  0  0  0  0  0  0  0
  187.3950  178.0190  145.1720 C   0  0  0  0  0  2  0  0  0  0  0  0
  191.4300  176.8980  140.7790 F   0  0  0  0  0  0  0  0  0  0  0  0
  189.6850  177.2730  145.4910 C   0  0  0  0  0  0  0  0  0  0  0  0
  188.8100  177.6390  143.2640 C   0  0  0  0  0  0  0  0  0  0  0  0
  188.2450  177.6600  147.4050 C   0  0  0  0  0  0  0  0  0  0  0  0
  188.6330  177.6430  144.6100 C   0  0  0  0  0  0  0  0  0  0  0  0
  191.2130  176.8570  143.5720 C   0  0  0  0  0  3  0  0  0  0  0  0
  189.4790  177.2850  146.8740 C   0  0  0  0  0  3  0  0  0  0  0  0
  189.1760  177.6350  140.4600 C   0  0  0  0  0  0  0  0  0  0  0  0
  187.7660  178.0090  142.3980 C   0  0  0  0  0  3  0  0  0  0  0  0
  190.8840  176.9060  145.0350 C   0  0  0  0  0  3  0  0  0  0  0  0
  188.2450  178.0020  138.2150 C   0  0  0  0  0  3  0  0  0  0  0  0
  190.2310  177.2650  141.3070 C   0  0  0  0  0  0  0  0  0  0  0  0
  189.3410  177.6250  139.1290 C   0  0  0  0  0  3  0  0  0  0  0  0
  188.0410  177.6690  148.8770 C   0  0  0  0  0  1  0  0  0  0  0  0
  187.2030  178.0260  146.5540 C   0  0  0  0  0  3  0  0  0  0  0  0
  190.0550  177.2650  142.7000 C   0  0  0  0  0  0  0  0  0  0  0  0
  187.0630  178.3720  138.7100 C   0  0  0  0  0  3  0  0  0  0  0  0
  187.9350  178.0170  141.0100 C   0  0  0  0  0  0  0  0  0  0  0  0
  185.5530  178.8210  140.6480 C   0  0  0  0  0  2  0  0  0  0  0  0
  184.4040  178.4280  139.7170 C   0  0  2  0  0  3  0  0  0  0  0  0
  181.8420  178.1000  138.4970 C   0  0  0  0  0  0  0  0  0  0  0  0
  183.6810  179.6560  139.1680 C   0  0  0  0  0  2  0  0  0  0  0  0
  183.4020  177.5060  140.4040 C   0  0  0  0  0  2  0  0  0  0  0  0
  182.3740  177.0060  139.3900 C   0  0  0  0  0  2  0  0  0  0  0  0
  180.6690  177.8050  137.6280 C   0  0  0  0  0  1  0  0  0  0  0  0
  182.4830  179.2700  138.3420 C   0  0  0  0  0  3  0  0  0  0  0  0
  1 21  1  0  0  0  0
  1 20  1  0  0  0  0
  2 17  1  0  0  0  0
  3 14  1  0  0  0  0
  4  9  2  0  0  0  0
  5  7  2  0  0  0  0
  6 16  1  0  0  0  0
  7  2  1  0  0  0  0
  7  4  1  0  0  0  0
  8 12  2  0  0  0  0
  9  6  1  0  0  0  0
 10 20  1  0  0  0  0
 10 14  1  0  0  0  0
 11  5  1  0  0  0  0
 12  4  1  0  0  0  0
 13 19  2  0  0  0  0
 13 15  1  0  0  0  0
 14 18  2  0  0  0  0
 15 10  2  0  0  0  0
 17  6  2  0  0  0  0
 18  5  1  0  0  0  0
 18  8  1  0  0  0  0
 19  1  1  0  0  0  0
 20 11  2  0  0  0  0
 22 25  1  0  0  0  0
 22 21  1  1  0  0  0
 23 26  1  0  0  0  0
 24 22  1  0  0  0  0
 26 25  1  0  0  0  0
 27 23  1  0  0  0  0
 28 23  2  0  0  0  0
 28 24  1  0  0  0  0
M  END
>  <MODEL>
9

>  <REMARK>
 VINA RESULT:     -10.5      2.877      6.755
  Name = 
  2 active torsions:
  status: ('A' for Active; 'I' for Inactive)
    1  A    between atoms: N_1  and  C_2
    2  A    between atoms: C_2  and  C_3
                            x       y       z     vdW  Elec       q    Type
                         _______ _______ _______ _____ _____    ______ ____

>  <TORSDO>
F 2

$$$$
