=
 OpenBabel10262423273D

 34 39  0  0  1  0  0  0  0  0999 V2000
  188.7180  177.6840  143.6090 C   0  0  0  0  0  0  0  0  0  0  0  0
  190.9990  177.7320  142.4450 C   0  0  0  0  0  0  0  0  0  0  0  0
  191.4940  177.8010  144.8570 C   0  0  0  0  0  3  0  0  0  0  0  0
  186.5140  177.5640  145.4580 C   0  0  0  0  0  3  0  0  0  0  0  0
  187.3580  177.9710  143.2270 N   0  0  0  0  0  0  0  0  0  0  0  0
  187.9510  177.4510  145.8600 C   0  0  0  0  0  0  0  0  0  0  0  0
  189.4680  176.9830  147.6790 C   0  0  0  0  0  3  0  0  0  0  0  0
  188.1800  177.1510  147.2020 C   0  0  0  0  0  3  0  0  0  0  0  0
  186.3390  177.9700  144.0310 C   0  0  0  0  0  0  0  0  0  0  0  0
  190.3570  177.4570  145.4650 C   0  0  0  0  0  0  0  0  0  0  0  0
  189.0320  177.5450  144.9300 C   0  0  1  0  0  3  0  0  0  0  0  0
  190.5420  177.1510  146.8180 C   0  0  0  0  0  3  0  0  0  0  0  0
  191.7350  177.5710  141.2650 C   0  0  0  0  0  3  0  0  0  0  0  0
  191.1370  177.0680  140.1070 C   0  0  0  0  0  0  0  0  0  0  0  0
  189.7870  176.7310  140.1260 C   0  0  0  0  0  3  0  0  0  0  0  0
  191.6860  178.2150  143.5460 O   0  0  0  0  0  0  0  0  0  0  0  0
  189.0440  176.9140  141.2920 C   0  0  0  0  0  3  0  0  0  0  0  0
  189.6300  177.4170  142.4680 C   0  0  0  0  0  0  0  0  0  0  0  0
  182.6860  179.0160  143.9140 C   0  0  0  0  0  3  0  0  0  0  0  0
  184.7180  178.1920  142.1330 C   0  0  0  0  0  3  0  0  0  0  0  0
  181.5480  178.8270  140.3430 C   0  0  2  0  0  3  0  0  0  0  0  0
  181.1830  179.1620  141.8090 C   0  0  0  0  0  2  0  0  0  0  0  0
  182.4510  178.9050  142.5450 C   0  0  0  0  0  0  0  0  0  0  0  0
  182.9650  178.4670  140.3540 N   0  0  0  0  0  0  0  0  0  0  0  0
  183.4340  178.5080  141.6860 C   0  0  0  0  0  0  0  0  0  0  0  0
  183.6640  177.8430  139.2430 C   0  0  0  0  0  1  0  0  0  0  0  0
  184.9940  178.2940  143.5110 C   0  0  0  0  0  0  0  0  0  0  0  0
  183.9690  178.7080  144.3940 C   0  0  0  0  0  3  0  0  0  0  0  0
  181.3170  180.0170  139.4710 C   0  0  0  0  0  0  0  0  0  0  0  0
  180.1970  180.5890  139.4790 O   0  0  0  0  0  1  0  0  0  0  0  0
  182.3340  180.5030  138.6570 O   0  0  0  0  0  0  0  0  0  0  0  0
  191.8920  176.8930  138.9070 N   0  0  0  0  0  2  0  0  0  0  0  0
  193.2410  176.7560  138.9230 O   0  0  0  0  0  0  0  0  0  0  0  0
  193.5190  175.8110  137.9330 C   0  0  0  0  0  1  0  0  0  0  0  0
  2 18  1  0  0  0  0
  2 16  1  0  0  0  0
  3 10  2  0  0  0  0
  4  6  1  0  0  0  0
  5  1  2  0  0  0  0
  5  9  1  0  0  0  0
  6  8  2  0  0  0  0
  8  7  1  0  0  0  0
  9  4  2  0  0  0  0
 10 12  1  0  0  0  0
 11  1  1  6  0  0  0
 11 10  1  0  0  0  0
 11  6  1  0  0  0  0
 12  7  2  0  0  0  0
 13  2  2  0  0  0  0
 14 15  2  0  0  0  0
 14 13  1  0  0  0  0
 15 17  1  0  0  0  0
 16  3  1  0  0  0  0
 17 18  2  0  0  0  0
 18  1  1  0  0  0  0
 19 28  1  0  0  0  0
 20 27  1  0  0  0  0
 21 29  1  6  0  0  0
 21 24  1  0  0  0  0
 21 22  1  0  0  0  0
 22 23  1  0  0  0  0
 23 19  2  0  0  0  0
 24 25  1  0  0  0  0
 25 20  2  0  0  0  0
 25 23  1  0  0  0  0
 26 24  1  0  0  0  0
 27  9  1  0  0  0  0
 27 28  2  0  0  0  0
 29 30  1  0  0  0  0
 31 29  2  0  0  0  0
 32 33  1  0  0  0  0
 32 14  1  0  0  0  0
 34 33  1  0  0  0  0
M  END
>  <MODEL>
1

>  <REMARK>
 VINA RESULT:     -11.1      0.000      0.000
  Name = 
  4 active torsions:
  status: ('A' for Active; 'I' for Inactive)
    1  A    between atoms: N_3  and  O_13
    2  A    between atoms: N_3  and  C_25
    3  A    between atoms: C_7  and  C_11
    4  A    between atoms: C_18  and  C_30
                            x       y       z     vdW  Elec       q    Type
                         _______ _______ _______ _____ _____    ______ ____

>  <TORSDO>
F 4

$$$$
=
 OpenBabel10262423273D

 34 39  0  0  1  0  0  0  0  0999 V2000
  188.7770  177.5470  142.9230 C   0  0  0  0  0  0  0  0  0  0  0  0
  190.7590  176.5570  144.2090 C   0  0  0  0  0  0  0  0  0  0  0  0
  191.3740  176.3900  141.8310 C   0  0  0  0  0  3  0  0  0  0  0  0
  186.9490  178.6000  140.9640 C   0  0  0  0  0  2  0  0  0  0  0  0
  187.3880  177.8070  143.2080 N   0  0  0  0  0  0  0  0  0  0  0  0
  188.3420  178.1500  140.6530 C   0  0  0  0  0  0  0  0  0  0  0  0
  190.0580  178.0490  138.9570 C   0  0  0  0  0  3  0  0  0  0  0  0
  188.7740  178.3870  139.3490 C   0  0  0  0  0  3  0  0  0  0  0  0
  186.5180  178.2420  142.3490 C   0  0  0  0  0  0  0  0  0  0  0  0
  190.5140  177.1780  141.1820 C   0  0  0  0  0  0  0  0  0  0  0  0
  189.2230  177.6010  141.6340 C   0  0  0  0  0  0  0  0  0  0  0  0
  190.9090  177.4380  139.8660 C   0  0  0  0  0  3  0  0  0  0  0  0
  191.4040  176.3680  145.4380 C   0  0  0  0  0  3  0  0  0  0  0  0
  190.9630  177.0220  146.5900 C   0  0  0  0  0  0  0  0  0  0  0  0
  189.8580  177.8660  146.5170 C   0  0  0  0  0  3  0  0  0  0  0  0
  191.2850  175.8840  143.1200 O   0  0  0  0  0  0  0  0  0  0  0  0
  189.1960  178.0360  145.3010 C   0  0  0  0  0  3  0  0  0  0  0  0
  189.6290  177.3880  144.1290 C   0  0  0  0  0  0  0  0  0  0  0  0
  183.4890  178.9540  144.5320 C   0  0  0  0  0  3  0  0  0  0  0  0
  184.0690  178.3670  141.8310 C   0  0  0  0  0  3  0  0  0  0  0  0
  180.4330  178.7600  142.3620 C   0  0  2  0  0  3  0  0  0  0  0  0
  181.0120  179.0190  143.7730 C   0  0  0  0  0  2  0  0  0  0  0  0
  182.4790  178.8590  143.5770 C   0  0  0  0  0  0  0  0  0  0  0  0
  181.5850  178.5300  141.4910 N   0  0  0  0  0  0  0  0  0  0  0  0
  182.7610  178.5770  142.2720 C   0  0  0  0  0  0  0  0  0  0  0  0
  181.5020  178.0020  140.1400 C   0  0  0  0  0  1  0  0  0  0  0  0
  185.1170  178.4560  142.7690 C   0  0  0  0  0  0  0  0  0  0  0  0
  184.8150  178.7510  144.1200 C   0  0  0  0  0  3  0  0  0  0  0  0
  179.6550  179.9470  141.8980 C   0  0  0  0  0  0  0  0  0  0  0  0
  179.6620  181.0030  142.5800 O   0  0  0  0  0  1  0  0  0  0  0  0
  178.9310  179.8960  140.7130 O   0  0  0  0  0  0  0  0  0  0  0  0
  191.6290  176.8380  147.8400 N   0  0  0  0  0  2  0  0  0  0  0  0
  192.6940  176.0090  147.9690 O   0  0  0  0  0  0  0  0  0  0  0  0
  193.2270  176.2980  149.2270 C   0  0  0  0  0  1  0  0  0  0  0  0
  1  5  1  0  0  0  0
  1 18  1  0  0  0  0
  2 13  1  0  0  0  0
  3 16  1  0  0  0  0
  4  9  1  0  0  0  0
  6  4  1  0  0  0  0
  6 11  1  0  0  0  0
  7  8  1  0  0  0  0
  7 12  2  0  0  0  0
  8  6  2  0  0  0  0
  9 27  1  0  0  0  0
  9  5  2  0  0  0  0
 10 11  1  0  0  0  0
 10  3  2  0  0  0  0
 11  1  2  0  0  0  0
 12 10  1  0  0  0  0
 13 14  2  0  0  0  0
 14 32  1  0  0  0  0
 15 14  1  0  0  0  0
 16  2  1  0  0  0  0
 17 15  2  0  0  0  0
 18  2  2  0  0  0  0
 18 17  1  0  0  0  0
 20 25  2  0  0  0  0
 20 27  1  0  0  0  0
 21 29  1  6  0  0  0
 21 22  1  0  0  0  0
 23 22  1  0  0  0  0
 23 19  2  0  0  0  0
 24 25  1  0  0  0  0
 24 21  1  0  0  0  0
 25 23  1  0  0  0  0
 26 24  1  0  0  0  0
 27 28  2  0  0  0  0
 28 19  1  0  0  0  0
 29 30  1  0  0  0  0
 31 29  2  0  0  0  0
 32 33  1  0  0  0  0
 33 34  1  0  0  0  0
M  END
>  <MODEL>
2

>  <REMARK>
 VINA RESULT:     -10.5      2.084      4.742
  Name = 
  4 active torsions:
  status: ('A' for Active; 'I' for Inactive)
    1  A    between atoms: N_3  and  O_13
    2  A    between atoms: N_3  and  C_25
    3  A    between atoms: C_7  and  C_11
    4  A    between atoms: C_18  and  C_30
                            x       y       z     vdW  Elec       q    Type
                         _______ _______ _______ _____ _____    ______ ____

>  <TORSDO>
F 4

$$$$
=
 OpenBabel10262423273D

 34 39  0  0  1  0  0  0  0  0999 V2000
  188.8000  177.8060  142.8020 C   0  0  0  0  0  0  0  0  0  0  0  0
  191.2630  177.7710  142.0990 C   0  0  0  0  0  0  0  0  0  0  0  0
  191.2870  177.9160  144.5570 C   0  0  0  0  0  3  0  0  0  0  0  0
  186.2800  177.7900  144.1950 C   0  0  0  0  0  3  0  0  0  0  0  0
  187.5460  178.1040  142.1570 N   0  0  0  0  0  0  0  0  0  0  0  0
  187.6110  177.6660  144.8690 C   0  0  0  0  0  0  0  0  0  0  0  0
  188.7380  177.2350  146.9610 C   0  0  0  0  0  3  0  0  0  0  0  0
  187.5700  177.4090  146.2390 C   0  0  0  0  0  3  0  0  0  0  0  0
  186.3930  178.1490  142.7490 C   0  0  0  0  0  0  0  0  0  0  0  0
  190.0480  177.6150  144.9450 C   0  0  0  0  0  0  0  0  0  0  0  0
  188.8520  177.7080  144.1630 C   0  0  1  0  0  3  0  0  0  0  0  0
  189.9610  177.3540  146.3170 C   0  0  0  0  0  3  0  0  0  0  0  0
  192.2070  177.5560  141.0870 C   0  0  0  0  0  3  0  0  0  0  0  0
  191.8310  177.0220  139.8530 C   0  0  0  0  0  0  0  0  0  0  0  0
  190.4940  176.7110  139.6210 C   0  0  0  0  0  3  0  0  0  0  0  0
  191.7370  178.2800  143.2950 O   0  0  0  0  0  0  0  0  0  0  0  0
  189.5460  176.9480  140.6170 C   0  0  0  0  0  3  0  0  0  0  0  0
  189.9070  177.4820  141.8670 C   0  0  0  0  0  0  0  0  0  0  0  0
  184.1410  179.1390  139.8510 C   0  0  0  0  0  3  0  0  0  0  0  0
  183.9120  178.4580  142.5820 C   0  0  0  0  0  3  0  0  0  0  0  0
  180.6100  179.2420  141.1180 C   0  0  2  0  0  3  0  0  0  0  0  0
  181.5650  179.4140  139.9130 C   0  0  0  0  0  2  0  0  0  0  0  0
  182.9030  179.1070  140.4890 C   0  0  0  0  0  0  0  0  0  0  0  0
  181.4480  178.8130  142.2370 N   0  0  0  0  0  0  0  0  0  0  0  0
  182.7940  178.7760  141.8090 C   0  0  0  0  0  0  0  0  0  0  0  0
  181.0130  178.7750  143.6230 C   0  0  0  0  0  1  0  0  0  0  0  0
  185.1810  178.4780  141.9700 C   0  0  0  0  0  0  0  0  0  0  0  0
  185.2840  178.8200  140.6010 C   0  0  0  0  0  3  0  0  0  0  0  0
  179.5780  178.2080  140.8120 C   0  0  0  0  0  0  0  0  0  0  0  0
  179.2960  177.9420  139.6150 O   0  0  0  0  0  0  0  0  0  0  0  0
  178.9310  177.5310  141.8400 O   0  0  0  0  0  1  0  0  0  0  0  0
  192.7970  176.7920  138.8260 N   0  0  0  0  0  2  0  0  0  0  0  0
  192.5550  175.9490  137.7920 O   0  0  0  0  0  0  0  0  0  0  0  0
  193.5360  176.2500  136.8440 C   0  0  0  0  0  1  0  0  0  0  0  0
  2 16  1  0  0  0  0
  3 10  2  0  0  0  0
  4  6  1  0  0  0  0
  5  9  1  0  0  0  0
  5  1  2  0  0  0  0
  6  8  2  0  0  0  0
  8  7  1  0  0  0  0
  9  4  2  0  0  0  0
 10 12  1  0  0  0  0
 11  1  1  6  0  0  0
 11  6  1  0  0  0  0
 11 10  1  0  0  0  0
 12  7  2  0  0  0  0
 13  2  2  0  0  0  0
 14 13  1  0  0  0  0
 15 14  2  0  0  0  0
 15 17  1  0  0  0  0
 16  3  1  0  0  0  0
 17 18  2  0  0  0  0
 18  2  1  0  0  0  0
 18  1  1  0  0  0  0
 19 23  2  0  0  0  0
 19 28  1  0  0  0  0
 21 29  1  6  0  0  0
 21 24  1  0  0  0  0
 22 23  1  0  0  0  0
 22 21  1  0  0  0  0
 23 25  1  0  0  0  0
 24 26  1  0  0  0  0
 25 24  1  0  0  0  0
 25 20  2  0  0  0  0
 27 20  1  0  0  0  0
 27  9  1  0  0  0  0
 28 27  2  0  0  0  0
 29 31  1  0  0  0  0
 30 29  2  0  0  0  0
 32 14  1  0  0  0  0
 33 32  1  0  0  0  0
 34 33  1  0  0  0  0
M  END
>  <MODEL>
3

>  <REMARK>
 VINA RESULT:     -10.3      1.353      2.075
  Name = 
  4 active torsions:
  status: ('A' for Active; 'I' for Inactive)
    1  A    between atoms: N_3  and  O_13
    2  A    between atoms: N_3  and  C_25
    3  A    between atoms: C_7  and  C_11
    4  A    between atoms: C_18  and  C_30
                            x       y       z     vdW  Elec       q    Type
                         _______ _______ _______ _____ _____    ______ ____

>  <TORSDO>
F 4

$$$$
=
 OpenBabel10262423273D

 34 39  0  0  1  0  0  0  0  0999 V2000
  188.5950  177.6680  145.1700 C   0  0  0  0  0  0  0  0  0  0  0  0
  189.7880  177.7130  147.4360 C   0  0  0  0  0  0  0  0  0  0  0  0
  187.5260  178.5830  147.8710 C   0  0  0  0  0  3  0  0  0  0  0  0
  186.7290  177.7730  142.9800 C   0  0  0  0  0  2  0  0  0  0  0  0
  189.0040  177.6120  143.7890 N   0  0  0  0  0  0  0  0  0  0  0  0
  186.3560  178.0100  144.4090 C   0  0  0  0  0  0  0  0  0  0  0  0
  184.5270  178.3540  145.9480 C   0  0  0  0  0  3  0  0  0  0  0  0
  184.9940  178.1680  144.6580 C   0  0  0  0  0  3  0  0  0  0  0  0
  188.2060  177.6960  142.7690 C   0  0  0  0  0  0  0  0  0  0  0  0
  186.8080  178.2680  146.7920 C   0  0  0  0  0  0  0  0  0  0  0  0
  187.3030  177.9850  145.4790 C   0  0  0  0  0  0  0  0  0  0  0  0
  185.4320  178.4170  146.9970 C   0  0  0  0  0  3  0  0  0  0  0  0
  190.8870  177.3190  148.2090 C   0  0  0  0  0  3  0  0  0  0  0  0
  191.8200  176.4030  147.7180 C   0  0  0  0  0  0  0  0  0  0  0  0
  191.6600  175.8840  146.4370 C   0  0  0  0  0  3  0  0  0  0  0  0
  188.9060  178.6060  148.0190 O   0  0  0  0  0  0  0  0  0  0  0  0
  190.5810  176.2930  145.6540 C   0  0  0  0  0  3  0  0  0  0  0  0
  189.6290  177.2130  146.1330 C   0  0  0  0  0  0  0  0  0  0  0  0
  190.6790  177.3620  139.9010 C   0  0  0  0  0  3  0  0  0  0  0  0
  187.9150  177.7990  140.2820 C   0  0  0  0  0  3  0  0  0  0  0  0
  188.7840  177.7900  136.6910 C   0  0  2  0  0  3  0  0  0  0  0  0
  190.1470  177.5190  137.3700 C   0  0  0  0  0  2  0  0  0  0  0  0
  189.8140  177.5260  138.8210 C   0  0  0  0  0  0  0  0  0  0  0  0
  187.8050  177.8750  137.7730 N   0  0  0  0  0  0  0  0  0  0  0  0
  188.4790  177.7360  139.0070 C   0  0  0  0  0  0  0  0  0  0  0  0
  186.4460  178.3640  137.6160 C   0  0  0  0  0  1  0  0  0  0  0  0
  188.7580  177.6370  141.3990 C   0  0  0  0  0  0  0  0  0  0  0  0
  190.1410  177.4180  141.1970 C   0  0  0  0  0  3  0  0  0  0  0  0
  188.4420  176.6710  135.7620 C   0  0  0  0  0  0  0  0  0  0  0  0
  188.0520  176.9270  134.5940 O   0  0  0  0  0  0  0  0  0  0  0  0
  188.5590  175.3500  136.1760 O   0  0  0  0  0  1  0  0  0  0  0  0
  192.9350  175.9920  148.5120 N   0  0  0  0  0  2  0  0  0  0  0  0
  193.8650  176.8760  148.9520 O   0  0  0  0  0  0  0  0  0  0  0  0
  193.8200  176.7830  150.3450 C   0  0  0  0  0  1  0  0  0  0  0  0
  1 11  2  0  0  0  0
  1 18  1  0  0  0  0
  2 16  1  0  0  0  0
  2 13  1  0  0  0  0
  3 16  1  0  0  0  0
  4  6  1  0  0  0  0
  5  1  1  0  0  0  0
  6  8  2  0  0  0  0
  6 11  1  0  0  0  0
  7 12  2  0  0  0  0
  8  7  1  0  0  0  0
  9  4  1  0  0  0  0
  9  5  2  0  0  0  0
 10 12  1  0  0  0  0
 10  3  2  0  0  0  0
 11 10  1  0  0  0  0
 14 13  2  0  0  0  0
 14 32  1  0  0  0  0
 15 14  1  0  0  0  0
 17 18  1  0  0  0  0
 17 15  2  0  0  0  0
 18  2  2  0  0  0  0
 19 28  1  0  0  0  0
 20 27  1  0  0  0  0
 21 29  1  6  0  0  0
 21 22  1  0  0  0  0
 21 24  1  0  0  0  0
 22 23  1  0  0  0  0
 23 25  1  0  0  0  0
 23 19  2  0  0  0  0
 24 25  1  0  0  0  0
 25 20  2  0  0  0  0
 26 24  1  0  0  0  0
 27  9  1  0  0  0  0
 28 27  2  0  0  0  0
 29 31  1  0  0  0  0
 30 29  2  0  0  0  0
 32 33  1  0  0  0  0
 33 34  1  0  0  0  0
M  END
>  <MODEL>
4

>  <REMARK>
 VINA RESULT:     -10.0      3.613      6.548
  Name = 
  4 active torsions:
  status: ('A' for Active; 'I' for Inactive)
    1  A    between atoms: N_3  and  O_13
    2  A    between atoms: N_3  and  C_25
    3  A    between atoms: C_7  and  C_11
    4  A    between atoms: C_18  and  C_30
                            x       y       z     vdW  Elec       q    Type
                         _______ _______ _______ _____ _____    ______ ____

>  <TORSDO>
F 4

$$$$
=
 OpenBabel10262423273D

 34 39  0  0  1  0  0  0  0  0999 V2000
  184.4540  178.2530  141.7490 C   0  0  0  0  0  0  0  0  0  0  0  0
  184.0590  177.8400  139.2520 C   0  0  0  0  0  0  0  0  0  0  0  0
  181.8160  178.1040  140.2340 C   0  0  0  0  0  3  0  0  0  0  0  0
  184.2550  178.8370  144.5620 C   0  0  0  0  0  3  0  0  0  0  0  0
  185.5340  178.0230  142.6750 N   0  0  0  0  0  0  0  0  0  0  0  0
  183.1010  178.8930  143.6110 C   0  0  0  0  0  0  0  0  0  0  0  0
  180.7810  179.5100  143.3470 C   0  0  0  0  0  3  0  0  0  0  0  0
  181.9060  179.3770  144.1420 C   0  0  0  0  0  3  0  0  0  0  0  0
  185.4790  178.2320  143.9550 C   0  0  0  0  0  0  0  0  0  0  0  0
  182.0150  178.6280  141.4440 C   0  0  0  0  0  0  0  0  0  0  0  0
  183.2140  178.5680  142.2240 C   0  0  1  0  0  3  0  0  0  0  0  0
  180.8380  179.1240  142.0160 C   0  0  0  0  0  3  0  0  0  0  0  0
  184.5970  177.7560  137.9620 C   0  0  0  0  0  3  0  0  0  0  0  0
  185.9200  178.1230  137.7080 C   0  0  0  0  0  0  0  0  0  0  0  0
  186.7200  178.5670  138.7570 C   0  0  0  0  0  3  0  0  0  0  0  0
  182.7320  177.4780  139.3980 O   0  0  0  0  0  0  0  0  0  0  0  0
  186.1970  178.6280  140.0490 C   0  0  0  0  0  3  0  0  0  0  0  0
  184.8640  178.2660  140.3220 C   0  0  0  0  0  0  0  0  0  0  0  0
  187.6260  177.5010  147.0050 C   0  0  0  0  0  3  0  0  0  0  0  0
  187.9390  177.8360  144.2190 C   0  0  0  0  0  3  0  0  0  0  0  0
  191.1860  177.1870  145.8600 C   0  0  2  0  0  3  0  0  0  0  0  0
  190.1920  177.1350  147.0430 C   0  0  0  0  0  2  0  0  0  0  0  0
  188.8770  177.4010  146.3980 C   0  0  0  0  0  0  0  0  0  0  0  0
  190.3770  177.4200  144.6640 N   0  0  0  0  0  0  0  0  0  0  0  0
  189.0260  177.5620  145.0510 C   0  0  0  0  0  0  0  0  0  0  0  0
  190.9150  177.7870  143.3650 C   0  0  0  0  0  1  0  0  0  0  0  0
  186.6590  177.9430  144.7970 C   0  0  0  0  0  0  0  0  0  0  0  0
  186.5130  177.7720  146.1940 C   0  0  0  0  0  3  0  0  0  0  0  0
  191.9220  175.8920  145.7490 C   0  0  0  0  0  0  0  0  0  0  0  0
  192.4190  175.3670  146.7770 O   0  0  0  0  0  1  0  0  0  0  0  0
  192.0540  175.2590  144.5180 O   0  0  0  0  0  0  0  0  0  0  0  0
  186.4640  178.0480  136.3890 N   0  0  0  0  0  2  0  0  0  0  0  0
  187.7270  178.4560  136.1110 O   0  0  0  0  0  0  0  0  0  0  0  0
  188.3900  177.3060  135.6780 C   0  0  0  0  0  1  0  0  0  0  0  0
  1 11  1  0  0  0  0
  1  5  2  0  0  0  0
  2 16  1  0  0  0  0
  2 18  1  0  0  0  0
  3 10  2  0  0  0  0
  5  9  1  0  0  0  0
  6  8  2  0  0  0  0
  6  4  1  0  0  0  0
  7  8  1  0  0  0  0
  9  4  2  0  0  0  0
  9 27  1  0  0  0  0
 10 12  1  0  0  0  0
 11 10  1  6  0  0  0
 11  6  1  0  0  0  0
 12  7  2  0  0  0  0
 13  2  2  0  0  0  0
 14 13  1  0  0  0  0
 14 15  2  0  0  0  0
 15 17  1  0  0  0  0
 16  3  1  0  0  0  0
 17 18  2  0  0  0  0
 18  1  1  0  0  0  0
 20 27  2  0  0  0  0
 20 25  1  0  0  0  0
 21 29  1  6  0  0  0
 21 22  1  0  0  0  0
 23 19  1  0  0  0  0
 23 22  1  0  0  0  0
 24 25  1  0  0  0  0
 24 21  1  0  0  0  0
 25 23  2  0  0  0  0
 26 24  1  0  0  0  0
 27 28  1  0  0  0  0
 28 19  2  0  0  0  0
 29 30  1  0  0  0  0
 31 29  2  0  0  0  0
 32 14  1  0  0  0  0
 33 32  1  0  0  0  0
 34 33  1  0  0  0  0
M  END
>  <MODEL>
5

>  <REMARK>
 VINA RESULT:      -9.9      2.498      7.878
  Name = 
  4 active torsions:
  status: ('A' for Active; 'I' for Inactive)
    1  A    between atoms: N_3  and  O_13
    2  A    between atoms: N_3  and  C_25
    3  A    between atoms: C_7  and  C_11
    4  A    between atoms: C_18  and  C_30
                            x       y       z     vdW  Elec       q    Type
                         _______ _______ _______ _____ _____    ______ ____

>  <TORSDO>
F 4

$$$$
=
 OpenBabel10262423273D

 34 39  0  0  1  0  0  0  0  0999 V2000
  188.7740  177.6020  142.4130 C   0  0  0  0  0  0  0  0  0  0  0  0
  190.5480  177.6370  140.5660 C   0  0  0  0  0  0  0  0  0  0  0  0
  191.8080  177.6170  142.6810 C   0  0  0  0  0  3  0  0  0  0  0  0
  187.2950  177.4700  144.8800 C   0  0  0  0  0  3  0  0  0  0  0  0
  187.3730  177.9310  142.5050 N   0  0  0  0  0  0  0  0  0  0  0  0
  188.7800  177.3130  144.7840 C   0  0  0  0  0  0  0  0  0  0  0  0
  190.7940  176.7530  145.9930 C   0  0  0  0  0  3  0  0  0  0  0  0
  189.4260  176.9640  145.9690 C   0  0  0  0  0  3  0  0  0  0  0  0
  186.6750  177.9260  143.5990 C   0  0  0  0  0  0  0  0  0  0  0  0
  190.9230  177.2790  143.6210 C   0  0  0  0  0  0  0  0  0  0  0  0
  189.4990  177.4130  143.5530 C   0  0  1  0  0  3  0  0  0  0  0  0
  191.5310  176.9250  144.8310 C   0  0  0  0  0  3  0  0  0  0  0  0
  190.8510  177.4990  139.2050 C   0  0  0  0  0  3  0  0  0  0  0  0
  189.8920  177.0460  138.2970 C   0  0  0  0  0  0  0  0  0  0  0  0
  188.6120  176.7400  138.7500 C   0  0  0  0  0  3  0  0  0  0  0  0
  191.5720  178.0690  141.3900 O   0  0  0  0  0  0  0  0  0  0  0  0
  188.2980  176.9010  140.1000 C   0  0  0  0  0  3  0  0  0  0  0  0
  189.2530  177.3520  141.0300 C   0  0  0  0  0  0  0  0  0  0  0  0
  183.2230  179.0640  144.7110 C   0  0  0  0  0  3  0  0  0  0  0  0
  184.5270  178.2360  142.3470 C   0  0  0  0  0  3  0  0  0  0  0  0
  180.9660  178.9940  141.7140 C   0  0  2  0  0  3  0  0  0  0  0  0
  181.1150  179.3000  143.2230 C   0  0  0  0  0  2  0  0  0  0  0  0
  182.5460  178.9940  143.4950 C   0  0  0  0  0  0  0  0  0  0  0  0
  182.2950  178.5990  141.2500 N   0  0  0  0  0  0  0  0  0  0  0  0
  183.1780  178.5940  142.3530 C   0  0  0  0  0  0  0  0  0  0  0  0
  182.5690  177.9850  139.9620 C   0  0  0  0  0  1  0  0  0  0  0  0
  185.2450  178.2960  143.5570 C   0  0  0  0  0  0  0  0  0  0  0  0
  184.5820  178.7130  144.7360 C   0  0  0  0  0  3  0  0  0  0  0  0
  180.4980  180.2110  140.9850 C   0  0  0  0  0  0  0  0  0  0  0  0
  180.7920  180.3630  139.7720 O   0  0  0  0  0  0  0  0  0  0  0  0
  179.7330  181.1720  141.6360 O   0  0  0  0  0  1  0  0  0  0  0  0
  190.2060  176.8940  136.9110 N   0  0  0  0  0  2  0  0  0  0  0  0
  189.2610  176.5660  135.9950 O   0  0  0  0  0  0  0  0  0  0  0  0
  189.4330  177.4830  134.9560 C   0  0  0  0  0  1  0  0  0  0  0  0
  1  5  2  0  0  0  0
  2 18  1  0  0  0  0
  2 16  1  0  0  0  0
  3 10  2  0  0  0  0
  5  9  1  0  0  0  0
  6  4  1  0  0  0  0
  6  8  2  0  0  0  0
  8  7  1  0  0  0  0
  9  4  2  0  0  0  0
 10 12  1  0  0  0  0
 11  1  1  6  0  0  0
 11 10  1  0  0  0  0
 11  6  1  0  0  0  0
 12  7  2  0  0  0  0
 13  2  2  0  0  0  0
 14 15  2  0  0  0  0
 14 13  1  0  0  0  0
 15 17  1  0  0  0  0
 16  3  1  0  0  0  0
 17 18  2  0  0  0  0
 18  1  1  0  0  0  0
 19 28  1  0  0  0  0
 20 25  2  0  0  0  0
 20 27  1  0  0  0  0
 21 29  1  6  0  0  0
 21 22  1  0  0  0  0
 22 23  1  0  0  0  0
 23 19  2  0  0  0  0
 24 21  1  0  0  0  0
 24 25  1  0  0  0  0
 25 23  1  0  0  0  0
 26 24  1  0  0  0  0
 27  9  1  0  0  0  0
 27 28  2  0  0  0  0
 29 31  1  0  0  0  0
 30 29  2  0  0  0  0
 32 14  1  0  0  0  0
 33 32  1  0  0  0  0
 34 33  1  0  0  0  0
M  END
>  <MODEL>
6

>  <REMARK>
 VINA RESULT:      -9.7      1.700      2.057
  Name = 
  4 active torsions:
  status: ('A' for Active; 'I' for Inactive)
    1  A    between atoms: N_3  and  O_13
    2  A    between atoms: N_3  and  C_25
    3  A    between atoms: C_7  and  C_11
    4  A    between atoms: C_18  and  C_30
                            x       y       z     vdW  Elec       q    Type
                         _______ _______ _______ _____ _____    ______ ____

>  <TORSDO>
F 4

$$$$
=
 OpenBabel10262423273D

 34 39  0  0  1  0  0  0  0  0999 V2000
  187.9780  177.6290  143.8330 C   0  0  0  0  0  0  0  0  0  0  0  0
  185.8420  177.8400  145.2320 C   0  0  0  0  0  0  0  0  0  0  0  0
  187.6020  177.1820  146.8220 C   0  0  0  0  0  3  0  0  0  0  0  0
  190.6650  177.3220  142.8450 C   0  0  0  0  0  2  0  0  0  0  0  0
  188.2840  177.4590  142.4350 N   0  0  0  0  0  0  0  0  0  0  0  0
  190.3010  177.3170  144.2970 C   0  0  0  0  0  0  0  0  0  0  0  0
  191.1590  177.3120  146.5530 C   0  0  0  0  0  3  0  0  0  0  0  0
  191.3730  177.2800  145.1860 C   0  0  0  0  0  3  0  0  0  0  0  0
  189.4720  177.2770  141.9460 C   0  0  0  0  0  0  0  0  0  0  0  0
  188.7560  177.3790  146.1820 C   0  0  0  0  0  0  0  0  0  0  0  0
  188.9560  177.4400  144.7660 C   0  0  0  0  0  0  0  0  0  0  0  0
  189.8610  177.3460  147.0390 C   0  0  0  0  0  3  0  0  0  0  0  0
  184.5130  178.2750  145.3140 C   0  0  0  0  0  3  0  0  0  0  0  0
  183.9460  179.0510  144.3010 C   0  0  0  0  0  0  0  0  0  0  0  0
  184.7100  179.3880  143.1880 C   0  0  0  0  0  3  0  0  0  0  0  0
  186.3210  177.0960  146.2960 O   0  0  0  0  0  0  0  0  0  0  0  0
  186.0260  178.9360  143.0890 C   0  0  0  0  0  3  0  0  0  0  0  0
  186.6150  178.1550  144.1010 C   0  0  0  0  0  0  0  0  0  0  0  0
  191.0650  176.4930  138.5850 C   0  0  0  0  0  3  0  0  0  0  0  0
  188.5860  177.3830  139.6050 C   0  0  0  0  0  3  0  0  0  0  0  0
  188.5150  177.1690  135.9160 C   0  0  2  0  0  3  0  0  0  0  0  0
  189.9470  176.6920  136.2560 C   0  0  0  0  0  2  0  0  0  0  0  0
  189.9930  176.7770  137.7410 C   0  0  0  0  0  0  0  0  0  0  0  0
  187.8640  177.4320  137.1980 N   0  0  0  0  0  0  0  0  0  0  0  0
  188.7960  177.2060  138.2360 C   0  0  0  0  0  0  0  0  0  0  0  0
  186.6010  178.1340  137.3510 C   0  0  0  0  0  1  0  0  0  0  0  0
  189.6470  177.1040  140.4890 C   0  0  0  0  0  0  0  0  0  0  0  0
  190.8840  176.6580  139.9680 C   0  0  0  0  0  3  0  0  0  0  0  0
  187.7830  176.1070  135.1650 C   0  0  0  0  0  0  0  0  0  0  0  0
  188.2870  174.9600  135.0560 O   0  0  0  0  0  1  0  0  0  0  0  0
  186.5440  176.3730  134.5940 O   0  0  0  0  0  0  0  0  0  0  0  0
  182.5940  179.5040  144.3920 N   0  0  0  0  0  2  0  0  0  0  0  0
  181.5490  178.7140  144.0390 O   0  0  0  0  0  0  0  0  0  0  0  0
  180.9230  179.3920  142.9910 C   0  0  0  0  0  1  0  0  0  0  0  0
  1 18  1  0  0  0  0
  1 11  2  0  0  0  0
  2 13  1  0  0  0  0
  2 16  1  0  0  0  0
  4  6  1  0  0  0  0
  5  1  1  0  0  0  0
  6 11  1  0  0  0  0
  6  8  2  0  0  0  0
  7 12  2  0  0  0  0
  8  7  1  0  0  0  0
  9  5  2  0  0  0  0
  9  4  1  0  0  0  0
 10  3  2  0  0  0  0
 10 12  1  0  0  0  0
 11 10  1  0  0  0  0
 14 32  1  0  0  0  0
 14 13  2  0  0  0  0
 15 14  1  0  0  0  0
 16  3  1  0  0  0  0
 17 15  2  0  0  0  0
 17 18  1  0  0  0  0
 18  2  2  0  0  0  0
 19 28  1  0  0  0  0
 20 27  1  0  0  0  0
 21 29  1  1  0  0  0
 21 22  1  0  0  0  0
 21 24  1  0  0  0  0
 22 23  1  0  0  0  0
 23 25  1  0  0  0  0
 23 19  2  0  0  0  0
 24 26  1  0  0  0  0
 24 25  1  0  0  0  0
 25 20  2  0  0  0  0
 27  9  1  0  0  0  0
 28 27  2  0  0  0  0
 30 29  1  0  0  0  0
 31 29  2  0  0  0  0
 33 32  1  0  0  0  0
 34 33  1  0  0  0  0
M  END
>  <MODEL>
7

>  <REMARK>
 VINA RESULT:      -9.6      2.972      7.063
  Name = 
  4 active torsions:
  status: ('A' for Active; 'I' for Inactive)
    1  A    between atoms: N_3  and  O_13
    2  A    between atoms: N_3  and  C_25
    3  A    between atoms: C_7  and  C_11
    4  A    between atoms: C_18  and  C_30
                            x       y       z     vdW  Elec       q    Type
                         _______ _______ _______ _____ _____    ______ ____

>  <TORSDO>
F 4

$$$$
=
 OpenBabel10262423273D

 34 39  0  0  1  0  0  0  0  0999 V2000
  188.5310  177.4980  142.6310 C   0  0  0  0  0  0  0  0  0  0  0  0
  186.1970  177.6890  143.6680 C   0  0  0  0  0  0  0  0  0  0  0  0
  187.7130  177.2210  145.5510 C   0  0  0  0  0  3  0  0  0  0  0  0
  191.3490  177.2650  142.0880 C   0  0  0  0  0  2  0  0  0  0  0  0
  189.0580  177.2560  141.3110 N   0  0  0  0  0  0  0  0  0  0  0  0
  190.7640  177.3330  143.4640 C   0  0  0  0  0  0  0  0  0  0  0  0
  191.2600  177.5120  145.8200 C   0  0  0  0  0  3  0  0  0  0  0  0
  191.6850  177.4050  144.5070 C   0  0  0  0  0  3  0  0  0  0  0  0
  190.3140  177.1040  141.0230 C   0  0  0  0  0  0  0  0  0  0  0  0
  188.9430  177.4360  145.0820 C   0  0  0  0  0  0  0  0  0  0  0  0
  189.3590  177.4170  143.7130 C   0  0  0  0  0  0  0  0  0  0  0  0
  189.9010  177.5110  146.0990 C   0  0  0  0  0  3  0  0  0  0  0  0
  184.8550  178.0610  143.5160 C   0  0  0  0  0  3  0  0  0  0  0  0
  184.4220  178.7430  142.3770 C   0  0  0  0  0  0  0  0  0  0  0  0
  185.3370  179.0470  141.3730 C   0  0  0  0  0  3  0  0  0  0  0  0
  186.5330  177.0390  144.8420 O   0  0  0  0  0  0  0  0  0  0  0  0
  186.6690  178.6560  141.5080 C   0  0  0  0  0  3  0  0  0  0  0  0
  187.1240  177.9710  142.6500 C   0  0  0  0  0  0  0  0  0  0  0  0
  190.2160  176.9210  137.2270 C   0  0  0  0  0  3  0  0  0  0  0  0
  191.9820  176.2920  139.3390 C   0  0  0  0  0  3  0  0  0  0  0  0
  193.4510  175.4170  136.0630 C   0  0  2  0  0  3  0  0  0  0  0  0
  192.0810  176.0170  135.6710 C   0  0  0  0  0  2  0  0  0  0  0  0
  191.4730  176.3700  136.9830 C   0  0  0  0  0  0  0  0  0  0  0  0
  193.5330  175.5200  137.5200 N   0  0  0  0  0  0  0  0  0  0  0  0
  192.3250  176.0670  138.0050 C   0  0  0  0  0  0  0  0  0  0  0  0
  194.5340  174.8540  138.3360 C   0  0  0  0  0  1  0  0  0  0  0  0
  190.7200  176.8490  139.6250 C   0  0  0  0  0  0  0  0  0  0  0  0
  189.8440  177.1610  138.5590 C   0  0  0  0  0  3  0  0  0  0  0  0
  194.5550  176.1910  135.4210 C   0  0  0  0  0  0  0  0  0  0  0  0
  195.3140  175.6260  134.5940 O   0  0  0  0  0  0  0  0  0  0  0  0
  194.7430  177.5340  135.7250 O   0  0  0  0  0  1  0  0  0  0  0  0
  183.0550  179.1320  142.2290 N   0  0  0  0  0  2  0  0  0  0  0  0
  182.2340  179.2840  143.2970 O   0  0  0  0  0  0  0  0  0  0  0  0
  180.9440  179.2960  142.7620 C   0  0  0  0  0  1  0  0  0  0  0  0
  1 18  1  0  0  0  0
  1 11  2  0  0  0  0
  2 16  1  0  0  0  0
  4  6  1  0  0  0  0
  5  1  1  0  0  0  0
  6 11  1  0  0  0  0
  6  8  2  0  0  0  0
  7 12  2  0  0  0  0
  8  7  1  0  0  0  0
  9  5  2  0  0  0  0
  9  4  1  0  0  0  0
 10  3  2  0  0  0  0
 10 12  1  0  0  0  0
 11 10  1  0  0  0  0
 13  2  1  0  0  0  0
 14 13  2  0  0  0  0
 15 17  2  0  0  0  0
 15 14  1  0  0  0  0
 16  3  1  0  0  0  0
 17 18  1  0  0  0  0
 18  2  2  0  0  0  0
 19 28  1  0  0  0  0
 20 27  1  0  0  0  0
 21 29  1  6  0  0  0
 21 24  1  0  0  0  0
 22 21  1  0  0  0  0
 22 23  1  0  0  0  0
 23 19  2  0  0  0  0
 23 25  1  0  0  0  0
 24 25  1  0  0  0  0
 24 26  1  0  0  0  0
 25 20  2  0  0  0  0
 27  9  1  0  0  0  0
 28 27  2  0  0  0  0
 29 31  1  0  0  0  0
 30 29  2  0  0  0  0
 32 14  1  0  0  0  0
 32 33  1  0  0  0  0
 34 33  1  0  0  0  0
M  END
>  <MODEL>
8

>  <REMARK>
 VINA RESULT:      -9.5      2.189      8.613
  Name = 
  4 active torsions:
  status: ('A' for Active; 'I' for Inactive)
    1  A    between atoms: N_3  and  O_13
    2  A    between atoms: N_3  and  C_25
    3  A    between atoms: C_7  and  C_11
    4  A    between atoms: C_18  and  C_30
                            x       y       z     vdW  Elec       q    Type
                         _______ _______ _______ _____ _____    ______ ____

>  <TORSDO>
F 4

$$$$
=
 OpenBabel10262423273D

 34 39  0  0  1  0  0  0  0  0999 V2000
  187.0830  178.0780  144.6000 C   0  0  0  0  0  0  0  0  0  0  0  0
  184.5850  178.2510  145.1400 C   0  0  0  0  0  0  0  0  0  0  0  0
  185.6910  177.8220  147.2970 C   0  0  0  0  0  3  0  0  0  0  0  0
  189.9550  177.8730  144.6450 C   0  0  0  0  0  2  0  0  0  0  0  0
  187.8690  177.8280  143.4180 N   0  0  0  0  0  0  0  0  0  0  0  0
  189.1020  177.9490  145.8720 C   0  0  0  0  0  0  0  0  0  0  0  0
  189.1070  178.1600  148.2770 C   0  0  0  0  0  3  0  0  0  0  0  0
  189.7910  178.0440  147.0790 C   0  0  0  0  0  3  0  0  0  0  0  0
  189.1590  177.6880  143.3940 C   0  0  0  0  0  0  0  0  0  0  0  0
  186.9890  178.0470  147.0850 C   0  0  0  0  0  0  0  0  0  0  0  0
  187.6750  178.0180  145.8290 C   0  0  0  0  0  0  0  0  0  0  0  0
  187.7200  178.1450  148.2740 C   0  0  0  0  0  3  0  0  0  0  0  0
  183.2990  178.6040  144.7140 C   0  0  0  0  0  3  0  0  0  0  0  0
  183.0990  179.2690  143.5020 C   0  0  0  0  0  0  0  0  0  0  0  0
  184.1950  179.5730  142.7000 C   0  0  0  0  0  3  0  0  0  0  0  0
  184.6820  177.6170  146.3660 O   0  0  0  0  0  0  0  0  0  0  0  0
  185.4760  179.2000  143.1080 C   0  0  0  0  0  3  0  0  0  0  0  0
  185.6960  178.5330  144.3280 C   0  0  0  0  0  0  0  0  0  0  0  0
  191.9200  177.1570  140.8350 C   0  0  0  0  0  3  0  0  0  0  0  0
  189.0980  177.1880  140.9390 C   0  0  0  0  0  3  0  0  0  0  0  0
  190.3020  176.5350  137.5070 C   0  0  2  0  0  3  0  0  0  0  0  0
  191.6180  176.6590  138.3100 C   0  0  0  0  0  2  0  0  0  0  0  0
  191.1490  176.9280  139.6970 C   0  0  0  0  0  0  0  0  0  0  0  0
  189.2210  176.6880  138.4800 N   0  0  0  0  0  0  0  0  0  0  0  0
  189.7850  176.9420  139.7490 C   0  0  0  0  0  0  0  0  0  0  0  0
  187.8240  176.8900  138.1330 C   0  0  0  0  0  1  0  0  0  0  0  0
  189.8430  177.4230  142.1110 C   0  0  0  0  0  0  0  0  0  0  0  0
  191.2570  177.4040  142.0480 C   0  0  0  0  0  3  0  0  0  0  0  0
  190.2260  175.1980  136.8460 C   0  0  0  0  0  0  0  0  0  0  0  0
  190.1110  175.1250  135.5960 O   0  0  0  0  0  0  0  0  0  0  0  0
  190.2900  174.0330  137.6030 O   0  0  0  0  0  1  0  0  0  0  0  0
  181.7870  179.6390  143.0740 N   0  0  0  0  0  2  0  0  0  0  0  0
  180.8340  178.7130  142.8030 O   0  0  0  0  0  0  0  0  0  0  0  0
  180.9690  178.4450  141.4390 C   0  0  0  0  0  1  0  0  0  0  0  0
  1 11  2  0  0  0  0
  2 16  1  0  0  0  0
  4  6  1  0  0  0  0
  5  1  1  0  0  0  0
  6  8  2  0  0  0  0
  8  7  1  0  0  0  0
  9  5  2  0  0  0  0
  9  4  1  0  0  0  0
 10  3  2  0  0  0  0
 10 12  1  0  0  0  0
 11  6  1  0  0  0  0
 11 10  1  0  0  0  0
 12  7  2  0  0  0  0
 13  2  1  0  0  0  0
 14 13  2  0  0  0  0
 15 17  2  0  0  0  0
 15 14  1  0  0  0  0
 16  3  1  0  0  0  0
 17 18  1  0  0  0  0
 18  1  1  0  0  0  0
 18  2  2  0  0  0  0
 19 28  1  0  0  0  0
 20 27  1  0  0  0  0
 21 29  1  1  0  0  0
 21 22  1  0  0  0  0
 21 24  1  0  0  0  0
 22 23  1  0  0  0  0
 23 25  1  0  0  0  0
 23 19  2  0  0  0  0
 24 25  1  0  0  0  0
 25 20  2  0  0  0  0
 26 24  1  0  0  0  0
 27  9  1  0  0  0  0
 28 27  2  0  0  0  0
 29 31  1  0  0  0  0
 30 29  2  0  0  0  0
 32 14  1  0  0  0  0
 33 32  1  0  0  0  0
 34 33  1  0  0  0  0
M  END
>  <MODEL>
9

>  <REMARK>
 VINA RESULT:      -9.4      2.345      7.509
  Name = 
  4 active torsions:
  status: ('A' for Active; 'I' for Inactive)
    1  A    between atoms: N_3  and  O_13
    2  A    between atoms: N_3  and  C_25
    3  A    between atoms: C_7  and  C_11
    4  A    between atoms: C_18  and  C_30
                            x       y       z     vdW  Elec       q    Type
                         _______ _______ _______ _____ _____    ______ ____

>  <TORSDO>
F 4

$$$$
