=
 OpenBabel10262420233D

 55 58  0  0  1  0  0  0  0  0999 V2000
  185.1030  178.0730  143.7450 C   0  0  1  0  0  3  0  0  0  0  0  0
  186.2910  177.9900  142.7970 C   0  0  0  0  0  2  0  0  0  0  0  0
  186.2660  179.1460  141.8110 C   0  0  0  0  0  2  0  0  0  0  0  0
  186.1820  178.6490  140.3720 C   0  0  0  0  0  2  0  0  0  0  0  0
  187.4130  177.8600  139.9370 C   0  0  0  0  0  2  0  0  0  0  0  0
  188.6960  178.6110  140.2610 C   0  0  0  0  0  2  0  0  0  0  0  0
  189.8860  177.6650  140.3270 C   0  0  1  0  0  3  0  0  0  0  0  0
  190.1770  177.2400  141.6950 N   0  0  0  0  0  0  0  0  0  0  0  0
  190.4830  177.1920  143.8730 C   0  0  0  0  0  0  0  0  0  0  0  0
  190.4180  175.9630  142.0500 C   0  0  0  0  0  3  0  0  0  0  0  0
  190.6190  175.8920  143.4170 C   0  0  0  0  0  3  0  0  0  0  0  0
  190.2040  178.0140  142.7970 C   0  0  0  0  0  3  0  0  0  0  0  0
  191.6960  177.4370  145.8870 O   0  0  0  0  0  0  0  0  0  0  0  0
  189.5530  178.2330  145.9220 O   0  0  0  0  0  1  0  0  0  0  0  0
  190.6150  177.6210  145.2700 C   0  0  0  0  0  0  0  0  0  0  0  0
  189.6390  176.4660  139.4140 C   0  0  0  0  0  2  0  0  0  0  0  0
  191.4310  175.8390  136.0960 C   0  0  0  0  0  3  0  0  0  0  0  0
  192.7530  176.1050  136.4560 C   0  0  0  0  0  3  0  0  0  0  0  0
  190.7070  176.3210  138.3690 C   0  0  0  0  0  0  0  0  0  0  0  0
  192.0370  176.6070  138.7100 C   0  0  0  0  0  3  0  0  0  0  0  0
  193.0550  176.4940  137.7600 C   0  0  0  0  0  3  0  0  0  0  0  0
  190.3980  175.9510  137.0360 C   0  0  0  0  0  0  0  0  0  0  0  0
  188.8020  174.2330  136.1830 C   0  0  0  0  0  1  0  0  0  0  0  0
  189.0000  175.6930  136.5510 C   0  0  2  0  0  3  0  0  0  0  0  0
  188.6170  176.6160  135.4050 C   0  0  0  0  0  2  0  0  0  0  0  0
  188.7370  177.9480  135.8030 O   0  0  0  0  0  0  0  0  0  0  0  0
  187.3830  179.3750  136.9450 O   0  0  0  0  0  1  0  0  0  0  0  0
  187.4220  178.3740  135.9770 C   0  0  0  0  0  2  0  0  0  0  0  0
  185.3730  178.9320  144.8180 O   0  0  0  0  0  0  0  0  0  0  0  0
  186.3080  178.2540  145.6040 C   0  0  0  0  0  2  0  0  0  0  0  0
  185.6960  179.7200  147.3750 O   0  0  0  0  0  1  0  0  0  0  0  0
  185.9310  178.3800  147.0670 C   0  0  0  0  0  2  0  0  0  0  0  0
  183.8430  178.4980  142.9830 C   0  0  0  0  0  2  0  0  0  0  0  0
  182.8580  179.3350  143.7980 C   0  0  0  0  0  2  0  0  0  0  0  0
  181.4560  178.7350  143.8210 C   0  0  0  0  0  2  0  0  0  0  0  0
  180.5320  179.6300  143.2730 O   0  0  0  0  0  0  0  0  0  0  0  0
  180.6460  179.4720  141.8890 C   0  0  0  0  0  2  0  0  0  0  0  0
  179.2810  179.6120  141.2400 C   0  0  0  0  0  2  0  0  0  0  0  0
  179.3410  180.5210  140.1790 O   0  0  0  0  0  0  0  0  0  0  0  0
  180.6150  180.3610  139.6230 C   0  0  0  0  0  2  0  0  0  0  0  0
  181.9090  179.2440  137.8050 C   0  0  2  0  0  3  0  0  0  0  0  0
  180.0200  178.8460  136.2500 O   0  0  0  0  0  1  0  0  0  0  0  0
  180.6080  179.2280  138.6040 C   0  0  2  0  0  3  0  0  0  0  0  0
  180.5450  181.2080  136.8510 C   0  0  0  0  0  1  0  0  0  0  0  0
  180.6130  179.7200  137.1640 C   0  0  1  0  0  0  0  0  0  0  0  0
  183.8740  175.7090  136.3280 C   0  0  1  0  0  3  0  0  0  0  0  0
  182.6540  176.4150  135.7100 C   0  0  0  0  0  2  0  0  0  0  0  0
  182.8360  176.4180  139.4040 C   0  0  0  0  0  1  0  0  0  0  0  0
  182.6360  177.7760  136.0520 O   0  0  0  0  0  0  0  0  0  0  0  0
  184.4650  176.5050  137.5010 C   0  0  0  0  0  2  0  0  0  0  0  0
  182.2770  177.8180  137.4100 C   0  0  1  0  0  3  0  0  0  0  0  0
  183.4120  177.2870  138.3020 C   0  0  1  0  0  3  0  0  0  0  0  0
  183.5020  174.3040  136.7790 C   0  0  0  0  0  2  0  0  0  0  0  0
  182.7470  172.7400  135.0090 C   0  0  0  0  0  1  0  0  0  0  0  0
  182.3010  173.7960  136.0000 C   0  0  0  0  0  2  0  0  0  0  0  0
  1  2  1  6  0  0  0
  1 29  1  0  0  0  0
  3  2  1  0  0  0  0
  4  3  1  0  0  0  0
  5  6  1  0  0  0  0
  5  4  1  0  0  0  0
  6  7  1  0  0  0  0
  7 16  1  6  0  0  0
  7  8  1  0  0  0  0
  8 10  1  0  0  0  0
  8 12  1  0  0  0  0
  9 15  1  0  0  0  0
 10 11  2  0  0  0  0
 11  9  1  0  0  0  0
 12  9  2  0  0  0  0
 15 13  2  0  0  0  0
 15 14  1  0  0  0  0
 17 18  2  0  0  0  0
 17 22  1  0  0  0  0
 18 21  1  0  0  0  0
 19 20  1  0  0  0  0
 19 16  1  0  0  0  0
 21 20  2  0  0  0  0
 22 19  2  0  0  0  0
 24 23  1  6  0  0  0
 24 22  1  0  0  0  0
 25 26  1  0  0  0  0
 25 24  1  0  0  0  0
 26 28  1  0  0  0  0
 28 27  1  0  0  0  0
 29 30  1  0  0  0  0
 30 32  1  0  0  0  0
 32 31  1  0  0  0  0
 33  1  1  0  0  0  0
 33 34  1  0  0  0  0
 34 35  1  0  0  0  0
 36 35  1  0  0  0  0
 37 36  1  0  0  0  0
 38 37  1  0  0  0  0
 39 38  1  0  0  0  0
 40 39  1  0  0  0  0
 41 51  1  6  0  0  0
 41 43  1  0  0  0  0
 42 45  1  0  0  0  0
 43 40  1  1  0  0  0
 45 44  1  6  0  0  0
 45 41  1  0  0  0  0
 45 43  1  0  0  0  0
 46 53  1  1  0  0  0
 46 50  1  0  0  0  0
 47 49  1  0  0  0  0
 47 46  1  0  0  0  0
 50 52  1  0  0  0  0
 51 49  1  6  0  0  0
 51 52  1  0  0  0  0
 52 48  1  1  0  0  0
 54 55  1  0  0  0  0
 55 53  1  0  0  0  0
M  END
>  <MODEL>
1

>  <REMARK>
 VINA RESULT:      -5.5      0.000      0.000
  Name = 
  29 active torsions:
  status: ('A' for Active; 'I' for Inactive)
    1  A    between atoms: C_1  and  C_46
    2  A    between atoms: C_2  and  C_44
    3  A    between atoms: C_2  and  C_49
    4  A    between atoms: C_3  and  C_25
    5  A    between atoms: C_5  and  O_40
    6  A    between atoms: C_5  and  C_45
    7  A    between atoms: C_8  and  O_20
    8  A    between atoms: C_8  and  C_22
    9  A    between atoms: C_12  and  C_42
   10  A    between atoms: N_13  and  C_52
   11  A    between atoms: C_16  and  C_36
   12  A    between atoms: O_20  and  C_42
   13  A    between atoms: C_22  and  O_43
   14  A    between atoms: C_25  and  C_38
   15  A    between atoms: C_26  and  C_45
   16  A    between atoms: C_27  and  C_31
   17  A    between atoms: C_27  and  C_49
   18  A    between atoms: C_27  and  O_54
   19  A    between atoms: C_28  and  C_33
   20  A    between atoms: C_28  and  C_44
   21  A    between atoms: C_31  and  C_35
   22  A    between atoms: C_32  and  C_47
   23  A    between atoms: C_33  and  C_52
   24  A    between atoms: C_35  and  C_51
   25  A    between atoms: C_36  and  C_52
   26  A    between atoms: C_37  and  O_40
   27  A    between atoms: C_41  and  C_55
   28  A    between atoms: O_43  and  C_51
   29  A    between atoms: O_54  and  C_55
                            x       y       z     vdW  Elec       q    Type
                         _______ _______ _______ _____ _____    ______ ____

>  <TORSDO>
F 29

$$$$
=
 OpenBabel10262420233D

 55 58  0  0  1  0  0  0  0  0999 V2000
  185.1650  178.4330  142.3560 C   0  0  1  0  0  3  0  0  0  0  0  0
  183.8450  179.1760  142.5090 C   0  0  0  0  0  2  0  0  0  0  0  0
  182.6770  178.2480  142.2170 C   0  0  0  0  0  2  0  0  0  0  0  0
  182.4070  178.1470  140.7200 C   0  0  0  0  0  2  0  0  0  0  0  0
  181.7380  179.3920  140.1450 C   0  0  0  0  0  2  0  0  0  0  0  0
  182.1960  179.6590  138.7200 C   0  0  0  0  0  2  0  0  0  0  0  0
  181.0220  179.6410  137.7520 C   0  0  1  0  0  3  0  0  0  0  0  0
  180.8520  180.9210  137.0670 N   0  0  0  0  0  0  0  0  0  0  0  0
  180.7620  183.0660  136.5900 C   0  0  0  0  0  0  0  0  0  0  0  0
  180.6000  181.0410  135.7490 C   0  0  0  0  0  3  0  0  0  0  0  0
  180.5320  182.3810  135.4100 C   0  0  0  0  0  3  0  0  0  0  0  0
  180.9630  182.1500  137.6060 C   0  0  0  0  0  3  0  0  0  0  0  0
  179.8120  185.2160  136.3300 O   0  0  0  0  0  0  0  0  0  0  0  0
  181.8750  185.1600  137.3150 O   0  0  0  0  0  1  0  0  0  0  0  0
  180.7850  184.5270  136.7340 C   0  0  0  0  0  0  0  0  0  0  0  0
  181.1960  178.4980  136.7550 C   0  0  0  0  0  2  0  0  0  0  0  0
  181.5740  174.8800  137.9300 C   0  0  0  0  0  3  0  0  0  0  0  0
  180.3600  174.6890  138.5920 C   0  0  0  0  0  3  0  0  0  0  0  0
  180.9240  177.1580  137.3760 C   0  0  0  0  0  0  0  0  0  0  0  0
  179.7180  176.9600  138.0640 C   0  0  0  0  0  3  0  0  0  0  0  0
  179.4350  175.7300  138.6640 C   0  0  0  0  0  3  0  0  0  0  0  0
  181.8740  176.1070  137.3260 C   0  0  0  0  0  0  0  0  0  0  0  0
  183.2110  175.6870  135.2620 C   0  0  0  0  0  1  0  0  0  0  0  0
  183.2220  176.2400  136.6760 C   0  0  2  0  0  3  0  0  0  0  0  0
  184.3210  175.6090  137.5160 C   0  0  0  0  0  2  0  0  0  0  0  0
  185.4370  175.3420  136.7230 O   0  0  0  0  0  0  0  0  0  0  0  0
  184.8440  173.4120  137.7740 O   0  0  0  0  0  1  0  0  0  0  0  0
  185.8960  174.1080  137.1810 C   0  0  0  0  0  2  0  0  0  0  0  0
  186.0290  179.1150  141.4900 O   0  0  0  0  0  0  0  0  0  0  0  0
  186.5900  178.1250  140.6790 C   0  0  0  0  0  2  0  0  0  0  0  0
  185.3720  178.8640  138.7720 O   0  0  0  0  0  1  0  0  0  0  0  0
  186.6610  178.6190  139.2470 C   0  0  0  0  0  2  0  0  0  0  0  0
  185.8060  178.2010  143.7280 C   0  0  0  0  0  2  0  0  0  0  0  0
  185.3470  179.1700  144.8180 C   0  0  0  0  0  2  0  0  0  0  0  0
  185.1360  178.4850  146.1640 C   0  0  0  0  0  2  0  0  0  0  0  0
  186.3350  177.9410  146.6300 O   0  0  0  0  0  0  0  0  0  0  0  0
  186.6060  178.6200  147.8210 C   0  0  0  0  0  2  0  0  0  0  0  0
  187.9550  178.1860  148.3660 C   0  0  0  0  0  2  0  0  0  0  0  0
  188.9840  178.6560  147.5430 O   0  0  0  0  0  0  0  0  0  0  0  0
  190.1230  177.9430  147.9290 C   0  0  0  0  0  2  0  0  0  0  0  0
  190.0590  176.5740  145.8420 C   0  0  2  0  0  3  0  0  0  0  0  0
  192.3550  175.6500  145.9820 O   0  0  0  0  0  1  0  0  0  0  0  0
  190.9130  177.5030  146.7020 C   0  0  2  0  0  3  0  0  0  0  0  0
  190.7800  175.1200  147.8410 C   0  0  0  0  0  1  0  0  0  0  0  0
  191.1990  176.0090  146.6790 C   0  0  1  0  0  0  0  0  0  0  0  0
  190.0160  177.0760  141.5660 C   0  0  1  0  0  3  0  0  0  0  0  0
  190.4430  175.8190  142.3460 C   0  0  0  0  0  2  0  0  0  0  0  0
  191.2740  179.0640  143.9130 C   0  0  0  0  0  1  0  0  0  0  0  0
  189.8100  175.7660  143.5980 O   0  0  0  0  0  0  0  0  0  0  0  0
  189.4230  178.1510  142.4900 C   0  0  0  0  0  2  0  0  0  0  0  0
  190.4340  176.7560  144.3760 C   0  0  1  0  0  3  0  0  0  0  0  0
  190.0520  178.1660  143.8930 C   0  0  1  0  0  3  0  0  0  0  0  0
  191.1930  177.6420  140.7860 C   0  0  0  0  0  2  0  0  0  0  0  0
  190.4030  177.6750  138.4360 C   0  0  0  0  0  1  0  0  0  0  0  0
  191.3050  176.9700  139.4290 C   0  0  0  0  0  2  0  0  0  0  0  0
  1  2  1  1  0  0  0
  1 33  1  0  0  0  0
  3  2  1  0  0  0  0
  4  3  1  0  0  0  0
  5  4  1  0  0  0  0
  6  5  1  0  0  0  0
  7 16  1  6  0  0  0
  7  6  1  0  0  0  0
  8 12  1  0  0  0  0
  8  7  1  0  0  0  0
  9 15  1  0  0  0  0
  9 12  2  0  0  0  0
 10  8  1  0  0  0  0
 11 10  2  0  0  0  0
 11  9  1  0  0  0  0
 13 15  2  0  0  0  0
 15 14  1  0  0  0  0
 16 19  1  0  0  0  0
 17 18  1  0  0  0  0
 18 21  2  0  0  0  0
 19 20  2  0  0  0  0
 20 21  1  0  0  0  0
 22 19  1  0  0  0  0
 22 17  2  0  0  0  0
 24 23  1  6  0  0  0
 24 22  1  0  0  0  0
 24 25  1  0  0  0  0
 26 28  1  0  0  0  0
 26 25  1  0  0  0  0
 28 27  1  0  0  0  0
 29  1  1  0  0  0  0
 30 29  1  0  0  0  0
 31 32  1  0  0  0  0
 32 30  1  0  0  0  0
 33 34  1  0  0  0  0
 34 35  1  0  0  0  0
 35 36  1  0  0  0  0
 36 37  1  0  0  0  0
 37 38  1  0  0  0  0
 39 40  1  0  0  0  0
 39 38  1  0  0  0  0
 41 51  1  6  0  0  0
 41 45  1  0  0  0  0
 41 43  1  0  0  0  0
 42 45  1  0  0  0  0
 43 40  1  1  0  0  0
 45 43  1  0  0  0  0
 45 44  1  1  0  0  0
 46 53  1  1  0  0  0
 46 47  1  0  0  0  0
 46 50  1  0  0  0  0
 47 49  1  0  0  0  0
 50 52  1  0  0  0  0
 51 49  1  6  0  0  0
 52 48  1  6  0  0  0
 52 51  1  0  0  0  0
 54 55  1  0  0  0  0
 55 53  1  0  0  0  0
M  END
>  <MODEL>
2

>  <REMARK>
 VINA RESULT:      -4.6      2.830      9.961
  Name = 
  29 active torsions:
  status: ('A' for Active; 'I' for Inactive)
    1  A    between atoms: C_1  and  C_46
    2  A    between atoms: C_2  and  C_44
    3  A    between atoms: C_2  and  C_49
    4  A    between atoms: C_3  and  C_25
    5  A    between atoms: C_5  and  O_40
    6  A    between atoms: C_5  and  C_45
    7  A    between atoms: C_8  and  O_20
    8  A    between atoms: C_8  and  C_22
    9  A    between atoms: C_12  and  C_42
   10  A    between atoms: N_13  and  C_52
   11  A    between atoms: C_16  and  C_36
   12  A    between atoms: O_20  and  C_42
   13  A    between atoms: C_22  and  O_43
   14  A    between atoms: C_25  and  C_38
   15  A    between atoms: C_26  and  C_45
   16  A    between atoms: C_27  and  C_31
   17  A    between atoms: C_27  and  C_49
   18  A    between atoms: C_27  and  O_54
   19  A    between atoms: C_28  and  C_33
   20  A    between atoms: C_28  and  C_44
   21  A    between atoms: C_31  and  C_35
   22  A    between atoms: C_32  and  C_47
   23  A    between atoms: C_33  and  C_52
   24  A    between atoms: C_35  and  C_51
   25  A    between atoms: C_36  and  C_52
   26  A    between atoms: C_37  and  O_40
   27  A    between atoms: C_41  and  C_55
   28  A    between atoms: O_43  and  C_51
   29  A    between atoms: O_54  and  C_55
                            x       y       z     vdW  Elec       q    Type
                         _______ _______ _______ _____ _____    ______ ____

>  <TORSDO>
F 29

$$$$
=
 OpenBabel10262420233D

 55 58  0  0  1  0  0  0  0  0999 V2000
  189.8940  177.4610  141.3400 C   0  0  1  0  0  3  0  0  0  0  0  0
  188.8040  178.1880  140.5650 C   0  0  0  0  0  2  0  0  0  0  0  0
  188.8300  177.7790  139.1010 C   0  0  0  0  0  2  0  0  0  0  0  0
  187.4470  177.8830  138.4690 C   0  0  0  0  0  2  0  0  0  0  0  0
  187.1320  176.7290  137.5210 C   0  0  0  0  0  2  0  0  0  0  0  0
  186.0510  177.1130  136.5230 C   0  0  0  0  0  2  0  0  0  0  0  0
  185.3300  175.8810  135.9930 C   0  0  1  0  0  3  0  0  0  0  0  0
  183.9100  176.1330  135.7550 N   0  0  0  0  0  0  0  0  0  0  0  0
  181.7170  175.9800  135.7040 C   0  0  0  0  0  0  0  0  0  0  0  0
  183.4300  177.2650  135.2060 C   0  0  0  0  0  3  0  0  0  0  0  0
  182.0480  177.2050  135.1530 C   0  0  0  0  0  3  0  0  0  0  0  0
  182.8780  175.3300  136.0760 C   0  0  0  0  0  3  0  0  0  0  0  0
  179.6580  175.1940  134.8480 O   0  0  0  0  0  0  0  0  0  0  0  0
  179.8200  175.2560  137.1280 O   0  0  0  0  0  1  0  0  0  0  0  0
  180.3530  175.4600  135.8620 C   0  0  0  0  0  0  0  0  0  0  0  0
  186.0250  175.3850  134.7270 C   0  0  0  0  0  2  0  0  0  0  0  0
  187.9710  172.3270  135.9410 C   0  0  0  0  0  3  0  0  0  0  0  0
  189.2630  172.6570  135.5320 C   0  0  0  0  0  3  0  0  0  0  0  0
  187.1380  174.4240  135.0310 C   0  0  0  0  0  0  0  0  0  0  0  0
  188.4380  174.7320  134.6050 C   0  0  0  0  0  3  0  0  0  0  0  0
  189.4960  173.8560  134.8590 C   0  0  0  0  0  3  0  0  0  0  0  0
  186.8980  173.1920  135.6910 C   0  0  0  0  0  0  0  0  0  0  0  0
  185.3540  172.8740  137.6250 C   0  0  0  0  0  1  0  0  0  0  0  0
  185.5340  172.7370  136.1240 C   0  0  2  0  0  3  0  0  0  0  0  0
  185.2320  171.3240  135.6500 C   0  0  0  0  0  2  0  0  0  0  0  0
  183.9510  171.2660  135.1010 O   0  0  0  0  0  0  0  0  0  0  0  0
  181.8960  170.4190  135.5870 O   0  0  0  0  0  1  0  0  0  0  0  0
  183.2170  170.5170  136.0180 C   0  0  0  0  0  2  0  0  0  0  0  0
  191.1400  178.0720  141.1510 O   0  0  0  0  0  0  0  0  0  0  0  0
  192.0270  177.0240  140.8930 C   0  0  0  0  0  2  0  0  0  0  0  0
  193.8910  177.1340  139.4180 O   0  0  0  0  0  1  0  0  0  0  0  0
  192.4970  177.0980  139.4530 C   0  0  0  0  0  2  0  0  0  0  0  0
  189.5240  177.3760  142.8240 C   0  0  0  0  0  2  0  0  0  0  0  0
  190.6430  177.7820  143.7840 C   0  0  0  0  0  2  0  0  0  0  0  0
  191.3130  176.5820  144.4450 C   0  0  0  0  0  2  0  0  0  0  0  0
  191.5720  176.8480  145.7930 O   0  0  0  0  0  0  0  0  0  0  0  0
  190.4060  177.4470  146.2770 C   0  0  0  0  0  2  0  0  0  0  0  0
  189.8430  176.6260  147.4230 C   0  0  0  0  0  2  0  0  0  0  0  0
  188.4470  176.7120  147.4390 O   0  0  0  0  0  0  0  0  0  0  0  0
  188.1250  177.7090  146.5130 C   0  0  0  0  0  2  0  0  0  0  0  0
  186.2200  178.9070  145.4320 C   0  0  2  0  0  3  0  0  0  0  0  0
  184.4520  178.2280  147.0310 O   0  0  0  0  0  1  0  0  0  0  0  0
  186.6530  177.6180  146.1290 C   0  0  2  0  0  3  0  0  0  0  0  0
  186.3750  179.5410  147.9220 C   0  0  0  0  0  1  0  0  0  0  0  0
  185.7810  178.6260  146.8630 C   0  0  1  0  0  0  0  0  0  0  0  0
  183.2420  179.0930  142.3280 C   0  0  1  0  0  3  0  0  0  0  0  0
  182.9980  178.8800  143.8330 C   0  0  0  0  0  2  0  0  0  0  0  0
  186.0590  177.3340  142.4490 C   0  0  0  0  0  1  0  0  0  0  0  0
  184.0370  179.4380  144.5940 O   0  0  0  0  0  0  0  0  0  0  0  0
  184.7150  179.4070  142.0250 C   0  0  0  0  0  2  0  0  0  0  0  0
  185.1390  178.5880  144.4060 C   0  0  1  0  0  3  0  0  0  0  0  0
  185.6980  178.7090  142.9780 C   0  0  1  0  0  3  0  0  0  0  0  0
  182.7900  177.8740  141.5390 C   0  0  0  0  0  2  0  0  0  0  0  0
  183.3170  177.0190  139.2720 C   0  0  0  0  0  1  0  0  0  0  0  0
  182.7490  178.1860  140.0540 C   0  0  0  0  0  2  0  0  0  0  0  0
  1  2  1  6  0  0  0
  1 33  1  0  0  0  0
  3  2  1  0  0  0  0
  4  3  1  0  0  0  0
  5  4  1  0  0  0  0
  6  5  1  0  0  0  0
  7 16  1  6  0  0  0
  7  6  1  0  0  0  0
  8  7  1  0  0  0  0
  8 12  1  0  0  0  0
  9 15  1  0  0  0  0
  9 12  2  0  0  0  0
 10  8  1  0  0  0  0
 11 10  2  0  0  0  0
 11  9  1  0  0  0  0
 13 15  2  0  0  0  0
 15 14  1  0  0  0  0
 16 19  1  0  0  0  0
 18 17  2  0  0  0  0
 19 22  2  0  0  0  0
 20 21  2  0  0  0  0
 20 19  1  0  0  0  0
 21 18  1  0  0  0  0
 22 17  1  0  0  0  0
 22 24  1  0  0  0  0
 24 23  1  1  0  0  0
 25 24  1  0  0  0  0
 26 25  1  0  0  0  0
 26 28  1  0  0  0  0
 27 28  1  0  0  0  0
 29  1  1  0  0  0  0
 30 29  1  0  0  0  0
 31 32  1  0  0  0  0
 32 30  1  0  0  0  0
 33 34  1  0  0  0  0
 34 35  1  0  0  0  0
 35 36  1  0  0  0  0
 36 37  1  0  0  0  0
 37 38  1  0  0  0  0
 38 39  1  0  0  0  0
 40 39  1  0  0  0  0
 41 51  1  6  0  0  0
 41 43  1  0  0  0  0
 41 45  1  0  0  0  0
 43 40  1  1  0  0  0
 43 45  1  0  0  0  0
 45 42  1  0  0  0  0
 45 44  1  1  0  0  0
 46 53  1  6  0  0  0
 46 47  1  0  0  0  0
 47 49  1  0  0  0  0
 50 46  1  0  0  0  0
 50 52  1  0  0  0  0
 51 49  1  6  0  0  0
 52 48  1  6  0  0  0
 52 51  1  0  0  0  0
 54 55  1  0  0  0  0
 55 53  1  0  0  0  0
M  END
>  <MODEL>
3

>  <REMARK>
 VINA RESULT:      -4.6      2.765      8.671
  Name = 
  29 active torsions:
  status: ('A' for Active; 'I' for Inactive)
    1  A    between atoms: C_1  and  C_46
    2  A    between atoms: C_2  and  C_44
    3  A    between atoms: C_2  and  C_49
    4  A    between atoms: C_3  and  C_25
    5  A    between atoms: C_5  and  O_40
    6  A    between atoms: C_5  and  C_45
    7  A    between atoms: C_8  and  O_20
    8  A    between atoms: C_8  and  C_22
    9  A    between atoms: C_12  and  C_42
   10  A    between atoms: N_13  and  C_52
   11  A    between atoms: C_16  and  C_36
   12  A    between atoms: O_20  and  C_42
   13  A    between atoms: C_22  and  O_43
   14  A    between atoms: C_25  and  C_38
   15  A    between atoms: C_26  and  C_45
   16  A    between atoms: C_27  and  C_31
   17  A    between atoms: C_27  and  C_49
   18  A    between atoms: C_27  and  O_54
   19  A    between atoms: C_28  and  C_33
   20  A    between atoms: C_28  and  C_44
   21  A    between atoms: C_31  and  C_35
   22  A    between atoms: C_32  and  C_47
   23  A    between atoms: C_33  and  C_52
   24  A    between atoms: C_35  and  C_51
   25  A    between atoms: C_36  and  C_52
   26  A    between atoms: C_37  and  O_40
   27  A    between atoms: C_41  and  C_55
   28  A    between atoms: O_43  and  C_51
   29  A    between atoms: O_54  and  C_55
                            x       y       z     vdW  Elec       q    Type
                         _______ _______ _______ _____ _____    ______ ____

>  <TORSDO>
F 29

$$$$
=
 OpenBabel10262420233D

 55 58  0  0  1  0  0  0  0  0999 V2000
  189.5520  177.2290  140.5310 C   0  0  1  0  0  3  0  0  0  0  0  0
  188.5900  178.4030  140.4250 C   0  0  0  0  0  2  0  0  0  0  0  0
  187.9780  178.4640  139.0340 C   0  0  0  0  0  2  0  0  0  0  0  0
  186.4800  178.1860  139.0720 C   0  0  0  0  0  2  0  0  0  0  0  0
  185.9120  177.7680  137.7190 C   0  0  0  0  0  2  0  0  0  0  0  0
  184.4780  177.2790  137.8470 C   0  0  0  0  0  2  0  0  0  0  0  0
  184.1970  176.1390  136.8790 C   0  0  1  0  0  3  0  0  0  0  0  0
  185.4240  175.5900  136.3040 N   0  0  0  0  0  0  0  0  0  0  0  0
  187.3030  174.4910  135.9900 C   0  0  0  0  0  0  0  0  0  0  0  0
  185.7980  175.7700  135.0220 C   0  0  0  0  0  3  0  0  0  0  0  0
  186.9820  175.0950  134.7860 C   0  0  0  0  0  3  0  0  0  0  0  0
  186.3270  174.8030  136.9180 C   0  0  0  0  0  3  0  0  0  0  0  0
  189.5370  173.8450  135.5670 O   0  0  0  0  0  0  0  0  0  0  0  0
  188.4610  172.6660  137.2030 O   0  0  0  0  0  1  0  0  0  0  0  0
  188.4870  173.6600  136.2350 C   0  0  0  0  0  0  0  0  0  0  0  0
  183.3820  175.0570  137.5840 C   0  0  0  0  0  2  0  0  0  0  0  0
  179.8490  174.7760  136.1510 C   0  0  0  0  0  3  0  0  0  0  0  0
  180.0330  173.7800  135.1910 C   0  0  0  0  0  3  0  0  0  0  0  0
  182.1970  174.6210  136.7720 C   0  0  0  0  0  0  0  0  0  0  0  0
  182.3710  173.6370  135.7870 C   0  0  0  0  0  3  0  0  0  0  0  0
  181.2940  173.2140  135.0050 C   0  0  0  0  0  3  0  0  0  0  0  0
  180.9200  175.2130  136.9410 C   0  0  0  0  0  0  0  0  0  0  0  0
  179.4900  175.9730  138.8390 C   0  0  0  0  0  1  0  0  0  0  0  0
  180.6440  176.3210  137.9160 C   0  0  2  0  0  3  0  0  0  0  0  0
  180.4190  177.6510  137.2140 C   0  0  0  0  0  2  0  0  0  0  0  0
  179.5080  178.4250  137.9340 O   0  0  0  0  0  0  0  0  0  0  0  0
  180.9390  179.8110  136.8330 O   0  0  0  0  0  1  0  0  0  0  0  0
  179.6880  179.7150  137.4390 C   0  0  0  0  0  2  0  0  0  0  0  0
  190.8620  177.6220  140.2280 O   0  0  0  0  0  0  0  0  0  0  0  0
  191.4620  176.4920  139.6660 C   0  0  0  0  0  2  0  0  0  0  0  0
  191.1360  174.9140  137.9140 O   0  0  0  0  0  1  0  0  0  0  0  0
  190.8710  176.2300  138.2950 C   0  0  0  0  0  2  0  0  0  0  0  0
  189.4600  176.5900  141.9210 C   0  0  0  0  0  2  0  0  0  0  0  0
  190.6740  176.8380  142.8170 C   0  0  0  0  0  2  0  0  0  0  0  0
  191.3040  175.5440  143.3220 C   0  0  0  0  0  2  0  0  0  0  0  0
  192.0870  175.7900  144.4540 O   0  0  0  0  0  0  0  0  0  0  0  0
  191.4190  176.8040  145.1460 C   0  0  0  0  0  2  0  0  0  0  0  0
  191.3910  176.4830  146.6290 C   0  0  0  0  0  2  0  0  0  0  0  0
  190.0760  176.5020  147.1040 O   0  0  0  0  0  0  0  0  0  0  0  0
  189.4570  177.5680  146.4420 C   0  0  0  0  0  2  0  0  0  0  0  0
  187.2190  178.6530  146.2350 C   0  0  2  0  0  3  0  0  0  0  0  0
  185.9800  177.1550  147.7740 O   0  0  0  0  0  1  0  0  0  0  0  0
  187.9580  177.3200  146.3260 C   0  0  2  0  0  3  0  0  0  0  0  0
  187.8880  178.4550  148.7140 C   0  0  0  0  0  1  0  0  0  0  0  0
  187.1720  177.8390  147.5220 C   0  0  1  0  0  0  0  0  0  0  0  0
  183.8020  179.2630  143.6880 C   0  0  1  0  0  3  0  0  0  0  0  0
  183.7880  178.9310  145.1910 C   0  0  0  0  0  2  0  0  0  0  0  0
  186.4830  177.3590  143.2050 C   0  0  0  0  0  1  0  0  0  0  0  0
  184.9680  179.3660  145.8120 O   0  0  0  0  0  0  0  0  0  0  0  0
  185.2250  179.5270  143.1720 C   0  0  0  0  0  2  0  0  0  0  0  0
  185.9690  178.4810  145.3790 C   0  0  1  0  0  3  0  0  0  0  0  0
  186.3010  178.6990  143.8930 C   0  0  1  0  0  3  0  0  0  0  0  0
  183.1520  178.1420  142.8910 C   0  0  0  0  0  2  0  0  0  0  0  0
  182.0920  178.2420  140.6510 C   0  0  0  0  0  1  0  0  0  0  0  0
  183.4030  178.3310  141.4050 C   0  0  0  0  0  2  0  0  0  0  0  0
  1  2  1  1  0  0  0
  1 33  1  0  0  0  0
  3  4  1  0  0  0  0
  3  2  1  0  0  0  0
  5  6  1  0  0  0  0
  5  4  1  0  0  0  0
  7 16  1  1  0  0  0
  7  6  1  0  0  0  0
  8  7  1  0  0  0  0
  8 12  1  0  0  0  0
  9 15  1  0  0  0  0
  9 12  2  0  0  0  0
 10  8  1  0  0  0  0
 11 10  2  0  0  0  0
 11  9  1  0  0  0  0
 13 15  2  0  0  0  0
 15 14  1  0  0  0  0
 17 22  1  0  0  0  0
 18 17  2  0  0  0  0
 19 22  2  0  0  0  0
 19 16  1  0  0  0  0
 20 19  1  0  0  0  0
 21 18  1  0  0  0  0
 21 20  2  0  0  0  0
 22 24  1  0  0  0  0
 24 23  1  6  0  0  0
 25 24  1  0  0  0  0
 25 26  1  0  0  0  0
 27 28  1  0  0  0  0
 28 26  1  0  0  0  0
 29  1  1  0  0  0  0
 30 29  1  0  0  0  0
 31 32  1  0  0  0  0
 32 30  1  0  0  0  0
 33 34  1  0  0  0  0
 34 35  1  0  0  0  0
 35 36  1  0  0  0  0
 36 37  1  0  0  0  0
 37 38  1  0  0  0  0
 38 39  1  0  0  0  0
 40 39  1  0  0  0  0
 41 51  1  6  0  0  0
 41 43  1  0  0  0  0
 41 45  1  0  0  0  0
 43 40  1  1  0  0  0
 43 45  1  0  0  0  0
 45 42  1  0  0  0  0
 45 44  1  1  0  0  0
 46 53  1  6  0  0  0
 46 47  1  0  0  0  0
 47 49  1  0  0  0  0
 50 46  1  0  0  0  0
 50 52  1  0  0  0  0
 51 49  1  1  0  0  0
 52 48  1  6  0  0  0
 52 51  1  0  0  0  0
 54 55  1  0  0  0  0
 55 53  1  0  0  0  0
M  END
>  <MODEL>
4

>  <REMARK>
 VINA RESULT:      -4.6      2.277      9.310
  Name = 
  29 active torsions:
  status: ('A' for Active; 'I' for Inactive)
    1  A    between atoms: C_1  and  C_46
    2  A    between atoms: C_2  and  C_44
    3  A    between atoms: C_2  and  C_49
    4  A    between atoms: C_3  and  C_25
    5  A    between atoms: C_5  and  O_40
    6  A    between atoms: C_5  and  C_45
    7  A    between atoms: C_8  and  O_20
    8  A    between atoms: C_8  and  C_22
    9  A    between atoms: C_12  and  C_42
   10  A    between atoms: N_13  and  C_52
   11  A    between atoms: C_16  and  C_36
   12  A    between atoms: O_20  and  C_42
   13  A    between atoms: C_22  and  O_43
   14  A    between atoms: C_25  and  C_38
   15  A    between atoms: C_26  and  C_45
   16  A    between atoms: C_27  and  C_31
   17  A    between atoms: C_27  and  C_49
   18  A    between atoms: C_27  and  O_54
   19  A    between atoms: C_28  and  C_33
   20  A    between atoms: C_28  and  C_44
   21  A    between atoms: C_31  and  C_35
   22  A    between atoms: C_32  and  C_47
   23  A    between atoms: C_33  and  C_52
   24  A    between atoms: C_35  and  C_51
   25  A    between atoms: C_36  and  C_52
   26  A    between atoms: C_37  and  O_40
   27  A    between atoms: C_41  and  C_55
   28  A    between atoms: O_43  and  C_51
   29  A    between atoms: O_54  and  C_55
                            x       y       z     vdW  Elec       q    Type
                         _______ _______ _______ _____ _____    ______ ____

>  <TORSDO>
F 29

$$$$
=
 OpenBabel10262420233D

 55 58  0  0  1  0  0  0  0  0999 V2000
  187.3280  177.1150  144.1180 C   0  0  1  0  0  3  0  0  0  0  0  0
  187.9280  177.1350  142.7190 C   0  0  0  0  0  2  0  0  0  0  0  0
  188.0100  178.5600  142.1970 C   0  0  0  0  0  2  0  0  0  0  0  0
  187.2640  178.7140  140.8770 C   0  0  0  0  0  2  0  0  0  0  0  0
  187.9140  177.9500  139.7270 C   0  0  0  0  0  2  0  0  0  0  0  0
  189.2790  178.5250  139.3830 C   0  0  0  0  0  2  0  0  0  0  0  0
  190.3350  177.4310  139.3160 C   0  0  1  0  0  3  0  0  0  0  0  0
  191.0410  177.2690  140.5860 N   0  0  0  0  0  0  0  0  0  0  0  0
  191.6770  176.5870  142.5780 C   0  0  0  0  0  0  0  0  0  0  0  0
  192.1790  177.9180  140.9010 C   0  0  0  0  0  3  0  0  0  0  0  0
  192.6100  177.5170  142.1530 C   0  0  0  0  0  3  0  0  0  0  0  0
  190.7150  176.4410  141.5960 C   0  0  0  0  0  3  0  0  0  0  0  0
  191.6450  176.5240  144.9410 O   0  0  0  0  0  1  0  0  0  0  0  0
  191.8040  174.4940  143.9010 O   0  0  0  0  0  0  0  0  0  0  0  0
  191.7070  175.8780  143.8630 C   0  0  0  0  0  0  0  0  0  0  0  0
  189.6900  176.1220  138.8690 C   0  0  0  0  0  2  0  0  0  0  0  0
  191.2210  175.1850  135.4940 C   0  0  0  0  0  3  0  0  0  0  0  0
  190.1330  175.3900  134.6440 C   0  0  0  0  0  3  0  0  0  0  0  0
  189.8740  175.8720  137.3990 C   0  0  0  0  0  0  0  0  0  0  0  0
  188.7820  176.0520  136.5370 C   0  0  0  0  0  3  0  0  0  0  0  0
  188.9130  175.8180  135.1660 C   0  0  0  0  0  3  0  0  0  0  0  0
  191.1060  175.4120  136.8710 C   0  0  0  0  0  0  0  0  0  0  0  0
  193.3010  176.2730  137.6870 C   0  0  0  0  0  1  0  0  0  0  0  0
  192.3130  175.1210  137.7170 C   0  0  2  0  0  3  0  0  0  0  0  0
  192.9720  173.8070  137.3300 C   0  0  0  0  0  2  0  0  0  0  0  0
  194.3070  174.0230  136.9850 O   0  0  0  0  0  0  0  0  0  0  0  0
  195.1570  172.9700  138.8150 O   0  0  0  0  0  1  0  0  0  0  0  0
  194.9670  172.8820  137.4370 C   0  0  0  0  0  2  0  0  0  0  0  0
  187.8750  178.1280  144.9160 O   0  0  0  0  0  0  0  0  0  0  0  0
  188.6960  177.4690  145.8340 C   0  0  0  0  0  2  0  0  0  0  0  0
  186.9850  178.0980  147.3630 O   0  0  0  0  0  1  0  0  0  0  0  0
  188.3640  177.9320  147.2390 C   0  0  0  0  0  2  0  0  0  0  0  0
  185.8010  177.2140  144.0430 C   0  0  0  0  0  2  0  0  0  0  0  0
  185.2580  178.6420  143.9960 C   0  0  0  0  0  2  0  0  0  0  0  0
  184.5680  179.0510  145.2930 C   0  0  0  0  0  2  0  0  0  0  0  0
  183.3010  179.5790  145.0290 O   0  0  0  0  0  0  0  0  0  0  0  0
  182.9610  179.0950  143.7620 C   0  0  0  0  0  2  0  0  0  0  0  0
  181.4740  178.7970  143.7070 C   0  0  0  0  0  2  0  0  0  0  0  0
  180.9990  178.9440  142.3990 O   0  0  0  0  0  0  0  0  0  0  0  0
  182.0780  178.6120  141.5730 C   0  0  0  0  0  2  0  0  0  0  0  0
  182.4730  177.4510  139.3980 C   0  0  2  0  0  3  0  0  0  0  0  0
  182.1500  179.4110  137.9140 O   0  0  0  0  0  1  0  0  0  0  0  0
  181.6160  178.4860  140.1260 C   0  0  2  0  0  3  0  0  0  0  0  0
  183.9900  179.5230  139.5930 C   0  0  0  0  0  1  0  0  0  0  0  0
  182.6670  178.9370  139.1230 C   0  0  1  0  0  0  0  0  0  0  0  0
  180.9270  174.7540  136.4200 C   0  0  1  0  0  3  0  0  0  0  0  0
  181.5020  176.1620  136.1840 C   0  0  0  0  0  2  0  0  0  0  0  0
  179.5930  175.6920  139.3150 C   0  0  0  0  0  1  0  0  0  0  0  0
  182.4130  176.5080  137.1940 O   0  0  0  0  0  0  0  0  0  0  0  0
  181.1020  174.3000  137.8780 C   0  0  0  0  0  2  0  0  0  0  0  0
  181.6310  176.7560  138.3350 C   0  0  1  0  0  3  0  0  0  0  0  0
  181.0290  175.4540  138.8910 C   0  0  1  0  0  3  0  0  0  0  0  0
  179.4580  174.7080  136.0270 C   0  0  0  0  0  2  0  0  0  0  0  0
  179.8650  172.4190  135.1630 C   0  0  0  0  0  1  0  0  0  0  0  0
  178.9540  173.2750  136.0190 C   0  0  0  0  0  2  0  0  0  0  0  0
  1  2  1  6  0  0  0
  1 29  1  0  0  0  0
  3  2  1  0  0  0  0
  4  3  1  0  0  0  0
  5  4  1  0  0  0  0
  6  5  1  0  0  0  0
  7 16  1  1  0  0  0
  7  6  1  0  0  0  0
  7  8  1  0  0  0  0
  8 10  1  0  0  0  0
  8 12  1  0  0  0  0
  9 15  1  0  0  0  0
 10 11  2  0  0  0  0
 11  9  1  0  0  0  0
 12  9  2  0  0  0  0
 15 14  2  0  0  0  0
 15 13  1  0  0  0  0
 17 22  1  0  0  0  0
 18 21  1  0  0  0  0
 18 17  2  0  0  0  0
 19 16  1  0  0  0  0
 20 19  1  0  0  0  0
 21 20  2  0  0  0  0
 22 19  2  0  0  0  0
 22 24  1  0  0  0  0
 24 23  1  6  0  0  0
 25 24  1  0  0  0  0
 26 25  1  0  0  0  0
 26 28  1  0  0  0  0
 28 27  1  0  0  0  0
 29 30  1  0  0  0  0
 30 32  1  0  0  0  0
 32 31  1  0  0  0  0
 33  1  1  0  0  0  0
 34 33  1  0  0  0  0
 34 35  1  0  0  0  0
 36 35  1  0  0  0  0
 37 36  1  0  0  0  0
 38 37  1  0  0  0  0
 39 38  1  0  0  0  0
 40 39  1  0  0  0  0
 41 51  1  6  0  0  0
 41 43  1  0  0  0  0
 42 45  1  0  0  0  0
 43 40  1  1  0  0  0
 45 41  1  0  0  0  0
 45 44  1  1  0  0  0
 45 43  1  0  0  0  0
 46 53  1  1  0  0  0
 46 50  1  0  0  0  0
 47 46  1  0  0  0  0
 47 49  1  0  0  0  0
 50 52  1  0  0  0  0
 51 49  1  6  0  0  0
 51 52  1  0  0  0  0
 52 48  1  6  0  0  0
 54 55  1  0  0  0  0
 55 53  1  0  0  0  0
M  END
>  <MODEL>
5

>  <REMARK>
 VINA RESULT:      -4.3      2.393      3.512
  Name = 
  29 active torsions:
  status: ('A' for Active; 'I' for Inactive)
    1  A    between atoms: C_1  and  C_46
    2  A    between atoms: C_2  and  C_44
    3  A    between atoms: C_2  and  C_49
    4  A    between atoms: C_3  and  C_25
    5  A    between atoms: C_5  and  O_40
    6  A    between atoms: C_5  and  C_45
    7  A    between atoms: C_8  and  O_20
    8  A    between atoms: C_8  and  C_22
    9  A    between atoms: C_12  and  C_42
   10  A    between atoms: N_13  and  C_52
   11  A    between atoms: C_16  and  C_36
   12  A    between atoms: O_20  and  C_42
   13  A    between atoms: C_22  and  O_43
   14  A    between atoms: C_25  and  C_38
   15  A    between atoms: C_26  and  C_45
   16  A    between atoms: C_27  and  C_31
   17  A    between atoms: C_27  and  C_49
   18  A    between atoms: C_27  and  O_54
   19  A    between atoms: C_28  and  C_33
   20  A    between atoms: C_28  and  C_44
   21  A    between atoms: C_31  and  C_35
   22  A    between atoms: C_32  and  C_47
   23  A    between atoms: C_33  and  C_52
   24  A    between atoms: C_35  and  C_51
   25  A    between atoms: C_36  and  C_52
   26  A    between atoms: C_37  and  O_40
   27  A    between atoms: C_41  and  C_55
   28  A    between atoms: O_43  and  C_51
   29  A    between atoms: O_54  and  C_55
                            x       y       z     vdW  Elec       q    Type
                         _______ _______ _______ _____ _____    ______ ____

>  <TORSDO>
F 29

$$$$
=
 OpenBabel10262420233D

 55 58  0  0  1  0  0  0  0  0999 V2000
  188.6680  176.8770  142.4030 C   0  0  1  0  0  3  0  0  0  0  0  0
  190.1420  177.1560  142.1430 C   0  0  0  0  0  2  0  0  0  0  0  0
  190.5230  176.7300  140.7340 C   0  0  0  0  0  2  0  0  0  0  0  0
  191.8190  177.3930  140.2840 C   0  0  0  0  0  2  0  0  0  0  0  0
  192.3240  176.8740  138.9410 C   0  0  0  0  0  2  0  0  0  0  0  0
  191.2810  177.0550  137.8490 C   0  0  0  0  0  2  0  0  0  0  0  0
  191.1390  175.7930  137.0100 C   0  0  1  0  0  3  0  0  0  0  0  0
  192.4090  175.0840  136.8610 N   0  0  0  0  0  0  0  0  0  0  0  0
  194.1350  173.7560  137.1650 C   0  0  0  0  0  0  0  0  0  0  0  0
  193.2040  175.1870  135.7790 C   0  0  0  0  0  3  0  0  0  0  0  0
  194.3070  174.3650  135.9350 C   0  0  0  0  0  3  0  0  0  0  0  0
  192.9540  174.2070  137.7250 C   0  0  0  0  0  3  0  0  0  0  0  0
  195.5000  172.9850  138.9350 O   0  0  0  0  0  1  0  0  0  0  0  0
  195.4560  171.6590  137.0730 O   0  0  0  0  0  0  0  0  0  0  0  0
  195.0590  172.7910  137.7720 C   0  0  0  0  0  0  0  0  0  0  0  0
  190.0670  174.8910  137.6170 C   0  0  0  0  0  2  0  0  0  0  0  0
  187.5080  173.8500  134.9750 C   0  0  0  0  0  3  0  0  0  0  0  0
  188.0120  172.6060  134.5960 C   0  0  0  0  0  3  0  0  0  0  0  0
  189.3260  174.1090  136.5710 C   0  0  0  0  0  0  0  0  0  0  0  0
  189.8340  172.8670  136.1630 C   0  0  0  0  0  3  0  0  0  0  0  0
  189.1780  172.1170  135.1850 C   0  0  0  0  0  3  0  0  0  0  0  0
  188.1560  174.6160  135.9520 C   0  0  0  0  0  0  0  0  0  0  0  0
  186.0950  175.8610  136.6090 C   0  0  0  0  0  1  0  0  0  0  0  0
  187.5710  175.9640  136.2660 C   0  0  2  0  0  3  0  0  0  0  0  0
  187.8180  176.9640  135.1480 C   0  0  0  0  0  2  0  0  0  0  0  0
  188.5410  178.0540  135.6310 O   0  0  0  0  0  0  0  0  0  0  0  0
  187.3910  179.5760  136.8720 O   0  0  0  0  0  1  0  0  0  0  0  0
  187.9790  178.3130  136.8800 C   0  0  0  0  0  2  0  0  0  0  0  0
  188.4880  176.2130  143.6230 O   0  0  0  0  0  0  0  0  0  0  0  0
  188.0430  177.1950  144.5120 C   0  0  0  0  0  2  0  0  0  0  0  0
  188.2580  177.3390  146.8780 O   0  0  0  0  0  1  0  0  0  0  0  0
  188.9910  177.2810  145.6920 C   0  0  0  0  0  2  0  0  0  0  0  0
  187.8620  178.1780  142.3410 C   0  0  0  0  0  2  0  0  0  0  0  0
  187.5380  178.6600  140.9270 C   0  0  0  0  0  2  0  0  0  0  0  0
  186.0510  178.5610  140.5990 C   0  0  0  0  0  2  0  0  0  0  0  0
  185.3090  179.3990  141.4360 O   0  0  0  0  0  0  0  0  0  0  0  0
  184.4080  178.5550  142.0920 C   0  0  0  0  0  2  0  0  0  0  0  0
  183.2590  178.2070  141.1630 C   0  0  0  0  0  2  0  0  0  0  0  0
  182.3830  179.2910  141.0490 O   0  0  0  0  0  0  0  0  0  0  0  0
  182.3170  179.5750  139.6810 C   0  0  0  0  0  2  0  0  0  0  0  0
  182.3040  178.1000  137.6670 C   0  0  2  0  0  3  0  0  0  0  0  0
  179.8780  178.2330  137.1750 O   0  0  0  0  0  1  0  0  0  0  0  0
  181.5610  178.4730  138.9480 C   0  0  2  0  0  3  0  0  0  0  0  0
  181.1860  180.3550  137.1280 C   0  0  0  0  0  1  0  0  0  0  0  0
  181.0220  178.9170  137.5960 C   0  0  1  0  0  0  0  0  0  0  0  0
  182.7750  173.9430  136.6460 C   0  0  1  0  0  3  0  0  0  0  0  0
  182.1090  175.0360  135.7910 C   0  0  0  0  0  2  0  0  0  0  0  0
  181.6220  175.3130  139.4470 C   0  0  0  0  0  1  0  0  0  0  0  0
  182.6210  176.3040  136.1100 O   0  0  0  0  0  0  0  0  0  0  0  0
  183.4350  174.5240  137.9070 C   0  0  0  0  0  2  0  0  0  0  0  0
  182.0830  176.6220  137.3680 C   0  0  1  0  0  3  0  0  0  0  0  0
  182.7010  175.7490  138.4740 C   0  0  1  0  0  3  0  0  0  0  0  0
  181.7590  172.8770  137.0280 C   0  0  0  0  0  2  0  0  0  0  0  0
  183.5490  171.5230  135.9740 C   0  0  0  0  0  1  0  0  0  0  0  0
  182.3800  171.4940  136.9370 C   0  0  0  0  0  2  0  0  0  0  0  0
  1  2  1  1  0  0  0
  1 29  1  0  0  0  0
  3  2  1  0  0  0  0
  4  3  1  0  0  0  0
  5  4  1  0  0  0  0
  6  5  1  0  0  0  0
  7 16  1  1  0  0  0
  7  6  1  0  0  0  0
  8  7  1  0  0  0  0
  8 12  1  0  0  0  0
  9 12  2  0  0  0  0
  9 15  1  0  0  0  0
 10 11  2  0  0  0  0
 10  8  1  0  0  0  0
 11  9  1  0  0  0  0
 14 15  2  0  0  0  0
 15 13  1  0  0  0  0
 17 22  1  0  0  0  0
 18 17  2  0  0  0  0
 18 21  1  0  0  0  0
 19 16  1  0  0  0  0
 20 19  1  0  0  0  0
 21 20  2  0  0  0  0
 22 24  1  0  0  0  0
 22 19  2  0  0  0  0
 24 23  1  6  0  0  0
 25 26  1  0  0  0  0
 25 24  1  0  0  0  0
 26 28  1  0  0  0  0
 27 28  1  0  0  0  0
 29 30  1  0  0  0  0
 30 32  1  0  0  0  0
 32 31  1  0  0  0  0
 33  1  1  0  0  0  0
 34 33  1  0  0  0  0
 35 34  1  0  0  0  0
 35 36  1  0  0  0  0
 36 37  1  0  0  0  0
 38 37  1  0  0  0  0
 39 38  1  0  0  0  0
 40 39  1  0  0  0  0
 41 51  1  6  0  0  0
 41 43  1  0  0  0  0
 42 45  1  0  0  0  0
 43 40  1  1  0  0  0
 45 44  1  6  0  0  0
 45 41  1  0  0  0  0
 45 43  1  0  0  0  0
 46 53  1  1  0  0  0
 46 50  1  0  0  0  0
 47 49  1  0  0  0  0
 47 46  1  0  0  0  0
 50 52  1  0  0  0  0
 51 49  1  6  0  0  0
 51 52  1  0  0  0  0
 52 48  1  1  0  0  0
 54 55  1  0  0  0  0
 55 53  1  0  0  0  0
M  END
>  <MODEL>
6

>  <REMARK>
 VINA RESULT:      -4.2      2.555      4.599
  Name = 
  29 active torsions:
  status: ('A' for Active; 'I' for Inactive)
    1  A    between atoms: C_1  and  C_46
    2  A    between atoms: C_2  and  C_44
    3  A    between atoms: C_2  and  C_49
    4  A    between atoms: C_3  and  C_25
    5  A    between atoms: C_5  and  O_40
    6  A    between atoms: C_5  and  C_45
    7  A    between atoms: C_8  and  O_20
    8  A    between atoms: C_8  and  C_22
    9  A    between atoms: C_12  and  C_42
   10  A    between atoms: N_13  and  C_52
   11  A    between atoms: C_16  and  C_36
   12  A    between atoms: O_20  and  C_42
   13  A    between atoms: C_22  and  O_43
   14  A    between atoms: C_25  and  C_38
   15  A    between atoms: C_26  and  C_45
   16  A    between atoms: C_27  and  C_31
   17  A    between atoms: C_27  and  C_49
   18  A    between atoms: C_27  and  O_54
   19  A    between atoms: C_28  and  C_33
   20  A    between atoms: C_28  and  C_44
   21  A    between atoms: C_31  and  C_35
   22  A    between atoms: C_32  and  C_47
   23  A    between atoms: C_33  and  C_52
   24  A    between atoms: C_35  and  C_51
   25  A    between atoms: C_36  and  C_52
   26  A    between atoms: C_37  and  O_40
   27  A    between atoms: C_41  and  C_55
   28  A    between atoms: O_43  and  C_51
   29  A    between atoms: O_54  and  C_55
                            x       y       z     vdW  Elec       q    Type
                         _______ _______ _______ _____ _____    ______ ____

>  <TORSDO>
F 29

$$$$
=
 OpenBabel10262420233D

 55 58  0  0  1  0  0  0  0  0999 V2000
  182.4240  178.8850  141.8800 C   0  0  1  0  0  3  0  0  0  0  0  0
  183.3410  179.6230  142.8450 C   0  0  0  0  0  2  0  0  0  0  0  0
  183.5300  178.8180  144.1200 C   0  0  0  0  0  2  0  0  0  0  0  0
  184.9590  178.3040  144.2480 C   0  0  0  0  0  2  0  0  0  0  0  0
  185.5060  177.7210  142.9490 C   0  0  0  0  0  2  0  0  0  0  0  0
  186.5510  178.6360  142.3280 C   0  0  0  0  0  2  0  0  0  0  0  0
  187.8980  177.9350  142.2170 C   0  0  1  0  0  3  0  0  0  0  0  0
  188.3510  177.8270  140.8310 N   0  0  0  0  0  0  0  0  0  0  0  0
  188.6360  178.1320  138.6720 C   0  0  0  0  0  0  0  0  0  0  0  0
  189.3430  177.0110  140.4270 C   0  0  0  0  0  3  0  0  0  0  0  0
  189.5510  177.1720  139.0680 C   0  0  0  0  0  3  0  0  0  0  0  0
  187.9040  178.5320  139.7750 C   0  0  0  0  0  3  0  0  0  0  0  0
  187.3900  179.1750  136.9550 O   0  0  0  0  0  1  0  0  0  0  0  0
  189.5080  178.5290  136.3850 O   0  0  0  0  0  0  0  0  0  0  0  0
  188.4730  178.6380  137.3040 C   0  0  0  0  0  0  0  0  0  0  0  0
  188.9260  178.6610  143.0820 C   0  0  0  0  0  2  0  0  0  0  0  0
  190.6600  176.1990  145.4370 C   0  0  0  0  0  3  0  0  0  0  0  0
  191.8330  175.9370  144.7270 C   0  0  0  0  0  3  0  0  0  0  0  0
  189.9290  177.7180  143.6830 C   0  0  0  0  0  0  0  0  0  0  0  0
  191.1010  177.4280  142.9700 C   0  0  0  0  0  3  0  0  0  0  0  0
  192.0510  176.5470  143.4920 C   0  0  0  0  0  3  0  0  0  0  0  0
  189.6960  177.0770  144.9250 C   0  0  0  0  0  0  0  0  0  0  0  0
  187.9270  178.6890  145.6320 C   0  0  0  0  0  1  0  0  0  0  0  0
  188.4430  177.2650  145.7320 C   0  0  2  0  0  3  0  0  0  0  0  0
  188.6310  176.8370  147.1790 C   0  0  0  0  0  2  0  0  0  0  0  0
  187.6280  177.3870  147.9760 O   0  0  0  0  0  0  0  0  0  0  0  0
  189.4370  178.4740  148.8280 O   0  0  0  0  0  1  0  0  0  0  0  0
  188.2850  177.7580  149.1480 C   0  0  0  0  0  2  0  0  0  0  0  0
  181.1200  179.3950  141.9340 O   0  0  0  0  0  0  0  0  0  0  0  0
  180.3030  178.3590  141.4760 C   0  0  0  0  0  2  0  0  0  0  0  0
  179.4770  178.7670  143.6710 O   0  0  0  0  0  1  0  0  0  0  0  0
  179.4290  177.8610  142.6110 C   0  0  0  0  0  2  0  0  0  0  0  0
  182.9950  178.9370  140.4590 C   0  0  0  0  0  2  0  0  0  0  0  0
  182.9520  177.6070  139.7070 C   0  0  0  0  0  2  0  0  0  0  0  0
  181.6600  177.4180  138.9190 C   0  0  0  0  0  2  0  0  0  0  0  0
  181.9360  176.9460  137.6330 O   0  0  0  0  0  0  0  0  0  0  0  0
  183.1930  176.3430  137.7270 C   0  0  0  0  0  2  0  0  0  0  0  0
  183.0370  174.8860  138.1250 C   0  0  0  0  0  2  0  0  0  0  0  0
  181.9350  174.3220  137.4740 O   0  0  0  0  0  0  0  0  0  0  0  0
  182.4500  173.7250  136.3190 C   0  0  0  0  0  2  0  0  0  0  0  0
  184.7340  173.1880  135.4670 C   0  0  2  0  0  3  0  0  0  0  0  0
  184.8340  170.8380  136.2500 O   0  0  0  0  0  1  0  0  0  0  0  0
  183.7610  173.0140  136.6310 C   0  0  2  0  0  3  0  0  0  0  0  0
  183.0360  171.4420  134.6320 C   0  0  0  0  0  1  0  0  0  0  0  0
  184.0450  171.8490  135.6950 C   0  0  1  0  0  0  0  0  0  0  0  0
  189.0170  173.2710  135.8970 C   0  0  1  0  0  3  0  0  0  0  0  0
  188.0790  172.0890  136.2040 C   0  0  0  0  0  2  0  0  0  0  0  0
  186.7470  175.4570  136.9500 C   0  0  0  0  0  1  0  0  0  0  0  0
  186.9050  172.1690  135.4390 O   0  0  0  0  0  0  0  0  0  0  0  0
  188.2700  174.4410  135.2380 C   0  0  0  0  0  2  0  0  0  0  0  0
  186.1610  173.2190  136.0020 C   0  0  1  0  0  3  0  0  0  0  0  0
  186.8140  174.5820  135.7130 C   0  0  1  0  0  3  0  0  0  0  0  0
  189.7140  173.7390  137.1660 C   0  0  0  0  0  2  0  0  0  0  0  0
  192.0280  174.5210  137.5890 C   0  0  0  0  0  1  0  0  0  0  0  0
  190.7400  174.8110  136.8450 C   0  0  0  0  0  2  0  0  0  0  0  0
  1 33  1  6  0  0  0
  1 29  1  0  0  0  0
  1  2  1  0  0  0  0
  2  3  1  0  0  0  0
  3  4  1  0  0  0  0
  5  4  1  0  0  0  0
  6  5  1  0  0  0  0
  7  6  1  6  0  0  0
  7 16  1  0  0  0  0
  8  7  1  0  0  0  0
  9 11  1  0  0  0  0
  9 12  2  0  0  0  0
 10  8  1  0  0  0  0
 11 10  2  0  0  0  0
 12  8  1  0  0  0  0
 13 15  1  0  0  0  0
 14 15  2  0  0  0  0
 15  9  1  0  0  0  0
 16 19  1  0  0  0  0
 18 17  2  0  0  0  0
 19 22  2  0  0  0  0
 20 21  2  0  0  0  0
 20 19  1  0  0  0  0
 21 18  1  0  0  0  0
 22 17  1  0  0  0  0
 22 24  1  0  0  0  0
 24 23  1  1  0  0  0
 24 25  1  0  0  0  0
 25 26  1  0  0  0  0
 26 28  1  0  0  0  0
 27 28  1  0  0  0  0
 30 29  1  0  0  0  0
 30 32  1  0  0  0  0
 32 31  1  0  0  0  0
 34 33  1  0  0  0  0
 35 34  1  0  0  0  0
 36 37  1  0  0  0  0
 36 35  1  0  0  0  0
 37 38  1  0  0  0  0
 39 38  1  0  0  0  0
 40 39  1  0  0  0  0
 41 45  1  0  0  0  0
 41 51  1  1  0  0  0
 41 43  1  0  0  0  0
 43 40  1  6  0  0  0
 45 44  1  6  0  0  0
 45 42  1  0  0  0  0
 45 43  1  0  0  0  0
 46 47  1  0  0  0  0
 46 53  1  1  0  0  0
 49 47  1  0  0  0  0
 50 52  1  0  0  0  0
 50 46  1  0  0  0  0
 51 49  1  6  0  0  0
 52 51  1  0  0  0  0
 52 48  1  1  0  0  0
 55 53  1  0  0  0  0
 55 54  1  0  0  0  0
M  END
>  <MODEL>
7

>  <REMARK>
 VINA RESULT:      -3.5      2.163      7.200
  Name = 
  29 active torsions:
  status: ('A' for Active; 'I' for Inactive)
    1  A    between atoms: C_1  and  C_46
    2  A    between atoms: C_2  and  C_44
    3  A    between atoms: C_2  and  C_49
    4  A    between atoms: C_3  and  C_25
    5  A    between atoms: C_5  and  O_40
    6  A    between atoms: C_5  and  C_45
    7  A    between atoms: C_8  and  O_20
    8  A    between atoms: C_8  and  C_22
    9  A    between atoms: C_12  and  C_42
   10  A    between atoms: N_13  and  C_52
   11  A    between atoms: C_16  and  C_36
   12  A    between atoms: O_20  and  C_42
   13  A    between atoms: C_22  and  O_43
   14  A    between atoms: C_25  and  C_38
   15  A    between atoms: C_26  and  C_45
   16  A    between atoms: C_27  and  C_31
   17  A    between atoms: C_27  and  C_49
   18  A    between atoms: C_27  and  O_54
   19  A    between atoms: C_28  and  C_33
   20  A    between atoms: C_28  and  C_44
   21  A    between atoms: C_31  and  C_35
   22  A    between atoms: C_32  and  C_47
   23  A    between atoms: C_33  and  C_52
   24  A    between atoms: C_35  and  C_51
   25  A    between atoms: C_36  and  C_52
   26  A    between atoms: C_37  and  O_40
   27  A    between atoms: C_41  and  C_55
   28  A    between atoms: O_43  and  C_51
   29  A    between atoms: O_54  and  C_55
                            x       y       z     vdW  Elec       q    Type
                         _______ _______ _______ _____ _____    ______ ____

>  <TORSDO>
F 29

$$$$
=
 OpenBabel10262420233D

 55 58  0  0  1  0  0  0  0  0999 V2000
  182.6540  178.8590  142.9800 C   0  0  1  0  0  3  0  0  0  0  0  0
  183.6210  179.5280  143.9470 C   0  0  0  0  0  2  0  0  0  0  0  0
  183.4840  178.9260  145.3360 C   0  0  0  0  0  2  0  0  0  0  0  0
  184.8090  178.3540  145.8280 C   0  0  0  0  0  2  0  0  0  0  0  0
  185.5630  177.5770  144.7530 C   0  0  0  0  0  2  0  0  0  0  0  0
  186.6280  178.4380  144.0910 C   0  0  0  0  0  2  0  0  0  0  0  0
  187.8400  177.6060  143.6950 C   0  0  1  0  0  3  0  0  0  0  0  0
  188.1130  177.6800  142.2610 N   0  0  0  0  0  0  0  0  0  0  0  0
  188.9070  177.3270  140.2400 C   0  0  0  0  0  0  0  0  0  0  0  0
  187.4360  178.4720  141.4070 C   0  0  0  0  0  3  0  0  0  0  0  0
  187.9110  178.2800  140.1210 C   0  0  0  0  0  3  0  0  0  0  0  0
  189.0180  176.9620  141.5690 C   0  0  0  0  0  3  0  0  0  0  0  0
  190.8980  176.4240  139.3390 O   0  0  0  0  0  1  0  0  0  0  0  0
  189.1790  176.7020  137.8570 O   0  0  0  0  0  0  0  0  0  0  0  0
  189.7130  176.7970  139.1340 C   0  0  0  0  0  0  0  0  0  0  0  0
  189.0520  178.0430  144.5140 C   0  0  0  0  0  2  0  0  0  0  0  0
  189.4570  177.0270  148.1770 C   0  0  0  0  0  3  0  0  0  0  0  0
  188.3590  177.6690  148.7510 C   0  0  0  0  0  3  0  0  0  0  0  0
  188.8250  177.8870  145.9900 C   0  0  0  0  0  0  0  0  0  0  0  0
  187.7390  178.5450  146.5840 C   0  0  0  0  0  3  0  0  0  0  0  0
  187.5030  178.4320  147.9570 C   0  0  0  0  0  3  0  0  0  0  0  0
  189.7090  177.1340  146.8030 C   0  0  0  0  0  0  0  0  0  0  0  0
  191.8320  175.9690  147.4070 C   0  0  0  0  0  1  0  0  0  0  0  0
  190.9380  176.4500  146.2770 C   0  0  2  0  0  3  0  0  0  0  0  0
  191.6990  177.3270  145.2960 C   0  0  0  0  0  2  0  0  0  0  0  0
  191.9690  176.6160  144.1260 O   0  0  0  0  0  0  0  0  0  0  0  0
  192.2890  178.7850  143.5170 O   0  0  0  0  0  1  0  0  0  0  0  0
  191.7910  177.5500  143.1070 C   0  0  0  0  0  2  0  0  0  0  0  0
  181.5480  179.6800  142.7250 O   0  0  0  0  0  0  0  0  0  0  0  0
  180.5990  179.3260  143.6870 C   0  0  0  0  0  2  0  0  0  0  0  0
  179.0630  179.9720  141.9890 O   0  0  0  0  0  1  0  0  0  0  0  0
  179.2750  179.9930  143.3680 C   0  0  0  0  0  2  0  0  0  0  0  0
  183.3780  178.4680  141.6880 C   0  0  0  0  0  2  0  0  0  0  0  0
  182.4830  177.8370  140.6220 C   0  0  0  0  0  2  0  0  0  0  0  0
  181.7030  178.8740  139.8200 C   0  0  0  0  0  2  0  0  0  0  0  0
  181.8650  178.6550  138.4500 O   0  0  0  0  0  0  0  0  0  0  0  0
  181.9650  177.2690  138.3100 C   0  0  0  0  0  2  0  0  0  0  0  0
  180.6030  176.6310  138.5170 C   0  0  0  0  0  2  0  0  0  0  0  0
  179.7550  176.9410  137.4480 O   0  0  0  0  0  0  0  0  0  0  0  0
  180.1020  176.0500  136.4280 C   0  0  0  0  0  2  0  0  0  0  0  0
  181.6340  174.1730  135.8270 C   0  0  2  0  0  3  0  0  0  0  0  0
  180.8250  172.5350  137.5030 O   0  0  0  0  0  1  0  0  0  0  0  0
  180.9770  174.9300  136.9790 C   0  0  2  0  0  3  0  0  0  0  0  0
  179.1890  173.3670  135.8160 C   0  0  0  0  0  1  0  0  0  0  0  0
  180.4820  173.5430  136.5970 C   0  0  1  0  0  0  0  0  0  0  0  0
  185.4540  172.2050  136.1040 C   0  0  1  0  0  3  0  0  0  0  0  0
  184.1780  171.8640  136.8950 C   0  0  0  0  0  2  0  0  0  0  0  0
  184.7390  175.4500  136.1850 C   0  0  0  0  0  1  0  0  0  0  0  0
  183.0300  172.2570  136.1880 O   0  0  0  0  0  0  0  0  0  0  0  0
  185.1950  173.2730  135.0290 C   0  0  0  0  0  2  0  0  0  0  0  0
  182.9980  173.6580  136.2730 C   0  0  1  0  0  3  0  0  0  0  0  0
  184.1160  174.2930  135.4280 C   0  0  1  0  0  3  0  0  0  0  0  0
  186.5560  172.6640  137.0480 C   0  0  0  0  0  2  0  0  0  0  0  0
  187.6830  171.0660  135.5240 C   0  0  0  0  0  1  0  0  0  0  0  0
  187.8390  171.8980  136.7800 C   0  0  0  0  0  2  0  0  0  0  0  0
  1 33  1  6  0  0  0
  1  2  1  0  0  0  0
  2  3  1  0  0  0  0
  3  4  1  0  0  0  0
  5  4  1  0  0  0  0
  6  5  1  0  0  0  0
  7  6  1  6  0  0  0
  7 16  1  0  0  0  0
  8  7  1  0  0  0  0
  9 12  2  0  0  0  0
 10  8  1  0  0  0  0
 11  9  1  0  0  0  0
 11 10  2  0  0  0  0
 12  8  1  0  0  0  0
 14 15  2  0  0  0  0
 15 13  1  0  0  0  0
 15  9  1  0  0  0  0
 16 19  1  0  0  0  0
 17 18  1  0  0  0  0
 19 20  2  0  0  0  0
 19 22  1  0  0  0  0
 20 21  1  0  0  0  0
 21 18  2  0  0  0  0
 22 17  2  0  0  0  0
 24 22  1  0  0  0  0
 24 23  1  1  0  0  0
 25 24  1  0  0  0  0
 26 25  1  0  0  0  0
 28 27  1  0  0  0  0
 28 26  1  0  0  0  0
 29  1  1  0  0  0  0
 29 30  1  0  0  0  0
 31 32  1  0  0  0  0
 32 30  1  0  0  0  0
 34 33  1  0  0  0  0
 35 34  1  0  0  0  0
 36 35  1  0  0  0  0
 37 36  1  0  0  0  0
 37 38  1  0  0  0  0
 39 38  1  0  0  0  0
 40 39  1  0  0  0  0
 41 51  1  1  0  0  0
 41 45  1  0  0  0  0
 41 43  1  0  0  0  0
 43 40  1  6  0  0  0
 45 44  1  6  0  0  0
 45 43  1  0  0  0  0
 45 42  1  0  0  0  0
 46 47  1  0  0  0  0
 46 53  1  1  0  0  0
 49 47  1  0  0  0  0
 50 52  1  0  0  0  0
 50 46  1  0  0  0  0
 51 49  1  6  0  0  0
 52 48  1  1  0  0  0
 52 51  1  0  0  0  0
 54 55  1  0  0  0  0
 55 53  1  0  0  0  0
M  END
>  <MODEL>
8

>  <REMARK>
 VINA RESULT:      -3.4      2.373      6.594
  Name = 
  29 active torsions:
  status: ('A' for Active; 'I' for Inactive)
    1  A    between atoms: C_1  and  C_46
    2  A    between atoms: C_2  and  C_44
    3  A    between atoms: C_2  and  C_49
    4  A    between atoms: C_3  and  C_25
    5  A    between atoms: C_5  and  O_40
    6  A    between atoms: C_5  and  C_45
    7  A    between atoms: C_8  and  O_20
    8  A    between atoms: C_8  and  C_22
    9  A    between atoms: C_12  and  C_42
   10  A    between atoms: N_13  and  C_52
   11  A    between atoms: C_16  and  C_36
   12  A    between atoms: O_20  and  C_42
   13  A    between atoms: C_22  and  O_43
   14  A    between atoms: C_25  and  C_38
   15  A    between atoms: C_26  and  C_45
   16  A    between atoms: C_27  and  C_31
   17  A    between atoms: C_27  and  C_49
   18  A    between atoms: C_27  and  O_54
   19  A    between atoms: C_28  and  C_33
   20  A    between atoms: C_28  and  C_44
   21  A    between atoms: C_31  and  C_35
   22  A    between atoms: C_32  and  C_47
   23  A    between atoms: C_33  and  C_52
   24  A    between atoms: C_35  and  C_51
   25  A    between atoms: C_36  and  C_52
   26  A    between atoms: C_37  and  O_40
   27  A    between atoms: C_41  and  C_55
   28  A    between atoms: O_43  and  C_51
   29  A    between atoms: O_54  and  C_55
                            x       y       z     vdW  Elec       q    Type
                         _______ _______ _______ _____ _____    ______ ____

>  <TORSDO>
F 29

$$$$
=
 OpenBabel10262420233D

 55 58  0  0  1  0  0  0  0  0999 V2000
  184.2340  178.7950  142.7320 C   0  0  1  0  0  3  0  0  0  0  0  0
  184.9240  179.3140  143.9860 C   0  0  0  0  0  2  0  0  0  0  0  0
  184.9960  178.2240  145.0430 C   0  0  0  0  0  2  0  0  0  0  0  0
  186.4020  177.6470  145.1520 C   0  0  0  0  0  2  0  0  0  0  0  0
  187.0990  177.5050  143.8020 C   0  0  0  0  0  2  0  0  0  0  0  0
  188.4230  178.2540  143.7800 C   0  0  0  0  0  2  0  0  0  0  0  0
  189.5550  177.3570  143.3010 C   0  0  1  0  0  3  0  0  0  0  0  0
  189.7660  177.4590  141.8580 N   0  0  0  0  0  0  0  0  0  0  0  0
  189.4860  177.7670  139.6980 C   0  0  0  0  0  0  0  0  0  0  0  0
  190.9690  177.3380  141.2640 C   0  0  0  0  0  3  0  0  0  0  0  0
  190.8330  177.5230  139.8990 C   0  0  0  0  0  3  0  0  0  0  0  0
  188.8390  177.7300  140.9190 C   0  0  0  0  0  3  0  0  0  0  0  0
  188.2910  177.0840  137.7760 O   0  0  0  0  0  0  0  0  0  0  0  0
  188.8670  179.2950  137.8460 O   0  0  0  0  0  1  0  0  0  0  0  0
  188.8530  178.0220  138.3990 C   0  0  0  0  0  0  0  0  0  0  0  0
  190.8310  177.6830  144.0730 C   0  0  0  0  0  2  0  0  0  0  0  0
  192.0000  175.2590  146.7870 C   0  0  0  0  0  3  0  0  0  0  0  0
  192.4260  174.1810  146.0120 C   0  0  0  0  0  3  0  0  0  0  0  0
  191.3940  176.4800  144.7720 C   0  0  0  0  0  0  0  0  0  0  0  0
  191.8060  175.3790  144.0060 C   0  0  0  0  0  3  0  0  0  0  0  0
  192.3250  174.2380  144.6220 C   0  0  0  0  0  3  0  0  0  0  0  0
  191.4740  176.4090  146.1850 C   0  0  0  0  0  0  0  0  0  0  0  0
  191.7500  177.4950  148.4150 C   0  0  0  0  0  1  0  0  0  0  0  0
  190.9960  177.5030  147.0970 C   0  0  2  0  0  3  0  0  0  0  0  0
  189.4920  177.4440  147.3120 C   0  0  0  0  0  2  0  0  0  0  0  0
  189.1020  178.4100  148.2410 O   0  0  0  0  0  0  0  0  0  0  0  0
  186.9550  177.7420  147.8900 O   0  0  0  0  0  1  0  0  0  0  0  0
  187.9660  177.8700  148.8400 C   0  0  0  0  0  2  0  0  0  0  0  0
  183.0040  179.4340  142.5320 O   0  0  0  0  0  0  0  0  0  0  0  0
  182.3230  179.3060  143.7450 C   0  0  0  0  0  2  0  0  0  0  0  0
  180.0400  178.8820  143.2240 O   0  0  0  0  0  1  0  0  0  0  0  0
  181.2300  178.2640  143.6090 C   0  0  0  0  0  2  0  0  0  0  0  0
  185.1550  178.9460  141.5170 C   0  0  0  0  0  2  0  0  0  0  0  0
  184.5080  178.5880  140.1790 C   0  0  0  0  0  2  0  0  0  0  0  0
  183.0550  179.0430  140.0890 C   0  0  0  0  0  2  0  0  0  0  0  0
  182.7690  179.5140  138.8050 O   0  0  0  0  0  0  0  0  0  0  0  0
  182.7660  178.3780  137.9910 C   0  0  0  0  0  2  0  0  0  0  0  0
  181.6120  177.4710  138.3770 C   0  0  0  0  0  2  0  0  0  0  0  0
  180.5870  177.5620  137.4280 O   0  0  0  0  0  0  0  0  0  0  0  0
  180.9910  176.7470  136.3660 C   0  0  0  0  0  2  0  0  0  0  0  0
  182.0770  174.5910  135.7270 C   0  0  2  0  0  3  0  0  0  0  0  0
  181.1650  173.2030  137.5670 O   0  0  0  0  0  1  0  0  0  0  0  0
  181.6980  175.5030  136.8920 C   0  0  2  0  0  3  0  0  0  0  0  0
  179.5380  174.2640  136.0040 C   0  0  0  0  0  1  0  0  0  0  0  0
  180.9180  174.2220  136.6430 C   0  0  1  0  0  0  0  0  0  0  0  0
  185.8280  172.4830  135.5810 C   0  0  1  0  0  3  0  0  0  0  0  0
  184.4500  171.8970  135.9390 C   0  0  0  0  0  2  0  0  0  0  0  0
  185.0800  175.3630  137.0620 C   0  0  0  0  0  1  0  0  0  0  0  0
  183.4190  172.6410  135.3450 O   0  0  0  0  0  0  0  0  0  0  0  0
  185.7240  173.9400  135.1020 C   0  0  0  0  0  2  0  0  0  0  0  0
  183.3620  173.8450  136.0660 C   0  0  1  0  0  3  0  0  0  0  0  0
  184.5890  174.7260  135.7760 C   0  0  1  0  0  3  0  0  0  0  0  0
  186.7710  172.3860  136.7710 C   0  0  0  0  0  2  0  0  0  0  0  0
  188.5680  173.7500  135.7430 C   0  0  0  0  0  1  0  0  0  0  0  0
  188.2160  172.3880  136.3070 C   0  0  0  0  0  2  0  0  0  0  0  0
  1 33  1  6  0  0  0
  1  2  1  0  0  0  0
  2  3  1  0  0  0  0
  3  4  1  0  0  0  0
  5  4  1  0  0  0  0
  6  5  1  0  0  0  0
  7  6  1  1  0  0  0
  7 16  1  0  0  0  0
  8  7  1  0  0  0  0
  9 11  1  0  0  0  0
  9 12  2  0  0  0  0
 10  8  1  0  0  0  0
 11 10  2  0  0  0  0
 12  8  1  0  0  0  0
 13 15  2  0  0  0  0
 14 15  1  0  0  0  0
 15  9  1  0  0  0  0
 16 19  1  0  0  0  0
 18 17  2  0  0  0  0
 19 22  2  0  0  0  0
 20 21  2  0  0  0  0
 20 19  1  0  0  0  0
 21 18  1  0  0  0  0
 22 17  1  0  0  0  0
 22 24  1  0  0  0  0
 24 25  1  0  0  0  0
 24 23  1  1  0  0  0
 25 26  1  0  0  0  0
 26 28  1  0  0  0  0
 27 28  1  0  0  0  0
 29  1  1  0  0  0  0
 29 30  1  0  0  0  0
 31 32  1  0  0  0  0
 32 30  1  0  0  0  0
 34 33  1  0  0  0  0
 35 34  1  0  0  0  0
 36 35  1  0  0  0  0
 37 38  1  0  0  0  0
 37 36  1  0  0  0  0
 39 38  1  0  0  0  0
 40 39  1  0  0  0  0
 41 51  1  1  0  0  0
 41 45  1  0  0  0  0
 41 43  1  0  0  0  0
 43 40  1  6  0  0  0
 45 44  1  6  0  0  0
 45 43  1  0  0  0  0
 45 42  1  0  0  0  0
 46 47  1  0  0  0  0
 46 53  1  1  0  0  0
 49 47  1  0  0  0  0
 50 46  1  0  0  0  0
 50 52  1  0  0  0  0
 51 49  1  6  0  0  0
 52 51  1  0  0  0  0
 52 48  1  1  0  0  0
 54 55  1  0  0  0  0
 55 53  1  0  0  0  0
M  END
>  <MODEL>
9

>  <REMARK>
 VINA RESULT:      -3.3      2.129      6.418
  Name = 
  29 active torsions:
  status: ('A' for Active; 'I' for Inactive)
    1  A    between atoms: C_1  and  C_46
    2  A    between atoms: C_2  and  C_44
    3  A    between atoms: C_2  and  C_49
    4  A    between atoms: C_3  and  C_25
    5  A    between atoms: C_5  and  O_40
    6  A    between atoms: C_5  and  C_45
    7  A    between atoms: C_8  and  O_20
    8  A    between atoms: C_8  and  C_22
    9  A    between atoms: C_12  and  C_42
   10  A    between atoms: N_13  and  C_52
   11  A    between atoms: C_16  and  C_36
   12  A    between atoms: O_20  and  C_42
   13  A    between atoms: C_22  and  O_43
   14  A    between atoms: C_25  and  C_38
   15  A    between atoms: C_26  and  C_45
   16  A    between atoms: C_27  and  C_31
   17  A    between atoms: C_27  and  C_49
   18  A    between atoms: C_27  and  O_54
   19  A    between atoms: C_28  and  C_33
   20  A    between atoms: C_28  and  C_44
   21  A    between atoms: C_31  and  C_35
   22  A    between atoms: C_32  and  C_47
   23  A    between atoms: C_33  and  C_52
   24  A    between atoms: C_35  and  C_51
   25  A    between atoms: C_36  and  C_52
   26  A    between atoms: C_37  and  O_40
   27  A    between atoms: C_41  and  C_55
   28  A    between atoms: O_43  and  C_51
   29  A    between atoms: O_54  and  C_55
                            x       y       z     vdW  Elec       q    Type
                         _______ _______ _______ _____ _____    ______ ____

>  <TORSDO>
F 29

$$$$
