=
 OpenBabel10262419423D

 25 28  0  0  1  0  0  0  0  0999 V2000
  187.3170  177.7150  145.1100 N   0  0  0  0  0  0  0  0  0  0  0  0
  188.2840  177.1220  144.3510 C   0  0  0  0  0  0  0  0  0  0  0  0
  188.7290  177.8430  147.0360 C   0  0  0  0  0  3  0  0  0  0  0  0
  186.0520  178.0670  144.8220 C   0  0  0  0  0  0  0  0  0  0  0  0
  183.4590  178.9760  144.7700 C   0  0  0  0  0  3  0  0  0  0  0  0
  189.7470  177.2320  146.2940 C   0  0  0  0  0  3  0  0  0  0  0  0
  185.4740  178.6370  145.9250 C   0  0  0  0  0  0  0  0  0  0  0  0
  184.1960  179.0900  145.9150 N   0  0  0  0  0  0  0  0  0  0  0  0
  190.5990  176.2400  144.1520 C   0  0  0  0  0  0  0  0  0  0  0  0
  191.6700  175.8500  144.6880 O   0  0  0  0  0  0  0  0  0  0  0  0
  188.0120  176.6570  142.9390 C   0  0  0  0  0  2  0  0  0  0  0  0
  184.0190  178.3960  143.6110 C   0  0  0  0  0  3  0  0  0  0  0  0
  187.5100  178.0740  146.4030 C   0  0  0  0  0  0  0  0  0  0  0  0
  186.3800  178.6630  146.9740 C   0  0  0  0  0  3  0  0  0  0  0  0
  190.3970  176.0620  142.7480 N   0  0  0  0  0  2  0  0  0  0  0  0
  185.3450  177.9290  143.6290 C   0  0  0  0  0  3  0  0  0  0  0  0
  189.2690  176.6920  142.0630 C   0  0  2  0  0  3  0  0  0  0  0  0
  189.5350  176.8670  144.9510 C   0  0  0  0  0  0  0  0  0  0  0  0
  189.6100  178.1300  141.6890 C   0  0  0  0  0  2  0  0  0  0  0  0
  189.8180  178.2490  140.2530 N   0  0  0  0  0  2  0  0  0  0  0  0
  188.7500  178.4910  139.3360 C   0  0  0  0  0  0  0  0  0  0  0  0
  187.5690  178.6360  139.7540 O   0  0  0  0  0  0  0  0  0  0  0  0
  189.0450  178.5590  137.8750 C   0  0  2  0  0  3  0  0  0  0  0  0
  187.8750  179.0200  137.1490 N   0  0  0  0  0  1  0  0  0  0  0  0
  189.4670  177.1980  137.3570 C   0  0  0  0  0  1  0  0  0  0  0  0
  1 13  1  0  0  0  0
  2 18  2  0  0  0  0
  2  1  1  0  0  0  0
  4  1  1  0  0  0  0
  4  7  1  0  0  0  0
  5  8  1  0  0  0  0
  6  3  2  0  0  0  0
  7 14  1  0  0  0  0
  8  7  2  0  0  0  0
  9 10  2  0  0  0  0
  9 18  1  0  0  0  0
 11  2  1  0  0  0  0
 12 16  1  0  0  0  0
 12  5  2  0  0  0  0
 13 14  2  0  0  0  0
 13  3  1  0  0  0  0
 15  9  1  0  0  0  0
 16  4  2  0  0  0  0
 17 19  1  1  0  0  0
 17 15  1  0  0  0  0
 17 11  1  0  0  0  0
 18  6  1  0  0  0  0
 20 19  1  0  0  0  0
 21 22  2  0  0  0  0
 21 20  1  0  0  0  0
 23 25  1  6  0  0  0
 23 21  1  0  0  0  0
 24 23  1  0  0  0  0
M  END
>  <MODEL>
1

>  <REMARK>
 VINA RESULT:      -9.5      0.000      0.000
  Name = 
  3 active torsions:
  status: ('A' for Active; 'I' for Inactive)
    1  A    between atoms: C_2  and  C_21
    2  A    between atoms: C_6  and  N_15
    3  A    between atoms: C_6  and  C_23
                            x       y       z     vdW  Elec       q    Type
                         _______ _______ _______ _____ _____    ______ ____

>  <TORSDO>
F 3

$$$$
=
 OpenBabel10262419423D

 25 28  0  0  1  0  0  0  0  0999 V2000
  187.4720  177.9290  146.0540 N   0  0  0  0  0  0  0  0  0  0  0  0
  188.6530  177.3490  145.6900 C   0  0  0  0  0  0  0  0  0  0  0  0
  188.2530  178.4320  148.2580 C   0  0  0  0  0  3  0  0  0  0  0  0
  186.3270  178.1150  145.3760 C   0  0  0  0  0  0  0  0  0  0  0  0
  183.8100  178.7460  144.4700 C   0  0  0  0  0  3  0  0  0  0  0  0
  189.4790  177.8400  147.9270 C   0  0  0  0  0  3  0  0  0  0  0  0
  185.4200  178.7550  146.1790 C   0  0  0  0  0  0  0  0  0  0  0  0
  184.1740  179.0720  145.7470 N   0  0  0  0  0  0  0  0  0  0  0  0
  190.9750  176.6860  146.2760 C   0  0  0  0  0  0  0  0  0  0  0  0
  191.8660  176.4730  147.1400 O   0  0  0  0  0  0  0  0  0  0  0  0
  188.8320  176.6900  144.3410 C   0  0  0  0  0  2  0  0  0  0  0  0
  184.7170  178.0890  143.6110 C   0  0  0  0  0  3  0  0  0  0  0  0
  187.2590  178.4600  147.2830 C   0  0  0  0  0  0  0  0  0  0  0  0
  185.9790  178.9980  147.4230 C   0  0  0  0  0  3  0  0  0  0  0  0
  191.2020  176.3190  144.9120 N   0  0  0  0  0  2  0  0  0  0  0  0
  186.0060  177.7640  144.0660 C   0  0  0  0  0  3  0  0  0  0  0  0
  190.2840  176.7440  143.8560 C   0  0  2  0  0  3  0  0  0  0  0  0
  189.6880  177.2960  146.6460 C   0  0  0  0  0  0  0  0  0  0  0  0
  190.6300  178.1530  143.3880 C   0  0  0  0  0  2  0  0  0  0  0  0
  189.6960  178.5940  142.3610 N   0  0  0  0  0  2  0  0  0  0  0  0
  189.5490  177.9200  141.1110 C   0  0  0  0  0  0  0  0  0  0  0  0
  190.2220  176.8830  140.8610 O   0  0  0  0  0  0  0  0  0  0  0  0
  188.5970  178.4610  140.0980 C   0  0  2  0  0  3  0  0  0  0  0  0
  187.2830  178.6390  140.6900 N   0  0  0  0  0  1  0  0  0  0  0  0
  188.5010  177.5230  138.9100 C   0  0  0  0  0  1  0  0  0  0  0  0
  1 13  1  0  0  0  0
  2  1  1  0  0  0  0
  2 18  2  0  0  0  0
  4  1  1  0  0  0  0
  4  7  1  0  0  0  0
  5  8  1  0  0  0  0
  6  3  2  0  0  0  0
  7 14  1  0  0  0  0
  8  7  2  0  0  0  0
  9 18  1  0  0  0  0
  9 10  2  0  0  0  0
 11  2  1  0  0  0  0
 12 16  1  0  0  0  0
 12  5  2  0  0  0  0
 13 14  2  0  0  0  0
 13  3  1  0  0  0  0
 15  9  1  0  0  0  0
 16  4  2  0  0  0  0
 17 19  1  1  0  0  0
 17 11  1  0  0  0  0
 17 15  1  0  0  0  0
 18  6  1  0  0  0  0
 20 19  1  0  0  0  0
 21 20  1  0  0  0  0
 22 21  2  0  0  0  0
 23 25  1  6  0  0  0
 23 24  1  0  0  0  0
 23 21  1  0  0  0  0
M  END
>  <MODEL>
2

>  <REMARK>
 VINA RESULT:      -9.5      1.553      1.831
  Name = 
  3 active torsions:
  status: ('A' for Active; 'I' for Inactive)
    1  A    between atoms: C_2  and  C_21
    2  A    between atoms: C_6  and  N_15
    3  A    between atoms: C_6  and  C_23
                            x       y       z     vdW  Elec       q    Type
                         _______ _______ _______ _____ _____    ______ ____

>  <TORSDO>
F 3

$$$$
=
 OpenBabel10262419423D

 25 28  0  0  1  0  0  0  0  0999 V2000
  185.5590  178.1210  144.3650 N   0  0  0  0  0  0  0  0  0  0  0  0
  186.8070  177.5700  144.3990 C   0  0  0  0  0  0  0  0  0  0  0  0
  185.6420  178.7660  146.6660 C   0  0  0  0  0  3  0  0  0  0  0  0
  184.6610  178.2260  143.3710 C   0  0  0  0  0  0  0  0  0  0  0  0
  182.5100  178.7090  141.7300 C   0  0  0  0  0  3  0  0  0  0  0  0
  186.9240  178.2070  146.7460 C   0  0  0  0  0  3  0  0  0  0  0  0
  183.5420  178.8690  143.8320 C   0  0  0  0  0  0  0  0  0  0  0  0
  182.4730  179.1140  143.0350 N   0  0  0  0  0  0  0  0  0  0  0  0
  188.8680  177.0310  145.6800 C   0  0  0  0  0  0  0  0  0  0  0  0
  189.4680  176.8990  146.7790 O   0  0  0  0  0  0  0  0  0  0  0  0
  187.3910  176.8510  143.2050 C   0  0  0  0  0  2  0  0  0  0  0  0
  183.6450  178.0450  141.2160 C   0  0  0  0  0  3  0  0  0  0  0  0
  184.9800  178.7050  145.4430 C   0  0  0  0  0  0  0  0  0  0  0  0
  183.7030  179.1980  145.1680 C   0  0  0  0  0  3  0  0  0  0  0  0
  189.4950  176.6050  144.4680 N   0  0  0  0  0  2  0  0  0  0  0  0
  184.7490  177.7950  142.0480 C   0  0  0  0  0  3  0  0  0  0  0  0
  188.9210  176.9380  143.1650 C   0  0  2  0  0  3  0  0  0  0  0  0
  187.5150  177.6070  145.6190 C   0  0  0  0  0  0  0  0  0  0  0  0
  189.3570  178.3340  142.7350 C   0  0  0  0  0  2  0  0  0  0  0  0
  188.8300  178.6490  141.4140 N   0  0  0  0  0  2  0  0  0  0  0  0
  189.4210  178.1580  140.2110 C   0  0  0  0  0  0  0  0  0  0  0  0
  190.4270  177.3980  140.2560 O   0  0  0  0  0  0  0  0  0  0  0  0
  188.8420  178.5610  138.8960 C   0  0  2  0  0  3  0  0  0  0  0  0
  187.4060  178.3420  138.8920 N   0  0  0  0  0  1  0  0  0  0  0  0
  189.4840  177.7710  137.7710 C   0  0  0  0  0  1  0  0  0  0  0  0
  1  2  1  0  0  0  0
  1 13  1  0  0  0  0
  2 18  2  0  0  0  0
  3  6  2  0  0  0  0
  4  7  1  0  0  0  0
  4  1  1  0  0  0  0
  5  8  1  0  0  0  0
  7 14  1  0  0  0  0
  8  7  2  0  0  0  0
  9 10  2  0  0  0  0
 11  2  1  0  0  0  0
 12  5  2  0  0  0  0
 12 16  1  0  0  0  0
 13  3  1  0  0  0  0
 14 13  2  0  0  0  0
 15  9  1  0  0  0  0
 16  4  2  0  0  0  0
 17 19  1  1  0  0  0
 17 11  1  0  0  0  0
 17 15  1  0  0  0  0
 18  9  1  0  0  0  0
 18  6  1  0  0  0  0
 20 19  1  0  0  0  0
 21 22  2  0  0  0  0
 21 20  1  0  0  0  0
 23 25  1  6  0  0  0
 23 21  1  0  0  0  0
 24 23  1  0  0  0  0
M  END
>  <MODEL>
3

>  <REMARK>
 VINA RESULT:      -8.8      1.682      2.319
  Name = 
  3 active torsions:
  status: ('A' for Active; 'I' for Inactive)
    1  A    between atoms: C_2  and  C_21
    2  A    between atoms: C_6  and  N_15
    3  A    between atoms: C_6  and  C_23
                            x       y       z     vdW  Elec       q    Type
                         _______ _______ _______ _____ _____    ______ ____

>  <TORSDO>
F 3

$$$$
=
 OpenBabel10262419423D

 25 28  0  0  1  0  0  0  0  0999 V2000
  187.2540  177.8580  145.3920 N   0  0  0  0  0  0  0  0  0  0  0  0
  188.3170  177.1940  144.8520 C   0  0  0  0  0  0  0  0  0  0  0  0
  188.3960  178.2750  147.4510 C   0  0  0  0  0  3  0  0  0  0  0  0
  186.0360  178.1380  144.8960 C   0  0  0  0  0  0  0  0  0  0  0  0
  183.4670  178.9680  144.3840 C   0  0  0  0  0  3  0  0  0  0  0  0
  189.5090  177.5950  146.9380 C   0  0  0  0  0  3  0  0  0  0  0  0
  185.3130  178.8350  145.8270 C   0  0  0  0  0  0  0  0  0  0  0  0
  184.0450  179.2510  145.5900 N   0  0  0  0  0  0  0  0  0  0  0  0
  190.6440  176.3510  145.0780 C   0  0  0  0  0  0  0  0  0  0  0  0
  191.6370  176.0610  145.7970 O   0  0  0  0  0  0  0  0  0  0  0  0
  188.2380  176.5390  143.4930 C   0  0  0  0  0  2  0  0  0  0  0  0
  184.1800  178.2530  143.3960 C   0  0  0  0  0  3  0  0  0  0  0  0
  187.2710  178.3890  146.6390 C   0  0  0  0  0  0  0  0  0  0  0  0
  186.0720  179.0220  146.9720 C   0  0  0  0  0  3  0  0  0  0  0  0
  190.6320  175.9830  143.6970 N   0  0  0  0  0  2  0  0  0  0  0  0
  185.4950  177.8260  143.6500 C   0  0  0  0  0  3  0  0  0  0  0  0
  189.6000  176.4880  142.7920 C   0  0  2  0  0  3  0  0  0  0  0  0
  189.4790  177.0520  145.6400 C   0  0  0  0  0  0  0  0  0  0  0  0
  189.9780  177.8720  142.2760 C   0  0  0  0  0  2  0  0  0  0  0  0
  190.1920  177.8400  140.8360 N   0  0  0  0  0  2  0  0  0  0  0  0
  191.4410  177.4720  140.2500 C   0  0  0  0  0  0  0  0  0  0  0  0
  192.4140  177.1330  140.9770 O   0  0  0  0  0  0  0  0  0  0  0  0
  191.5870  177.5030  138.7650 C   0  0  2  0  0  3  0  0  0  0  0  0
  190.3260  177.1660  138.1300 N   0  0  0  0  0  1  0  0  0  0  0  0
  192.6620  176.5300  138.3200 C   0  0  0  0  0  1  0  0  0  0  0  0
  1 13  1  0  0  0  0
  2  1  1  0  0  0  0
  2 18  2  0  0  0  0
  4  1  1  0  0  0  0
  4  7  1  0  0  0  0
  5  8  1  0  0  0  0
  6  3  2  0  0  0  0
  7 14  1  0  0  0  0
  8  7  2  0  0  0  0
  9 18  1  0  0  0  0
  9 10  2  0  0  0  0
 11  2  1  0  0  0  0
 12 16  1  0  0  0  0
 12  5  2  0  0  0  0
 13 14  2  0  0  0  0
 13  3  1  0  0  0  0
 15  9  1  0  0  0  0
 16  4  2  0  0  0  0
 17 19  1  1  0  0  0
 17 11  1  0  0  0  0
 17 15  1  0  0  0  0
 18  6  1  0  0  0  0
 20 19  1  0  0  0  0
 21 20  1  0  0  0  0
 21 22  2  0  0  0  0
 23 25  1  1  0  0  0
 23 21  1  0  0  0  0
 24 23  1  0  0  0  0
M  END
>  <MODEL>
4

>  <REMARK>
 VINA RESULT:      -8.2      1.672      1.732
  Name = 
  3 active torsions:
  status: ('A' for Active; 'I' for Inactive)
    1  A    between atoms: C_2  and  C_21
    2  A    between atoms: C_6  and  N_15
    3  A    between atoms: C_6  and  C_23
                            x       y       z     vdW  Elec       q    Type
                         _______ _______ _______ _____ _____    ______ ____

>  <TORSDO>
F 3

$$$$
=
 OpenBabel10262419423D

 25 28  0  0  1  0  0  0  0  0999 V2000
  188.4150  177.6800  144.2460 N   0  0  0  0  0  0  0  0  0  0  0  0
  188.3870  178.0350  142.9290 C   0  0  0  0  0  0  0  0  0  0  0  0
  186.0340  177.7550  144.4500 C   0  0  0  0  0  3  0  0  0  0  0  0
  189.4410  177.4060  145.0710 C   0  0  0  0  0  0  0  0  0  0  0  0
  191.1270  176.7550  147.1410 C   0  0  0  0  0  3  0  0  0  0  0  0
  185.9600  178.1270  143.1010 C   0  0  0  0  0  3  0  0  0  0  0  0
  188.9570  177.0950  146.3140 C   0  0  0  0  0  0  0  0  0  0  0  0
  189.7760  176.7730  147.3450 N   0  0  0  0  0  0  0  0  0  0  0  0
  187.0700  178.6420  140.9110 C   0  0  0  0  0  0  0  0  0  0  0  0
  185.9890  179.0150  140.3820 O   0  0  0  0  0  0  0  0  0  0  0  0
  189.6550  178.2710  142.1420 C   0  0  0  0  0  2  0  0  0  0  0  0
  191.6660  177.0680  145.8730 C   0  0  0  0  0  3  0  0  0  0  0  0
  187.2950  177.5360  144.9970 C   0  0  0  0  0  0  0  0  0  0  0  0
  187.5730  177.1660  146.3140 C   0  0  0  0  0  3  0  0  0  0  0  0
  188.2660  178.5910  140.1290 N   0  0  0  0  0  2  0  0  0  0  0  0
  190.8100  177.4000  144.8100 C   0  0  0  0  0  3  0  0  0  0  0  0
  189.4800  177.9630  140.6500 C   0  0  2  0  0  3  0  0  0  0  0  0
  187.1300  178.2700  142.3330 C   0  0  0  0  0  0  0  0  0  0  0  0
  189.4350  176.4560  140.4260 C   0  0  0  0  0  2  0  0  0  0  0  0
  190.5340  176.0340  139.5680 N   0  0  0  0  0  2  0  0  0  0  0  0
  190.4090  175.9360  138.1490 C   0  0  0  0  0  0  0  0  0  0  0  0
  189.3260  176.2420  137.5790 O   0  0  0  0  0  0  0  0  0  0  0  0
  191.5720  175.4580  137.3460 C   0  0  2  0  0  3  0  0  0  0  0  0
  191.7650  174.0320  137.5420 N   0  0  0  0  0  1  0  0  0  0  0  0
  192.8310  176.2050  137.7440 C   0  0  0  0  0  1  0  0  0  0  0  0
  1 13  1  0  0  0  0
  1  4  1  0  0  0  0
  2  1  1  0  0  0  0
  3 13  1  0  0  0  0
  4  7  1  0  0  0  0
  5  8  1  0  0  0  0
  6  3  2  0  0  0  0
  7  8  2  0  0  0  0
  9 18  1  0  0  0  0
 10  9  2  0  0  0  0
 11  2  1  0  0  0  0
 12  5  2  0  0  0  0
 13 14  2  0  0  0  0
 14  7  1  0  0  0  0
 15 17  1  0  0  0  0
 15  9  1  0  0  0  0
 16  4  2  0  0  0  0
 16 12  1  0  0  0  0
 17 19  1  1  0  0  0
 17 11  1  0  0  0  0
 18  2  2  0  0  0  0
 18  6  1  0  0  0  0
 20 19  1  0  0  0  0
 21 20  1  0  0  0  0
 22 21  2  0  0  0  0
 23 24  1  0  0  0  0
 23 25  1  1  0  0  0
 23 21  1  0  0  0  0
M  END
>  <MODEL>
5

>  <REMARK>
 VINA RESULT:      -8.1      2.450      4.547
  Name = 
  3 active torsions:
  status: ('A' for Active; 'I' for Inactive)
    1  A    between atoms: C_2  and  C_21
    2  A    between atoms: C_6  and  N_15
    3  A    between atoms: C_6  and  C_23
                            x       y       z     vdW  Elec       q    Type
                         _______ _______ _______ _____ _____    ______ ____

>  <TORSDO>
F 3

$$$$
=
 OpenBabel10262419423D

 25 28  0  0  1  0  0  0  0  0999 V2000
  187.2410  177.8980  142.7180 N   0  0  0  0  0  0  0  0  0  0  0  0
  186.6230  177.8230  143.9330 C   0  0  0  0  0  0  0  0  0  0  0  0
  185.5920  179.3830  141.8270 C   0  0  0  0  0  3  0  0  0  0  0  0
  188.3630  177.3200  142.2550 C   0  0  0  0  0  0  0  0  0  0  0  0
  190.5360  176.4250  140.8310 C   0  0  0  0  0  3  0  0  0  0  0  0
  184.9230  179.3300  143.0570 C   0  0  0  0  0  3  0  0  0  0  0  0
  188.5750  177.7080  140.9590 C   0  0  0  0  0  0  0  0  0  0  0  0
  189.6420  177.2750  140.2430 N   0  0  0  0  0  0  0  0  0  0  0  0
  184.7490  178.5000  145.4180 C   0  0  0  0  0  0  0  0  0  0  0  0
  183.6050  179.0030  145.5750 O   0  0  0  0  0  0  0  0  0  0  0  0
  187.1310  176.9160  145.0290 C   0  0  0  0  0  2  0  0  0  0  0  0
  190.3540  176.0030  142.1660 C   0  0  0  0  0  3  0  0  0  0  0  0
  186.7650  178.6450  141.6920 C   0  0  0  0  0  0  0  0  0  0  0  0
  187.5660  178.5660  140.5510 C   0  0  0  0  0  3  0  0  0  0  0  0
  185.4000  177.8520  146.5140 N   0  0  0  0  0  2  0  0  0  0  0  0
  189.2460  176.4570  142.9010 C   0  0  0  0  0  3  0  0  0  0  0  0
  186.8040  177.4520  146.4270 C   0  0  2  0  0  3  0  0  0  0  0  0
  185.4300  178.5530  144.1150 C   0  0  0  0  0  0  0  0  0  0  0  0
  187.7130  178.6280  146.7650 C   0  0  0  0  0  2  0  0  0  0  0  0
  189.1030  178.2970  146.4820 N   0  0  0  0  0  2  0  0  0  0  0  0
  189.8130  177.2820  147.1920 C   0  0  0  0  0  0  0  0  0  0  0  0
  189.2380  176.6080  148.0910 O   0  0  0  0  0  0  0  0  0  0  0  0
  191.2480  177.0330  146.8670 C   0  0  2  0  0  3  0  0  0  0  0  0
  191.4640  177.1430  145.4350 N   0  0  0  0  0  1  0  0  0  0  0  0
  191.6650  175.6540  147.3440 C   0  0  0  0  0  1  0  0  0  0  0  0
  1  2  1  0  0  0  0
  2 18  2  0  0  0  0
  2 11  1  0  0  0  0
  3  6  2  0  0  0  0
  4  1  1  0  0  0  0
  4 16  1  0  0  0  0
  5 12  1  0  0  0  0
  6 18  1  0  0  0  0
  7  4  2  0  0  0  0
  8  5  2  0  0  0  0
  8  7  1  0  0  0  0
  9 10  2  0  0  0  0
  9 15  1  0  0  0  0
 11 17  1  0  0  0  0
 12 16  2  0  0  0  0
 13  3  1  0  0  0  0
 13  1  1  0  0  0  0
 14  7  1  0  0  0  0
 14 13  2  0  0  0  0
 17 15  1  0  0  0  0
 17 19  1  6  0  0  0
 18  9  1  0  0  0  0
 20 19  1  0  0  0  0
 20 21  1  0  0  0  0
 21 22  2  0  0  0  0
 23 21  1  0  0  0  0
 23 25  1  6  0  0  0
 24 23  1  0  0  0  0
M  END
>  <MODEL>
6

>  <REMARK>
 VINA RESULT:      -7.9      2.469      6.643
  Name = 
  3 active torsions:
  status: ('A' for Active; 'I' for Inactive)
    1  A    between atoms: C_2  and  C_21
    2  A    between atoms: C_6  and  N_15
    3  A    between atoms: C_6  and  C_23
                            x       y       z     vdW  Elec       q    Type
                         _______ _______ _______ _____ _____    ______ ____

>  <TORSDO>
F 3

$$$$
=
 OpenBabel10262419423D

 25 28  0  0  1  0  0  0  0  0999 V2000
  187.4780  177.7950  142.8660 N   0  0  0  0  0  0  0  0  0  0  0  0
  186.2750  178.3970  143.1010 C   0  0  0  0  0  0  0  0  0  0  0  0
  187.6510  176.9780  145.1070 C   0  0  0  0  0  3  0  0  0  0  0  0
  188.2360  177.7270  141.7580 C   0  0  0  0  0  0  0  0  0  0  0  0
  190.1320  177.2770  139.8210 C   0  0  0  0  0  3  0  0  0  0  0  0
  186.4220  177.5860  145.3920 C   0  0  0  0  0  3  0  0  0  0  0  0
  189.3670  177.0010  142.0220 C   0  0  0  0  0  0  0  0  0  0  0  0
  190.3120  176.7710  141.0780 N   0  0  0  0  0  0  0  0  0  0  0  0
  184.4260  178.9270  144.6740 C   0  0  0  0  0  0  0  0  0  0  0  0
  183.9770  179.0010  145.8490 O   0  0  0  0  0  0  0  0  0  0  0  0
  185.5850  179.2320  142.0470 C   0  0  0  0  0  2  0  0  0  0  0  0
  188.9790  178.0290  139.5070 C   0  0  0  0  0  3  0  0  0  0  0  0
  188.1560  177.1040  143.8150 C   0  0  0  0  0  0  0  0  0  0  0  0
  189.3590  176.5770  143.3420 C   0  0  0  0  0  3  0  0  0  0  0  0
  183.6750  179.4740  143.5870 N   0  0  0  0  0  2  0  0  0  0  0  0
  188.0050  178.2620  140.4920 C   0  0  0  0  0  3  0  0  0  0  0  0
  184.0600  179.2170  142.2000 C   0  0  2  0  0  3  0  0  0  0  0  0
  185.7270  178.2970  144.3960 C   0  0  0  0  0  0  0  0  0  0  0  0
  183.4980  177.8790  141.7320 C   0  0  0  0  0  2  0  0  0  0  0  0
  183.8380  177.6430  140.3360 N   0  0  0  0  0  2  0  0  0  0  0  0
  182.9920  176.9080  139.4500 C   0  0  0  0  0  0  0  0  0  0  0  0
  181.8880  176.4500  139.8530 O   0  0  0  0  0  0  0  0  0  0  0  0
  183.4340  176.6770  138.0440 C   0  0  2  0  0  3  0  0  0  0  0  0
  183.7260  175.2700  137.8350 N   0  0  0  0  0  1  0  0  0  0  0  0
  184.6650  177.5080  137.7340 C   0  0  0  0  0  1  0  0  0  0  0  0
  1  2  1  0  0  0  0
  1 13  1  0  0  0  0
  2 18  2  0  0  0  0
  3  6  2  0  0  0  0
  4  7  1  0  0  0  0
  4  1  1  0  0  0  0
  5  8  1  0  0  0  0
  7 14  1  0  0  0  0
  8  7  2  0  0  0  0
  9 10  2  0  0  0  0
 11 17  1  0  0  0  0
 11  2  1  0  0  0  0
 12  5  2  0  0  0  0
 12 16  1  0  0  0  0
 13  3  1  0  0  0  0
 14 13  2  0  0  0  0
 15  9  1  0  0  0  0
 16  4  2  0  0  0  0
 17 19  1  1  0  0  0
 17 15  1  0  0  0  0
 18  9  1  0  0  0  0
 18  6  1  0  0  0  0
 20 19  1  0  0  0  0
 21 22  2  0  0  0  0
 21 20  1  0  0  0  0
 23 25  1  1  0  0  0
 23 21  1  0  0  0  0
 24 23  1  0  0  0  0
M  END
>  <MODEL>
7

>  <REMARK>
 VINA RESULT:      -7.9      3.229      5.593
  Name = 
  3 active torsions:
  status: ('A' for Active; 'I' for Inactive)
    1  A    between atoms: C_2  and  C_21
    2  A    between atoms: C_6  and  N_15
    3  A    between atoms: C_6  and  C_23
                            x       y       z     vdW  Elec       q    Type
                         _______ _______ _______ _____ _____    ______ ____

>  <TORSDO>
F 3

$$$$
=
 OpenBabel10262419423D

 25 28  0  0  1  0  0  0  0  0999 V2000
  189.5260  177.6510  143.9180 N   0  0  0  0  0  0  0  0  0  0  0  0
  189.7760  177.3600  142.6080 C   0  0  0  0  0  0  0  0  0  0  0  0
  191.7680  178.3820  144.3150 C   0  0  0  0  0  3  0  0  0  0  0  0
  188.4070  177.5420  144.6550 C   0  0  0  0  0  0  0  0  0  0  0  0
  186.4450  177.5310  146.5780 C   0  0  0  0  0  3  0  0  0  0  0  0
  192.0690  178.0910  142.9780 C   0  0  0  0  0  3  0  0  0  0  0  0
  188.6590  177.9670  145.9320 C   0  0  0  0  0  0  0  0  0  0  0  0
  187.7020  177.9670  146.8920 N   0  0  0  0  0  0  0  0  0  0  0  0
  191.3740  177.2850  140.7060 C   0  0  0  0  0  0  0  0  0  0  0  0
  192.5550  177.3130  140.2680 O   0  0  0  0  0  0  0  0  0  0  0  0
  188.7280  176.7290  141.7200 C   0  0  0  0  0  2  0  0  0  0  0  0
  186.1450  177.0870  145.2720 C   0  0  0  0  0  3  0  0  0  0  0  0
  190.4690  178.1470  144.7570 C   0  0  0  0  0  0  0  0  0  0  0  0
  189.9810  178.3680  146.0460 C   0  0  0  0  0  3  0  0  0  0  0  0
  190.2960  176.9480  139.8290 N   0  0  0  0  0  2  0  0  0  0  0  0
  187.1430  177.0900  144.2830 C   0  0  0  0  0  3  0  0  0  0  0  0
  188.9040  177.1150  140.2480 C   0  0  2  0  0  3  0  0  0  0  0  0
  191.0800  177.5800  142.1170 C   0  0  0  0  0  0  0  0  0  0  0  0
  188.4520  178.5540  140.0240 C   0  0  0  0  0  2  0  0  0  0  0  0
  187.0680  178.5890  139.5700 N   0  0  0  0  0  2  0  0  0  0  0  0
  185.9760  178.8620  140.4490 C   0  0  0  0  0  0  0  0  0  0  0  0
  186.1820  179.1100  141.6680 O   0  0  0  0  0  0  0  0  0  0  0  0
  184.5840  178.8400  139.9100 C   0  0  2  0  0  3  0  0  0  0  0  0
  184.3030  180.0740  139.1990 N   0  0  0  0  0  1  0  0  0  0  0  0
  183.5850  178.6590  141.0370 C   0  0  0  0  0  1  0  0  0  0  0  0
  1  4  1  0  0  0  0
  1 13  1  0  0  0  0
  2  1  1  0  0  0  0
  3 13  1  0  0  0  0
  4  7  1  0  0  0  0
  5  8  1  0  0  0  0
  6  3  2  0  0  0  0
  7 14  1  0  0  0  0
  7  8  2  0  0  0  0
  9 18  1  0  0  0  0
 10  9  2  0  0  0  0
 11  2  1  0  0  0  0
 12  5  2  0  0  0  0
 13 14  2  0  0  0  0
 15 17  1  0  0  0  0
 15  9  1  0  0  0  0
 16  4  2  0  0  0  0
 16 12  1  0  0  0  0
 17 19  1  1  0  0  0
 17 11  1  0  0  0  0
 18  2  2  0  0  0  0
 18  6  1  0  0  0  0
 20 19  1  0  0  0  0
 20 21  1  0  0  0  0
 21 22  2  0  0  0  0
 23 21  1  0  0  0  0
 23 25  1  1  0  0  0
 24 23  1  0  0  0  0
M  END
>  <MODEL>
8

>  <REMARK>
 VINA RESULT:      -7.7      2.261      3.529
  Name = 
  3 active torsions:
  status: ('A' for Active; 'I' for Inactive)
    1  A    between atoms: C_2  and  C_21
    2  A    between atoms: C_6  and  N_15
    3  A    between atoms: C_6  and  C_23
                            x       y       z     vdW  Elec       q    Type
                         _______ _______ _______ _____ _____    ______ ____

>  <TORSDO>
F 3

$$$$
=
 OpenBabel10262419423D

 25 28  0  0  1  0  0  0  0  0999 V2000
  187.7490  177.6670  142.8850 N   0  0  0  0  0  0  0  0  0  0  0  0
  186.5660  178.3090  143.1110 C   0  0  0  0  0  0  0  0  0  0  0  0
  187.8820  176.8540  145.1310 C   0  0  0  0  0  3  0  0  0  0  0  0
  188.5110  177.5690  141.7820 C   0  0  0  0  0  0  0  0  0  0  0  0
  190.4030  177.0470  139.8590 C   0  0  0  0  0  3  0  0  0  0  0  0
  186.6720  177.5040  145.4060 C   0  0  0  0  0  3  0  0  0  0  0  0
  189.6160  176.8070  142.0570 C   0  0  0  0  0  0  0  0  0  0  0  0
  190.5580  176.5410  141.1190 N   0  0  0  0  0  0  0  0  0  0  0  0
  184.7260  178.9070  144.6710 C   0  0  0  0  0  0  0  0  0  0  0  0
  184.2730  179.0010  145.8430 O   0  0  0  0  0  0  0  0  0  0  0  0
  185.9100  179.1610  142.0500 C   0  0  0  0  0  2  0  0  0  0  0  0
  189.2770  177.8360  139.5350 C   0  0  0  0  0  3  0  0  0  0  0  0
  188.3980  176.9580  143.8410 C   0  0  0  0  0  0  0  0  0  0  0  0
  189.5860  176.3890  143.3780 C   0  0  0  0  0  3  0  0  0  0  0  0
  184.0000  179.4740  143.5780 N   0  0  0  0  0  2  0  0  0  0  0  0
  188.3050  178.1060  140.5130 C   0  0  0  0  0  3  0  0  0  0  0  0
  184.3840  179.1980  142.1940 C   0  0  2  0  0  3  0  0  0  0  0  0
  186.0070  178.2330  144.4040 C   0  0  0  0  0  0  0  0  0  0  0  0
  183.7810  177.8780  141.7280 C   0  0  0  0  0  2  0  0  0  0  0  0
  182.9500  178.0830  140.5490 N   0  0  0  0  0  2  0  0  0  0  0  0
  181.5700  178.4400  140.6320 C   0  0  0  0  0  0  0  0  0  0  0  0
  181.0200  178.6160  141.7530 O   0  0  0  0  0  0  0  0  0  0  0  0
  180.7800  178.5930  139.3750 C   0  0  2  0  0  3  0  0  0  0  0  0
  180.3550  177.2930  138.8890 N   0  0  0  0  0  1  0  0  0  0  0  0
  181.6090  179.2920  138.3130 C   0  0  0  0  0  1  0  0  0  0  0  0
  1  2  1  0  0  0  0
  1 13  1  0  0  0  0
  2 18  2  0  0  0  0
  3  6  2  0  0  0  0
  4  7  1  0  0  0  0
  4  1  1  0  0  0  0
  5  8  1  0  0  0  0
  7 14  1  0  0  0  0
  8  7  2  0  0  0  0
  9 10  2  0  0  0  0
 11 17  1  0  0  0  0
 11  2  1  0  0  0  0
 12  5  2  0  0  0  0
 12 16  1  0  0  0  0
 13  3  1  0  0  0  0
 14 13  2  0  0  0  0
 15  9  1  0  0  0  0
 16  4  2  0  0  0  0
 17 19  1  1  0  0  0
 17 15  1  0  0  0  0
 18  9  1  0  0  0  0
 18  6  1  0  0  0  0
 20 21  1  0  0  0  0
 20 19  1  0  0  0  0
 21 22  2  0  0  0  0
 23 25  1  6  0  0  0
 23 21  1  0  0  0  0
 24 23  1  0  0  0  0
M  END
>  <MODEL>
9

>  <REMARK>
 VINA RESULT:      -7.6      3.511      6.075
  Name = 
  3 active torsions:
  status: ('A' for Active; 'I' for Inactive)
    1  A    between atoms: C_2  and  C_21
    2  A    between atoms: C_6  and  N_15
    3  A    between atoms: C_6  and  C_23
                            x       y       z     vdW  Elec       q    Type
                         _______ _______ _______ _____ _____    ______ ____

>  <TORSDO>
F 3

$$$$
