=
 OpenBabel10262422113D

 43 48  0  0  1  0  0  0  0  0999 V2000
  187.9620  177.7920  147.4440 C   0  0  0  0  0  0  0  0  0  0  0  0
  186.4120  178.6360  142.7290 C   0  0  2  0  0  3  0  0  0  0  0  0
  188.5210  177.7230  141.1150 C   0  0  0  0  0  0  0  0  0  0  0  0
  186.6100  178.1520  145.5270 C   0  0  0  0  0  0  0  0  0  0  0  0
  188.9990  177.3010  146.6480 C   0  0  0  0  0  3  0  0  0  0  0  0
  188.1210  177.8580  148.8560 N   0  0  0  0  0  1  0  0  0  0  0  0
  187.6380  177.6780  144.6900 C   0  0  0  0  0  0  0  0  0  0  0  0
  186.7940  178.1940  146.8760 N   0  0  0  0  0  0  0  0  0  0  0  0
  188.8300  177.2310  145.2650 C   0  0  0  0  0  3  0  0  0  0  0  0
  188.5640  177.4700  142.3900 N   0  0  0  0  0  0  0  0  0  0  0  0
  187.3520  177.5230  143.2170 C   0  0  2  0  0  3  0  0  0  0  0  0
  185.2000  178.7460  143.6170 C   0  0  0  0  0  3  0  0  0  0  0  0
  186.0690  178.3440  141.2720 C   0  0  2  0  0  3  0  0  0  0  0  0
  187.3090  178.2140  140.5070 N   0  0  0  0  0  2  0  0  0  0  0  0
  185.3170  178.5690  144.9390 C   0  0  0  0  0  3  0  0  0  0  0  0
  189.7610  177.5940  140.2930 C   0  0  1  0  0  3  0  0  0  0  0  0
  190.9360  177.2600  141.2060 C   0  0  0  0  0  1  0  0  0  0  0  0
  189.5830  176.5960  139.3200 O   0  0  0  0  0  0  0  0  0  0  0  0
  190.5480  176.8390  138.3350 C   0  0  1  0  0  3  0  0  0  0  0  0
  191.2370  175.5350  137.9830 C   0  0  0  0  0  1  0  0  0  0  0  0
  189.9120  177.4160  137.0650 C   0  0  0  0  0  2  0  0  0  0  0  0
  188.4780  177.1240  136.9120 N   0  0  0  0  0  0  0  0  0  0  0  0
  185.7870  177.0980  136.0210 C   0  0  0  0  0  2  0  0  0  0  0  0
  187.7630  178.3990  136.9510 C   0  0  0  0  0  2  0  0  0  0  0  0
  188.1850  176.3530  135.6730 C   0  0  2  0  0  3  0  0  0  0  0  0
  186.8610  176.7500  134.9890 C   0  0  0  0  0  2  0  0  0  0  0  0
  186.2570  178.1610  137.0190 C   0  0  0  0  0  2  0  0  0  0  0  0
  188.0760  174.0430  134.5950 C   0  0  0  0  0  2  0  0  0  0  0  0
  188.2480  174.8390  135.9100 C   0  0  2  0  0  3  0  0  0  0  0  0
  185.2150  172.9590  137.9760 Cl  0  0  0  0  0  0  0  0  0  0  0  0
  186.6220  172.4250  135.7520 C   0  0  0  0  0  3  0  0  0  0  0  0
  186.1170  173.5720  136.5750 C   0  0  2  0  0  3  0  0  0  0  0  0
  187.5630  172.6490  134.8260 C   0  0  0  0  0  3  0  0  0  0  0  0
  187.2990  174.4190  137.0600 C   0  0  0  0  0  2  0  0  0  0  0  0
  185.2570  179.4160  140.7140 N   0  0  0  0  0  2  0  0  0  0  0  0
  182.2900  179.5580  138.5850 C   0  0  0  0  0  3  0  0  0  0  0  0
  181.7750  178.1360  138.6600 C   0  0  0  0  0  0  0  0  0  0  0  0
  180.2590  178.1480  138.6630 C   0  0  0  0  0  1  0  0  0  0  0  0
  183.4650  177.7770  140.4420 C   0  0  0  0  0  3  0  0  0  0  0  0
  183.4860  179.8780  139.1100 C   0  0  0  0  0  3  0  0  0  0  0  0
  184.3320  178.8130  139.7630 C   0  0  1  0  0  3  0  0  0  0  0  0
  182.2550  177.3590  137.4500 C   0  0  0  0  0  1  0  0  0  0  0  0
  182.2710  177.4580  139.9170 C   0  0  0  0  0  3  0  0  0  0  0  0
  1  6  1  0  0  0  0
  2 11  1  0  0  0  0
  2 12  1  1  0  0  0
  3 10  2  0  0  0  0
  4  8  2  0  0  0  0
  5  1  2  0  0  0  0
  7  9  2  0  0  0  0
  7  4  1  0  0  0  0
  8  1  1  0  0  0  0
  9  5  1  0  0  0  0
 11 10  1  6  0  0  0
 11  7  1  0  0  0  0
 12 15  2  0  0  0  0
 13 35  1  6  0  0  0
 13  2  1  0  0  0  0
 14  3  1  0  0  0  0
 14 13  1  0  0  0  0
 15  4  1  0  0  0  0
 16  3  1  0  0  0  0
 16 17  1  1  0  0  0
 18 16  1  0  0  0  0
 19 20  1  6  0  0  0
 19 18  1  0  0  0  0
 21 19  1  0  0  0  0
 22 24  1  0  0  0  0
 22 21  1  0  0  0  0
 23 27  1  0  0  0  0
 24 27  1  0  0  0  0
 25 26  1  1  0  0  0
 25 29  1  0  0  0  0
 25 22  1  0  0  0  0
 26 23  1  0  0  0  0
 28 33  1  0  0  0  0
 29 28  1  6  0  0  0
 29 34  1  0  0  0  0
 31 32  1  0  0  0  0
 32 34  1  0  0  0  0
 32 30  1  1  0  0  0
 33 31  2  0  0  0  0
 36 37  1  0  0  0  0
 36 40  2  0  0  0  0
 37 38  1  0  0  0  0
 37 43  1  0  0  0  0
 40 41  1  0  0  0  0
 41 39  1  0  0  0  0
 41 35  1  1  0  0  0
 42 37  1  0  0  0  0
 43 39  2  0  0  0  0
M  END
>  <MODEL>
1

>  <REMARK>
 VINA RESULT:      -9.5      0.000      0.000
  Name = 
  8 active torsions:
  status: ('A' for Active; 'I' for Inactive)
    1  A    between atoms: N_1  and  C_34
    2  A    between atoms: N_1  and  C_35
    3  A    between atoms: C_2  and  O_6
    4  A    between atoms: C_2  and  C_13
    5  A    between atoms: C_3  and  N_4
    6  A    between atoms: C_3  and  C_12
    7  A    between atoms: O_6  and  C_12
    8  A    between atoms: C_14  and  C_22
                            x       y       z     vdW  Elec       q    Type
                         _______ _______ _______ _____ _____    ______ ____

>  <TORSDO>
F 8

$$$$
=
 OpenBabel10262422113D

 43 48  0  0  1  0  0  0  0  0999 V2000
  191.2050  176.7580  146.8800 C   0  0  0  0  0  0  0  0  0  0  0  0
  187.6450  178.0520  143.5640 C   0  0  2  0  0  3  0  0  0  0  0  0
  188.7930  177.5370  141.0540 C   0  0  0  0  0  0  0  0  0  0  0  0
  189.1160  177.2380  145.8610 C   0  0  0  0  0  0  0  0  0  0  0  0
  191.7690  176.4620  145.6380 C   0  0  0  0  0  3  0  0  0  0  0  0
  191.9930  176.6580  148.0600 N   0  0  0  0  0  1  0  0  0  0  0  0
  189.6530  176.9650  144.5880 C   0  0  0  0  0  0  0  0  0  0  0  0
  189.8990  177.1250  146.9700 N   0  0  0  0  0  0  0  0  0  0  0  0
  190.9840  176.5530  144.4880 C   0  0  0  0  0  3  0  0  0  0  0  0
  189.4220  177.1300  142.1170 N   0  0  0  0  0  0  0  0  0  0  0  0
  188.7250  176.9730  143.4000 C   0  0  2  0  0  3  0  0  0  0  0  0
  186.9750  177.9430  144.9090 C   0  0  0  0  0  3  0  0  0  0  0  0
  186.6760  177.9180  142.3940 C   0  0  2  0  0  3  0  0  0  0  0  0
  187.4280  177.9930  141.1420 N   0  0  0  0  0  2  0  0  0  0  0  0
  187.6900  177.6120  145.9920 C   0  0  0  0  0  3  0  0  0  0  0  0
  189.5180  177.6200  139.7520 C   0  0  1  0  0  3  0  0  0  0  0  0
  190.9370  177.0920  139.9320 C   0  0  0  0  0  1  0  0  0  0  0  0
  188.8280  176.8810  138.7760 O   0  0  0  0  0  0  0  0  0  0  0  0
  188.1600  177.8200  137.9790 C   0  0  1  0  0  3  0  0  0  0  0  0
  189.1050  178.9620  137.6600 C   0  0  0  0  0  1  0  0  0  0  0  0
  187.6870  177.1930  136.6630 C   0  0  0  0  0  2  0  0  0  0  0  0
  186.3890  176.5040  136.7450 N   0  0  0  0  0  0  0  0  0  0  0  0
  183.6850  175.7410  136.3670 C   0  0  0  0  0  2  0  0  0  0  0  0
  185.3750  177.5130  137.0510 C   0  0  0  0  0  2  0  0  0  0  0  0
  186.0690  175.7440  135.5060 C   0  0  2  0  0  3  0  0  0  0  0  0
  184.5760  175.7730  135.1240 C   0  0  0  0  0  2  0  0  0  0  0  0
  184.0410  176.8440  137.3690 C   0  0  0  0  0  2  0  0  0  0  0  0
  186.3640  173.6630  136.9530 C   0  0  0  0  0  2  0  0  0  0  0  0
  186.5940  174.3050  135.5640 C   0  0  2  0  0  3  0  0  0  0  0  0
  190.6540  173.5950  135.4070 Cl  0  0  0  0  0  0  0  0  0  0  0  0
  188.6080  172.6500  136.8700 C   0  0  0  0  0  3  0  0  0  0  0  0
  189.0600  173.8780  136.1370 C   0  0  2  0  0  3  0  0  0  0  0  0
  187.3260  172.5440  137.2400 C   0  0  0  0  0  3  0  0  0  0  0  0
  188.0490  174.2250  135.0380 C   0  0  0  0  0  2  0  0  0  0  0  0
  185.6780  178.9780  142.4330 N   0  0  0  0  0  2  0  0  0  0  0  0
  183.0880  179.2080  139.8650 C   0  0  0  0  0  3  0  0  0  0  0  0
  181.8820  178.6330  140.5760 C   0  0  0  0  0  0  0  0  0  0  0  0
  180.6370  179.3870  140.1490 C   0  0  0  0  0  1  0  0  0  0  0  0
  183.2610  178.6830  142.6400 C   0  0  0  0  0  3  0  0  0  0  0  0
  184.3070  179.1410  140.4290 C   0  0  0  0  0  3  0  0  0  0  0  0
  184.4810  178.4740  141.7710 C   0  0  1  0  0  3  0  0  0  0  0  0
  181.7200  177.1740  140.2030 C   0  0  0  0  0  1  0  0  0  0  0  0
  182.0440  178.7490  142.0760 C   0  0  0  0  0  3  0  0  0  0  0  0
  1  8  1  0  0  0  0
  1  6  1  0  0  0  0
  2 12  1  1  0  0  0
  3 14  1  0  0  0  0
  3 10  2  0  0  0  0
  4 15  1  0  0  0  0
  4  8  2  0  0  0  0
  5  1  2  0  0  0  0
  7  4  1  0  0  0  0
  9  7  2  0  0  0  0
  9  5  1  0  0  0  0
 11 10  1  6  0  0  0
 11  2  1  0  0  0  0
 11  7  1  0  0  0  0
 12 15  2  0  0  0  0
 13 35  1  6  0  0  0
 13  2  1  0  0  0  0
 14 13  1  0  0  0  0
 16 17  1  1  0  0  0
 16  3  1  0  0  0  0
 18 16  1  0  0  0  0
 19 20  1  6  0  0  0
 19 18  1  0  0  0  0
 21 22  1  0  0  0  0
 21 19  1  0  0  0  0
 22 24  1  0  0  0  0
 23 27  1  0  0  0  0
 24 27  1  0  0  0  0
 25 26  1  1  0  0  0
 25 29  1  0  0  0  0
 25 22  1  0  0  0  0
 26 23  1  0  0  0  0
 28 33  1  0  0  0  0
 29 34  1  1  0  0  0
 29 28  1  0  0  0  0
 31 33  2  0  0  0  0
 32 30  1  6  0  0  0
 32 31  1  0  0  0  0
 34 32  1  0  0  0  0
 36 40  2  0  0  0  0
 36 37  1  0  0  0  0
 37 43  1  0  0  0  0
 38 37  1  0  0  0  0
 40 41  1  0  0  0  0
 41 35  1  1  0  0  0
 41 39  1  0  0  0  0
 42 37  1  0  0  0  0
 43 39  2  0  0  0  0
M  END
>  <MODEL>
2

>  <REMARK>
 VINA RESULT:      -8.6      1.904      2.499
  Name = 
  8 active torsions:
  status: ('A' for Active; 'I' for Inactive)
    1  A    between atoms: N_1  and  C_34
    2  A    between atoms: N_1  and  C_35
    3  A    between atoms: C_2  and  O_6
    4  A    between atoms: C_2  and  C_13
    5  A    between atoms: C_3  and  N_4
    6  A    between atoms: C_3  and  C_12
    7  A    between atoms: O_6  and  C_12
    8  A    between atoms: C_14  and  C_22
                            x       y       z     vdW  Elec       q    Type
                         _______ _______ _______ _____ _____    ______ ____

>  <TORSDO>
F 8

$$$$
=
 OpenBabel10262422113D

 43 48  0  0  1  0  0  0  0  0999 V2000
  187.9900  177.8920  147.6850 C   0  0  0  0  0  0  0  0  0  0  0  0
  185.8680  178.6900  143.1890 C   0  0  2  0  0  3  0  0  0  0  0  0
  187.8410  177.9500  141.3330 C   0  0  0  0  0  0  0  0  0  0  0  0
  186.4100  178.1820  145.9370 C   0  0  0  0  0  0  0  0  0  0  0  0
  188.9620  177.4850  146.7690 C   0  0  0  0  0  3  0  0  0  0  0  0
  188.3000  177.9480  149.0720 N   0  0  0  0  0  1  0  0  0  0  0  0
  187.3680  177.7930  144.9820 C   0  0  0  0  0  0  0  0  0  0  0  0
  186.7410  178.2190  147.2580 N   0  0  0  0  0  0  0  0  0  0  0  0
  188.6440  177.4230  145.4120 C   0  0  0  0  0  3  0  0  0  0  0  0
  188.0430  177.6830  142.5900 N   0  0  0  0  0  0  0  0  0  0  0  0
  186.9300  177.6390  143.5470 C   0  0  2  0  0  3  0  0  0  0  0  0
  184.7580  178.7020  144.2090 C   0  0  0  0  0  3  0  0  0  0  0  0
  185.3850  178.3950  141.7740 C   0  0  2  0  0  3  0  0  0  0  0  0
  186.5380  178.3630  140.8740 N   0  0  0  0  0  2  0  0  0  0  0  0
  185.0350  178.5150  145.5050 C   0  0  0  0  0  3  0  0  0  0  0  0
  188.9860  177.9190  140.3770 C   0  0  1  0  0  3  0  0  0  0  0  0
  190.2510  177.5050  141.1210 C   0  0  0  0  0  1  0  0  0  0  0  0
  188.7060  177.0250  139.3290 O   0  0  0  0  0  0  0  0  0  0  0  0
  188.1820  177.8010  138.2870 C   0  0  1  0  0  3  0  0  0  0  0  0
  189.1130  178.9680  138.0210 C   0  0  0  0  0  1  0  0  0  0  0  0
  188.0430  176.9810  137.0000 C   0  0  0  0  0  2  0  0  0  0  0  0
  188.1450  175.5250  137.1880 N   0  0  0  0  0  0  0  0  0  0  0  0
  188.1060  172.7200  136.7810 C   0  0  0  0  0  2  0  0  0  0  0  0
  186.8670  174.9400  136.7850 C   0  0  0  0  0  2  0  0  0  0  0  0
  189.2920  174.9350  136.4460 C   0  0  2  0  0  3  0  0  0  0  0  0
  189.0010  173.5420  135.8520 C   0  0  0  0  0  2  0  0  0  0  0  0
  186.8190  173.4610  137.1590 C   0  0  0  0  0  2  0  0  0  0  0  0
  191.3530  176.2480  137.1790 C   0  0  0  0  0  2  0  0  0  0  0  0
  190.5730  174.9160  137.2880 C   0  0  2  0  0  3  0  0  0  0  0  0
  193.7080  172.4690  136.1980 Cl  0  0  0  0  0  0  0  0  0  0  0  0
  193.4770  175.0070  137.0450 C   0  0  0  0  0  3  0  0  0  0  0  0
  192.7310  173.9480  136.2900 C   0  0  2  0  0  3  0  0  0  0  0  0
  192.8170  176.0880  137.4810 C   0  0  0  0  0  3  0  0  0  0  0  0
  191.4070  173.6430  136.9990 C   0  0  0  0  0  2  0  0  0  0  0  0
  184.4440  179.4150  141.3320 N   0  0  0  0  0  2  0  0  0  0  0  0
  181.8840  179.2360  138.7300 C   0  0  0  0  0  3  0  0  0  0  0  0
  180.7670  178.4940  139.4320 C   0  0  0  0  0  0  0  0  0  0  0  0
  179.4300  179.0510  138.9820 C   0  0  0  0  0  1  0  0  0  0  0  0
  182.0960  178.7660  141.5120 C   0  0  0  0  0  3  0  0  0  0  0  0
  183.0920  179.3560  139.3100 C   0  0  0  0  0  3  0  0  0  0  0  0
  183.3450  178.7330  140.6610 C   0  0  1  0  0  3  0  0  0  0  0  0
  180.8300  177.0240  139.0720 C   0  0  0  0  0  1  0  0  0  0  0  0
  180.8900  178.6450  140.9320 C   0  0  0  0  0  3  0  0  0  0  0  0
  1  6  1  0  0  0  0
  2 11  1  0  0  0  0
  2 12  1  1  0  0  0
  3 10  2  0  0  0  0
  4  8  2  0  0  0  0
  5  1  2  0  0  0  0
  7  9  2  0  0  0  0
  7  4  1  0  0  0  0
  8  1  1  0  0  0  0
  9  5  1  0  0  0  0
 11 10  1  6  0  0  0
 11  7  1  0  0  0  0
 12 15  2  0  0  0  0
 13 35  1  6  0  0  0
 13  2  1  0  0  0  0
 14  3  1  0  0  0  0
 14 13  1  0  0  0  0
 15  4  1  0  0  0  0
 16 17  1  1  0  0  0
 16  3  1  0  0  0  0
 18 16  1  0  0  0  0
 19 20  1  6  0  0  0
 19 18  1  0  0  0  0
 21 22  1  0  0  0  0
 21 19  1  0  0  0  0
 23 27  1  0  0  0  0
 24 27  1  0  0  0  0
 24 22  1  0  0  0  0
 25 26  1  1  0  0  0
 25 22  1  0  0  0  0
 25 29  1  0  0  0  0
 26 23  1  0  0  0  0
 28 29  1  0  0  0  0
 28 33  1  0  0  0  0
 29 34  1  6  0  0  0
 31 33  2  0  0  0  0
 32 30  1  1  0  0  0
 32 34  1  0  0  0  0
 32 31  1  0  0  0  0
 36 40  2  0  0  0  0
 36 37  1  0  0  0  0
 37 43  1  0  0  0  0
 38 37  1  0  0  0  0
 40 41  1  0  0  0  0
 41 35  1  1  0  0  0
 41 39  1  0  0  0  0
 42 37  1  0  0  0  0
 43 39  2  0  0  0  0
M  END
>  <MODEL>
3

>  <REMARK>
 VINA RESULT:      -8.6      1.810      3.068
  Name = 
  8 active torsions:
  status: ('A' for Active; 'I' for Inactive)
    1  A    between atoms: N_1  and  C_34
    2  A    between atoms: N_1  and  C_35
    3  A    between atoms: C_2  and  O_6
    4  A    between atoms: C_2  and  C_13
    5  A    between atoms: C_3  and  N_4
    6  A    between atoms: C_3  and  C_12
    7  A    between atoms: O_6  and  C_12
    8  A    between atoms: C_14  and  C_22
                            x       y       z     vdW  Elec       q    Type
                         _______ _______ _______ _____ _____    ______ ____

>  <TORSDO>
F 8

$$$$
=
 OpenBabel10262422113D

 43 48  0  0  1  0  0  0  0  0999 V2000
  191.4190  176.4250  147.0600 C   0  0  0  0  0  0  0  0  0  0  0  0
  189.7690  177.0730  142.3470 C   0  0  2  0  0  3  0  0  0  0  0  0
  187.1150  177.9430  142.6380 C   0  0  0  0  0  0  0  0  0  0  0  0
  191.3200  176.8080  144.7190 C   0  0  0  0  0  0  0  0  0  0  0  0
  190.1130  176.8940  147.2140 C   0  0  0  0  0  3  0  0  0  0  0  0
  192.1550  175.9860  148.1950 N   0  0  0  0  0  1  0  0  0  0  0  0
  189.9960  177.2720  144.8320 C   0  0  0  0  0  0  0  0  0  0  0  0
  191.9970  176.4010  145.8290 N   0  0  0  0  0  0  0  0  0  0  0  0
  189.4030  177.3330  146.0960 C   0  0  0  0  0  3  0  0  0  0  0  0
  187.8600  177.8620  143.7020 N   0  0  0  0  0  0  0  0  0  0  0  0
  189.3240  177.8350  143.6050 C   0  0  2  0  0  3  0  0  0  0  0  0
  191.2710  176.9770  142.2790 C   0  0  0  0  0  3  0  0  0  0  0  0
  189.1520  177.7730  141.1410 C   0  0  2  0  0  3  0  0  0  0  0  0
  187.7030  177.8530  141.3250 N   0  0  0  0  0  2  0  0  0  0  0  0
  191.9850  176.7980  143.3970 C   0  0  0  0  0  3  0  0  0  0  0  0
  185.6320  178.0360  142.7800 C   0  0  1  0  0  3  0  0  0  0  0  0
  185.2840  178.3450  144.2310 C   0  0  0  0  0  1  0  0  0  0  0  0
  185.1350  179.0320  141.9210 O   0  0  0  0  0  0  0  0  0  0  0  0
  184.1030  178.4320  141.1880 C   0  0  1  0  0  3  0  0  0  0  0  0
  182.7760  178.7490  141.8480 C   0  0  0  0  0  1  0  0  0  0  0  0
  184.0710  178.9530  139.7470 C   0  0  0  0  0  2  0  0  0  0  0  0
  182.7710  178.8130  139.0740 N   0  0  0  0  0  0  0  0  0  0  0  0
  180.6580  178.9250  137.1870 C   0  0  0  0  0  2  0  0  0  0  0  0
  182.3640  180.1450  138.6240 C   0  0  0  0  0  2  0  0  0  0  0  0
  182.8110  177.8310  137.9570 C   0  0  2  0  0  3  0  0  0  0  0  0
  181.9460  178.2280  136.7440 C   0  0  0  0  0  2  0  0  0  0  0  0
  180.9260  180.1160  138.1120 C   0  0  0  0  0  2  0  0  0  0  0  0
  182.1360  175.4760  137.2440 C   0  0  0  0  0  2  0  0  0  0  0  0
  182.4770  176.4110  138.4290 C   0  0  2  0  0  3  0  0  0  0  0  0
  179.0140  175.7210  140.5590 Cl  0  0  0  0  0  0  0  0  0  0  0  0
  180.2880  174.4890  138.5410 C   0  0  0  0  0  3  0  0  0  0  0  0
  180.0770  175.8460  139.1420 C   0  0  2  0  0  3  0  0  0  0  0  0
  181.2760  174.3130  137.6550 C   0  0  0  0  0  3  0  0  0  0  0  0
  181.4250  176.4390  139.5650 C   0  0  0  0  0  2  0  0  0  0  0  0
  189.4530  177.0430  139.9180 N   0  0  0  0  0  2  0  0  0  0  0  0
  187.6460  176.4950  136.7890 C   0  0  0  0  0  3  0  0  0  0  0  0
  187.4540  177.9070  136.2800 C   0  0  0  0  0  0  0  0  0  0  0  0
  187.5790  177.9210  134.7680 C   0  0  0  0  0  1  0  0  0  0  0  0
  188.9780  178.6140  138.1080 C   0  0  0  0  0  3  0  0  0  0  0  0
  188.1310  176.2760  138.0240 C   0  0  0  0  0  3  0  0  0  0  0  0
  188.4710  177.4430  138.9180 C   0  0  1  0  0  3  0  0  0  0  0  0
  186.0720  178.4000  136.6590 C   0  0  0  0  0  1  0  0  0  0  0  0
  188.4930  178.8320  136.8740 C   0  0  0  0  0  3  0  0  0  0  0  0
  1  5  1  0  0  0  0
  1  6  1  0  0  0  0
  2 12  1  6  0  0  0
  2 11  1  0  0  0  0
  3 16  1  0  0  0  0
  3 10  2  0  0  0  0
  4  7  2  0  0  0  0
  4  8  1  0  0  0  0
  7  9  1  0  0  0  0
  8  1  2  0  0  0  0
  9  5  2  0  0  0  0
 11 10  1  1  0  0  0
 11  7  1  0  0  0  0
 12 15  2  0  0  0  0
 13 35  1  6  0  0  0
 13 14  1  0  0  0  0
 13  2  1  0  0  0  0
 14  3  1  0  0  0  0
 15  4  1  0  0  0  0
 16 17  1  1  0  0  0
 18 16  1  0  0  0  0
 19 20  1  1  0  0  0
 19 18  1  0  0  0  0
 21 19  1  0  0  0  0
 22 21  1  0  0  0  0
 23 27  1  0  0  0  0
 24 22  1  0  0  0  0
 25 26  1  6  0  0  0
 25 29  1  0  0  0  0
 25 22  1  0  0  0  0
 26 23  1  0  0  0  0
 27 24  1  0  0  0  0
 28 33  1  0  0  0  0
 29 28  1  6  0  0  0
 29 34  1  0  0  0  0
 31 32  1  0  0  0  0
 32 34  1  0  0  0  0
 32 30  1  1  0  0  0
 33 31  2  0  0  0  0
 36 40  2  0  0  0  0
 37 42  1  0  0  0  0
 37 36  1  0  0  0  0
 37 43  1  0  0  0  0
 38 37  1  0  0  0  0
 39 41  1  0  0  0  0
 40 41  1  0  0  0  0
 41 35  1  1  0  0  0
 43 39  2  0  0  0  0
M  END
>  <MODEL>
4

>  <REMARK>
 VINA RESULT:      -8.5      2.474      5.679
  Name = 
  8 active torsions:
  status: ('A' for Active; 'I' for Inactive)
    1  A    between atoms: N_1  and  C_34
    2  A    between atoms: N_1  and  C_35
    3  A    between atoms: C_2  and  O_6
    4  A    between atoms: C_2  and  C_13
    5  A    between atoms: C_3  and  N_4
    6  A    between atoms: C_3  and  C_12
    7  A    between atoms: O_6  and  C_12
    8  A    between atoms: C_14  and  C_22
                            x       y       z     vdW  Elec       q    Type
                         _______ _______ _______ _____ _____    ______ ____

>  <TORSDO>
F 8

$$$$
=
 OpenBabel10262422113D

 43 48  0  0  1  0  0  0  0  0999 V2000
  187.6780  177.8760  146.9550 C   0  0  0  0  0  0  0  0  0  0  0  0
  185.7250  178.8660  142.4210 C   0  0  2  0  0  3  0  0  0  0  0  0
  187.7210  178.0900  140.6040 C   0  0  0  0  0  0  0  0  0  0  0  0
  186.1630  178.2720  145.1700 C   0  0  0  0  0  0  0  0  0  0  0  0
  188.6590  177.4520  146.0570 C   0  0  0  0  0  3  0  0  0  0  0  0
  187.9490  177.8870  148.3510 N   0  0  0  0  0  1  0  0  0  0  0  0
  187.1340  177.8670  144.2330 C   0  0  0  0  0  0  0  0  0  0  0  0
  186.4560  178.2630  146.5010 N   0  0  0  0  0  0  0  0  0  0  0  0
  188.3810  177.4340  144.6900 C   0  0  0  0  0  3  0  0  0  0  0  0
  187.8740  177.7850  141.8600 N   0  0  0  0  0  0  0  0  0  0  0  0
  186.7330  177.7640  142.7830 C   0  0  2  0  0  3  0  0  0  0  0  0
  184.5860  178.8990  143.4080 C   0  0  0  0  0  3  0  0  0  0  0  0
  185.2730  178.6240  140.9850 C   0  0  2  0  0  3  0  0  0  0  0  0
  186.4490  178.5660  140.1180 N   0  0  0  0  0  2  0  0  0  0  0  0
  184.8160  178.6700  144.7070 C   0  0  0  0  0  3  0  0  0  0  0  0
  188.8920  178.0350  139.6810 C   0  0  1  0  0  3  0  0  0  0  0  0
  190.0710  177.3920  140.4030 C   0  0  0  0  0  1  0  0  0  0  0  0
  188.5540  177.3070  138.5280 O   0  0  0  0  0  0  0  0  0  0  0  0
  188.1990  178.2570  137.5610 C   0  0  1  0  0  3  0  0  0  0  0  0
  189.4320  179.0430  137.1610 C   0  0  0  0  0  1  0  0  0  0  0  0
  187.6180  177.5850  136.3110 C   0  0  0  0  0  2  0  0  0  0  0  0
  187.0830  176.2330  136.5350 N   0  0  0  0  0  0  0  0  0  0  0  0
  185.5520  173.8530  136.3770 C   0  0  0  0  0  2  0  0  0  0  0  0
  185.6440  176.3640  136.7640 C   0  0  0  0  0  2  0  0  0  0  0  0
  187.3910  175.3060  135.4130 C   0  0  2  0  0  3  0  0  0  0  0  0
  186.2600  174.3070  135.1000 C   0  0  0  0  0  2  0  0  0  0  0  0
  185.0560  175.0310  137.2210 C   0  0  0  0  0  2  0  0  0  0  0  0
  189.0570  174.3990  137.1210 C   0  0  0  0  0  2  0  0  0  0  0  0
  188.7250  174.5780  135.6200 C   0  0  2  0  0  3  0  0  0  0  0  0
  192.2580  176.4430  134.5980 Cl  0  0  0  0  0  0  0  0  0  0  0  0
  191.4110  174.9740  136.6810 C   0  0  0  0  0  3  0  0  0  0  0  0
  190.9120  175.9220  135.6320 C   0  0  2  0  0  3  0  0  0  0  0  0
  190.5300  174.2410  137.3730 C   0  0  0  0  0  3  0  0  0  0  0  0
  189.8470  175.2290  134.7740 C   0  0  0  0  0  2  0  0  0  0  0  0
  184.3870  179.6920  140.5420 N   0  0  0  0  0  2  0  0  0  0  0  0
  182.3950  176.7440  139.7070 C   0  0  0  0  0  3  0  0  0  0  0  0
  181.7490  177.1550  138.4010 C   0  0  0  0  0  0  0  0  0  0  0  0
  181.6580  175.9520  137.4820 C   0  0  0  0  0  1  0  0  0  0  0  0
  183.2500  179.1310  138.4530 C   0  0  0  0  0  3  0  0  0  0  0  0
  183.0860  177.6380  140.4360 C   0  0  0  0  0  3  0  0  0  0  0  0
  183.2050  179.0660  139.9630 C   0  0  1  0  0  3  0  0  0  0  0  0
  180.3490  177.6720  138.6680 C   0  0  0  0  0  1  0  0  0  0  0  0
  182.5600  178.2380  137.7250 C   0  0  0  0  0  3  0  0  0  0  0  0
  1  6  1  0  0  0  0
  2 11  1  0  0  0  0
  2 12  1  1  0  0  0
  3 10  2  0  0  0  0
  4  8  2  0  0  0  0
  5  1  2  0  0  0  0
  7  9  2  0  0  0  0
  7  4  1  0  0  0  0
  8  1  1  0  0  0  0
  9  5  1  0  0  0  0
 11 10  1  6  0  0  0
 11  7  1  0  0  0  0
 12 15  2  0  0  0  0
 13 35  1  6  0  0  0
 13  2  1  0  0  0  0
 14  3  1  0  0  0  0
 14 13  1  0  0  0  0
 15  4  1  0  0  0  0
 16 17  1  1  0  0  0
 16  3  1  0  0  0  0
 18 16  1  0  0  0  0
 19 20  1  6  0  0  0
 19 18  1  0  0  0  0
 21 22  1  0  0  0  0
 21 19  1  0  0  0  0
 22 24  1  0  0  0  0
 23 27  1  0  0  0  0
 24 27  1  0  0  0  0
 25 26  1  1  0  0  0
 25 29  1  0  0  0  0
 25 22  1  0  0  0  0
 26 23  1  0  0  0  0
 28 33  1  0  0  0  0
 29 34  1  6  0  0  0
 29 28  1  0  0  0  0
 31 33  2  0  0  0  0
 32 30  1  6  0  0  0
 32 31  1  0  0  0  0
 34 32  1  0  0  0  0
 36 40  2  0  0  0  0
 37 42  1  0  0  0  0
 37 36  1  0  0  0  0
 38 37  1  0  0  0  0
 39 41  1  0  0  0  0
 41 40  1  0  0  0  0
 41 35  1  1  0  0  0
 43 37  1  0  0  0  0
 43 39  2  0  0  0  0
M  END
>  <MODEL>
5

>  <REMARK>
 VINA RESULT:      -8.4      1.724      2.643
  Name = 
  8 active torsions:
  status: ('A' for Active; 'I' for Inactive)
    1  A    between atoms: N_1  and  C_34
    2  A    between atoms: N_1  and  C_35
    3  A    between atoms: C_2  and  O_6
    4  A    between atoms: C_2  and  C_13
    5  A    between atoms: C_3  and  N_4
    6  A    between atoms: C_3  and  C_12
    7  A    between atoms: O_6  and  C_12
    8  A    between atoms: C_14  and  C_22
                            x       y       z     vdW  Elec       q    Type
                         _______ _______ _______ _____ _____    ______ ____

>  <TORSDO>
F 8

$$$$
=
 OpenBabel10262422113D

 43 48  0  0  1  0  0  0  0  0999 V2000
  191.3820  176.7590  147.0820 C   0  0  0  0  0  0  0  0  0  0  0  0
  189.5860  177.0530  142.3870 C   0  0  2  0  0  3  0  0  0  0  0  0
  186.9200  177.8770  142.6980 C   0  0  0  0  0  0  0  0  0  0  0  0
  191.2090  176.9830  144.7250 C   0  0  0  0  0  0  0  0  0  0  0  0
  190.0690  177.2060  147.2430 C   0  0  0  0  0  3  0  0  0  0  0  0
  192.1600  176.4130  148.2210 N   0  0  0  0  0  1  0  0  0  0  0  0
  189.8760  177.4220  144.8460 C   0  0  0  0  0  0  0  0  0  0  0  0
  191.9260  176.6670  145.8390 N   0  0  0  0  0  0  0  0  0  0  0  0
  189.3170  177.5520  146.1190 C   0  0  0  0  0  3  0  0  0  0  0  0
  187.6960  177.8840  143.7420 N   0  0  0  0  0  0  0  0  0  0  0  0
  189.1570  177.8860  143.6040 C   0  0  2  0  0  3  0  0  0  0  0  0
  191.0880  176.9890  142.2810 C   0  0  0  0  0  3  0  0  0  0  0  0
  188.9190  177.6570  141.1560 C   0  0  2  0  0  3  0  0  0  0  0  0
  187.4740  177.7140  141.3770 N   0  0  0  0  0  2  0  0  0  0  0  0
  191.8370  176.9020  143.3880 C   0  0  0  0  0  3  0  0  0  0  0  0
  185.4390  177.9440  142.8760 C   0  0  1  0  0  3  0  0  0  0  0  0
  185.1240  178.4120  144.2920 C   0  0  0  0  0  1  0  0  0  0  0  0
  184.8860  178.8170  141.9240 O   0  0  0  0  0  0  0  0  0  0  0  0
  183.6160  178.3070  141.6220 C   0  0  1  0  0  3  0  0  0  0  0  0
  182.5910  178.9640  142.5250 C   0  0  0  0  0  1  0  0  0  0  0  0
  183.2380  178.5890  140.1640 C   0  0  0  0  0  2  0  0  0  0  0  0
  182.5790  177.4680  139.4750 N   0  0  0  0  0  0  0  0  0  0  0  0
  180.7190  175.8500  138.0750 C   0  0  0  0  0  2  0  0  0  0  0  0
  181.2780  177.2650  140.1120 C   0  0  0  0  0  2  0  0  0  0  0  0
  182.4580  177.6930  138.0090 C   0  0  2  0  0  3  0  0  0  0  0  0
  181.1490  177.1540  137.4000 C   0  0  0  0  0  2  0  0  0  0  0  0
  180.6300  175.9820  139.5980 C   0  0  0  0  0  2  0  0  0  0  0  0
  183.4120  177.0810  135.7230 C   0  0  0  0  0  2  0  0  0  0  0  0
  183.6780  177.1650  137.2450 C   0  0  2  0  0  3  0  0  0  0  0  0
  184.8480  173.2380  137.7140 Cl  0  0  0  0  0  0  0  0  0  0  0  0
  184.5680  174.9070  135.6280 C   0  0  0  0  0  3  0  0  0  0  0  0
  184.0160  174.6320  136.9950 C   0  0  2  0  0  3  0  0  0  0  0  0
  184.2940  176.0760  135.0350 C   0  0  0  0  0  3  0  0  0  0  0  0
  184.2120  175.8610  137.8890 C   0  0  0  0  0  2  0  0  0  0  0  0
  189.2050  176.8540  139.9750 N   0  0  0  0  0  2  0  0  0  0  0  0
  187.5350  176.6200  136.7330 C   0  0  0  0  0  3  0  0  0  0  0  0
  187.8690  177.9550  136.1040 C   0  0  0  0  0  0  0  0  0  0  0  0
  188.0930  177.7700  134.6150 C   0  0  0  0  0  1  0  0  0  0  0  0
  189.4160  178.2990  138.0150 C   0  0  0  0  0  3  0  0  0  0  0  0
  187.8320  176.3800  138.0220 C   0  0  0  0  0  3  0  0  0  0  0  0
  188.4870  177.4530  138.8570 C   0  0  1  0  0  3  0  0  0  0  0  0
  186.7140  178.9150  136.3080 C   0  0  0  0  0  1  0  0  0  0  0  0
  189.1180  178.5380  136.7270 C   0  0  0  0  0  3  0  0  0  0  0  0
  1  5  1  0  0  0  0
  1  6  1  0  0  0  0
  2 12  1  6  0  0  0
  2 11  1  0  0  0  0
  3 16  1  0  0  0  0
  3 10  2  0  0  0  0
  4  7  2  0  0  0  0
  4  8  1  0  0  0  0
  7  9  1  0  0  0  0
  8  1  2  0  0  0  0
  9  5  2  0  0  0  0
 11 10  1  1  0  0  0
 11  7  1  0  0  0  0
 12 15  2  0  0  0  0
 13 35  1  6  0  0  0
 13 14  1  0  0  0  0
 13  2  1  0  0  0  0
 14  3  1  0  0  0  0
 15  4  1  0  0  0  0
 16 17  1  1  0  0  0
 18 16  1  0  0  0  0
 19 18  1  0  0  0  0
 19 20  1  1  0  0  0
 21 19  1  0  0  0  0
 22 24  1  0  0  0  0
 22 21  1  0  0  0  0
 23 27  1  0  0  0  0
 25 26  1  6  0  0  0
 25 22  1  0  0  0  0
 26 23  1  0  0  0  0
 27 24  1  0  0  0  0
 29 28  1  6  0  0  0
 29 34  1  0  0  0  0
 29 25  1  0  0  0  0
 31 32  1  0  0  0  0
 32 30  1  1  0  0  0
 32 34  1  0  0  0  0
 33 31  2  0  0  0  0
 33 28  1  0  0  0  0
 36 40  2  0  0  0  0
 37 42  1  0  0  0  0
 37 43  1  0  0  0  0
 37 36  1  0  0  0  0
 38 37  1  0  0  0  0
 39 41  1  0  0  0  0
 40 41  1  0  0  0  0
 41 35  1  1  0  0  0
 43 39  2  0  0  0  0
M  END
>  <MODEL>
6

>  <REMARK>
 VINA RESULT:      -8.3      2.150      5.413
  Name = 
  8 active torsions:
  status: ('A' for Active; 'I' for Inactive)
    1  A    between atoms: N_1  and  C_34
    2  A    between atoms: N_1  and  C_35
    3  A    between atoms: C_2  and  O_6
    4  A    between atoms: C_2  and  C_13
    5  A    between atoms: C_3  and  N_4
    6  A    between atoms: C_3  and  C_12
    7  A    between atoms: O_6  and  C_12
    8  A    between atoms: C_14  and  C_22
                            x       y       z     vdW  Elec       q    Type
                         _______ _______ _______ _____ _____    ______ ____

>  <TORSDO>
F 8

$$$$
=
 OpenBabel10262422113D

 43 48  0  0  1  0  0  0  0  0999 V2000
  189.4140  177.0000  136.0190 C   0  0  0  0  0  0  0  0  0  0  0  0
  184.9570  177.8010  138.2190 C   0  0  2  0  0  3  0  0  0  0  0  0
  185.5920  178.6880  140.8070 C   0  0  0  0  0  0  0  0  0  0  0  0
  187.1140  177.4520  136.3950 C   0  0  0  0  0  0  0  0  0  0  0  0
  189.7390  177.4770  137.2900 C   0  0  0  0  0  3  0  0  0  0  0  0
  190.4390  176.5210  135.1570 N   0  0  0  0  0  1  0  0  0  0  0  0
  187.4010  177.9250  137.6900 C   0  0  0  0  0  0  0  0  0  0  0  0
  188.1220  177.0070  135.5940 N   0  0  0  0  0  0  0  0  0  0  0  0
  188.7280  177.9550  138.1250 C   0  0  0  0  0  3  0  0  0  0  0  0
  186.5550  178.5680  139.9390 N   0  0  0  0  0  0  0  0  0  0  0  0
  186.2800  178.5300  138.4980 C   0  0  2  0  0  3  0  0  0  0  0  0
  184.7040  177.6940  136.7370 C   0  0  0  0  0  3  0  0  0  0  0  0
  183.8550  178.5430  138.9680 C   0  0  2  0  0  3  0  0  0  0  0  0
  184.2160  178.6310  140.3820 N   0  0  0  0  0  2  0  0  0  0  0  0
  185.7220  177.4750  135.8960 C   0  0  0  0  0  3  0  0  0  0  0  0
  185.9150  178.7910  142.2600 C   0  0  1  0  0  3  0  0  0  0  0  0
  184.8400  179.6180  142.9560 C   0  0  0  0  0  1  0  0  0  0  0  0
  185.9990  177.5050  142.8200 O   0  0  0  0  0  0  0  0  0  0  0  0
  187.0040  177.5710  143.7940 C   0  0  1  0  0  3  0  0  0  0  0  0
  186.3650  177.5570  145.1680 C   0  0  0  0  0  1  0  0  0  0  0  0
  187.9610  176.3790  143.6850 C   0  0  0  0  0  2  0  0  0  0  0  0
  189.2850  176.7040  143.1310 N   0  0  0  0  0  0  0  0  0  0  0  0
  191.4010  177.8660  141.6450 C   0  0  0  0  0  2  0  0  0  0  0  0
  189.1810  176.6280  141.6740 C   0  0  0  0  0  2  0  0  0  0  0  0
  189.7830  178.0290  143.5900 C   0  0  2  0  0  3  0  0  0  0  0  0
  190.5660  178.8080  142.5140 C   0  0  0  0  0  2  0  0  0  0  0  0
  190.5640  176.7360  141.0370 C   0  0  0  0  0  2  0  0  0  0  0  0
  191.3680  176.5840  144.9720 C   0  0  0  0  0  2  0  0  0  0  0  0
  190.5920  177.9200  144.8870 C   0  0  2  0  0  3  0  0  0  0  0  0
  188.6350  177.5320  148.4970 Cl  0  0  0  0  0  0  0  0  0  0  0  0
  190.7720  176.3740  147.3530 C   0  0  0  0  0  3  0  0  0  0  0  0
  189.4640  177.0220  147.0110 C   0  0  2  0  0  3  0  0  0  0  0  0
  191.6800  176.1840  146.3870 C   0  0  0  0  0  3  0  0  0  0  0  0
  189.7090  178.2440  146.1180 C   0  0  0  0  0  2  0  0  0  0  0  0
  182.5840  177.8460  138.8260 N   0  0  0  0  0  2  0  0  0  0  0  0
  180.7380  179.7590  136.3190 C   0  0  0  0  0  3  0  0  0  0  0  0
  180.5230  181.0820  137.0210 C   0  0  0  0  0  0  0  0  0  0  0  0
  180.6270  182.2120  136.0150 C   0  0  0  0  0  1  0  0  0  0  0  0
  182.0660  180.2330  138.7720 C   0  0  0  0  0  3  0  0  0  0  0  0
  181.2440  178.7070  136.9870 C   0  0  0  0  0  3  0  0  0  0  0  0
  181.5830  178.8360  138.4510 C   0  0  1  0  0  3  0  0  0  0  0  0
  179.1410  181.1080  137.6430 C   0  0  0  0  0  1  0  0  0  0  0  0
  181.5600  181.2830  138.1040 C   0  0  0  0  0  3  0  0  0  0  0  0
  1  5  1  0  0  0  0
  2 12  1  6  0  0  0
  2 11  1  0  0  0  0
  2 13  1  0  0  0  0
  3 16  1  0  0  0  0
  4  7  2  0  0  0  0
  5  9  2  0  0  0  0
  6  1  1  0  0  0  0
  7  9  1  0  0  0  0
  8  1  2  0  0  0  0
  8  4  1  0  0  0  0
 10  3  2  0  0  0  0
 11  7  1  6  0  0  0
 11 10  1  0  0  0  0
 13 35  1  1  0  0  0
 13 14  1  0  0  0  0
 14  3  1  0  0  0  0
 15  4  1  0  0  0  0
 15 12  2  0  0  0  0
 16 18  1  0  0  0  0
 16 17  1  1  0  0  0
 18 19  1  0  0  0  0
 19 20  1  1  0  0  0
 21 19  1  0  0  0  0
 22 25  1  0  0  0  0
 22 21  1  0  0  0  0
 23 26  1  0  0  0  0
 24 22  1  0  0  0  0
 25 26  1  6  0  0  0
 25 29  1  0  0  0  0
 27 23  1  0  0  0  0
 27 24  1  0  0  0  0
 28 33  1  0  0  0  0
 29 28  1  1  0  0  0
 29 34  1  0  0  0  0
 32 31  1  0  0  0  0
 32 30  1  1  0  0  0
 33 31  2  0  0  0  0
 34 32  1  0  0  0  0
 36 40  2  0  0  0  0
 36 37  1  0  0  0  0
 37 42  1  0  0  0  0
 37 43  1  0  0  0  0
 38 37  1  0  0  0  0
 40 41  1  0  0  0  0
 41 39  1  0  0  0  0
 41 35  1  6  0  0  0
 43 39  2  0  0  0  0
M  END
>  <MODEL>
7

>  <REMARK>
 VINA RESULT:      -8.3      2.962      7.752
  Name = 
  8 active torsions:
  status: ('A' for Active; 'I' for Inactive)
    1  A    between atoms: N_1  and  C_34
    2  A    between atoms: N_1  and  C_35
    3  A    between atoms: C_2  and  O_6
    4  A    between atoms: C_2  and  C_13
    5  A    between atoms: C_3  and  N_4
    6  A    between atoms: C_3  and  C_12
    7  A    between atoms: O_6  and  C_12
    8  A    between atoms: C_14  and  C_22
                            x       y       z     vdW  Elec       q    Type
                         _______ _______ _______ _____ _____    ______ ____

>  <TORSDO>
F 8

$$$$
=
 OpenBabel10262422113D

 43 48  0  0  1  0  0  0  0  0999 V2000
  191.2940  176.7480  146.9990 C   0  0  0  0  0  0  0  0  0  0  0  0
  187.4460  177.9870  143.9990 C   0  0  2  0  0  3  0  0  0  0  0  0
  188.3730  177.4620  141.4010 C   0  0  0  0  0  0  0  0  0  0  0  0
  189.1190  177.2040  146.1640 C   0  0  0  0  0  0  0  0  0  0  0  0
  191.7490  176.4480  145.7140 C   0  0  0  0  0  3  0  0  0  0  0  0
  192.1840  176.6650  148.1050 N   0  0  0  0  0  1  0  0  0  0  0  0
  189.5460  176.9240  144.8510 C   0  0  0  0  0  0  0  0  0  0  0  0
  189.9980  177.1060  147.2000 N   0  0  0  0  0  0  0  0  0  0  0  0
  190.8660  176.5230  144.6360 C   0  0  0  0  0  3  0  0  0  0  0  0
  189.0970  177.0680  142.4080 N   0  0  0  0  0  0  0  0  0  0  0  0
  188.5170  176.9150  143.7480 C   0  0  2  0  0  3  0  0  0  0  0  0
  186.8970  177.8840  145.3990 C   0  0  0  0  0  3  0  0  0  0  0  0
  186.3790  177.8360  142.9200 C   0  0  2  0  0  3  0  0  0  0  0  0
  187.0170  177.9070  141.6060 N   0  0  0  0  0  2  0  0  0  0  0  0
  187.7080  177.5670  146.4160 C   0  0  0  0  0  3  0  0  0  0  0  0
  188.9800  177.5400  140.0400 C   0  0  1  0  0  3  0  0  0  0  0  0
  187.9960  178.2110  139.0890 C   0  0  0  0  0  1  0  0  0  0  0  0
  190.1880  178.2560  140.1000 O   0  0  0  0  0  0  0  0  0  0  0  0
  191.1450  177.4560  139.4630 C   0  0  1  0  0  3  0  0  0  0  0  0
  192.4320  177.4900  140.2640 C   0  0  0  0  0  1  0  0  0  0  0  0
  190.6710  176.0030  139.3570 C   0  0  0  0  0  2  0  0  0  0  0  0
  190.8710  175.3880  138.0350 N   0  0  0  0  0  0  0  0  0  0  0  0
  190.7610  174.7990  135.2650 C   0  0  0  0  0  2  0  0  0  0  0  0
  189.5480  175.1090  137.4770 C   0  0  0  0  0  2  0  0  0  0  0  0
  191.6940  176.2370  137.1320 C   0  0  2  0  0  3  0  0  0  0  0  0
  191.2470  176.1950  135.6570 C   0  0  0  0  0  2  0  0  0  0  0  0
  189.6740  174.2730  136.2060 C   0  0  0  0  0  2  0  0  0  0  0  0
  193.9860  176.4110  136.0250 C   0  0  0  0  0  2  0  0  0  0  0  0
  193.1910  175.9300  137.2620 C   0  0  2  0  0  3  0  0  0  0  0  0
  194.4990  172.0210  137.1460 Cl  0  0  0  0  0  0  0  0  0  0  0  0
  195.3160  174.3380  136.0600 C   0  0  0  0  0  3  0  0  0  0  0  0
  194.0800  173.6350  136.5350 C   0  0  2  0  0  3  0  0  0  0  0  0
  195.2730  175.6570  135.8360 C   0  0  0  0  0  3  0  0  0  0  0  0
  193.4200  174.4490  137.6530 C   0  0  0  0  0  2  0  0  0  0  0  0
  185.3790  178.8880  143.0390 N   0  0  0  0  0  2  0  0  0  0  0  0
  183.0610  179.1420  140.2250 C   0  0  0  0  0  3  0  0  0  0  0  0
  181.7430  178.7610  140.8610 C   0  0  0  0  0  0  0  0  0  0  0  0
  180.6290  179.5940  140.2560 C   0  0  0  0  0  1  0  0  0  0  0  0
  182.9350  178.8600  143.0360 C   0  0  0  0  0  3  0  0  0  0  0  0
  184.2130  179.0040  140.9060 C   0  0  0  0  0  3  0  0  0  0  0  0
  184.1960  178.4490  142.3090 C   0  0  1  0  0  3  0  0  0  0  0  0
  181.4560  177.2970  140.5950 C   0  0  0  0  0  1  0  0  0  0  0  0
  181.7860  178.9970  142.3550 C   0  0  0  0  0  3  0  0  0  0  0  0
  1  8  1  0  0  0  0
  1  6  1  0  0  0  0
  2 12  1  1  0  0  0
  3 14  1  0  0  0  0
  3 10  2  0  0  0  0
  4 15  1  0  0  0  0
  4  8  2  0  0  0  0
  5  1  2  0  0  0  0
  7  4  1  0  0  0  0
  9  7  2  0  0  0  0
  9  5  1  0  0  0  0
 11 10  1  6  0  0  0
 11  2  1  0  0  0  0
 11  7  1  0  0  0  0
 12 15  2  0  0  0  0
 13 35  1  6  0  0  0
 13  2  1  0  0  0  0
 14 13  1  0  0  0  0
 16 17  1  6  0  0  0
 16 18  1  0  0  0  0
 16  3  1  0  0  0  0
 19 18  1  0  0  0  0
 19 20  1  1  0  0  0
 21 19  1  0  0  0  0
 22 21  1  0  0  0  0
 23 26  1  0  0  0  0
 23 27  1  0  0  0  0
 24 22  1  0  0  0  0
 25 26  1  6  0  0  0
 25 29  1  0  0  0  0
 25 22  1  0  0  0  0
 27 24  1  0  0  0  0
 29 28  1  6  0  0  0
 29 34  1  0  0  0  0
 31 32  1  0  0  0  0
 32 30  1  1  0  0  0
 32 34  1  0  0  0  0
 33 28  1  0  0  0  0
 33 31  2  0  0  0  0
 36 37  1  0  0  0  0
 36 40  2  0  0  0  0
 37 43  1  0  0  0  0
 38 37  1  0  0  0  0
 40 41  1  0  0  0  0
 41 39  1  0  0  0  0
 41 35  1  1  0  0  0
 42 37  1  0  0  0  0
 43 39  2  0  0  0  0
M  END
>  <MODEL>
8

>  <REMARK>
 VINA RESULT:      -8.2      2.637      4.079
  Name = 
  8 active torsions:
  status: ('A' for Active; 'I' for Inactive)
    1  A    between atoms: N_1  and  C_34
    2  A    between atoms: N_1  and  C_35
    3  A    between atoms: C_2  and  O_6
    4  A    between atoms: C_2  and  C_13
    5  A    between atoms: C_3  and  N_4
    6  A    between atoms: C_3  and  C_12
    7  A    between atoms: O_6  and  C_12
    8  A    between atoms: C_14  and  C_22
                            x       y       z     vdW  Elec       q    Type
                         _______ _______ _______ _____ _____    ______ ____

>  <TORSDO>
F 8

$$$$
=
 OpenBabel10262422113D

 43 48  0  0  1  0  0  0  0  0999 V2000
  189.2640  177.4860  146.4660 C   0  0  0  0  0  0  0  0  0  0  0  0
  186.5780  178.5430  142.3410 C   0  0  2  0  0  3  0  0  0  0  0  0
  188.2700  177.8710  140.2020 C   0  0  0  0  0  0  0  0  0  0  0  0
  187.4710  177.8880  144.9630 C   0  0  0  0  0  0  0  0  0  0  0  0
  190.0960  177.1130  145.4090 C   0  0  0  0  0  3  0  0  0  0  0  0
  189.7570  177.4680  147.8000 N   0  0  0  0  0  1  0  0  0  0  0  0
  188.2850  177.5350  143.8700 C   0  0  0  0  0  0  0  0  0  0  0  0
  187.9760  177.8520  146.2280 N   0  0  0  0  0  0  0  0  0  0  0  0
  189.5990  177.1250  144.1060 C   0  0  0  0  0  3  0  0  0  0  0  0
  188.6320  177.5370  141.4060 N   0  0  0  0  0  0  0  0  0  0  0  0
  187.6570  177.4600  142.5010 C   0  0  2  0  0  3  0  0  0  0  0  0
  185.6150  178.5190  143.4990 C   0  0  0  0  0  3  0  0  0  0  0  0
  185.9050  178.3270  140.9900 C   0  0  2  0  0  3  0  0  0  0  0  0
  186.9260  178.3250  139.9430 N   0  0  0  0  0  2  0  0  0  0  0  0
  186.0580  178.2620  144.7360 C   0  0  0  0  0  3  0  0  0  0  0  0
  189.2770  177.8720  139.1010 C   0  0  1  0  0  3  0  0  0  0  0  0
  189.0760  179.1130  138.2390 C   0  0  0  0  0  1  0  0  0  0  0  0
  190.5730  177.8410  139.6420 O   0  0  0  0  0  0  0  0  0  0  0  0
  191.3650  177.1540  138.7130 C   0  0  1  0  0  3  0  0  0  0  0  0
  192.7770  177.0420  139.2530 C   0  0  0  0  0  1  0  0  0  0  0  0
  190.8230  175.7430  138.4580 C   0  0  0  0  0  2  0  0  0  0  0  0
  191.2440  175.1480  137.1800 N   0  0  0  0  0  0  0  0  0  0  0  0
  192.1010  173.3380  135.1740 C   0  0  0  0  0  2  0  0  0  0  0  0
  192.5200  174.4710  137.4110 C   0  0  0  0  0  2  0  0  0  0  0  0
  190.2170  174.2320  136.6140 C   0  0  2  0  0  3  0  0  0  0  0  0
  190.8040  172.9940  135.9090 C   0  0  0  0  0  2  0  0  0  0  0  0
  193.1270  174.0180  136.0850 C   0  0  0  0  0  2  0  0  0  0  0  0
  189.7390  176.3830  135.3270 C   0  0  0  0  0  2  0  0  0  0  0  0
  189.2320  174.9690  135.6990 C   0  0  2  0  0  3  0  0  0  0  0  0
  185.5750  176.1780  137.1730 Cl  0  0  0  0  0  0  0  0  0  0  0  0
  187.4680  177.2900  135.6270 C   0  0  0  0  0  3  0  0  0  0  0  0
  187.2910  176.2940  136.7330 C   0  0  2  0  0  3  0  0  0  0  0  0
  188.6240  177.3180  134.9500 C   0  0  0  0  0  3  0  0  0  0  0  0
  187.7960  174.9200  136.2780 C   0  0  0  0  0  2  0  0  0  0  0  0
  184.9350  179.3820  140.7290 N   0  0  0  0  0  2  0  0  0  0  0  0
  182.0950  179.8290  138.4730 C   0  0  0  0  0  3  0  0  0  0  0  0
  181.4710  178.4500  138.4670 C   0  0  0  0  0  0  0  0  0  0  0  0
  179.9610  178.5780  138.4010 C   0  0  0  0  0  1  0  0  0  0  0  0
  183.0400  177.8970  140.3100 C   0  0  0  0  0  3  0  0  0  0  0  0
  183.2840  180.0370  139.0650 C   0  0  0  0  0  3  0  0  0  0  0  0
  184.0150  178.8870  139.7130 C   0  0  1  0  0  3  0  0  0  0  0  0
  181.9500  177.6820  137.2510 C   0  0  0  0  0  1  0  0  0  0  0  0
  181.8520  177.6900  139.7180 C   0  0  0  0  0  3  0  0  0  0  0  0
  1  6  1  0  0  0  0
  2 11  1  0  0  0  0
  2 12  1  1  0  0  0
  3 10  2  0  0  0  0
  4  8  2  0  0  0  0
  5  1  2  0  0  0  0
  7  9  2  0  0  0  0
  7  4  1  0  0  0  0
  8  1  1  0  0  0  0
  9  5  1  0  0  0  0
 11 10  1  6  0  0  0
 11  7  1  0  0  0  0
 12 15  2  0  0  0  0
 13 35  1  6  0  0  0
 13  2  1  0  0  0  0
 14  3  1  0  0  0  0
 14 13  1  0  0  0  0
 15  4  1  0  0  0  0
 16 17  1  1  0  0  0
 16 18  1  0  0  0  0
 16  3  1  0  0  0  0
 19 20  1  1  0  0  0
 19 18  1  0  0  0  0
 21 19  1  0  0  0  0
 22 24  1  0  0  0  0
 22 21  1  0  0  0  0
 23 26  1  0  0  0  0
 23 27  1  0  0  0  0
 25 26  1  6  0  0  0
 25 22  1  0  0  0  0
 27 24  1  0  0  0  0
 29 28  1  1  0  0  0
 29 34  1  0  0  0  0
 29 25  1  0  0  0  0
 31 32  1  0  0  0  0
 32 30  1  6  0  0  0
 33 28  1  0  0  0  0
 33 31  2  0  0  0  0
 34 32  1  0  0  0  0
 36 40  2  0  0  0  0
 37 36  1  0  0  0  0
 37 43  1  0  0  0  0
 38 37  1  0  0  0  0
 40 41  1  0  0  0  0
 41 39  1  0  0  0  0
 41 35  1  1  0  0  0
 42 37  1  0  0  0  0
 43 39  2  0  0  0  0
M  END
>  <MODEL>
9

>  <REMARK>
 VINA RESULT:      -8.1      1.556      2.822
  Name = 
  8 active torsions:
  status: ('A' for Active; 'I' for Inactive)
    1  A    between atoms: N_1  and  C_34
    2  A    between atoms: N_1  and  C_35
    3  A    between atoms: C_2  and  O_6
    4  A    between atoms: C_2  and  C_13
    5  A    between atoms: C_3  and  N_4
    6  A    between atoms: C_3  and  C_12
    7  A    between atoms: O_6  and  C_12
    8  A    between atoms: C_14  and  C_22
                            x       y       z     vdW  Elec       q    Type
                         _______ _______ _______ _____ _____    ______ ____

>  <TORSDO>
F 8

$$$$
