=
 OpenBabel10262420113D

 27 30  0  0  1  0  0  0  0  0999 V2000
  186.2660  178.9300  144.6190 C   0  0  0  0  0  2  0  0  0  0  0  0
  186.9940  177.6330  142.5750 N   0  0  0  0  0  0  0  0  0  0  0  0
  189.0570  177.9990  144.1080 C   0  0  0  0  0  2  0  0  0  0  0  0
  188.8080  175.9060  142.5120 C   0  0  1  0  0  3  0  0  0  0  0  0
  189.3870  178.1340  147.8610 C   0  0  0  0  0  2  0  0  0  0  0  0
  190.2780  175.7100  142.8450 C   0  0  0  0  0  1  0  0  0  0  0  0
  188.2200  177.8280  148.8050 C   0  0  0  0  0  2  0  0  0  0  0  0
  187.9760  175.6460  143.7610 C   0  0  0  0  0  2  0  0  0  0  0  0
  185.9120  177.9040  143.5400 C   0  0  2  0  0  3  0  0  0  0  0  0
  187.0280  178.2230  145.7260 C   0  0  2  0  0  3  0  0  0  0  0  0
  188.1640  177.0670  143.2640 C   0  0  2  0  0  0  0  0  0  0  0  0
  189.2900  177.4100  146.5250 C   0  0  0  0  0  2  0  0  0  0  0  0
  186.8360  177.7450  148.1530 C   0  0  0  0  0  2  0  0  0  0  0  0
  186.6120  178.7960  147.0740 C   0  0  0  0  0  2  0  0  0  0  0  0
  188.5520  178.2940  145.5280 C   0  0  1  0  0  3  0  0  0  0  0  0
  182.3180  178.9880  143.0250 C   0  0  0  0  0  3  0  0  0  0  0  0
  184.5980  178.1730  142.8690 C   0  0  0  0  0  0  0  0  0  0  0  0
  184.3720  177.8240  141.5290 C   0  0  0  0  0  3  0  0  0  0  0  0
  183.1270  178.0610  140.9400 C   0  0  0  0  0  3  0  0  0  0  0  0
  182.1010  178.6440  141.6880 C   0  0  0  0  0  3  0  0  0  0  0  0
  183.5630  178.7500  143.6150 C   0  0  0  0  0  3  0  0  0  0  0  0
  187.4620  179.1230  141.7070 S   0  0  0  0  0  0  0  0  0  0  0  0
  189.1220  178.7160  139.5230 C   0  0  0  0  0  1  0  0  0  0  0  0
  187.7830  178.2990  140.1080 C   0  0  2  0  0  3  0  0  0  0  0  0
  186.6500  178.5500  139.1250 C   0  0  0  0  0  2  0  0  0  0  0  0
  185.6080  177.1730  137.3260 C   0  0  0  0  0  1  0  0  0  0  0  0
  186.8870  177.8320  137.8070 C   0  0  0  0  0  2  0  0  0  0  0  0
  2 11  1  0  0  0  0
  2  9  1  0  0  0  0
  4  6  1  1  0  0  0
  4 11  1  0  0  0  0
  4  8  1  0  0  0  0
  5  7  1  0  0  0  0
  9 17  1  6  0  0  0
  9  1  1  0  0  0  0
 10  1  1  6  0  0  0
 10 14  1  0  0  0  0
 11  8  1  1  0  0  0
 11  3  1  0  0  0  0
 12  5  1  0  0  0  0
 13  7  1  0  0  0  0
 14 13  1  0  0  0  0
 15  3  1  6  0  0  0
 15 10  1  0  0  0  0
 15 12  1  0  0  0  0
 16 21  1  0  0  0  0
 17 21  2  0  0  0  0
 18 17  1  0  0  0  0
 19 18  2  0  0  0  0
 19 20  1  0  0  0  0
 20 16  2  0  0  0  0
 22  2  1  0  0  0  0
 24 23  1  6  0  0  0
 24 22  1  0  0  0  0
 25 24  1  0  0  0  0
 26 27  1  0  0  0  0
 27 25  1  0  0  0  0
M  END
>  <MODEL>
1

>  <REMARK>
 VINA RESULT:      -6.3      0.000      0.000
  Name = 
  5 active torsions:
  status: ('A' for Active; 'I' for Inactive)
    1  A    between atoms: N_2  and  S_6
    2  A    between atoms: S_6  and  C_21
    3  A    between atoms: C_9  and  C_15
    4  A    between atoms: C_16  and  C_17
    5  A    between atoms: C_17  and  C_21
                            x       y       z     vdW  Elec       q    Type
                         _______ _______ _______ _____ _____    ______ ____

>  <TORSDO>
F 5

$$$$
=
 OpenBabel10262420113D

 27 30  0  0  1  0  0  0  0  0999 V2000
  187.7940  177.0790  141.9540 C   0  0  0  0  0  2  0  0  0  0  0  0
  188.6430  178.1060  144.1020 N   0  0  0  0  0  0  0  0  0  0  0  0
  190.6490  177.0620  142.8270 C   0  0  0  0  0  2  0  0  0  0  0  0
  190.8970  179.1500  144.4280 C   0  0  1  0  0  3  0  0  0  0  0  0
  191.3810  176.7600  139.1410 C   0  0  0  0  0  2  0  0  0  0  0  0
  192.3800  178.8520  144.2840 C   0  0  0  0  0  1  0  0  0  0  0  0
  190.5040  177.4120  138.0680 C   0  0  0  0  0  2  0  0  0  0  0  0
  190.3570  179.6440  143.0930 C   0  0  0  0  0  2  0  0  0  0  0  0
  187.6610  178.1840  143.0040 C   0  0  2  0  0  3  0  0  0  0  0  0
  188.8750  177.4810  140.9660 C   0  0  2  0  0  3  0  0  0  0  0  0
  190.0100  178.2480  143.5760 C   0  0  2  0  0  0  0  0  0  0  0  0
  191.3590  177.4990  140.4710 C   0  0  0  0  0  2  0  0  0  0  0  0
  189.1520  177.9510  138.5460 C   0  0  0  0  0  2  0  0  0  0  0  0
  188.4670  177.0500  139.5640 C   0  0  0  0  0  2  0  0  0  0  0  0
  190.2570  176.9210  141.3490 C   0  0  1  0  0  3  0  0  0  0  0  0
  183.8890  178.5390  143.0090 C   0  0  0  0  0  3  0  0  0  0  0  0
  186.2580  178.3700  143.5020 C   0  0  0  0  0  0  0  0  0  0  0  0
  185.9840  178.6070  144.8570 C   0  0  0  0  0  3  0  0  0  0  0  0
  184.6680  178.8040  145.2860 C   0  0  0  0  0  3  0  0  0  0  0  0
  183.6210  178.7700  144.3620 C   0  0  0  0  0  3  0  0  0  0  0  0
  185.2040  178.3430  142.5800 C   0  0  0  0  0  3  0  0  0  0  0  0
  188.4900  176.5600  144.9850 S   0  0  0  0  0  0  0  0  0  0  0  0
  190.6220  176.6270  146.7590 C   0  0  0  0  0  1  0  0  0  0  0  0
  189.2220  177.1770  146.5420 C   0  0  2  0  0  3  0  0  0  0  0  0
  188.3200  176.8740  147.7290 C   0  0  0  0  0  2  0  0  0  0  0  0
  187.1040  179.0160  148.1150 C   0  0  0  0  0  1  0  0  0  0  0  0
  188.1760  178.0810  148.6410 C   0  0  0  0  0  2  0  0  0  0  0  0
  1  9  1  0  0  0  0
  2 22  1  0  0  0  0
  4  6  1  6  0  0  0
  5 12  1  0  0  0  0
  7 13  1  0  0  0  0
  7  5  1  0  0  0  0
  8 11  1  0  0  0  0
  8  4  1  0  0  0  0
  9 17  1  1  0  0  0
  9  2  1  0  0  0  0
 10 14  1  6  0  0  0
 10 15  1  0  0  0  0
 10  1  1  0  0  0  0
 11  3  1  6  0  0  0
 11  2  1  0  0  0  0
 11  4  1  0  0  0  0
 13 14  1  0  0  0  0
 15 12  1  6  0  0  0
 15  3  1  0  0  0  0
 16 20  1  0  0  0  0
 17 18  2  0  0  0  0
 18 19  1  0  0  0  0
 20 19  2  0  0  0  0
 21 16  2  0  0  0  0
 21 17  1  0  0  0  0
 22 24  1  0  0  0  0
 24 23  1  1  0  0  0
 24 25  1  0  0  0  0
 25 27  1  0  0  0  0
 26 27  1  0  0  0  0
M  END
>  <MODEL>
2

>  <REMARK>
 VINA RESULT:      -6.2      1.885      6.205
  Name = 
  5 active torsions:
  status: ('A' for Active; 'I' for Inactive)
    1  A    between atoms: N_2  and  S_6
    2  A    between atoms: S_6  and  C_21
    3  A    between atoms: C_9  and  C_15
    4  A    between atoms: C_16  and  C_17
    5  A    between atoms: C_17  and  C_21
                            x       y       z     vdW  Elec       q    Type
                         _______ _______ _______ _____ _____    ______ ____

>  <TORSDO>
F 5

$$$$
=
 OpenBabel10262420113D

 27 30  0  0  1  0  0  0  0  0999 V2000
  184.5590  178.6850  139.7200 C   0  0  0  0  0  2  0  0  0  0  0  0
  182.3020  177.9140  140.5590 N   0  0  0  0  0  0  0  0  0  0  0  0
  182.2600  177.9480  137.9630 C   0  0  0  0  0  2  0  0  0  0  0  0
  180.7950  176.2820  139.4010 C   0  0  1  0  0  3  0  0  0  0  0  0
  184.9340  177.2080  135.4110 C   0  0  0  0  0  2  0  0  0  0  0  0
  180.0990  176.0400  138.0710 C   0  0  0  0  0  1  0  0  0  0  0  0
  186.3160  176.6700  135.7940 C   0  0  0  0  0  2  0  0  0  0  0  0
  182.2090  175.7230  139.3300 C   0  0  0  0  0  2  0  0  0  0  0  0
  183.7590  177.9330  140.7860 C   0  0  2  0  0  3  0  0  0  0  0  0
  184.7910  177.7520  138.5440 C   0  0  2  0  0  3  0  0  0  0  0  0
  181.9910  177.2240  139.2970 C   0  0  2  0  0  0  0  0  0  0  0  0
  183.8380  176.8160  136.3920 C   0  0  0  0  0  2  0  0  0  0  0  0
  186.6620  176.7170  137.2860 C   0  0  0  0  0  2  0  0  0  0  0  0
  186.1850  177.9870  137.9770 C   0  0  0  0  0  2  0  0  0  0  0  0
  183.7090  177.8950  137.4590 C   0  0  1  0  0  3  0  0  0  0  0  0
  185.8130  178.5790  143.9040 C   0  0  0  0  0  3  0  0  0  0  0  0
  184.1170  178.3280  142.1890 C   0  0  0  0  0  0  0  0  0  0  0  0
  183.1390  178.7390  143.1070 C   0  0  0  0  0  3  0  0  0  0  0  0
  183.4990  179.0740  144.4160 C   0  0  0  0  0  3  0  0  0  0  0  0
  184.8360  178.9940  144.8140 C   0  0  0  0  0  3  0  0  0  0  0  0
  185.4540  178.2440  142.5960 C   0  0  0  0  0  3  0  0  0  0  0  0
  181.6410  179.5740  140.5210 S   0  0  0  0  0  0  0  0  0  0  0  0
  178.9350  178.9700  140.5840 C   0  0  0  0  0  1  0  0  0  0  0  0
  180.1390  179.1840  141.4860 C   0  0  2  0  0  3  0  0  0  0  0  0
  179.8640  180.2570  142.5280 C   0  0  0  0  0  2  0  0  0  0  0  0
  179.6700  178.4450  144.2310 C   0  0  0  0  0  1  0  0  0  0  0  0
  179.0400  179.7110  143.6840 C   0  0  0  0  0  2  0  0  0  0  0  0
  1  9  1  0  0  0  0
  2  9  1  0  0  0  0
  4  6  1  6  0  0  0
  5  7  1  0  0  0  0
  5 12  1  0  0  0  0
  7 13  1  0  0  0  0
  8  4  1  0  0  0  0
  9 17  1  1  0  0  0
 10 14  1  6  0  0  0
 10  1  1  0  0  0  0
 11  3  1  6  0  0  0
 11  8  1  0  0  0  0
 11  4  1  0  0  0  0
 11  2  1  0  0  0  0
 13 14  1  0  0  0  0
 15 12  1  6  0  0  0
 15  3  1  0  0  0  0
 15 10  1  0  0  0  0
 16 20  1  0  0  0  0
 17 21  1  0  0  0  0
 17 18  2  0  0  0  0
 18 19  1  0  0  0  0
 19 20  2  0  0  0  0
 21 16  2  0  0  0  0
 22  2  1  0  0  0  0
 22 24  1  0  0  0  0
 24 23  1  6  0  0  0
 24 25  1  0  0  0  0
 25 27  1  0  0  0  0
 27 26  1  0  0  0  0
M  END
>  <MODEL>
3

>  <REMARK>
 VINA RESULT:      -6.1      3.266      8.138
  Name = 
  5 active torsions:
  status: ('A' for Active; 'I' for Inactive)
    1  A    between atoms: N_2  and  S_6
    2  A    between atoms: S_6  and  C_21
    3  A    between atoms: C_9  and  C_15
    4  A    between atoms: C_16  and  C_17
    5  A    between atoms: C_17  and  C_21
                            x       y       z     vdW  Elec       q    Type
                         _______ _______ _______ _____ _____    ______ ____

>  <TORSDO>
F 5

$$$$
=
 OpenBabel10262420113D

 27 30  0  0  1  0  0  0  0  0999 V2000
  186.9120  178.8580  141.1650 C   0  0  0  0  0  2  0  0  0  0  0  0
  188.6220  177.7970  142.6950 N   0  0  0  0  0  0  0  0  0  0  0  0
  186.7800  178.9100  144.1480 C   0  0  0  0  0  2  0  0  0  0  0  0
  188.1460  176.7890  144.9390 C   0  0  1  0  0  3  0  0  0  0  0  0
  183.0720  179.3130  143.6010 C   0  0  0  0  0  2  0  0  0  0  0  0
  187.5230  177.1190  146.2850 C   0  0  0  0  0  1  0  0  0  0  0  0
  182.3360  178.6700  142.4220 C   0  0  0  0  0  2  0  0  0  0  0  0
  187.0550  176.3170  143.9880 C   0  0  0  0  0  2  0  0  0  0  0  0
  187.9140  177.7260  141.4030 C   0  0  2  0  0  3  0  0  0  0  0  0
  185.6080  178.5010  141.8580 C   0  0  2  0  0  3  0  0  0  0  0  0
  187.6650  177.6940  143.8090 C   0  0  2  0  0  0  0  0  0  0  0  0
  184.3120  178.5420  144.0330 C   0  0  0  0  0  2  0  0  0  0  0  0
  183.2230  178.0930  141.3130 C   0  0  0  0  0  2  0  0  0  0  0  0
  184.4360  178.9570  141.0000 C   0  0  0  0  0  2  0  0  0  0  0  0
  185.5230  179.0780  143.2820 C   0  0  1  0  0  3  0  0  0  0  0  0
  189.4460  177.9720  137.9460 C   0  0  0  0  0  3  0  0  0  0  0  0
  188.8470  177.5030  140.2490 C   0  0  0  0  0  0  0  0  0  0  0  0
  189.9200  176.6040  140.3370 C   0  0  0  0  0  3  0  0  0  0  0  0
  190.7550  176.3950  139.2350 C   0  0  0  0  0  3  0  0  0  0  0  0
  190.5180  177.0800  138.0400 C   0  0  0  0  0  3  0  0  0  0  0  0
  188.6110  178.1810  139.0480 C   0  0  0  0  0  3  0  0  0  0  0  0
  189.5500  179.3190  142.8320 S   0  0  0  0  0  0  0  0  0  0  0  0
  191.8030  179.7050  144.4020 C   0  0  0  0  0  1  0  0  0  0  0  0
  190.8720  178.6220  143.8840 C   0  0  2  0  0  3  0  0  0  0  0  0
  191.6430  177.5370  143.1480 C   0  0  0  0  0  2  0  0  0  0  0  0
  191.6900  176.3660  145.3490 C   0  0  0  0  0  1  0  0  0  0  0  0
  191.5230  176.1950  143.8510 C   0  0  0  0  0  2  0  0  0  0  0  0
  1  9  1  0  0  0  0
  1 10  1  0  0  0  0
  2 22  1  0  0  0  0
  2 11  1  0  0  0  0
  4  6  1  1  0  0  0
  5 12  1  0  0  0  0
  7  5  1  0  0  0  0
  8  4  1  0  0  0  0
  9 17  1  6  0  0  0
  9  2  1  0  0  0  0
 10 14  1  6  0  0  0
 10 15  1  0  0  0  0
 11  8  1  6  0  0  0
 11  3  1  0  0  0  0
 11  4  1  0  0  0  0
 13  7  1  0  0  0  0
 14 13  1  0  0  0  0
 15 12  1  1  0  0  0
 15  3  1  0  0  0  0
 16 20  2  0  0  0  0
 16 21  1  0  0  0  0
 17 18  1  0  0  0  0
 19 18  2  0  0  0  0
 20 19  1  0  0  0  0
 21 17  2  0  0  0  0
 22 24  1  0  0  0  0
 24 23  1  6  0  0  0
 25 27  1  0  0  0  0
 25 24  1  0  0  0  0
 27 26  1  0  0  0  0
M  END
>  <MODEL>
4

>  <REMARK>
 VINA RESULT:      -6.1      1.765      5.969
  Name = 
  5 active torsions:
  status: ('A' for Active; 'I' for Inactive)
    1  A    between atoms: N_2  and  S_6
    2  A    between atoms: S_6  and  C_21
    3  A    between atoms: C_9  and  C_15
    4  A    between atoms: C_16  and  C_17
    5  A    between atoms: C_17  and  C_21
                            x       y       z     vdW  Elec       q    Type
                         _______ _______ _______ _____ _____    ______ ____

>  <TORSDO>
F 5

$$$$
=
 OpenBabel10262420113D

 27 30  0  0  1  0  0  0  0  0999 V2000
  186.6860  178.9730  143.9660 C   0  0  0  0  0  2  0  0  0  0  0  0
  187.7640  177.5610  142.1680 N   0  0  0  0  0  0  0  0  0  0  0  0
  189.4470  177.8470  144.1250 C   0  0  0  0  0  2  0  0  0  0  0  0
  189.4190  175.7200  142.5550 C   0  0  1  0  0  3  0  0  0  0  0  0
  188.9270  178.0910  147.8500 C   0  0  0  0  0  2  0  0  0  0  0  0
  190.7570  175.4420  143.2190 C   0  0  0  0  0  1  0  0  0  0  0  0
  187.5570  177.8940  148.5080 C   0  0  0  0  0  2  0  0  0  0  0  0
  188.3100  175.5580  143.5850 C   0  0  0  0  0  2  0  0  0  0  0  0
  186.5140  177.9340  142.8550 C   0  0  2  0  0  3  0  0  0  0  0  0
  187.1250  178.2570  145.2310 C   0  0  2  0  0  3  0  0  0  0  0  0
  188.7050  176.9460  143.1170 C   0  0  2  0  0  0  0  0  0  0  0  0
  189.0830  177.3300  146.5420 C   0  0  0  0  0  2  0  0  0  0  0  0
  186.3550  177.8780  147.5590 C   0  0  0  0  0  2  0  0  0  0  0  0
  186.4560  178.9030  146.4380 C   0  0  0  0  0  2  0  0  0  0  0  0
  188.6560  178.2240  145.3860 C   0  0  1  0  0  3  0  0  0  0  0  0
  184.7290  178.9670  139.6770 C   0  0  0  0  0  3  0  0  0  0  0  0
  185.4080  178.2640  141.8960 C   0  0  0  0  0  0  0  0  0  0  0  0
  184.0630  178.2530  142.2950 C   0  0  0  0  0  3  0  0  0  0  0  0
  183.0570  178.5920  141.3870 C   0  0  0  0  0  3  0  0  0  0  0  0
  183.3900  178.9490  140.0770 C   0  0  0  0  0  3  0  0  0  0  0  0
  185.7360  178.6280  140.5850 C   0  0  0  0  0  3  0  0  0  0  0  0
  188.5210  178.9870  141.4010 S   0  0  0  0  0  0  0  0  0  0  0  0
  190.4650  177.5590  140.0310 C   0  0  0  0  0  1  0  0  0  0  0  0
  189.0550  178.1090  139.8910 C   0  0  2  0  0  3  0  0  0  0  0  0
  188.9310  179.0020  138.6660 C   0  0  0  0  0  2  0  0  0  0  0  0
  187.5210  177.2750  137.5470 C   0  0  0  0  0  1  0  0  0  0  0  0
  188.7270  178.1850  137.4000 C   0  0  0  0  0  2  0  0  0  0  0  0
  2  9  1  0  0  0  0
  2 11  1  0  0  0  0
  4 11  1  0  0  0  0
  4  6  1  1  0  0  0
  4  8  1  0  0  0  0
  5  7  1  0  0  0  0
  9 17  1  6  0  0  0
  9  1  1  0  0  0  0
 10  1  1  6  0  0  0
 10 15  1  0  0  0  0
 10 14  1  0  0  0  0
 11  8  1  1  0  0  0
 11  3  1  0  0  0  0
 12  5  1  0  0  0  0
 13  7  1  0  0  0  0
 14 13  1  0  0  0  0
 15  3  1  6  0  0  0
 15 12  1  0  0  0  0
 16 20  2  0  0  0  0
 16 21  1  0  0  0  0
 17 18  1  0  0  0  0
 19 18  2  0  0  0  0
 20 19  1  0  0  0  0
 21 17  2  0  0  0  0
 22  2  1  0  0  0  0
 24 23  1  1  0  0  0
 24 22  1  0  0  0  0
 25 24  1  0  0  0  0
 27 26  1  0  0  0  0
 27 25  1  0  0  0  0
M  END
>  <MODEL>
5

>  <REMARK>
 VINA RESULT:      -5.7      1.010      1.533
  Name = 
  5 active torsions:
  status: ('A' for Active; 'I' for Inactive)
    1  A    between atoms: N_2  and  S_6
    2  A    between atoms: S_6  and  C_21
    3  A    between atoms: C_9  and  C_15
    4  A    between atoms: C_16  and  C_17
    5  A    between atoms: C_17  and  C_21
                            x       y       z     vdW  Elec       q    Type
                         _______ _______ _______ _____ _____    ______ ____

>  <TORSDO>
F 5

$$$$
=
 OpenBabel10262420113D

 27 30  0  0  1  0  0  0  0  0999 V2000
  185.2450  177.7650  140.4250 C   0  0  0  0  0  2  0  0  0  0  0  0
  184.1210  178.2850  138.2220 N   0  0  0  0  0  0  0  0  0  0  0  0
  182.2900  177.9100  140.0230 C   0  0  0  0  0  2  0  0  0  0  0  0
  181.9510  179.5060  137.9420 C   0  0  1  0  0  3  0  0  0  0  0  0
  182.2070  178.7130  143.7050 C   0  0  0  0  0  2  0  0  0  0  0  0
  180.4970  179.4650  138.3820 C   0  0  0  0  0  1  0  0  0  0  0  0
  183.3190  179.5000  144.4050 C   0  0  0  0  0  2  0  0  0  0  0  0
  182.7650  180.2600  138.9850 C   0  0  0  0  0  2  0  0  0  0  0  0
  185.2880  178.5180  139.0940 C   0  0  2  0  0  3  0  0  0  0  0  0
  184.4000  178.5630  141.4030 C   0  0  2  0  0  3  0  0  0  0  0  0
  182.8900  178.7520  138.8790 C   0  0  2  0  0  0  0  0  0  0  0  0
  182.0580  179.0570  142.2300 C   0  0  0  0  0  2  0  0  0  0  0  0
  184.6070  179.6990  143.5990 C   0  0  0  0  0  2  0  0  0  0  0  0
  185.0120  178.4720  142.7950 C   0  0  0  0  0  2  0  0  0  0  0  0
  182.9270  178.1180  141.4050 C   0  0  1  0  0  3  0  0  0  0  0  0
  188.9250  177.7110  138.4040 C   0  0  0  0  0  3  0  0  0  0  0  0
  186.5900  178.3670  138.3640 C   0  0  0  0  0  0  0  0  0  0  0  0
  186.7360  178.7780  137.0310 C   0  0  0  0  0  3  0  0  0  0  0  0
  187.9700  178.6500  136.3870 C   0  0  0  0  0  3  0  0  0  0  0  0
  189.0640  178.1160  137.0730 C   0  0  0  0  0  3  0  0  0  0  0  0
  187.6910  177.8390  139.0480 C   0  0  0  0  0  3  0  0  0  0  0  0
  183.9700  176.5540  137.8080 S   0  0  0  0  0  0  0  0  0  0  0  0
  182.7190  176.6320  135.3330 C   0  0  0  0  0  1  0  0  0  0  0  0
  184.0750  176.7970  136.0000 C   0  0  2  0  0  3  0  0  0  0  0  0
  185.1100  175.8710  135.3820 C   0  0  0  0  0  2  0  0  0  0  0  0
  187.3640  174.9720  135.9590 C   0  0  0  0  0  1  0  0  0  0  0  0
  185.9430  175.1770  136.4480 C   0  0  0  0  0  2  0  0  0  0  0  0
  2 11  1  0  0  0  0
  2  9  1  0  0  0  0
  4  6  1  1  0  0  0
  4 11  1  0  0  0  0
  4  8  1  0  0  0  0
  5  7  1  0  0  0  0
  9 17  1  6  0  0  0
  9  1  1  0  0  0  0
 10  1  1  6  0  0  0
 10 15  1  0  0  0  0
 10 14  1  0  0  0  0
 11  8  1  1  0  0  0
 11  3  1  0  0  0  0
 12  5  1  0  0  0  0
 13  7  1  0  0  0  0
 14 13  1  0  0  0  0
 15  3  1  6  0  0  0
 15 12  1  0  0  0  0
 16 21  1  0  0  0  0
 17 21  2  0  0  0  0
 18 17  1  0  0  0  0
 19 18  2  0  0  0  0
 19 20  1  0  0  0  0
 20 16  2  0  0  0  0
 22  2  1  0  0  0  0
 24 23  1  6  0  0  0
 24 22  1  0  0  0  0
 25 24  1  0  0  0  0
 25 27  1  0  0  0  0
 26 27  1  0  0  0  0
M  END
>  <MODEL>
6

>  <REMARK>
 VINA RESULT:      -5.4      3.700      6.722
  Name = 
  5 active torsions:
  status: ('A' for Active; 'I' for Inactive)
    1  A    between atoms: N_2  and  S_6
    2  A    between atoms: S_6  and  C_21
    3  A    between atoms: C_9  and  C_15
    4  A    between atoms: C_16  and  C_17
    5  A    between atoms: C_17  and  C_21
                            x       y       z     vdW  Elec       q    Type
                         _______ _______ _______ _____ _____    ______ ____

>  <TORSDO>
F 5

$$$$
=
 OpenBabel10262420113D

 27 30  0  0  1  0  0  0  0  0999 V2000
  180.2790  180.6870  139.2060 C   0  0  0  0  0  2  0  0  0  0  0  0
  180.9610  178.2870  138.7970 N   0  0  0  0  0  0  0  0  0  0  0  0
  179.8810  179.2270  136.6320 C   0  0  0  0  0  2  0  0  0  0  0  0
  181.7350  177.3420  136.6100 C   0  0  1  0  0  3  0  0  0  0  0  0
  179.9380  182.6720  135.1030 C   0  0  0  0  0  2  0  0  0  0  0  0
  181.3120  177.2010  135.1570 C   0  0  0  0  0  1  0  0  0  0  0  0
  180.7930  183.8120  135.6660 C   0  0  0  0  0  2  0  0  0  0  0  0
  182.4310  178.6840  136.7970 C   0  0  0  0  0  2  0  0  0  0  0  0
  181.2620  179.5500  139.4960 C   0  0  2  0  0  3  0  0  0  0  0  0
  180.6840  181.3530  137.9030 C   0  0  2  0  0  3  0  0  0  0  0  0
  181.0290  178.4810  137.3400 C   0  0  2  0  0  0  0  0  0  0  0  0
  180.5170  181.2910  135.3760 C   0  0  0  0  0  2  0  0  0  0  0  0
  181.4030  183.5700  137.0510 C   0  0  0  0  0  2  0  0  0  0  0  0
  180.4610  182.8560  138.0100 C   0  0  0  0  0  2  0  0  0  0  0  0
  179.9510  180.7600  136.6870 C   0  0  1  0  0  3  0  0  0  0  0  0
  183.0310  178.6180  142.7150 C   0  0  0  0  0  3  0  0  0  0  0  0
  181.5240  179.3490  140.9600 C   0  0  0  0  0  0  0  0  0  0  0  0
  180.5430  179.6180  141.9250 C   0  0  0  0  0  3  0  0  0  0  0  0
  180.8080  179.3930  143.2790 C   0  0  0  0  0  3  0  0  0  0  0  0
  182.0520  178.8930  143.6740 C   0  0  0  0  0  3  0  0  0  0  0  0
  182.7660  178.8420  141.3610 C   0  0  0  0  0  3  0  0  0  0  0  0
  179.3460  177.6740  139.2540 S   0  0  0  0  0  0  0  0  0  0  0  0
  181.2960  175.7740  139.7820 C   0  0  0  0  0  1  0  0  0  0  0  0
  179.9670  176.3050  140.2920 C   0  0  2  0  0  3  0  0  0  0  0  0
  178.9350  175.1930  140.4060 C   0  0  0  0  0  2  0  0  0  0  0  0
  179.2230  173.3780  142.0920 C   0  0  0  0  0  1  0  0  0  0  0  0
  179.5910  173.8540  140.6990 C   0  0  0  0  0  2  0  0  0  0  0  0
  1  9  1  0  0  0  0
  2 22  1  0  0  0  0
  2  9  1  0  0  0  0
  3 15  1  0  0  0  0
  4  6  1  6  0  0  0
  4  8  1  0  0  0  0
  4 11  1  0  0  0  0
  5 12  1  0  0  0  0
  5  7  1  0  0  0  0
  7 13  1  0  0  0  0
  8 11  1  0  0  0  0
  9 17  1  1  0  0  0
 10 14  1  1  0  0  0
 10  1  1  0  0  0  0
 11  3  1  6  0  0  0
 11  2  1  0  0  0  0
 13 14  1  0  0  0  0
 15 12  1  6  0  0  0
 15 10  1  0  0  0  0
 16 20  1  0  0  0  0
 17 21  1  0  0  0  0
 17 18  2  0  0  0  0
 18 19  1  0  0  0  0
 19 20  2  0  0  0  0
 21 16  2  0  0  0  0
 22 24  1  0  0  0  0
 24 23  1  6  0  0  0
 24 25  1  0  0  0  0
 25 27  1  0  0  0  0
 27 26  1  0  0  0  0
M  END
>  <MODEL>
7

>  <REMARK>
 VINA RESULT:      -5.2      5.491      9.707
  Name = 
  5 active torsions:
  status: ('A' for Active; 'I' for Inactive)
    1  A    between atoms: N_2  and  S_6
    2  A    between atoms: S_6  and  C_21
    3  A    between atoms: C_9  and  C_15
    4  A    between atoms: C_16  and  C_17
    5  A    between atoms: C_17  and  C_21
                            x       y       z     vdW  Elec       q    Type
                         _______ _______ _______ _____ _____    ______ ____

>  <TORSDO>
F 5

$$$$
=
 OpenBabel10262420113D

 27 30  0  0  1  0  0  0  0  0999 V2000
  184.7140  178.6720  139.5240 C   0  0  0  0  0  2  0  0  0  0  0  0
  182.3820  177.8210  140.0010 N   0  0  0  0  0  0  0  0  0  0  0  0
  182.7570  177.8290  137.4320 C   0  0  0  0  0  2  0  0  0  0  0  0
  181.1430  176.1200  138.6420 C   0  0  1  0  0  3  0  0  0  0  0  0
  185.8330  177.1700  135.3550 C   0  0  0  0  0  2  0  0  0  0  0  0
  180.6790  175.8390  137.2220 C   0  0  0  0  0  1  0  0  0  0  0  0
  187.1540  176.6900  135.9630 C   0  0  0  0  0  2  0  0  0  0  0  0
  182.5700  175.6170  138.8080 C   0  0  0  0  0  2  0  0  0  0  0  0
  183.7820  177.8990  140.4600 C   0  0  2  0  0  3  0  0  0  0  0  0
  185.1670  177.7370  138.4150 C   0  0  2  0  0  3  0  0  0  0  0  0
  182.3040  177.1070  138.7170 C   0  0  2  0  0  0  0  0  0  0  0  0
  184.6090  176.7440  136.1540 C   0  0  0  0  0  2  0  0  0  0  0  0
  187.2540  176.7650  137.4910 C   0  0  0  0  0  2  0  0  0  0  0  0
  186.6240  178.0210  138.0760 C   0  0  0  0  0  2  0  0  0  0  0  0
  184.2700  177.8280  137.1680 C   0  0  1  0  0  3  0  0  0  0  0  0
  185.2900  178.7040  143.8410 C   0  0  0  0  0  3  0  0  0  0  0  0
  183.8940  178.3210  141.8950 C   0  0  0  0  0  0  0  0  0  0  0  0
  182.7610  178.6560  142.6520 C   0  0  0  0  0  3  0  0  0  0  0  0
  182.8950  179.0180  143.9960 C   0  0  0  0  0  3  0  0  0  0  0  0
  184.1590  179.0420  144.5900 C   0  0  0  0  0  3  0  0  0  0  0  0
  185.1570  178.3410  142.4980 C   0  0  0  0  0  3  0  0  0  0  0  0
  181.6750  179.4540  139.8320 S   0  0  0  0  0  0  0  0  0  0  0  0
  180.0460  177.7250  141.2650 C   0  0  0  0  0  1  0  0  0  0  0  0
  180.0070  178.9800  140.4090 C   0  0  2  0  0  3  0  0  0  0  0  0
  179.0480  178.8210  139.2400 C   0  0  0  0  0  2  0  0  0  0  0  0
  178.9310  180.9940  138.0210 C   0  0  0  0  0  1  0  0  0  0  0  0
  179.5230  179.5970  138.0220 C   0  0  0  0  0  2  0  0  0  0  0  0
  1  9  1  0  0  0  0
  2  9  1  0  0  0  0
  4  6  1  6  0  0  0
  4 11  1  0  0  0  0
  4  8  1  0  0  0  0
  5  7  1  0  0  0  0
  5 12  1  0  0  0  0
  7 13  1  0  0  0  0
  9 17  1  1  0  0  0
 10 14  1  6  0  0  0
 10  1  1  0  0  0  0
 11  3  1  6  0  0  0
 11  8  1  0  0  0  0
 11  2  1  0  0  0  0
 13 14  1  0  0  0  0
 15 12  1  6  0  0  0
 15  3  1  0  0  0  0
 15 10  1  0  0  0  0
 16 20  1  0  0  0  0
 17 21  1  0  0  0  0
 17 18  2  0  0  0  0
 18 19  1  0  0  0  0
 19 20  2  0  0  0  0
 21 16  2  0  0  0  0
 22  2  1  0  0  0  0
 22 24  1  0  0  0  0
 24 23  1  6  0  0  0
 25 24  1  0  0  0  0
 26 27  1  0  0  0  0
 27 25  1  0  0  0  0
M  END
>  <MODEL>
8

>  <REMARK>
 VINA RESULT:      -5.1      3.502      7.870
  Name = 
  5 active torsions:
  status: ('A' for Active; 'I' for Inactive)
    1  A    between atoms: N_2  and  S_6
    2  A    between atoms: S_6  and  C_21
    3  A    between atoms: C_9  and  C_15
    4  A    between atoms: C_16  and  C_17
    5  A    between atoms: C_17  and  C_21
                            x       y       z     vdW  Elec       q    Type
                         _______ _______ _______ _____ _____    ______ ____

>  <TORSDO>
F 5

$$$$
=
 OpenBabel10262420113D

 27 30  0  0  1  0  0  0  0  0999 V2000
  180.7050  176.1490  140.2410 C   0  0  0  0  0  2  0  0  0  0  0  0
  182.4340  177.9460  139.8290 N   0  0  0  0  0  0  0  0  0  0  0  0
  183.1610  175.7890  138.5810 C   0  0  0  0  0  2  0  0  0  0  0  0
  183.7910  178.2150  137.7400 C   0  0  1  0  0  3  0  0  0  0  0  0
  181.1540  173.0970  136.8690 C   0  0  0  0  0  2  0  0  0  0  0  0
  184.7390  177.4520  136.8290 C   0  0  0  0  0  1  0  0  0  0  0  0
  179.6370  173.1890  136.6830 C   0  0  0  0  0  2  0  0  0  0  0  0
  182.3570  177.9280  137.3160 C   0  0  0  0  0  2  0  0  0  0  0  0
  181.0100  177.6370  140.0560 C   0  0  2  0  0  3  0  0  0  0  0  0
  180.5880  175.5070  138.8690 C   0  0  2  0  0  3  0  0  0  0  0  0
  182.9040  177.3090  138.5890 C   0  0  2  0  0  0  0  0  0  0  0  0
  181.8390  174.4550  136.9340 C   0  0  0  0  0  2  0  0  0  0  0  0
  178.9310  174.2910  137.4810 C   0  0  0  0  0  2  0  0  0  0  0  0
  179.4800  174.4630  138.8900 C   0  0  0  0  0  2  0  0  0  0  0  0
  181.9200  174.9060  138.3870 C   0  0  1  0  0  3  0  0  0  0  0  0
  179.6400  180.7050  141.8080 C   0  0  0  0  0  3  0  0  0  0  0  0
  180.3950  178.5070  141.1120 C   0  0  0  0  0  0  0  0  0  0  0  0
  180.0620  178.0020  142.3780 C   0  0  0  0  0  3  0  0  0  0  0  0
  179.5170  178.8440  143.3510 C   0  0  0  0  0  3  0  0  0  0  0  0
  179.3050  180.1950  143.0660 C   0  0  0  0  0  3  0  0  0  0  0  0
  180.1860  179.8630  140.8350 C   0  0  0  0  0  3  0  0  0  0  0  0
  183.4330  177.4030  141.2070 S   0  0  0  0  0  0  0  0  0  0  0  0
  185.6920  178.9240  140.6820 C   0  0  0  0  0  1  0  0  0  0  0  0
  184.3480  178.9740  141.3890 C   0  0  2  0  0  3  0  0  0  0  0  0
  184.5090  179.3470  142.8550 C   0  0  0  0  0  2  0  0  0  0  0  0
  183.6710  178.9260  145.1660 C   0  0  0  0  0  1  0  0  0  0  0  0
  183.3390  178.8480  143.6870 C   0  0  0  0  0  2  0  0  0  0  0  0
  2  9  1  0  0  0  0
  2 22  1  0  0  0  0
  3 11  1  0  0  0  0
  4  6  1  6  0  0  0
  4 11  1  0  0  0  0
  5 12  1  0  0  0  0
  7  5  1  0  0  0  0
  7 13  1  0  0  0  0
  8  4  1  0  0  0  0
  9  1  1  0  0  0  0
  9 17  1  1  0  0  0
 10 14  1  1  0  0  0
 10  1  1  0  0  0  0
 11  8  1  6  0  0  0
 11  2  1  0  0  0  0
 13 14  1  0  0  0  0
 15 12  1  6  0  0  0
 15  3  1  0  0  0  0
 15 10  1  0  0  0  0
 16 20  1  0  0  0  0
 17 18  2  0  0  0  0
 18 19  1  0  0  0  0
 20 19  2  0  0  0  0
 21 17  1  0  0  0  0
 21 16  2  0  0  0  0
 22 24  1  0  0  0  0
 24 23  1  1  0  0  0
 24 25  1  0  0  0  0
 25 27  1  0  0  0  0
 27 26  1  0  0  0  0
M  END
>  <MODEL>
9

>  <REMARK>
 VINA RESULT:      -5.1      3.857      8.320
  Name = 
  5 active torsions:
  status: ('A' for Active; 'I' for Inactive)
    1  A    between atoms: N_2  and  S_6
    2  A    between atoms: S_6  and  C_21
    3  A    between atoms: C_9  and  C_15
    4  A    between atoms: C_16  and  C_17
    5  A    between atoms: C_17  and  C_21
                            x       y       z     vdW  Elec       q    Type
                         _______ _______ _______ _____ _____    ______ ____

>  <TORSDO>
F 5

$$$$
