=
 OpenBabel10262420543D

 28 31  0  0  1  0  0  0  0  0999 V2000
  186.3950  177.7600  145.9730 C   0  0  0  0  0  0  0  0  0  0  0  0
  190.1940  176.3630  142.5010 C   0  0  0  0  0  2  0  0  0  0  0  0
  184.5850  179.1820  141.6470 C   0  0  0  0  0  1  0  0  0  0  0  0
  189.4540  178.0150  140.6940 C   0  0  1  0  0  3  0  0  0  0  0  0
  187.8150  177.1770  142.5120 C   0  0  1  0  0  3  0  0  0  0  0  0
  191.9050  177.6390  141.0730 C   0  0  2  0  0  3  0  0  0  0  0  0
  189.2680  177.5320  142.1590 C   0  0  1  0  0  3  0  0  0  0  0  0
  187.0060  178.2480  140.3460 C   0  0  0  0  0  2  0  0  0  0  0  0
  190.7690  177.5510  140.0600 C   0  0  0  0  0  2  0  0  0  0  0  0
  185.5320  178.3990  143.7870 C   0  0  0  0  0  0  0  0  0  0  0  0
  187.6250  177.2460  143.9980 C   0  0  0  0  0  3  0  0  0  0  0  0
  188.2850  177.6190  139.8050 C   0  0  0  0  0  2  0  0  0  0  0  0
  184.2670  178.8670  145.7550 C   0  0  0  0  0  3  0  0  0  0  0  0
  185.6610  178.5100  142.4490 C   0  0  0  0  0  0  0  0  0  0  0  0
  184.4280  178.9060  144.4070 N   0  0  0  0  0  0  0  0  0  0  0  0
  193.2150  177.2670  140.4130 C   0  0  0  0  0  1  0  0  0  0  0  0
  191.6650  176.7340  142.2890 C   0  0  0  0  0  2  0  0  0  0  0  0
  186.8480  178.0220  141.7880 N   0  0  0  0  0  0  0  0  0  0  0  0
  185.2510  178.3000  146.5600 C   0  0  0  0  0  3  0  0  0  0  0  0
  186.5430  177.7900  144.5690 C   0  0  0  0  0  0  0  0  0  0  0  0
  187.4520  177.1830  146.8640 C   0  0  0  0  0  2  0  0  0  0  0  0
  188.0010  178.2630  147.7800 C   0  0  0  0  0  2  0  0  0  0  0  0
  189.4270  177.9310  148.1860 C   0  0  0  0  0  2  0  0  0  0  0  0
  189.9900  176.7960  147.3350 C   0  0  0  0  0  2  0  0  0  0  0  0
  191.1350  177.2560  146.4360 C   0  0  2  0  0  3  0  0  0  0  0  0
  190.6370  177.8420  145.2840 F   0  0  0  0  0  0  0  0  0  0  0  0
  192.3500  175.6370  147.3320 C   0  0  0  0  0  1  0  0  0  0  0  0
  191.9670  176.1830  146.1060 O   0  0  0  0  0  0  0  0  0  0  0  0
  1 19  2  0  0  0  0
  1 21  1  0  0  0  0
  3 14  1  0  0  0  0
  4 12  1  6  0  0  0
  4  7  1  0  0  0  0
  5 11  1  1  0  0  0
  6 16  1  6  0  0  0
  6 17  1  0  0  0  0
  7  2  1  6  0  0  0
  7  5  1  0  0  0  0
  8 18  1  0  0  0  0
  9  4  1  0  0  0  0
  9  6  1  0  0  0  0
 10 15  1  0  0  0  0
 10 20  1  0  0  0  0
 11 20  2  0  0  0  0
 12  8  1  0  0  0  0
 13 19  1  0  0  0  0
 14 10  2  0  0  0  0
 15 13  2  0  0  0  0
 17  2  1  0  0  0  0
 18 14  1  0  0  0  0
 18  5  1  0  0  0  0
 20  1  1  0  0  0  0
 21 22  1  0  0  0  0
 22 23  1  0  0  0  0
 24 23  1  0  0  0  0
 25 26  1  6  0  0  0
 25 24  1  0  0  0  0
 28 25  1  0  0  0  0
 28 27  1  0  0  0  0
M  END
>  <MODEL>
1

>  <REMARK>
 VINA RESULT:      -8.7      0.000      0.000
  Name = 
  6 active torsions:
  status: ('A' for Active; 'I' for Inactive)
    1  A    between atoms: C_1  and  C_2
    2  A    between atoms: C_2  and  C_3
    3  A    between atoms: C_3  and  C_8
    4  A    between atoms: C_6  and  C_11
    5  A    between atoms: C_6  and  O_28
    6  A    between atoms: C_8  and  C_11
                            x       y       z     vdW  Elec       q    Type
                         _______ _______ _______ _____ _____    ______ ____

>  <TORSDO>
F 6

$$$$
=
 OpenBabel10262420543D

 28 31  0  0  1  0  0  0  0  0999 V2000
  186.9180  177.8190  145.3970 C   0  0  0  0  0  0  0  0  0  0  0  0
  188.4700  178.3670  140.3250 C   0  0  0  0  0  2  0  0  0  0  0  0
  191.6850  176.6920  145.5200 C   0  0  0  0  0  1  0  0  0  0  0  0
  190.5200  176.8560  140.5610 C   0  0  1  0  0  3  0  0  0  0  0  0
  189.4690  178.0380  142.6080 C   0  0  1  0  0  3  0  0  0  0  0  0
  189.1620  176.7490  138.4540 C   0  0  2  0  0  3  0  0  0  0  0  0
  189.2280  177.3960  141.2330 C   0  0  1  0  0  3  0  0  0  0  0  0
  191.8390  177.1030  142.6500 C   0  0  0  0  0  2  0  0  0  0  0  0
  190.5390  177.0380  139.0410 C   0  0  0  0  0  2  0  0  0  0  0  0
  189.3020  177.3180  145.3980 C   0  0  0  0  0  0  0  0  0  0  0  0
  188.1940  178.0390  143.3960 C   0  0  0  0  0  3  0  0  0  0  0  0
  191.7790  177.4560  141.1690 C   0  0  0  0  0  2  0  0  0  0  0  0
  188.0440  177.1490  147.4190 C   0  0  0  0  0  3  0  0  0  0  0  0
  190.4780  177.1550  144.7590 C   0  0  0  0  0  0  0  0  0  0  0  0
  189.2120  177.0510  146.7330 N   0  0  0  0  0  0  0  0  0  0  0  0
  189.2130  176.8410  136.9450 C   0  0  0  0  0  1  0  0  0  0  0  0
  188.0920  177.7090  138.9940 C   0  0  0  0  0  2  0  0  0  0  0  0
  190.5720  177.3860  143.3370 N   0  0  0  0  0  0  0  0  0  0  0  0
  186.8770  177.5270  146.7600 C   0  0  0  0  0  3  0  0  0  0  0  0
  188.1420  177.7320  144.6980 C   0  0  0  0  0  0  0  0  0  0  0  0
  185.6430  178.1950  144.7070 C   0  0  0  0  0  2  0  0  0  0  0  0
  184.6320  178.6890  145.7270 C   0  0  0  0  0  2  0  0  0  0  0  0
  183.3280  179.0560  145.0370 C   0  0  0  0  0  2  0  0  0  0  0  0
  183.4810  179.0190  143.5190 C   0  0  0  0  0  2  0  0  0  0  0  0
  182.1350  179.0250  142.7980 C   0  0  2  0  0  3  0  0  0  0  0  0
  181.1700  178.4080  143.5760 F   0  0  0  0  0  0  0  0  0  0  0  0
  183.6060  178.2580  141.3310 C   0  0  0  0  0  1  0  0  0  0  0  0
  182.2350  178.3840  141.5600 O   0  0  0  0  0  0  0  0  0  0  0  0
  1 19  2  0  0  0  0
  4  9  1  6  0  0  0
  4 12  1  0  0  0  0
  4  7  1  0  0  0  0
  5 18  1  0  0  0  0
  5 11  1  1  0  0  0
  6 16  1  6  0  0  0
  6 17  1  0  0  0  0
  6  9  1  0  0  0  0
  7  2  1  6  0  0  0
  7  5  1  0  0  0  0
  8 18  1  0  0  0  0
 10 15  1  0  0  0  0
 11 20  2  0  0  0  0
 12  8  1  0  0  0  0
 14 10  2  0  0  0  0
 14  3  1  0  0  0  0
 15 13  2  0  0  0  0
 17  2  1  0  0  0  0
 18 14  1  0  0  0  0
 19 13  1  0  0  0  0
 20  1  1  0  0  0  0
 20 10  1  0  0  0  0
 21  1  1  0  0  0  0
 21 22  1  0  0  0  0
 23 22  1  0  0  0  0
 24 23  1  0  0  0  0
 25 24  1  0  0  0  0
 25 26  1  1  0  0  0
 27 28  1  0  0  0  0
 28 25  1  0  0  0  0
M  END
>  <MODEL>
2

>  <REMARK>
 VINA RESULT:      -8.7      3.320      5.647
  Name = 
  6 active torsions:
  status: ('A' for Active; 'I' for Inactive)
    1  A    between atoms: C_1  and  C_2
    2  A    between atoms: C_2  and  C_3
    3  A    between atoms: C_3  and  C_8
    4  A    between atoms: C_6  and  C_11
    5  A    between atoms: C_6  and  O_28
    6  A    between atoms: C_8  and  C_11
                            x       y       z     vdW  Elec       q    Type
                         _______ _______ _______ _____ _____    ______ ____

>  <TORSDO>
F 6

$$$$
=
 OpenBabel10262420543D

 28 31  0  0  1  0  0  0  0  0999 V2000
  186.8600  177.6130  145.3460 C   0  0  0  0  0  0  0  0  0  0  0  0
  188.4840  178.1610  140.2960 C   0  0  0  0  0  2  0  0  0  0  0  0
  191.6950  176.8600  145.6000 C   0  0  0  0  0  1  0  0  0  0  0  0
  190.6380  176.8180  140.6150 C   0  0  1  0  0  3  0  0  0  0  0  0
  189.4520  177.9630  142.6080 C   0  0  1  0  0  3  0  0  0  0  0  0
  189.3420  176.5580  138.4820 C   0  0  2  0  0  3  0  0  0  0  0  0
  189.2930  177.2720  141.2450 C   0  0  1  0  0  3  0  0  0  0  0  0
  191.8850  177.2150  142.7250 C   0  0  0  0  0  2  0  0  0  0  0  0
  190.6790  176.9650  139.0910 C   0  0  0  0  0  2  0  0  0  0  0  0
  189.2740  177.2970  145.4110 C   0  0  0  0  0  0  0  0  0  0  0  0
  188.1620  177.8840  143.3680 C   0  0  0  0  0  3  0  0  0  0  0  0
  191.8320  177.5270  141.2340 C   0  0  0  0  0  2  0  0  0  0  0  0
  187.9850  177.0790  147.4080 C   0  0  0  0  0  3  0  0  0  0  0  0
  190.4740  177.2100  144.8020 C   0  0  0  0  0  0  0  0  0  0  0  0
  189.1740  177.0550  146.7500 N   0  0  0  0  0  0  0  0  0  0  0  0
  189.4220  176.6180  136.9720 C   0  0  0  0  0  1  0  0  0  0  0  0
  188.1890  177.4440  138.9740 C   0  0  0  0  0  2  0  0  0  0  0  0
  190.5840  177.4140  143.3770 N   0  0  0  0  0  0  0  0  0  0  0  0
  186.8090  177.3510  146.7150 C   0  0  0  0  0  3  0  0  0  0  0  0
  188.1030  177.6040  144.6760 C   0  0  0  0  0  0  0  0  0  0  0  0
  185.5770  177.8730  144.6190 C   0  0  0  0  0  2  0  0  0  0  0  0
  185.0840  179.2760  144.9290 C   0  0  0  0  0  2  0  0  0  0  0  0
  184.2740  179.8180  143.7630 C   0  0  0  0  0  2  0  0  0  0  0  0
  184.1040  178.7610  142.6750 C   0  0  0  0  0  2  0  0  0  0  0  0
  185.0260  179.0000  141.4820 C   0  0  2  0  0  3  0  0  0  0  0  0
  186.0820  179.8200  141.8460 F   0  0  0  0  0  0  0  0  0  0  0  0
  184.6350  178.7800  139.3140 C   0  0  0  0  0  1  0  0  0  0  0  0
  184.3200  179.5710  140.4190 O   0  0  0  0  0  0  0  0  0  0  0  0
  1 19  2  0  0  0  0
  4  9  1  6  0  0  0
  4 12  1  0  0  0  0
  4  7  1  0  0  0  0
  5 11  1  1  0  0  0
  5 18  1  0  0  0  0
  6 16  1  6  0  0  0
  6 17  1  0  0  0  0
  6  9  1  0  0  0  0
  7  2  1  6  0  0  0
  7  5  1  0  0  0  0
  8 18  1  0  0  0  0
 10 15  1  0  0  0  0
 11 20  2  0  0  0  0
 12  8  1  0  0  0  0
 14 10  2  0  0  0  0
 14  3  1  0  0  0  0
 15 13  2  0  0  0  0
 17  2  1  0  0  0  0
 18 14  1  0  0  0  0
 19 13  1  0  0  0  0
 20  1  1  0  0  0  0
 20 10  1  0  0  0  0
 21 22  1  0  0  0  0
 21  1  1  0  0  0  0
 23 22  1  0  0  0  0
 24 23  1  0  0  0  0
 25 26  1  1  0  0  0
 25 24  1  0  0  0  0
 27 28  1  0  0  0  0
 28 25  1  0  0  0  0
M  END
>  <MODEL>
3

>  <REMARK>
 VINA RESULT:      -8.6      2.878      5.341
  Name = 
  6 active torsions:
  status: ('A' for Active; 'I' for Inactive)
    1  A    between atoms: C_1  and  C_2
    2  A    between atoms: C_2  and  C_3
    3  A    between atoms: C_3  and  C_8
    4  A    between atoms: C_6  and  C_11
    5  A    between atoms: C_6  and  O_28
    6  A    between atoms: C_8  and  C_11
                            x       y       z     vdW  Elec       q    Type
                         _______ _______ _______ _____ _____    ______ ____

>  <TORSDO>
F 6

$$$$
=
 OpenBabel10262420543D

 28 31  0  0  1  0  0  0  0  0999 V2000
  187.5820  177.6020  146.6470 C   0  0  0  0  0  0  0  0  0  0  0  0
  188.8820  176.5520  141.5830 C   0  0  0  0  0  2  0  0  0  0  0  0
  184.1020  179.8900  144.0640 C   0  0  0  0  0  1  0  0  0  0  0  0
  187.6050  178.5450  140.6140 C   0  0  1  0  0  3  0  0  0  0  0  0
  186.9830  177.5280  142.9090 C   0  0  1  0  0  3  0  0  0  0  0  0
  189.8290  177.9260  139.6310 C   0  0  2  0  0  3  0  0  0  0  0  0
  188.1010  177.8300  141.9000 C   0  0  1  0  0  3  0  0  0  0  0  0
  185.3780  179.0180  141.6060 C   0  0  0  0  0  2  0  0  0  0  0  0
  188.3420  178.1020  139.3460 C   0  0  0  0  0  2  0  0  0  0  0  0
  185.8550  178.6760  145.3060 C   0  0  0  0  0  0  0  0  0  0  0  0
  187.5700  177.3510  144.2770 C   0  0  0  0  0  3  0  0  0  0  0  0
  186.1040  178.3990  140.4170 C   0  0  0  0  0  2  0  0  0  0  0  0
  185.8260  178.8870  147.6830 C   0  0  0  0  0  3  0  0  0  0  0  0
  185.3170  179.0090  144.1160 C   0  0  0  0  0  0  0  0  0  0  0  0
  185.2990  179.1480  146.4590 N   0  0  0  0  0  0  0  0  0  0  0  0
  190.5620  177.5790  138.3530 C   0  0  0  0  0  1  0  0  0  0  0  0
  190.0910  176.8440  140.6870 C   0  0  0  0  0  2  0  0  0  0  0  0
  185.9260  178.5570  142.8870 N   0  0  0  0  0  0  0  0  0  0  0  0
  186.9810  178.1160  147.7960 C   0  0  0  0  0  3  0  0  0  0  0  0
  187.0140  177.8650  145.3810 C   0  0  0  0  0  0  0  0  0  0  0  0
  188.8380  176.8010  146.7950 C   0  0  0  0  0  2  0  0  0  0  0  0
  189.7900  177.5050  147.7460 C   0  0  0  0  0  2  0  0  0  0  0  0
  191.2300  177.2540  147.3300 C   0  0  0  0  0  2  0  0  0  0  0  0
  191.2990  176.6690  145.9220 C   0  0  0  0  0  2  0  0  0  0  0  0
  191.6270  177.7250  144.8690 C   0  0  2  0  0  3  0  0  0  0  0  0
  190.5910  178.6390  144.7650 F   0  0  0  0  0  0  0  0  0  0  0  0
  191.6390  175.7680  143.8350 C   0  0  0  0  0  1  0  0  0  0  0  0
  191.8660  177.1290  143.6280 O   0  0  0  0  0  0  0  0  0  0  0  0
  1 21  1  0  0  0  0
  1 19  2  0  0  0  0
  3 14  1  0  0  0  0
  4  9  1  6  0  0  0
  4  7  1  0  0  0  0
  5 11  1  1  0  0  0
  6 16  1  6  0  0  0
  6 17  1  0  0  0  0
  7  2  1  6  0  0  0
  7  5  1  0  0  0  0
  8 18  1  0  0  0  0
  9  6  1  0  0  0  0
 10 20  1  0  0  0  0
 10 15  1  0  0  0  0
 11 20  2  0  0  0  0
 12  4  1  0  0  0  0
 12  8  1  0  0  0  0
 13 19  1  0  0  0  0
 14 10  2  0  0  0  0
 15 13  2  0  0  0  0
 17  2  1  0  0  0  0
 18  5  1  0  0  0  0
 18 14  1  0  0  0  0
 20  1  1  0  0  0  0
 21 22  1  0  0  0  0
 23 22  1  0  0  0  0
 24 23  1  0  0  0  0
 25 26  1  6  0  0  0
 25 24  1  0  0  0  0
 28 27  1  0  0  0  0
 28 25  1  0  0  0  0
M  END
>  <MODEL>
4

>  <REMARK>
 VINA RESULT:      -8.2      1.420      2.068
  Name = 
  6 active torsions:
  status: ('A' for Active; 'I' for Inactive)
    1  A    between atoms: C_1  and  C_2
    2  A    between atoms: C_2  and  C_3
    3  A    between atoms: C_3  and  C_8
    4  A    between atoms: C_6  and  C_11
    5  A    between atoms: C_6  and  O_28
    6  A    between atoms: C_8  and  C_11
                            x       y       z     vdW  Elec       q    Type
                         _______ _______ _______ _____ _____    ______ ____

>  <TORSDO>
F 6

$$$$
=
 OpenBabel10262420543D

 28 31  0  0  1  0  0  0  0  0999 V2000
  189.9870  177.7280  142.4360 C   0  0  0  0  0  0  0  0  0  0  0  0
  184.6700  177.7540  142.8340 C   0  0  0  0  0  2  0  0  0  0  0  0
  189.1930  177.9500  147.2660 C   0  0  0  0  0  1  0  0  0  0  0  0
  184.6320  178.8150  145.1610 C   0  0  1  0  0  3  0  0  0  0  0  0
  186.6980  177.5190  144.3000 C   0  0  1  0  0  3  0  0  0  0  0  0
  182.9070  179.5080  143.4760 C   0  0  2  0  0  3  0  0  0  0  0  0
  185.5010  178.4110  143.9390 C   0  0  1  0  0  3  0  0  0  0  0  0
  186.3320  177.9960  146.7760 C   0  0  0  0  0  2  0  0  0  0  0  0
  183.1340  178.8850  144.8500 C   0  0  0  0  0  2  0  0  0  0  0  0
  189.5240  177.7890  144.8260 C   0  0  0  0  0  0  0  0  0  0  0  0
  187.7430  177.6160  143.2280 C   0  0  0  0  0  3  0  0  0  0  0  0
  184.8680  177.9080  146.3590 C   0  0  0  0  0  2  0  0  0  0  0  0
  191.7780  177.8440  144.0430 C   0  0  0  0  0  3  0  0  0  0  0  0
  188.6660  177.8420  145.8650 C   0  0  0  0  0  0  0  0  0  0  0  0
  190.8680  177.8440  145.0520 N   0  0  0  0  0  0  0  0  0  0  0  0
  181.4230  179.6580  143.2170 C   0  0  0  0  0  1  0  0  0  0  0  0
  183.5460  178.6790  142.3540 C   0  0  0  0  0  2  0  0  0  0  0  0
  187.2400  177.8350  145.6340 N   0  0  0  0  0  0  0  0  0  0  0  0
  191.3510  177.7940  142.7190 C   0  0  0  0  0  3  0  0  0  0  0  0
  189.0520  177.7090  143.4930 C   0  0  0  0  0  0  0  0  0  0  0  0
  189.5550  177.7050  141.0020 C   0  0  0  0  0  2  0  0  0  0  0  0
  190.6460  177.0890  140.1440 C   0  0  0  0  0  2  0  0  0  0  0  0
  190.1830  176.9860  138.7000 C   0  0  0  0  0  2  0  0  0  0  0  0
  188.6980  177.3150  138.5750 C   0  0  0  0  0  2  0  0  0  0  0  0
  188.4260  178.3770  137.5130 C   0  0  2  0  0  3  0  0  0  0  0  0
  189.2720  179.4600  137.6850 F   0  0  0  0  0  0  0  0  0  0  0  0
  186.3470  177.6190  137.5930 C   0  0  0  0  0  1  0  0  0  0  0  0
  187.0940  178.7970  137.5640 O   0  0  0  0  0  0  0  0  0  0  0  0
  1 19  2  0  0  0  0
  1 20  1  0  0  0  0
  4  9  1  6  0  0  0
  4 12  1  0  0  0  0
  5 11  1  6  0  0  0
  5 18  1  0  0  0  0
  6 16  1  6  0  0  0
  6  9  1  0  0  0  0
  7  2  1  6  0  0  0
  7  5  1  0  0  0  0
  7  4  1  0  0  0  0
 10 15  1  0  0  0  0
 10 14  2  0  0  0  0
 11 20  2  0  0  0  0
 12  8  1  0  0  0  0
 13 15  2  0  0  0  0
 14  3  1  0  0  0  0
 17  2  1  0  0  0  0
 17  6  1  0  0  0  0
 18 14  1  0  0  0  0
 18  8  1  0  0  0  0
 19 13  1  0  0  0  0
 20 10  1  0  0  0  0
 21  1  1  0  0  0  0
 22 21  1  0  0  0  0
 23 22  1  0  0  0  0
 24 23  1  0  0  0  0
 25 28  1  0  0  0  0
 25 26  1  1  0  0  0
 25 24  1  0  0  0  0
 28 27  1  0  0  0  0
M  END
>  <MODEL>
5

>  <REMARK>
 VINA RESULT:      -8.1      3.081      7.447
  Name = 
  6 active torsions:
  status: ('A' for Active; 'I' for Inactive)
    1  A    between atoms: C_1  and  C_2
    2  A    between atoms: C_2  and  C_3
    3  A    between atoms: C_3  and  C_8
    4  A    between atoms: C_6  and  C_11
    5  A    between atoms: C_6  and  O_28
    6  A    between atoms: C_8  and  C_11
                            x       y       z     vdW  Elec       q    Type
                         _______ _______ _______ _____ _____    ______ ____

>  <TORSDO>
F 6

$$$$
=
 OpenBabel10262420543D

 28 31  0  0  1  0  0  0  0  0999 V2000
  189.8770  177.8630  142.2340 C   0  0  0  0  0  0  0  0  0  0  0  0
  184.9210  179.5100  143.3100 C   0  0  0  0  0  2  0  0  0  0  0  0
  187.6170  177.6350  137.8930 C   0  0  0  0  0  1  0  0  0  0  0  0
  183.8710  178.3870  141.2660 C   0  0  1  0  0  3  0  0  0  0  0  0
  186.3830  179.0030  141.3290 C   0  0  1  0  0  3  0  0  0  0  0  0
  182.6210  178.3760  143.4410 C   0  0  2  0  0  3  0  0  0  0  0  0
  185.1500  178.5610  142.1310 C   0  0  1  0  0  3  0  0  0  0  0  0
  185.1560  178.5300  139.1460 C   0  0  0  0  0  2  0  0  0  0  0  0
  182.5870  178.8150  141.9820 C   0  0  0  0  0  2  0  0  0  0  0  0
  188.7090  177.8190  140.0980 C   0  0  0  0  0  0  0  0  0  0  0  0
  187.6300  178.6390  142.0770 C   0  0  0  0  0  3  0  0  0  0  0  0
  183.9800  179.1030  139.9280 C   0  0  0  0  0  2  0  0  0  0  0  0
  190.9780  177.0920  140.2350 C   0  0  0  0  0  3  0  0  0  0  0  0
  187.5980  177.9840  139.3520 C   0  0  0  0  0  0  0  0  0  0  0  0
  189.8450  177.3260  139.5240 N   0  0  0  0  0  0  0  0  0  0  0  0
  181.3100  178.7210  144.1150 C   0  0  0  0  0  1  0  0  0  0  0  0
  183.7830  179.0190  144.2110 C   0  0  0  0  0  2  0  0  0  0  0  0
  186.3760  178.4570  139.9600 N   0  0  0  0  0  0  0  0  0  0  0  0
  191.0100  177.3500  141.6030 C   0  0  0  0  0  3  0  0  0  0  0  0
  188.7110  178.1190  141.4820 C   0  0  0  0  0  0  0  0  0  0  0  0
  189.9300  178.1030  143.7110 C   0  0  0  0  0  2  0  0  0  0  0  0
  190.4800  176.8740  144.4150 C   0  0  0  0  0  2  0  0  0  0  0  0
  190.0210  176.8500  145.8640 C   0  0  0  0  0  2  0  0  0  0  0  0
  189.0000  177.9510  146.1350 C   0  0  0  0  0  2  0  0  0  0  0  0
  187.6560  177.3960  146.5990 C   0  0  2  0  0  3  0  0  0  0  0  0
  186.7560  177.3710  145.5470 F   0  0  0  0  0  0  0  0  0  0  0  0
  188.0090  177.9290  148.7190 C   0  0  0  0  0  1  0  0  0  0  0  0
  187.1420  178.1610  147.6510 O   0  0  0  0  0  0  0  0  0  0  0  0
  1 21  1  0  0  0  0
  2 17  1  0  0  0  0
  3 14  1  0  0  0  0
  4 12  1  6  0  0  0
  4  9  1  0  0  0  0
  4  7  1  0  0  0  0
  5 11  1  1  0  0  0
  5  7  1  0  0  0  0
  6 16  1  1  0  0  0
  6 17  1  0  0  0  0
  7  2  1  1  0  0  0
  8 12  1  0  0  0  0
  8 18  1  0  0  0  0
  9  6  1  0  0  0  0
 10 20  1  0  0  0  0
 13 19  1  0  0  0  0
 14 18  1  0  0  0  0
 14 10  2  0  0  0  0
 15 10  1  0  0  0  0
 15 13  2  0  0  0  0
 18  5  1  0  0  0  0
 19  1  2  0  0  0  0
 20 11  2  0  0  0  0
 20  1  1  0  0  0  0
 21 22  1  0  0  0  0
 22 23  1  0  0  0  0
 23 24  1  0  0  0  0
 24 25  1  0  0  0  0
 25 26  1  6  0  0  0
 25 28  1  0  0  0  0
 28 27  1  0  0  0  0
M  END
>  <MODEL>
6

>  <REMARK>
 VINA RESULT:      -8.0      2.157      5.825
  Name = 
  6 active torsions:
  status: ('A' for Active; 'I' for Inactive)
    1  A    between atoms: C_1  and  C_2
    2  A    between atoms: C_2  and  C_3
    3  A    between atoms: C_3  and  C_8
    4  A    between atoms: C_6  and  C_11
    5  A    between atoms: C_6  and  O_28
    6  A    between atoms: C_8  and  C_11
                            x       y       z     vdW  Elec       q    Type
                         _______ _______ _______ _____ _____    ______ ____

>  <TORSDO>
F 6

$$$$
=
 OpenBabel10262420543D

 28 31  0  0  1  0  0  0  0  0999 V2000
  189.4600  177.7500  141.8930 C   0  0  0  0  0  0  0  0  0  0  0  0
  184.5600  179.4180  143.1720 C   0  0  0  0  0  2  0  0  0  0  0  0
  187.1250  177.8800  137.5870 C   0  0  0  0  0  1  0  0  0  0  0  0
  183.4520  178.4670  141.0720 C   0  0  1  0  0  3  0  0  0  0  0  0
  185.9780  179.0250  141.1340 C   0  0  1  0  0  3  0  0  0  0  0  0
  182.2380  178.3260  143.2630 C   0  0  2  0  0  3  0  0  0  0  0  0
  184.7480  178.5520  141.9240 C   0  0  1  0  0  3  0  0  0  0  0  0
  184.7060  178.7350  138.9450 C   0  0  0  0  0  2  0  0  0  0  0  0
  182.1900  178.8700  141.8390 C   0  0  0  0  0  2  0  0  0  0  0  0
  188.2570  177.8830  139.7800 C   0  0  0  0  0  0  0  0  0  0  0  0
  187.2290  178.5820  141.8310 C   0  0  0  0  0  3  0  0  0  0  0  0
  183.5550  179.2750  139.7870 C   0  0  0  0  0  2  0  0  0  0  0  0
  190.5110  177.1010  139.8240 C   0  0  0  0  0  3  0  0  0  0  0  0
  187.1380  178.1240  139.0680 C   0  0  0  0  0  0  0  0  0  0  0  0
  189.3720  177.4090  139.1520 N   0  0  0  0  0  0  0  0  0  0  0  0
  180.9460  178.6500  143.9830 C   0  0  0  0  0  1  0  0  0  0  0  0
  183.4260  178.8880  144.0550 C   0  0  0  0  0  2  0  0  0  0  0  0
  185.9370  178.5780  139.7290 N   0  0  0  0  0  0  0  0  0  0  0  0
  190.5710  177.2600  141.2060 C   0  0  0  0  0  3  0  0  0  0  0  0
  188.2880  178.0830  141.1820 C   0  0  0  0  0  0  0  0  0  0  0  0
  189.5420  177.8820  143.3820 C   0  0  0  0  0  2  0  0  0  0  0  0
  190.8160  178.6160  143.7660 C   0  0  0  0  0  2  0  0  0  0  0  0
  191.4260  177.9930  145.0110 C   0  0  0  0  0  2  0  0  0  0  0  0
  190.5240  176.8980  145.5740 C   0  0  0  0  0  2  0  0  0  0  0  0
  190.5740  176.8310  147.0990 C   0  0  2  0  0  3  0  0  0  0  0  0
  189.7830  177.8250  147.6510 F   0  0  0  0  0  0  0  0  0  0  0  0
  192.3550  175.6440  147.6680 C   0  0  0  0  0  1  0  0  0  0  0  0
  191.8890  176.9550  147.5560 O   0  0  0  0  0  0  0  0  0  0  0  0
  1 21  1  0  0  0  0
  2 17  1  0  0  0  0
  3 14  1  0  0  0  0
  4 12  1  6  0  0  0
  4  9  1  0  0  0  0
  4  7  1  0  0  0  0
  5 11  1  1  0  0  0
  5  7  1  0  0  0  0
  6 16  1  1  0  0  0
  6 17  1  0  0  0  0
  7  2  1  1  0  0  0
  8 18  1  0  0  0  0
  8 12  1  0  0  0  0
  9  6  1  0  0  0  0
 10 20  1  0  0  0  0
 13 19  1  0  0  0  0
 14 18  1  0  0  0  0
 14 10  2  0  0  0  0
 15 10  1  0  0  0  0
 15 13  2  0  0  0  0
 18  5  1  0  0  0  0
 19  1  2  0  0  0  0
 20 11  2  0  0  0  0
 20  1  1  0  0  0  0
 21 22  1  0  0  0  0
 22 23  1  0  0  0  0
 23 24  1  0  0  0  0
 24 25  1  0  0  0  0
 25 28  1  0  0  0  0
 25 26  1  1  0  0  0
 28 27  1  0  0  0  0
M  END
>  <MODEL>
7

>  <REMARK>
 VINA RESULT:      -7.9      2.142      5.769
  Name = 
  6 active torsions:
  status: ('A' for Active; 'I' for Inactive)
    1  A    between atoms: C_1  and  C_2
    2  A    between atoms: C_2  and  C_3
    3  A    between atoms: C_3  and  C_8
    4  A    between atoms: C_6  and  C_11
    5  A    between atoms: C_6  and  O_28
    6  A    between atoms: C_8  and  C_11
                            x       y       z     vdW  Elec       q    Type
                         _______ _______ _______ _____ _____    ______ ____

>  <TORSDO>
F 6

$$$$
=
 OpenBabel10262420543D

 28 31  0  0  1  0  0  0  0  0999 V2000
  186.7570  178.4760  141.2600 C   0  0  0  0  0  0  0  0  0  0  0  0
  190.4760  177.8850  145.0340 C   0  0  0  0  0  2  0  0  0  0  0  0
  184.1830  178.4910  145.4300 C   0  0  0  0  0  1  0  0  0  0  0  0
  188.8560  176.9840  146.7970 C   0  0  1  0  0  3  0  0  0  0  0  0
  188.0340  178.4420  144.8240 C   0  0  1  0  0  3  0  0  0  0  0  0
  191.1540  175.9920  146.6330 C   0  0  2  0  0  3  0  0  0  0  0  0
  189.0510  177.4000  145.3130 C   0  0  1  0  0  3  0  0  0  0  0  0
  186.6380  178.0940  146.9270 C   0  0  0  0  0  2  0  0  0  0  0  0
  190.1710  176.7270  147.5370 C   0  0  0  0  0  2  0  0  0  0  0  0
  185.5420  178.5250  143.3700 C   0  0  0  0  0  0  0  0  0  0  0  0
  187.9360  178.3900  143.3280 C   0  0  0  0  0  3  0  0  0  0  0  0
  188.0160  177.9900  147.5690 C   0  0  0  0  0  2  0  0  0  0  0  0
  184.3550  178.6680  141.3050 C   0  0  0  0  0  3  0  0  0  0  0  0
  185.5020  178.4460  144.7160 C   0  0  0  0  0  0  0  0  0  0  0  0
  184.3810  178.6350  142.6620 N   0  0  0  0  0  0  0  0  0  0  0  0
  192.4150  175.6610  147.4020 C   0  0  0  0  0  1  0  0  0  0  0  0
  191.5110  176.8100  145.3840 C   0  0  0  0  0  2  0  0  0  0  0  0
  186.7200  178.2780  145.4720 N   0  0  0  0  0  0  0  0  0  0  0  0
  185.5420  178.5820  140.5820 C   0  0  0  0  0  3  0  0  0  0  0  0
  186.7720  178.4610  142.6720 C   0  0  0  0  0  0  0  0  0  0  0  0
  188.0150  178.3560  140.4580 C   0  0  0  0  0  2  0  0  0  0  0  0
  187.6820  177.9540  139.0310 C   0  0  0  0  0  2  0  0  0  0  0  0
  188.7610  177.0380  138.4780 C   0  0  0  0  0  2  0  0  0  0  0  0
  190.1470  177.6490  138.6640 C   0  0  0  0  0  2  0  0  0  0  0  0
  191.0440  176.7950  139.5560 C   0  0  2  0  0  3  0  0  0  0  0  0
  190.2830  176.1010  140.4820 F   0  0  0  0  0  0  0  0  0  0  0  0
  191.6930  177.4520  141.5690 C   0  0  0  0  0  1  0  0  0  0  0  0
  191.9890  177.5890  140.2120 O   0  0  0  0  0  0  0  0  0  0  0  0
  1 20  1  0  0  0  0
  2 17  1  0  0  0  0
  4  9  1  1  0  0  0
  4 12  1  0  0  0  0
  5 11  1  6  0  0  0
  5  7  1  0  0  0  0
  5 18  1  0  0  0  0
  6 16  1  1  0  0  0
  6  9  1  0  0  0  0
  7  2  1  1  0  0  0
  7  4  1  0  0  0  0
  8 12  1  0  0  0  0
 10 14  2  0  0  0  0
 13 15  2  0  0  0  0
 14  3  1  0  0  0  0
 14 18  1  0  0  0  0
 15 10  1  0  0  0  0
 17  6  1  0  0  0  0
 18  8  1  0  0  0  0
 19  1  2  0  0  0  0
 19 13  1  0  0  0  0
 20 11  2  0  0  0  0
 20 10  1  0  0  0  0
 21  1  1  0  0  0  0
 22 21  1  0  0  0  0
 23 24  1  0  0  0  0
 23 22  1  0  0  0  0
 24 25  1  0  0  0  0
 25 28  1  0  0  0  0
 25 26  1  1  0  0  0
 28 27  1  0  0  0  0
M  END
>  <MODEL>
8

>  <REMARK>
 VINA RESULT:      -7.7      1.960      5.610
  Name = 
  6 active torsions:
  status: ('A' for Active; 'I' for Inactive)
    1  A    between atoms: C_1  and  C_2
    2  A    between atoms: C_2  and  C_3
    3  A    between atoms: C_3  and  C_8
    4  A    between atoms: C_6  and  C_11
    5  A    between atoms: C_6  and  O_28
    6  A    between atoms: C_8  and  C_11
                            x       y       z     vdW  Elec       q    Type
                         _______ _______ _______ _____ _____    ______ ____

>  <TORSDO>
F 6

$$$$
=
 OpenBabel10262420543D

 28 31  0  0  1  0  0  0  0  0999 V2000
  187.3000  178.2530  140.0890 C   0  0  0  0  0  0  0  0  0  0  0  0
  187.6490  176.9320  145.2430 C   0  0  0  0  0  2  0  0  0  0  0  0
  192.0940  177.5030  140.7660 C   0  0  0  0  0  1  0  0  0  0  0  0
  190.1170  177.5670  145.4630 C   0  0  1  0  0  3  0  0  0  0  0  0
  189.0750  176.9620  143.1740 C   0  0  1  0  0  3  0  0  0  0  0  0
  188.5510  178.0830  147.3540 C   0  0  2  0  0  3  0  0  0  0  0  0
  188.8530  177.5850  144.5600 C   0  0  1  0  0  3  0  0  0  0  0  0
  191.5920  176.9350  143.5690 C   0  0  0  0  0  2  0  0  0  0  0  0
  189.8070  177.3230  146.9430 C   0  0  0  0  0  2  0  0  0  0  0  0
  189.6640  177.8170  140.4800 C   0  0  0  0  0  0  0  0  0  0  0  0
  188.0430  177.4780  142.2160 C   0  0  0  0  0  3  0  0  0  0  0  0
  191.1540  176.5650  144.9810 C   0  0  0  0  0  2  0  0  0  0  0  0
  188.9210  178.5390  138.3300 C   0  0  0  0  0  3  0  0  0  0  0  0
  190.6900  177.4960  141.2940 C   0  0  0  0  0  0  0  0  0  0  0  0
  189.9080  178.1580  139.1820 N   0  0  0  0  0  0  0  0  0  0  0  0
  188.3050  177.9100  148.8380 C   0  0  0  0  0  1  0  0  0  0  0  0
  187.3150  177.6230  146.5690 C   0  0  0  0  0  2  0  0  0  0  0  0
  190.4480  177.1830  142.6830 N   0  0  0  0  0  0  0  0  0  0  0  0
  187.6020  178.6000  138.7720 C   0  0  0  0  0  3  0  0  0  0  0  0
  188.3310  177.8410  140.9600 C   0  0  0  0  0  0  0  0  0  0  0  0
  185.8770  178.3550  140.5460 C   0  0  0  0  0  2  0  0  0  0  0  0
  185.7730  179.3490  141.6900 C   0  0  0  0  0  2  0  0  0  0  0  0
  185.1930  178.6720  142.9220 C   0  0  0  0  0  2  0  0  0  0  0  0
  184.6310  179.7010  143.8990 C   0  0  0  0  0  2  0  0  0  0  0  0
  183.2010  179.3780  144.3250 C   0  0  2  0  0  3  0  0  0  0  0  0
  183.1890  178.2970  145.1910 F   0  0  0  0  0  0  0  0  0  0  0  0
  181.1650  178.7340  143.7380 C   0  0  0  0  0  1  0  0  0  0  0  0
  182.4020  179.1070  143.2110 O   0  0  0  0  0  0  0  0  0  0  0  0
  1 21  1  0  0  0  0
  1 20  1  0  0  0  0
  2 17  1  0  0  0  0
  3 14  1  0  0  0  0
  4 12  1  6  0  0  0
  4  9  1  0  0  0  0
  5 11  1  6  0  0  0
  5  7  1  0  0  0  0
  6 16  1  1  0  0  0
  7  2  1  1  0  0  0
  7  4  1  0  0  0  0
  8 12  1  0  0  0  0
  9  6  1  0  0  0  0
 10 20  1  0  0  0  0
 10 14  2  0  0  0  0
 13 19  1  0  0  0  0
 13 15  2  0  0  0  0
 14 18  1  0  0  0  0
 15 10  1  0  0  0  0
 17  6  1  0  0  0  0
 18  5  1  0  0  0  0
 18  8  1  0  0  0  0
 19  1  2  0  0  0  0
 20 11  2  0  0  0  0
 21 22  1  0  0  0  0
 22 23  1  0  0  0  0
 23 24  1  0  0  0  0
 24 25  1  0  0  0  0
 25 26  1  1  0  0  0
 28 27  1  0  0  0  0
 28 25  1  0  0  0  0
M  END
>  <MODEL>
9

>  <REMARK>
 VINA RESULT:      -7.6      3.046      6.815
  Name = 
  6 active torsions:
  status: ('A' for Active; 'I' for Inactive)
    1  A    between atoms: C_1  and  C_2
    2  A    between atoms: C_2  and  C_3
    3  A    between atoms: C_3  and  C_8
    4  A    between atoms: C_6  and  C_11
    5  A    between atoms: C_6  and  O_28
    6  A    between atoms: C_8  and  C_11
                            x       y       z     vdW  Elec       q    Type
                         _______ _______ _______ _____ _____    ______ ____

>  <TORSDO>
F 6

$$$$
