=
 OpenBabel10262419183D

 34 38  0  0  1  0  0  0  0  0999 V2000
  187.6370  177.4820  146.6600 C   0  0  0  0  0  0  0  0  0  0  0  0
  190.0860  177.1160  146.1050 C   0  0  2  0  0  3  0  0  0  0  0  0
  188.3100  177.4890  144.3050 C   0  0  0  0  0  0  0  0  0  0  0  0
  189.0740  176.5440  142.0930 C   0  0  0  0  0  2  0  0  0  0  0  0
  190.1660  176.1250  147.0850 O   0  0  0  0  0  1  0  0  0  0  0  0
  190.7340  177.5510  143.7210 C   0  0  2  0  0  3  0  0  0  0  0  0
  188.6410  177.3360  145.6780 C   0  0  0  0  0  0  0  0  0  0  0  0
  191.7300  177.1720  142.6270 C   0  0  0  0  0  2  0  0  0  0  0  0
  189.8140  177.1490  140.8980 C   0  0  0  0  0  2  0  0  0  0  0  0
  186.9800  177.8260  143.9390 C   0  0  0  0  0  0  0  0  0  0  0  0
  186.3150  177.7210  146.2680 C   0  0  0  0  0  3  0  0  0  0  0  0
  191.0280  176.7360  144.9650 C   0  0  0  0  0  2  0  0  0  0  0  0
  191.2220  177.6560  141.2640 C   0  0  2  0  0  3  0  0  0  0  0  0
  189.3450  177.3070  143.3150 N   0  0  0  0  0  0  0  0  0  0  0  0
  185.9920  177.8830  144.9270 C   0  0  0  0  0  3  0  0  0  0  0  0
  182.6900  178.7540  143.0620 C   0  0  0  0  0  0  0  0  0  0  0  0
  182.2920  178.6400  141.7890 C   0  0  0  0  0  3  0  0  0  0  0  0
  185.0610  178.3130  142.3210 C   0  0  2  0  0  0  0  0  0  0  0  0
  183.2140  178.2150  140.7170 C   0  0  0  0  0  3  0  0  0  0  0  0
  184.0790  178.3660  143.5000 C   0  0  0  0  0  2  0  0  0  0  0  0
  185.9980  179.4930  142.3340 C   0  0  0  0  0  2  0  0  0  0  0  0
  184.5140  178.0430  140.9560 C   0  0  0  0  0  3  0  0  0  0  0  0
  186.5650  178.0830  142.5090 C   0  0  1  0  0  3  0  0  0  0  0  0
  181.7000  179.1630  144.0920 C   0  0  0  0  0  1  0  0  0  0  0  0
  187.9670  177.3870  148.0170 O   0  0  0  0  0  0  0  0  0  0  0  0
  188.2510  178.5210  148.8250 C   0  0  0  0  0  1  0  0  0  0  0  0
  192.1620  177.4850  140.2250 O   0  0  0  0  0  0  0  0  0  0  0  0
  191.5340  176.8290  139.1500 C   0  0  0  0  0  2  0  0  0  0  0  0
  193.8440  176.4500  138.6240 O   0  0  0  0  0  1  0  0  0  0  0  0
  192.5540  176.4320  138.0820 C   0  0  1  0  0  3  0  0  0  0  0  0
  191.9610  175.2700  135.9360 C   0  0  0  0  0  1  0  0  0  0  0  0
  192.2530  175.0800  137.4140 C   0  0  0  0  0  0  0  0  0  0  0  0
  191.1580  174.4650  138.0250 O   0  0  0  0  0  1  0  0  0  0  0  0
  193.4600  174.1700  137.5400 C   0  0  0  0  0  1  0  0  0  0  0  0
  1 25  1  0  0  0  0
  2  5  1  1  0  0  0
  3  7  1  0  0  0  0
  4 14  1  0  0  0  0
  6  8  1  6  0  0  0
  6 12  1  0  0  0  0
  7  2  1  0  0  0  0
  7  1  2  0  0  0  0
  9 13  1  0  0  0  0
  9  4  1  0  0  0  0
 10  3  2  0  0  0  0
 10 15  1  0  0  0  0
 11  1  1  0  0  0  0
 12  2  1  0  0  0  0
 13 27  1  6  0  0  0
 13  8  1  0  0  0  0
 14  6  1  0  0  0  0
 14  3  1  0  0  0  0
 15 11  2  0  0  0  0
 16 20  1  0  0  0  0
 16 24  1  0  0  0  0
 17 16  2  0  0  0  0
 18 22  1  6  0  0  0
 18 21  1  0  0  0  0
 18 23  1  0  0  0  0
 18 20  1  0  0  0  0
 19 22  2  0  0  0  0
 19 17  1  0  0  0  0
 21 23  1  0  0  0  0
 23 10  1  1  0  0  0
 25 26  1  0  0  0  0
 28 27  1  0  0  0  0
 30 29  1  1  0  0  0
 30 28  1  0  0  0  0
 31 32  1  0  0  0  0
 32 34  1  0  0  0  0
 32 33  1  0  0  0  0
 32 30  1  0  0  0  0
M  END
>  <MODEL>
1

>  <REMARK>
 VINA RESULT:      -9.8      0.000      0.000
  Name = 
  6 active torsions:
  status: ('A' for Active; 'I' for Inactive)
    1  A    between atoms: C_1  and  O_6
    2  A    between atoms: O_3  and  C_13
    3  A    between atoms: O_3  and  C_29
    4  A    between atoms: C_13  and  C_33
    5  A    between atoms: C_20  and  C_33
    6  A    between atoms: C_21  and  C_28
                            x       y       z     vdW  Elec       q    Type
                         _______ _______ _______ _____ _____    ______ ____

>  <TORSDO>
F 6

$$$$
=
 OpenBabel10262419183D

 34 38  0  0  1  0  0  0  0  0999 V2000
  186.6270  178.5130  140.2600 C   0  0  0  0  0  0  0  0  0  0  0  0
  187.3980  177.8810  137.9270 C   0  0  2  0  0  3  0  0  0  0  0  0
  188.8620  177.5460  139.9950 C   0  0  0  0  0  0  0  0  0  0  0  0
  191.3000  177.4460  139.3530 C   0  0  0  0  0  2  0  0  0  0  0  0
  186.8320  179.0500  137.4160 O   0  0  0  0  0  1  0  0  0  0  0  0
  189.5090  176.5300  137.8110 C   0  0  2  0  0  3  0  0  0  0  0  0
  187.6470  178.0110  139.4230 C   0  0  0  0  0  0  0  0  0  0  0  0
  190.7160  176.2040  136.9330 C   0  0  0  0  0  2  0  0  0  0  0  0
  192.2430  176.2910  139.0120 C   0  0  0  0  0  2  0  0  0  0  0  0
  189.0180  177.5540  141.4070 C   0  0  0  0  0  0  0  0  0  0  0  0
  186.8420  178.5980  141.6400 C   0  0  0  0  0  3  0  0  0  0  0  0
  188.6460  177.5580  137.1070 C   0  0  0  0  0  2  0  0  0  0  0  0
  191.7960  175.5030  137.7660 C   0  0  2  0  0  3  0  0  0  0  0  0
  189.9040  177.0640  139.1200 N   0  0  0  0  0  0  0  0  0  0  0  0
  188.0230  178.1320  142.2020 C   0  0  0  0  0  3  0  0  0  0  0  0
  189.0580  177.3000  145.8750 C   0  0  0  0  0  0  0  0  0  0  0  0
  190.2490  177.1390  146.4640 C   0  0  0  0  0  3  0  0  0  0  0  0
  190.1740  177.0380  143.6280 C   0  0  2  0  0  0  0  0  0  0  0  0
  191.5010  177.0620  145.6850 C   0  0  0  0  0  3  0  0  0  0  0  0
  188.9260  177.5060  144.3880 C   0  0  0  0  0  2  0  0  0  0  0  0
  189.9200  175.7450  142.9000 C   0  0  0  0  0  2  0  0  0  0  0  0
  191.4820  177.0300  144.3530 C   0  0  0  0  0  3  0  0  0  0  0  0
  190.2450  177.0050  142.0970 C   0  0  1  0  0  3  0  0  0  0  0  0
  187.8420  177.3940  146.7240 C   0  0  0  0  0  1  0  0  0  0  0  0
  185.4070  178.9210  139.7070 O   0  0  0  0  0  0  0  0  0  0  0  0
  184.1590  178.7290  140.3590 C   0  0  0  0  0  1  0  0  0  0  0  0
  192.8750  175.0270  136.9920 O   0  0  0  0  0  0  0  0  0  0  0  0
  194.0240  174.9690  137.8030 C   0  0  0  0  0  2  0  0  0  0  0  0
  195.5250  175.9520  136.2100 O   0  0  0  0  0  1  0  0  0  0  0  0
  195.2830  174.7920  136.9540 C   0  0  1  0  0  3  0  0  0  0  0  0
  196.1910  174.3230  139.2480 C   0  0  0  0  0  1  0  0  0  0  0  0
  196.5240  174.3880  137.7680 C   0  0  0  0  0  0  0  0  0  0  0  0
  197.5590  175.3040  137.5680 O   0  0  0  0  0  1  0  0  0  0  0  0
  196.9930  173.0130  137.3330 C   0  0  0  0  0  1  0  0  0  0  0  0
  1 11  1  0  0  0  0
  2  5  1  6  0  0  0
  2  7  1  0  0  0  0
  3 10  2  0  0  0  0
  6  8  1  6  0  0  0
  6 14  1  0  0  0  0
  7  3  1  0  0  0  0
  7  1  2  0  0  0  0
  8 13  1  0  0  0  0
  9  4  1  0  0  0  0
 10 15  1  0  0  0  0
 11 15  2  0  0  0  0
 12  6  1  0  0  0  0
 12  2  1  0  0  0  0
 13 27  1  6  0  0  0
 13  9  1  0  0  0  0
 14  4  1  0  0  0  0
 14  3  1  0  0  0  0
 16 17  2  0  0  0  0
 16 24  1  0  0  0  0
 18 21  1  1  0  0  0
 18 22  1  0  0  0  0
 18 20  1  0  0  0  0
 19 17  1  0  0  0  0
 20 16  1  0  0  0  0
 22 19  2  0  0  0  0
 23 10  1  6  0  0  0
 23 21  1  0  0  0  0
 23 18  1  0  0  0  0
 25  1  1  0  0  0  0
 25 26  1  0  0  0  0
 27 28  1  0  0  0  0
 30 29  1  1  0  0  0
 30 32  1  0  0  0  0
 30 28  1  0  0  0  0
 32 31  1  0  0  0  0
 33 32  1  0  0  0  0
 34 32  1  0  0  0  0
M  END
>  <MODEL>
2

>  <REMARK>
 VINA RESULT:      -9.3      2.956      6.169
  Name = 
  6 active torsions:
  status: ('A' for Active; 'I' for Inactive)
    1  A    between atoms: C_1  and  O_6
    2  A    between atoms: O_3  and  C_13
    3  A    between atoms: O_3  and  C_29
    4  A    between atoms: C_13  and  C_33
    5  A    between atoms: C_20  and  C_33
    6  A    between atoms: C_21  and  C_28
                            x       y       z     vdW  Elec       q    Type
                         _______ _______ _______ _____ _____    ______ ____

>  <TORSDO>
F 6

$$$$
=
 OpenBabel10262419183D

 34 38  0  0  1  0  0  0  0  0999 V2000
  184.6610  178.6530  142.2750 C   0  0  0  0  0  0  0  0  0  0  0  0
  184.7060  178.7880  139.7420 C   0  0  2  0  0  3  0  0  0  0  0  0
  186.7750  178.2000  141.1230 C   0  0  0  0  0  0  0  0  0  0  0  0
  188.8810  178.7040  139.8280 C   0  0  0  0  0  2  0  0  0  0  0  0
  183.9030  179.9290  139.7820 O   0  0  0  0  0  1  0  0  0  0  0  0
  186.7850  177.9100  138.6450 C   0  0  2  0  0  3  0  0  0  0  0  0
  185.4050  178.5730  141.0770 C   0  0  0  0  0  0  0  0  0  0  0  0
  187.6750  178.0400  137.4110 C   0  0  0  0  0  2  0  0  0  0  0  0
  189.7690  177.8620  138.9090 C   0  0  0  0  0  2  0  0  0  0  0  0
  187.3700  177.8750  142.3710 C   0  0  0  0  0  0  0  0  0  0  0  0
  185.2950  178.4190  143.5000 C   0  0  0  0  0  3  0  0  0  0  0  0
  185.6530  178.9140  138.5490 C   0  0  0  0  0  2  0  0  0  0  0  0
  189.0230  177.3540  137.6610 C   0  0  2  0  0  3  0  0  0  0  0  0
  187.5250  178.1530  139.8900 N   0  0  0  0  0  0  0  0  0  0  0  0
  186.6310  178.0430  143.5460 C   0  0  0  0  0  3  0  0  0  0  0  0
  189.0840  177.2130  146.4520 C   0  0  0  0  0  0  0  0  0  0  0  0
  190.4160  177.1230  146.5440 C   0  0  0  0  0  3  0  0  0  0  0  0
  189.2980  177.2780  143.9390 C   0  0  2  0  0  0  0  0  0  0  0  0
  191.2910  177.2490  145.3620 C   0  0  0  0  0  3  0  0  0  0  0  0
  188.3950  177.5410  145.1520 C   0  0  0  0  0  2  0  0  0  0  0  0
  188.8740  176.0380  143.1970 C   0  0  0  0  0  2  0  0  0  0  0  0
  190.7800  177.3380  144.1340 C   0  0  0  0  0  3  0  0  0  0  0  0
  188.7970  177.3950  142.4960 C   0  0  1  0  0  3  0  0  0  0  0  0
  188.2670  177.1010  147.6890 C   0  0  0  0  0  1  0  0  0  0  0  0
  183.2970  178.9660  142.2310 O   0  0  0  0  0  0  0  0  0  0  0  0
  182.4660  178.9650  143.3850 C   0  0  0  0  0  1  0  0  0  0  0  0
  189.8390  177.2910  136.5120 O   0  0  0  0  0  0  0  0  0  0  0  0
  189.5790  176.0850  135.8360 C   0  0  0  0  0  2  0  0  0  0  0  0
  191.9780  176.0620  135.7960 O   0  0  0  0  0  1  0  0  0  0  0  0
  190.8490  175.2400  135.7200 C   0  0  1  0  0  3  0  0  0  0  0  0
  189.5690  173.4340  136.9070 C   0  0  0  0  0  1  0  0  0  0  0  0
  190.9260  174.0980  136.7470 C   0  0  0  0  0  0  0  0  0  0  0  0
  191.3510  174.5820  137.9860 O   0  0  0  0  0  1  0  0  0  0  0  0
  191.9070  173.0460  136.2660 C   0  0  0  0  0  1  0  0  0  0  0  0
  1 11  1  0  0  0  0
  2  5  1  1  0  0  0
  2  7  1  0  0  0  0
  3 10  2  0  0  0  0
  4 14  1  0  0  0  0
  6  8  1  6  0  0  0
  6 14  1  0  0  0  0
  7  3  1  0  0  0  0
  7  1  2  0  0  0  0
  8 13  1  0  0  0  0
  9  4  1  0  0  0  0
 10 15  1  0  0  0  0
 11 15  2  0  0  0  0
 12  6  1  0  0  0  0
 12  2  1  0  0  0  0
 13 27  1  6  0  0  0
 13  9  1  0  0  0  0
 14  3  1  0  0  0  0
 16 17  2  0  0  0  0
 16 24  1  0  0  0  0
 18 21  1  1  0  0  0
 18 22  1  0  0  0  0
 18 20  1  0  0  0  0
 19 17  1  0  0  0  0
 20 16  1  0  0  0  0
 22 19  2  0  0  0  0
 23 10  1  1  0  0  0
 23 21  1  0  0  0  0
 23 18  1  0  0  0  0
 25  1  1  0  0  0  0
 25 26  1  0  0  0  0
 28 27  1  0  0  0  0
 30 29  1  1  0  0  0
 30 28  1  0  0  0  0
 30 32  1  0  0  0  0
 32 31  1  0  0  0  0
 32 33  1  0  0  0  0
 34 32  1  0  0  0  0
M  END
>  <MODEL>
3

>  <REMARK>
 VINA RESULT:      -9.2      2.781      5.654
  Name = 
  6 active torsions:
  status: ('A' for Active; 'I' for Inactive)
    1  A    between atoms: C_1  and  O_6
    2  A    between atoms: O_3  and  C_13
    3  A    between atoms: O_3  and  C_29
    4  A    between atoms: C_13  and  C_33
    5  A    between atoms: C_20  and  C_33
    6  A    between atoms: C_21  and  C_28
                            x       y       z     vdW  Elec       q    Type
                         _______ _______ _______ _____ _____    ______ ____

>  <TORSDO>
F 6

$$$$
=
 OpenBabel10262419183D

 34 38  0  0  1  0  0  0  0  0999 V2000
  190.8990  176.8320  146.8180 C   0  0  0  0  0  0  0  0  0  0  0  0
  188.9860  177.8380  148.1460 C   0  0  2  0  0  3  0  0  0  0  0  0
  188.8310  177.3970  145.6330 C   0  0  0  0  0  0  0  0  0  0  0  0
  187.0730  178.8690  144.5780 C   0  0  0  0  0  2  0  0  0  0  0  0
  189.8880  178.6310  148.8570 O   0  0  0  0  0  1  0  0  0  0  0  0
  186.7910  177.9930  146.9390 C   0  0  2  0  0  3  0  0  0  0  0  0
  189.5950  177.3750  146.8310 C   0  0  0  0  0  0  0  0  0  0  0  0
  185.4830  178.7780  146.8580 C   0  0  0  0  0  2  0  0  0  0  0  0
  185.5860  178.6700  144.2810 C   0  0  0  0  0  2  0  0  0  0  0  0
  189.3730  176.8360  144.4460 C   0  0  0  0  0  0  0  0  0  0  0  0
  191.4450  176.3710  145.6150 C   0  0  0  0  0  3  0  0  0  0  0  0
  187.6820  178.6200  147.9940 C   0  0  0  0  0  2  0  0  0  0  0  0
  184.7490  178.4410  145.5550 C   0  0  2  0  0  3  0  0  0  0  0  0
  187.5120  177.9830  145.6600 N   0  0  0  0  0  0  0  0  0  0  0  0
  190.6950  176.3810  144.4470 C   0  0  0  0  0  3  0  0  0  0  0  0
  191.5240  177.5000  140.5780 C   0  0  0  0  0  0  0  0  0  0  0  0
  190.7720  177.7530  139.5000 C   0  0  0  0  0  3  0  0  0  0  0  0
  189.4200  177.0710  141.9010 C   0  0  2  0  0  0  0  0  0  0  0  0
  189.3000  177.8270  139.5760 C   0  0  0  0  0  3  0  0  0  0  0  0
  190.9250  177.3660  141.9540 C   0  0  0  0  0  2  0  0  0  0  0  0
  189.1290  175.6350  142.2520 C   0  0  0  0  0  2  0  0  0  0  0  0
  188.6520  177.5240  140.7000 C   0  0  0  0  0  3  0  0  0  0  0  0
  188.5960  176.7500  143.1530 C   0  0  1  0  0  3  0  0  0  0  0  0
  193.0030  177.4660  140.4320 C   0  0  0  0  0  1  0  0  0  0  0  0
  191.6360  176.7570  148.0060 O   0  0  0  0  0  0  0  0  0  0  0  0
  192.6980  175.8320  148.2000 C   0  0  0  0  0  1  0  0  0  0  0  0
  183.4570  179.0030  145.4800 O   0  0  0  0  0  0  0  0  0  0  0  0
  182.7090  178.2930  144.5240 C   0  0  0  0  0  2  0  0  0  0  0  0
  183.0280  178.8720  142.2170 O   0  0  0  0  0  1  0  0  0  0  0  0
  182.3000  179.2040  143.3650 C   0  0  1  0  0  3  0  0  0  0  0  0
  180.4950  178.5100  141.7620 C   0  0  0  0  0  1  0  0  0  0  0  0
  180.7890  179.2010  143.0820 C   0  0  0  0  0  0  0  0  0  0  0  0
  180.2980  180.5080  143.0370 O   0  0  0  0  0  1  0  0  0  0  0  0
  180.0660  178.4420  144.1780 C   0  0  0  0  0  1  0  0  0  0  0  0
  1  7  1  0  0  0  0
  1 25  1  0  0  0  0
  2  5  1  6  0  0  0
  3 14  1  0  0  0  0
  3  7  2  0  0  0  0
  4 14  1  0  0  0  0
  6  8  1  6  0  0  0
  6 12  1  0  0  0  0
  7  2  1  0  0  0  0
  9  4  1  0  0  0  0
  9 13  1  0  0  0  0
 10 15  2  0  0  0  0
 10  3  1  0  0  0  0
 11  1  2  0  0  0  0
 12  2  1  0  0  0  0
 13 27  1  6  0  0  0
 13  8  1  0  0  0  0
 14  6  1  0  0  0  0
 15 11  1  0  0  0  0
 16 20  1  0  0  0  0
 17 19  1  0  0  0  0
 17 16  2  0  0  0  0
 18 22  1  6  0  0  0
 18 20  1  0  0  0  0
 18 21  1  0  0  0  0
 18 23  1  0  0  0  0
 19 22  2  0  0  0  0
 21 23  1  0  0  0  0
 23 10  1  1  0  0  0
 24 16  1  0  0  0  0
 25 26  1  0  0  0  0
 28 27  1  0  0  0  0
 30 29  1  6  0  0  0
 30 28  1  0  0  0  0
 31 32  1  0  0  0  0
 32 30  1  0  0  0  0
 32 34  1  0  0  0  0
 33 32  1  0  0  0  0
M  END
>  <MODEL>
4

>  <REMARK>
 VINA RESULT:      -9.1      3.398      7.847
  Name = 
  6 active torsions:
  status: ('A' for Active; 'I' for Inactive)
    1  A    between atoms: C_1  and  O_6
    2  A    between atoms: O_3  and  C_13
    3  A    between atoms: O_3  and  C_29
    4  A    between atoms: C_13  and  C_33
    5  A    between atoms: C_20  and  C_33
    6  A    between atoms: C_21  and  C_28
                            x       y       z     vdW  Elec       q    Type
                         _______ _______ _______ _____ _____    ______ ____

>  <TORSDO>
F 6

$$$$
=
 OpenBabel10262419183D

 34 38  0  0  1  0  0  0  0  0999 V2000
  186.5960  177.8560  136.3260 C   0  0  0  0  0  0  0  0  0  0  0  0
  188.4390  178.2480  138.0260 C   0  0  2  0  0  3  0  0  0  0  0  0
  185.9940  177.9270  138.7000 C   0  0  0  0  0  0  0  0  0  0  0  0
  185.5550  178.9460  140.9660 C   0  0  0  0  0  2  0  0  0  0  0  0
  189.0140  179.2070  137.1900 O   0  0  0  0  0  1  0  0  0  0  0  0
  187.7950  177.8920  140.4250 C   0  0  2  0  0  3  0  0  0  0  0  0
  186.9720  178.0370  137.6750 C   0  0  0  0  0  0  0  0  0  0  0  0
  188.1110  178.3110  141.8600 C   0  0  0  0  0  2  0  0  0  0  0  0
  185.5850  178.3820  142.3880 C   0  0  0  0  0  2  0  0  0  0  0  0
  184.6550  177.5970  138.3560 C   0  0  0  0  0  0  0  0  0  0  0  0
  185.2540  177.6250  136.0070 C   0  0  0  0  0  3  0  0  0  0  0  0
  188.6850  178.6690  139.4740 C   0  0  0  0  0  2  0  0  0  0  0  0
  186.9800  177.8690  142.7960 C   0  0  2  0  0  3  0  0  0  0  0  0
  186.3930  178.1450  140.0700 N   0  0  0  0  0  0  0  0  0  0  0  0
  184.2980  177.5050  137.0080 C   0  0  0  0  0  3  0  0  0  0  0  0
  181.3680  180.6150  138.7040 C   0  0  0  0  0  0  0  0  0  0  0  0
  180.6350  180.5870  139.8230 C   0  0  0  0  0  3  0  0  0  0  0  0
  182.5480  178.5200  139.4700 C   0  0  2  0  0  0  0  0  0  0  0  0
  180.8980  179.6200  140.9060 C   0  0  0  0  0  3  0  0  0  0  0  0
  182.5680  179.7230  138.5160 C   0  0  0  0  0  2  0  0  0  0  0  0
  182.1960  177.2490  138.7420 C   0  0  0  0  0  2  0  0  0  0  0  0
  181.8040  178.6540  140.7600 C   0  0  0  0  0  3  0  0  0  0  0  0
  183.5750  177.3850  139.3900 C   0  0  1  0  0  3  0  0  0  0  0  0
  181.0610  181.6330  137.6660 C   0  0  0  0  0  1  0  0  0  0  0  0
  187.5650  177.9080  135.3170 O   0  0  0  0  0  0  0  0  0  0  0  0
  188.1320  176.7450  134.7280 C   0  0  0  0  0  1  0  0  0  0  0  0
  187.2720  178.0770  144.1610 O   0  0  0  0  0  0  0  0  0  0  0  0
  188.2260  177.1260  144.5690 C   0  0  0  0  0  2  0  0  0  0  0  0
  189.2900  177.3020  146.7130 O   0  0  0  0  0  1  0  0  0  0  0  0
  189.3290  177.7830  145.3990 C   0  0  1  0  0  3  0  0  0  0  0  0
  190.7780  176.4290  143.8570 C   0  0  0  0  0  1  0  0  0  0  0  0
  190.7340  177.6240  144.7940 C   0  0  0  0  0  0  0  0  0  0  0  0
  191.6850  177.4550  145.8020 O   0  0  0  0  0  1  0  0  0  0  0  0
  191.0850  178.8610  143.9900 C   0  0  0  0  0  1  0  0  0  0  0  0
  1  7  1  0  0  0  0
  2  5  1  6  0  0  0
  2 12  1  0  0  0  0
  3 14  1  0  0  0  0
  4  9  1  0  0  0  0
  6 12  1  6  0  0  0
  6  8  1  0  0  0  0
  7  2  1  0  0  0  0
  7  3  2  0  0  0  0
  8 13  1  0  0  0  0
  9 13  1  0  0  0  0
 10  3  1  0  0  0  0
 11  1  2  0  0  0  0
 11 15  1  0  0  0  0
 13 27  1  1  0  0  0
 14  6  1  0  0  0  0
 14  4  1  0  0  0  0
 15 10  2  0  0  0  0
 16 17  2  0  0  0  0
 17 19  1  0  0  0  0
 18 20  1  6  0  0  0
 18 22  1  0  0  0  0
 20 16  1  0  0  0  0
 21 23  1  0  0  0  0
 21 18  1  0  0  0  0
 22 19  2  0  0  0  0
 23 10  1  6  0  0  0
 23 18  1  0  0  0  0
 24 16  1  0  0  0  0
 25  1  1  0  0  0  0
 26 25  1  0  0  0  0
 27 28  1  0  0  0  0
 28 30  1  0  0  0  0
 30 29  1  1  0  0  0
 31 32  1  0  0  0  0
 32 30  1  0  0  0  0
 32 33  1  0  0  0  0
 34 32  1  0  0  0  0
M  END
>  <MODEL>
5

>  <REMARK>
 VINA RESULT:      -8.8      3.060      7.298
  Name = 
  6 active torsions:
  status: ('A' for Active; 'I' for Inactive)
    1  A    between atoms: C_1  and  O_6
    2  A    between atoms: O_3  and  C_13
    3  A    between atoms: O_3  and  C_29
    4  A    between atoms: C_13  and  C_33
    5  A    between atoms: C_20  and  C_33
    6  A    between atoms: C_21  and  C_28
                            x       y       z     vdW  Elec       q    Type
                         _______ _______ _______ _____ _____    ______ ____

>  <TORSDO>
F 6

$$$$
=
 OpenBabel10262419183D

 34 38  0  0  1  0  0  0  0  0999 V2000
  191.5360  176.8810  139.9770 C   0  0  0  0  0  0  0  0  0  0  0  0
  189.4500  177.0050  138.5380 C   0  0  2  0  0  3  0  0  0  0  0  0
  189.4600  177.6790  141.0030 C   0  0  0  0  0  0  0  0  0  0  0  0
  187.1330  177.5450  141.9710 C   0  0  0  0  0  2  0  0  0  0  0  0
  189.7780  175.7830  137.9470 O   0  0  0  0  0  1  0  0  0  0  0  0
  187.5010  178.2130  139.5550 C   0  0  2  0  0  3  0  0  0  0  0  0
  190.1560  177.1630  139.8770 C   0  0  0  0  0  0  0  0  0  0  0  0
  185.9760  178.3060  139.5600 C   0  0  0  0  0  2  0  0  0  0  0  0
  186.0070  178.5670  142.1270 C   0  0  0  0  0  2  0  0  0  0  0  0
  190.1710  177.9440  142.2050 C   0  0  0  0  0  0  0  0  0  0  0  0
  192.1930  177.0620  141.1990 C   0  0  0  0  0  3  0  0  0  0  0  0
  187.9280  177.1050  138.6130 C   0  0  0  0  0  2  0  0  0  0  0  0
  185.5040  179.1110  140.7760 C   0  0  2  0  0  3  0  0  0  0  0  0
  188.0430  177.9320  140.8900 N   0  0  0  0  0  0  0  0  0  0  0  0
  191.5170  177.5780  142.2970 C   0  0  0  0  0  3  0  0  0  0  0  0
  191.2220  176.3770  146.2630 C   0  0  0  0  0  0  0  0  0  0  0  0
  190.4010  176.6990  147.2700 C   0  0  0  0  0  3  0  0  0  0  0  0
  189.8980  177.8970  144.7450 C   0  0  2  0  0  0  0  0  0  0  0  0
  189.1940  177.5210  147.0600 C   0  0  0  0  0  3  0  0  0  0  0  0
  190.9180  176.7530  144.8360 C   0  0  0  0  0  2  0  0  0  0  0  0
  190.5590  179.1920  144.3510 C   0  0  0  0  0  2  0  0  0  0  0  0
  188.9360  178.0770  145.8760 C   0  0  0  0  0  3  0  0  0  0  0  0
  189.5220  178.5650  143.4190 C   0  0  1  0  0  3  0  0  0  0  0  0
  192.4070  175.5240  146.5440 C   0  0  0  0  0  1  0  0  0  0  0  0
  192.2390  176.4250  138.8550 O   0  0  0  0  0  0  0  0  0  0  0  0
  193.5970  176.7600  138.6050 C   0  0  0  0  0  1  0  0  0  0  0  0
  184.1180  179.3780  140.7650 O   0  0  0  0  0  0  0  0  0  0  0  0
  183.5040  178.6230  141.7820 C   0  0  0  0  0  2  0  0  0  0  0  0
  181.3660  177.7440  141.1370 O   0  0  0  0  0  1  0  0  0  0  0  0
  181.9880  178.8260  141.7710 C   0  0  1  0  0  3  0  0  0  0  0  0
  180.3630  177.9980  143.4990 C   0  0  0  0  0  1  0  0  0  0  0  0
  181.3880  179.0690  143.1660 C   0  0  0  0  0  0  0  0  0  0  0  0
  180.7790  180.3240  143.2250 O   0  0  0  0  0  1  0  0  0  0  0  0
  182.4860  179.0060  144.2110 C   0  0  0  0  0  1  0  0  0  0  0  0
  1 11  1  0  0  0  0
  2  5  1  1  0  0  0
  2 12  1  0  0  0  0
  2  7  1  0  0  0  0
  3 10  2  0  0  0  0
  4  9  1  0  0  0  0
  6 12  1  6  0  0  0
  6  8  1  0  0  0  0
  6 14  1  0  0  0  0
  7  1  2  0  0  0  0
  7  3  1  0  0  0  0
  8 13  1  0  0  0  0
 10 15  1  0  0  0  0
 11 15  2  0  0  0  0
 13 27  1  1  0  0  0
 13  9  1  0  0  0  0
 14  3  1  0  0  0  0
 14  4  1  0  0  0  0
 16 24  1  0  0  0  0
 16 17  2  0  0  0  0
 18 21  1  1  0  0  0
 18 20  1  0  0  0  0
 18 22  1  0  0  0  0
 19 17  1  0  0  0  0
 20 16  1  0  0  0  0
 22 19  2  0  0  0  0
 23 10  1  6  0  0  0
 23 21  1  0  0  0  0
 23 18  1  0  0  0  0
 25  1  1  0  0  0  0
 26 25  1  0  0  0  0
 27 28  1  0  0  0  0
 30 29  1  1  0  0  0
 30 28  1  0  0  0  0
 30 32  1  0  0  0  0
 32 33  1  0  0  0  0
 32 31  1  0  0  0  0
 32 34  1  0  0  0  0
M  END
>  <MODEL>
6

>  <REMARK>
 VINA RESULT:      -8.7      3.070      8.588
  Name = 
  6 active torsions:
  status: ('A' for Active; 'I' for Inactive)
    1  A    between atoms: C_1  and  O_6
    2  A    between atoms: O_3  and  C_13
    3  A    between atoms: O_3  and  C_29
    4  A    between atoms: C_13  and  C_33
    5  A    between atoms: C_20  and  C_33
    6  A    between atoms: C_21  and  C_28
                            x       y       z     vdW  Elec       q    Type
                         _______ _______ _______ _____ _____    ______ ____

>  <TORSDO>
F 6

$$$$
=
 OpenBabel10262419183D

 34 38  0  0  1  0  0  0  0  0999 V2000
  185.1440  178.6400  138.5670 C   0  0  0  0  0  0  0  0  0  0  0  0
  185.2060  178.6050  141.1040 C   0  0  2  0  0  3  0  0  0  0  0  0
  187.2940  178.2450  139.6730 C   0  0  0  0  0  0  0  0  0  0  0  0
  189.0540  176.9840  140.9690 C   0  0  0  0  0  2  0  0  0  0  0  0
  184.0090  177.8870  141.1290 O   0  0  0  0  0  1  0  0  0  0  0  0
  187.4950  178.6080  142.1330 C   0  0  2  0  0  3  0  0  0  0  0  0
  185.8920  178.4620  139.7520 C   0  0  0  0  0  0  0  0  0  0  0  0
  188.2930  178.1790  143.3630 C   0  0  0  0  0  2  0  0  0  0  0  0
  190.2340  177.4310  141.8350 C   0  0  0  0  0  2  0  0  0  0  0  0
  187.9330  178.2490  138.4040 C   0  0  0  0  0  0  0  0  0  0  0  0
  185.7820  178.5470  137.3260 C   0  0  0  0  0  3  0  0  0  0  0  0
  186.0570  178.1550  142.2910 C   0  0  0  0  0  2  0  0  0  0  0  0
  189.7950  178.2490  143.0640 C   0  0  2  0  0  3  0  0  0  0  0  0
  188.0350  178.0350  140.8940 N   0  0  0  0  0  0  0  0  0  0  0  0
  187.1540  178.3470  137.2470 C   0  0  0  0  0  3  0  0  0  0  0  0
  189.5860  174.3370  136.9900 C   0  0  0  0  0  0  0  0  0  0  0  0
  190.8940  174.1280  137.1770 C   0  0  0  0  0  3  0  0  0  0  0  0
  189.8810  176.6990  137.8260 C   0  0  2  0  0  0  0  0  0  0  0  0
  191.7590  175.1280  137.8330 C   0  0  0  0  0  3  0  0  0  0  0  0
  188.8920  175.5670  137.5180 C   0  0  0  0  0  2  0  0  0  0  0  0
  189.8050  177.7910  136.7920 C   0  0  0  0  0  2  0  0  0  0  0  0
  191.2930  176.3340  138.1570 C   0  0  0  0  0  3  0  0  0  0  0  0
  189.4270  178.1030  138.2400 C   0  0  1  0  0  3  0  0  0  0  0  0
  188.7710  173.2750  136.3460 C   0  0  0  0  0  1  0  0  0  0  0  0
  183.7720  178.9110  138.6410 O   0  0  0  0  0  0  0  0  0  0  0  0
  182.8100  178.2530  137.8280 C   0  0  0  0  0  1  0  0  0  0  0  0
  190.6010  178.0220  144.2000 O   0  0  0  0  0  0  0  0  0  0  0  0
  189.8550  178.3320  145.3530 C   0  0  0  0  0  2  0  0  0  0  0  0
  191.0980  176.9850  146.9030 O   0  0  0  0  0  1  0  0  0  0  0  0
  189.8350  177.1490  146.3230 C   0  0  1  0  0  3  0  0  0  0  0  0
  189.1410  178.2530  148.4690 C   0  0  0  0  0  1  0  0  0  0  0  0
  188.7410  177.2520  147.3990 C   0  0  0  0  0  0  0  0  0  0  0  0
  188.5190  176.0080  147.9910 O   0  0  0  0  0  1  0  0  0  0  0  0
  187.4490  177.7340  146.7670 C   0  0  0  0  0  1  0  0  0  0  0  0
  1 25  1  0  0  0  0
  1  7  1  0  0  0  0
  2  5  1  6  0  0  0
  2 12  1  0  0  0  0
  3  7  2  0  0  0  0
  3 14  1  0  0  0  0
  4  9  1  0  0  0  0
  6 12  1  1  0  0  0
  6  8  1  0  0  0  0
  7  2  1  0  0  0  0
  9 13  1  0  0  0  0
 10  3  1  0  0  0  0
 11  1  2  0  0  0  0
 13  8  1  0  0  0  0
 13 27  1  1  0  0  0
 14  4  1  0  0  0  0
 14  6  1  0  0  0  0
 15 11  1  0  0  0  0
 15 10  2  0  0  0  0
 16 17  2  0  0  0  0
 16 20  1  0  0  0  0
 17 19  1  0  0  0  0
 18 21  1  6  0  0  0
 18 22  1  0  0  0  0
 18 23  1  0  0  0  0
 19 22  2  0  0  0  0
 20 18  1  0  0  0  0
 21 23  1  0  0  0  0
 23 10  1  6  0  0  0
 24 16  1  0  0  0  0
 26 25  1  0  0  0  0
 27 28  1  0  0  0  0
 28 30  1  0  0  0  0
 30 29  1  1  0  0  0
 30 32  1  0  0  0  0
 32 33  1  0  0  0  0
 32 31  1  0  0  0  0
 34 32  1  0  0  0  0
M  END
>  <MODEL>
7

>  <REMARK>
 VINA RESULT:      -8.7      3.005      8.087
  Name = 
  6 active torsions:
  status: ('A' for Active; 'I' for Inactive)
    1  A    between atoms: C_1  and  O_6
    2  A    between atoms: O_3  and  C_13
    3  A    between atoms: O_3  and  C_29
    4  A    between atoms: C_13  and  C_33
    5  A    between atoms: C_20  and  C_33
    6  A    between atoms: C_21  and  C_28
                            x       y       z     vdW  Elec       q    Type
                         _______ _______ _______ _____ _____    ______ ____

>  <TORSDO>
F 6

$$$$
=
 OpenBabel10262419183D

 34 38  0  0  1  0  0  0  0  0999 V2000
  191.5300  176.9980  139.8400 C   0  0  0  0  0  0  0  0  0  0  0  0
  189.3340  177.0660  138.5710 C   0  0  2  0  0  3  0  0  0  0  0  0
  189.5270  177.7660  141.0210 C   0  0  0  0  0  0  0  0  0  0  0  0
  187.2880  177.5960  142.1740 C   0  0  0  0  0  2  0  0  0  0  0  0
  189.6380  175.8450  137.9670 O   0  0  0  0  0  1  0  0  0  0  0  0
  187.4480  178.2470  139.7300 C   0  0  2  0  0  3  0  0  0  0  0  0
  190.1410  177.2510  139.8480 C   0  0  0  0  0  0  0  0  0  0  0  0
  185.9270  178.3100  139.8570 C   0  0  0  0  0  2  0  0  0  0  0  0
  186.1570  178.5980  142.4110 C   0  0  0  0  0  2  0  0  0  0  0  0
  190.3260  178.0570  142.1600 C   0  0  0  0  0  0  0  0  0  0  0  0
  192.2790  177.2050  141.0030 C   0  0  0  0  0  3  0  0  0  0  0  0
  187.8200  177.1370  138.7670 C   0  0  0  0  0  2  0  0  0  0  0  0
  185.5370  179.1180  141.1000 C   0  0  2  0  0  3  0  0  0  0  0  0
  188.1010  177.9900  141.0200 N   0  0  0  0  0  0  0  0  0  0  0  0
  191.6830  177.7190  142.1470 C   0  0  0  0  0  3  0  0  0  0  0  0
  191.3220  176.2190  146.1170 C   0  0  0  0  0  0  0  0  0  0  0  0
  190.5570  176.5680  147.1580 C   0  0  0  0  0  3  0  0  0  0  0  0
  190.1080  177.9190  144.7030 C   0  0  2  0  0  0  0  0  0  0  0  0
  189.4240  177.5030  147.0170 C   0  0  0  0  0  3  0  0  0  0  0  0
  191.0210  176.6860  144.7160 C   0  0  0  0  0  2  0  0  0  0  0  0
  190.8740  179.1660  144.3470 C   0  0  0  0  0  2  0  0  0  0  0  0
  189.1920  178.1330  145.8650 C   0  0  0  0  0  3  0  0  0  0  0  0
  189.7630  178.6780  143.4170 C   0  0  1  0  0  3  0  0  0  0  0  0
  192.4300  175.2520  146.3290 C   0  0  0  0  0  1  0  0  0  0  0  0
  192.1500  176.5430  138.6690 O   0  0  0  0  0  0  0  0  0  0  0  0
  193.5540  176.3500  138.5640 C   0  0  0  0  0  1  0  0  0  0  0  0
  184.1490  179.3570  141.1970 O   0  0  0  0  0  0  0  0  0  0  0  0
  183.4630  178.1580  140.9280 C   0  0  0  0  0  2  0  0  0  0  0  0
  182.2610  179.7220  139.5610 O   0  0  0  0  0  1  0  0  0  0  0  0
  182.2240  178.4200  140.0720 C   0  0  1  0  0  3  0  0  0  0  0  0
  182.9770  177.6640  137.7980 C   0  0  0  0  0  1  0  0  0  0  0  0
  182.0220  177.3900  138.9470 C   0  0  0  0  0  0  0  0  0  0  0  0
  180.7090  177.4320  138.4750 O   0  0  0  0  0  1  0  0  0  0  0  0
  182.3110  175.9980  139.4740 C   0  0  0  0  0  1  0  0  0  0  0  0
  1  7  2  0  0  0  0
  1 11  1  0  0  0  0
  2  5  1  1  0  0  0
  2 12  1  0  0  0  0
  2  7  1  0  0  0  0
  3 10  2  0  0  0  0
  4  9  1  0  0  0  0
  6 12  1  6  0  0  0
  6  8  1  0  0  0  0
  6 14  1  0  0  0  0
  7  3  1  0  0  0  0
  8 13  1  0  0  0  0
 11 15  2  0  0  0  0
 13 27  1  1  0  0  0
 13  9  1  0  0  0  0
 14  3  1  0  0  0  0
 14  4  1  0  0  0  0
 15 10  1  0  0  0  0
 16 24  1  0  0  0  0
 16 17  2  0  0  0  0
 18 21  1  1  0  0  0
 18 20  1  0  0  0  0
 18 22  1  0  0  0  0
 19 17  1  0  0  0  0
 20 16  1  0  0  0  0
 22 19  2  0  0  0  0
 23 10  1  6  0  0  0
 23 21  1  0  0  0  0
 23 18  1  0  0  0  0
 25  1  1  0  0  0  0
 26 25  1  0  0  0  0
 28 27  1  0  0  0  0
 30 29  1  6  0  0  0
 30 28  1  0  0  0  0
 31 32  1  0  0  0  0
 32 34  1  0  0  0  0
 32 30  1  0  0  0  0
 33 32  1  0  0  0  0
M  END
>  <MODEL>
8

>  <REMARK>
 VINA RESULT:      -8.6      3.335      8.083
  Name = 
  6 active torsions:
  status: ('A' for Active; 'I' for Inactive)
    1  A    between atoms: C_1  and  O_6
    2  A    between atoms: O_3  and  C_13
    3  A    between atoms: O_3  and  C_29
    4  A    between atoms: C_13  and  C_33
    5  A    between atoms: C_20  and  C_33
    6  A    between atoms: C_21  and  C_28
                            x       y       z     vdW  Elec       q    Type
                         _______ _______ _______ _____ _____    ______ ____

>  <TORSDO>
F 6

$$$$
=
 OpenBabel10262419183D

 34 38  0  0  1  0  0  0  0  0999 V2000
  185.4790  178.3110  143.7040 C   0  0  0  0  0  0  0  0  0  0  0  0
  187.8350  177.7880  142.9220 C   0  0  2  0  0  3  0  0  0  0  0  0
  185.9630  178.4370  141.3070 C   0  0  0  0  0  0  0  0  0  0  0  0
  186.4650  177.5990  138.9800 C   0  0  0  0  0  2  0  0  0  0  0  0
  187.9050  176.7240  143.8230 O   0  0  0  0  0  1  0  0  0  0  0  0
  188.3300  178.3440  140.5250 C   0  0  2  0  0  3  0  0  0  0  0  0
  186.3860  178.1560  142.6340 C   0  0  0  0  0  0  0  0  0  0  0  0
  189.2000  177.9650  139.3280 C   0  0  0  0  0  2  0  0  0  0  0  0
  187.1580  178.2280  137.7710 C   0  0  0  0  0  2  0  0  0  0  0  0
  184.6430  178.9080  141.0780 C   0  0  0  0  0  0  0  0  0  0  0  0
  184.1570  178.6860  143.4430 C   0  0  0  0  0  3  0  0  0  0  0  0
  188.6480  177.4170  141.6820 C   0  0  0  0  0  2  0  0  0  0  0  0
  188.6300  178.5890  138.0480 C   0  0  2  0  0  3  0  0  0  0  0  0
  186.8970  178.2440  140.2230 N   0  0  0  0  0  0  0  0  0  0  0  0
  183.7450  178.9730  142.1480 C   0  0  0  0  0  3  0  0  0  0  0  0
  181.6880  176.2600  139.0070 C   0  0  0  0  0  0  0  0  0  0  0  0
  181.5250  176.4450  137.6920 C   0  0  0  0  0  3  0  0  0  0  0  0
  183.1940  178.2830  139.0670 C   0  0  2  0  0  0  0  0  0  0  0  0
  182.2900  177.4620  136.9450 C   0  0  0  0  0  3  0  0  0  0  0  0
  182.7280  177.0140  139.7940 C   0  0  0  0  0  2  0  0  0  0  0  0
  182.6270  179.5230  139.7080 C   0  0  0  0  0  2  0  0  0  0  0  0
  183.0900  178.3220  137.5760 C   0  0  0  0  0  3  0  0  0  0  0  0
  184.1400  179.3030  139.7090 C   0  0  1  0  0  3  0  0  0  0  0  0
  180.9010  175.2000  139.6890 C   0  0  0  0  0  1  0  0  0  0  0  0
  185.9060  178.0890  145.0200 O   0  0  0  0  0  0  0  0  0  0  0  0
  185.6090  178.9770  146.0890 C   0  0  0  0  0  1  0  0  0  0  0  0
  189.4670  178.4190  136.9250 O   0  0  0  0  0  0  0  0  0  0  0  0
  189.0240  177.2990  136.1960 C   0  0  0  0  0  2  0  0  0  0  0  0
  191.3230  176.7570  136.6170 O   0  0  0  0  0  1  0  0  0  0  0  0
  190.1410  176.2660  136.0510 C   0  0  1  0  0  3  0  0  0  0  0  0
  188.2790  174.7420  136.7710 C   0  0  0  0  0  1  0  0  0  0  0  0
  189.7840  174.8850  136.6260 C   0  0  0  0  0  0  0  0  0  0  0  0
  190.3860  174.7040  137.8730 O   0  0  0  0  0  1  0  0  0  0  0  0
  190.2690  173.8000  135.6840 C   0  0  0  0  0  1  0  0  0  0  0  0
  1 25  1  0  0  0  0
  2  5  1  1  0  0  0
  3  7  1  0  0  0  0
  4 14  1  0  0  0  0
  6  8  1  6  0  0  0
  6 12  1  0  0  0  0
  7  2  1  0  0  0  0
  7  1  2  0  0  0  0
  9 13  1  0  0  0  0
  9  4  1  0  0  0  0
 10  3  2  0  0  0  0
 10 15  1  0  0  0  0
 11  1  1  0  0  0  0
 12  2  1  0  0  0  0
 13 27  1  6  0  0  0
 13  8  1  0  0  0  0
 14  6  1  0  0  0  0
 14  3  1  0  0  0  0
 15 11  2  0  0  0  0
 16 24  1  0  0  0  0
 16 20  1  0  0  0  0
 17 16  2  0  0  0  0
 18 22  1  6  0  0  0
 18 21  1  0  0  0  0
 18 23  1  0  0  0  0
 18 20  1  0  0  0  0
 19 22  2  0  0  0  0
 19 17  1  0  0  0  0
 21 23  1  0  0  0  0
 23 10  1  1  0  0  0
 25 26  1  0  0  0  0
 28 27  1  0  0  0  0
 30 28  1  0  0  0  0
 30 29  1  1  0  0  0
 30 32  1  0  0  0  0
 32 31  1  0  0  0  0
 32 33  1  0  0  0  0
 34 32  1  0  0  0  0
M  END
>  <MODEL>
9

>  <REMARK>
 VINA RESULT:      -8.6      2.699      3.965
  Name = 
  6 active torsions:
  status: ('A' for Active; 'I' for Inactive)
    1  A    between atoms: C_1  and  O_6
    2  A    between atoms: O_3  and  C_13
    3  A    between atoms: O_3  and  C_29
    4  A    between atoms: C_13  and  C_33
    5  A    between atoms: C_20  and  C_33
    6  A    between atoms: C_21  and  C_28
                            x       y       z     vdW  Elec       q    Type
                         _______ _______ _______ _____ _____    ______ ____

>  <TORSDO>
F 6

$$$$
