=
 OpenBabel10262419303D

 31 35  0  0  0  0  0  0  0  0999 V2000
  185.6140  178.4510  144.3800 C   0  0  0  0  0  0  0  0  0  0  0  0
  189.1780  177.2670  144.1110 C   0  0  0  0  0  0  0  0  0  0  0  0
  189.7130  177.2370  145.4360 C   0  0  0  0  0  0  0  0  0  0  0  0
  188.9860  176.7610  138.8740 O   0  0  0  0  0  0  0  0  0  0  0  0
  190.1370  176.4310  139.2680 C   0  0  0  0  0  0  0  0  0  0  0  0
  189.5420  177.5530  147.8450 C   0  0  0  0  0  0  0  0  0  0  0  0
  187.8470  177.6620  143.7820 C   0  0  0  0  0  0  0  0  0  0  0  0
  185.2320  178.4300  143.0390 C   0  0  0  0  0  3  0  0  0  0  0  0
  188.9730  177.6000  146.5730 C   0  0  0  0  0  3  0  0  0  0  0  0
  189.5790  176.8780  141.7250 C   0  0  0  0  0  0  0  0  0  0  0  0
  184.7300  178.8410  145.3290 F   0  0  0  0  0  0  0  0  0  0  0  0
  191.8330  176.4540  144.5530 C   0  0  0  0  0  3  0  0  0  0  0  0
  188.8150  177.9060  148.9310 F   0  0  0  0  0  0  0  0  0  0  0  0
  188.3050  177.2610  141.4540 N   0  0  0  0  0  0  0  0  0  0  0  0
  190.0390  176.8730  143.0490 C   0  0  0  0  0  0  0  0  0  0  0  0
  190.4600  176.4780  140.6660 N   0  0  0  0  0  2  0  0  0  0  0  0
  186.9070  178.0720  144.7450 C   0  0  0  0  0  3  0  0  0  0  0  0
  190.8640  177.1400  147.9860 C   0  0  0  0  0  3  0  0  0  0  0  0
  187.4420  177.6470  142.4230 C   0  0  0  0  0  0  0  0  0  0  0  0
  186.1460  178.0270  142.0630 C   0  0  0  0  0  3  0  0  0  0  0  0
  191.3180  176.4850  143.3020 N   0  0  0  0  0  0  0  0  0  0  0  0
  191.0520  176.8250  145.6400 C   0  0  0  0  0  0  0  0  0  0  0  0
  191.5850  176.7870  146.8900 N   0  0  0  0  0  0  0  0  0  0  0  0
  193.1770  175.2400  136.4800 C   0  0  0  0  0  0  0  0  0  0  0  0
  192.3410  176.7500  138.1720 C   0  0  0  0  0  3  0  0  0  0  0  0
  189.8690  174.0510  137.5700 O   0  0  0  0  0  1  0  0  0  0  0  0
  194.1460  174.8780  135.6050 F   0  0  0  0  0  0  0  0  0  0  0  0
  193.3410  176.3780  137.2700 C   0  0  0  0  0  3  0  0  0  0  0  0
  191.0090  174.8410  137.4910 C   0  0  0  0  0  0  0  0  0  0  0  0
  191.1660  175.9920  138.2960 C   0  0  0  0  0  0  0  0  0  0  0  0
  192.0150  174.4750  136.5900 C   0  0  0  0  0  3  0  0  0  0  0  0
  1 17  1  0  0  0  0
  1 11  1  0  0  0  0
  2  3  1  0  0  0  0
  3 22  2  0  0  0  0
  3  9  1  0  0  0  0
  4  5  2  0  0  0  0
  5 16  1  0  0  0  0
  6 18  1  0  0  0  0
  6 13  1  0  0  0  0
  7  2  1  0  0  0  0
  7 17  2  0  0  0  0
  8  1  2  0  0  0  0
  9  6  2  0  0  0  0
 10 15  1  0  0  0  0
 12 22  1  0  0  0  0
 14 10  2  0  0  0  0
 14 19  1  0  0  0  0
 15 21  1  0  0  0  0
 15  2  2  0  0  0  0
 16 10  1  0  0  0  0
 19  7  1  0  0  0  0
 20 19  2  0  0  0  0
 20  8  1  0  0  0  0
 21 12  2  0  0  0  0
 22 23  1  0  0  0  0
 23 18  2  0  0  0  0
 24 31  2  0  0  0  0
 24 28  1  0  0  0  0
 25 30  1  0  0  0  0
 27 24  1  0  0  0  0
 28 25  2  0  0  0  0
 29 26  1  0  0  0  0
 29 30  2  0  0  0  0
 30  5  1  0  0  0  0
 31 29  1  0  0  0  0
M  END
>  <MODEL>
1

>  <REMARK>
 VINA RESULT:     -11.1      0.000      0.000
  Name = 
  1 active torsions:
  status: ('A' for Active; 'I' for Inactive)
    1  A    between atoms: C_9  and  C_22
                            x       y       z     vdW  Elec       q    Type
                         _______ _______ _______ _____ _____    ______ ____

>  <TORSDO>
F 1

$$$$
=
 OpenBabel10262419303D

 31 35  0  0  0  0  0  0  0  0999 V2000
  184.5950  178.7180  145.4270 C   0  0  0  0  0  0  0  0  0  0  0  0
  188.0180  177.7270  144.2130 C   0  0  0  0  0  0  0  0  0  0  0  0
  188.8310  177.5160  145.3700 C   0  0  0  0  0  0  0  0  0  0  0  0
  186.6850  178.0200  139.1280 O   0  0  0  0  0  0  0  0  0  0  0  0
  187.8950  177.6780  139.2070 C   0  0  0  0  0  0  0  0  0  0  0  0
  189.1900  177.4540  147.7780 C   0  0  0  0  0  0  0  0  0  0  0  0
  186.6450  178.1170  144.2450 C   0  0  0  0  0  0  0  0  0  0  0  0
  183.9280  178.8870  144.2140 C   0  0  0  0  0  3  0  0  0  0  0  0
  188.3560  177.6730  146.6820 C   0  0  0  0  0  3  0  0  0  0  0  0
  187.8870  177.7230  141.7660 C   0  0  0  0  0  0  0  0  0  0  0  0
  183.9380  178.9240  146.5940 F   0  0  0  0  0  0  0  0  0  0  0  0
  190.7090  176.9590  143.9380 C   0  0  0  0  0  3  0  0  0  0  0  0
  188.7180  177.6090  149.0370 F   0  0  0  0  0  0  0  0  0  0  0  0
  186.5840  178.0930  141.8390 N   0  0  0  0  0  0  0  0  0  0  0  0
  188.6270  177.5330  142.9410 C   0  0  0  0  0  0  0  0  0  0  0  0
  188.5170  177.5240  140.4920 N   0  0  0  0  0  2  0  0  0  0  0  0
  185.9380  178.3380  145.4400 C   0  0  0  0  0  3  0  0  0  0  0  0
  190.5130  177.0760  147.5630 C   0  0  0  0  0  3  0  0  0  0  0  0
  185.9520  178.2930  143.0200 C   0  0  0  0  0  0  0  0  0  0  0  0
  184.6070  178.6740  143.0130 C   0  0  0  0  0  3  0  0  0  0  0  0
  189.9320  177.1620  142.8480 N   0  0  0  0  0  0  0  0  0  0  0  0
  190.1830  177.1300  145.2120 C   0  0  0  0  0  0  0  0  0  0  0  0
  190.9770  176.9220  146.2960 N   0  0  0  0  0  0  0  0  0  0  0  0
  190.2330  176.8830  135.6940 C   0  0  0  0  0  0  0  0  0  0  0  0
  189.5410  176.3180  137.9400 C   0  0  0  0  0  3  0  0  0  0  0  0
  187.7920  179.3940  136.8270 O   0  0  0  0  0  1  0  0  0  0  0  0
  190.9770  176.6180  134.5940 F   0  0  0  0  0  0  0  0  0  0  0  0
  190.3090  176.0440  136.8060 C   0  0  0  0  0  3  0  0  0  0  0  0
  188.6180  178.2770  136.8480 C   0  0  0  0  0  0  0  0  0  0  0  0
  188.6880  177.4330  137.9800 C   0  0  0  0  0  0  0  0  0  0  0  0
  189.3910  177.9960  135.7160 C   0  0  0  0  0  3  0  0  0  0  0  0
  1 17  1  0  0  0  0
  1 11  1  0  0  0  0
  2  7  1  0  0  0  0
  2  3  1  0  0  0  0
  3  9  1  0  0  0  0
  4  5  2  0  0  0  0
  5 16  1  0  0  0  0
  6 13  1  0  0  0  0
  7 17  2  0  0  0  0
  8  1  2  0  0  0  0
  9  6  2  0  0  0  0
 10 14  2  0  0  0  0
 10 15  1  0  0  0  0
 12 22  1  0  0  0  0
 14 19  1  0  0  0  0
 15  2  2  0  0  0  0
 16 10  1  0  0  0  0
 18  6  1  0  0  0  0
 19  7  1  0  0  0  0
 20 19  2  0  0  0  0
 20  8  1  0  0  0  0
 21 15  1  0  0  0  0
 21 12  2  0  0  0  0
 22  3  2  0  0  0  0
 22 23  1  0  0  0  0
 23 18  2  0  0  0  0
 24 31  2  0  0  0  0
 24 28  1  0  0  0  0
 25 30  1  0  0  0  0
 26 29  1  0  0  0  0
 27 24  1  0  0  0  0
 28 25  2  0  0  0  0
 29 30  2  0  0  0  0
 30  5  1  0  0  0  0
 31 29  1  0  0  0  0
M  END
>  <MODEL>
2

>  <REMARK>
 VINA RESULT:     -10.9      1.903      2.403
  Name = 
  1 active torsions:
  status: ('A' for Active; 'I' for Inactive)
    1  A    between atoms: C_9  and  C_22
                            x       y       z     vdW  Elec       q    Type
                         _______ _______ _______ _____ _____    ______ ____

>  <TORSDO>
F 1

$$$$
=
 OpenBabel10262419303D

 31 35  0  0  0  0  0  0  0  0999 V2000
  187.5420  178.2810  148.1160 C   0  0  0  0  0  0  0  0  0  0  0  0
  188.0640  177.4600  144.4790 C   0  0  0  0  0  0  0  0  0  0  0  0
  189.4010  176.9740  144.3440 C   0  0  0  0  0  0  0  0  0  0  0  0
  183.1920  178.8990  143.0920 O   0  0  0  0  0  0  0  0  0  0  0  0
  183.8050  178.5060  142.0630 C   0  0  0  0  0  0  0  0  0  0  0  0
  191.5850  176.3780  145.2410 C   0  0  0  0  0  0  0  0  0  0  0  0
  187.4720  177.8810  145.7080 C   0  0  0  0  0  0  0  0  0  0  0  0
  186.2230  178.7330  148.0930 C   0  0  0  0  0  3  0  0  0  0  0  0
  190.2900  176.8580  145.4250 C   0  0  0  0  0  3  0  0  0  0  0  0
  185.9500  177.9930  143.3600 C   0  0  0  0  0  0  0  0  0  0  0  0
  188.2260  178.2510  149.2850 F   0  0  0  0  0  0  0  0  0  0  0  0
  189.0450  176.6780  141.9630 C   0  0  0  0  0  3  0  0  0  0  0  0
  192.4300  176.2710  146.2930 F   0  0  0  0  0  0  0  0  0  0  0  0
  185.4250  178.3840  144.5490 N   0  0  0  0  0  0  0  0  0  0  0  0
  187.2700  177.5270  143.3000 C   0  0  0  0  0  0  0  0  0  0  0  0
  185.1640  178.0540  142.1610 N   0  0  0  0  0  2  0  0  0  0  0  0
  188.1580  177.8610  146.9360 C   0  0  0  0  0  3  0  0  0  0  0  0
  192.0010  176.0090  143.9640 C   0  0  0  0  0  3  0  0  0  0  0  0
  186.1320  178.3430  145.7030 C   0  0  0  0  0  0  0  0  0  0  0  0
  185.5200  178.7630  146.8870 C   0  0  0  0  0  3  0  0  0  0  0  0
  187.7800  177.1390  142.0990 N   0  0  0  0  0  0  0  0  0  0  0  0
  189.8780  176.5850  143.0700 C   0  0  0  0  0  0  0  0  0  0  0  0
  191.1460  176.1190  142.9150 N   0  0  0  0  0  0  0  0  0  0  0  0
  181.7720  178.4540  138.2800 C   0  0  0  0  0  0  0  0  0  0  0  0
  181.8810  177.8780  140.6250 C   0  0  0  0  0  3  0  0  0  0  0  0
  184.9310  179.7530  139.6550 O   0  0  0  0  0  1  0  0  0  0  0  0
  181.1190  178.4300  137.0940 F   0  0  0  0  0  0  0  0  0  0  0  0
  181.2050  177.8510  139.4020 C   0  0  0  0  0  3  0  0  0  0  0  0
  183.6970  179.1150  139.6000 C   0  0  0  0  0  0  0  0  0  0  0  0
  183.1310  178.5060  140.7430 C   0  0  0  0  0  0  0  0  0  0  0  0
  183.0140  179.0840  138.3790 C   0  0  0  0  0  3  0  0  0  0  0  0
  1 11  1  0  0  0  0
  2  7  1  0  0  0  0
  3  2  1  0  0  0  0
  3  9  1  0  0  0  0
  5 16  1  0  0  0  0
  5  4  2  0  0  0  0
  6  9  2  0  0  0  0
  6 13  1  0  0  0  0
  7 17  1  0  0  0  0
  8  1  1  0  0  0  0
 10 14  2  0  0  0  0
 12 21  2  0  0  0  0
 12 22  1  0  0  0  0
 14 19  1  0  0  0  0
 15 10  1  0  0  0  0
 15  2  2  0  0  0  0
 16 10  1  0  0  0  0
 17  1  2  0  0  0  0
 18  6  1  0  0  0  0
 19  7  2  0  0  0  0
 19 20  1  0  0  0  0
 20  8  2  0  0  0  0
 21 15  1  0  0  0  0
 22  3  2  0  0  0  0
 23 22  1  0  0  0  0
 23 18  2  0  0  0  0
 24 31  2  0  0  0  0
 24 28  1  0  0  0  0
 25 30  1  0  0  0  0
 27 24  1  0  0  0  0
 28 25  2  0  0  0  0
 29 26  1  0  0  0  0
 29 30  2  0  0  0  0
 30  5  1  0  0  0  0
 31 29  1  0  0  0  0
M  END
>  <MODEL>
3

>  <REMARK>
 VINA RESULT:     -10.9      3.974      6.569
  Name = 
  1 active torsions:
  status: ('A' for Active; 'I' for Inactive)
    1  A    between atoms: C_9  and  C_22
                            x       y       z     vdW  Elec       q    Type
                         _______ _______ _______ _____ _____    ______ ____

>  <TORSDO>
F 1

$$$$
=
 OpenBabel10262419303D

 31 35  0  0  0  0  0  0  0  0999 V2000
  190.9810  177.3000  141.7820 C   0  0  0  0  0  0  0  0  0  0  0  0
  187.6190  177.9840  143.3350 C   0  0  0  0  0  0  0  0  0  0  0  0
  187.7640  177.8120  144.7460 C   0  0  0  0  0  0  0  0  0  0  0  0
  185.3010  179.0030  138.7180 O   0  0  0  0  0  0  0  0  0  0  0  0
  184.4450  179.1270  139.6340 C   0  0  0  0  0  0  0  0  0  0  0  0
  189.0660  177.2980  146.7390 C   0  0  0  0  0  0  0  0  0  0  0  0
  188.6700  177.8150  142.3840 C   0  0  0  0  0  0  0  0  0  0  0  0
  190.6890  177.5020  140.4330 C   0  0  0  0  0  3  0  0  0  0  0  0
  188.9760  177.4530  145.3570 C   0  0  0  0  0  3  0  0  0  0  0  0
  186.1200  178.5340  141.4760 C   0  0  0  0  0  0  0  0  0  0  0  0
  192.2350  176.9530  142.1580 F   0  0  0  0  0  0  0  0  0  0  0  0
  185.4210  178.3650  145.0460 C   0  0  0  0  0  3  0  0  0  0  0  0
  190.2420  176.9520  147.3130 F   0  0  0  0  0  0  0  0  0  0  0  0
  187.1460  178.3640  140.6040 N   0  0  0  0  0  0  0  0  0  0  0  0
  186.3320  178.3490  142.8490 C   0  0  0  0  0  0  0  0  0  0  0  0
  184.8160  178.9020  141.0030 N   0  0  0  0  0  2  0  0  0  0  0  0
  189.9810  177.4550  142.7440 C   0  0  0  0  0  3  0  0  0  0  0  0
  187.9330  177.5030  147.5230 C   0  0  0  0  0  3  0  0  0  0  0  0
  188.3910  178.0160  141.0080 C   0  0  0  0  0  0  0  0  0  0  0  0
  189.3960  177.8600  140.0490 C   0  0  0  0  0  3  0  0  0  0  0  0
  185.2920  178.5250  143.7080 N   0  0  0  0  0  0  0  0  0  0  0  0
  186.6470  178.0080  145.5920 C   0  0  0  0  0  0  0  0  0  0  0  0
  186.7580  177.8510  146.9380 N   0  0  0  0  0  0  0  0  0  0  0  0
  180.4340  180.3090  138.6590 C   0  0  0  0  0  0  0  0  0  0  0  0
  182.8090  180.7540  138.7180 C   0  0  0  0  0  3  0  0  0  0  0  0
  182.1250  177.4040  140.1590 O   0  0  0  0  0  1  0  0  0  0  0  0
  179.1740  180.6970  138.3450 F   0  0  0  0  0  0  0  0  0  0  0  0
  181.5100  181.1550  138.3950 C   0  0  0  0  0  3  0  0  0  0  0  0
  181.9500  178.6530  139.5750 C   0  0  0  0  0  0  0  0  0  0  0  0
  183.0490  179.5030  139.3110 C   0  0  0  0  0  0  0  0  0  0  0  0
  180.6530  179.0630  139.2470 C   0  0  0  0  0  3  0  0  0  0  0  0
  1 11  1  0  0  0  0
  1 17  1  0  0  0  0
  2  3  1  0  0  0  0
  3  9  2  0  0  0  0
  3 22  1  0  0  0  0
  4  5  2  0  0  0  0
  5 16  1  0  0  0  0
  6 13  1  0  0  0  0
  6 18  2  0  0  0  0
  7 17  2  0  0  0  0
  7  2  1  0  0  0  0
  8  1  2  0  0  0  0
  9  6  1  0  0  0  0
 10 15  1  0  0  0  0
 12 22  1  0  0  0  0
 14 19  1  0  0  0  0
 14 10  2  0  0  0  0
 15  2  2  0  0  0  0
 15 21  1  0  0  0  0
 16 10  1  0  0  0  0
 19  7  1  0  0  0  0
 20  8  1  0  0  0  0
 20 19  2  0  0  0  0
 21 12  2  0  0  0  0
 22 23  2  0  0  0  0
 23 18  1  0  0  0  0
 24 31  1  0  0  0  0
 25 30  2  0  0  0  0
 27 24  1  0  0  0  0
 28 24  2  0  0  0  0
 28 25  1  0  0  0  0
 29 26  1  0  0  0  0
 30 29  1  0  0  0  0
 30  5  1  0  0  0  0
 31 29  2  0  0  0  0
M  END
>  <MODEL>
4

>  <REMARK>
 VINA RESULT:     -10.4      3.983      7.207
  Name = 
  1 active torsions:
  status: ('A' for Active; 'I' for Inactive)
    1  A    between atoms: C_9  and  C_22
                            x       y       z     vdW  Elec       q    Type
                         _______ _______ _______ _____ _____    ______ ____

>  <TORSDO>
F 1

$$$$
=
 OpenBabel10262419303D

 31 35  0  0  0  0  0  0  0  0999 V2000
  188.3820  177.6310  147.3790 C   0  0  0  0  0  0  0  0  0  0  0  0
  187.2160  177.9630  143.8140 C   0  0  0  0  0  0  0  0  0  0  0  0
  185.8420  178.3570  143.8550 C   0  0  0  0  0  0  0  0  0  0  0  0
  191.8890  176.6260  141.7910 O   0  0  0  0  0  0  0  0  0  0  0  0
  191.0900  176.8540  140.8420 C   0  0  0  0  0  0  0  0  0  0  0  0
  183.7960  178.9430  145.0370 C   0  0  0  0  0  0  0  0  0  0  0  0
  188.0290  177.7310  144.9640 C   0  0  0  0  0  0  0  0  0  0  0  0
  189.7090  177.2510  147.1830 C   0  0  0  0  0  3  0  0  0  0  0  0
  185.1360  178.5590  145.0510 C   0  0  0  0  0  3  0  0  0  0  0  0
  189.1530  177.4090  142.4190 C   0  0  0  0  0  0  0  0  0  0  0  0
  187.8970  177.7700  148.6360 F   0  0  0  0  0  0  0  0  0  0  0  0
  185.7840  178.3730  141.4300 C   0  0  0  0  0  3  0  0  0  0  0  0
  183.1280  179.1340  146.1990 F   0  0  0  0  0  0  0  0  0  0  0  0
  189.8920  177.1980  143.5380 N   0  0  0  0  0  0  0  0  0  0  0  0
  187.8100  177.7930  142.5320 C   0  0  0  0  0  0  0  0  0  0  0  0
  189.7360  177.2410  141.1190 N   0  0  0  0  0  2  0  0  0  0  0  0
  187.5530  177.8670  146.2810 C   0  0  0  0  0  3  0  0  0  0  0  0
  183.1510  179.1260  143.8160 C   0  0  0  0  0  3  0  0  0  0  0  0
  189.3810  177.3440  144.7830 C   0  0  0  0  0  0  0  0  0  0  0  0
  190.2060  177.1090  145.8860 C   0  0  0  0  0  3  0  0  0  0  0  0
  187.0850  178.0000  141.4000 N   0  0  0  0  0  0  0  0  0  0  0  0
  185.1370  178.5580  142.6450 C   0  0  0  0  0  0  0  0  0  0  0  0
  183.8300  178.9320  142.6560 N   0  0  0  0  0  0  0  0  0  0  0  0
  192.2920  176.4640  136.7380 C   0  0  0  0  0  0  0  0  0  0  0  0
  190.5800  176.4630  138.4450 C   0  0  0  0  0  3  0  0  0  0  0  0
  193.8880  177.1160  139.9900 O   0  0  0  0  0  1  0  0  0  0  0  0
  192.6540  176.3380  135.4390 F   0  0  0  0  0  0  0  0  0  0  0  0
  190.9520  176.3320  137.1050 C   0  0  0  0  0  3  0  0  0  0  0  0
  192.8940  176.8560  139.0550 C   0  0  0  0  0  0  0  0  0  0  0  0
  191.5390  176.7250  139.4360 C   0  0  0  0  0  0  0  0  0  0  0  0
  193.2590  176.7240  137.7100 C   0  0  0  0  0  3  0  0  0  0  0  0
  1 11  1  0  0  0  0
  2  3  1  0  0  0  0
  2  7  1  0  0  0  0
  3  9  1  0  0  0  0
  5 16  1  0  0  0  0
  5  4  2  0  0  0  0
  6  9  2  0  0  0  0
  6 13  1  0  0  0  0
  7 17  1  0  0  0  0
  8  1  1  0  0  0  0
 10 15  1  0  0  0  0
 10 14  2  0  0  0  0
 12 22  1  0  0  0  0
 14 19  1  0  0  0  0
 15  2  2  0  0  0  0
 16 10  1  0  0  0  0
 17  1  2  0  0  0  0
 18  6  1  0  0  0  0
 19  7  2  0  0  0  0
 19 20  1  0  0  0  0
 20  8  2  0  0  0  0
 21 12  2  0  0  0  0
 21 15  1  0  0  0  0
 22 23  1  0  0  0  0
 22  3  2  0  0  0  0
 23 18  2  0  0  0  0
 24 28  2  0  0  0  0
 24 31  1  0  0  0  0
 25 30  2  0  0  0  0
 27 24  1  0  0  0  0
 28 25  1  0  0  0  0
 29 30  1  0  0  0  0
 29 26  1  0  0  0  0
 30  5  1  0  0  0  0
 31 29  2  0  0  0  0
M  END
>  <MODEL>
5

>  <REMARK>
 VINA RESULT:     -10.2      1.886      4.530
  Name = 
  1 active torsions:
  status: ('A' for Active; 'I' for Inactive)
    1  A    between atoms: C_9  and  C_22
                            x       y       z     vdW  Elec       q    Type
                         _______ _______ _______ _____ _____    ______ ____

>  <TORSDO>
F 1

$$$$
=
 OpenBabel10262419303D

 31 35  0  0  0  0  0  0  0  0999 V2000
  191.4990  177.3300  141.3810 C   0  0  0  0  0  0  0  0  0  0  0  0
  188.7630  177.4980  143.9620 C   0  0  0  0  0  0  0  0  0  0  0  0
  189.3650  177.2370  145.2320 C   0  0  0  0  0  0  0  0  0  0  0  0
  185.0140  178.5880  140.4290 O   0  0  0  0  0  0  0  0  0  0  0  0
  184.4870  178.5410  141.5730 C   0  0  0  0  0  0  0  0  0  0  0  0
  191.2740  176.7280  146.6560 C   0  0  0  0  0  0  0  0  0  0  0  0
  189.4660  177.5250  142.7200 C   0  0  0  0  0  0  0  0  0  0  0  0
  190.7760  177.5990  140.2190 C   0  0  0  0  0  3  0  0  0  0  0  0
  190.7350  176.9760  145.3940 C   0  0  0  0  0  3  0  0  0  0  0  0
  186.7070  178.0100  142.7290 C   0  0  0  0  0  0  0  0  0  0  0  0
  192.8330  177.1030  141.3100 F   0  0  0  0  0  0  0  0  0  0  0  0
  187.2010  177.4890  146.3000 C   0  0  0  0  0  3  0  0  0  0  0  0
  192.5970  176.4780  146.7970 F   0  0  0  0  0  0  0  0  0  0  0  0
  187.4130  178.0270  141.5700 N   0  0  0  0  0  0  0  0  0  0  0  0
  187.3620  177.7470  143.9410 C   0  0  0  0  0  0  0  0  0  0  0  0
  185.2940  178.2580  142.7260 N   0  0  0  0  0  2  0  0  0  0  0  0
  190.8490  177.2930  142.6160 C   0  0  0  0  0  3  0  0  0  0  0  0
  190.4370  176.7400  147.7690 C   0  0  0  0  0  3  0  0  0  0  0  0
  188.7460  177.7970  141.5290 C   0  0  0  0  0  0  0  0  0  0  0  0
  189.4020  177.8320  140.2950 C   0  0  0  0  0  3  0  0  0  0  0  0
  186.6390  177.7340  145.0930 N   0  0  0  0  0  0  0  0  0  0  0  0
  188.5630  177.2370  146.3980 C   0  0  0  0  0  0  0  0  0  0  0  0
  189.1110  176.9920  147.6180 N   0  0  0  0  0  0  0  0  0  0  0  0
  180.2650  179.2230  141.9550 C   0  0  0  0  0  0  0  0  0  0  0  0
  182.2320  178.8810  140.5930 C   0  0  0  0  0  3  0  0  0  0  0  0
  183.1660  178.8040  144.1820 O   0  0  0  0  0  1  0  0  0  0  0  0
  178.9320  179.4370  142.0580 F   0  0  0  0  0  0  0  0  0  0  0  0
  180.8570  179.1030  140.6970 C   0  0  0  0  0  3  0  0  0  0  0  0
  182.4250  178.8990  143.0100 C   0  0  0  0  0  0  0  0  0  0  0  0
  183.0340  178.7770  141.7400 C   0  0  0  0  0  0  0  0  0  0  0  0
  181.0470  179.1220  143.1070 C   0  0  0  0  0  3  0  0  0  0  0  0
  1 17  1  0  0  0  0
  2  3  1  0  0  0  0
  3  9  2  0  0  0  0
  3 22  1  0  0  0  0
  4  5  2  0  0  0  0
  5 30  1  0  0  0  0
  5 16  1  0  0  0  0
  6 13  1  0  0  0  0
  6 18  2  0  0  0  0
  7  2  1  0  0  0  0
  8 20  1  0  0  0  0
  8  1  2  0  0  0  0
  9  6  1  0  0  0  0
 10 15  1  0  0  0  0
 11  1  1  0  0  0  0
 12 22  1  0  0  0  0
 14 10  2  0  0  0  0
 15  2  2  0  0  0  0
 15 21  1  0  0  0  0
 16 10  1  0  0  0  0
 17  7  2  0  0  0  0
 19 14  1  0  0  0  0
 19  7  1  0  0  0  0
 20 19  2  0  0  0  0
 21 12  2  0  0  0  0
 22 23  2  0  0  0  0
 23 18  1  0  0  0  0
 24 27  1  0  0  0  0
 24 31  1  0  0  0  0
 25 28  1  0  0  0  0
 25 30  2  0  0  0  0
 28 24  2  0  0  0  0
 29 31  2  0  0  0  0
 29 26  1  0  0  0  0
 30 29  1  0  0  0  0
M  END
>  <MODEL>
6

>  <REMARK>
 VINA RESULT:     -10.1      3.361      7.452
  Name = 
  1 active torsions:
  status: ('A' for Active; 'I' for Inactive)
    1  A    between atoms: C_9  and  C_22
                            x       y       z     vdW  Elec       q    Type
                         _______ _______ _______ _____ _____    ______ ____

>  <TORSDO>
F 1

$$$$
=
 OpenBabel10262419303D

 31 35  0  0  0  0  0  0  0  0999 V2000
  185.7480  178.3220  145.9520 C   0  0  0  0  0  0  0  0  0  0  0  0
  186.5930  178.3170  142.2830 C   0  0  0  0  0  0  0  0  0  0  0  0
  187.9870  178.0220  142.1720 C   0  0  0  0  0  0  0  0  0  0  0  0
  181.6730  179.4490  140.7880 O   0  0  0  0  0  0  0  0  0  0  0  0
  182.3930  179.3440  139.7580 C   0  0  0  0  0  0  0  0  0  0  0  0
  190.1700  177.5060  143.1200 C   0  0  0  0  0  0  0  0  0  0  0  0
  185.8780  178.4120  143.5140 C   0  0  0  0  0  0  0  0  0  0  0  0
  184.3860  178.6180  145.9030 C   0  0  0  0  0  3  0  0  0  0  0  0
  188.8150  177.7910  143.2820 C   0  0  0  0  0  3  0  0  0  0  0  0
  184.5010  178.8240  141.1100 C   0  0  0  0  0  0  0  0  0  0  0  0
  186.3570  178.1340  147.1470 F   0  0  0  0  0  0  0  0  0  0  0  0
  187.8190  178.1750  139.7560 C   0  0  0  0  0  3  0  0  0  0  0  0
  190.9550  177.2850  144.2010 F   0  0  0  0  0  0  0  0  0  0  0  0
  183.8590  178.9050  142.3030 N   0  0  0  0  0  0  0  0  0  0  0  0
  185.8720  178.5310  141.0750 C   0  0  0  0  0  0  0  0  0  0  0  0
  183.7890  179.0380  139.8830 N   0  0  0  0  0  2  0  0  0  0  0  0
  186.4840  178.2220  144.7700 C   0  0  0  0  0  3  0  0  0  0  0  0
  190.7070  177.4530  141.8370 C   0  0  0  0  0  3  0  0  0  0  0  0
  184.4930  178.7120  143.4830 C   0  0  0  0  0  0  0  0  0  0  0  0
  183.7610  178.8120  144.6700 C   0  0  0  0  0  3  0  0  0  0  0  0
  186.5000  178.4540  139.8700 N   0  0  0  0  0  0  0  0  0  0  0  0
  188.5870  177.9550  140.8920 C   0  0  0  0  0  0  0  0  0  0  0  0
  189.9120  177.6760  140.7590 N   0  0  0  0  0  0  0  0  0  0  0  0
  180.7080  179.7970  135.8340 C   0  0  0  0  0  0  0  0  0  0  0  0
  181.6970  178.4240  137.5590 C   0  0  0  0  0  3  0  0  0  0  0  0
  181.4350  181.9290  138.7450 O   0  0  0  0  0  1  0  0  0  0  0  0
  180.1790  179.9240  134.5940 F   0  0  0  0  0  0  0  0  0  0  0  0
  181.1520  178.5530  136.2790 C   0  0  0  0  0  3  0  0  0  0  0  0
  181.3540  180.7930  137.9490 C   0  0  0  0  0  0  0  0  0  0  0  0
  181.8070  179.5350  138.4100 C   0  0  0  0  0  0  0  0  0  0  0  0
  180.8090  180.9130  136.6660 C   0  0  0  0  0  3  0  0  0  0  0  0
  1 11  1  0  0  0  0
  2  7  1  0  0  0  0
  3  2  1  0  0  0  0
  3  9  1  0  0  0  0
  5 16  1  0  0  0  0
  5  4  2  0  0  0  0
  6  9  2  0  0  0  0
  6 13  1  0  0  0  0
  7 17  1  0  0  0  0
  8  1  1  0  0  0  0
 10 14  2  0  0  0  0
 12 21  2  0  0  0  0
 12 22  1  0  0  0  0
 14 19  1  0  0  0  0
 15 10  1  0  0  0  0
 15  2  2  0  0  0  0
 16 10  1  0  0  0  0
 17  1  2  0  0  0  0
 18  6  1  0  0  0  0
 19  7  2  0  0  0  0
 19 20  1  0  0  0  0
 20  8  2  0  0  0  0
 21 15  1  0  0  0  0
 22  3  2  0  0  0  0
 23 22  1  0  0  0  0
 23 18  2  0  0  0  0
 24 28  2  0  0  0  0
 24 31  1  0  0  0  0
 25 30  2  0  0  0  0
 27 24  1  0  0  0  0
 28 25  1  0  0  0  0
 29 30  1  0  0  0  0
 29 26  1  0  0  0  0
 30  5  1  0  0  0  0
 31 29  2  0  0  0  0
M  END
>  <MODEL>
7

>  <REMARK>
 VINA RESULT:      -9.9      4.904      7.587
  Name = 
  1 active torsions:
  status: ('A' for Active; 'I' for Inactive)
    1  A    between atoms: C_9  and  C_22
                            x       y       z     vdW  Elec       q    Type
                         _______ _______ _______ _____ _____    ______ ____

>  <TORSDO>
F 1

$$$$
=
 OpenBabel10262419303D

 31 35  0  0  0  0  0  0  0  0999 V2000
  190.8000  177.1250  145.8410 C   0  0  0  0  0  0  0  0  0  0  0  0
  188.9780  177.6650  142.5910 C   0  0  0  0  0  0  0  0  0  0  0  0
  189.9470  177.5740  141.5440 C   0  0  0  0  0  0  0  0  0  0  0  0
  184.2960  178.2990  144.9160 O   0  0  0  0  0  0  0  0  0  0  0  0
  184.1450  178.4130  143.6690 C   0  0  0  0  0  0  0  0  0  0  0  0
  192.2150  177.2450  140.7210 C   0  0  0  0  0  0  0  0  0  0  0  0
  189.2670  177.5180  143.9810 C   0  0  0  0  0  0  0  0  0  0  0  0
  189.7480  177.2400  146.7500 C   0  0  0  0  0  3  0  0  0  0  0  0
  191.3090  177.3260  141.7770 C   0  0  0  0  0  3  0  0  0  0  0  0
  186.6280  178.0230  143.1900 C   0  0  0  0  0  0  0  0  0  0  0  0
  192.0550  176.8800  146.2870 F   0  0  0  0  0  0  0  0  0  0  0  0
  188.2050  177.9860  139.9070 C   0  0  0  0  0  3  0  0  0  0  0  0
  193.5250  177.0050  140.9610 F   0  0  0  0  0  0  0  0  0  0  0  0
  186.9450  177.8760  144.5010 N   0  0  0  0  0  0  0  0  0  0  0  0
  187.6300  177.9220  142.2140 C   0  0  0  0  0  0  0  0  0  0  0  0
  185.2740  178.2830  142.7920 N   0  0  0  0  0  2  0  0  0  0  0  0
  190.5600  177.2630  144.4730 C   0  0  0  0  0  3  0  0  0  0  0  0
  191.7580  177.4160  139.4160 C   0  0  0  0  0  3  0  0  0  0  0  0
  188.2100  177.6320  144.9190 C   0  0  0  0  0  0  0  0  0  0  0  0
  188.4560  177.4930  146.2880 C   0  0  0  0  0  3  0  0  0  0  0  0
  187.2930  178.0720  140.9040 N   0  0  0  0  0  0  0  0  0  0  0  0
  189.5390  177.7380  140.1990 C   0  0  0  0  0  0  0  0  0  0  0  0
  190.4410  177.6560  139.1850 N   0  0  0  0  0  0  0  0  0  0  0  0
  180.2260  179.2090  142.1060 C   0  0  0  0  0  0  0  0  0  0  0  0
  181.7520  179.0030  143.9680 C   0  0  0  0  0  3  0  0  0  0  0  0
  183.5480  178.3170  140.7960 O   0  0  0  0  0  1  0  0  0  0  0  0
  178.9840  179.4630  141.6290 F   0  0  0  0  0  0  0  0  0  0  0  0
  180.4710  179.2640  143.4780 C   0  0  0  0  0  3  0  0  0  0  0  0
  182.5460  178.6280  141.7080 C   0  0  0  0  0  0  0  0  0  0  0  0
  182.8050  178.6820  143.0970 C   0  0  0  0  0  0  0  0  0  0  0  0
  181.2600  178.8910  141.2240 C   0  0  0  0  0  3  0  0  0  0  0  0
  1 11  1  0  0  0  0
  1  8  1  0  0  0  0
  2  7  1  0  0  0  0
  3  9  1  0  0  0  0
  3  2  2  0  0  0  0
  5  4  2  0  0  0  0
  6 13  1  0  0  0  0
  6  9  2  0  0  0  0
  7 17  1  0  0  0  0
  7 19  2  0  0  0  0
 10 14  2  0  0  0  0
 12 22  2  0  0  0  0
 12 21  1  0  0  0  0
 14 19  1  0  0  0  0
 15  2  1  0  0  0  0
 15 10  1  0  0  0  0
 16 10  1  0  0  0  0
 16  5  1  0  0  0  0
 17  1  2  0  0  0  0
 18  6  1  0  0  0  0
 19 20  1  0  0  0  0
 20  8  2  0  0  0  0
 21 15  2  0  0  0  0
 22  3  1  0  0  0  0
 23 18  2  0  0  0  0
 23 22  1  0  0  0  0
 24 28  1  0  0  0  0
 26 29  1  0  0  0  0
 27 24  1  0  0  0  0
 28 25  2  0  0  0  0
 29 30  2  0  0  0  0
 30  5  1  0  0  0  0
 30 25  1  0  0  0  0
 31 29  1  0  0  0  0
 31 24  2  0  0  0  0
M  END
>  <MODEL>
8

>  <REMARK>
 VINA RESULT:      -9.8      3.380      8.177
  Name = 
  1 active torsions:
  status: ('A' for Active; 'I' for Inactive)
    1  A    between atoms: C_9  and  C_22
                            x       y       z     vdW  Elec       q    Type
                         _______ _______ _______ _____ _____    ______ ____

>  <TORSDO>
F 1

$$$$
=
 OpenBabel10262419303D

 31 35  0  0  0  0  0  0  0  0999 V2000
  185.6570  178.2090  146.6780 C   0  0  0  0  0  0  0  0  0  0  0  0
  185.6020  178.2780  142.9140 C   0  0  0  0  0  0  0  0  0  0  0  0
  184.2630  178.5860  142.5170 C   0  0  0  0  0  0  0  0  0  0  0  0
  190.7200  177.1290  142.4660 O   0  0  0  0  0  0  0  0  0  0  0  0
  190.2340  177.2560  141.3100 C   0  0  0  0  0  0  0  0  0  0  0  0
  181.9320  179.1050  142.9960 C   0  0  0  0  0  0  0  0  0  0  0  0
  186.0410  178.1580  144.2660 C   0  0  0  0  0  0  0  0  0  0  0  0
  186.9980  177.9030  146.9110 C   0  0  0  0  0  3  0  0  0  0  0  0
  183.2220  178.8070  143.4330 C   0  0  0  0  0  3  0  0  0  0  0  0
  187.8900  177.7720  142.1980 C   0  0  0  0  0  0  0  0  0  0  0  0
  184.8120  178.3840  147.7210 F   0  0  0  0  0  0  0  0  0  0  0  0
  184.9340  178.4700  140.1890 C   0  0  0  0  0  3  0  0  0  0  0  0
  180.9390  179.3160  143.8900 F   0  0  0  0  0  0  0  0  0  0  0  0
  188.2680  177.6680  143.4980 N   0  0  0  0  0  0  0  0  0  0  0  0
  186.5600  178.0770  141.8810 C   0  0  0  0  0  0  0  0  0  0  0  0
  188.8430  177.5720  141.1450 N   0  0  0  0  0  2  0  0  0  0  0  0
  185.1870  178.3340  145.3700 C   0  0  0  0  0  3  0  0  0  0  0  0
  181.6770  179.1830  141.6290 C   0  0  0  0  0  3  0  0  0  0  0  0
  187.4010  177.8470  144.5220 C   0  0  0  0  0  0  0  0  0  0  0  0
  187.8670  177.7230  145.8340 C   0  0  0  0  0  3  0  0  0  0  0  0
  186.1990  178.1780  140.5730 N   0  0  0  0  0  0  0  0  0  0  0  0
  183.9460  178.6780  141.1420 C   0  0  0  0  0  0  0  0  0  0  0  0
  182.6800  178.9700  140.7390 N   0  0  0  0  0  0  0  0  0  0  0  0
  192.7940  176.7690  137.8970 C   0  0  0  0  0  0  0  0  0  0  0  0
  192.4760  177.2530  140.2440 C   0  0  0  0  0  3  0  0  0  0  0  0
  189.1980  176.5630  138.6510 O   0  0  0  0  0  1  0  0  0  0  0  0
  193.6160  176.6190  136.8310 F   0  0  0  0  0  0  0  0  0  0  0  0
  193.3240  177.0990  139.1450 C   0  0  0  0  0  3  0  0  0  0  0  0
  190.5620  176.7470  138.8440 C   0  0  0  0  0  0  0  0  0  0  0  0
  191.0890  177.0810  140.1120 C   0  0  0  0  0  0  0  0  0  0  0  0
  191.4180  176.5940  137.7480 C   0  0  0  0  0  3  0  0  0  0  0  0
  1  8  1  0  0  0  0
  1 11  1  0  0  0  0
  2  7  1  0  0  0  0
  3  2  1  0  0  0  0
  3  9  1  0  0  0  0
  5  4  2  0  0  0  0
  6  9  2  0  0  0  0
  6 13  1  0  0  0  0
  7 19  2  0  0  0  0
  7 17  1  0  0  0  0
 10 14  2  0  0  0  0
 12 21  2  0  0  0  0
 12 22  1  0  0  0  0
 14 19  1  0  0  0  0
 15 10  1  0  0  0  0
 15  2  2  0  0  0  0
 16  5  1  0  0  0  0
 16 10  1  0  0  0  0
 17  1  2  0  0  0  0
 18  6  1  0  0  0  0
 19 20  1  0  0  0  0
 20  8  2  0  0  0  0
 21 15  1  0  0  0  0
 22  3  2  0  0  0  0
 23 22  1  0  0  0  0
 23 18  2  0  0  0  0
 24 28  1  0  0  0  0
 26 29  1  0  0  0  0
 27 24  1  0  0  0  0
 28 25  2  0  0  0  0
 29 30  2  0  0  0  0
 30 25  1  0  0  0  0
 30  5  1  0  0  0  0
 31 24  2  0  0  0  0
 31 29  1  0  0  0  0
M  END
>  <MODEL>
9

>  <REMARK>
 VINA RESULT:      -9.8      2.248      5.249
  Name = 
  1 active torsions:
  status: ('A' for Active; 'I' for Inactive)
    1  A    between atoms: C_9  and  C_22
                            x       y       z     vdW  Elec       q    Type
                         _______ _______ _______ _____ _____    ______ ____

>  <TORSDO>
F 1

$$$$
