=
 OpenBabel10262421273D

 32 36  0  0  1  0  0  0  0  0999 V2000
  188.5700  177.8700  143.5030 C   0  0  1  0  0  3  0  0  0  0  0  0
  189.4300  176.6350  138.7930 C   0  0  0  0  0  2  0  0  0  0  0  0
  190.9100  177.0020  138.9510 C   0  0  0  0  0  2  0  0  0  0  0  0
  190.1700  176.7940  145.1200 C   0  0  0  0  0  0  0  0  0  0  0  0
  189.2030  176.9750  146.1320 C   0  0  0  0  0  0  0  0  0  0  0  0
  191.8100  176.2400  146.8310 C   0  0  0  0  0  0  0  0  0  0  0  0
  188.6030  177.4220  139.7040 N   0  0  0  0  0  2  0  0  0  0  0  0
  188.0800  177.9060  142.0470 C   0  0  0  0  0  2  0  0  0  0  0  0
  188.8460  176.9850  141.0830 C   0  0  2  0  0  3  0  0  0  0  0  0
  190.7640  177.2280  142.7520 N   0  0  0  0  0  2  0  0  0  0  0  0
  190.8510  176.4490  147.8240 C   0  0  0  0  0  3  0  0  0  0  0  0
  189.5480  176.8090  147.4750 C   0  0  0  0  0  3  0  0  0  0  0  0
  191.2460  177.4940  140.3620 C   0  0  0  0  0  2  0  0  0  0  0  0
  190.3690  176.8060  141.4040 C   0  0  2  0  0  3  0  0  0  0  0  0
  192.4100  176.1210  144.5360 F   0  0  0  0  0  0  0  0  0  0  0  0
  187.4730  177.7010  144.5380 C   0  0  0  0  0  0  0  0  0  0  0  0
  187.8170  177.3350  145.7830 C   0  0  0  0  0  3  0  0  0  0  0  0
  193.0660  175.8700  147.1820 F   0  0  0  0  0  0  0  0  0  0  0  0
  189.7060  176.8590  143.6810 C   0  0  2  0  0  3  0  0  0  0  0  0
  191.4730  176.3910  145.4800 C   0  0  0  0  0  0  0  0  0  0  0  0
  184.5250  180.2100  143.2760 C   0  0  0  0  0  2  0  0  0  0  0  0
  186.1180  178.1130  144.2790 N   0  0  0  0  0  0  0  0  0  0  0  0
  184.9830  178.1180  146.4500 C   0  0  0  0  0  1  0  0  0  0  0  0
  184.1650  179.5990  144.6290 C   0  0  0  0  0  2  0  0  0  0  0  0
  185.4010  178.9490  145.2520 C   0  0  2  0  0  3  0  0  0  0  0  0
  185.5190  177.8650  142.9670 C   0  0  0  0  0  2  0  0  0  0  0  0
  185.1320  179.1860  142.2980 C   0  0  1  0  0  3  0  0  0  0  0  0
  184.3720  179.4590  140.0190 N   0  0  0  0  0  0  0  0  0  0  0  0
  184.1890  178.9130  141.1780 C   0  0  0  0  0  3  0  0  0  0  0  0
  183.4900  179.2230  138.9190 C   0  0  0  0  0  0  0  0  0  0  0  0
  182.2820  180.0720  138.7540 C   0  0  0  0  0  1  0  0  0  0  0  0
  183.7220  178.3040  138.0860 O   0  0  0  0  0  0  0  0  0  0  0  0
  1  8  1  6  0  0  0
  1 19  1  0  0  0  0
  1 16  1  0  0  0  0
  2  3  1  0  0  0  0
  2  7  1  0  0  0  0
  3 13  1  0  0  0  0
  4 20  2  0  0  0  0
  4  5  1  0  0  0  0
  5 12  2  0  0  0  0
  6 18  1  0  0  0  0
  6 11  2  0  0  0  0
  7  9  1  0  0  0  0
  9 14  1  0  0  0  0
  9  8  1  1  0  0  0
 12 11  1  0  0  0  0
 14 13  1  6  0  0  0
 14 10  1  0  0  0  0
 15 20  1  0  0  0  0
 16 17  2  0  0  0  0
 17  5  1  0  0  0  0
 19 10  1  6  0  0  0
 19  4  1  0  0  0  0
 20  6  1  0  0  0  0
 21 24  1  0  0  0  0
 22 16  1  0  0  0  0
 22 25  1  0  0  0  0
 24 25  1  0  0  0  0
 25 23  1  1  0  0  0
 26 22  1  0  0  0  0
 27 29  1  6  0  0  0
 27 26  1  0  0  0  0
 27 21  1  0  0  0  0
 28 29  2  0  0  0  0
 30 28  1  0  0  0  0
 31 30  1  0  0  0  0
 32 30  2  0  0  0  0
M  END
>  <MODEL>
1

>  <REMARK>
 VINA RESULT:      -9.9      0.000      0.000
  Name = 
  3 active torsions:
  status: ('A' for Active; 'I' for Inactive)
    1  A    between atoms: C_1  and  N_10
    2  A    between atoms: N_8  and  C_28
    3  A    between atoms: C_19  and  C_24
                            x       y       z     vdW  Elec       q    Type
                         _______ _______ _______ _____ _____    ______ ____

>  <TORSDO>
F 3

$$$$
=
 OpenBabel10262421273D

 32 36  0  0  1  0  0  0  0  0999 V2000
  184.9050  179.0200  140.4150 C   0  0  1  0  0  3  0  0  0  0  0  0
  188.4620  177.2190  137.4920 C   0  0  0  0  0  2  0  0  0  0  0  0
  189.5370  177.8510  138.3850 C   0  0  0  0  0  2  0  0  0  0  0  0
  185.2600  178.4990  142.8500 C   0  0  0  0  0  0  0  0  0  0  0  0
  183.8740  178.6730  143.0470 C   0  0  0  0  0  0  0  0  0  0  0  0
  185.5710  178.5070  145.2640 C   0  0  0  0  0  0  0  0  0  0  0  0
  187.2230  177.9900  137.5520 N   0  0  0  0  0  2  0  0  0  0  0  0
  185.3820  178.7430  138.9810 C   0  0  0  0  0  2  0  0  0  0  0  0
  186.6100  177.8230  138.8740 C   0  0  2  0  0  3  0  0  0  0  0  0
  187.1350  178.6470  141.2340 N   0  0  0  0  0  2  0  0  0  0  0  0
  184.2010  178.7060  145.4440 C   0  0  0  0  0  3  0  0  0  0  0  0
  183.3530  178.7820  144.3390 C   0  0  0  0  0  3  0  0  0  0  0  0
  188.9400  178.6090  139.5750 C   0  0  0  0  0  2  0  0  0  0  0  0
  187.6440  177.9570  140.0440 C   0  0  2  0  0  3  0  0  0  0  0  0
  187.4300  178.1290  143.8350 F   0  0  0  0  0  0  0  0  0  0  0  0
  183.4140  178.8350  140.6350 C   0  0  0  0  0  0  0  0  0  0  0  0
  182.9590  178.7330  141.8930 C   0  0  0  0  0  3  0  0  0  0  0  0
  186.3810  178.4140  146.3480 F   0  0  0  0  0  0  0  0  0  0  0  0
  185.7480  178.2560  141.4380 C   0  0  2  0  0  3  0  0  0  0  0  0
  186.1040  178.3840  143.9750 C   0  0  0  0  0  0  0  0  0  0  0  0
  179.8120  179.6650  138.9270 C   0  0  0  0  0  2  0  0  0  0  0  0
  182.4680  178.9660  139.5570 N   0  0  0  0  0  0  0  0  0  0  0  0
  182.2510  176.7350  138.5700 C   0  0  0  0  0  1  0  0  0  0  0  0
  180.3730  178.3540  138.3810 C   0  0  0  0  0  2  0  0  0  0  0  0
  181.5280  177.8760  139.2610 C   0  0  2  0  0  3  0  0  0  0  0  0
  182.3090  180.2530  138.8790 C   0  0  0  0  0  2  0  0  0  0  0  0
  180.8780  180.7710  139.0460 C   0  0  1  0  0  3  0  0  0  0  0  0
  181.4720  182.8140  137.8970 N   0  0  0  0  0  0  0  0  0  0  0  0
  180.6250  181.8480  138.0490 C   0  0  0  0  0  3  0  0  0  0  0  0
  181.2660  183.8660  136.9520 C   0  0  0  0  0  0  0  0  0  0  0  0
  180.4370  183.6130  135.7450 C   0  0  0  0  0  1  0  0  0  0  0  0
  181.7770  185.0060  137.1270 O   0  0  0  0  0  0  0  0  0  0  0  0
  1  8  1  6  0  0  0
  1 16  1  0  0  0  0
  1 19  1  0  0  0  0
  2  7  1  0  0  0  0
  2  3  1  0  0  0  0
  3 13  1  0  0  0  0
  4  5  2  0  0  0  0
  4 20  1  0  0  0  0
  5 12  1  0  0  0  0
  6 11  1  0  0  0  0
  6 18  1  0  0  0  0
  7  9  1  0  0  0  0
  9  8  1  1  0  0  0
  9 14  1  0  0  0  0
 12 11  2  0  0  0  0
 14 13  1  6  0  0  0
 14 10  1  0  0  0  0
 15 20  1  0  0  0  0
 16 17  2  0  0  0  0
 17  5  1  0  0  0  0
 19 10  1  1  0  0  0
 19  4  1  0  0  0  0
 20  6  2  0  0  0  0
 21 27  1  0  0  0  0
 22 16  1  0  0  0  0
 24 21  1  0  0  0  0
 24 25  1  0  0  0  0
 25 23  1  6  0  0  0
 25 22  1  0  0  0  0
 26 27  1  0  0  0  0
 26 22  1  0  0  0  0
 27 29  1  6  0  0  0
 28 29  2  0  0  0  0
 30 32  2  0  0  0  0
 30 28  1  0  0  0  0
 31 30  1  0  0  0  0
M  END
>  <MODEL>
2

>  <REMARK>
 VINA RESULT:      -9.9      3.600      5.645
  Name = 
  3 active torsions:
  status: ('A' for Active; 'I' for Inactive)
    1  A    between atoms: C_1  and  N_10
    2  A    between atoms: N_8  and  C_28
    3  A    between atoms: C_19  and  C_24
                            x       y       z     vdW  Elec       q    Type
                         _______ _______ _______ _____ _____    ______ ____

>  <TORSDO>
F 3

$$$$
=
 OpenBabel10262421273D

 32 36  0  0  1  0  0  0  0  0999 V2000
  187.8350  178.1740  141.8360 C   0  0  1  0  0  3  0  0  0  0  0  0
  191.6740  175.7740  143.8220 C   0  0  0  0  0  2  0  0  0  0  0  0
  191.5730  176.6300  145.0900 C   0  0  0  0  0  2  0  0  0  0  0  0
  185.8360  178.2850  143.3600 C   0  0  0  0  0  0  0  0  0  0  0  0
  185.0280  178.4740  142.2180 C   0  0  0  0  0  0  0  0  0  0  0  0
  183.9430  178.9020  144.7600 C   0  0  0  0  0  0  0  0  0  0  0  0
  191.1780  176.5090  142.6620 N   0  0  0  0  0  2  0  0  0  0  0  0
  189.2250  177.5570  141.6200 C   0  0  0  0  0  2  0  0  0  0  0  0
  189.7240  176.6650  142.7690 C   0  0  2  0  0  3  0  0  0  0  0  0
  188.1520  178.0630  144.2180 N   0  0  0  0  0  2  0  0  0  0  0  0
  183.1630  179.1110  143.6220 C   0  0  0  0  0  3  0  0  0  0  0  0
  183.7020  178.8910  142.3530 C   0  0  0  0  0  3  0  0  0  0  0  0
  190.4310  177.6490  145.0210 C   0  0  0  0  0  2  0  0  0  0  0  0
  189.2650  177.1080  144.2010 C   0  0  2  0  0  3  0  0  0  0  0  0
  185.9840  178.2180  145.7650 F   0  0  0  0  0  0  0  0  0  0  0  0
  186.8820  178.0190  140.6640 C   0  0  0  0  0  0  0  0  0  0  0  0
  185.5720  178.2250  140.8710 C   0  0  0  0  0  3  0  0  0  0  0  0
  183.4010  179.0990  145.9880 F   0  0  0  0  0  0  0  0  0  0  0  0
  187.2200  177.7070  143.1580 C   0  0  2  0  0  3  0  0  0  0  0  0
  185.2700  178.4710  144.6380 C   0  0  0  0  0  0  0  0  0  0  0  0
  189.0420  178.9670  137.3450 C   0  0  0  0  0  2  0  0  0  0  0  0
  187.3610  177.8570  139.3160 N   0  0  0  0  0  0  0  0  0  0  0  0
  185.3830  177.9710  137.8750 C   0  0  0  0  0  1  0  0  0  0  0  0
  187.6080  178.6040  136.9640 C   0  0  0  0  0  2  0  0  0  0  0  0
  186.7250  178.5920  138.2130 C   0  0  2  0  0  3  0  0  0  0  0  0
  188.5980  177.1160  139.0650 C   0  0  0  0  0  2  0  0  0  0  0  0
  189.6390  178.0230  138.4050 C   0  0  1  0  0  3  0  0  0  0  0  0
  191.6740  176.7230  138.5460 N   0  0  0  0  0  0  0  0  0  0  0  0
  190.7150  177.1840  137.8080 C   0  0  0  0  0  3  0  0  0  0  0  0
  192.7240  175.9150  138.0110 C   0  0  0  0  0  0  0  0  0  0  0  0
  192.4120  174.5580  137.4920 C   0  0  0  0  0  1  0  0  0  0  0  0
  193.9130  176.3360  137.9750 O   0  0  0  0  0  0  0  0  0  0  0  0
  1  8  1  6  0  0  0
  1 19  1  0  0  0  0
  2  3  1  0  0  0  0
  4 20  1  0  0  0  0
  5 12  1  0  0  0  0
  5  4  2  0  0  0  0
  6 18  1  0  0  0  0
  7  9  1  0  0  0  0
  7  2  1  0  0  0  0
  9  8  1  6  0  0  0
  9 14  1  0  0  0  0
 11  6  1  0  0  0  0
 12 11  2  0  0  0  0
 13  3  1  0  0  0  0
 14 10  1  0  0  0  0
 14 13  1  6  0  0  0
 16 17  2  0  0  0  0
 16  1  1  0  0  0  0
 17  5  1  0  0  0  0
 19  4  1  1  0  0  0
 19 10  1  0  0  0  0
 20  6  2  0  0  0  0
 20 15  1  0  0  0  0
 21 27  1  0  0  0  0
 22 16  1  0  0  0  0
 24 21  1  0  0  0  0
 24 25  1  0  0  0  0
 25 23  1  6  0  0  0
 25 22  1  0  0  0  0
 26 22  1  0  0  0  0
 27 29  1  6  0  0  0
 27 26  1  0  0  0  0
 29 28  2  0  0  0  0
 30 28  1  0  0  0  0
 31 30  1  0  0  0  0
 32 30  2  0  0  0  0
M  END
>  <MODEL>
3

>  <REMARK>
 VINA RESULT:      -9.5      3.267      6.770
  Name = 
  3 active torsions:
  status: ('A' for Active; 'I' for Inactive)
    1  A    between atoms: C_1  and  N_10
    2  A    between atoms: N_8  and  C_28
    3  A    between atoms: C_19  and  C_24
                            x       y       z     vdW  Elec       q    Type
                         _______ _______ _______ _____ _____    ______ ____

>  <TORSDO>
F 3

$$$$
=
 OpenBabel10262421273D

 32 36  0  0  1  0  0  0  0  0999 V2000
  184.9200  178.0120  140.6650 C   0  0  1  0  0  3  0  0  0  0  0  0
  183.9490  179.3520  145.3250 C   0  0  0  0  0  2  0  0  0  0  0  0
  185.0900  178.4620  145.8340 C   0  0  0  0  0  2  0  0  0  0  0  0
  187.3460  178.2610  140.0440 C   0  0  0  0  0  0  0  0  0  0  0  0
  186.9490  178.3310  138.6920 C   0  0  0  0  0  0  0  0  0  0  0  0
  189.6550  178.0010  139.3200 C   0  0  0  0  0  0  0  0  0  0  0  0
  183.3980  178.8220  144.0800 N   0  0  0  0  0  2  0  0  0  0  0  0
  183.8520  178.3100  141.7280 C   0  0  0  0  0  2  0  0  0  0  0  0
  184.3780  178.9920  143.0020 C   0  0  2  0  0  3  0  0  0  0  0  0
  186.6010  177.8980  142.3820 N   0  0  0  0  0  2  0  0  0  0  0  0
  189.2450  178.0460  137.9860 C   0  0  0  0  0  3  0  0  0  0  0  0
  187.8970  178.2170  137.6720 C   0  0  0  0  0  3  0  0  0  0  0  0
  185.8180  177.7340  144.7000 C   0  0  0  0  0  2  0  0  0  0  0  0
  185.8280  178.5750  143.4280 C   0  0  2  0  0  3  0  0  0  0  0  0
  189.1520  178.1410  141.6370 F   0  0  0  0  0  0  0  0  0  0  0  0
  184.5570  178.4520  139.2590 C   0  0  0  0  0  0  0  0  0  0  0  0
  185.5320  178.5340  138.3410 C   0  0  0  0  0  3  0  0  0  0  0  0
  190.9710  177.8550  139.6110 F   0  0  0  0  0  0  0  0  0  0  0  0
  186.2960  178.5210  141.1030 C   0  0  2  0  0  3  0  0  0  0  0  0
  188.7160  178.1270  140.3510 C   0  0  0  0  0  0  0  0  0  0  0  0
  180.5560  179.0330  139.7450 C   0  0  0  0  0  2  0  0  0  0  0  0
  183.1860  178.5850  138.8380 N   0  0  0  0  0  0  0  0  0  0  0  0
  182.5940  176.4590  137.7740 C   0  0  0  0  0  1  0  0  0  0  0  0
  180.8150  177.8600  138.8020 C   0  0  0  0  0  2  0  0  0  0  0  0
  182.2790  177.4290  138.8970 C   0  0  2  0  0  3  0  0  0  0  0  0
  182.6410  179.9080  138.5340 C   0  0  0  0  0  2  0  0  0  0  0  0
  181.4790  180.2360  139.4750 C   0  0  1  0  0  3  0  0  0  0  0  0
  181.2660  182.2370  138.1330 N   0  0  0  0  0  0  0  0  0  0  0  0
  180.6990  181.3750  138.9150 C   0  0  0  0  0  3  0  0  0  0  0  0
  180.5530  183.3430  137.5760 C   0  0  0  0  0  0  0  0  0  0  0  0
  181.2940  184.3850  136.8190 C   0  0  0  0  0  1  0  0  0  0  0  0
  179.3040  183.4490  137.7170 O   0  0  0  0  0  0  0  0  0  0  0  0
  1 19  1  0  0  0  0
  1  8  1  1  0  0  0
  2  3  1  0  0  0  0
  4 20  1  0  0  0  0
  5  4  2  0  0  0  0
  6 18  1  0  0  0  0
  6 20  2  0  0  0  0
  7  2  1  0  0  0  0
  9  8  1  6  0  0  0
  9 14  1  0  0  0  0
  9  7  1  0  0  0  0
 10 14  1  0  0  0  0
 11  6  1  0  0  0  0
 12 11  2  0  0  0  0
 12  5  1  0  0  0  0
 13  3  1  0  0  0  0
 14 13  1  1  0  0  0
 16  1  1  0  0  0  0
 17  5  1  0  0  0  0
 17 16  2  0  0  0  0
 19  4  1  6  0  0  0
 19 10  1  0  0  0  0
 20 15  1  0  0  0  0
 22 25  1  0  0  0  0
 22 16  1  0  0  0  0
 24 25  1  0  0  0  0
 24 21  1  0  0  0  0
 25 23  1  6  0  0  0
 26 22  1  0  0  0  0
 26 27  1  0  0  0  0
 27 29  1  6  0  0  0
 27 21  1  0  0  0  0
 28 29  2  0  0  0  0
 30 32  2  0  0  0  0
 30 28  1  0  0  0  0
 31 30  1  0  0  0  0
M  END
>  <MODEL>
4

>  <REMARK>
 VINA RESULT:      -9.0      3.466      6.689
  Name = 
  3 active torsions:
  status: ('A' for Active; 'I' for Inactive)
    1  A    between atoms: C_1  and  N_10
    2  A    between atoms: N_8  and  C_28
    3  A    between atoms: C_19  and  C_24
                            x       y       z     vdW  Elec       q    Type
                         _______ _______ _______ _____ _____    ______ ____

>  <TORSDO>
F 3

$$$$
=
 OpenBabel10262421273D

 32 36  0  0  1  0  0  0  0  0999 V2000
  188.4690  177.0010  143.6990 C   0  0  1  0  0  3  0  0  0  0  0  0
  191.1190  177.0850  147.8730 C   0  0  0  0  0  2  0  0  0  0  0  0
  192.1300  176.1040  147.2680 C   0  0  0  0  0  2  0  0  0  0  0  0
  189.8480  177.4210  141.6380 C   0  0  0  0  0  0  0  0  0  0  0  0
  188.6690  177.8350  140.9840 C   0  0  0  0  0  0  0  0  0  0  0  0
  190.9860  177.3750  139.4870 C   0  0  0  0  0  0  0  0  0  0  0  0
  189.7960  176.8900  147.2860 N   0  0  0  0  0  2  0  0  0  0  0  0
  188.4600  177.0070  145.2360 C   0  0  0  0  0  2  0  0  0  0  0  0
  189.8110  177.3410  145.8900 C   0  0  2  0  0  3  0  0  0  0  0  0
  190.8130  176.4620  143.7110 N   0  0  0  0  0  2  0  0  0  0  0  0
  189.8050  177.7600  138.8490 C   0  0  0  0  0  3  0  0  0  0  0  0
  188.6510  177.9960  139.5960 C   0  0  0  0  0  3  0  0  0  0  0  0
  191.7710  175.6990  145.8350 C   0  0  0  0  0  2  0  0  0  0  0  0
  191.0720  176.8400  145.1040 C   0  0  2  0  0  3  0  0  0  0  0  0
  192.1990  176.9090  141.4750 F   0  0  0  0  0  0  0  0  0  0  0  0
  187.3410  177.7870  143.0550 C   0  0  0  0  0  0  0  0  0  0  0  0
  187.4450  178.1110  141.7580 C   0  0  0  0  0  3  0  0  0  0  0  0
  192.1070  177.1700  138.7510 F   0  0  0  0  0  0  0  0  0  0  0  0
  189.8430  177.3920  143.1510 C   0  0  2  0  0  3  0  0  0  0  0  0
  191.0200  177.2240  140.8780 C   0  0  0  0  0  0  0  0  0  0  0  0
  184.1470  179.9590  144.3440 C   0  0  0  0  0  2  0  0  0  0  0  0
  186.0920  178.0130  143.7360 N   0  0  0  0  0  0  0  0  0  0  0  0
  186.5030  177.5030  146.0970 C   0  0  0  0  0  1  0  0  0  0  0  0
  184.7000  179.0980  145.4770 C   0  0  0  0  0  2  0  0  0  0  0  0
  186.0820  178.5650  145.0980 C   0  0  2  0  0  3  0  0  0  0  0  0
  184.8300  177.8780  143.0080 C   0  0  0  0  0  2  0  0  0  0  0  0
  184.0730  179.2080  143.0010 C   0  0  1  0  0  3  0  0  0  0  0  0
  181.7330  178.8930  143.5240 N   0  0  0  0  0  0  0  0  0  0  0  0
  182.6540  178.9650  142.6180 C   0  0  0  0  0  3  0  0  0  0  0  0
  180.3610  178.6600  143.1980 C   0  0  0  0  0  0  0  0  0  0  0  0
  179.3050  179.0030  144.1870 C   0  0  0  0  0  1  0  0  0  0  0  0
  180.0320  178.1680  142.0850 O   0  0  0  0  0  0  0  0  0  0  0  0
  1  8  1  1  0  0  0
  3  2  1  0  0  0  0
  5  4  1  0  0  0  0
  5 17  1  0  0  0  0
  6 20  1  0  0  0  0
  7  2  1  0  0  0  0
  9  8  1  6  0  0  0
  9  7  1  0  0  0  0
 10 14  1  0  0  0  0
 11  6  2  0  0  0  0
 11 12  1  0  0  0  0
 12  5  2  0  0  0  0
 13  3  1  0  0  0  0
 14 13  1  1  0  0  0
 14  9  1  0  0  0  0
 16  1  1  0  0  0  0
 16 22  1  0  0  0  0
 17 16  2  0  0  0  0
 18  6  1  0  0  0  0
 19  4  1  6  0  0  0
 19  1  1  0  0  0  0
 19 10  1  0  0  0  0
 20 15  1  0  0  0  0
 20  4  2  0  0  0  0
 21 24  1  0  0  0  0
 22 25  1  0  0  0  0
 25 24  1  0  0  0  0
 25 23  1  1  0  0  0
 26 22  1  0  0  0  0
 27 29  1  1  0  0  0
 27 26  1  0  0  0  0
 27 21  1  0  0  0  0
 29 28  2  0  0  0  0
 30 28  1  0  0  0  0
 30 31  1  0  0  0  0
 32 30  2  0  0  0  0
M  END
>  <MODEL>
5

>  <REMARK>
 VINA RESULT:      -9.0      2.385      5.002
  Name = 
  3 active torsions:
  status: ('A' for Active; 'I' for Inactive)
    1  A    between atoms: C_1  and  N_10
    2  A    between atoms: N_8  and  C_28
    3  A    between atoms: C_19  and  C_24
                            x       y       z     vdW  Elec       q    Type
                         _______ _______ _______ _____ _____    ______ ____

>  <TORSDO>
F 3

$$$$
=
 OpenBabel10262421273D

 32 36  0  0  1  0  0  0  0  0999 V2000
  183.2650  178.3000  141.5680 C   0  0  1  0  0  3  0  0  0  0  0  0
  178.9310  180.0980  143.1280 C   0  0  0  0  0  2  0  0  0  0  0  0
  178.9880  179.1990  144.3690 C   0  0  0  0  0  2  0  0  0  0  0  0
  185.0600  178.3670  143.3300 C   0  0  0  0  0  0  0  0  0  0  0  0
  186.0180  178.3380  142.2950 C   0  0  0  0  0  0  0  0  0  0  0  0
  186.8310  177.9240  144.9390 C   0  0  0  0  0  0  0  0  0  0  0  0
  179.6560  179.4890  142.0160 N   0  0  0  0  0  2  0  0  0  0  0  0
  181.8430  178.7470  141.1980 C   0  0  0  0  0  2  0  0  0  0  0  0
  181.0950  179.5110  142.3030 C   0  0  2  0  0  3  0  0  0  0  0  0
  182.6470  178.2520  143.8930 N   0  0  0  0  0  2  0  0  0  0  0  0
  187.7650  177.8720  143.9030 C   0  0  0  0  0  3  0  0  0  0  0  0
  187.3620  178.0850  142.5840 C   0  0  0  0  0  3  0  0  0  0  0  0
  180.2530  178.3360  144.4120 C   0  0  0  0  0  2  0  0  0  0  0  0
  181.4290  179.0590  143.7660 C   0  0  2  0  0  3  0  0  0  0  0  0
  184.6120  178.2960  145.6980 F   0  0  0  0  0  0  0  0  0  0  0  0
  184.3250  178.6320  140.5340 C   0  0  0  0  0  0  0  0  0  0  0  0
  185.6150  178.5820  140.8990 C   0  0  0  0  0  3  0  0  0  0  0  0
  187.2410  177.7360  146.2180 F   0  0  0  0  0  0  0  0  0  0  0  0
  183.6470  178.7750  142.9730 C   0  0  2  0  0  3  0  0  0  0  0  0
  185.4850  178.1900  144.6640 C   0  0  0  0  0  0  0  0  0  0  0  0
  182.0350  178.2870  137.1840 C   0  0  0  0  0  2  0  0  0  0  0  0
  183.9970  178.7990  139.1410 N   0  0  0  0  0  0  0  0  0  0  0  0
  185.7380  177.6150  137.8890 C   0  0  0  0  0  1  0  0  0  0  0  0
  183.4860  177.9180  136.8810 C   0  0  0  0  0  2  0  0  0  0  0  0
  184.2540  177.7110  138.1870 C   0  0  2  0  0  3  0  0  0  0  0  0
  183.2340  179.9690  138.7060 C   0  0  0  0  0  2  0  0  0  0  0  0
  181.9080  179.5370  138.0750 C   0  0  1  0  0  3  0  0  0  0  0  0
  181.1620  181.8280  137.8590 N   0  0  0  0  0  0  0  0  0  0  0  0
  181.3390  180.6740  137.2990 C   0  0  0  0  0  3  0  0  0  0  0  0
  180.6190  182.9430  137.1500 C   0  0  0  0  0  0  0  0  0  0  0  0
  180.7310  182.9940  135.6690 C   0  0  0  0  0  1  0  0  0  0  0  0
  180.0460  183.8860  137.7610 O   0  0  0  0  0  0  0  0  0  0  0  0
  1  8  1  6  0  0  0
  1 19  1  0  0  0  0
  2  3  1  0  0  0  0
  3 13  1  0  0  0  0
  4 20  1  0  0  0  0
  5 12  1  0  0  0  0
  5  4  2  0  0  0  0
  6 18  1  0  0  0  0
  7  9  1  0  0  0  0
  7  2  1  0  0  0  0
  9  8  1  6  0  0  0
  9 14  1  0  0  0  0
 11  6  1  0  0  0  0
 12 11  2  0  0  0  0
 14 10  1  0  0  0  0
 14 13  1  6  0  0  0
 16 17  2  0  0  0  0
 16  1  1  0  0  0  0
 17  5  1  0  0  0  0
 19  4  1  1  0  0  0
 19 10  1  0  0  0  0
 20  6  2  0  0  0  0
 20 15  1  0  0  0  0
 21 27  1  0  0  0  0
 22 16  1  0  0  0  0
 24 21  1  0  0  0  0
 24 25  1  0  0  0  0
 25 23  1  6  0  0  0
 25 22  1  0  0  0  0
 26 22  1  0  0  0  0
 27 29  1  6  0  0  0
 27 26  1  0  0  0  0
 29 28  2  0  0  0  0
 30 32  2  0  0  0  0
 30 28  1  0  0  0  0
 31 30  1  0  0  0  0
M  END
>  <MODEL>
6

>  <REMARK>
 VINA RESULT:      -8.8      3.632      7.280
  Name = 
  3 active torsions:
  status: ('A' for Active; 'I' for Inactive)
    1  A    between atoms: C_1  and  N_10
    2  A    between atoms: N_8  and  C_28
    3  A    between atoms: C_19  and  C_24
                            x       y       z     vdW  Elec       q    Type
                         _______ _______ _______ _____ _____    ______ ____

>  <TORSDO>
F 3

$$$$
=
 OpenBabel10262421273D

 32 36  0  0  1  0  0  0  0  0999 V2000
  186.0410  178.6520  141.2360 C   0  0  1  0  0  3  0  0  0  0  0  0
  187.7280  177.8400  136.6590 C   0  0  0  0  0  2  0  0  0  0  0  0
  189.0270  178.5840  136.9900 C   0  0  0  0  0  2  0  0  0  0  0  0
  187.6780  177.9930  143.0300 C   0  0  0  0  0  0  0  0  0  0  0  0
  186.5900  177.8780  143.9210 C   0  0  0  0  0  0  0  0  0  0  0  0
  189.2020  177.8450  144.9210 C   0  0  0  0  0  0  0  0  0  0  0  0
  186.6220  178.3480  137.4670 N   0  0  0  0  0  2  0  0  0  0  0  0
  185.7270  178.6010  139.7330 C   0  0  0  0  0  2  0  0  0  0  0  0
  186.8160  177.9490  138.8650 C   0  0  2  0  0  3  0  0  0  0  0  0
  188.3960  178.6440  140.7470 N   0  0  0  0  0  2  0  0  0  0  0  0
  188.1170  177.7580  145.7950 C   0  0  0  0  0  3  0  0  0  0  0  0
  186.8140  177.7680  145.2960 C   0  0  0  0  0  3  0  0  0  0  0  0
  189.0560  179.1040  138.4310 C   0  0  0  0  0  2  0  0  0  0  0  0
  188.2850  178.1740  139.3620 C   0  0  2  0  0  3  0  0  0  0  0  0
  190.0680  177.9630  142.7120 F   0  0  0  0  0  0  0  0  0  0  0  0
  184.9210  178.1630  142.1360 C   0  0  0  0  0  0  0  0  0  0  0  0
  185.2070  177.8630  143.4120 C   0  0  0  0  0  3  0  0  0  0  0  0
  190.4640  177.8140  145.4170 F   0  0  0  0  0  0  0  0  0  0  0  0
  187.3790  177.9760  141.5460 C   0  0  2  0  0  3  0  0  0  0  0  0
  188.9920  177.9420  143.5400 C   0  0  0  0  0  0  0  0  0  0  0  0
  181.7510  179.3680  139.8810 C   0  0  0  0  0  2  0  0  0  0  0  0
  183.5430  178.2050  141.7190 N   0  0  0  0  0  0  0  0  0  0  0  0
  182.2730  179.0030  143.6560 C   0  0  0  0  0  1  0  0  0  0  0  0
  181.3860  179.3770  141.3640 C   0  0  0  0  0  2  0  0  0  0  0  0
  182.6540  179.2670  142.2120 C   0  0  2  0  0  3  0  0  0  0  0  0
  183.0730  177.3120  140.6600 C   0  0  0  0  0  2  0  0  0  0  0  0
  182.5570  178.1220  139.4680 C   0  0  1  0  0  3  0  0  0  0  0  0
  181.4640  176.0270  138.9520 N   0  0  0  0  0  0  0  0  0  0  0  0
  181.7380  177.2390  138.5910 C   0  0  0  0  0  3  0  0  0  0  0  0
  180.6830  175.1490  138.1390 C   0  0  0  0  0  0  0  0  0  0  0  0
  180.6930  175.3150  136.6630 C   0  0  0  0  0  1  0  0  0  0  0  0
  179.9830  174.2350  138.6570 O   0  0  0  0  0  0  0  0  0  0  0  0
  1  8  1  6  0  0  0
  1 19  1  0  0  0  0
  1 16  1  0  0  0  0
  2  3  1  0  0  0  0
  2  7  1  0  0  0  0
  3 13  1  0  0  0  0
  4 20  2  0  0  0  0
  4  5  1  0  0  0  0
  5 12  2  0  0  0  0
  6 18  1  0  0  0  0
  6 11  2  0  0  0  0
  7  9  1  0  0  0  0
  9 14  1  0  0  0  0
  9  8  1  1  0  0  0
 12 11  1  0  0  0  0
 14 13  1  6  0  0  0
 14 10  1  0  0  0  0
 15 20  1  0  0  0  0
 16 17  2  0  0  0  0
 17  5  1  0  0  0  0
 19 10  1  6  0  0  0
 19  4  1  0  0  0  0
 20  6  1  0  0  0  0
 21 24  1  0  0  0  0
 22 16  1  0  0  0  0
 22 25  1  0  0  0  0
 24 25  1  0  0  0  0
 25 23  1  1  0  0  0
 26 22  1  0  0  0  0
 27 29  1  6  0  0  0
 27 21  1  0  0  0  0
 27 26  1  0  0  0  0
 29 28  2  0  0  0  0
 30 32  2  0  0  0  0
 30 28  1  0  0  0  0
 31 30  1  0  0  0  0
M  END
>  <MODEL>
7

>  <REMARK>
 VINA RESULT:      -8.8      2.650      3.824
  Name = 
  3 active torsions:
  status: ('A' for Active; 'I' for Inactive)
    1  A    between atoms: C_1  and  N_10
    2  A    between atoms: N_8  and  C_28
    3  A    between atoms: C_19  and  C_24
                            x       y       z     vdW  Elec       q    Type
                         _______ _______ _______ _____ _____    ______ ____

>  <TORSDO>
F 3

$$$$
=
 OpenBabel10262421273D

 32 36  0  0  1  0  0  0  0  0999 V2000
  187.4800  177.6010  142.8480 C   0  0  1  0  0  3  0  0  0  0  0  0
  183.3840  179.6580  140.9930 C   0  0  0  0  0  2  0  0  0  0  0  0
  182.5290  178.9350  142.0400 C   0  0  0  0  0  2  0  0  0  0  0  0
  187.6900  177.8790  145.3400 C   0  0  0  0  0  0  0  0  0  0  0  0
  189.0820  177.6950  145.2010 C   0  0  0  0  0  0  0  0  0  0  0  0
  187.9310  177.6310  147.7490 C   0  0  0  0  0  0  0  0  0  0  0  0
  184.5930  178.8930  140.6970 N   0  0  0  0  0  2  0  0  0  0  0  0
  186.6960  178.0150  141.5930 C   0  0  0  0  0  2  0  0  0  0  0  0
  185.4910  178.9330  141.8550 C   0  0  2  0  0  3  0  0  0  0  0  0
  185.4970  177.8780  144.1820 N   0  0  0  0  0  2  0  0  0  0  0  0
  189.3030  177.4250  147.5950 C   0  0  0  0  0  3  0  0  0  0  0  0
  189.8790  177.4630  146.3240 C   0  0  0  0  0  3  0  0  0  0  0  0
  183.3660  178.0670  142.9850 C   0  0  0  0  0  2  0  0  0  0  0  0
  184.7450  178.6780  143.2100 C   0  0  2  0  0  3  0  0  0  0  0  0
  185.8040  178.1360  146.8200 F   0  0  0  0  0  0  0  0  0  0  0  0
  188.9840  177.7740  142.7420 C   0  0  0  0  0  0  0  0  0  0  0  0
  189.7120  177.7540  143.8690 C   0  0  0  0  0  3  0  0  0  0  0  0
  187.3880  177.6120  148.9910 F   0  0  0  0  0  0  0  0  0  0  0  0
  186.9010  178.2550  144.1050 C   0  0  2  0  0  3  0  0  0  0  0  0
  187.1240  177.8770  146.6320 C   0  0  0  0  0  0  0  0  0  0  0  0
  190.0810  176.2370  139.1350 C   0  0  0  0  0  2  0  0  0  0  0  0
  189.6610  177.7550  141.4710 N   0  0  0  0  0  0  0  0  0  0  0  0
  192.0550  177.8780  141.9760 C   0  0  0  0  0  1  0  0  0  0  0  0
  191.2950  176.8120  139.8620 C   0  0  0  0  0  2  0  0  0  0  0  0
  190.9500  177.0630  141.3300 C   0  0  2  0  0  3  0  0  0  0  0  0
  188.9810  178.2550  140.2760 C   0  0  0  0  0  2  0  0  0  0  0  0
  188.8360  177.1380  139.2380 C   0  0  1  0  0  3  0  0  0  0  0  0
  188.6540  177.0450  136.8280 N   0  0  0  0  0  0  0  0  0  0  0  0
  188.5150  177.7370  137.9130 C   0  0  0  0  0  3  0  0  0  0  0  0
  188.3580  177.5820  135.5380 C   0  0  0  0  0  0  0  0  0  0  0  0
  187.0480  178.2440  135.3040 C   0  0  0  0  0  1  0  0  0  0  0  0
  189.1900  177.5030  134.5940 O   0  0  0  0  0  0  0  0  0  0  0  0
  1  8  1  6  0  0  0
  1 19  1  0  0  0  0
  2  3  1  0  0  0  0
  3 13  1  0  0  0  0
  4 20  1  0  0  0  0
  5  4  2  0  0  0  0
  5 12  1  0  0  0  0
  6 18  1  0  0  0  0
  7  2  1  0  0  0  0
  7  9  1  0  0  0  0
  9  8  1  6  0  0  0
  9 14  1  0  0  0  0
 11  6  1  0  0  0  0
 12 11  2  0  0  0  0
 14 13  1  6  0  0  0
 14 10  1  0  0  0  0
 16  1  1  0  0  0  0
 16 17  2  0  0  0  0
 17  5  1  0  0  0  0
 19 10  1  1  0  0  0
 19  4  1  0  0  0  0
 20 15  1  0  0  0  0
 20  6  2  0  0  0  0
 21 27  1  0  0  0  0
 21 24  1  0  0  0  0
 22 16  1  0  0  0  0
 24 25  1  0  0  0  0
 25 22  1  0  0  0  0
 25 23  1  6  0  0  0
 26 22  1  0  0  0  0
 27 29  1  6  0  0  0
 27 26  1  0  0  0  0
 28 29  2  0  0  0  0
 30 28  1  0  0  0  0
 31 30  1  0  0  0  0
 32 30  2  0  0  0  0
M  END
>  <MODEL>
8

>  <REMARK>
 VINA RESULT:      -8.3      2.597      5.577
  Name = 
  3 active torsions:
  status: ('A' for Active; 'I' for Inactive)
    1  A    between atoms: C_1  and  N_10
    2  A    between atoms: N_8  and  C_28
    3  A    between atoms: C_19  and  C_24
                            x       y       z     vdW  Elec       q    Type
                         _______ _______ _______ _____ _____    ______ ____

>  <TORSDO>
F 3

$$$$
=
 OpenBabel10262421273D

 32 36  0  0  1  0  0  0  0  0999 V2000
  189.0780  177.9560  143.5600 C   0  0  1  0  0  3  0  0  0  0  0  0
  192.1420  175.4550  146.5280 C   0  0  0  0  0  2  0  0  0  0  0  0
  191.6490  176.2580  147.7370 C   0  0  0  0  0  2  0  0  0  0  0  0
  186.7070  178.0120  144.3990 C   0  0  0  0  0  0  0  0  0  0  0  0
  186.2880  178.2530  143.0740 C   0  0  0  0  0  0  0  0  0  0  0  0
  184.4710  178.5790  145.1760 C   0  0  0  0  0  0  0  0  0  0  0  0
  192.0200  176.2410  145.3030 N   0  0  0  0  0  2  0  0  0  0  0  0
  190.4730  177.3420  143.7560 C   0  0  0  0  0  2  0  0  0  0  0  0
  190.6020  176.4000  144.9640 C   0  0  2  0  0  3  0  0  0  0  0  0
  188.6490  177.7430  145.9170 N   0  0  0  0  0  2  0  0  0  0  0  0
  184.0760  178.8390  143.8620 C   0  0  0  0  0  3  0  0  0  0  0  0
  184.9800  178.6700  142.8130 C   0  0  0  0  0  3  0  0  0  0  0  0
  190.5750  177.2840  147.3640 C   0  0  0  0  0  2  0  0  0  0  0  0
  189.7220  176.7840  146.2030 C   0  0  2  0  0  3  0  0  0  0  0  0
  186.1090  177.8420  146.7290 F   0  0  0  0  0  0  0  0  0  0  0  0
  188.5330  177.8550  142.1470 C   0  0  0  0  0  0  0  0  0  0  0  0
  187.2210  178.0590  141.9500 C   0  0  0  0  0  3  0  0  0  0  0  0
  183.5760  178.7260  146.1840 F   0  0  0  0  0  0  0  0  0  0  0  0
  188.0910  177.4370  144.6080 C   0  0  2  0  0  3  0  0  0  0  0  0
  185.7740  178.1470  145.4490 C   0  0  0  0  0  0  0  0  0  0  0  0
  190.2410  176.0390  138.9280 C   0  0  0  0  0  2  0  0  0  0  0  0
  189.4040  177.7490  141.0060 N   0  0  0  0  0  0  0  0  0  0  0  0
  191.6820  178.0330  141.8620 C   0  0  0  0  0  1  0  0  0  0  0  0
  191.3040  176.7370  139.7740 C   0  0  0  0  0  2  0  0  0  0  0  0
  190.7210  177.1090  141.1380 C   0  0  2  0  0  3  0  0  0  0  0  0
  188.9090  178.1000  139.6750 C   0  0  0  0  0  2  0  0  0  0  0  0
  188.9680  176.8850  138.7450 C   0  0  1  0  0  3  0  0  0  0  0  0
  187.7620  177.1060  136.6600 N   0  0  0  0  0  0  0  0  0  0  0  0
  188.8440  177.3400  137.3320 C   0  0  0  0  0  3  0  0  0  0  0  0
  187.6040  177.5260  135.3030 C   0  0  0  0  0  0  0  0  0  0  0  0
  186.2410  177.6140  134.7190 C   0  0  0  0  0  1  0  0  0  0  0  0
  188.6040  177.8210  134.5940 O   0  0  0  0  0  0  0  0  0  0  0  0
  1  8  1  6  0  0  0
  1 19  1  0  0  0  0
  2  3  1  0  0  0  0
  4 20  1  0  0  0  0
  5  4  2  0  0  0  0
  6 20  2  0  0  0  0
  6 18  1  0  0  0  0
  7  2  1  0  0  0  0
  9  8  1  6  0  0  0
  9  7  1  0  0  0  0
  9 14  1  0  0  0  0
 10 14  1  0  0  0  0
 11  6  1  0  0  0  0
 12  5  1  0  0  0  0
 12 11  2  0  0  0  0
 13  3  1  0  0  0  0
 14 13  1  1  0  0  0
 16  1  1  0  0  0  0
 17 16  2  0  0  0  0
 17  5  1  0  0  0  0
 19  4  1  6  0  0  0
 19 10  1  0  0  0  0
 20 15  1  0  0  0  0
 21 24  1  0  0  0  0
 22 25  1  0  0  0  0
 22 16  1  0  0  0  0
 24 25  1  0  0  0  0
 25 23  1  6  0  0  0
 26 22  1  0  0  0  0
 27 29  1  6  0  0  0
 27 21  1  0  0  0  0
 27 26  1  0  0  0  0
 28 29  2  0  0  0  0
 30 28  1  0  0  0  0
 31 30  1  0  0  0  0
 32 30  2  0  0  0  0
M  END
>  <MODEL>
9

>  <REMARK>
 VINA RESULT:      -8.2      2.895      6.228
  Name = 
  3 active torsions:
  status: ('A' for Active; 'I' for Inactive)
    1  A    between atoms: C_1  and  N_10
    2  A    between atoms: N_8  and  C_28
    3  A    between atoms: C_19  and  C_24
                            x       y       z     vdW  Elec       q    Type
                         _______ _______ _______ _____ _____    ______ ____

>  <TORSDO>
F 3

$$$$
