=
 OpenBabel10262422523D

 37 41  0  0  1  0  0  0  0  0999 V2000
  186.2860  175.9100  136.9580 C   0  0  1  0  0  0  0  0  0  0  0  0
  188.3520  175.6150  135.3850 C   0  0  2  0  0  3  0  0  0  0  0  0
  190.0220  177.6620  137.3110 N   0  0  2  0  0  0  0  0  0  0  0  0
  184.7530  176.0400  136.8410 C   0  0  2  0  0  3  0  0  0  0  0  0
  190.6730  176.2970  134.9000 N   0  0  0  0  0  2  0  0  0  0  0  0
  189.1190  177.8030  138.4630 C   0  0  2  0  0  3  0  0  0  0  0  0
  185.1190  177.0740  134.6050 C   0  0  0  0  0  2  0  0  0  0  0  0
  189.2490  177.9130  136.0700 C   0  0  0  0  0  2  0  0  0  0  0  0
  189.9330  177.7680  139.7670 C   0  0  2  0  0  3  0  0  0  0  0  0
  192.5530  175.5470  136.0570 O   0  0  0  0  0  0  0  0  0  0  0  0
  186.8470  175.9530  135.5140 C   0  0  2  0  0  3  0  0  0  0  0  0
  191.6280  176.3180  138.6040 C   0  0  0  0  0  2  0  0  0  0  0  0
  184.3430  177.1940  135.9140 C   0  0  0  0  0  2  0  0  0  0  0  0
  191.3960  176.0430  136.1000 C   0  0  0  0  0  0  0  0  0  0  0  0
  186.5000  177.1500  134.8570 O   0  0  0  0  0  0  0  0  0  0  0  0
  188.1170  176.7830  138.4420 O   0  0  0  0  0  0  0  0  0  0  0  0
  190.7040  176.3510  137.3880 C   0  0  2  0  0  3  0  0  0  0  0  0
  186.8980  177.0060  137.7990 C   0  0  0  0  0  0  0  0  0  0  0  0
  189.3010  176.7850  135.0210 C   0  0  2  0  0  3  0  0  0  0  0  0
  186.3820  178.1580  137.8240 O   0  0  0  0  0  0  0  0  0  0  0  0
  186.5780  174.6690  137.5310 O   0  0  0  0  0  1  0  0  0  0  0  0
  190.7890  176.5000  139.8670 C   0  0  0  0  0  2  0  0  0  0  0  0
  191.0580  177.7470  142.4830 C   0  0  0  0  0  2  0  0  0  0  0  0
  189.6160  177.9070  142.2950 N   0  0  0  0  0  0  0  0  0  0  0  0
  187.8310  178.2280  140.8160 O   0  0  0  0  0  0  0  0  0  0  0  0
  188.7380  178.0720  143.4580 C   0  0  0  0  0  2  0  0  0  0  0  0
  188.6630  178.0250  145.8460 O   0  0  0  0  0  1  0  0  0  0  0  0
  190.4570  176.8300  144.8040 C   0  0  0  0  0  2  0  0  0  0  0  0
  189.5370  178.0510  144.7600 C   0  0  1  0  0  3  0  0  0  0  0  0
  189.0580  177.9680  140.9710 C   0  0  0  0  0  0  0  0  0  0  0  0
  191.3400  176.6890  143.5520 C   0  0  0  0  0  2  0  0  0  0  0  0
  188.8340  173.3780  135.4460 C   0  0  0  0  0  1  0  0  0  0  0  0
  188.5650  174.4620  134.5940 O   0  0  0  0  0  0  0  0  0  0  0  0
  184.1270  176.1480  138.1170 O   0  0  0  0  0  0  0  0  0  0  0  0
  182.9130  175.5190  138.3980 C   0  0  0  0  0  0  0  0  0  0  0  0
  182.2340  175.8630  139.4800 C   0  0  0  0  0  2  0  0  0  0  0  0
  182.4000  174.5020  137.5420 N   0  0  0  0  0  1  0  0  0  0  0  0
  1 21  1  1  0  0  0
  1 18  1  0  0  0  0
  2 33  1  6  0  0  0
  2 11  1  0  0  0  0
  3  8  1  6  0  0  0
  3 17  1  0  0  0  0
  3  6  1  0  0  0  0
  4  1  1  0  0  0  0
  4 34  1  1  0  0  0
  5 19  1  0  0  0  0
  5 14  1  0  0  0  0
  6 16  1  1  0  0  0
  6  9  1  0  0  0  0
  7 15  1  0  0  0  0
  7 13  1  0  0  0  0
  9 22  1  0  0  0  0
  9 30  1  1  0  0  0
 10 14  2  0  0  0  0
 11 15  1  1  0  0  0
 11  1  1  0  0  0  0
 12 22  1  0  0  0  0
 13  4  1  0  0  0  0
 14 17  1  0  0  0  0
 17 12  1  1  0  0  0
 18 20  2  0  0  0  0
 18 16  1  0  0  0  0
 19  2  1  0  0  0  0
 19  8  1  1  0  0  0
 23 31  1  0  0  0  0
 24 23  1  0  0  0  0
 24 26  1  0  0  0  0
 25 30  2  0  0  0  0
 26 29  1  0  0  0  0
 29 28  1  0  0  0  0
 29 27  1  1  0  0  0
 30 24  1  0  0  0  0
 31 28  1  0  0  0  0
 33 32  1  0  0  0  0
 34 35  1  0  0  0  0
 35 36  2  0  0  0  0
 37 35  1  0  0  0  0
M  END
>  <MODEL>
1

>  <REMARK>
 VINA RESULT:      -7.6      0.000      0.000
  Name = 
  4 active torsions:
  status: ('A' for Active; 'I' for Inactive)
    1  A    between atoms: C_3  and  O_32
    2  A    between atoms: C_5  and  O_17
    3  A    between atoms: C_11  and  O_17
    4  A    between atoms: C_14  and  C_31
                            x       y       z     vdW  Elec       q    Type
                         _______ _______ _______ _____ _____    ______ ____

>  <TORSDO>
F 4

$$$$
=
 OpenBabel10262422523D

 37 41  0  0  1  0  0  0  0  0999 V2000
  187.5410  176.3550  137.1650 C   0  0  1  0  0  0  0  0  0  0  0  0
  189.8620  176.3820  138.3630 C   0  0  2  0  0  3  0  0  0  0  0  0
  188.6770  178.5990  140.4550 N   0  0  2  0  0  0  0  0  0  0  0  0
  186.9820  176.2750  135.7280 C   0  0  2  0  0  3  0  0  0  0  0  0
  191.2360  177.3890  140.1490 N   0  0  0  0  0  2  0  0  0  0  0  0
  187.2440  178.5880  140.1310 C   0  0  2  0  0  3  0  0  0  0  0  0
  189.0720  177.3970  134.9680 C   0  0  0  0  0  2  0  0  0  0  0  0
  189.4460  178.7670  139.1980 C   0  0  0  0  0  2  0  0  0  0  0  0
  186.4190  178.6380  141.4270 C   0  0  2  0  0  3  0  0  0  0  0  0
  191.0540  176.8810  142.4180 O   0  0  0  0  0  0  0  0  0  0  0  0
  189.0770  176.5060  137.0350 C   0  0  2  0  0  3  0  0  0  0  0  0
  188.3040  177.4610  142.6060 C   0  0  0  0  0  2  0  0  0  0  0  0
  187.5510  177.3810  134.8280 C   0  0  0  0  0  2  0  0  0  0  0  0
  190.4830  177.2110  141.3450 C   0  0  0  0  0  0  0  0  0  0  0  0
  189.4280  177.6580  136.3030 O   0  0  0  0  0  0  0  0  0  0  0  0
  186.9160  177.4410  139.3430 O   0  0  0  0  0  0  0  0  0  0  0  0
  189.0030  177.3930  141.2490 C   0  0  2  0  0  3  0  0  0  0  0  0
  186.9570  177.5070  137.9500 C   0  0  0  0  0  0  0  0  0  0  0  0
  190.5030  177.6800  138.9190 C   0  0  2  0  0  3  0  0  0  0  0  0
  186.6240  178.5760  137.3660 O   0  0  0  0  0  0  0  0  0  0  0  0
  187.2470  175.1550  137.8160 O   0  0  0  0  0  1  0  0  0  0  0  0
  186.7940  177.4980  142.3820 C   0  0  0  0  0  2  0  0  0  0  0  0
  184.4930  179.3710  143.5240 C   0  0  0  0  0  2  0  0  0  0  0  0
  184.0120  179.0030  142.1920 N   0  0  0  0  0  0  0  0  0  0  0  0
  184.5270  178.4920  139.9670 O   0  0  0  0  0  0  0  0  0  0  0  0
  182.5750  179.0150  141.9010 C   0  0  0  0  0  2  0  0  0  0  0  0
  180.4070  179.2700  142.8750 O   0  0  0  0  0  1  0  0  0  0  0  0
  182.1780  178.6280  144.3510 C   0  0  0  0  0  2  0  0  0  0  0  0
  181.7680  179.4450  143.1250 C   0  0  1  0  0  3  0  0  0  0  0  0
  184.9450  178.6890  141.1430 C   0  0  0  0  0  0  0  0  0  0  0  0
  183.6980  178.6280  144.6000 C   0  0  0  0  0  2  0  0  0  0  0  0
  190.6960  174.6810  137.0780 C   0  0  0  0  0  1  0  0  0  0  0  0
  190.7570  175.2870  138.3440 O   0  0  0  0  0  0  0  0  0  0  0  0
  185.5570  176.2680  135.7090 O   0  0  0  0  0  0  0  0  0  0  0  0
  184.8310  175.1680  135.2490 C   0  0  0  0  0  0  0  0  0  0  0  0
  183.5390  175.2970  134.9960 C   0  0  0  0  0  2  0  0  0  0  0  0
  185.4610  173.9050  135.0570 N   0  0  0  0  0  1  0  0  0  0  0  0
  1 21  1  1  0  0  0
  1 18  1  0  0  0  0
  2 33  1  6  0  0  0
  2 19  1  0  0  0  0
  3  8  1  6  0  0  0
  3 17  1  0  0  0  0
  4 34  1  1  0  0  0
  4  1  1  0  0  0  0
  5 14  1  0  0  0  0
  6 16  1  1  0  0  0
  6  3  1  0  0  0  0
  6  9  1  0  0  0  0
  7 15  1  0  0  0  0
  9 30  1  6  0  0  0
  9 22  1  0  0  0  0
 11 15  1  1  0  0  0
 11  1  1  0  0  0  0
 11  2  1  0  0  0  0
 13  7  1  0  0  0  0
 13  4  1  0  0  0  0
 14 10  2  0  0  0  0
 17 14  1  0  0  0  0
 17 12  1  1  0  0  0
 18 16  1  0  0  0  0
 19  8  1  1  0  0  0
 19  5  1  0  0  0  0
 20 18  2  0  0  0  0
 22 12  1  0  0  0  0
 23 31  1  0  0  0  0
 24 23  1  0  0  0  0
 25 30  2  0  0  0  0
 26 24  1  0  0  0  0
 26 29  1  0  0  0  0
 28 31  1  0  0  0  0
 29 27  1  6  0  0  0
 29 28  1  0  0  0  0
 30 24  1  0  0  0  0
 32 33  1  0  0  0  0
 35 34  1  0  0  0  0
 36 35  2  0  0  0  0
 37 35  1  0  0  0  0
M  END
>  <MODEL>
2

>  <REMARK>
 VINA RESULT:      -7.1      3.004      4.715
  Name = 
  4 active torsions:
  status: ('A' for Active; 'I' for Inactive)
    1  A    between atoms: C_3  and  O_32
    2  A    between atoms: C_5  and  O_17
    3  A    between atoms: C_11  and  O_17
    4  A    between atoms: C_14  and  C_31
                            x       y       z     vdW  Elec       q    Type
                         _______ _______ _______ _____ _____    ______ ____

>  <TORSDO>
F 4

$$$$
=
 OpenBabel10262422523D

 37 41  0  0  1  0  0  0  0  0999 V2000
  186.3440  176.4750  137.1410 C   0  0  1  0  0  0  0  0  0  0  0  0
  188.8760  176.2500  136.5330 C   0  0  2  0  0  3  0  0  0  0  0  0
  189.5880  178.1510  139.0970 N   0  0  2  0  0  0  0  0  0  0  0  0
  184.9910  176.6330  136.4170 C   0  0  2  0  0  3  0  0  0  0  0  0
  191.1840  176.9290  137.0810 N   0  0  0  0  0  2  0  0  0  0  0  0
  188.2920  178.2320  139.7860 C   0  0  2  0  0  3  0  0  0  0  0  0
  186.2250  177.7990  134.5940 C   0  0  0  0  0  2  0  0  0  0  0  0
  189.3860  178.4890  137.6670 C   0  0  0  0  0  2  0  0  0  0  0  0
  188.5030  178.1050  141.3030 C   0  0  2  0  0  3  0  0  0  0  0  0
  192.4380  176.0830  138.8550 O   0  0  0  0  0  0  0  0  0  0  0  0
  187.4450  176.6000  136.0580 C   0  0  2  0  0  3  0  0  0  0  0  0
  190.5440  176.7060  140.8460 C   0  0  0  0  0  2  0  0  0  0  0  0
  184.9800  177.8480  135.4780 C   0  0  0  0  0  2  0  0  0  0  0  0
  191.3570  176.5910  138.4530 C   0  0  0  0  0  0  0  0  0  0  0  0
  187.3820  177.8410  135.3920 O   0  0  0  0  0  0  0  0  0  0  0  0
  187.3990  177.2290  139.2940 O   0  0  0  0  0  0  0  0  0  0  0  0
  190.1960  176.8280  139.3630 C   0  0  2  0  0  3  0  0  0  0  0  0
  186.5450  177.5080  138.2250 C   0  0  0  0  0  0  0  0  0  0  0  0
  189.8760  177.4280  136.6610 C   0  0  2  0  0  3  0  0  0  0  0  0
  186.0490  178.6630  138.1090 O   0  0  0  0  0  0  0  0  0  0  0  0
  186.3930  175.1970  137.7040 O   0  0  0  0  0  1  0  0  0  0  0  0
  189.2600  176.8210  141.6650 C   0  0  0  0  0  2  0  0  0  0  0  0
  188.4580  178.2020  144.2410 C   0  0  0  0  0  2  0  0  0  0  0  0
  187.2010  178.2390  143.4940 N   0  0  0  0  0  0  0  0  0  0  0  0
  186.1300  178.3960  141.4190 O   0  0  0  0  0  0  0  0  0  0  0  0
  185.9240  178.3410  144.2080 C   0  0  0  0  0  2  0  0  0  0  0  0
  184.9120  178.3080  146.3730 O   0  0  0  0  0  1  0  0  0  0  0  0
  187.0540  177.2580  146.1730 C   0  0  0  0  0  2  0  0  0  0  0  0
  186.1400  178.3980  145.7190 C   0  0  1  0  0  3  0  0  0  0  0  0
  187.2100  178.2410  142.0550 C   0  0  0  0  0  0  0  0  0  0  0  0
  188.3700  177.1810  145.3780 C   0  0  0  0  0  2  0  0  0  0  0  0
  189.4540  174.0410  136.6940 C   0  0  0  0  0  1  0  0  0  0  0  0
  189.4070  175.1450  135.8280 O   0  0  0  0  0  0  0  0  0  0  0  0
  183.8970  176.6700  137.3300 O   0  0  0  0  0  0  0  0  0  0  0  0
  182.8800  175.7150  137.3020 C   0  0  0  0  0  0  0  0  0  0  0  0
  181.7090  175.9900  137.8510 C   0  0  0  0  0  2  0  0  0  0  0  0
  183.0890  174.4420  136.6980 N   0  0  0  0  0  1  0  0  0  0  0  0
  1 21  1  1  0  0  0
  1 18  1  0  0  0  0
  2 33  1  6  0  0  0
  2 19  1  0  0  0  0
  3  8  1  6  0  0  0
  3 17  1  0  0  0  0
  3  6  1  0  0  0  0
  4  1  1  0  0  0  0
  4 34  1  1  0  0  0
  5 14  1  0  0  0  0
  6 16  1  6  0  0  0
  6  9  1  0  0  0  0
  7 15  1  0  0  0  0
  7 13  1  0  0  0  0
  9 22  1  0  0  0  0
  9 30  1  1  0  0  0
 11 15  1  1  0  0  0
 11  2  1  0  0  0  0
 11  1  1  0  0  0  0
 12 22  1  0  0  0  0
 13  4  1  0  0  0  0
 14 10  2  0  0  0  0
 14 17  1  0  0  0  0
 17 12  1  1  0  0  0
 18 16  1  0  0  0  0
 19  5  1  0  0  0  0
 19  8  1  1  0  0  0
 20 18  2  0  0  0  0
 23 31  1  0  0  0  0
 24 26  1  0  0  0  0
 24 23  1  0  0  0  0
 25 30  2  0  0  0  0
 26 29  1  0  0  0  0
 29 28  1  0  0  0  0
 29 27  1  1  0  0  0
 30 24  1  0  0  0  0
 31 28  1  0  0  0  0
 33 32  1  0  0  0  0
 35 34  1  0  0  0  0
 35 36  2  0  0  0  0
 37 35  1  0  0  0  0
M  END
>  <MODEL>
3

>  <REMARK>
 VINA RESULT:      -6.8      1.690      2.095
  Name = 
  4 active torsions:
  status: ('A' for Active; 'I' for Inactive)
    1  A    between atoms: C_3  and  O_32
    2  A    between atoms: C_5  and  O_17
    3  A    between atoms: C_11  and  O_17
    4  A    between atoms: C_14  and  C_31
                            x       y       z     vdW  Elec       q    Type
                         _______ _______ _______ _____ _____    ______ ____

>  <TORSDO>
F 4

$$$$
=
 OpenBabel10262422523D

 37 41  0  0  1  0  0  0  0  0999 V2000
  182.9470  175.6450  136.7200 C   0  0  1  0  0  0  0  0  0  0  0  0
  180.7070  176.8840  136.1970 C   0  0  2  0  0  3  0  0  0  0  0  0
  180.9920  178.4560  139.0500 N   0  0  2  0  0  0  0  0  0  0  0  0
  183.5550  174.2370  136.5520 C   0  0  2  0  0  3  0  0  0  0  0  0
  179.0050  178.4750  137.0120 N   0  0  0  0  0  2  0  0  0  0  0  0
  182.3580  178.0970  139.4610 C   0  0  2  0  0  3  0  0  0  0  0  0
  181.2420  173.3320  136.7290 C   0  0  0  0  0  2  0  0  0  0  0  0
  180.2620  177.2140  138.6970 C   0  0  0  0  0  2  0  0  0  0  0  0
  183.0660  179.3320  140.0410 C   0  0  2  0  0  3  0  0  0  0  0  0
  179.2580  180.7930  137.0540 O   0  0  0  0  0  0  0  0  0  0  0  0
  181.4560  175.5350  136.3150 C   0  0  2  0  0  3  0  0  0  0  0  0
  181.6430  180.7780  138.5540 C   0  0  0  0  0  2  0  0  0  0  0  0
  182.6830  173.1520  137.2000 C   0  0  0  0  0  2  0  0  0  0  0  0
  179.7270  179.6580  137.3380 C   0  0  0  0  0  0  0  0  0  0  0  0
  180.7670  174.5990  137.1120 O   0  0  0  0  0  0  0  0  0  0  0  0
  183.0840  177.5440  138.3600 O   0  0  0  0  0  0  0  0  0  0  0  0
  181.0620  179.4840  137.9870 C   0  0  2  0  0  3  0  0  0  0  0  0
  183.0770  176.1670  138.1320 C   0  0  0  0  0  0  0  0  0  0  0  0
  179.6450  177.1900  137.2850 C   0  0  2  0  0  3  0  0  0  0  0  0
  183.0540  175.3720  139.1130 O   0  0  0  0  0  0  0  0  0  0  0  0
  183.6020  176.5130  135.8430 O   0  0  0  0  0  1  0  0  0  0  0  0
  183.0600  180.5050  139.0540 C   0  0  0  0  0  2  0  0  0  0  0  0
  183.5320  178.5010  142.8230 C   0  0  0  0  0  2  0  0  0  0  0  0
  184.6640  178.6410  141.9060 N   0  0  0  0  0  0  0  0  0  0  0  0
  185.4140  178.9980  139.7180 O   0  0  0  0  0  0  0  0  0  0  0  0
  186.0250  178.3510  142.3710 C   0  0  0  0  0  2  0  0  0  0  0  0
  187.3410  177.8310  144.2970 O   0  0  0  0  0  1  0  0  0  0  0  0
  185.2450  178.9170  144.6900 C   0  0  0  0  0  2  0  0  0  0  0  0
  186.0280  177.9190  143.8360 C   0  0  1  0  0  3  0  0  0  0  0  0
  184.4460  178.9990  140.5300 C   0  0  0  0  0  0  0  0  0  0  0  0
  183.8330  179.2040  144.1480 C   0  0  0  0  0  2  0  0  0  0  0  0
  179.2430  176.1600  134.5940 C   0  0  0  0  0  1  0  0  0  0  0  0
  180.2350  177.1100  134.8830 O   0  0  0  0  0  0  0  0  0  0  0  0
  184.9000  174.1760  137.0230 O   0  0  0  0  0  0  0  0  0  0  0  0
  185.9220  173.6020  136.2650 C   0  0  0  0  0  0  0  0  0  0  0  0
  186.5670  172.5460  136.7310 C   0  0  0  0  0  2  0  0  0  0  0  0
  186.2870  174.1460  135.0000 N   0  0  0  0  0  1  0  0  0  0  0  0
  1 21  1  6  0  0  0
  1 18  1  0  0  0  0
  2 33  1  6  0  0  0
  2 11  1  0  0  0  0
  2 19  1  0  0  0  0
  3  8  1  6  0  0  0
  3  6  1  0  0  0  0
  4  1  1  0  0  0  0
  4 34  1  1  0  0  0
  4 13  1  0  0  0  0
  5 19  1  0  0  0  0
  5 14  1  0  0  0  0
  6 16  1  6  0  0  0
  6  9  1  0  0  0  0
  7 15  1  0  0  0  0
  7 13  1  0  0  0  0
  9 30  1  6  0  0  0
 10 14  2  0  0  0  0
 11  1  1  0  0  0  0
 11 15  1  1  0  0  0
 12 22  1  0  0  0  0
 14 17  1  0  0  0  0
 17 12  1  1  0  0  0
 17  3  1  0  0  0  0
 18 16  1  0  0  0  0
 18 20  2  0  0  0  0
 19  8  1  1  0  0  0
 22  9  1  0  0  0  0
 23 31  1  0  0  0  0
 24 26  1  0  0  0  0
 24 23  1  0  0  0  0
 25 30  2  0  0  0  0
 26 29  1  0  0  0  0
 29 27  1  1  0  0  0
 29 28  1  0  0  0  0
 30 24  1  0  0  0  0
 31 28  1  0  0  0  0
 32 33  1  0  0  0  0
 35 36  2  0  0  0  0
 35 34  1  0  0  0  0
 37 35  1  0  0  0  0
M  END
>  <MODEL>
4

>  <REMARK>
 VINA RESULT:      -6.4      4.191      7.248
  Name = 
  4 active torsions:
  status: ('A' for Active; 'I' for Inactive)
    1  A    between atoms: C_3  and  O_32
    2  A    between atoms: C_5  and  O_17
    3  A    between atoms: C_11  and  O_17
    4  A    between atoms: C_14  and  C_31
                            x       y       z     vdW  Elec       q    Type
                         _______ _______ _______ _____ _____    ______ ____

>  <TORSDO>
F 4

$$$$
=
 OpenBabel10262422523D

 37 41  0  0  1  0  0  0  0  0999 V2000
  184.2970  176.3490  137.2500 C   0  0  1  0  0  0  0  0  0  0  0  0
  186.6870  176.2110  136.2020 C   0  0  2  0  0  3  0  0  0  0  0  0
  187.6590  178.5310  138.2910 N   0  0  2  0  0  0  0  0  0  0  0  0
  182.8260  176.2980  136.7840 C   0  0  2  0  0  3  0  0  0  0  0  0
  188.9780  177.1270  136.1950 N   0  0  0  0  0  2  0  0  0  0  0  0
  186.5070  178.6270  139.1990 C   0  0  2  0  0  3  0  0  0  0  0  0
  183.5910  177.2500  134.6140 C   0  0  0  0  0  2  0  0  0  0  0  0
  187.1710  178.6280  136.8930 C   0  0  0  0  0  2  0  0  0  0  0  0
  187.0000  178.7520  140.6490 C   0  0  2  0  0  3  0  0  0  0  0  0
  190.6070  176.6560  137.7950 O   0  0  0  0  0  0  0  0  0  0  0  0
  185.1660  176.3810  135.9680 C   0  0  2  0  0  3  0  0  0  0  0  0
  189.0510  177.4470  140.0070 C   0  0  0  0  0  2  0  0  0  0  0  0
  182.5270  177.3490  135.7050 C   0  0  0  0  0  2  0  0  0  0  0  0
  189.4280  177.0180  137.5420 C   0  0  0  0  0  0  0  0  0  0  0  0
  184.8630  177.4960  135.1600 O   0  0  0  0  0  0  0  0  0  0  0  0
  185.6430  177.5000  139.0320 O   0  0  0  0  0  0  0  0  0  0  0  0
  188.4320  177.3120  138.6170 C   0  0  2  0  0  3  0  0  0  0  0  0
  184.5870  177.5500  138.1200 C   0  0  0  0  0  0  0  0  0  0  0  0
  187.5740  177.4610  135.9700 C   0  0  2  0  0  3  0  0  0  0  0  0
  183.9680  178.6350  137.9410 O   0  0  0  0  0  0  0  0  0  0  0  0
  184.5710  175.1810  137.9650 O   0  0  0  0  0  1  0  0  0  0  0  0
  187.9310  177.5970  141.0340 C   0  0  0  0  0  2  0  0  0  0  0  0
  187.3980  178.4610  143.5480 C   0  0  0  0  0  2  0  0  0  0  0  0
  186.0580  178.7200  143.0210 N   0  0  0  0  0  0  0  0  0  0  0  0
  184.7200  179.2570  141.1780 O   0  0  0  0  0  0  0  0  0  0  0  0
  184.9210  178.8500  143.9380 C   0  0  0  0  0  2  0  0  0  0  0  0
  184.2410  178.6280  146.2190 O   0  0  0  0  0  1  0  0  0  0  0  0
  186.1920  177.4100  145.5560 C   0  0  0  0  0  2  0  0  0  0  0  0
  185.3620  178.6840  145.3910 C   0  0  1  0  0  3  0  0  0  0  0  0
  185.8560  178.9130  141.6100 C   0  0  0  0  0  0  0  0  0  0  0  0
  187.3580  177.3110  144.5560 C   0  0  0  0  0  2  0  0  0  0  0  0
  187.3670  174.0510  136.5400 C   0  0  0  0  0  1  0  0  0  0  0  0
  187.1880  175.0500  135.5690 O   0  0  0  0  0  0  0  0  0  0  0  0
  181.9160  176.4000  137.8770 O   0  0  0  0  0  0  0  0  0  0  0  0
  181.1520  175.3130  138.3050 C   0  0  0  0  0  0  0  0  0  0  0  0
  181.0000  174.2680  137.5090 C   0  0  0  0  0  2  0  0  0  0  0  0
  180.5250  175.3170  139.5840 N   0  0  0  0  0  1  0  0  0  0  0  0
  1 21  1  1  0  0  0
  1 18  1  0  0  0  0
  2 33  1  6  0  0  0
  3  8  1  6  0  0  0
  3 17  1  0  0  0  0
  3  6  1  0  0  0  0
  4  1  1  0  0  0  0
  4 34  1  1  0  0  0
  5 14  1  0  0  0  0
  6 16  1  1  0  0  0
  6  9  1  0  0  0  0
  7 15  1  0  0  0  0
  7 13  1  0  0  0  0
  9 22  1  0  0  0  0
  9 30  1  1  0  0  0
 11 15  1  1  0  0  0
 11  2  1  0  0  0  0
 11  1  1  0  0  0  0
 12 22  1  0  0  0  0
 13  4  1  0  0  0  0
 14 10  2  0  0  0  0
 14 17  1  0  0  0  0
 17 12  1  1  0  0  0
 18 16  1  0  0  0  0
 19  5  1  0  0  0  0
 19  2  1  0  0  0  0
 19  8  1  1  0  0  0
 20 18  2  0  0  0  0
 23 31  1  0  0  0  0
 24 23  1  0  0  0  0
 24 26  1  0  0  0  0
 25 30  2  0  0  0  0
 26 29  1  0  0  0  0
 29 28  1  0  0  0  0
 29 27  1  1  0  0  0
 30 24  1  0  0  0  0
 31 28  1  0  0  0  0
 33 32  1  0  0  0  0
 34 35  1  0  0  0  0
 35 37  1  0  0  0  0
 36 35  2  0  0  0  0
M  END
>  <MODEL>
5

>  <REMARK>
 VINA RESULT:      -6.2      2.315      2.865
  Name = 
  4 active torsions:
  status: ('A' for Active; 'I' for Inactive)
    1  A    between atoms: C_3  and  O_32
    2  A    between atoms: C_5  and  O_17
    3  A    between atoms: C_11  and  O_17
    4  A    between atoms: C_14  and  C_31
                            x       y       z     vdW  Elec       q    Type
                         _______ _______ _______ _____ _____    ______ ____

>  <TORSDO>
F 4

$$$$
=
 OpenBabel10262422523D

 37 41  0  0  1  0  0  0  0  0999 V2000
  190.0590  176.4020  142.1120 C   0  0  1  0  0  0  0  0  0  0  0  0
  190.7820  176.5990  144.6160 C   0  0  2  0  0  3  0  0  0  0  0  0
  188.2640  178.6260  145.1090 N   0  0  2  0  0  0  0  0  0  0  0  0
  190.7220  176.3210  140.7210 C   0  0  2  0  0  3  0  0  0  0  0  0
  190.3440  177.6650  146.7980 N   0  0  0  0  0  2  0  0  0  0  0  0
  187.5160  178.4960  143.8500 C   0  0  2  0  0  3  0  0  0  0  0  0
  192.6060  177.6540  141.6580 C   0  0  0  0  0  2  0  0  0  0  0  0
  189.6850  178.9070  144.7900 C   0  0  0  0  0  2  0  0  0  0  0  0
  186.0090  178.4270  144.1470 C   0  0  2  0  0  3  0  0  0  0  0  0
  188.6240  177.0660  148.2540 O   0  0  0  0  0  0  0  0  0  0  0  0
  191.1930  176.6970  143.1270 C   0  0  2  0  0  3  0  0  0  0  0  0
  186.5520  177.3860  146.3720 C   0  0  0  0  0  2  0  0  0  0  0  0
  191.6660  177.5040  140.4640 C   0  0  0  0  0  2  0  0  0  0  0  0
  188.9790  177.3790  147.0860 C   0  0  0  0  0  0  0  0  0  0  0  0
  191.8620  177.9010  142.8260 O   0  0  0  0  0  0  0  0  0  0  0  0
  187.9610  177.3510  143.1180 O   0  0  0  0  0  0  0  0  0  0  0  0
  188.0180  177.4280  145.9430 C   0  0  2  0  0  3  0  0  0  0  0  0
  188.9910  177.4680  142.1840 C   0  0  0  0  0  0  0  0  0  0  0  0
  190.7050  177.9300  145.4080 C   0  0  2  0  0  3  0  0  0  0  0  0
  189.0910  178.5220  141.4950 O   0  0  0  0  0  0  0  0  0  0  0  0
  189.4920  175.1590  142.4010 O   0  0  0  0  0  1  0  0  0  0  0  0
  185.6760  177.2940  145.1240 C   0  0  0  0  0  2  0  0  0  0  0  0
  183.2010  179.2940  144.0900 C   0  0  0  0  0  2  0  0  0  0  0  0
  183.8130  178.7360  142.8840 N   0  0  0  0  0  0  0  0  0  0  0  0
  185.7520  177.9880  141.8070 O   0  0  0  0  0  0  0  0  0  0  0  0
  183.0330  178.6260  141.6480 C   0  0  0  0  0  2  0  0  0  0  0  0
  180.8460  178.8670  140.7140 O   0  0  0  0  0  1  0  0  0  0  0  0
  180.9710  178.5200  143.0790 C   0  0  0  0  0  2  0  0  0  0  0  0
  181.6120  179.1530  141.8430 C   0  0  1  0  0  3  0  0  0  0  0  0
  185.2000  178.3530  142.8830 C   0  0  0  0  0  0  0  0  0  0  0  0
  181.8390  178.6420  144.3440 C   0  0  0  0  0  2  0  0  0  0  0  0
  192.0650  174.7240  144.3430 C   0  0  0  0  0  1  0  0  0  0  0  0
  191.5050  175.5910  145.2950 O   0  0  0  0  0  0  0  0  0  0  0  0
  189.7600  176.1850  139.6780 O   0  0  0  0  0  0  0  0  0  0  0  0
  190.1360  175.9920  138.3480 C   0  0  0  0  0  0  0  0  0  0  0  0
  189.7500  176.8580  137.4260 C   0  0  0  0  0  2  0  0  0  0  0  0
  190.9230  174.8660  137.9670 N   0  0  0  0  0  1  0  0  0  0  0  0
  1 18  1  0  0  0  0
  1 21  1  1  0  0  0
  1 11  1  0  0  0  0
  2 33  1  1  0  0  0
  2 19  1  0  0  0  0
  3  8  1  6  0  0  0
  3 17  1  0  0  0  0
  4 34  1  6  0  0  0
  4  1  1  0  0  0  0
  5 14  1  0  0  0  0
  6 16  1  1  0  0  0
  6  9  1  0  0  0  0
  6  3  1  0  0  0  0
  7 15  1  0  0  0  0
  9 30  1  6  0  0  0
  9 22  1  0  0  0  0
 11 15  1  6  0  0  0
 11  2  1  0  0  0  0
 13  4  1  0  0  0  0
 13  7  1  0  0  0  0
 14 10  2  0  0  0  0
 17 12  1  1  0  0  0
 17 14  1  0  0  0  0
 18 16  1  0  0  0  0
 19  8  1  6  0  0  0
 19  5  1  0  0  0  0
 20 18  2  0  0  0  0
 22 12  1  0  0  0  0
 23 31  1  0  0  0  0
 24 23  1  0  0  0  0
 25 30  2  0  0  0  0
 26 29  1  0  0  0  0
 26 24  1  0  0  0  0
 28 31  1  0  0  0  0
 29 27  1  6  0  0  0
 29 28  1  0  0  0  0
 30 24  1  0  0  0  0
 32 33  1  0  0  0  0
 35 34  1  0  0  0  0
 36 35  2  0  0  0  0
 37 35  1  0  0  0  0
M  END
>  <MODEL>
6

>  <REMARK>
 VINA RESULT:      -6.1      3.456      8.328
  Name = 
  4 active torsions:
  status: ('A' for Active; 'I' for Inactive)
    1  A    between atoms: C_3  and  O_32
    2  A    between atoms: C_5  and  O_17
    3  A    between atoms: C_11  and  O_17
    4  A    between atoms: C_14  and  C_31
                            x       y       z     vdW  Elec       q    Type
                         _______ _______ _______ _____ _____    ______ ____

>  <TORSDO>
F 4

$$$$
=
 OpenBabel10262422523D

 37 41  0  0  1  0  0  0  0  0999 V2000
  184.2090  179.1690  138.6910 C   0  0  1  0  0  0  0  0  0  0  0  0
  181.7400  179.5320  139.4670 C   0  0  2  0  0  3  0  0  0  0  0  0
  182.4770  178.0280  142.2760 N   0  0  2  0  0  0  0  0  0  0  0  0
  184.9730  178.8080  137.4000 C   0  0  2  0  0  3  0  0  0  0  0  0
  180.0650  179.1240  141.2330 N   0  0  0  0  0  2  0  0  0  0  0  0
  183.9410  177.9230  142.1910 C   0  0  2  0  0  3  0  0  0  0  0  0
  182.9540  177.5360  136.6870 C   0  0  0  0  0  2  0  0  0  0  0  0
  181.8900  177.5010  141.0200 C   0  0  0  0  0  2  0  0  0  0  0  0
  184.5640  178.2530  143.5560 C   0  0  2  0  0  3  0  0  0  0  0  0
  179.9450  180.2860  143.2510 O   0  0  0  0  0  0  0  0  0  0  0  0
  182.7010  179.0060  138.3740 C   0  0  2  0  0  3  0  0  0  0  0  0
  182.6010  179.7530  144.0280 C   0  0  0  0  0  2  0  0  0  0  0  0
  184.4770  177.4900  136.7870 C   0  0  0  0  0  2  0  0  0  0  0  0
  180.6460  179.6420  142.4250 C   0  0  0  0  0  0  0  0  0  0  0  0
  182.3940  177.6910  137.9670 O   0  0  0  0  0  0  0  0  0  0  0  0
  184.4460  178.7780  141.1620 O   0  0  0  0  0  0  0  0  0  0  0  0
  182.1110  179.4210  142.6190 C   0  0  2  0  0  3  0  0  0  0  0  0
  184.6040  178.2980  139.8600 C   0  0  0  0  0  0  0  0  0  0  0  0
  180.9500  178.4680  140.2730 C   0  0  2  0  0  3  0  0  0  0  0  0
  184.9550  177.0990  139.6760 O   0  0  0  0  0  0  0  0  0  0  0  0
  184.4750  180.5050  138.9980 O   0  0  0  0  0  1  0  0  0  0  0  0
  184.1230  179.6310  144.0630 C   0  0  0  0  0  2  0  0  0  0  0  0
  186.0510  177.5030  145.9790 C   0  0  0  0  0  2  0  0  0  0  0  0
  186.7760  177.7800  144.7390 N   0  0  0  0  0  0  0  0  0  0  0  0
  186.6830  178.2180  142.4420 O   0  0  0  0  0  0  0  0  0  0  0  0
  188.2370  177.6680  144.7010 C   0  0  0  0  0  2  0  0  0  0  0  0
  190.1860  177.3280  146.0440 O   0  0  0  0  0  1  0  0  0  0  0  0
  188.2350  178.1430  147.1680 C   0  0  0  0  0  2  0  0  0  0  0  0
  188.7930  177.2470  146.0600 C   0  0  1  0  0  3  0  0  0  0  0  0
  186.0580  178.1010  143.5340 C   0  0  0  0  0  0  0  0  0  0  0  0
  186.7000  178.2460  147.1500 C   0  0  0  0  0  2  0  0  0  0  0  0
  181.1770  180.7570  137.6170 C   0  0  0  0  0  1  0  0  0  0  0  0
  180.9240  180.5820  138.9870 O   0  0  0  0  0  0  0  0  0  0  0  0
  186.3850  178.7900  137.6020 O   0  0  0  0  0  0  0  0  0  0  0  0
  187.2140  177.8870  136.9360 C   0  0  0  0  0  0  0  0  0  0  0  0
  187.5750  178.1290  135.6870 C   0  0  0  0  0  2  0  0  0  0  0  0
  187.6680  176.7000  137.5800 N   0  0  0  0  0  1  0  0  0  0  0  0
  1 21  1  1  0  0  0
  1 18  1  0  0  0  0
  2 33  1  6  0  0  0
  2 19  1  0  0  0  0
  3  8  1  6  0  0  0
  3 17  1  0  0  0  0
  4 34  1  1  0  0  0
  4  1  1  0  0  0  0
  5 14  1  0  0  0  0
  6 16  1  6  0  0  0
  6  3  1  0  0  0  0
  6  9  1  0  0  0  0
  7 13  1  0  0  0  0
  7 15  1  0  0  0  0
  9 30  1  6  0  0  0
  9 22  1  0  0  0  0
 11 15  1  1  0  0  0
 11  1  1  0  0  0  0
 11  2  1  0  0  0  0
 12 22  1  0  0  0  0
 13  4  1  0  0  0  0
 14 17  1  0  0  0  0
 14 10  2  0  0  0  0
 17 12  1  1  0  0  0
 18 16  1  0  0  0  0
 19  8  1  1  0  0  0
 19  5  1  0  0  0  0
 20 18  2  0  0  0  0
 23 31  1  0  0  0  0
 24 23  1  0  0  0  0
 25 30  2  0  0  0  0
 26 24  1  0  0  0  0
 26 29  1  0  0  0  0
 29 27  1  6  0  0  0
 29 28  1  0  0  0  0
 30 24  1  0  0  0  0
 31 28  1  0  0  0  0
 32 33  1  0  0  0  0
 35 37  1  0  0  0  0
 35 34  1  0  0  0  0
 36 35  2  0  0  0  0
M  END
>  <MODEL>
7

>  <REMARK>
 VINA RESULT:      -6.1      3.730      7.258
  Name = 
  4 active torsions:
  status: ('A' for Active; 'I' for Inactive)
    1  A    between atoms: C_3  and  O_32
    2  A    between atoms: C_5  and  O_17
    3  A    between atoms: C_11  and  O_17
    4  A    between atoms: C_14  and  C_31
                            x       y       z     vdW  Elec       q    Type
                         _______ _______ _______ _____ _____    ______ ____

>  <TORSDO>
F 4

$$$$
=
 OpenBabel10262422523D

 37 41  0  0  1  0  0  0  0  0999 V2000
  190.1220  176.6050  142.7230 C   0  0  1  0  0  0  0  0  0  0  0  0
  187.9720  177.7180  141.7410 C   0  0  2  0  0  3  0  0  0  0  0  0
  189.4830  177.9190  138.8480 N   0  0  2  0  0  0  0  0  0  0  0  0
  190.9470  176.6370  144.0280 C   0  0  2  0  0  3  0  0  0  0  0  0
  186.9210  178.7550  139.7630 N   0  0  0  0  0  2  0  0  0  0  0  0
  190.6890  177.1090  139.0760 C   0  0  2  0  0  3  0  0  0  0  0  0
  190.1760  178.9850  144.3340 C   0  0  0  0  0  2  0  0  0  0  0  0
  189.3600  178.9070  139.9470 C   0  0  0  0  0  2  0  0  0  0  0  0
  190.9640  176.2300  137.8460 C   0  0  2  0  0  3  0  0  0  0  0  0
  186.0940  177.5850  137.9240 O   0  0  0  0  0  0  0  0  0  0  0  0
  189.0520  177.7190  142.8490 C   0  0  2  0  0  3  0  0  0  0  0  0
  188.4930  176.2130  137.3750 C   0  0  0  0  0  2  0  0  0  0  0  0
  191.3900  178.0600  144.3940 C   0  0  0  0  0  2  0  0  0  0  0  0
  187.0450  177.7890  138.7250 C   0  0  0  0  0  0  0  0  0  0  0  0
  189.6390  178.9870  143.0340 O   0  0  0  0  0  0  0  0  0  0  0  0
  190.5470  176.3230  140.2630 O   0  0  0  0  0  0  0  0  0  0  0  0
  188.3240  177.0180  138.6630 C   0  0  2  0  0  3  0  0  0  0  0  0
  190.9740  176.8220  141.4950 C   0  0  0  0  0  0  0  0  0  0  0  0
  188.0230  178.8790  140.7140 C   0  0  2  0  0  3  0  0  0  0  0  0
  192.0010  177.5560  141.5480 O   0  0  0  0  0  0  0  0  0  0  0  0
  189.4890  175.3630  142.6350 O   0  0  0  0  0  1  0  0  0  0  0  0
  189.7540  175.3590  137.4900 C   0  0  0  0  0  2  0  0  0  0  0  0
  191.7920  174.2730  135.8140 C   0  0  0  0  0  2  0  0  0  0  0  0
  192.5880  174.4390  137.0300 N   0  0  0  0  0  0  0  0  0  0  0  0
  192.9820  175.6480  138.9950 O   0  0  0  0  0  0  0  0  0  0  0  0
  193.8040  173.6430  137.2260 C   0  0  0  0  0  2  0  0  0  0  0  0
  195.1020  171.8430  136.3370 O   0  0  0  0  0  1  0  0  0  0  0  0
  192.7900  171.9090  135.7180 C   0  0  0  0  0  2  0  0  0  0  0  0
  194.0510  172.7120  136.0410 C   0  0  1  0  0  3  0  0  0  0  0  0
  192.2220  175.4270  138.0100 C   0  0  0  0  0  0  0  0  0  0  0  0
  191.5380  172.7880  135.5450 C   0  0  0  0  0  2  0  0  0  0  0  0
  186.7610  177.5020  143.6710 C   0  0  0  0  0  1  0  0  0  0  0  0
  186.6780  177.5020  142.2690 O   0  0  0  0  0  0  0  0  0  0  0  0
  192.0550  175.7410  143.9800 O   0  0  0  0  0  0  0  0  0  0  0  0
  192.3070  174.8230  145.0010 C   0  0  0  0  0  0  0  0  0  0  0  0
  192.4300  175.2490  146.2470 C   0  0  0  0  0  2  0  0  0  0  0  0
  192.4420  173.4340  144.7190 N   0  0  0  0  0  1  0  0  0  0  0  0
  1 21  1  6  0  0  0
  1 11  1  0  0  0  0
  1  4  1  0  0  0  0
  2 33  1  1  0  0  0
  2 11  1  0  0  0  0
  3  6  1  0  0  0  0
  3  8  1  1  0  0  0
  4 34  1  6  0  0  0
  4 13  1  0  0  0  0
  5 19  1  0  0  0  0
  6 16  1  1  0  0  0
  7 13  1  0  0  0  0
  9 30  1  1  0  0  0
  9  6  1  0  0  0  0
 10 14  2  0  0  0  0
 11 15  1  6  0  0  0
 12 22  1  0  0  0  0
 14  5  1  0  0  0  0
 15  7  1  0  0  0  0
 16 18  1  0  0  0  0
 17 12  1  6  0  0  0
 17 14  1  0  0  0  0
 17  3  1  0  0  0  0
 18 20  2  0  0  0  0
 18  1  1  0  0  0  0
 19  8  1  6  0  0  0
 19  2  1  0  0  0  0
 22  9  1  0  0  0  0
 23 24  1  0  0  0  0
 24 26  1  0  0  0  0
 24 30  1  0  0  0  0
 28 29  1  0  0  0  0
 29 27  1  1  0  0  0
 29 26  1  0  0  0  0
 30 25  2  0  0  0  0
 31 28  1  0  0  0  0
 31 23  1  0  0  0  0
 33 32  1  0  0  0  0
 34 35  1  0  0  0  0
 35 36  2  0  0  0  0
 37 35  1  0  0  0  0
M  END
>  <MODEL>
8

>  <REMARK>
 VINA RESULT:      -6.0      2.839      7.955
  Name = 
  4 active torsions:
  status: ('A' for Active; 'I' for Inactive)
    1  A    between atoms: C_3  and  O_32
    2  A    between atoms: C_5  and  O_17
    3  A    between atoms: C_11  and  O_17
    4  A    between atoms: C_14  and  C_31
                            x       y       z     vdW  Elec       q    Type
                         _______ _______ _______ _____ _____    ______ ____

>  <TORSDO>
F 4

$$$$
=
 OpenBabel10262422523D

 37 41  0  0  1  0  0  0  0  0999 V2000
  181.5150  177.8910  139.9310 C   0  0  1  0  0  0  0  0  0  0  0  0
  180.5050  176.6870  137.8440 C   0  0  2  0  0  3  0  0  0  0  0  0
  183.2510  177.3760  136.2070 N   0  0  2  0  0  0  0  0  0  0  0  0
  181.0440  178.8190  141.0710 C   0  0  2  0  0  3  0  0  0  0  0  0
  180.8240  176.0820  135.4730 N   0  0  0  0  0  2  0  0  0  0  0  0
  184.1280  177.8730  137.2770 C   0  0  2  0  0  3  0  0  0  0  0  0
  179.3150  179.6890  139.5030 C   0  0  0  0  0  2  0  0  0  0  0  0
  181.9580  178.1000  136.2790 C   0  0  0  0  0  2  0  0  0  0  0  0
  185.5440  177.3040  137.0920 C   0  0  2  0  0  3  0  0  0  0  0  0
  182.1970  174.3600  134.7080 O   0  0  0  0  0  0  0  0  0  0  0  0
  180.3240  177.7540  138.9500 C   0  0  2  0  0  3  0  0  0  0  0  0
  184.5290  175.2830  135.9910 C   0  0  0  0  0  2  0  0  0  0  0  0
  180.3670  180.0890  140.5360 C   0  0  0  0  0  2  0  0  0  0  0  0
  182.0640  175.3850  135.4280 C   0  0  0  0  0  0  0  0  0  0  0  0
  179.9250  179.0050  138.4370 O   0  0  0  0  0  0  0  0  0  0  0  0
  183.5910  177.5400  138.5600 O   0  0  0  0  0  0  0  0  0  0  0  0
  183.1660  175.9010  136.2970 C   0  0  2  0  0  3  0  0  0  0  0  0
  182.7350  178.4250  139.2170 C   0  0  0  0  0  0  0  0  0  0  0  0
  180.7070  177.2070  136.3970 C   0  0  2  0  0  3  0  0  0  0  0  0
  182.9170  179.6690  139.1030 O   0  0  0  0  0  0  0  0  0  0  0  0
  181.8090  176.6400  140.4790 O   0  0  0  0  0  1  0  0  0  0  0  0
  185.5370  175.7720  137.0290 C   0  0  0  0  0  2  0  0  0  0  0  0
  188.4130  176.6690  136.9940 C   0  0  0  0  0  2  0  0  0  0  0  0
  187.8840  177.4730  138.0950 N   0  0  0  0  0  0  0  0  0  0  0  0
  186.0690  178.6270  139.0170 O   0  0  0  0  0  0  0  0  0  0  0  0
  188.7870  177.9730  139.1370 C   0  0  0  0  0  2  0  0  0  0  0  0
  191.0250  177.8720  139.9700 O   0  0  0  0  0  1  0  0  0  0  0  0
  190.2970  176.0350  138.6190 C   0  0  0  0  0  2  0  0  0  0  0  0
  190.2280  177.5420  138.8740 C   0  0  1  0  0  3  0  0  0  0  0  0
  186.4920  177.8320  138.1310 C   0  0  0  0  0  0  0  0  0  0  0  0
  189.3160  175.5570  137.5330 C   0  0  0  0  0  2  0  0  0  0  0  0
  180.0810  174.5820  138.6390 C   0  0  0  0  0  1  0  0  0  0  0  0
  179.5310  175.6660  137.9350 O   0  0  0  0  0  0  0  0  0  0  0  0
  182.1000  179.1320  141.9760 O   0  0  0  0  0  0  0  0  0  0  0  0
  181.9770  178.9290  143.3520 C   0  0  0  0  0  0  0  0  0  0  0  0
  183.0550  178.9660  144.1170 C   0  0  0  0  0  2  0  0  0  0  0  0
  180.7060  178.6700  143.9420 N   0  0  0  0  0  1  0  0  0  0  0  0
  1 21  1  1  0  0  0
  1  4  1  0  0  0  0
  2 33  1  6  0  0  0
  2 11  1  0  0  0  0
  3  8  1  1  0  0  0
  3 17  1  0  0  0  0
  3  6  1  0  0  0  0
  4 34  1  6  0  0  0
  5 19  1  0  0  0  0
  6 16  1  1  0  0  0
  7 13  1  0  0  0  0
  9  6  1  0  0  0  0
  9 30  1  1  0  0  0
 10 14  2  0  0  0  0
 11 15  1  6  0  0  0
 11  1  1  0  0  0  0
 12 22  1  0  0  0  0
 13  4  1  0  0  0  0
 14  5  1  0  0  0  0
 14 17  1  0  0  0  0
 15  7  1  0  0  0  0
 16 18  1  0  0  0  0
 17 12  1  6  0  0  0
 18  1  1  0  0  0  0
 19  8  1  1  0  0  0
 19  2  1  0  0  0  0
 20 18  2  0  0  0  0
 22  9  1  0  0  0  0
 23 31  1  0  0  0  0
 23 24  1  0  0  0  0
 24 30  1  0  0  0  0
 24 26  1  0  0  0  0
 28 29  1  0  0  0  0
 29 26  1  0  0  0  0
 29 27  1  1  0  0  0
 30 25  2  0  0  0  0
 31 28  1  0  0  0  0
 33 32  1  0  0  0  0
 34 35  1  0  0  0  0
 35 37  1  0  0  0  0
 35 36  2  0  0  0  0
M  END
>  <MODEL>
9

>  <REMARK>
 VINA RESULT:      -5.9      3.349      6.853
  Name = 
  4 active torsions:
  status: ('A' for Active; 'I' for Inactive)
    1  A    between atoms: C_3  and  O_32
    2  A    between atoms: C_5  and  O_17
    3  A    between atoms: C_11  and  O_17
    4  A    between atoms: C_14  and  C_31
                            x       y       z     vdW  Elec       q    Type
                         _______ _______ _______ _____ _____    ______ ____

>  <TORSDO>
F 4

$$$$
