=
 OpenBabel10262421013D

 32 38  0  0  1  0  0  0  0  0999 V2000
  181.7700  178.4890  139.0220 C   0  0  2  0  0  3  0  0  0  0  0  0
  181.8700  178.6310  141.5080 C   0  0  2  0  0  3  0  0  0  0  0  0
  181.6870  179.2700  137.7070 C   0  0  0  0  0  2  0  0  0  0  0  0
  181.6560  179.4290  140.2260 C   0  0  2  0  0  3  0  0  0  0  0  0
  181.5530  179.5140  142.7030 C   0  0  2  0  0  3  0  0  0  0  0  0
  186.1520  178.2510  144.1760 C   0  0  0  0  0  2  0  0  0  0  0  0
  183.2700  177.9850  141.5820 C   0  0  1  0  0  3  0  0  0  0  0  0
  183.9580  178.6600  145.1060 O   0  0  0  0  0  0  0  0  0  0  0  0
  183.4200  179.1670  143.9050 C   0  0  2  0  0  3  0  0  0  0  0  0
  180.3490  180.2680  140.2320 C   0  0  2  0  0  3  0  0  0  0  0  0
  182.0340  178.9130  143.8750 O   0  0  0  0  0  0  0  0  0  0  0  0
  179.3790  179.8680  141.3530 C   0  0  0  0  0  2  0  0  0  0  0  0
  179.6330  180.2470  138.8780 C   0  0  0  0  0  2  0  0  0  0  0  0
  183.9740  177.9590  140.2110 C   0  0  0  0  0  2  0  0  0  0  0  0
  183.0170  177.5770  139.0610 C   0  0  1  0  0  3  0  0  0  0  0  0
  184.1800  178.6230  142.6440 C   0  0  1  0  0  3  0  0  0  0  0  0
  180.0440  179.8430  142.7480 C   0  0  1  0  0  3  0  0  0  0  0  0
  180.6420  180.3990  137.7360 C   0  0  0  0  0  2  0  0  0  0  0  0
  185.2990  179.0730  145.1530 C   0  0  0  0  0  2  0  0  0  0  0  0
  185.3040  177.6640  143.0440 C   0  0  0  0  0  2  0  0  0  0  0  0
  180.7840  174.0410  136.7910 C   0  0  0  0  0  1  0  0  0  0  0  0
  181.9920  175.9070  134.9470 O   0  0  0  0  0  1  0  0  0  0  0  0
  180.4320  174.8800  139.5650 C   0  0  0  0  0  2  0  0  0  0  0  0
  183.5230  175.5200  136.7680 C   0  0  0  0  0  2  0  0  0  0  0  0
  182.6390  176.0780  139.1190 C   0  0  2  0  0  3  0  0  0  0  0  0
  180.9820  175.5220  137.1110 C   0  0  1  0  0  3  0  0  0  0  0  0
  183.6160  175.2390  138.2800 C   0  0  0  0  0  2  0  0  0  0  0  0
  181.2150  175.7700  138.6140 C   0  0  0  0  0  0  0  0  0  0  0  0
  180.0310  176.3290  139.3800 C   0  0  0  0  0  2  0  0  0  0  0  0
  182.1670  176.0910  136.3190 C   0  0  2  0  0  3  0  0  0  0  0  0
  179.2420  178.9640  143.7120 C   0  0  0  0  0  2  0  0  0  0  0  0
  178.9310  179.6770  145.0200 C   0  0  0  0  0  1  0  0  0  0  0  0
  1  3  1  6  0  0  0
  1 15  1  0  0  0  0
  1  4  1  0  0  0  0
  2  7  1  0  0  0  0
  2  5  1  0  0  0  0
  3 18  1  0  0  0  0
  4 10  1  0  0  0  0
  4  2  1  0  0  0  0
  5 17  1  0  0  0  0
  5 11  1  0  0  0  0
  6 19  1  0  0  0  0
  7 16  1  0  0  0  0
  8 19  1  0  0  0  0
  9  8  1  0  0  0  0
 10 12  1  0  0  0  0
 11  9  1  0  0  0  0
 12 17  1  0  0  0  0
 13 10  1  0  0  0  0
 14  7  1  0  0  0  0
 15 25  1  0  0  0  0
 15 14  1  0  0  0  0
 16 20  1  0  0  0  0
 16  9  1  0  0  0  0
 17 31  1  0  0  0  0
 18 13  1  0  0  0  0
 20  6  1  0  0  0  0
 21 26  1  0  0  0  0
 22 30  1  0  0  0  0
 24 27  1  0  0  0  0
 26 28  1  0  0  0  0
 27 25  1  0  0  0  0
 28 25  1  0  0  0  0
 28 29  1  0  0  0  0
 28 23  1  0  0  0  0
 29 23  1  0  0  0  0
 30 24  1  0  0  0  0
 30 26  1  0  0  0  0
 31 32  1  0  0  0  0
M  END
>  <MODEL>
1

>  <REMARK>
 VINA RESULT:      -6.7      0.000      0.000
  Name = 
  2 active torsions:
  status: ('A' for Active; 'I' for Inactive)
    1  A    between atoms: C_13  and  C_29
    2  A    between atoms: C_16  and  C_27
                            x       y       z     vdW  Elec       q    Type
                         _______ _______ _______ _____ _____    ______ ____

>  <TORSDO>
F 2

$$$$
=
 OpenBabel10262421013D

 32 38  0  0  1  0  0  0  0  0999 V2000
  181.0880  177.8420  140.8750 C   0  0  2  0  0  3  0  0  0  0  0  0
  183.5760  177.9660  140.9570 C   0  0  2  0  0  3  0  0  0  0  0  0
  179.7730  178.6170  140.9980 C   0  0  0  0  0  2  0  0  0  0  0  0
  182.2850  178.7370  141.2140 C   0  0  2  0  0  3  0  0  0  0  0  0
  184.7510  178.7710  141.4850 C   0  0  2  0  0  3  0  0  0  0  0  0
  186.5140  178.2410  136.8470 C   0  0  0  0  0  2  0  0  0  0  0  0
  183.7380  177.5510  139.4780 C   0  0  1  0  0  3  0  0  0  0  0  0
  187.3010  178.2820  139.1330 O   0  0  0  0  0  0  0  0  0  0  0  0
  186.0690  178.7120  139.6670 C   0  0  2  0  0  3  0  0  0  0  0  0
  182.2090  179.3560  142.6360 C   0  0  2  0  0  3  0  0  0  0  0  0
  185.9490  178.2410  140.9900 O   0  0  0  0  0  0  0  0  0  0  0  0
  183.2630  178.7910  143.5990 C   0  0  0  0  0  2  0  0  0  0  0  0
  180.8110  179.2380  143.2520 C   0  0  0  0  0  2  0  0  0  0  0  0
  182.4160  177.6560  138.6940 C   0  0  0  0  0  2  0  0  0  0  0  0
  181.2050  177.1410  139.5030 C   0  0  1  0  0  3  0  0  0  0  0  0
  184.8590  178.3120  138.7510 C   0  0  1  0  0  3  0  0  0  0  0  0
  184.6980  178.8550  143.0280 C   0  0  1  0  0  3  0  0  0  0  0  0
  179.7370  179.5640  142.2110 C   0  0  0  0  0  2  0  0  0  0  0  0
  187.4360  178.9040  137.8800 C   0  0  0  0  0  2  0  0  0  0  0  0
  185.3280  177.5410  137.5160 C   0  0  0  0  0  2  0  0  0  0  0  0
  179.1740  173.0750  138.0940 C   0  0  0  0  0  1  0  0  0  0  0  0
  179.1390  175.0720  136.0080 O   0  0  0  0  0  1  0  0  0  0  0  0
  179.6960  173.9510  140.8290 C   0  0  0  0  0  2  0  0  0  0  0  0
  181.2830  175.1410  137.1070 C   0  0  0  0  0  2  0  0  0  0  0  0
  181.2350  175.6000  139.6390 C   0  0  2  0  0  3  0  0  0  0  0  0
  179.1280  174.5770  138.3760 C   0  0  1  0  0  3  0  0  0  0  0  0
  181.9950  174.9660  138.4620 C   0  0  0  0  0  2  0  0  0  0  0  0
  179.8390  174.9480  139.6910 C   0  0  0  0  0  0  0  0  0  0  0  0
  178.9310  175.2580  140.8650 C   0  0  0  0  0  2  0  0  0  0  0  0
  179.7650  175.3620  137.2220 C   0  0  2  0  0  3  0  0  0  0  0  0
  185.6060  177.8470  143.7380 C   0  0  0  0  0  2  0  0  0  0  0  0
  185.8290  178.2010  145.2020 C   0  0  0  0  0  1  0  0  0  0  0  0
  1  3  1  6  0  0  0
  1  4  1  0  0  0  0
  2  4  1  0  0  0  0
  2  5  1  0  0  0  0
  3 18  1  0  0  0  0
  4 10  1  0  0  0  0
  5 17  1  0  0  0  0
  6 20  1  0  0  0  0
  6 19  1  0  0  0  0
  7  2  1  0  0  0  0
  8  9  1  0  0  0  0
  9 11  1  0  0  0  0
 10 13  1  0  0  0  0
 10 12  1  0  0  0  0
 11  5  1  0  0  0  0
 14  7  1  0  0  0  0
 14 15  1  0  0  0  0
 15 25  1  0  0  0  0
 15  1  1  0  0  0  0
 16  7  1  0  0  0  0
 16  9  1  0  0  0  0
 17 12  1  0  0  0  0
 17 31  1  0  0  0  0
 18 13  1  0  0  0  0
 19  8  1  0  0  0  0
 20 16  1  0  0  0  0
 21 26  1  0  0  0  0
 22 30  1  0  0  0  0
 23 29  1  0  0  0  0
 24 30  1  0  0  0  0
 24 27  1  0  0  0  0
 25 28  1  0  0  0  0
 26 28  1  0  0  0  0
 27 25  1  0  0  0  0
 28 23  1  0  0  0  0
 28 29  1  0  0  0  0
 30 26  1  0  0  0  0
 31 32  1  0  0  0  0
M  END
>  <MODEL>
2

>  <REMARK>
 VINA RESULT:      -6.5      2.251      4.119
  Name = 
  2 active torsions:
  status: ('A' for Active; 'I' for Inactive)
    1  A    between atoms: C_13  and  C_29
    2  A    between atoms: C_16  and  C_27
                            x       y       z     vdW  Elec       q    Type
                         _______ _______ _______ _____ _____    ______ ____

>  <TORSDO>
F 2

$$$$
=
 OpenBabel10262421013D

 32 38  0  0  1  0  0  0  0  0999 V2000
  182.8980  178.2030  141.4920 C   0  0  2  0  0  3  0  0  0  0  0  0
  185.3580  177.8780  141.2610 C   0  0  2  0  0  3  0  0  0  0  0  0
  181.7800  179.1180  141.9990 C   0  0  0  0  0  2  0  0  0  0  0  0
  184.2740  178.7470  141.8910 C   0  0  2  0  0  3  0  0  0  0  0  0
  186.7100  178.2870  141.8200 C   0  0  2  0  0  3  0  0  0  0  0  0
  187.9340  178.8360  137.0130 C   0  0  0  0  0  2  0  0  0  0  0  0
  185.3090  177.8890  139.7170 C   0  0  1  0  0  3  0  0  0  0  0  0
  188.9040  178.0800  139.0940 O   0  0  0  0  0  0  0  0  0  0  0  0
  187.8320  178.5370  139.8890 C   0  0  2  0  0  3  0  0  0  0  0  0
  184.4430  178.9310  143.4230 C   0  0  2  0  0  3  0  0  0  0  0  0
  187.7330  177.7300  141.0400 O   0  0  0  0  0  0  0  0  0  0  0  0
  185.4410  177.9430  144.0440 C   0  0  0  0  0  2  0  0  0  0  0  0
  183.1070  178.8760  144.1710 C   0  0  0  0  0  2  0  0  0  0  0  0
  183.9730  178.4370  139.1800 C   0  0  0  0  0  2  0  0  0  0  0  0
  182.7560  177.9200  139.9790 C   0  0  1  0  0  3  0  0  0  0  0  0
  186.4930  178.6290  139.0750 C   0  0  1  0  0  3  0  0  0  0  0  0
  186.8070  177.9280  143.3200 C   0  0  1  0  0  3  0  0  0  0  0  0
  182.0360  179.6650  143.4140 C   0  0  0  0  0  2  0  0  0  0  0  0
  189.0530  179.0060  138.0490 C   0  0  0  0  0  2  0  0  0  0  0  0
  186.6920  178.1820  137.6250 C   0  0  0  0  0  2  0  0  0  0  0  0
  180.2420  174.8600  137.3430 C   0  0  0  0  0  1  0  0  0  0  0  0
  180.8560  177.2770  135.8880 O   0  0  0  0  0  1  0  0  0  0  0  0
  180.5280  174.8910  140.2470 C   0  0  0  0  0  2  0  0  0  0  0  0
  182.8040  176.6150  137.1440 C   0  0  0  0  0  2  0  0  0  0  0  0
  182.4890  176.4240  139.6900 C   0  0  2  0  0  3  0  0  0  0  0  0
  180.4270  176.2180  138.0200 C   0  0  1  0  0  3  0  0  0  0  0  0
  183.2780  175.9600  138.4550 C   0  0  0  0  0  2  0  0  0  0  0  0
  181.0050  176.0880  139.4420 C   0  0  0  0  0  0  0  0  0  0  0  0
  180.0130  176.2780  140.5740 C   0  0  0  0  0  2  0  0  0  0  0  0
  181.3490  177.1150  137.1830 C   0  0  2  0  0  3  0  0  0  0  0  0
  187.5510  176.6190  143.6010 C   0  0  0  0  0  2  0  0  0  0  0  0
  188.9340  176.8570  144.1910 C   0  0  0  0  0  1  0  0  0  0  0  0
  1  4  1  0  0  0  0
  1  3  1  6  0  0  0
  2  5  1  0  0  0  0
  2  4  1  0  0  0  0
  3 18  1  0  0  0  0
  4 10  1  0  0  0  0
  5 17  1  0  0  0  0
  6 20  1  0  0  0  0
  6 19  1  0  0  0  0
  7  2  1  0  0  0  0
  8  9  1  0  0  0  0
  9 11  1  0  0  0  0
 10 12  1  0  0  0  0
 10 13  1  0  0  0  0
 11  5  1  0  0  0  0
 14  7  1  0  0  0  0
 14 15  1  0  0  0  0
 15  1  1  0  0  0  0
 16  7  1  0  0  0  0
 16  9  1  0  0  0  0
 17 31  1  0  0  0  0
 17 12  1  0  0  0  0
 18 13  1  0  0  0  0
 19  8  1  0  0  0  0
 20 16  1  0  0  0  0
 21 26  1  0  0  0  0
 22 30  1  0  0  0  0
 23 29  1  0  0  0  0
 24 30  1  0  0  0  0
 24 27  1  0  0  0  0
 25 15  1  0  0  0  0
 26 28  1  0  0  0  0
 27 25  1  0  0  0  0
 28 25  1  0  0  0  0
 28 23  1  0  0  0  0
 28 29  1  0  0  0  0
 30 26  1  0  0  0  0
 31 32  1  0  0  0  0
M  END
>  <MODEL>
3

>  <REMARK>
 VINA RESULT:      -6.1      2.699      4.990
  Name = 
  2 active torsions:
  status: ('A' for Active; 'I' for Inactive)
    1  A    between atoms: C_13  and  C_29
    2  A    between atoms: C_16  and  C_27
                            x       y       z     vdW  Elec       q    Type
                         _______ _______ _______ _____ _____    ______ ____

>  <TORSDO>
F 2

$$$$
=
 OpenBabel10262421013D

 32 38  0  0  1  0  0  0  0  0999 V2000
  181.6250  177.0820  137.2790 C   0  0  2  0  0  3  0  0  0  0  0  0
  183.9460  177.4590  138.1050 C   0  0  2  0  0  3  0  0  0  0  0  0
  180.4280  177.6820  136.5360 C   0  0  0  0  0  2  0  0  0  0  0  0
  182.7280  178.1280  137.4760 C   0  0  2  0  0  3  0  0  0  0  0  0
  184.9570  178.5270  138.4890 C   0  0  2  0  0  3  0  0  0  0  0  0
  188.0850  175.8100  135.7070 C   0  0  0  0  0  2  0  0  0  0  0  0
  184.5430  176.3490  137.2130 C   0  0  1  0  0  3  0  0  0  0  0  0
  188.0760  177.1150  137.7420 O   0  0  0  0  0  0  0  0  0  0  0  0
  186.7870  177.6450  137.5290 C   0  0  2  0  0  3  0  0  0  0  0  0
  182.2510  179.3900  138.2450 C   0  0  2  0  0  3  0  0  0  0  0  0
  186.1920  177.9280  138.7740 O   0  0  0  0  0  0  0  0  0  0  0  0
  182.8670  179.5130  139.6460 C   0  0  0  0  0  2  0  0  0  0  0  0
  180.7240  179.4840  138.3260 C   0  0  0  0  0  2  0  0  0  0  0  0
  183.5700  175.9050  136.1040 C   0  0  0  0  0  2  0  0  0  0  0  0
  182.1150  175.7810  136.6070 C   0  0  1  0  0  3  0  0  0  0  0  0
  185.9110  176.7160  136.6160 C   0  0  1  0  0  3  0  0  0  0  0  0
  184.4080  179.4010  139.6400 C   0  0  1  0  0  3  0  0  0  0  0  0
  180.0910  179.1150  136.9820 C   0  0  0  0  0  2  0  0  0  0  0  0
  188.6770  176.9980  136.4780 C   0  0  0  0  0  2  0  0  0  0  0  0
  186.6800  175.4580  136.2040 C   0  0  0  0  0  2  0  0  0  0  0  0
  179.5420  171.8600  137.4130 C   0  0  0  0  0  1  0  0  0  0  0  0
  179.7410  172.4530  134.5940 O   0  0  0  0  0  1  0  0  0  0  0  0
  180.2170  173.9700  139.3140 C   0  0  0  0  0  2  0  0  0  0  0  0
  181.8920  172.8290  135.6150 C   0  0  0  0  0  2  0  0  0  0  0  0
  181.9430  174.5490  137.5280 C   0  0  2  0  0  3  0  0  0  0  0  0
  179.6990  173.2790  136.8670 C   0  0  1  0  0  3  0  0  0  0  0  0
  182.5940  173.3060  136.9010 C   0  0  0  0  0  2  0  0  0  0  0  0
  180.4740  174.1960  137.8330 C   0  0  0  0  0  0  0  0  0  0  0  0
  179.6320  175.1820  138.6200 C   0  0  0  0  0  2  0  0  0  0  0  0
  180.4180  173.2580  135.5110 C   0  0  2  0  0  3  0  0  0  0  0  0
  184.9250  179.0030  141.0250 C   0  0  0  0  0  2  0  0  0  0  0  0
  183.8030  178.5620  141.9550 C   0  0  0  0  0  1  0  0  0  0  0  0
  1  3  1  6  0  0  0
  1  4  1  0  0  0  0
  2  5  1  0  0  0  0
  3 18  1  0  0  0  0
  4  2  1  0  0  0  0
  4 10  1  0  0  0  0
  5 11  1  0  0  0  0
  5 17  1  0  0  0  0
  6 20  1  0  0  0  0
  6 19  1  0  0  0  0
  7  2  1  0  0  0  0
  9  8  1  0  0  0  0
  9 11  1  0  0  0  0
 10 13  1  0  0  0  0
 10 12  1  0  0  0  0
 14 15  1  0  0  0  0
 14  7  1  0  0  0  0
 15  1  1  0  0  0  0
 15 25  1  0  0  0  0
 16  7  1  0  0  0  0
 16  9  1  0  0  0  0
 17 12  1  0  0  0  0
 17 31  1  0  0  0  0
 18 13  1  0  0  0  0
 19  8  1  0  0  0  0
 20 16  1  0  0  0  0
 22 30  1  0  0  0  0
 24 27  1  0  0  0  0
 25 28  1  0  0  0  0
 26 21  1  0  0  0  0
 26 28  1  0  0  0  0
 27 25  1  0  0  0  0
 28 29  1  0  0  0  0
 28 23  1  0  0  0  0
 29 23  1  0  0  0  0
 30 24  1  0  0  0  0
 30 26  1  0  0  0  0
 31 32  1  0  0  0  0
M  END
>  <MODEL>
4

>  <REMARK>
 VINA RESULT:      -5.2      2.905      4.897
  Name = 
  2 active torsions:
  status: ('A' for Active; 'I' for Inactive)
    1  A    between atoms: C_13  and  C_29
    2  A    between atoms: C_16  and  C_27
                            x       y       z     vdW  Elec       q    Type
                         _______ _______ _______ _____ _____    ______ ____

>  <TORSDO>
F 2

$$$$
=
 OpenBabel10262421013D

 32 38  0  0  1  0  0  0  0  0999 V2000
  190.9880  177.1160  140.6180 C   0  0  2  0  0  3  0  0  0  0  0  0
  188.9140  176.7830  139.2760 C   0  0  2  0  0  3  0  0  0  0  0  0
  192.3730  177.7660  140.6740 C   0  0  0  0  0  2  0  0  0  0  0  0
  190.3360  177.3340  139.2480 C   0  0  2  0  0  3  0  0  0  0  0  0
  188.3410  176.8100  137.8700 C   0  0  2  0  0  3  0  0  0  0  0  0
  184.6500  179.4110  139.9940 C   0  0  0  0  0  2  0  0  0  0  0  0
  188.0180  177.4980  140.3120 C   0  0  1  0  0  3  0  0  0  0  0  0
  184.9860  177.7340  138.2870 O   0  0  0  0  0  0  0  0  0  0  0  0
  186.3920  177.8430  138.2980 C   0  0  2  0  0  3  0  0  0  0  0  0
  191.1850  176.7890  138.0670 C   0  0  2  0  0  3  0  0  0  0  0  0
  186.9550  176.6080  137.9190 O   0  0  0  0  0  0  0  0  0  0  0  0
  190.5550  175.5680  137.3820 C   0  0  0  0  0  2  0  0  0  0  0  0
  192.6290  176.4810  138.4770 C   0  0  0  0  0  2  0  0  0  0  0  0
  188.8400  178.3110  141.3310 C   0  0  0  0  0  2  0  0  0  0  0  0
  190.1050  177.5620  141.8040 C   0  0  1  0  0  3  0  0  0  0  0  0
  186.9300  178.3760  139.6730 C   0  0  1  0  0  3  0  0  0  0  0  0
  189.0850  175.8020  136.9640 C   0  0  1  0  0  3  0  0  0  0  0  0
  193.1800  177.5920  139.3750 C   0  0  0  0  0  2  0  0  0  0  0  0
  184.4810  179.0230  138.5190 C   0  0  0  0  0  2  0  0  0  0  0  0
  185.7860  178.6270  140.6580 C   0  0  0  0  0  2  0  0  0  0  0  0
  189.8910  176.1030  146.3280 C   0  0  0  0  0  1  0  0  0  0  0  0
  189.3330  178.9250  146.0830 O   0  0  0  0  0  1  0  0  0  0  0  0
  191.1740  174.7530  144.0800 C   0  0  0  0  0  2  0  0  0  0  0  0
  188.2240  177.7600  144.2880 C   0  0  0  0  0  2  0  0  0  0  0  0
  189.7430  176.3800  142.7350 C   0  0  2  0  0  3  0  0  0  0  0  0
  190.4800  176.9780  145.2220 C   0  0  1  0  0  3  0  0  0  0  0  0
  188.3340  176.5640  143.3230 C   0  0  0  0  0  2  0  0  0  0  0  0
  190.7150  176.1930  143.9170 C   0  0  0  0  0  0  0  0  0  0  0  0
  192.1550  175.8150  143.6270 C   0  0  0  0  0  2  0  0  0  0  0  0
  189.5600  178.1710  144.9310 C   0  0  2  0  0  3  0  0  0  0  0  0
  188.3560  174.4670  136.7880 C   0  0  0  0  0  2  0  0  0  0  0  0
  189.3130  173.2820  136.7880 C   0  0  0  0  0  1  0  0  0  0  0  0
  1  3  1  6  0  0  0
  1 15  1  0  0  0  0
  2  7  1  0  0  0  0
  4  2  1  0  0  0  0
  4  1  1  0  0  0  0
  5 11  1  0  0  0  0
  5  2  1  0  0  0  0
  6 20  1  0  0  0  0
  7 14  1  0  0  0  0
  8  9  1  0  0  0  0
  8 19  1  0  0  0  0
  9 16  1  0  0  0  0
 10 13  1  0  0  0  0
 10  4  1  0  0  0  0
 11  9  1  0  0  0  0
 12 10  1  0  0  0  0
 13 18  1  0  0  0  0
 14 15  1  0  0  0  0
 15 25  1  0  0  0  0
 16  7  1  0  0  0  0
 16 20  1  0  0  0  0
 17 12  1  0  0  0  0
 17  5  1  0  0  0  0
 18  3  1  0  0  0  0
 19  6  1  0  0  0  0
 24 30  1  0  0  0  0
 25 27  1  0  0  0  0
 25 28  1  0  0  0  0
 26 21  1  0  0  0  0
 27 24  1  0  0  0  0
 28 23  1  0  0  0  0
 28 26  1  0  0  0  0
 29 28  1  0  0  0  0
 29 23  1  0  0  0  0
 30 26  1  0  0  0  0
 30 22  1  0  0  0  0
 31 17  1  0  0  0  0
 32 31  1  0  0  0  0
M  END
>  <MODEL>
5

>  <REMARK>
 VINA RESULT:      -5.1      5.279      9.997
  Name = 
  2 active torsions:
  status: ('A' for Active; 'I' for Inactive)
    1  A    between atoms: C_13  and  C_29
    2  A    between atoms: C_16  and  C_27
                            x       y       z     vdW  Elec       q    Type
                         _______ _______ _______ _____ _____    ______ ____

>  <TORSDO>
F 2

$$$$
=
 OpenBabel10262421013D

 32 38  0  0  1  0  0  0  0  0999 V2000
  190.4860  175.9790  137.8040 C   0  0  2  0  0  3  0  0  0  0  0  0
  188.4610  175.4100  136.4660 C   0  0  2  0  0  3  0  0  0  0  0  0
  191.0280  176.3820  139.1780 C   0  0  0  0  0  2  0  0  0  0  0  0
  188.9540  175.9360  137.8100 C   0  0  2  0  0  3  0  0  0  0  0  0
  186.9520  175.5620  136.3950 C   0  0  2  0  0  3  0  0  0  0  0  0
  187.0430  170.6750  135.3870 C   0  0  0  0  0  2  0  0  0  0  0  0
  188.9440  173.9720  136.1750 C   0  0  1  0  0  3  0  0  0  0  0  0
  185.8390  172.6730  134.7520 O   0  0  0  0  0  0  0  0  0  0  0  0
  186.4140  173.4750  135.7590 C   0  0  2  0  0  3  0  0  0  0  0  0
  188.3010  177.2830  138.2230 C   0  0  2  0  0  3  0  0  0  0  0  0
  186.4510  174.8130  135.3210 O   0  0  0  0  0  0  0  0  0  0  0  0
  187.5700  177.9800  137.0660 C   0  0  0  0  0  2  0  0  0  0  0  0
  189.3020  178.2440  138.8730 C   0  0  0  0  0  2  0  0  0  0  0  0
  190.1050  173.5490  137.0950 C   0  0  0  0  0  2  0  0  0  0  0  0
  191.1420  174.6760  137.2970 C   0  0  1  0  0  3  0  0  0  0  0  0
  187.8140  172.9310  136.2180 C   0  0  1  0  0  3  0  0  0  0  0  0
  186.5600  177.0570  136.3470 C   0  0  1  0  0  3  0  0  0  0  0  0
  190.2060  177.4940  139.8540 C   0  0  0  0  0  2  0  0  0  0  0  0
  185.6870  171.3880  135.2980 C   0  0  0  0  0  2  0  0  0  0  0  0
  188.2030  171.6730  135.4380 C   0  0  0  0  0  2  0  0  0  0  0  0
  195.3780  173.9880  135.2410 C   0  0  0  0  0  1  0  0  0  0  0  0
  194.6850  171.8240  137.0220 O   0  0  0  0  0  1  0  0  0  0  0  0
  193.9000  176.4940  135.4800 C   0  0  0  0  0  2  0  0  0  0  0  0
  192.7220  172.4550  135.7740 C   0  0  0  0  0  2  0  0  0  0  0  0
  191.9770  174.9060  136.0140 C   0  0  2  0  0  3  0  0  0  0  0  0
  194.4930  174.1720  136.4740 C   0  0  1  0  0  3  0  0  0  0  0  0
  191.9810  173.6450  135.1350 C   0  0  0  0  0  2  0  0  0  0  0  0
  193.4470  175.2860  136.2830 C   0  0  0  0  0  0  0  0  0  0  0  0
  193.7470  176.5970  136.9830 C   0  0  0  0  0  2  0  0  0  0  0  0
  193.7740  172.8610  136.8210 C   0  0  2  0  0  3  0  0  0  0  0  0
  186.2620  177.5780  134.9390 C   0  0  0  0  0  2  0  0  0  0  0  0
  184.7810  177.4960  134.5940 C   0  0  0  0  0  1  0  0  0  0  0  0
  1  4  1  0  0  0  0
  1  3  1  1  0  0  0
  2  4  1  0  0  0  0
  3 18  1  0  0  0  0
  4 10  1  0  0  0  0
  5  2  1  0  0  0  0
  6 20  1  0  0  0  0
  7 16  1  0  0  0  0
  7  2  1  0  0  0  0
  7 14  1  0  0  0  0
  8 19  1  0  0  0  0
  8  9  1  0  0  0  0
  9 16  1  0  0  0  0
 10 13  1  0  0  0  0
 11  9  1  0  0  0  0
 11  5  1  0  0  0  0
 12 10  1  0  0  0  0
 13 18  1  0  0  0  0
 14 15  1  0  0  0  0
 15  1  1  0  0  0  0
 17  5  1  0  0  0  0
 17 12  1  0  0  0  0
 19  6  1  0  0  0  0
 20 16  1  0  0  0  0
 21 26  1  0  0  0  0
 23 28  1  0  0  0  0
 23 29  1  0  0  0  0
 24 30  1  0  0  0  0
 25 28  1  0  0  0  0
 25 15  1  0  0  0  0
 26 30  1  0  0  0  0
 27 24  1  0  0  0  0
 27 25  1  0  0  0  0
 28 26  1  0  0  0  0
 28 29  1  0  0  0  0
 30 22  1  0  0  0  0
 31 17  1  0  0  0  0
 32 31  1  0  0  0  0
M  END
>  <MODEL>
6

>  <REMARK>
 VINA RESULT:      -5.1      7.401     10.855
  Name = 
  2 active torsions:
  status: ('A' for Active; 'I' for Inactive)
    1  A    between atoms: C_13  and  C_29
    2  A    between atoms: C_16  and  C_27
                            x       y       z     vdW  Elec       q    Type
                         _______ _______ _______ _____ _____    ______ ____

>  <TORSDO>
F 2

$$$$
=
 OpenBabel10262421013D

 32 38  0  0  1  0  0  0  0  0999 V2000
  187.9130  178.1600  140.1950 C   0  0  2  0  0  3  0  0  0  0  0  0
  185.4610  177.7150  140.2350 C   0  0  2  0  0  3  0  0  0  0  0  0
  189.0410  179.0030  139.5930 C   0  0  0  0  0  2  0  0  0  0  0  0
  186.5730  178.4790  139.5230 C   0  0  2  0  0  3  0  0  0  0  0  0
  184.1710  177.8650  139.4480 C   0  0  2  0  0  3  0  0  0  0  0  0
  182.3380  179.5020  143.7910 C   0  0  0  0  0  2  0  0  0  0  0  0
  185.3190  178.1150  141.7200 C   0  0  1  0  0  3  0  0  0  0  0  0
  181.6700  178.1770  141.8830 O   0  0  0  0  0  0  0  0  0  0  0  0
  182.8090  178.5020  141.1170 C   0  0  2  0  0  3  0  0  0  0  0  0
  186.5870  178.2600  137.9860 C   0  0  2  0  0  3  0  0  0  0  0  0
  183.0880  177.4430  140.2310 O   0  0  0  0  0  0  0  0  0  0  0  0
  185.7210  177.0740  137.5370 C   0  0  0  0  0  2  0  0  0  0  0  0
  188.0060  178.1230  137.4260 C   0  0  0  0  0  2  0  0  0  0  0  0
  186.5510  178.8810  142.2390 C   0  0  0  0  0  2  0  0  0  0  0  0
  187.8800  178.2770  141.7350 C   0  0  1  0  0  3  0  0  0  0  0  0
  184.0310  178.8980  142.0190 C   0  0  1  0  0  3  0  0  0  0  0  0
  184.2780  177.1350  138.0900 C   0  0  1  0  0  3  0  0  0  0  0  0
  188.9370  179.1570  138.0650 C   0  0  0  0  0  2  0  0  0  0  0  0
  181.3490  179.3210  142.6320 C   0  0  0  0  0  2  0  0  0  0  0  0
  183.6750  178.8140  143.5050 C   0  0  0  0  0  2  0  0  0  0  0  0
  190.0630  176.1940  145.4150 C   0  0  0  0  0  1  0  0  0  0  0  0
  189.0560  178.8110  146.1040 O   0  0  0  0  0  1  0  0  0  0  0  0
  190.2960  175.5110  142.5860 C   0  0  0  0  0  2  0  0  0  0  0  0
  187.4060  177.6790  144.7620 C   0  0  0  0  0  2  0  0  0  0  0  0
  188.1800  176.9250  142.4260 C   0  0  2  0  0  3  0  0  0  0  0  0
  189.9200  177.3280  144.4000 C   0  0  1  0  0  3  0  0  0  0  0  0
  187.2130  176.6880  143.5970 C   0  0  0  0  0  2  0  0  0  0  0  0
  189.6130  176.8100  142.9820 C   0  0  0  0  0  0  0  0  0  0  0  0
  190.7780  176.8260  142.0100 C   0  0  0  0  0  2  0  0  0  0  0  0
  188.8120  178.2990  144.8300 C   0  0  2  0  0  3  0  0  0  0  0  0
  183.6370  175.7450  138.0760 C   0  0  0  0  0  2  0  0  0  0  0  0
  184.4600  174.7370  137.2860 C   0  0  0  0  0  1  0  0  0  0  0  0
  1  3  1  6  0  0  0
  1 15  1  0  0  0  0
  2  7  1  0  0  0  0
  4  1  1  0  0  0  0
  4  2  1  0  0  0  0
  5 11  1  0  0  0  0
  5  2  1  0  0  0  0
  7 16  1  0  0  0  0
  7 14  1  0  0  0  0
  8 19  1  0  0  0  0
  9  8  1  0  0  0  0
  9 16  1  0  0  0  0
 10  4  1  0  0  0  0
 11  9  1  0  0  0  0
 12 10  1  0  0  0  0
 12 17  1  0  0  0  0
 13 10  1  0  0  0  0
 13 18  1  0  0  0  0
 15 14  1  0  0  0  0
 15 25  1  0  0  0  0
 16 20  1  0  0  0  0
 17  5  1  0  0  0  0
 18  3  1  0  0  0  0
 19  6  1  0  0  0  0
 20  6  1  0  0  0  0
 23 28  1  0  0  0  0
 24 30  1  0  0  0  0
 25 28  1  0  0  0  0
 25 27  1  0  0  0  0
 26 30  1  0  0  0  0
 26 21  1  0  0  0  0
 27 24  1  0  0  0  0
 28 26  1  0  0  0  0
 29 23  1  0  0  0  0
 29 28  1  0  0  0  0
 30 22  1  0  0  0  0
 31 17  1  0  0  0  0
 32 31  1  0  0  0  0
M  END
>  <MODEL>
7

>  <REMARK>
 VINA RESULT:      -5.0      3.197      7.635
  Name = 
  2 active torsions:
  status: ('A' for Active; 'I' for Inactive)
    1  A    between atoms: C_13  and  C_29
    2  A    between atoms: C_16  and  C_27
                            x       y       z     vdW  Elec       q    Type
                         _______ _______ _______ _____ _____    ______ ____

>  <TORSDO>
F 2

$$$$
=
 OpenBabel10262421013D

 32 38  0  0  1  0  0  0  0  0999 V2000
  180.5580  176.6790  137.9510 C   0  0  2  0  0  3  0  0  0  0  0  0
  180.2880  178.9350  138.9770 C   0  0  2  0  0  3  0  0  0  0  0  0
  179.8740  175.3580  137.5910 C   0  0  0  0  0  2  0  0  0  0  0  0
  179.6150  177.5850  138.7500 C   0  0  2  0  0  3  0  0  0  0  0  0
  179.4450  179.7550  139.9390 C   0  0  2  0  0  3  0  0  0  0  0  0
  179.5850  183.1730  136.3050 C   0  0  0  0  0  2  0  0  0  0  0  0
  180.6010  179.6750  137.6590 C   0  0  1  0  0  3  0  0  0  0  0  0
  179.6340  183.0350  138.7180 O   0  0  0  0  0  0  0  0  0  0  0  0
  179.3140  181.6620  138.7580 C   0  0  2  0  0  3  0  0  0  0  0  0
  179.0890  176.9290  140.0550 C   0  0  2  0  0  3  0  0  0  0  0  0
  179.8710  181.0910  139.9190 O   0  0  0  0  0  0  0  0  0  0  0  0
  179.6450  177.5850  141.3270 C   0  0  0  0  0  2  0  0  0  0  0  0
  179.3290  175.4170  140.0890 C   0  0  0  0  0  2  0  0  0  0  0  0
  180.5300  178.7410  136.4350 C   0  0  0  0  0  2  0  0  0  0  0  0
  181.1670  177.3600  136.7050 C   0  0  1  0  0  3  0  0  0  0  0  0
  179.7300  180.9220  137.4380 C   0  0  1  0  0  3  0  0  0  0  0  0
  179.4590  179.1190  141.3480 C   0  0  1  0  0  3  0  0  0  0  0  0
  179.0070  174.7920  138.7290 C   0  0  0  0  0  2  0  0  0  0  0  0
  178.9310  183.5810  137.6320 C   0  0  0  0  0  2  0  0  0  0  0  0
  180.3950  181.8820  136.4490 C   0  0  0  0  0  2  0  0  0  0  0  0
  185.1980  174.8850  137.2190 C   0  0  0  0  0  1  0  0  0  0  0  0
  183.1950  173.3870  135.7770 O   0  0  0  0  0  1  0  0  0  0  0  0
  184.3380  177.2240  138.7390 C   0  0  0  0  0  2  0  0  0  0  0  0
  183.1610  175.6680  135.0000 C   0  0  0  0  0  2  0  0  0  0  0  0
  182.7080  177.4600  136.7910 C   0  0  2  0  0  3  0  0  0  0  0  0
  183.6970  175.0740  137.4360 C   0  0  1  0  0  3  0  0  0  0  0  0
  183.3500  177.1350  135.4320 C   0  0  0  0  0  2  0  0  0  0  0  0
  183.3400  176.5180  137.8360 C   0  0  0  0  0  0  0  0  0  0  0  0
  183.0200  176.7340  139.3030 C   0  0  0  0  0  2  0  0  0  0  0  0
  182.9180  174.6970  136.1680 C   0  0  2  0  0  3  0  0  0  0  0  0
  180.4510  179.7700  142.3160 C   0  0  0  0  0  2  0  0  0  0  0  0
  181.7600  178.9970  142.4080 C   0  0  0  0  0  1  0  0  0  0  0  0
  1  3  1  6  0  0  0
  1  4  1  0  0  0  0
  2  5  1  0  0  0  0
  3 18  1  0  0  0  0
  4  2  1  0  0  0  0
  4 10  1  0  0  0  0
  5 17  1  0  0  0  0
  6 20  1  0  0  0  0
  6 19  1  0  0  0  0
  7  2  1  0  0  0  0
  8  9  1  0  0  0  0
  9 11  1  0  0  0  0
 10 13  1  0  0  0  0
 10 12  1  0  0  0  0
 11  5  1  0  0  0  0
 12 17  1  0  0  0  0
 14 15  1  0  0  0  0
 14  7  1  0  0  0  0
 15 25  1  0  0  0  0
 15  1  1  0  0  0  0
 16  7  1  0  0  0  0
 16  9  1  0  0  0  0
 17 31  1  0  0  0  0
 18 13  1  0  0  0  0
 19  8  1  0  0  0  0
 20 16  1  0  0  0  0
 21 26  1  0  0  0  0
 22 30  1  0  0  0  0
 23 29  1  0  0  0  0
 24 27  1  0  0  0  0
 24 30  1  0  0  0  0
 25 28  1  0  0  0  0
 26 28  1  0  0  0  0
 27 25  1  0  0  0  0
 28 23  1  0  0  0  0
 28 29  1  0  0  0  0
 30 26  1  0  0  0  0
 31 32  1  0  0  0  0
M  END
>  <MODEL>
8

>  <REMARK>
 VINA RESULT:      -4.9      2.502      5.160
  Name = 
  2 active torsions:
  status: ('A' for Active; 'I' for Inactive)
    1  A    between atoms: C_13  and  C_29
    2  A    between atoms: C_16  and  C_27
                            x       y       z     vdW  Elec       q    Type
                         _______ _______ _______ _____ _____    ______ ____

>  <TORSDO>
F 2

$$$$
=
 OpenBabel10262421013D

 32 38  0  0  1  0  0  0  0  0999 V2000
  187.1580  178.2060  140.0680 C   0  0  2  0  0  3  0  0  0  0  0  0
  185.1670  177.6140  138.6910 C   0  0  2  0  0  3  0  0  0  0  0  0
  188.5110  178.9230  140.1020 C   0  0  0  0  0  2  0  0  0  0  0  0
  186.5650  178.2220  138.6550 C   0  0  2  0  0  3  0  0  0  0  0  0
  184.6620  177.4400  137.2690 C   0  0  2  0  0  3  0  0  0  0  0  0
  180.7690  180.1070  138.8910 C   0  0  0  0  0  2  0  0  0  0  0  0
  184.1940  178.4080  139.5900 C   0  0  1  0  0  3  0  0  0  0  0  0
  181.2560  178.2490  137.4230 O   0  0  0  0  0  0  0  0  0  0  0  0
  182.6540  178.4250  137.4810 C   0  0  2  0  0  3  0  0  0  0  0  0
  187.4920  177.5770  137.5900 C   0  0  2  0  0  3  0  0  0  0  0  0
  183.2850  177.1800  137.2840 O   0  0  0  0  0  0  0  0  0  0  0  0
  186.9460  176.2530  137.0360 C   0  0  0  0  0  2  0  0  0  0  0  0
  188.9250  177.3900  138.0960 C   0  0  0  0  0  2  0  0  0  0  0  0
  184.9300  179.3780  140.5340 C   0  0  0  0  0  2  0  0  0  0  0  0
  186.2010  178.7530  141.1500 C   0  0  1  0  0  3  0  0  0  0  0  0
  183.1020  179.1480  138.8000 C   0  0  1  0  0  3  0  0  0  0  0  0
  185.4900  176.3640  136.5300 C   0  0  1  0  0  3  0  0  0  0  0  0
  189.3860  178.6280  138.8710 C   0  0  0  0  0  2  0  0  0  0  0  0
  180.6870  179.5320  137.4700 C   0  0  0  0  0  2  0  0  0  0  0  0
  181.9020  179.4640  139.6950 C   0  0  0  0  0  2  0  0  0  0  0  0
  185.6750  177.9010  145.8020 C   0  0  0  0  0  1  0  0  0  0  0  0
  184.9300  180.6050  145.1150 O   0  0  0  0  0  1  0  0  0  0  0  0
  187.2610  176.3800  143.8810 C   0  0  0  0  0  2  0  0  0  0  0  0
  184.0860  179.1170  143.4170 C   0  0  0  0  0  2  0  0  0  0  0  0
  185.8440  177.6800  142.2060 C   0  0  2  0  0  3  0  0  0  0  0  0
  186.2970  178.6680  144.6360 C   0  0  1  0  0  3  0  0  0  0  0  0
  184.3760  177.8160  142.6430 C   0  0  0  0  0  2  0  0  0  0  0  0
  186.7120  177.7380  143.4790 C   0  0  0  0  0  0  0  0  0  0  0  0
  188.1970  177.4530  143.3650 C   0  0  0  0  0  2  0  0  0  0  0  0
  185.3210  179.7260  144.1040 C   0  0  2  0  0  3  0  0  0  0  0  0
  184.8260  174.9840  136.4910 C   0  0  0  0  0  2  0  0  0  0  0  0
  185.6470  173.9280  137.2180 C   0  0  0  0  0  1  0  0  0  0  0  0
  1  3  1  6  0  0  0
  1 15  1  0  0  0  0
  2  7  1  0  0  0  0
  4  2  1  0  0  0  0
  4  1  1  0  0  0  0
  5 11  1  0  0  0  0
  5  2  1  0  0  0  0
  6 20  1  0  0  0  0
  7 14  1  0  0  0  0
  8 19  1  0  0  0  0
  8  9  1  0  0  0  0
  9 16  1  0  0  0  0
 10 13  1  0  0  0  0
 10  4  1  0  0  0  0
 11  9  1  0  0  0  0
 12 10  1  0  0  0  0
 13 18  1  0  0  0  0
 14 15  1  0  0  0  0
 15 25  1  0  0  0  0
 16  7  1  0  0  0  0
 16 20  1  0  0  0  0
 17 12  1  0  0  0  0
 17  5  1  0  0  0  0
 18  3  1  0  0  0  0
 19  6  1  0  0  0  0
 24 30  1  0  0  0  0
 25 27  1  0  0  0  0
 25 28  1  0  0  0  0
 26 21  1  0  0  0  0
 27 24  1  0  0  0  0
 28 23  1  0  0  0  0
 28 26  1  0  0  0  0
 29 28  1  0  0  0  0
 29 23  1  0  0  0  0
 30 26  1  0  0  0  0
 30 22  1  0  0  0  0
 31 17  1  0  0  0  0
 31 32  1  0  0  0  0
M  END
>  <MODEL>
9

>  <REMARK>
 VINA RESULT:      -4.9      2.646      7.775
  Name = 
  2 active torsions:
  status: ('A' for Active; 'I' for Inactive)
    1  A    between atoms: C_13  and  C_29
    2  A    between atoms: C_16  and  C_27
                            x       y       z     vdW  Elec       q    Type
                         _______ _______ _______ _____ _____    ______ ____

>  <TORSDO>
F 2

$$$$
