=
 OpenBabel10262419533D

 25 28  0  0  1  0  0  0  0  0999 V2000
  187.6380  177.4850  145.2610 C   0  0  0  0  0  0  0  0  0  0  0  0
  188.8080  177.1190  144.5960 C   0  0  0  0  0  0  0  0  0  0  0  0
  188.8340  177.8070  147.3180 C   0  0  0  0  0  3  0  0  0  0  0  0
  186.2240  177.5040  144.8010 C   0  0  1  0  0  3  0  0  0  0  0  0
  183.8780  179.1750  144.8210 C   0  0  0  0  0  3  0  0  0  0  0  0
  189.9880  177.4660  146.6720 N   0  0  0  0  0  0  0  0  0  0  0  0
  185.5610  177.9980  146.0620 C   0  0  0  0  0  0  0  0  0  0  0  0
  184.2400  178.6270  145.9900 C   0  0  0  0  0  3  0  0  0  0  0  0
  191.3300  176.8050  144.7040 C   0  0  2  0  0  3  0  0  0  0  0  0
  191.9850  177.9950  144.3840 O   0  0  0  0  0  1  0  0  0  0  0  0
  188.7650  176.6740  143.1610 C   0  0  0  0  0  2  0  0  0  0  0  0
  184.8100  179.1850  143.6620 C   0  0  0  0  0  3  0  0  0  0  0  0
  187.6470  177.7980  146.5950 C   0  0  0  0  0  0  0  0  0  0  0  0
  186.3590  178.1540  147.0720 N   0  0  0  0  0  0  0  0  0  0  0  0
  191.1610  175.9580  143.4450 C   0  0  0  0  0  2  0  0  0  0  0  0
  185.9410  178.4590  143.6690 C   0  0  0  0  0  3  0  0  0  0  0  0
  190.1120  176.5250  142.6080 N   0  0  0  0  0  0  0  0  0  0  0  0
  190.0100  177.1140  145.3490 C   0  0  0  0  0  0  0  0  0  0  0  0
  190.3870  176.7440  141.2210 C   0  0  0  0  0  3  0  0  0  0  0  0
  189.5790  177.4310  140.4550 C   0  0  0  0  0  0  0  0  0  0  0  0
  188.7700  178.1180  139.6970 C   0  0  0  0  0  0  0  0  0  0  0  0
  187.7460  178.8510  140.2860 O   0  0  0  0  0  1  0  0  0  0  0  0
  188.9300  178.1240  138.2370 C   0  0  0  0  0  0  0  0  0  0  0  0
  188.7950  179.3050  137.5150 O   0  0  0  0  0  0  0  0  0  0  0  0
  189.1920  177.0530  137.6300 O   0  0  0  0  0  1  0  0  0  0  0  0
  1 13  1  0  0  0  0
  2  1  2  0  0  0  0
  2 18  1  0  0  0  0
  4 16  1  6  0  0  0
  4  1  1  0  0  0  0
  4  7  1  0  0  0  0
  5  8  2  0  0  0  0
  6  3  1  0  0  0  0
  7 14  2  0  0  0  0
  8  7  1  0  0  0  0
  9 10  1  6  0  0  0
  9 18  1  0  0  0  0
 11  2  1  0  0  0  0
 12 16  2  0  0  0  0
 12  5  1  0  0  0  0
 13 14  1  0  0  0  0
 13  3  2  0  0  0  0
 15  9  1  0  0  0  0
 17 11  1  0  0  0  0
 17 15  1  0  0  0  0
 18  6  2  0  0  0  0
 19 17  1  0  0  0  0
 20 19  2  0  0  0  0
 21 22  1  0  0  0  0
 21 20  2  0  0  0  0
 23 21  1  0  0  0  0
 24 23  2  0  0  0  0
 25 23  1  0  0  0  0
M  END
>  <MODEL>
1

>  <REMARK>
 VINA RESULT:     -10.3      0.000      0.000
  Name = 
  2 active torsions:
  status: ('A' for Active; 'I' for Inactive)
    1  A    between atoms: C_2  and  C_21
    2  A    between atoms: C_6  and  N_23
                            x       y       z     vdW  Elec       q    Type
                         _______ _______ _______ _____ _____    ______ ____

>  <TORSDO>
F 2

$$$$
=
 OpenBabel10262419533D

 25 28  0  0  1  0  0  0  0  0999 V2000
  187.9080  177.4260  144.8600 C   0  0  0  0  0  0  0  0  0  0  0  0
  188.8300  177.2310  143.8310 C   0  0  0  0  0  0  0  0  0  0  0  0
  189.6630  177.5440  146.4940 C   0  0  0  0  0  3  0  0  0  0  0  0
  186.4220  177.4150  144.8470 C   0  0  1  0  0  3  0  0  0  0  0  0
  184.1560  178.9110  145.8100 C   0  0  0  0  0  3  0  0  0  0  0  0
  190.5750  177.3700  145.4920 N   0  0  0  0  0  0  0  0  0  0  0  0
  186.1610  177.6890  146.3070 C   0  0  0  0  0  0  0  0  0  0  0  0
  184.8670  178.2340  146.7240 C   0  0  0  0  0  3  0  0  0  0  0  0
  191.2730  177.0700  143.1390 C   0  0  2  0  0  3  0  0  0  0  0  0
  191.7740  178.3330  142.8210 O   0  0  0  0  0  1  0  0  0  0  0  0
  188.3640  176.9830  142.4240 C   0  0  0  0  0  2  0  0  0  0  0  0
  184.6940  179.1390  144.4420 C   0  0  0  0  0  3  0  0  0  0  0  0
  188.3140  177.5550  146.1620 C   0  0  0  0  0  0  0  0  0  0  0  0
  187.2240  177.7590  147.0460 N   0  0  0  0  0  0  0  0  0  0  0  0
  190.7490  176.3930  141.8750 C   0  0  0  0  0  2  0  0  0  0  0  0
  185.7880  178.4930  144.0050 C   0  0  0  0  0  3  0  0  0  0  0  0
  189.4840  176.9980  141.4800 N   0  0  0  0  0  0  0  0  0  0  0  0
  190.2030  177.2020  144.1850 C   0  0  0  0  0  0  0  0  0  0  0  0
  189.3210  177.4210  140.1240 C   0  0  0  0  0  3  0  0  0  0  0  0
  189.8520  176.7630  139.1250 C   0  0  0  0  0  0  0  0  0  0  0  0
  190.3810  176.1010  138.1330 C   0  0  0  0  0  0  0  0  0  0  0  0
  190.9120  174.8380  138.3670 O   0  0  0  0  0  1  0  0  0  0  0  0
  190.4210  176.6750  136.7820 C   0  0  0  0  0  0  0  0  0  0  0  0
  189.5610  177.7080  136.4260 O   0  0  0  0  0  1  0  0  0  0  0  0
  191.2390  176.2300  135.9350 O   0  0  0  0  0  0  0  0  0  0  0  0
  1 13  1  0  0  0  0
  2 18  1  0  0  0  0
  2  1  2  0  0  0  0
  4 16  1  6  0  0  0
  4  1  1  0  0  0  0
  4  7  1  0  0  0  0
  5  8  2  0  0  0  0
  6  3  1  0  0  0  0
  7  8  1  0  0  0  0
  7 14  2  0  0  0  0
  9 10  1  6  0  0  0
  9 18  1  0  0  0  0
 11  2  1  0  0  0  0
 12  5  1  0  0  0  0
 13  3  2  0  0  0  0
 13 14  1  0  0  0  0
 15  9  1  0  0  0  0
 16 12  2  0  0  0  0
 17 15  1  0  0  0  0
 17 11  1  0  0  0  0
 18  6  2  0  0  0  0
 19 17  1  0  0  0  0
 20 19  2  0  0  0  0
 21 22  1  0  0  0  0
 21 20  2  0  0  0  0
 23 21  1  0  0  0  0
 24 23  1  0  0  0  0
 25 23  2  0  0  0  0
M  END
>  <MODEL>
2

>  <REMARK>
 VINA RESULT:      -9.3      1.415      1.830
  Name = 
  2 active torsions:
  status: ('A' for Active; 'I' for Inactive)
    1  A    between atoms: C_2  and  C_21
    2  A    between atoms: C_6  and  N_23
                            x       y       z     vdW  Elec       q    Type
                         _______ _______ _______ _____ _____    ______ ____

>  <TORSDO>
F 2

$$$$
=
 OpenBabel10262419533D

 25 28  0  0  1  0  0  0  0  0999 V2000
  187.7060  177.6270  144.7020 C   0  0  0  0  0  0  0  0  0  0  0  0
  186.6000  177.9170  143.9030 C   0  0  0  0  0  0  0  0  0  0  0  0
  189.1780  177.7250  142.8090 C   0  0  0  0  0  3  0  0  0  0  0  0
  187.7970  177.2770  146.1440 C   0  0  1  0  0  3  0  0  0  0  0  0
  189.2960  177.9150  148.5200 C   0  0  0  0  0  3  0  0  0  0  0  0
  188.1050  178.0270  142.0200 N   0  0  0  0  0  0  0  0  0  0  0  0
  189.2900  177.1020  146.2620 C   0  0  0  0  0  0  0  0  0  0  0  0
  189.9330  177.2110  147.5730 C   0  0  0  0  0  3  0  0  0  0  0  0
  185.7170  178.5050  141.5910 C   0  0  2  0  0  3  0  0  0  0  0  0
  185.7260  179.8870  141.4010 O   0  0  0  0  0  1  0  0  0  0  0  0
  185.2160  177.9350  144.4890 C   0  0  0  0  0  2  0  0  0  0  0  0
  188.0090  178.6010  148.2240 C   0  0  0  0  0  3  0  0  0  0  0  0
  188.9600  177.5100  144.1640 C   0  0  0  0  0  0  0  0  0  0  0  0
  189.9420  177.2250  145.1480 N   0  0  0  0  0  0  0  0  0  0  0  0
  184.3560  178.0690  142.1280 C   0  0  0  0  0  2  0  0  0  0  0  0
  187.3340  178.3580  147.0880 C   0  0  0  0  0  3  0  0  0  0  0  0
  184.2360  178.4470  143.5290 N   0  0  0  0  0  0  0  0  0  0  0  0
  186.8320  178.1160  142.5180 C   0  0  0  0  0  0  0  0  0  0  0  0
  183.0650  179.1510  143.9500 C   0  0  0  0  0  3  0  0  0  0  0  0
  181.9620  179.1440  143.2470 C   0  0  0  0  0  0  0  0  0  0  0  0
  180.8640  179.1320  142.5420 C   0  0  0  0  0  0  0  0  0  0  0  0
  180.7440  178.2330  141.4880 O   0  0  0  0  0  1  0  0  0  0  0  0
  179.7610  180.0520  142.8500 C   0  0  0  0  0  0  0  0  0  0  0  0
  179.5160  181.1580  142.0440 O   0  0  0  0  0  0  0  0  0  0  0  0
  179.0290  179.8410  143.8520 O   0  0  0  0  0  1  0  0  0  0  0  0
  1  4  1  0  0  0  0
  2 11  1  0  0  0  0
  2  1  2  0  0  0  0
  3 13  2  0  0  0  0
  4  7  1  0  0  0  0
  4 16  1  1  0  0  0
  6 18  2  0  0  0  0
  6  3  1  0  0  0  0
  7  8  1  0  0  0  0
  8  5  2  0  0  0  0
  9 10  1  1  0  0  0
  9 15  1  0  0  0  0
  9 18  1  0  0  0  0
 12  5  1  0  0  0  0
 13  1  1  0  0  0  0
 13 14  1  0  0  0  0
 14  7  2  0  0  0  0
 15 17  1  0  0  0  0
 16 12  2  0  0  0  0
 17 19  1  0  0  0  0
 17 11  1  0  0  0  0
 18  2  1  0  0  0  0
 20 19  2  0  0  0  0
 21 23  1  0  0  0  0
 21 20  2  0  0  0  0
 22 21  1  0  0  0  0
 23 25  1  0  0  0  0
 24 23  2  0  0  0  0
M  END
>  <MODEL>
3

>  <REMARK>
 VINA RESULT:      -9.2      3.551      6.550
  Name = 
  2 active torsions:
  status: ('A' for Active; 'I' for Inactive)
    1  A    between atoms: C_2  and  C_21
    2  A    between atoms: C_6  and  N_23
                            x       y       z     vdW  Elec       q    Type
                         _______ _______ _______ _____ _____    ______ ____

>  <TORSDO>
F 2

$$$$
=
 OpenBabel10262419533D

 25 28  0  0  1  0  0  0  0  0999 V2000
  187.2610  177.5810  144.2180 C   0  0  0  0  0  0  0  0  0  0  0  0
  188.5070  177.2200  143.7050 C   0  0  0  0  0  0  0  0  0  0  0  0
  188.2030  177.9800  146.3900 C   0  0  0  0  0  3  0  0  0  0  0  0
  185.9120  177.5610  143.5950 C   0  0  1  0  0  3  0  0  0  0  0  0
  183.5530  179.1860  143.2940 C   0  0  0  0  0  3  0  0  0  0  0  0
  189.4300  177.6440  145.8940 N   0  0  0  0  0  0  0  0  0  0  0  0
  185.0970  178.0750  144.7550 C   0  0  0  0  0  0  0  0  0  0  0  0
  183.7840  178.6760  144.5120 C   0  0  0  0  0  3  0  0  0  0  0  0
  191.0040  176.9570  144.1150 C   0  0  2  0  0  3  0  0  0  0  0  0
  191.6730  178.1510  143.8400 O   0  0  0  0  0  1  0  0  0  0  0  0
  188.6400  176.7370  142.2870 C   0  0  0  0  0  2  0  0  0  0  0  0
  184.6140  179.1840  142.2510 C   0  0  0  0  0  3  0  0  0  0  0  0
  187.1090  177.9290  145.5340 C   0  0  0  0  0  0  0  0  0  0  0  0
  185.7690  178.2730  145.8470 N   0  0  0  0  0  0  0  0  0  0  0  0
  190.9970  176.0740  142.8690 C   0  0  0  0  0  2  0  0  0  0  0  0
  185.7470  178.4790  142.4110 C   0  0  0  0  0  3  0  0  0  0  0  0
  190.0450  176.5990  141.9000 N   0  0  0  0  0  0  0  0  0  0  0  0
  189.6120  177.2580  144.5920 C   0  0  0  0  0  0  0  0  0  0  0  0
  190.4770  176.7870  140.5490 C   0  0  0  0  0  3  0  0  0  0  0  0
  189.7010  177.3230  139.6420 C   0  0  0  0  0  0  0  0  0  0  0  0
  188.9240  177.8600  138.7430 C   0  0  0  0  0  0  0  0  0  0  0  0
  187.7460  178.4780  139.1460 O   0  0  0  0  0  1  0  0  0  0  0  0
  189.2800  177.8190  137.3190 C   0  0  0  0  0  0  0  0  0  0  0  0
  189.5960  176.6130  136.7020 O   0  0  0  0  0  1  0  0  0  0  0  0
  189.3020  178.8820  136.6460 O   0  0  0  0  0  0  0  0  0  0  0  0
  1 13  1  0  0  0  0
  2  1  2  0  0  0  0
  2 18  1  0  0  0  0
  4 16  1  6  0  0  0
  4  1  1  0  0  0  0
  4  7  1  0  0  0  0
  5  8  2  0  0  0  0
  6  3  1  0  0  0  0
  7 14  2  0  0  0  0
  8  7  1  0  0  0  0
  9 10  1  6  0  0  0
  9 18  1  0  0  0  0
 11  2  1  0  0  0  0
 12 16  2  0  0  0  0
 12  5  1  0  0  0  0
 13 14  1  0  0  0  0
 13  3  2  0  0  0  0
 15  9  1  0  0  0  0
 17 11  1  0  0  0  0
 17 15  1  0  0  0  0
 18  6  2  0  0  0  0
 19 17  1  0  0  0  0
 20 19  2  0  0  0  0
 21 22  1  0  0  0  0
 21 20  2  0  0  0  0
 23 21  1  0  0  0  0
 24 23  1  0  0  0  0
 25 23  2  0  0  0  0
M  END
>  <MODEL>
4

>  <REMARK>
 VINA RESULT:      -8.9      0.977      1.272
  Name = 
  2 active torsions:
  status: ('A' for Active; 'I' for Inactive)
    1  A    between atoms: C_2  and  C_21
    2  A    between atoms: C_6  and  N_23
                            x       y       z     vdW  Elec       q    Type
                         _______ _______ _______ _____ _____    ______ ____

>  <TORSDO>
F 2

$$$$
=
 OpenBabel10262419533D

 25 28  0  0  1  0  0  0  0  0999 V2000
  184.5460  178.8780  143.5220 C   0  0  0  0  0  0  0  0  0  0  0  0
  184.4700  178.8670  142.1290 C   0  0  0  0  0  0  0  0  0  0  0  0
  182.1530  178.8540  143.7150 C   0  0  0  0  0  3  0  0  0  0  0  0
  185.7180  178.9950  144.4300 C   0  0  1  0  0  3  0  0  0  0  0  0
  186.8510  177.8090  146.7980 C   0  0  0  0  0  3  0  0  0  0  0  0
  182.0680  178.8260  142.3520 N   0  0  0  0  0  0  0  0  0  0  0  0
  185.0060  178.9390  145.7580 C   0  0  0  0  0  0  0  0  0  0  0  0
  185.7450  178.5490  146.9620 C   0  0  0  0  0  3  0  0  0  0  0  0
  182.9940  178.7560  140.0600 C   0  0  2  0  0  3  0  0  0  0  0  0
  182.7650  177.4300  139.6940 O   0  0  0  0  0  1  0  0  0  0  0  0
  185.7170  178.9570  141.2940 C   0  0  0  0  0  2  0  0  0  0  0  0
  187.2750  177.3620  145.4440 C   0  0  0  0  0  3  0  0  0  0  0  0
  183.4150  178.8960  144.2950 C   0  0  0  0  0  0  0  0  0  0  0  0
  183.7130  178.8920  145.6820 N   0  0  0  0  0  0  0  0  0  0  0  0
  184.2080  179.2950  139.3080 C   0  0  0  0  0  2  0  0  0  0  0  0
  186.7080  177.8620  144.3340 C   0  0  0  0  0  3  0  0  0  0  0  0
  185.4270  178.7350  139.8770 N   0  0  0  0  0  0  0  0  0  0  0  0
  183.1770  178.8440  141.5490 C   0  0  0  0  0  0  0  0  0  0  0  0
  186.3870  178.1470  138.9940 C   0  0  0  0  0  3  0  0  0  0  0  0
  187.5820  177.8050  139.4000 C   0  0  0  0  0  0  0  0  0  0  0  0
  188.7720  177.4630  139.8110 C   0  0  0  0  0  0  0  0  0  0  0  0
  189.0410  177.4460  141.1750 O   0  0  0  0  0  1  0  0  0  0  0  0
  189.8240  177.0980  138.8520 C   0  0  0  0  0  0  0  0  0  0  0  0
  190.6250  175.9830  139.0700 O   0  0  0  0  0  1  0  0  0  0  0  0
  190.0050  177.7990  137.8220 O   0  0  0  0  0  0  0  0  0  0  0  0
  1 13  1  0  0  0  0
  1  4  1  0  0  0  0
  2  1  2  0  0  0  0
  3 13  2  0  0  0  0
  4 16  1  1  0  0  0
  4  7  1  0  0  0  0
  5  8  2  0  0  0  0
  6  3  1  0  0  0  0
  7  8  1  0  0  0  0
  9 10  1  1  0  0  0
  9 18  1  0  0  0  0
 11  2  1  0  0  0  0
 12  5  1  0  0  0  0
 13 14  1  0  0  0  0
 14  7  2  0  0  0  0
 15 17  1  0  0  0  0
 15  9  1  0  0  0  0
 16 12  2  0  0  0  0
 17 11  1  0  0  0  0
 18  2  1  0  0  0  0
 18  6  2  0  0  0  0
 19 20  2  0  0  0  0
 19 17  1  0  0  0  0
 20 21  2  0  0  0  0
 21 22  1  0  0  0  0
 23 24  1  0  0  0  0
 23 21  1  0  0  0  0
 25 23  2  0  0  0  0
M  END
>  <MODEL>
5

>  <REMARK>
 VINA RESULT:      -8.9      2.788      5.301
  Name = 
  2 active torsions:
  status: ('A' for Active; 'I' for Inactive)
    1  A    between atoms: C_2  and  C_21
    2  A    between atoms: C_6  and  N_23
                            x       y       z     vdW  Elec       q    Type
                         _______ _______ _______ _____ _____    ______ ____

>  <TORSDO>
F 2

$$$$
=
 OpenBabel10262419533D

 25 28  0  0  1  0  0  0  0  0999 V2000
  187.6150  178.3370  140.8110 C   0  0  0  0  0  0  0  0  0  0  0  0
  188.9520  177.9390  140.8180 C   0  0  0  0  0  0  0  0  0  0  0  0
  187.4650  178.0100  138.4370 C   0  0  0  0  0  3  0  0  0  0  0  0
  186.7540  178.8670  141.9010 C   0  0  1  0  0  3  0  0  0  0  0  0
  184.1310  178.5480  143.0480 C   0  0  0  0  0  3  0  0  0  0  0  0
  188.7680  177.6020  138.4360 N   0  0  0  0  0  0  0  0  0  0  0  0
  185.4740  179.0670  141.1290 C   0  0  0  0  0  0  0  0  0  0  0  0
  184.1970  179.1310  141.8430 C   0  0  0  0  0  3  0  0  0  0  0  0
  190.9360  177.0550  139.4930 C   0  0  2  0  0  3  0  0  0  0  0  0
  190.9270  175.6600  139.4710 O   0  0  0  0  0  1  0  0  0  0  0  0
  189.7570  177.9850  142.0860 C   0  0  0  0  0  2  0  0  0  0  0  0
  185.3020  177.8200  143.6080 C   0  0  0  0  0  3  0  0  0  0  0  0
  186.8970  178.3940  139.6460 C   0  0  0  0  0  0  0  0  0  0  0  0
  185.5570  178.8090  139.8600 N   0  0  0  0  0  0  0  0  0  0  0  0
  191.7860  177.5450  140.6630 C   0  0  0  0  0  2  0  0  0  0  0  0
  186.5170  177.9110  143.0420 C   0  0  0  0  0  3  0  0  0  0  0  0
  191.0640  177.3470  141.9120 N   0  0  0  0  0  0  0  0  0  0  0  0
  189.5260  177.5670  139.5760 C   0  0  0  0  0  0  0  0  0  0  0  0
  191.7340  176.6930  142.9930 C   0  0  0  0  0  3  0  0  0  0  0  0
  191.3100  176.7850  144.2280 C   0  0  0  0  0  0  0  0  0  0  0  0
  190.8810  176.8790  145.4560 C   0  0  0  0  0  0  0  0  0  0  0  0
  189.6250  177.4230  145.6970 O   0  0  0  0  0  1  0  0  0  0  0  0
  191.7090  176.4170  146.5790 C   0  0  0  0  0  0  0  0  0  0  0  0
  192.4220  175.2270  146.4910 O   0  0  0  0  0  0  0  0  0  0  0  0
  191.7750  177.1030  147.6330 O   0  0  0  0  0  1  0  0  0  0  0  0
  1  2  1  0  0  0  0
  1  4  1  0  0  0  0
  2 11  1  0  0  0  0
  3 13  1  0  0  0  0
  4 16  1  1  0  0  0
  5 12  1  0  0  0  0
  6  3  2  0  0  0  0
  6 18  1  0  0  0  0
  7  8  1  0  0  0  0
  7  4  1  0  0  0  0
  8  5  2  0  0  0  0
  9 10  1  1  0  0  0
  9 18  1  0  0  0  0
  9 15  1  0  0  0  0
 13 14  1  0  0  0  0
 13  1  2  0  0  0  0
 14  7  2  0  0  0  0
 15 17  1  0  0  0  0
 16 12  2  0  0  0  0
 17 11  1  0  0  0  0
 17 19  1  0  0  0  0
 18  2  2  0  0  0  0
 19 20  2  0  0  0  0
 20 21  2  0  0  0  0
 21 22  1  0  0  0  0
 21 23  1  0  0  0  0
 23 25  1  0  0  0  0
 24 23  2  0  0  0  0
M  END
>  <MODEL>
6

>  <REMARK>
 VINA RESULT:      -8.7      2.833      5.833
  Name = 
  2 active torsions:
  status: ('A' for Active; 'I' for Inactive)
    1  A    between atoms: C_2  and  C_21
    2  A    between atoms: C_6  and  N_23
                            x       y       z     vdW  Elec       q    Type
                         _______ _______ _______ _____ _____    ______ ____

>  <TORSDO>
F 2

$$$$
=
 OpenBabel10262419533D

 25 28  0  0  1  0  0  0  0  0999 V2000
  187.7390  177.6290  144.0370 C   0  0  0  0  0  0  0  0  0  0  0  0
  189.0920  177.3880  143.7950 C   0  0  0  0  0  0  0  0  0  0  0  0
  188.1350  177.8380  146.3950 C   0  0  0  0  0  3  0  0  0  0  0  0
  186.5700  177.6090  143.1190 C   0  0  1  0  0  3  0  0  0  0  0  0
  184.2270  179.1370  142.4330 C   0  0  0  0  0  3  0  0  0  0  0  0
  189.4640  177.6200  146.1680 N   0  0  0  0  0  0  0  0  0  0  0  0
  185.4790  177.9530  144.1020 C   0  0  0  0  0  0  0  0  0  0  0  0
  184.2140  178.5110  143.6180 C   0  0  0  0  0  3  0  0  0  0  0  0
  191.4450  177.2080  144.7460 C   0  0  2  0  0  3  0  0  0  0  0  0
  192.0680  178.4560  144.7460 O   0  0  0  0  0  1  0  0  0  0  0  0
  189.5760  177.0680  142.4080 C   0  0  0  0  0  2  0  0  0  0  0  0
  185.4930  179.3000  141.6690 C   0  0  0  0  0  3  0  0  0  0  0  0
  187.2690  177.8250  145.3090 C   0  0  0  0  0  0  0  0  0  0  0  0
  185.8720  178.0660  145.3330 N   0  0  0  0  0  0  0  0  0  0  0  0
  191.7830  176.4650  143.4560 C   0  0  0  0  0  2  0  0  0  0  0  0
  186.6090  178.6400  142.0210 C   0  0  0  0  0  3  0  0  0  0  0  0
  191.0380  177.0430  142.3450 N   0  0  0  0  0  0  0  0  0  0  0  0
  189.9630  177.3850  144.9140 C   0  0  0  0  0  0  0  0  0  0  0  0
  191.7480  177.3960  141.1550 C   0  0  0  0  0  3  0  0  0  0  0  0
  191.4590  176.8690  139.9930 C   0  0  0  0  0  0  0  0  0  0  0  0
  191.1640  176.3410  138.8380 C   0  0  0  0  0  0  0  0  0  0  0  0
  189.9930  175.6030  138.7070 O   0  0  0  0  0  1  0  0  0  0  0  0
  192.0520  176.5180  137.6810 C   0  0  0  0  0  0  0  0  0  0  0  0
  193.3790  176.8950  137.8580 O   0  0  0  0  0  1  0  0  0  0  0  0
  191.6120  176.3290  136.5170 O   0  0  0  0  0  0  0  0  0  0  0  0
  1 13  1  0  0  0  0
  2  1  2  0  0  0  0
  2 18  1  0  0  0  0
  4 16  1  6  0  0  0
  4  1  1  0  0  0  0
  4  7  1  0  0  0  0
  5  8  2  0  0  0  0
  6  3  1  0  0  0  0
  7 14  2  0  0  0  0
  8  7  1  0  0  0  0
  9 10  1  6  0  0  0
  9 18  1  0  0  0  0
 11  2  1  0  0  0  0
 12 16  2  0  0  0  0
 12  5  1  0  0  0  0
 13 14  1  0  0  0  0
 13  3  2  0  0  0  0
 15  9  1  0  0  0  0
 17 11  1  0  0  0  0
 17 15  1  0  0  0  0
 18  6  2  0  0  0  0
 19 17  1  0  0  0  0
 20 19  2  0  0  0  0
 21 20  2  0  0  0  0
 22 21  1  0  0  0  0
 23 24  1  0  0  0  0
 23 21  1  0  0  0  0
 25 23  2  0  0  0  0
M  END
>  <MODEL>
7

>  <REMARK>
 VINA RESULT:      -8.6      1.855      2.195
  Name = 
  2 active torsions:
  status: ('A' for Active; 'I' for Inactive)
    1  A    between atoms: C_2  and  C_21
    2  A    between atoms: C_6  and  N_23
                            x       y       z     vdW  Elec       q    Type
                         _______ _______ _______ _____ _____    ______ ____

>  <TORSDO>
F 2

$$$$
=
 OpenBabel10262419533D

 25 28  0  0  1  0  0  0  0  0999 V2000
  188.9760  177.2020  145.2830 C   0  0  0  0  0  0  0  0  0  0  0  0
  189.4280  177.0640  143.9700 C   0  0  0  0  0  0  0  0  0  0  0  0
  191.2200  177.0920  146.1310 C   0  0  0  0  0  3  0  0  0  0  0  0
  187.5970  177.2560  145.8350 C   0  0  1  0  0  3  0  0  0  0  0  0
  185.9770  178.7510  147.6890 C   0  0  0  0  0  3  0  0  0  0  0  0
  191.6730  176.9730  144.8490 N   0  0  0  0  0  0  0  0  0  0  0  0
  187.9240  177.4040  147.3000 C   0  0  0  0  0  0  0  0  0  0  0  0
  186.9250  177.9630  148.2140 C   0  0  0  0  0  3  0  0  0  0  0  0
  191.4130  176.8640  142.3920 C   0  0  2  0  0  3  0  0  0  0  0  0
  191.8520  178.1280  141.9960 O   0  0  0  0  0  1  0  0  0  0  0  0
  188.4510  176.9680  142.8320 C   0  0  0  0  0  2  0  0  0  0  0  0
  185.9770  179.0820  146.2380 C   0  0  0  0  0  3  0  0  0  0  0  0
  189.8490  177.1920  146.3390 C   0  0  0  0  0  0  0  0  0  0  0  0
  189.1880  177.3590  147.5830 N   0  0  0  0  0  0  0  0  0  0  0  0
  190.4040  176.3290  141.3780 C   0  0  0  0  0  2  0  0  0  0  0  0
  186.7770  178.4340  145.3750 C   0  0  0  0  0  3  0  0  0  0  0  0
  189.1330  177.0220  141.5370 N   0  0  0  0  0  0  0  0  0  0  0  0
  190.8270  176.9430  143.7730 C   0  0  0  0  0  0  0  0  0  0  0  0
  188.5050  177.5760  140.3770 C   0  0  0  0  0  3  0  0  0  0  0  0
  189.1180  177.6410  139.2230 C   0  0  0  0  0  0  0  0  0  0  0  0
  189.7340  177.7020  138.0750 C   0  0  0  0  0  0  0  0  0  0  0  0
  190.9260  177.0080  137.9060 O   0  0  0  0  0  1  0  0  0  0  0  0
  189.1810  178.4910  136.9660 C   0  0  0  0  0  0  0  0  0  0  0  0
  189.0910  177.9500  135.6880 O   0  0  0  0  0  0  0  0  0  0  0  0
  188.7860  179.6680  137.1690 O   0  0  0  0  0  1  0  0  0  0  0  0
  1  4  1  0  0  0  0
  1 13  1  0  0  0  0
  2  1  2  0  0  0  0
  3 13  2  0  0  0  0
  4 16  1  6  0  0  0
  4  7  1  0  0  0  0
  5  8  2  0  0  0  0
  6  3  1  0  0  0  0
  7 14  2  0  0  0  0
  7  8  1  0  0  0  0
  9 10  1  6  0  0  0
  9 18  1  0  0  0  0
 11  2  1  0  0  0  0
 12  5  1  0  0  0  0
 13 14  1  0  0  0  0
 15 17  1  0  0  0  0
 15  9  1  0  0  0  0
 16 12  2  0  0  0  0
 17 11  1  0  0  0  0
 18  2  1  0  0  0  0
 18  6  2  0  0  0  0
 19 17  1  0  0  0  0
 20 19  2  0  0  0  0
 21 20  2  0  0  0  0
 22 21  1  0  0  0  0
 23 25  1  0  0  0  0
 23 21  1  0  0  0  0
 24 23  2  0  0  0  0
M  END
>  <MODEL>
8

>  <REMARK>
 VINA RESULT:      -8.4      1.623      2.401
  Name = 
  2 active torsions:
  status: ('A' for Active; 'I' for Inactive)
    1  A    between atoms: C_2  and  C_21
    2  A    between atoms: C_6  and  N_23
                            x       y       z     vdW  Elec       q    Type
                         _______ _______ _______ _____ _____    ______ ____

>  <TORSDO>
F 2

$$$$
=
 OpenBabel10262419533D

 25 28  0  0  1  0  0  0  0  0999 V2000
  188.9980  177.2530  145.0050 C   0  0  0  0  0  0  0  0  0  0  0  0
  189.3770  177.1620  143.6660 C   0  0  0  0  0  0  0  0  0  0  0  0
  191.2850  177.1400  145.7250 C   0  0  0  0  0  3  0  0  0  0  0  0
  187.6510  177.2730  145.6330 C   0  0  1  0  0  3  0  0  0  0  0  0
  186.1210  178.6890  147.6220 C   0  0  0  0  0  3  0  0  0  0  0  0
  191.6680  177.0680  144.4170 N   0  0  0  0  0  0  0  0  0  0  0  0
  188.0560  177.3770  147.0820 C   0  0  0  0  0  0  0  0  0  0  0  0
  187.1040  177.8950  148.0680 C   0  0  0  0  0  3  0  0  0  0  0  0
  191.2740  177.0360  141.9750 C   0  0  2  0  0  3  0  0  0  0  0  0
  191.6790  178.3170  141.5980 O   0  0  0  0  0  1  0  0  0  0  0  0
  188.3400  177.0930  142.5800 C   0  0  0  0  0  2  0  0  0  0  0  0
  186.0380  179.0680  146.1850 C   0  0  0  0  0  3  0  0  0  0  0  0
  189.9270  177.2180  146.0100 C   0  0  0  0  0  0  0  0  0  0  0  0
  189.3350  177.3370  147.2940 N   0  0  0  0  0  0  0  0  0  0  0  0
  190.2160  176.5240  141.0010 C   0  0  0  0  0  2  0  0  0  0  0  0
  186.7950  178.4570  145.2580 C   0  0  0  0  0  3  0  0  0  0  0  0
  188.9490  177.1970  141.2520 N   0  0  0  0  0  0  0  0  0  0  0  0
  190.7640  177.0640  143.3880 C   0  0  0  0  0  0  0  0  0  0  0  0
  188.2540  177.7820  140.1470 C   0  0  0  0  0  3  0  0  0  0  0  0
  187.0420  178.2610  140.2670 C   0  0  0  0  0  0  0  0  0  0  0  0
  185.8350  178.7390  140.3930 C   0  0  0  0  0  0  0  0  0  0  0  0
  185.2990  178.9040  141.6640 O   0  0  0  0  0  1  0  0  0  0  0  0
  185.0430  179.1030  139.2100 C   0  0  0  0  0  0  0  0  0  0  0  0
  185.0320  178.2850  138.0860 O   0  0  0  0  0  0  0  0  0  0  0  0
  184.3670  180.1650  139.2100 O   0  0  0  0  0  1  0  0  0  0  0  0
  1  4  1  0  0  0  0
  1 13  1  0  0  0  0
  2  1  2  0  0  0  0
  3 13  2  0  0  0  0
  4 16  1  6  0  0  0
  4  7  1  0  0  0  0
  5  8  2  0  0  0  0
  6  3  1  0  0  0  0
  7 14  2  0  0  0  0
  7  8  1  0  0  0  0
  9 10  1  6  0  0  0
  9 18  1  0  0  0  0
 11  2  1  0  0  0  0
 12  5  1  0  0  0  0
 13 14  1  0  0  0  0
 15 17  1  0  0  0  0
 15  9  1  0  0  0  0
 16 12  2  0  0  0  0
 17 11  1  0  0  0  0
 18  2  1  0  0  0  0
 18  6  2  0  0  0  0
 19 20  2  0  0  0  0
 19 17  1  0  0  0  0
 20 21  2  0  0  0  0
 21 22  1  0  0  0  0
 23 21  1  0  0  0  0
 24 23  2  0  0  0  0
 25 23  1  0  0  0  0
M  END
>  <MODEL>
9

>  <REMARK>
 VINA RESULT:      -8.4      1.995      2.927
  Name = 
  2 active torsions:
  status: ('A' for Active; 'I' for Inactive)
    1  A    between atoms: C_2  and  C_21
    2  A    between atoms: C_6  and  N_23
                            x       y       z     vdW  Elec       q    Type
                         _______ _______ _______ _____ _____    ______ ____

>  <TORSDO>
F 2

$$$$
