=
 OpenBabel10262421563D

 30 32  0  0  1  0  0  0  0  0999 V2000
  187.2560  177.7410  142.7130 C   0  0  0  0  0  2  0  0  0  0  0  0
  184.8900  178.1990  142.0430 C   0  0  2  0  0  3  0  0  0  0  0  0
  186.2530  178.5410  146.8250 N   0  0  0  0  0  2  0  0  0  0  0  0
  188.1760  177.1810  143.8070 C   0  0  2  0  0  3  0  0  0  0  0  0
  187.1760  178.3430  147.9380 C   0  0  0  0  0  2  0  0  0  0  0  0
  184.5450  179.5570  142.1980 O   0  0  0  0  0  0  0  0  0  0  0  0
  183.7660  177.3960  141.9250 F   0  0  0  0  0  0  0  0  0  0  0  0
  186.6060  178.1970  145.4760 C   0  0  0  0  0  0  0  0  0  0  0  0
  183.7880  179.6600  143.3740 C   0  0  0  0  0  2  0  0  0  0  0  0
  185.8090  177.6940  143.1630 C   0  0  2  0  0  3  0  0  0  0  0  0
  187.7840  177.5830  145.2200 C   0  0  0  0  0  0  0  0  0  0  0  0
  188.0070  177.0960  147.6860 C   0  0  0  0  0  2  0  0  0  0  0  0
  188.7300  177.2490  146.3500 C   0  0  0  0  0  2  0  0  0  0  0  0
  184.7010  179.5390  144.5850 C   0  0  0  0  0  2  0  0  0  0  0  0
  185.6720  178.4540  144.4150 N   0  0  0  0  0  0  0  0  0  0  0  0
  189.6600  177.4720  143.5130 C   0  0  2  0  0  3  0  0  0  0  0  0
  189.9260  177.9980  142.2230 O   0  0  0  0  0  0  0  0  0  0  0  0
  192.0990  177.6380  141.2760 C   0  0  0  0  0  1  0  0  0  0  0  0
  190.7000  177.0850  141.4870 C   0  0  2  0  0  3  0  0  0  0  0  0
  190.5480  175.9730  139.4210 O   0  0  0  0  0  0  0  0  0  0  0  0
  190.0500  176.7980  140.1680 C   0  0  0  0  0  0  0  0  0  0  0  0
  188.8180  177.5390  139.7420 C   0  0  0  0  0  2  0  0  0  0  0  0
  188.2300  178.7850  137.7940 O   0  0  0  0  0  1  0  0  0  0  0  0
  189.1650  178.6980  138.8240 C   0  0  0  0  0  2  0  0  0  0  0  0
  190.6170  176.3640  143.9630 C   0  0  0  0  0  2  0  0  0  0  0  0
  191.6520  176.9080  144.9360 C   0  0  0  0  0  2  0  0  0  0  0  0
  191.9830  175.9280  145.9150 O   0  0  0  0  0  0  0  0  0  0  0  0
  191.6540  177.3270  147.7260 O   0  0  0  0  0  0  0  0  0  0  0  0
  192.0810  176.2310  147.2740 C   0  0  0  0  0  0  0  0  0  0  0  0
  192.6910  175.2440  148.2010 C   0  0  0  0  0  1  0  0  0  0  0  0
  1  4  1  0  0  0  0
  2  7  1  1  0  0  0
  2  6  1  0  0  0  0
  2 10  1  0  0  0  0
  3  5  1  0  0  0  0
  4 16  1  6  0  0  0
  4 11  1  0  0  0  0
  6  9  1  0  0  0  0
  8  3  1  0  0  0  0
  9 14  1  0  0  0  0
 10  1  1  6  0  0  0
 10 15  1  0  0  0  0
 11  8  2  0  0  0  0
 11 13  1  0  0  0  0
 12  5  1  0  0  0  0
 13 12  1  0  0  0  0
 15 14  1  0  0  0  0
 15  8  1  0  0  0  0
 16 25  1  6  0  0  0
 17 16  1  0  0  0  0
 19 18  1  6  0  0  0
 19 17  1  0  0  0  0
 20 21  2  0  0  0  0
 21 19  1  0  0  0  0
 22 21  1  0  0  0  0
 23 24  1  0  0  0  0
 24 22  1  0  0  0  0
 25 26  1  0  0  0  0
 26 27  1  0  0  0  0
 27 29  1  0  0  0  0
 29 28  2  0  0  0  0
 29 30  1  0  0  0  0
M  END
>  <MODEL>
1

>  <REMARK>
 VINA RESULT:      -7.6      0.000      0.000
  Name = 
  10 active torsions:
  status: ('A' for Active; 'I' for Inactive)
    1  A    between atoms: C_4  and  C_27
    2  A    between atoms: C_5  and  C_12
    3  A    between atoms: C_5  and  C_21
    4  A    between atoms: O_7  and  C_15
    5  A    between atoms: O_7  and  C_16
    6  A    between atoms: C_8  and  C_12
    7  A    between atoms: C_8  and  O_13
    8  A    between atoms: O_13  and  C_27
    9  A    between atoms: C_16  and  C_30
   10  A    between atoms: C_27  and  C_30
                            x       y       z     vdW  Elec       q    Type
                         _______ _______ _______ _____ _____    ______ ____

>  <TORSDO>
F 10

$$$$
=
 OpenBabel10262421563D

 30 32  0  0  1  0  0  0  0  0999 V2000
  186.9600  177.9150  141.9810 C   0  0  0  0  0  2  0  0  0  0  0  0
  189.3360  177.4300  141.3690 C   0  0  2  0  0  3  0  0  0  0  0  0
  187.9330  177.4490  146.1520 N   0  0  0  0  0  2  0  0  0  0  0  0
  186.0250  178.5490  143.0200 C   0  0  2  0  0  3  0  0  0  0  0  0
  186.9970  177.7240  147.2380 C   0  0  0  0  0  2  0  0  0  0  0  0
  189.6920  176.0920  141.6330 O   0  0  0  0  0  0  0  0  0  0  0  0
  190.4540  178.2320  141.1980 F   0  0  0  0  0  0  0  0  0  0  0  0
  187.5880  177.6840  144.7770 C   0  0  0  0  0  0  0  0  0  0  0  0
  190.4390  176.0880  142.8200 C   0  0  0  0  0  2  0  0  0  0  0  0
  188.4020  178.0120  142.4390 C   0  0  2  0  0  3  0  0  0  0  0  0
  186.4070  178.2640  144.4630 C   0  0  0  0  0  0  0  0  0  0  0  0
  186.1570  178.9400  146.8810 C   0  0  0  0  0  2  0  0  0  0  0  0
  185.4480  178.6760  145.5560 C   0  0  0  0  0  2  0  0  0  0  0  0
  189.5140  176.2950  144.0100 C   0  0  0  0  0  2  0  0  0  0  0  0
  188.5340  177.3530  143.7470 N   0  0  0  0  0  0  0  0  0  0  0  0
  184.5460  178.2210  142.7370 C   0  0  2  0  0  3  0  0  0  0  0  0
  184.2950  177.6100  141.4820 O   0  0  0  0  0  0  0  0  0  0  0  0
  182.2850  177.7290  140.1820 C   0  0  0  0  0  1  0  0  0  0  0  0
  183.5150  178.4640  140.6850 C   0  0  2  0  0  3  0  0  0  0  0  0
  184.5370  180.1750  139.4360 O   0  0  0  0  0  0  0  0  0  0  0  0
  184.3220  178.9780  139.5310 C   0  0  0  0  0  0  0  0  0  0  0  0
  184.8340  178.0440  138.4770 C   0  0  0  0  0  2  0  0  0  0  0  0
  186.7510  178.8790  137.3260 O   0  0  0  0  0  1  0  0  0  0  0  0
  186.3500  178.0840  138.3990 C   0  0  0  0  0  2  0  0  0  0  0  0
  183.5730  179.3440  143.1090 C   0  0  0  0  0  2  0  0  0  0  0  0
  182.3800  178.7920  143.8740 C   0  0  0  0  0  2  0  0  0  0  0  0
  181.1620  179.2930  143.3330 O   0  0  0  0  0  0  0  0  0  0  0  0
  179.6970  177.7070  144.1630 O   0  0  0  0  0  0  0  0  0  0  0  0
  180.0050  178.5160  143.2460 C   0  0  0  0  0  0  0  0  0  0  0  0
  179.1230  178.6480  142.0590 C   0  0  0  0  0  1  0  0  0  0  0  0
  1  4  1  0  0  0  0
  2  7  1  1  0  0  0
  2  6  1  0  0  0  0
  2 10  1  0  0  0  0
  3  5  1  0  0  0  0
  4 16  1  6  0  0  0
  4 11  1  0  0  0  0
  6  9  1  0  0  0  0
  8  3  1  0  0  0  0
  9 14  1  0  0  0  0
 10  1  1  6  0  0  0
 10 15  1  0  0  0  0
 11  8  2  0  0  0  0
 11 13  1  0  0  0  0
 12  5  1  0  0  0  0
 13 12  1  0  0  0  0
 15 14  1  0  0  0  0
 15  8  1  0  0  0  0
 16 25  1  6  0  0  0
 17 16  1  0  0  0  0
 19 18  1  6  0  0  0
 19 17  1  0  0  0  0
 20 21  2  0  0  0  0
 21 19  1  0  0  0  0
 22 21  1  0  0  0  0
 23 24  1  0  0  0  0
 24 22  1  0  0  0  0
 25 26  1  0  0  0  0
 27 26  1  0  0  0  0
 29 27  1  0  0  0  0
 29 28  2  0  0  0  0
 30 29  1  0  0  0  0
M  END
>  <MODEL>
2

>  <REMARK>
 VINA RESULT:      -7.2      2.790      6.894
  Name = 
  10 active torsions:
  status: ('A' for Active; 'I' for Inactive)
    1  A    between atoms: C_4  and  C_27
    2  A    between atoms: C_5  and  C_12
    3  A    between atoms: C_5  and  C_21
    4  A    between atoms: O_7  and  C_15
    5  A    between atoms: O_7  and  C_16
    6  A    between atoms: C_8  and  C_12
    7  A    between atoms: C_8  and  O_13
    8  A    between atoms: O_13  and  C_27
    9  A    between atoms: C_16  and  C_30
   10  A    between atoms: C_27  and  C_30
                            x       y       z     vdW  Elec       q    Type
                         _______ _______ _______ _____ _____    ______ ____

>  <TORSDO>
F 10

$$$$
=
 OpenBabel10262421563D

 30 32  0  0  1  0  0  0  0  0999 V2000
  187.1710  178.5260  139.8000 C   0  0  0  0  0  2  0  0  0  0  0  0
  188.5470  178.4660  137.7120 C   0  0  2  0  0  3  0  0  0  0  0  0
  190.2690  176.4010  141.9090 N   0  0  0  0  0  2  0  0  0  0  0  0
  187.2000  178.6160  141.3310 C   0  0  2  0  0  3  0  0  0  0  0  0
  190.2430  176.1460  143.3450 C   0  0  0  0  0  2  0  0  0  0  0  0
  188.6730  177.1610  137.1940 O   0  0  0  0  0  0  0  0  0  0  0  0
  189.4980  179.3210  137.1780 F   0  0  0  0  0  0  0  0  0  0  0  0
  189.2480  177.1740  141.2570 C   0  0  0  0  0  0  0  0  0  0  0  0
  189.9490  176.6970  137.5450 C   0  0  0  0  0  2  0  0  0  0  0  0
  188.5820  178.4960  139.2460 C   0  0  2  0  0  3  0  0  0  0  0  0
  188.2790  177.7710  141.9880 C   0  0  0  0  0  0  0  0  0  0  0  0
  189.6580  177.3540  144.0600 C   0  0  0  0  0  2  0  0  0  0  0  0
  188.2690  177.6360  143.4940 C   0  0  0  0  0  2  0  0  0  0  0  0
  189.9770  176.3370  139.0230 C   0  0  0  0  0  2  0  0  0  0  0  0
  189.3030  177.3560  139.8330 N   0  0  0  0  0  0  0  0  0  0  0  0
  185.8100  178.3620  141.9470 C   0  0  2  0  0  3  0  0  0  0  0  0
  184.8380  177.8560  141.0480 O   0  0  0  0  0  0  0  0  0  0  0  0
  182.4810  178.2660  141.2060 C   0  0  0  0  0  1  0  0  0  0  0  0
  183.8420  178.8240  140.8300 C   0  0  2  0  0  3  0  0  0  0  0  0
  184.3910  180.3070  139.0890 O   0  0  0  0  0  0  0  0  0  0  0  0
  183.8480  179.2580  139.3960 C   0  0  0  0  0  0  0  0  0  0  0  0
  183.1640  178.4400  138.3420 C   0  0  0  0  0  2  0  0  0  0  0  0
  185.0630  177.6470  137.1330 O   0  0  0  0  0  1  0  0  0  0  0  0
  184.0070  177.2390  137.9480 C   0  0  0  0  0  2  0  0  0  0  0  0
  185.3150  179.4870  142.8610 C   0  0  0  0  0  2  0  0  0  0  0  0
  184.6250  178.9180  144.0920 C   0  0  0  0  0  2  0  0  0  0  0  0
  185.5440  178.1640  144.8760 O   0  0  0  0  0  0  0  0  0  0  0  0
  184.5700  178.4970  146.9470 O   0  0  0  0  0  0  0  0  0  0  0  0
  185.6070  178.2730  146.2660 C   0  0  0  0  0  0  0  0  0  0  0  0
  186.9150  178.1180  146.9530 C   0  0  0  0  0  1  0  0  0  0  0  0
  1  4  1  0  0  0  0
  2  7  1  6  0  0  0
  2 10  1  0  0  0  0
  3  5  1  0  0  0  0
  4 16  1  1  0  0  0
  4 11  1  0  0  0  0
  5 12  1  0  0  0  0
  6  9  1  0  0  0  0
  6  2  1  0  0  0  0
  8  3  1  0  0  0  0
  8 11  2  0  0  0  0
  9 14  1  0  0  0  0
 10  1  1  1  0  0  0
 10 15  1  0  0  0  0
 11 13  1  0  0  0  0
 13 12  1  0  0  0  0
 14 15  1  0  0  0  0
 15  8  1  0  0  0  0
 16 25  1  6  0  0  0
 17 16  1  0  0  0  0
 19 17  1  0  0  0  0
 19 18  1  6  0  0  0
 20 21  2  0  0  0  0
 21 19  1  0  0  0  0
 22 21  1  0  0  0  0
 23 24  1  0  0  0  0
 24 22  1  0  0  0  0
 25 26  1  0  0  0  0
 26 27  1  0  0  0  0
 27 29  1  0  0  0  0
 29 28  2  0  0  0  0
 29 30  1  0  0  0  0
M  END
>  <MODEL>
3

>  <REMARK>
 VINA RESULT:      -7.1      3.467      6.211
  Name = 
  10 active torsions:
  status: ('A' for Active; 'I' for Inactive)
    1  A    between atoms: C_4  and  C_27
    2  A    between atoms: C_5  and  C_12
    3  A    between atoms: C_5  and  C_21
    4  A    between atoms: O_7  and  C_15
    5  A    between atoms: O_7  and  C_16
    6  A    between atoms: C_8  and  C_12
    7  A    between atoms: C_8  and  O_13
    8  A    between atoms: O_13  and  C_27
    9  A    between atoms: C_16  and  C_30
   10  A    between atoms: C_27  and  C_30
                            x       y       z     vdW  Elec       q    Type
                         _______ _______ _______ _____ _____    ______ ____

>  <TORSDO>
F 10

$$$$
=
 OpenBabel10262421563D

 30 32  0  0  1  0  0  0  0  0999 V2000
  187.9040  178.0090  139.8920 C   0  0  0  0  0  2  0  0  0  0  0  0
  188.9350  177.9910  137.6140 C   0  0  2  0  0  3  0  0  0  0  0  0
  191.7810  177.3710  141.6590 N   0  0  0  0  0  2  0  0  0  0  0  0
  188.1000  178.3850  141.3670 C   0  0  2  0  0  3  0  0  0  0  0  0
  192.0290  177.3900  143.0960 C   0  0  0  0  0  2  0  0  0  0  0  0
  189.4210  176.7170  137.2590 O   0  0  0  0  0  0  0  0  0  0  0  0
  189.4670  178.9840  136.8060 F   0  0  0  0  0  0  0  0  0  0  0  0
  190.4840  177.6570  141.1100 C   0  0  0  0  0  0  0  0  0  0  0  0
  190.8130  176.7420  137.4280 C   0  0  0  0  0  2  0  0  0  0  0  0
  189.1580  178.3130  139.0980 C   0  0  2  0  0  3  0  0  0  0  0  0
  189.4760  178.0500  141.9210 C   0  0  0  0  0  0  0  0  0  0  0  0
  191.1740  178.4690  143.7400 C   0  0  0  0  0  2  0  0  0  0  0  0
  189.7090  178.1990  143.4060 C   0  0  0  0  0  2  0  0  0  0  0  0
  191.1520  176.6870  138.9100 C   0  0  0  0  0  2  0  0  0  0  0  0
  190.2880  177.5800  139.6880 N   0  0  0  0  0  0  0  0  0  0  0  0
  186.9690  177.8340  142.2560 C   0  0  2  0  0  3  0  0  0  0  0  0
  185.9850  178.7820  142.6340 O   0  0  0  0  0  0  0  0  0  0  0  0
  184.6860  179.0520  140.6370 C   0  0  0  0  0  1  0  0  0  0  0  0
  184.7560  178.4580  142.0330 C   0  0  2  0  0  3  0  0  0  0  0  0
  182.4770  178.8440  142.4640 O   0  0  0  0  0  0  0  0  0  0  0  0
  183.6210  178.9620  142.8710 C   0  0  0  0  0  0  0  0  0  0  0  0
  183.8770  179.6430  144.1820 C   0  0  0  0  0  2  0  0  0  0  0  0
  184.3470  178.9830  146.4270 O   0  0  0  0  0  1  0  0  0  0  0  0
  183.4960  178.7460  145.3480 C   0  0  0  0  0  2  0  0  0  0  0  0
  187.4500  176.9230  143.3890 C   0  0  0  0  0  2  0  0  0  0  0  0
  186.7040  177.2280  144.6800 C   0  0  0  0  0  2  0  0  0  0  0  0
  187.4770  178.0850  145.5140 O   0  0  0  0  0  0  0  0  0  0  0  0
  189.0950  176.8660  146.6300 O   0  0  0  0  0  0  0  0  0  0  0  0
  188.0970  177.6340  146.6810 C   0  0  0  0  0  0  0  0  0  0  0  0
  187.5760  178.0720  148.0010 C   0  0  0  0  0  1  0  0  0  0  0  0
  1  4  1  0  0  0  0
  2  7  1  6  0  0  0
  2 10  1  0  0  0  0
  3  5  1  0  0  0  0
  4 11  1  0  0  0  0
  4 16  1  1  0  0  0
  5 12  1  0  0  0  0
  6  9  1  0  0  0  0
  6  2  1  0  0  0  0
  8  3  1  0  0  0  0
  8 11  2  0  0  0  0
  9 14  1  0  0  0  0
 10 15  1  0  0  0  0
 10  1  1  1  0  0  0
 11 13  1  0  0  0  0
 13 12  1  0  0  0  0
 14 15  1  0  0  0  0
 15  8  1  0  0  0  0
 16 17  1  0  0  0  0
 16 25  1  1  0  0  0
 19 18  1  6  0  0  0
 19 17  1  0  0  0  0
 19 21  1  0  0  0  0
 20 21  2  0  0  0  0
 21 22  1  0  0  0  0
 22 24  1  0  0  0  0
 24 23  1  0  0  0  0
 25 26  1  0  0  0  0
 26 27  1  0  0  0  0
 27 29  1  0  0  0  0
 28 29  2  0  0  0  0
 29 30  1  0  0  0  0
M  END
>  <MODEL>
4

>  <REMARK>
 VINA RESULT:      -7.1      3.085      6.324
  Name = 
  10 active torsions:
  status: ('A' for Active; 'I' for Inactive)
    1  A    between atoms: C_4  and  C_27
    2  A    between atoms: C_5  and  C_12
    3  A    between atoms: C_5  and  C_21
    4  A    between atoms: O_7  and  C_15
    5  A    between atoms: O_7  and  C_16
    6  A    between atoms: C_8  and  C_12
    7  A    between atoms: C_8  and  O_13
    8  A    between atoms: O_13  and  C_27
    9  A    between atoms: C_16  and  C_30
   10  A    between atoms: C_27  and  C_30
                            x       y       z     vdW  Elec       q    Type
                         _______ _______ _______ _____ _____    ______ ____

>  <TORSDO>
F 10

$$$$
=
 OpenBabel10262421563D

 30 32  0  0  1  0  0  0  0  0999 V2000
  188.1020  177.9140  140.1050 C   0  0  0  0  0  2  0  0  0  0  0  0
  186.8170  177.9250  137.9600 C   0  0  2  0  0  3  0  0  0  0  0  0
  191.5520  176.3710  138.0370 N   0  0  0  0  0  2  0  0  0  0  0  0
  189.4800  178.0960  140.7560 C   0  0  2  0  0  3  0  0  0  0  0  0
  192.8600  176.1990  138.6600 C   0  0  0  0  0  2  0  0  0  0  0  0
  186.5530  176.6230  137.4890 O   0  0  0  0  0  0  0  0  0  0  0  0
  186.6430  178.8740  136.9630 F   0  0  0  0  0  0  0  0  0  0  0  0
  190.4460  176.9530  138.7450 C   0  0  0  0  0  0  0  0  0  0  0  0
  187.4620  176.3640  136.4540 C   0  0  0  0  0  2  0  0  0  0  0  0
  188.2070  178.0490  138.5990 C   0  0  2  0  0  3  0  0  0  0  0  0
  190.6240  177.4500  139.9910 C   0  0  0  0  0  0  0  0  0  0  0  0
  193.1170  177.3520  139.6170 C   0  0  0  0  0  2  0  0  0  0  0  0
  191.9870  177.4030  140.6410 C   0  0  0  0  0  2  0  0  0  0  0  0
  188.8420  176.0980  137.0360 C   0  0  0  0  0  2  0  0  0  0  0  0
  189.1690  177.0580  138.0950 N   0  0  0  0  0  0  0  0  0  0  0  0
  189.4720  177.6860  142.2410 C   0  0  2  0  0  3  0  0  0  0  0  0
  190.7420  177.3560  142.7800 O   0  0  0  0  0  0  0  0  0  0  0  0
  191.6500  179.0150  144.2520 C   0  0  0  0  0  1  0  0  0  0  0  0
  190.8060  177.7590  144.1250 C   0  0  2  0  0  3  0  0  0  0  0  0
  191.8420  175.6700  144.4290 O   0  0  0  0  0  0  0  0  0  0  0  0
  191.3780  176.6610  144.9690 C   0  0  0  0  0  0  0  0  0  0  0  0
  191.3510  176.7480  146.4650 C   0  0  0  0  0  2  0  0  0  0  0  0
  192.8550  176.1850  148.2310 O   0  0  0  0  0  1  0  0  0  0  0  0
  192.2290  175.6790  147.0920 C   0  0  0  0  0  2  0  0  0  0  0  0
  188.3450  176.7200  142.6190 C   0  0  0  0  0  2  0  0  0  0  0  0
  187.2630  177.4380  143.4120 C   0  0  0  0  0  2  0  0  0  0  0  0
  187.2470  176.9850  144.7620 O   0  0  0  0  0  0  0  0  0  0  0  0
  186.0660  178.6780  145.8040 O   0  0  0  0  0  0  0  0  0  0  0  0
  187.0090  177.8430  145.8370 C   0  0  0  0  0  0  0  0  0  0  0  0
  187.8770  177.7650  147.0400 C   0  0  0  0  0  1  0  0  0  0  0  0
  1  4  1  0  0  0  0
  2  7  1  6  0  0  0
  2 10  1  0  0  0  0
  3  5  1  0  0  0  0
  3  8  1  0  0  0  0
  4 16  1  1  0  0  0
  5 12  1  0  0  0  0
  6  2  1  0  0  0  0
  8 11  2  0  0  0  0
  9 14  1  0  0  0  0
  9  6  1  0  0  0  0
 10  1  1  1  0  0  0
 11 13  1  0  0  0  0
 11  4  1  0  0  0  0
 12 13  1  0  0  0  0
 14 15  1  0  0  0  0
 15 10  1  0  0  0  0
 15  8  1  0  0  0  0
 16 25  1  6  0  0  0
 16 17  1  0  0  0  0
 17 19  1  0  0  0  0
 19 18  1  6  0  0  0
 19 21  1  0  0  0  0
 20 21  2  0  0  0  0
 21 22  1  0  0  0  0
 22 24  1  0  0  0  0
 24 23  1  0  0  0  0
 25 26  1  0  0  0  0
 26 27  1  0  0  0  0
 27 29  1  0  0  0  0
 28 29  2  0  0  0  0
 29 30  1  0  0  0  0
M  END
>  <MODEL>
5

>  <REMARK>
 VINA RESULT:      -7.0      3.048      6.619
  Name = 
  10 active torsions:
  status: ('A' for Active; 'I' for Inactive)
    1  A    between atoms: C_4  and  C_27
    2  A    between atoms: C_5  and  C_12
    3  A    between atoms: C_5  and  C_21
    4  A    between atoms: O_7  and  C_15
    5  A    between atoms: O_7  and  C_16
    6  A    between atoms: C_8  and  C_12
    7  A    between atoms: C_8  and  O_13
    8  A    between atoms: O_13  and  C_27
    9  A    between atoms: C_16  and  C_30
   10  A    between atoms: C_27  and  C_30
                            x       y       z     vdW  Elec       q    Type
                         _______ _______ _______ _____ _____    ______ ____

>  <TORSDO>
F 10

$$$$
=
 OpenBabel10262421563D

 30 32  0  0  1  0  0  0  0  0999 V2000
  187.6070  178.0790  142.0030 C   0  0  0  0  0  2  0  0  0  0  0  0
  185.3860  178.8500  142.8560 C   0  0  2  0  0  3  0  0  0  0  0  0
  186.2410  178.6070  137.9510 N   0  0  0  0  0  2  0  0  0  0  0  0
  188.6590  178.2300  140.8960 C   0  0  2  0  0  3  0  0  0  0  0  0
  187.1000  178.4580  136.7810 C   0  0  0  0  0  2  0  0  0  0  0  0
  184.3570  177.9300  142.5710 O   0  0  0  0  0  0  0  0  0  0  0  0
  184.8790  180.0970  143.1890 F   0  0  0  0  0  0  0  0  0  0  0  0
  186.7540  178.4890  139.2880 C   0  0  0  0  0  0  0  0  0  0  0  0
  183.6390  178.4350  141.4770 C   0  0  0  0  0  2  0  0  0  0  0  0
  186.4070  178.9600  141.7160 C   0  0  2  0  0  3  0  0  0  0  0  0
  188.0820  178.3310  139.4930 C   0  0  0  0  0  0  0  0  0  0  0  0
  188.4800  179.0120  137.0960 C   0  0  0  0  0  2  0  0  0  0  0  0
  189.0330  178.2870  138.3200 C   0  0  0  0  0  2  0  0  0  0  0  0
  184.4460  178.2440  140.2010 C   0  0  0  0  0  2  0  0  0  0  0  0
  185.8530  178.6020  140.4020 N   0  0  0  0  0  0  0  0  0  0  0  0
  189.7550  177.1510  140.9940 C   0  0  2  0  0  3  0  0  0  0  0  0
  189.7470  176.3940  142.1930 O   0  0  0  0  0  0  0  0  0  0  0  0
  191.5560  175.6750  143.5930 C   0  0  0  0  0  1  0  0  0  0  0  0
  190.7620  176.8510  143.0510 C   0  0  2  0  0  3  0  0  0  0  0  0
  190.5000  178.8090  144.3270 O   0  0  0  0  0  0  0  0  0  0  0  0
  190.1710  177.6440  144.1770 C   0  0  0  0  0  0  0  0  0  0  0  0
  189.2130  177.0120  145.1410 C   0  0  0  0  0  2  0  0  0  0  0  0
  189.1310  176.7970  147.5160 O   0  0  0  0  0  1  0  0  0  0  0  0
  189.2320  177.7260  146.4810 C   0  0  0  0  0  2  0  0  0  0  0  0
  191.1410  177.6220  140.5430 C   0  0  0  0  0  2  0  0  0  0  0  0
  191.7700  176.6130  139.5940 C   0  0  0  0  0  2  0  0  0  0  0  0
  190.7750  175.7530  139.0460 O   0  0  0  0  0  0  0  0  0  0  0  0
  190.6920  173.9190  137.6390 O   0  0  0  0  0  0  0  0  0  0  0  0
  190.9130  175.1500  137.7940 C   0  0  0  0  0  0  0  0  0  0  0  0
  191.3210  175.9740  136.6270 C   0  0  0  0  0  1  0  0  0  0  0  0
  2  7  1  6  0  0  0
  3  8  1  0  0  0  0
  4 16  1  6  0  0  0
  4  1  1  0  0  0  0
  5 12  1  0  0  0  0
  5  3  1  0  0  0  0
  6  2  1  0  0  0  0
  8 11  2  0  0  0  0
  8 15  1  0  0  0  0
  9  6  1  0  0  0  0
 10  1  1  1  0  0  0
 10  2  1  0  0  0  0
 11  4  1  0  0  0  0
 12 13  1  0  0  0  0
 13 11  1  0  0  0  0
 14 15  1  0  0  0  0
 14  9  1  0  0  0  0
 15 10  1  0  0  0  0
 16 25  1  1  0  0  0
 16 17  1  0  0  0  0
 17 19  1  0  0  0  0
 19 18  1  1  0  0  0
 19 21  1  0  0  0  0
 21 20  2  0  0  0  0
 21 22  1  0  0  0  0
 22 24  1  0  0  0  0
 24 23  1  0  0  0  0
 26 25  1  0  0  0  0
 27 26  1  0  0  0  0
 28 29  2  0  0  0  0
 29 27  1  0  0  0  0
 30 29  1  0  0  0  0
M  END
>  <MODEL>
6

>  <REMARK>
 VINA RESULT:      -7.0      2.491      6.378
  Name = 
  10 active torsions:
  status: ('A' for Active; 'I' for Inactive)
    1  A    between atoms: C_4  and  C_27
    2  A    between atoms: C_5  and  C_12
    3  A    between atoms: C_5  and  C_21
    4  A    between atoms: O_7  and  C_15
    5  A    between atoms: O_7  and  C_16
    6  A    between atoms: C_8  and  C_12
    7  A    between atoms: C_8  and  O_13
    8  A    between atoms: O_13  and  C_27
    9  A    between atoms: C_16  and  C_30
   10  A    between atoms: C_27  and  C_30
                            x       y       z     vdW  Elec       q    Type
                         _______ _______ _______ _____ _____    ______ ____

>  <TORSDO>
F 10

$$$$
=
 OpenBabel10262421563D

 30 32  0  0  1  0  0  0  0  0999 V2000
  186.3440  178.6220  141.4680 C   0  0  0  0  0  2  0  0  0  0  0  0
  184.5120  179.1750  139.8580 C   0  0  2  0  0  3  0  0  0  0  0  0
  188.7080  177.0250  138.2400 N   0  0  0  0  0  2  0  0  0  0  0  0
  187.8620  178.5070  141.6680 C   0  0  2  0  0  3  0  0  0  0  0  0
  190.0890  176.5770  138.3910 C   0  0  0  0  0  2  0  0  0  0  0  0
  183.8950  178.0210  139.3360 O   0  0  0  0  0  0  0  0  0  0  0  0
  184.2280  180.2970  139.0940 F   0  0  0  0  0  0  0  0  0  0  0  0
  187.9790  177.6150  139.3290 C   0  0  0  0  0  0  0  0  0  0  0  0
  184.4010  177.8290  138.0420 C   0  0  0  0  0  2  0  0  0  0  0  0
  186.0270  179.0030  140.0360 C   0  0  2  0  0  3  0  0  0  0  0  0
  188.5980  177.8590  140.5060 C   0  0  0  0  0  0  0  0  0  0  0  0
  190.8150  177.5030  139.3540 C   0  0  0  0  0  2  0  0  0  0  0  0
  190.0610  177.5220  140.6810 C   0  0  0  0  0  2  0  0  0  0  0  0
  185.8210  177.2880  138.1200 C   0  0  0  0  0  2  0  0  0  0  0  0
  186.6080  177.9970  139.1330 N   0  0  0  0  0  0  0  0  0  0  0  0
  188.2150  177.8490  143.0150 C   0  0  2  0  0  3  0  0  0  0  0  0
  189.5550  177.4000  143.1330 O   0  0  0  0  0  0  0  0  0  0  0  0
  190.9360  179.1720  143.9680 C   0  0  0  0  0  1  0  0  0  0  0  0
  190.1330  177.9270  144.3000 C   0  0  2  0  0  3  0  0  0  0  0  0
  191.6820  176.1580  144.2590 O   0  0  0  0  0  0  0  0  0  0  0  0
  191.0090  176.9010  144.9530 C   0  0  0  0  0  0  0  0  0  0  0  0
  191.0390  176.7550  146.4450 C   0  0  0  0  0  2  0  0  0  0  0  0
  189.0270  176.4150  147.6830 O   0  0  0  0  0  1  0  0  0  0  0  0
  189.8180  177.3940  147.0830 C   0  0  0  0  0  2  0  0  0  0  0  0
  187.1610  176.8610  143.5260 C   0  0  0  0  0  2  0  0  0  0  0  0
  186.8140  177.1480  144.9800 C   0  0  0  0  0  2  0  0  0  0  0  0
  186.2690  178.4560  145.1160 O   0  0  0  0  0  0  0  0  0  0  0  0
  184.5560  178.6280  146.6600 O   0  0  0  0  0  0  0  0  0  0  0  0
  184.9340  178.6790  145.4590 C   0  0  0  0  0  0  0  0  0  0  0  0
  183.9470  178.9870  144.3920 C   0  0  0  0  0  1  0  0  0  0  0  0
  1  4  1  0  0  0  0
  2  7  1  6  0  0  0
  2 10  1  0  0  0  0
  3  5  1  0  0  0  0
  3  8  1  0  0  0  0
  4 16  1  1  0  0  0
  5 12  1  0  0  0  0
  6  2  1  0  0  0  0
  8 11  2  0  0  0  0
  9 14  1  0  0  0  0
  9  6  1  0  0  0  0
 10  1  1  1  0  0  0
 11 13  1  0  0  0  0
 11  4  1  0  0  0  0
 12 13  1  0  0  0  0
 14 15  1  0  0  0  0
 15  8  1  0  0  0  0
 15 10  1  0  0  0  0
 16 17  1  0  0  0  0
 16 25  1  6  0  0  0
 17 19  1  0  0  0  0
 19 18  1  6  0  0  0
 19 21  1  0  0  0  0
 20 21  2  0  0  0  0
 21 22  1  0  0  0  0
 22 24  1  0  0  0  0
 24 23  1  0  0  0  0
 25 26  1  0  0  0  0
 26 27  1  0  0  0  0
 27 29  1  0  0  0  0
 29 28  2  0  0  0  0
 30 29  1  0  0  0  0
M  END
>  <MODEL>
7

>  <REMARK>
 VINA RESULT:      -6.8      2.703      6.094
  Name = 
  10 active torsions:
  status: ('A' for Active; 'I' for Inactive)
    1  A    between atoms: C_4  and  C_27
    2  A    between atoms: C_5  and  C_12
    3  A    between atoms: C_5  and  C_21
    4  A    between atoms: O_7  and  C_15
    5  A    between atoms: O_7  and  C_16
    6  A    between atoms: C_8  and  C_12
    7  A    between atoms: C_8  and  O_13
    8  A    between atoms: O_13  and  C_27
    9  A    between atoms: C_16  and  C_30
   10  A    between atoms: C_27  and  C_30
                            x       y       z     vdW  Elec       q    Type
                         _______ _______ _______ _____ _____    ______ ____

>  <TORSDO>
F 10

$$$$
=
 OpenBabel10262421563D

 30 32  0  0  1  0  0  0  0  0999 V2000
  190.2900  177.6970  141.3630 C   0  0  0  0  0  2  0  0  0  0  0  0
  191.5240  177.6240  143.5370 C   0  0  2  0  0  3  0  0  0  0  0  0
  186.5550  178.0140  143.4870 N   0  0  0  0  0  2  0  0  0  0  0  0
  189.0760  178.2650  140.6160 C   0  0  2  0  0  3  0  0  0  0  0  0
  185.2690  178.2400  142.8360 C   0  0  0  0  0  2  0  0  0  0  0  0
  191.2750  176.4350  144.2520 O   0  0  0  0  0  0  0  0  0  0  0  0
  192.0700  178.6050  144.3510 F   0  0  0  0  0  0  0  0  0  0  0  0
  187.7850  177.9830  142.7460 C   0  0  0  0  0  0  0  0  0  0  0  0
  190.3580  176.7460  145.2660 C   0  0  0  0  0  2  0  0  0  0  0  0
  190.2770  178.1460  142.8110 C   0  0  2  0  0  3  0  0  0  0  0  0
  187.7870  178.2640  141.4220 C   0  0  0  0  0  0  0  0  0  0  0  0
  185.4570  179.2000  141.6710 C   0  0  0  0  0  2  0  0  0  0  0  0
  186.4980  178.6190  140.7180 C   0  0  0  0  0  2  0  0  0  0  0  0
  188.9700  176.9220  144.6680 C   0  0  0  0  0  2  0  0  0  0  0  0
  189.0170  177.7130  143.4350 N   0  0  0  0  0  0  0  0  0  0  0  0
  188.8940  177.6090  139.2340 C   0  0  2  0  0  3  0  0  0  0  0  0
  189.3660  176.2760  139.1340 O   0  0  0  0  0  0  0  0  0  0  0  0
  188.9670  175.1110  137.0770 C   0  0  0  0  0  1  0  0  0  0  0  0
  189.8810  176.0480  137.8460 C   0  0  2  0  0  3  0  0  0  0  0  0
  191.4060  174.2620  137.9600 O   0  0  0  0  0  0  0  0  0  0  0  0
  191.2620  175.4730  137.9350 C   0  0  0  0  0  0  0  0  0  0  0  0
  192.4620  176.3670  138.0300 C   0  0  0  0  0  2  0  0  0  0  0  0
  194.3010  176.7580  136.5600 O   0  0  0  0  0  1  0  0  0  0  0  0
  193.6500  175.7690  137.2970 C   0  0  0  0  0  2  0  0  0  0  0  0
  189.2730  178.5130  138.0560 C   0  0  0  0  0  2  0  0  0  0  0  0
  188.0350  178.9300  137.2760 C   0  0  0  0  0  2  0  0  0  0  0  0
  186.9180  178.1260  137.6430 O   0  0  0  0  0  0  0  0  0  0  0  0
  185.0460  176.9100  137.0400 O   0  0  0  0  0  0  0  0  0  0  0  0
  186.1110  177.4900  136.6980 C   0  0  0  0  0  0  0  0  0  0  0  0
  186.5120  177.5030  135.2670 C   0  0  0  0  0  1  0  0  0  0  0  0
  2  6  1  0  0  0  0
  2  7  1  1  0  0  0
  4 16  1  6  0  0  0
  4  1  1  0  0  0  0
  4 11  1  0  0  0  0
  5  3  1  0  0  0  0
  6  9  1  0  0  0  0
  8 15  1  0  0  0  0
  8  3  1  0  0  0  0
 10  1  1  6  0  0  0
 10 15  1  0  0  0  0
 10  2  1  0  0  0  0
 11  8  2  0  0  0  0
 12  5  1  0  0  0  0
 13 11  1  0  0  0  0
 13 12  1  0  0  0  0
 14  9  1  0  0  0  0
 15 14  1  0  0  0  0
 16 25  1  6  0  0  0
 17 16  1  0  0  0  0
 19 18  1  1  0  0  0
 19 21  1  0  0  0  0
 19 17  1  0  0  0  0
 21 20  2  0  0  0  0
 21 22  1  0  0  0  0
 23 24  1  0  0  0  0
 24 22  1  0  0  0  0
 26 27  1  0  0  0  0
 26 25  1  0  0  0  0
 29 28  2  0  0  0  0
 29 27  1  0  0  0  0
 30 29  1  0  0  0  0
M  END
>  <MODEL>
8

>  <REMARK>
 VINA RESULT:      -6.8      2.943      6.804
  Name = 
  10 active torsions:
  status: ('A' for Active; 'I' for Inactive)
    1  A    between atoms: C_4  and  C_27
    2  A    between atoms: C_5  and  C_12
    3  A    between atoms: C_5  and  C_21
    4  A    between atoms: O_7  and  C_15
    5  A    between atoms: O_7  and  C_16
    6  A    between atoms: C_8  and  C_12
    7  A    between atoms: C_8  and  O_13
    8  A    between atoms: O_13  and  C_27
    9  A    between atoms: C_16  and  C_30
   10  A    between atoms: C_27  and  C_30
                            x       y       z     vdW  Elec       q    Type
                         _______ _______ _______ _____ _____    ______ ____

>  <TORSDO>
F 10

$$$$
=
 OpenBabel10262421563D

 30 32  0  0  1  0  0  0  0  0999 V2000
  186.8560  177.9990  145.6780 C   0  0  0  0  0  2  0  0  0  0  0  0
  187.2760  177.9150  148.1420 C   0  0  2  0  0  3  0  0  0  0  0  0
  190.8830  176.6590  144.9390 N   0  0  0  0  0  2  0  0  0  0  0  0
  187.1710  177.3620  144.3180 C   0  0  2  0  0  3  0  0  0  0  0  0
  191.3950  176.3230  143.6140 C   0  0  0  0  0  2  0  0  0  0  0  0
  188.1950  178.8980  148.5600 O   0  0  0  0  0  0  0  0  0  0  0  0
  187.1210  176.9210  149.0970 F   0  0  0  0  0  0  0  0  0  0  0  0
  189.5130  177.0360  145.1490 C   0  0  0  0  0  0  0  0  0  0  0  0
  189.4280  178.2590  148.7540 C   0  0  0  0  0  2  0  0  0  0  0  0
  187.6400  177.3120  146.7780 C   0  0  2  0  0  3  0  0  0  0  0  0
  188.6330  176.9940  144.1220 C   0  0  0  0  0  0  0  0  0  0  0  0
  190.3040  175.6280  142.8150 C   0  0  0  0  0  2  0  0  0  0  0  0
  189.0830  176.5410  142.7520 C   0  0  0  0  0  2  0  0  0  0  0  0
  190.0610  177.9440  147.4070 C   0  0  0  0  0  2  0  0  0  0  0  0
  189.0760  177.3980  146.4690 N   0  0  0  0  0  0  0  0  0  0  0  0
  186.6240  178.2040  143.1490 C   0  0  2  0  0  3  0  0  0  0  0  0
  185.3750  177.7760  142.6320 O   0  0  0  0  0  0  0  0  0  0  0  0
  183.8550  178.8420  144.1500 C   0  0  0  0  0  1  0  0  0  0  0  0
  184.4330  178.8140  142.7460 C   0  0  2  0  0  3  0  0  0  0  0  0
  182.1780  178.7720  142.0800 O   0  0  0  0  0  0  0  0  0  0  0  0
  183.3410  178.6340  141.7360 C   0  0  0  0  0  0  0  0  0  0  0  0
  183.6570  178.2510  140.3220 C   0  0  0  0  0  2  0  0  0  0  0  0
  184.4430  180.1280  139.0760 O   0  0  0  0  0  1  0  0  0  0  0  0
  183.3060  179.3720  139.3590 C   0  0  0  0  0  2  0  0  0  0  0  0
  187.6710  178.5550  142.0870 C   0  0  0  0  0  2  0  0  0  0  0  0
  187.0680  178.4820  140.6920 C   0  0  0  0  0  2  0  0  0  0  0  0
  188.0530  178.7700  139.7050 O   0  0  0  0  0  0  0  0  0  0  0  0
  190.1830  177.8730  139.7800 O   0  0  0  0  0  0  0  0  0  0  0  0
  189.0140  177.8360  139.3110 C   0  0  0  0  0  0  0  0  0  0  0  0
  188.6500  176.7810  138.3320 C   0  0  0  0  0  1  0  0  0  0  0  0
  2  6  1  0  0  0  0
  2  7  1  1  0  0  0
  3  8  1  0  0  0  0
  4 16  1  6  0  0  0
  4  1  1  0  0  0  0
  5  3  1  0  0  0  0
  6  9  1  0  0  0  0
  8 15  1  0  0  0  0
 10  1  1  6  0  0  0
 10  2  1  0  0  0  0
 11  4  1  0  0  0  0
 11  8  2  0  0  0  0
 12  5  1  0  0  0  0
 13 12  1  0  0  0  0
 13 11  1  0  0  0  0
 14  9  1  0  0  0  0
 15 10  1  0  0  0  0
 15 14  1  0  0  0  0
 16 25  1  6  0  0  0
 17 19  1  0  0  0  0
 17 16  1  0  0  0  0
 19 18  1  1  0  0  0
 21 20  2  0  0  0  0
 21 19  1  0  0  0  0
 22 21  1  0  0  0  0
 23 24  1  0  0  0  0
 24 22  1  0  0  0  0
 26 25  1  0  0  0  0
 27 26  1  0  0  0  0
 29 27  1  0  0  0  0
 29 28  2  0  0  0  0
 30 29  1  0  0  0  0
M  END
>  <MODEL>
9

>  <REMARK>
 VINA RESULT:      -6.7      2.610      6.266
  Name = 
  10 active torsions:
  status: ('A' for Active; 'I' for Inactive)
    1  A    between atoms: C_4  and  C_27
    2  A    between atoms: C_5  and  C_12
    3  A    between atoms: C_5  and  C_21
    4  A    between atoms: O_7  and  C_15
    5  A    between atoms: O_7  and  C_16
    6  A    between atoms: C_8  and  C_12
    7  A    between atoms: C_8  and  O_13
    8  A    between atoms: O_13  and  C_27
    9  A    between atoms: C_16  and  C_30
   10  A    between atoms: C_27  and  C_30
                            x       y       z     vdW  Elec       q    Type
                         _______ _______ _______ _____ _____    ______ ____

>  <TORSDO>
F 10

$$$$
