=
 OpenBabel10262419523D

 25 29  0  0  0  0  0  0  0  0999 V2000
  186.9460  177.8990  145.0320 C   0  0  0  0  0  0  0  0  0  0  0  0
  188.1590  177.5930  144.3880 C   0  0  0  0  0  0  0  0  0  0  0  0
  187.9850  177.5060  147.1900 C   0  0  0  0  0  3  0  0  0  0  0  0
  185.7120  178.2690  144.4610 C   0  0  0  0  0  0  0  0  0  0  0  0
  183.1280  179.0250  143.7090 C   0  0  0  0  0  3  0  0  0  0  0  0
  189.1550  177.2120  146.5560 N   0  0  0  0  0  0  0  0  0  0  0  0
  184.7240  178.4980  145.4180 C   0  0  0  0  0  0  0  0  0  0  0  0
  183.4310  178.8750  145.0700 C   0  0  0  0  0  3  0  0  0  0  0  0
  190.4970  176.9330  144.5880 C   0  0  0  0  0  0  0  0  0  0  0  0
  191.6010  176.5890  145.3600 O   0  0  0  0  0  1  0  0  0  0  0  0
  188.2990  177.6210  142.9950 C   0  0  0  0  0  3  0  0  0  0  0  0
  184.1140  178.7980  142.7310 C   0  0  0  0  0  3  0  0  0  0  0  0
  186.8800  177.8510  146.4210 C   0  0  0  0  0  0  0  0  0  0  0  0
  185.3370  178.2530  146.9690 S   0  0  0  0  0  0  0  0  0  0  0  0
  190.6170  176.9670  143.1960 C   0  0  0  0  0  3  0  0  0  0  0  0
  185.4130  178.4180  143.1030 C   0  0  0  0  0  3  0  0  0  0  0  0
  189.5230  177.3100  142.3850 C   0  0  0  0  0  0  0  0  0  0  0  0
  189.2730  177.2440  145.1950 C   0  0  0  0  0  0  0  0  0  0  0  0
  188.8090  177.9960  138.7230 C   0  0  0  0  0  0  0  0  0  0  0  0
  189.6590  177.3430  140.9100 C   0  0  0  0  0  0  0  0  0  0  0  0
  188.6810  177.9640  140.1150 C   0  0  0  0  0  3  0  0  0  0  0  0
  187.8110  178.6280  137.9310 N   0  0  0  0  0  1  0  0  0  0  0  0
  190.7680  176.7530  140.2790 C   0  0  0  0  0  3  0  0  0  0  0  0
  189.9160  177.4050  138.1100 C   0  0  0  0  0  3  0  0  0  0  0  0
  190.8960  176.7850  138.8880 C   0  0  0  0  0  3  0  0  0  0  0  0
  1 13  1  0  0  0  0
  2  1  2  0  0  0  0
  2 18  1  0  0  0  0
  4  1  1  0  0  0  0
  4  7  1  0  0  0  0
  5  8  1  0  0  0  0
  6  3  1  0  0  0  0
  7 14  1  0  0  0  0
  8  7  2  0  0  0  0
  9 18  1  0  0  0  0
  9 10  1  0  0  0  0
 11  2  1  0  0  0  0
 12 16  1  0  0  0  0
 12  5  2  0  0  0  0
 13 14  1  0  0  0  0
 13  3  2  0  0  0  0
 15  9  2  0  0  0  0
 16  4  2  0  0  0  0
 17 11  2  0  0  0  0
 17 15  1  0  0  0  0
 18  6  2  0  0  0  0
 19 21  1  0  0  0  0
 20 17  1  0  0  0  0
 21 20  2  0  0  0  0
 22 19  1  0  0  0  0
 23 20  1  0  0  0  0
 24 19  2  0  0  0  0
 24 25  1  0  0  0  0
 25 23  2  0  0  0  0
M  END
>  <MODEL>
1

>  <REMARK>
 VINA RESULT:     -10.9      0.000      0.000
  Name = 
  1 active torsions:
  status: ('A' for Active; 'I' for Inactive)
    1  A    between atoms: C_6  and  C_23
                            x       y       z     vdW  Elec       q    Type
                         _______ _______ _______ _____ _____    ______ ____

>  <TORSDO>
F 1

$$$$
=
 OpenBabel10262419523D

 25 29  0  0  0  0  0  0  0  0999 V2000
  188.9830  177.6450  143.8940 C   0  0  0  0  0  0  0  0  0  0  0  0
  188.0030  177.9340  142.9260 C   0  0  0  0  0  0  0  0  0  0  0  0
  190.6820  177.5800  142.1630 C   0  0  0  0  0  3  0  0  0  0  0  0
  188.8300  177.4920  145.2860 C   0  0  0  0  0  0  0  0  0  0  0  0
  188.9260  177.1220  148.0550 C   0  0  0  0  0  3  0  0  0  0  0  0
  189.7260  177.8600  141.2340 N   0  0  0  0  0  0  0  0  0  0  0  0
  190.0330  177.2070  145.9300 C   0  0  0  0  0  0  0  0  0  0  0  0
  190.1090  177.0180  147.3070 C   0  0  0  0  0  3  0  0  0  0  0  0
  187.4650  178.3240  140.5800 C   0  0  0  0  0  0  0  0  0  0  0  0
  187.8470  178.4300  139.2480 O   0  0  0  0  0  1  0  0  0  0  0  0
  186.6540  178.1190  143.2540 C   0  0  0  0  0  3  0  0  0  0  0  0
  187.7040  177.4090  147.4200 C   0  0  0  0  0  3  0  0  0  0  0  0
  190.3050  177.4730  143.4960 C   0  0  0  0  0  0  0  0  0  0  0  0
  191.2960  177.1360  144.8170 S   0  0  0  0  0  0  0  0  0  0  0  0
  186.1240  178.5060  140.9270 C   0  0  0  0  0  3  0  0  0  0  0  0
  187.6500  177.5960  146.0300 C   0  0  0  0  0  3  0  0  0  0  0  0
  185.7030  178.4060  142.2630 C   0  0  0  0  0  0  0  0  0  0  0  0
  188.4130  178.0380  141.5720 C   0  0  0  0  0  0  0  0  0  0  0  0
  181.9430  178.8100  141.9650 C   0  0  0  0  0  0  0  0  0  0  0  0
  184.2780  178.6000  142.6220 C   0  0  0  0  0  0  0  0  0  0  0  0
  183.2870  178.6270  141.6260 C   0  0  0  0  0  3  0  0  0  0  0  0
  180.9500  178.8340  140.9470 N   0  0  0  0  0  1  0  0  0  0  0  0
  183.8940  178.7620  143.9640 C   0  0  0  0  0  3  0  0  0  0  0  0
  181.5750  178.9690  143.3030 C   0  0  0  0  0  3  0  0  0  0  0  0
  182.5510  178.9450  144.3030 C   0  0  0  0  0  3  0  0  0  0  0  0
  1  4  1  0  0  0  0
  2 11  1  0  0  0  0
  2  1  1  0  0  0  0
  3 13  1  0  0  0  0
  4  7  2  0  0  0  0
  4 16  1  0  0  0  0
  6 18  1  0  0  0  0
  6  3  2  0  0  0  0
  7  8  1  0  0  0  0
  8  5  2  0  0  0  0
  9 15  2  0  0  0  0
  9 18  1  0  0  0  0
 10  9  1  0  0  0  0
 12  5  1  0  0  0  0
 13  1  2  0  0  0  0
 13 14  1  0  0  0  0
 14  7  1  0  0  0  0
 15 17  1  0  0  0  0
 16 12  2  0  0  0  0
 17 20  1  0  0  0  0
 17 11  2  0  0  0  0
 18  2  2  0  0  0  0
 19 24  1  0  0  0  0
 20 23  2  0  0  0  0
 21 19  2  0  0  0  0
 21 20  1  0  0  0  0
 22 19  1  0  0  0  0
 23 25  1  0  0  0  0
 24 25  2  0  0  0  0
M  END
>  <MODEL>
2

>  <REMARK>
 VINA RESULT:     -10.7      2.840      6.076
  Name = 
  1 active torsions:
  status: ('A' for Active; 'I' for Inactive)
    1  A    between atoms: C_6  and  C_23
                            x       y       z     vdW  Elec       q    Type
                         _______ _______ _______ _____ _____    ______ ____

>  <TORSDO>
F 1

$$$$
=
 OpenBabel10262419523D

 25 29  0  0  0  0  0  0  0  0999 V2000
  189.2400  177.4730  143.5380 C   0  0  0  0  0  0  0  0  0  0  0  0
  188.0680  177.6980  144.2840 C   0  0  0  0  0  0  0  0  0  0  0  0
  190.5030  177.2010  145.5920 C   0  0  0  0  0  3  0  0  0  0  0  0
  189.4060  177.4560  142.1400 C   0  0  0  0  0  0  0  0  0  0  0  0
  190.1250  177.3410  139.4410 C   0  0  0  0  0  3  0  0  0  0  0  0
  189.3620  177.4190  146.3060 N   0  0  0  0  0  0  0  0  0  0  0  0
  190.7220  177.1990  141.7580 C   0  0  0  0  0  0  0  0  0  0  0  0
  191.1060  177.1360  140.4220 C   0  0  0  0  0  3  0  0  0  0  0  0
  187.0150  177.8840  146.4750 C   0  0  0  0  0  0  0  0  0  0  0  0
  187.0850  177.8550  147.8630 O   0  0  0  0  0  1  0  0  0  0  0  0
  186.8290  177.9500  143.6810 C   0  0  0  0  0  3  0  0  0  0  0  0
  188.7930  177.6020  139.8090 C   0  0  0  0  0  3  0  0  0  0  0  0
  190.4360  177.2280  144.2050 C   0  0  0  0  0  0  0  0  0  0  0  0
  191.7000  176.9900  143.1140 S   0  0  0  0  0  0  0  0  0  0  0  0
  185.7880  178.1340  145.8550 C   0  0  0  0  0  3  0  0  0  0  0  0
  188.4260  177.6610  141.1630 C   0  0  0  0  0  3  0  0  0  0  0  0
  185.6810  178.1700  144.4550 C   0  0  0  0  0  0  0  0  0  0  0  0
  188.1610  177.6640  145.7000 C   0  0  0  0  0  0  0  0  0  0  0  0
  183.0140  178.6230  141.7950 C   0  0  0  0  0  0  0  0  0  0  0  0
  184.3750  178.4360  143.8060 C   0  0  0  0  0  0  0  0  0  0  0  0
  184.2450  178.3720  142.4080 C   0  0  0  0  0  3  0  0  0  0  0  0
  182.8970  178.5540  140.3790 N   0  0  0  0  0  1  0  0  0  0  0  0
  183.2450  178.7590  144.5760 C   0  0  0  0  0  3  0  0  0  0  0  0
  181.8990  178.9420  142.5730 C   0  0  0  0  0  3  0  0  0  0  0  0
  182.0140  179.0100  143.9640 C   0  0  0  0  0  3  0  0  0  0  0  0
  1 13  1  0  0  0  0
  1  2  2  0  0  0  0
  2 18  1  0  0  0  0
  3  6  1  0  0  0  0
  4  1  1  0  0  0  0
  5 12  2  0  0  0  0
  5  8  1  0  0  0  0
  7  4  1  0  0  0  0
  7 14  1  0  0  0  0
  8  7  2  0  0  0  0
  9 10  1  0  0  0  0
 11  2  1  0  0  0  0
 11 17  2  0  0  0  0
 12 16  1  0  0  0  0
 13  3  2  0  0  0  0
 14 13  1  0  0  0  0
 15  9  2  0  0  0  0
 16  4  2  0  0  0  0
 17 15  1  0  0  0  0
 18  6  2  0  0  0  0
 18  9  1  0  0  0  0
 19 21  2  0  0  0  0
 19 24  1  0  0  0  0
 20 17  1  0  0  0  0
 20 23  2  0  0  0  0
 21 20  1  0  0  0  0
 22 19  1  0  0  0  0
 24 25  2  0  0  0  0
 25 23  1  0  0  0  0
M  END
>  <MODEL>
3

>  <REMARK>
 VINA RESULT:     -10.6      2.333      5.911
  Name = 
  1 active torsions:
  status: ('A' for Active; 'I' for Inactive)
    1  A    between atoms: C_6  and  C_23
                            x       y       z     vdW  Elec       q    Type
                         _______ _______ _______ _____ _____    ______ ____

>  <TORSDO>
F 1

$$$$
=
 OpenBabel10262419523D

 25 29  0  0  0  0  0  0  0  0999 V2000
  186.0350  178.4060  141.9070 C   0  0  0  0  0  0  0  0  0  0  0  0
  187.3970  178.0970  142.0840 C   0  0  0  0  0  0  0  0  0  0  0  0
  186.3750  178.5590  139.5090 C   0  0  0  0  0  3  0  0  0  0  0  0
  185.0260  178.5320  142.8810 C   0  0  0  0  0  0  0  0  0  0  0  0
  182.7740  178.8630  144.5040 C   0  0  0  0  0  3  0  0  0  0  0  0
  187.6920  178.2580  139.6910 N   0  0  0  0  0  0  0  0  0  0  0  0
  183.7850  178.8500  142.3300 C   0  0  0  0  0  0  0  0  0  0  0  0
  182.6480  179.0210  143.1150 C   0  0  0  0  0  3  0  0  0  0  0  0
  189.5820  177.7240  141.0680 C   0  0  0  0  0  0  0  0  0  0  0  0
  190.4060  177.6520  139.9500 O   0  0  0  0  0  1  0  0  0  0  0  0
  187.9570  177.8590  143.3460 C   0  0  0  0  0  3  0  0  0  0  0  0
  184.0180  178.5420  145.0750 C   0  0  0  0  0  3  0  0  0  0  0  0
  185.5480  178.6310  140.6230 C   0  0  0  0  0  0  0  0  0  0  0  0
  183.9000  178.9830  140.6540 S   0  0  0  0  0  0  0  0  0  0  0  0
  190.1210  177.4890  142.3350 C   0  0  0  0  0  3  0  0  0  0  0  0
  185.1530  178.3750  144.2650 C   0  0  0  0  0  3  0  0  0  0  0  0
  189.3180  177.5530  143.4850 C   0  0  0  0  0  0  0  0  0  0  0  0
  188.2210  178.0290  140.9300 C   0  0  0  0  0  0  0  0  0  0  0  0
  189.7490  177.4360  147.2530 C   0  0  0  0  0  0  0  0  0  0  0  0
  189.8990  177.3030  144.8260 C   0  0  0  0  0  0  0  0  0  0  0  0
  189.2010  177.6720  145.9880 C   0  0  0  0  0  3  0  0  0  0  0  0
  189.0310  177.8140  148.4210 N   0  0  0  0  0  1  0  0  0  0  0  0
  191.1590  176.6930  144.9580 C   0  0  0  0  0  3  0  0  0  0  0  0
  191.0010  176.8280  147.3690 C   0  0  0  0  0  3  0  0  0  0  0  0
  191.7060  176.4570  146.2210 C   0  0  0  0  0  3  0  0  0  0  0  0
  1  2  1  0  0  0  0
  1  4  1  0  0  0  0
  2 11  1  0  0  0  0
  3  6  2  0  0  0  0
  3 13  1  0  0  0  0
  4 16  1  0  0  0  0
  5 12  1  0  0  0  0
  6 18  1  0  0  0  0
  7  4  2  0  0  0  0
  7  8  1  0  0  0  0
  8  5  2  0  0  0  0
  9 15  2  0  0  0  0
 10  9  1  0  0  0  0
 11 17  2  0  0  0  0
 13 14  1  0  0  0  0
 13  1  2  0  0  0  0
 14  7  1  0  0  0  0
 15 17  1  0  0  0  0
 16 12  2  0  0  0  0
 17 20  1  0  0  0  0
 18  9  1  0  0  0  0
 18  2  2  0  0  0  0
 19 24  1  0  0  0  0
 19 22  1  0  0  0  0
 20 23  2  0  0  0  0
 20 21  1  0  0  0  0
 21 19  2  0  0  0  0
 23 25  1  0  0  0  0
 25 24  2  0  0  0  0
M  END
>  <MODEL>
4

>  <REMARK>
 VINA RESULT:     -10.6      2.246      5.303
  Name = 
  1 active torsions:
  status: ('A' for Active; 'I' for Inactive)
    1  A    between atoms: C_6  and  C_23
                            x       y       z     vdW  Elec       q    Type
                         _______ _______ _______ _____ _____    ______ ____

>  <TORSDO>
F 1

$$$$
=
 OpenBabel10262419523D

 25 29  0  0  0  0  0  0  0  0999 V2000
  187.3460  177.9670  145.6690 C   0  0  0  0  0  0  0  0  0  0  0  0
  186.4830  178.2720  144.6000 C   0  0  0  0  0  0  0  0  0  0  0  0
  185.5770  178.4760  147.2510 C   0  0  0  0  0  3  0  0  0  0  0  0
  188.6890  177.5460  145.6260 C   0  0  0  0  0  0  0  0  0  0  0  0
  191.3350  176.7020  145.9450 C   0  0  0  0  0  3  0  0  0  0  0  0
  184.7490  178.7680  146.2080 N   0  0  0  0  0  0  0  0  0  0  0  0
  189.2280  177.3380  146.8950 C   0  0  0  0  0  0  0  0  0  0  0  0
  190.5420  176.9180  147.0820 C   0  0  0  0  0  3  0  0  0  0  0  0
  184.2710  178.9910  143.8680 C   0  0  0  0  0  0  0  0  0  0  0  0
  182.9700  179.3930  144.1480 O   0  0  0  0  0  1  0  0  0  0  0  0
  186.8850  178.1870  143.2610 C   0  0  0  0  0  3  0  0  0  0  0  0
  190.8070  176.9080  144.6580 C   0  0  0  0  0  3  0  0  0  0  0  0
  186.8780  178.0750  146.9750 C   0  0  0  0  0  0  0  0  0  0  0  0
  188.0790  177.6630  148.0840 S   0  0  0  0  0  0  0  0  0  0  0  0
  184.6910  178.8990  142.5390 C   0  0  0  0  0  3  0  0  0  0  0  0
  189.4790  177.3320  144.4920 C   0  0  0  0  0  3  0  0  0  0  0  0
  185.9980  178.4980  142.2200 C   0  0  0  0  0  0  0  0  0  0  0  0
  185.1580  178.6800  144.9070 C   0  0  0  0  0  0  0  0  0  0  0  0
  188.2100  178.1980  139.1520 C   0  0  0  0  0  0  0  0  0  0  0  0
  186.4350  178.4040  140.8070 C   0  0  0  0  0  0  0  0  0  0  0  0
  187.7980  178.2870  140.4850 C   0  0  0  0  0  3  0  0  0  0  0  0
  189.5930  178.0800  138.8420 N   0  0  0  0  0  1  0  0  0  0  0  0
  185.4930  178.4300  139.7630 C   0  0  0  0  0  3  0  0  0  0  0  0
  187.2630  178.2260  138.1260 C   0  0  0  0  0  3  0  0  0  0  0  0
  185.9050  178.3410  138.4310 C   0  0  0  0  0  3  0  0  0  0  0  0
  1 13  2  0  0  0  0
  2 18  1  0  0  0  0
  2  1  1  0  0  0  0
  4  1  1  0  0  0  0
  4  7  1  0  0  0  0
  5  8  1  0  0  0  0
  6  3  2  0  0  0  0
  7  8  2  0  0  0  0
  7 14  1  0  0  0  0
  9 10  1  0  0  0  0
  9 18  2  0  0  0  0
 11  2  2  0  0  0  0
 12  5  2  0  0  0  0
 13  3  1  0  0  0  0
 13 14  1  0  0  0  0
 15  9  1  0  0  0  0
 16 12  1  0  0  0  0
 16  4  2  0  0  0  0
 17 15  2  0  0  0  0
 17 11  1  0  0  0  0
 18  6  1  0  0  0  0
 19 21  1  0  0  0  0
 20 17  1  0  0  0  0
 21 20  2  0  0  0  0
 22 19  1  0  0  0  0
 23 20  1  0  0  0  0
 24 25  1  0  0  0  0
 24 19  2  0  0  0  0
 25 23  2  0  0  0  0
M  END
>  <MODEL>
5

>  <REMARK>
 VINA RESULT:     -10.5      2.601      4.775
  Name = 
  1 active torsions:
  status: ('A' for Active; 'I' for Inactive)
    1  A    between atoms: C_6  and  C_23
                            x       y       z     vdW  Elec       q    Type
                         _______ _______ _______ _____ _____    ______ ____

>  <TORSDO>
F 1

$$$$
=
 OpenBabel10262419523D

 25 29  0  0  0  0  0  0  0  0999 V2000
  188.5940  177.6110  144.7290 C   0  0  0  0  0  0  0  0  0  0  0  0
  187.2210  177.9190  144.7490 C   0  0  0  0  0  0  0  0  0  0  0  0
  188.6190  177.5390  147.1550 C   0  0  0  0  0  3  0  0  0  0  0  0
  189.4460  177.4510  143.6200 C   0  0  0  0  0  0  0  0  0  0  0  0
  191.4290  177.0580  141.6890 C   0  0  0  0  0  3  0  0  0  0  0  0
  187.2890  177.8370  147.1630 N   0  0  0  0  0  0  0  0  0  0  0  0
  190.7560  177.1470  143.9880 C   0  0  0  0  0  0  0  0  0  0  0  0
  191.7620  176.9470  143.0470 C   0  0  0  0  0  3  0  0  0  0  0  0
  185.2130  178.3340  146.0690 C   0  0  0  0  0  0  0  0  0  0  0  0
  184.5660  178.4450  147.2950 O   0  0  0  0  0  1  0  0  0  0  0  0
  186.4780  178.1180  143.5790 C   0  0  0  0  0  3  0  0  0  0  0  0
  190.1120  177.3650  141.3010 C   0  0  0  0  0  3  0  0  0  0  0  0
  189.2690  177.4270  145.9330 C   0  0  0  0  0  0  0  0  0  0  0  0
  190.8950  177.0690  145.6660 S   0  0  0  0  0  0  0  0  0  0  0  0
  184.4890  178.5280  144.8900 C   0  0  0  0  0  3  0  0  0  0  0  0
  189.1120  177.5630  142.2660 C   0  0  0  0  0  3  0  0  0  0  0  0
  185.1100  178.4230  143.6350 C   0  0  0  0  0  0  0  0  0  0  0  0
  186.5790  178.0280  146.0110 C   0  0  0  0  0  0  0  0  0  0  0  0
  184.2560  179.0910  140.0000 C   0  0  0  0  0  0  0  0  0  0  0  0
  184.3340  178.6320  142.3900 C   0  0  0  0  0  0  0  0  0  0  0  0
  184.9880  178.8950  141.1750 C   0  0  0  0  0  3  0  0  0  0  0  0
  184.9320  179.3570  138.7770 N   0  0  0  0  0  1  0  0  0  0  0  0
  182.9290  178.5710  142.4030 C   0  0  0  0  0  3  0  0  0  0  0  0
  182.8620  179.0280  140.0270 C   0  0  0  0  0  3  0  0  0  0  0  0
  182.1980  178.7670  141.2280 C   0  0  0  0  0  3  0  0  0  0  0  0
  1  2  2  0  0  0  0
  1 13  1  0  0  0  0
  2 18  1  0  0  0  0
  3  6  1  0  0  0  0
  4  7  1  0  0  0  0
  4  1  1  0  0  0  0
  5  8  1  0  0  0  0
  7 14  1  0  0  0  0
  8  7  2  0  0  0  0
  9 10  1  0  0  0  0
 11 17  2  0  0  0  0
 11  2  1  0  0  0  0
 12  5  2  0  0  0  0
 12 16  1  0  0  0  0
 13  3  2  0  0  0  0
 14 13  1  0  0  0  0
 15  9  2  0  0  0  0
 16  4  2  0  0  0  0
 17 15  1  0  0  0  0
 18  9  1  0  0  0  0
 18  6  2  0  0  0  0
 19 24  2  0  0  0  0
 19 21  1  0  0  0  0
 20 23  1  0  0  0  0
 20 17  1  0  0  0  0
 21 20  2  0  0  0  0
 22 19  1  0  0  0  0
 24 25  1  0  0  0  0
 25 23  2  0  0  0  0
M  END
>  <MODEL>
6

>  <REMARK>
 VINA RESULT:     -10.5      2.414      5.554
  Name = 
  1 active torsions:
  status: ('A' for Active; 'I' for Inactive)
    1  A    between atoms: C_6  and  C_23
                            x       y       z     vdW  Elec       q    Type
                         _______ _______ _______ _____ _____    ______ ____

>  <TORSDO>
F 1

$$$$
=
 OpenBabel10262419523D

 25 29  0  0  0  0  0  0  0  0999 V2000
  185.0800  178.5440  141.5310 C   0  0  0  0  0  0  0  0  0  0  0  0
  186.4270  178.2870  141.8470 C   0  0  0  0  0  0  0  0  0  0  0  0
  185.6520  178.6820  139.1760 C   0  0  0  0  0  3  0  0  0  0  0  0
  183.9740  178.6440  142.3970 C   0  0  0  0  0  0  0  0  0  0  0  0
  181.5610  178.9100  143.7830 C   0  0  0  0  0  3  0  0  0  0  0  0
  186.9540  178.4330  139.4930 N   0  0  0  0  0  0  0  0  0  0  0  0
  182.7840  178.9100  141.7210 C   0  0  0  0  0  0  0  0  0  0  0  0
  181.5690  179.0480  142.3870 C   0  0  0  0  0  3  0  0  0  0  0  0
  188.7140  177.9820  141.0590 C   0  0  0  0  0  0  0  0  0  0  0  0
  189.6470  177.9280  140.0300 O   0  0  0  0  0  1  0  0  0  0  0  0
  186.8660  178.0830  143.1610 C   0  0  0  0  0  3  0  0  0  0  0  0
  182.7530  178.6410  144.4800 C   0  0  0  0  0  3  0  0  0  0  0  0
  184.7160  178.7370  140.2010 C   0  0  0  0  0  0  0  0  0  0  0  0
  183.0610  179.0290  140.0630 S   0  0  0  0  0  0  0  0  0  0  0  0
  189.1320  177.7810  142.3760 C   0  0  0  0  0  3  0  0  0  0  0  0
  183.9680  178.5060  143.7890 C   0  0  0  0  0  3  0  0  0  0  0  0
  188.2170  177.8290  143.4400 C   0  0  0  0  0  0  0  0  0  0  0  0
  187.3640  178.2360  140.7820 C   0  0  0  0  0  0  0  0  0  0  0  0
  190.4360  177.0960  146.4280 C   0  0  0  0  0  0  0  0  0  0  0  0
  188.6690  177.6140  144.8350 C   0  0  0  0  0  0  0  0  0  0  0  0
  190.0100  177.2980  145.1120 C   0  0  0  0  0  3  0  0  0  0  0  0
  191.7960  176.7770  146.6940 N   0  0  0  0  0  1  0  0  0  0  0  0
  187.7640  177.7220  145.9050 C   0  0  0  0  0  3  0  0  0  0  0  0
  189.5260  177.2070  147.4820 C   0  0  0  0  0  3  0  0  0  0  0  0
  188.1900  177.5200  147.2200 C   0  0  0  0  0  3  0  0  0  0  0  0
  1  2  1  0  0  0  0
  1  4  1  0  0  0  0
  2 11  1  0  0  0  0
  3  6  2  0  0  0  0
  3 13  1  0  0  0  0
  4 16  1  0  0  0  0
  5 12  1  0  0  0  0
  6 18  1  0  0  0  0
  7  8  1  0  0  0  0
  7  4  2  0  0  0  0
  8  5  2  0  0  0  0
  9 15  2  0  0  0  0
 10  9  1  0  0  0  0
 11 17  2  0  0  0  0
 13  1  2  0  0  0  0
 14 13  1  0  0  0  0
 14  7  1  0  0  0  0
 15 17  1  0  0  0  0
 16 12  2  0  0  0  0
 17 20  1  0  0  0  0
 18  9  1  0  0  0  0
 18  2  2  0  0  0  0
 19 22  1  0  0  0  0
 19 24  1  0  0  0  0
 20 21  1  0  0  0  0
 20 23  2  0  0  0  0
 21 19  2  0  0  0  0
 23 25  1  0  0  0  0
 25 24  2  0  0  0  0
M  END
>  <MODEL>
7

>  <REMARK>
 VINA RESULT:     -10.4      2.466      5.621
  Name = 
  1 active torsions:
  status: ('A' for Active; 'I' for Inactive)
    1  A    between atoms: C_6  and  C_23
                            x       y       z     vdW  Elec       q    Type
                         _______ _______ _______ _____ _____    ______ ____

>  <TORSDO>
F 1

$$$$
=
 OpenBabel10262419523D

 25 29  0  0  0  0  0  0  0  0999 V2000
  187.9970  177.6260  145.4550 C   0  0  0  0  0  0  0  0  0  0  0  0
  187.3890  177.9040  144.2170 C   0  0  0  0  0  0  0  0  0  0  0  0
  185.9260  178.1670  146.6000 C   0  0  0  0  0  3  0  0  0  0  0  0
  189.3160  177.2070  145.7170 C   0  0  0  0  0  0  0  0  0  0  0  0
  191.8260  176.3780  146.6250 C   0  0  0  0  0  3  0  0  0  0  0  0
  185.3470  178.4330  145.3960 N   0  0  0  0  0  0  0  0  0  0  0  0
  189.5640  177.0300  147.0770 C   0  0  0  0  0  0  0  0  0  0  0  0
  190.8040  176.6180  147.5560 C   0  0  0  0  0  3  0  0  0  0  0  0
  185.3920  178.6010  143.0030 C   0  0  0  0  0  0  0  0  0  0  0  0
  184.0620  179.0050  142.9830 O   0  0  0  0  0  1  0  0  0  0  0  0
  188.0730  177.7880  143.0000 C   0  0  0  0  0  3  0  0  0  0  0  0
  191.5920  176.5530  145.2490 C   0  0  0  0  0  3  0  0  0  0  0  0
  187.2550  177.7630  146.6250 C   0  0  0  0  0  0  0  0  0  0  0  0
  188.1840  177.3800  147.9790 S   0  0  0  0  0  0  0  0  0  0  0  0
  186.0920  178.4790  141.8000 C   0  0  0  0  0  3  0  0  0  0  0  0
  190.3330  176.9690  144.7870 C   0  0  0  0  0  3  0  0  0  0  0  0
  187.4360  178.0730  141.7840 C   0  0  0  0  0  0  0  0  0  0  0  0
  186.0300  178.3150  144.2180 C   0  0  0  0  0  0  0  0  0  0  0  0
  190.1870  177.3580  139.2720 C   0  0  0  0  0  0  0  0  0  0  0  0
  188.1700  177.9470  140.5030 C   0  0  0  0  0  0  0  0  0  0  0  0
  189.4940  177.4770  140.4800 C   0  0  0  0  0  3  0  0  0  0  0  0
  191.5270  176.8800  139.2640 N   0  0  0  0  0  1  0  0  0  0  0  0
  187.5560  178.2970  139.2880 C   0  0  0  0  0  3  0  0  0  0  0  0
  189.5640  177.7090  138.0720 C   0  0  0  0  0  3  0  0  0  0  0  0
  188.2490  178.1780  138.0800 C   0  0  0  0  0  3  0  0  0  0  0  0
  1  4  1  0  0  0  0
  1 13  2  0  0  0  0
  2 18  1  0  0  0  0
  2  1  1  0  0  0  0
  3 13  1  0  0  0  0
  4  7  1  0  0  0  0
  5  8  1  0  0  0  0
  6  3  2  0  0  0  0
  7  8  2  0  0  0  0
  7 14  1  0  0  0  0
  9 18  2  0  0  0  0
 10  9  1  0  0  0  0
 11  2  2  0  0  0  0
 12  5  2  0  0  0  0
 13 14  1  0  0  0  0
 15  9  1  0  0  0  0
 16 12  1  0  0  0  0
 16  4  2  0  0  0  0
 17 15  2  0  0  0  0
 17 11  1  0  0  0  0
 18  6  1  0  0  0  0
 19 21  1  0  0  0  0
 20 17  1  0  0  0  0
 21 20  2  0  0  0  0
 22 19  1  0  0  0  0
 23 20  1  0  0  0  0
 24 25  1  0  0  0  0
 24 19  2  0  0  0  0
 25 23  2  0  0  0  0
M  END
>  <MODEL>
8

>  <REMARK>
 VINA RESULT:     -10.4      2.418      4.573
  Name = 
  1 active torsions:
  status: ('A' for Active; 'I' for Inactive)
    1  A    between atoms: C_6  and  C_23
                            x       y       z     vdW  Elec       q    Type
                         _______ _______ _______ _____ _____    ______ ____

>  <TORSDO>
F 1

$$$$
=
 OpenBabel10262419523D

 25 29  0  0  0  0  0  0  0  0999 V2000
  187.9210  177.6240  145.1220 C   0  0  0  0  0  0  0  0  0  0  0  0
  186.6560  177.9710  144.6120 C   0  0  0  0  0  0  0  0  0  0  0  0
  187.1380  178.0580  147.3780 C   0  0  0  0  0  3  0  0  0  0  0  0
  189.0700  177.2100  144.4220 C   0  0  0  0  0  0  0  0  0  0  0  0
  191.5290  176.3620  143.3960 C   0  0  0  0  0  3  0  0  0  0  0  0
  185.9170  178.3920  146.8740 N   0  0  0  0  0  0  0  0  0  0  0  0
  190.1490  176.9490  145.2670 C   0  0  0  0  0  0  0  0  0  0  0  0
  191.3830  176.5260  144.7820 C   0  0  0  0  0  3  0  0  0  0  0  0
  184.3780  178.7140  145.0630 C   0  0  0  0  0  0  0  0  0  0  0  0
  183.3780  179.0980  145.9490 O   0  0  0  0  0  1  0  0  0  0  0  0
  186.3630  177.9450  143.2430 C   0  0  0  0  0  3  0  0  0  0  0  0
  190.4510  176.6210  142.5310 C   0  0  0  0  0  3  0  0  0  0  0  0
  188.1400  177.6730  146.4960 C   0  0  0  0  0  0  0  0  0  0  0  0
  189.7190  177.2190  146.8730 S   0  0  0  0  0  0  0  0  0  0  0  0
  184.1050  178.6800  143.6930 C   0  0  0  0  0  3  0  0  0  0  0  0
  189.2140  177.0470  143.0400 C   0  0  0  0  0  3  0  0  0  0  0  0
  185.0910  178.2980  142.7700 C   0  0  0  0  0  0  0  0  0  0  0  0
  185.6490  178.3610  145.5340 C   0  0  0  0  0  0  0  0  0  0  0  0
  183.2580  177.8060  139.4850 C   0  0  0  0  0  0  0  0  0  0  0  0
  184.7930  178.2660  141.3180 C   0  0  0  0  0  0  0  0  0  0  0  0
  183.5390  177.8360  140.8540 C   0  0  0  0  0  3  0  0  0  0  0  0
  181.9840  177.3690  139.0290 N   0  0  0  0  0  1  0  0  0  0  0  0
  185.7620  178.6640  140.3800 C   0  0  0  0  0  3  0  0  0  0  0  0
  184.2290  178.2040  138.5640 C   0  0  0  0  0  3  0  0  0  0  0  0
  185.4810  178.6340  139.0120 C   0  0  0  0  0  3  0  0  0  0  0  0
  1 13  1  0  0  0  0
  2  1  2  0  0  0  0
  2 18  1  0  0  0  0
  4  1  1  0  0  0  0
  4  7  1  0  0  0  0
  5  8  1  0  0  0  0
  6  3  1  0  0  0  0
  7 14  1  0  0  0  0
  8  7  2  0  0  0  0
  9 18  1  0  0  0  0
  9 10  1  0  0  0  0
 11  2  1  0  0  0  0
 12 16  1  0  0  0  0
 12  5  2  0  0  0  0
 13 14  1  0  0  0  0
 13  3  2  0  0  0  0
 15  9  2  0  0  0  0
 16  4  2  0  0  0  0
 17 11  2  0  0  0  0
 17 15  1  0  0  0  0
 18  6  2  0  0  0  0
 19 21  1  0  0  0  0
 20 17  1  0  0  0  0
 21 20  2  0  0  0  0
 22 19  1  0  0  0  0
 23 20  1  0  0  0  0
 24 25  1  0  0  0  0
 24 19  2  0  0  0  0
 25 23  2  0  0  0  0
M  END
>  <MODEL>
9

>  <REMARK>
 VINA RESULT:     -10.2      2.948      5.310
  Name = 
  1 active torsions:
  status: ('A' for Active; 'I' for Inactive)
    1  A    between atoms: C_6  and  C_23
                            x       y       z     vdW  Elec       q    Type
                         _______ _______ _______ _____ _____    ______ ____

>  <TORSDO>
F 1

$$$$
