=
 OpenBabel10262420343D

 55 60  0  0  1  0  0  0  0  0999 V2000
  186.5910  178.4030  135.8080 C   0  0  0  0  0  3  0  0  0  0  0  0
  188.2210  176.7820  137.4030 C   0  0  0  0  0  0  0  0  0  0  0  0
  186.9950  177.2420  137.8940 C   0  0  0  0  0  3  0  0  0  0  0  0
  187.8210  177.9510  135.3180 C   0  0  0  0  0  3  0  0  0  0  0  0
  186.1790  178.0470  137.0960 C   0  0  0  0  0  0  0  0  0  0  0  0
  188.6370  177.1450  136.1170 C   0  0  0  0  0  3  0  0  0  0  0  0
  184.9260  178.5230  137.6060 C   0  0  0  0  0  0  0  0  0  0  0  0
  183.8690  178.9280  138.0210 C   0  0  0  0  0  0  0  0  0  0  0  0
  180.9880  176.4880  140.6040 C   0  0  0  0  0  2  0  0  0  0  0  0
  178.9320  175.1960  140.5790 O   0  0  0  0  0  0  0  0  0  0  0  0
  180.4810  177.4170  138.4860 C   0  0  0  0  0  0  0  0  0  0  0  0
  179.4260  176.5840  138.7880 O   0  0  0  0  0  0  0  0  0  0  0  0
  179.7040  176.0130  140.0140 C   0  0  0  0  0  0  0  0  0  0  0  0
  181.6170  177.2680  139.4400 C   0  0  1  0  0  3  0  0  0  0  0  0
  181.5540  179.3550  137.3750 C   0  0  2  0  0  3  0  0  0  0  0  0
  180.4340  178.3540  137.5410 C   0  0  0  0  0  3  0  0  0  0  0  0
  182.1140  178.6670  139.8050 C   0  0  2  0  0  3  0  0  0  0  0  0
  182.5830  179.4200  138.5310 C   0  0  1  0  0  3  0  0  0  0  0  0
  181.2250  181.7640  137.9410 C   0  0  0  0  0  3  0  0  0  0  0  0
  180.0320  183.2740  136.4570 C   0  0  0  0  0  0  0  0  0  0  0  0
  180.3260  180.9430  135.8460 C   0  0  0  0  0  3  0  0  0  0  0  0
  179.8320  182.2180  135.5570 C   0  0  0  0  0  3  0  0  0  0  0  0
  180.7310  183.0390  137.6500 C   0  0  0  0  0  3  0  0  0  0  0  0
  181.0240  180.7120  137.0410 C   0  0  0  0  0  0  0  0  0  0  0  0
  179.5030  184.6130  136.1520 C   0  0  0  0  0  0  0  0  0  0  0  0
  179.5470  185.6200  137.1100 O   0  0  0  0  0  1  0  0  0  0  0  0
  179.0120  184.8630  135.0180 O   0  0  0  0  0  0  0  0  0  0  0  0
  183.0460  178.7290  141.0300 C   0  0  2  0  0  3  0  0  0  0  0  0
  183.9580  177.5120  141.1040 C   0  0  0  0  0  1  0  0  0  0  0  0
  181.1050  179.0430  142.4210 O   0  0  0  0  0  0  0  0  0  0  0  0
  183.1250  179.2860  143.4680 O   0  0  0  0  0  1  0  0  0  0  0  0
  182.3620  179.0230  142.3370 C   0  0  0  0  0  0  0  0  0  0  0  0
  189.1010  175.9480  138.2650 C   0  0  0  0  0  2  0  0  0  0  0  0
  190.4230  176.0450  137.8250 O   0  0  0  0  0  0  0  0  0  0  0  0
  192.3240  176.6420  139.1210 C   0  0  0  0  0  1  0  0  0  0  0  0
  190.9770  177.0820  138.5780 C   0  0  2  0  0  3  0  0  0  0  0  0
  190.0430  177.4340  139.7220 C   0  0  0  0  0  2  0  0  0  0  0  0
  190.7420  177.2240  141.0590 C   0  0  0  0  0  2  0  0  0  0  0  0
  190.3570  178.1640  145.3330 C   0  0  2  0  0  3  0  0  0  0  0  0
  189.2550  178.0910  142.9230 C   0  0  0  0  0  0  0  0  0  0  0  0
  188.6880  176.1670  141.6660 O   0  0  0  0  0  1  0  0  0  0  0  0
  192.0650  177.7620  143.5760 O   0  0  0  0  0  0  0  0  0  0  0  0
  191.6260  178.6400  144.6070 C   0  0  0  0  0  2  0  0  0  0  0  0
  189.7810  176.8530  142.2000 C   0  0  1  0  0  0  0  0  0  0  0  0
  191.7390  176.0260  145.3230 C   0  0  0  0  0  2  0  0  0  0  0  0
  190.6020  176.7980  145.9960 C   0  0  1  0  0  3  0  0  0  0  0  0
  190.5120  175.8790  143.1360 C   0  0  0  0  0  2  0  0  0  0  0  0
  188.8600  179.0380  142.2600 O   0  0  0  0  0  0  0  0  0  0  0  0
  191.7900  176.3860  143.8350 C   0  0  1  0  0  3  0  0  0  0  0  0
  189.1030  178.1980  144.4270 C   0  0  1  0  0  3  0  0  0  0  0  0
  187.8510  177.5790  144.9800 C   0  0  0  0  0  0  0  0  0  0  0  0
  186.9510  177.0060  144.1810 C   0  0  0  0  0  2  0  0  0  0  0  0
  187.5340  177.7510  146.4250 C   0  0  0  0  0  1  0  0  0  0  0  0
  190.8460  176.9420  147.4930 C   0  0  0  0  0  2  0  0  0  0  0  0
  192.1480  176.5520  147.8250 O   0  0  0  0  0  1  0  0  0  0  0  0
  1  5  1  0  0  0  0
  2  3  1  0  0  0  0
  2 33  1  0  0  0  0
  4  1  2  0  0  0  0
  4  6  1  0  0  0  0
  5  7  1  0  0  0  0
  5  3  2  0  0  0  0
  6  2  2  0  0  0  0
  7  8  3  0  0  0  0
 11 12  1  0  0  0  0
 11 14  1  0  0  0  0
 12 13  1  0  0  0  0
 13 10  2  0  0  0  0
 13  9  1  0  0  0  0
 14 17  1  0  0  0  0
 14  9  1  1  0  0  0
 15 24  1  1  0  0  0
 15 16  1  0  0  0  0
 15 18  1  0  0  0  0
 16 11  2  0  0  0  0
 17 28  1  1  0  0  0
 18  8  1  6  0  0  0
 18 17  1  0  0  0  0
 20 23  2  0  0  0  0
 21 24  1  0  0  0  0
 22 21  2  0  0  0  0
 22 20  1  0  0  0  0
 23 19  1  0  0  0  0
 24 19  2  0  0  0  0
 25 20  1  0  0  0  0
 25 26  1  0  0  0  0
 27 25  2  0  0  0  0
 28 29  1  1  0  0  0
 28 32  1  0  0  0  0
 32 30  2  0  0  0  0
 32 31  1  0  0  0  0
 34 33  1  0  0  0  0
 34 36  1  0  0  0  0
 36 35  1  1  0  0  0
 36 37  1  0  0  0  0
 37 38  1  0  0  0  0
 38 44  1  0  0  0  0
 39 43  1  6  0  0  0
 39 46  1  0  0  0  0
 40 50  1  0  0  0  0
 42 49  1  0  0  0  0
 42 43  1  0  0  0  0
 44 41  1  6  0  0  0
 44 40  1  0  0  0  0
 44 47  1  0  0  0  0
 45 46  1  0  0  0  0
 46 54  1  1  0  0  0
 48 40  2  0  0  0  0
 49 47  1  1  0  0  0
 49 45  1  0  0  0  0
 50 51  1  1  0  0  0
 50 39  1  0  0  0  0
 51 53  1  0  0  0  0
 52 51  2  0  0  0  0
 54 55  1  0  0  0  0
M  END
>  <MODEL>
1

>  <REMARK>
 VINA RESULT:      -7.7      0.000      0.000
  Name = 
  14 active torsions:
  status: ('A' for Active; 'I' for Inactive)
    1  A    between atoms: C_1  and  C_53
    2  A    between atoms: C_2  and  C_44
    3  A    between atoms: C_8  and  C_22
    4  A    between atoms: C_8  and  C_43
    5  A    between atoms: C_10  and  C_32
    6  A    between atoms: C_11  and  C_38
    7  A    between atoms: C_19  and  C_40
    8  A    between atoms: C_19  and  C_45
    9  A    between atoms: C_20  and  C_22
   10  A    between atoms: C_27  and  C_54
   11  A    between atoms: C_28  and  C_49
   12  A    between atoms: C_33  and  C_52
   13  A    between atoms: C_43  and  O_51
   14  A    between atoms: O_51  and  C_54
                            x       y       z     vdW  Elec       q    Type
                         _______ _______ _______ _____ _____    ______ ____

>  <TORSDO>
F 14

$$$$
=
 OpenBabel10262420343D

 55 60  0  0  1  0  0  0  0  0999 V2000
  184.7120  178.1910  143.9140 C   0  0  0  0  0  3  0  0  0  0  0  0
  187.3470  178.2720  142.9760 C   0  0  0  0  0  0  0  0  0  0  0  0
  186.2800  178.3950  142.0800 C   0  0  0  0  0  3  0  0  0  0  0  0
  185.7780  178.0590  144.8100 C   0  0  0  0  0  3  0  0  0  0  0  0
  184.9650  178.3600  142.5490 C   0  0  0  0  0  0  0  0  0  0  0  0
  187.0940  178.0950  144.3410 C   0  0  0  0  0  3  0  0  0  0  0  0
  183.8740  178.4780  141.6260 C   0  0  0  0  0  0  0  0  0  0  0  0
  182.9540  178.5620  140.8510 C   0  0  0  0  0  0  0  0  0  0  0  0
  180.8430  175.0030  138.9040 C   0  0  0  0  0  2  0  0  0  0  0  0
  180.6580  173.6960  136.8650 O   0  0  0  0  0  0  0  0  0  0  0  0
  181.9640  176.7360  137.7430 C   0  0  0  0  0  0  0  0  0  0  0  0
  181.6880  175.7730  136.7970 O   0  0  0  0  0  0  0  0  0  0  0  0
  181.0480  174.7390  137.4500 C   0  0  0  0  0  0  0  0  0  0  0  0
  181.6830  176.2670  139.1310 C   0  0  1  0  0  3  0  0  0  0  0  0
  182.4170  179.0450  138.5190 C   0  0  2  0  0  3  0  0  0  0  0  0
  182.3010  177.9880  137.4440 C   0  0  0  0  0  3  0  0  0  0  0  0
  180.9550  177.3920  139.8690 C   0  0  2  0  0  3  0  0  0  0  0  0
  181.8360  178.6700  139.9060 C   0  0  1  0  0  3  0  0  0  0  0  0
  182.3200  181.5350  138.6710 C   0  0  0  0  0  3  0  0  0  0  0  0
  180.9070  182.8510  137.1960 C   0  0  0  0  0  0  0  0  0  0  0  0
  180.9640  180.4320  136.9930 C   0  0  0  0  0  3  0  0  0  0  0  0
  180.4760  181.6730  136.5710 C   0  0  0  0  0  3  0  0  0  0  0  0
  181.8320  182.7750  138.2480 C   0  0  0  0  0  3  0  0  0  0  0  0
  181.8880  180.3610  138.0460 C   0  0  0  0  0  0  0  0  0  0  0  0
  180.3850  184.1550  136.7530 C   0  0  0  0  0  0  0  0  0  0  0  0
  179.5670  184.9030  137.5920 O   0  0  0  0  0  1  0  0  0  0  0  0
  180.6780  184.6060  135.6130 O   0  0  0  0  0  0  0  0  0  0  0  0
  180.2830  176.9750  141.1920 C   0  0  2  0  0  3  0  0  0  0  0  0
  179.2780  175.8510  140.9800 C   0  0  0  0  0  1  0  0  0  0  0  0
  178.9450  178.9550  141.4930 O   0  0  0  0  0  0  0  0  0  0  0  0
  180.0770  178.2300  143.3460 O   0  0  0  0  0  1  0  0  0  0  0  0
  179.7240  178.1080  142.0080 C   0  0  0  0  0  0  0  0  0  0  0  0
  188.7460  178.2830  142.4720 C   0  0  0  0  0  2  0  0  0  0  0  0
  189.2690  176.9880  142.4990 O   0  0  0  0  0  0  0  0  0  0  0  0
  191.2090  177.5640  141.2520 C   0  0  0  0  0  1  0  0  0  0  0  0
  189.8840  176.8230  141.2570 C   0  0  2  0  0  3  0  0  0  0  0  0
  188.9790  177.3650  140.1650 C   0  0  0  0  0  2  0  0  0  0  0  0
  189.8110  177.9030  139.0070 C   0  0  0  0  0  2  0  0  0  0  0  0
  187.3470  175.1180  136.6680 C   0  0  2  0  0  3  0  0  0  0  0  0
  187.5990  177.4840  137.8360 C   0  0  0  0  0  0  0  0  0  0  0  0
  189.0380  179.2510  137.1930 O   0  0  0  0  0  1  0  0  0  0  0  0
  189.3350  175.1790  138.1540 O   0  0  0  0  0  0  0  0  0  0  0  0
  188.0760  174.5640  137.9030 C   0  0  0  0  0  2  0  0  0  0  0  0
  189.0480  177.9390  137.6730 C   0  0  1  0  0  0  0  0  0  0  0  0
  189.6870  174.7640  135.7300 C   0  0  0  0  0  2  0  0  0  0  0  0
  188.1980  174.9030  135.4060 C   0  0  1  0  0  3  0  0  0  0  0  0
  189.8300  177.0930  136.6570 C   0  0  0  0  0  2  0  0  0  0  0  0
  186.9440  177.9250  138.7680 O   0  0  0  0  0  0  0  0  0  0  0  0
  190.0190  175.5950  136.9730 C   0  0  1  0  0  3  0  0  0  0  0  0
  186.8760  176.5800  136.8590 C   0  0  1  0  0  3  0  0  0  0  0  0
  186.3200  177.2750  135.6480 C   0  0  0  0  0  0  0  0  0  0  0  0
  185.0700  177.0610  135.2400 C   0  0  0  0  0  2  0  0  0  0  0  0
  187.2310  178.0940  134.8000 C   0  0  0  0  0  1  0  0  0  0  0  0
  187.6990  173.7140  134.5940 C   0  0  0  0  0  2  0  0  0  0  0  0
  186.3100  173.5890  134.6960 O   0  0  0  0  0  1  0  0  0  0  0  0
  1  4  1  0  0  0  0
  2  6  1  0  0  0  0
  3  5  1  0  0  0  0
  3  2  2  0  0  0  0
  5  1  2  0  0  0  0
  6  4  2  0  0  0  0
  7  5  1  0  0  0  0
  8  7  3  0  0  0  0
 10 13  2  0  0  0  0
 11 14  1  0  0  0  0
 12 13  1  0  0  0  0
 12 11  1  0  0  0  0
 13  9  1  0  0  0  0
 14  9  1  6  0  0  0
 14 17  1  0  0  0  0
 15 24  1  6  0  0  0
 15 18  1  0  0  0  0
 16 11  2  0  0  0  0
 16 15  1  0  0  0  0
 17 18  1  0  0  0  0
 17 28  1  1  0  0  0
 18  8  1  1  0  0  0
 20 23  2  0  0  0  0
 21 24  1  0  0  0  0
 22 21  2  0  0  0  0
 22 20  1  0  0  0  0
 23 19  1  0  0  0  0
 24 19  2  0  0  0  0
 25 20  1  0  0  0  0
 25 26  1  0  0  0  0
 27 25  2  0  0  0  0
 28 29  1  6  0  0  0
 28 32  1  0  0  0  0
 30 32  2  0  0  0  0
 32 31  1  0  0  0  0
 33 34  1  0  0  0  0
 33  2  1  0  0  0  0
 36 35  1  1  0  0  0
 36 34  1  0  0  0  0
 37 36  1  0  0  0  0
 38 37  1  0  0  0  0
 39 50  1  0  0  0  0
 39 43  1  1  0  0  0
 40 48  2  0  0  0  0
 43 42  1  0  0  0  0
 44 41  1  6  0  0  0
 44 40  1  0  0  0  0
 44 38  1  0  0  0  0
 46 54  1  1  0  0  0
 46 45  1  0  0  0  0
 46 39  1  0  0  0  0
 47 49  1  0  0  0  0
 47 44  1  0  0  0  0
 49 45  1  6  0  0  0
 49 42  1  0  0  0  0
 50 51  1  6  0  0  0
 50 40  1  0  0  0  0
 52 51  2  0  0  0  0
 53 51  1  0  0  0  0
 54 55  1  0  0  0  0
M  END
>  <MODEL>
2

>  <REMARK>
 VINA RESULT:      -7.0      2.167      5.951
  Name = 
  14 active torsions:
  status: ('A' for Active; 'I' for Inactive)
    1  A    between atoms: C_1  and  C_53
    2  A    between atoms: C_2  and  C_44
    3  A    between atoms: C_8  and  C_22
    4  A    between atoms: C_8  and  C_43
    5  A    between atoms: C_10  and  C_32
    6  A    between atoms: C_11  and  C_38
    7  A    between atoms: C_19  and  C_40
    8  A    between atoms: C_19  and  C_45
    9  A    between atoms: C_20  and  C_22
   10  A    between atoms: C_27  and  C_54
   11  A    between atoms: C_28  and  C_49
   12  A    between atoms: C_33  and  C_52
   13  A    between atoms: C_43  and  O_51
   14  A    between atoms: O_51  and  C_54
                            x       y       z     vdW  Elec       q    Type
                         _______ _______ _______ _____ _____    ______ ____

>  <TORSDO>
F 14

$$$$
=
 OpenBabel10262420343D

 55 60  0  0  1  0  0  0  0  0999 V2000
  185.1150  178.1630  141.2670 C   0  0  0  0  0  3  0  0  0  0  0  0
  184.7210  178.7420  143.9760 C   0  0  0  0  0  0  0  0  0  0  0  0
  183.6750  178.9130  143.0630 C   0  0  0  0  0  3  0  0  0  0  0  0
  186.1650  178.0000  142.1770 C   0  0  0  0  0  3  0  0  0  0  0  0
  183.8700  178.6180  141.7120 C   0  0  0  0  0  0  0  0  0  0  0  0
  185.9690  178.2940  143.5300 C   0  0  0  0  0  3  0  0  0  0  0  0
  182.7980  178.8020  140.7780 C   0  0  0  0  0  0  0  0  0  0  0  0
  181.9040  178.9500  139.9830 C   0  0  0  0  0  0  0  0  0  0  0  0
  179.8140  175.5510  137.7460 C   0  0  0  0  0  2  0  0  0  0  0  0
  179.6730  174.3850  135.6200 O   0  0  0  0  0  0  0  0  0  0  0  0
  180.9830  177.3450  136.7340 C   0  0  0  0  0  0  0  0  0  0  0  0
  180.7230  176.4500  135.7180 O   0  0  0  0  0  0  0  0  0  0  0  0
  180.0560  175.3820  136.2840 C   0  0  0  0  0  0  0  0  0  0  0  0
  180.6580  176.7880  138.0790 C   0  0  1  0  0  3  0  0  0  0  0  0
  181.4350  179.5920  137.6750 C   0  0  2  0  0  3  0  0  0  0  0  0
  181.3400  178.6100  136.5290 C   0  0  0  0  0  3  0  0  0  0  0  0
  179.9220  177.8690  138.8710 C   0  0  2  0  0  3  0  0  0  0  0  0
  180.8130  179.1320  139.0170 C   0  0  1  0  0  3  0  0  0  0  0  0
  180.8420  181.2640  135.9180 C   0  0  0  0  0  3  0  0  0  0  0  0
  180.0060  183.4730  136.4870 C   0  0  0  0  0  0  0  0  0  0  0  0
  180.5570  181.8880  138.2420 C   0  0  0  0  0  3  0  0  0  0  0  0
  180.0970  183.1480  137.8470 C   0  0  0  0  0  3  0  0  0  0  0  0
  180.3810  182.5230  135.5250 C   0  0  0  0  0  3  0  0  0  0  0  0
  180.9320  180.9420  137.2760 C   0  0  0  0  0  0  0  0  0  0  0  0
  179.5270  184.8040  136.0770 C   0  0  0  0  0  0  0  0  0  0  0  0
  179.7360  185.9070  136.8970 O   0  0  0  0  0  1  0  0  0  0  0  0
  178.9310  184.9570  134.9770 O   0  0  0  0  0  0  0  0  0  0  0  0
  179.2090  177.3730  140.1450 C   0  0  2  0  0  3  0  0  0  0  0  0
  178.9340  178.5140  141.1140 C   0  0  0  0  0  1  0  0  0  0  0  0
  181.0980  176.0260  140.7930 O   0  0  0  0  0  0  0  0  0  0  0  0
  179.0500  175.2440  141.4490 O   0  0  0  0  0  1  0  0  0  0  0  0
  179.8480  176.1850  140.8110 C   0  0  0  0  0  0  0  0  0  0  0  0
  184.5190  179.0820  145.4100 C   0  0  0  0  0  2  0  0  0  0  0  0
  185.7560  179.2360  146.0380 O   0  0  0  0  0  0  0  0  0  0  0  0
  184.5850  177.7600  147.4870 C   0  0  0  0  0  1  0  0  0  0  0  0
  185.9080  178.0900  146.8210 C   0  0  2  0  0  3  0  0  0  0  0  0
  186.9750  178.3330  147.8740 C   0  0  0  0  0  2  0  0  0  0  0  0
  188.3260  178.5760  147.2110 C   0  0  0  0  0  2  0  0  0  0  0  0
  191.6710  177.4200  144.6100 C   0  0  2  0  0  3  0  0  0  0  0  0
  190.5960  177.4570  147.0320 C   0  0  0  0  0  0  0  0  0  0  0  0
  188.6770  176.2790  147.7640 O   0  0  0  0  0  1  0  0  0  0  0  0
  189.7180  178.9500  144.7020 O   0  0  0  0  0  0  0  0  0  0  0  0
  191.1190  178.8480  144.4730 C   0  0  0  0  0  2  0  0  0  0  0  0
  189.0860  177.2810  146.8810 C   0  0  1  0  0  0  0  0  0  0  0  0
  189.6240  177.0100  143.1530 C   0  0  0  0  0  2  0  0  0  0  0  0
  190.9940  176.4870  143.5930 C   0  0  1  0  0  3  0  0  0  0  0  0
  188.6740  176.8360  145.4710 C   0  0  0  0  0  2  0  0  0  0  0  0
  191.0280  178.0200  148.0270 O   0  0  0  0  0  0  0  0  0  0  0  0
  188.9830  177.7930  144.3020 C   0  0  1  0  0  3  0  0  0  0  0  0
  191.6190  176.8970  146.0650 C   0  0  1  0  0  3  0  0  0  0  0  0
  191.9600  175.4480  146.2760 C   0  0  0  0  0  0  0  0  0  0  0  0
  191.9360  174.9020  147.4920 C   0  0  0  0  0  2  0  0  0  0  0  0
  192.4860  174.6530  145.1330 C   0  0  0  0  0  1  0  0  0  0  0  0
  191.8930  176.2250  142.3920 C   0  0  0  0  0  2  0  0  0  0  0  0
  191.9950  177.3640  141.5870 O   0  0  0  0  0  1  0  0  0  0  0  0
  1  5  2  0  0  0  0
  1  4  1  0  0  0  0
  2 33  1  0  0  0  0
  3  2  2  0  0  0  0
  4  6  2  0  0  0  0
  5  3  1  0  0  0  0
  6  2  1  0  0  0  0
  7  5  1  0  0  0  0
  8  7  3  0  0  0  0
 10 13  2  0  0  0  0
 11 14  1  0  0  0  0
 12 13  1  0  0  0  0
 12 11  1  0  0  0  0
 13  9  1  0  0  0  0
 14  9  1  6  0  0  0
 14 17  1  0  0  0  0
 15 24  1  6  0  0  0
 15 18  1  0  0  0  0
 16 11  2  0  0  0  0
 16 15  1  0  0  0  0
 17 18  1  0  0  0  0
 17 28  1  1  0  0  0
 18  8  1  1  0  0  0
 19 24  1  0  0  0  0
 20 22  2  0  0  0  0
 22 21  1  0  0  0  0
 23 19  2  0  0  0  0
 23 20  1  0  0  0  0
 24 21  2  0  0  0  0
 25 20  1  0  0  0  0
 25 26  1  0  0  0  0
 27 25  2  0  0  0  0
 28 32  1  0  0  0  0
 28 29  1  1  0  0  0
 30 32  2  0  0  0  0
 32 31  1  0  0  0  0
 33 34  1  0  0  0  0
 34 36  1  0  0  0  0
 36 35  1  1  0  0  0
 36 37  1  0  0  0  0
 38 37  1  0  0  0  0
 39 43  1  1  0  0  0
 39 50  1  0  0  0  0
 40 48  2  0  0  0  0
 43 42  1  0  0  0  0
 44 40  1  0  0  0  0
 44 38  1  0  0  0  0
 44 41  1  1  0  0  0
 45 46  1  0  0  0  0
 46 54  1  6  0  0  0
 46 39  1  0  0  0  0
 47 44  1  0  0  0  0
 49 45  1  6  0  0  0
 49 42  1  0  0  0  0
 49 47  1  0  0  0  0
 50 51  1  6  0  0  0
 50 40  1  0  0  0  0
 51 52  2  0  0  0  0
 53 51  1  0  0  0  0
 55 54  1  0  0  0  0
M  END
>  <MODEL>
3

>  <REMARK>
 VINA RESULT:      -6.0      2.592      5.005
  Name = 
  14 active torsions:
  status: ('A' for Active; 'I' for Inactive)
    1  A    between atoms: C_1  and  C_53
    2  A    between atoms: C_2  and  C_44
    3  A    between atoms: C_8  and  C_22
    4  A    between atoms: C_8  and  C_43
    5  A    between atoms: C_10  and  C_32
    6  A    between atoms: C_11  and  C_38
    7  A    between atoms: C_19  and  C_40
    8  A    between atoms: C_19  and  C_45
    9  A    between atoms: C_20  and  C_22
   10  A    between atoms: C_27  and  C_54
   11  A    between atoms: C_28  and  C_49
   12  A    between atoms: C_33  and  C_52
   13  A    between atoms: C_43  and  O_51
   14  A    between atoms: O_51  and  C_54
                            x       y       z     vdW  Elec       q    Type
                         _______ _______ _______ _____ _____    ______ ____

>  <TORSDO>
F 14

$$$$
