=
 OpenBabel10262419593D

 27 31  0  0  1  0  0  0  0  0999 V2000
  187.5600  177.9260  142.2340 N   0  0  0  0  0  0  0  0  0  0  0  0
  186.7220  177.4830  144.3400 C   0  0  2  0  0  3  0  0  0  0  0  0
  189.9810  176.9030  142.8070 N   0  0  0  0  0  0  0  0  0  0  0  0
  189.6370  177.4850  147.5240 C   0  0  0  0  0  3  0  0  0  0  0  0
  191.0110  177.3150  147.5970 C   0  0  0  0  0  3  0  0  0  0  0  0
  187.6450  177.1240  146.4960 N   0  0  0  0  0  2  0  0  0  0  0  0
  191.0260  176.5580  145.3020 C   0  0  0  0  0  0  0  0  0  0  0  0
  190.1690  177.3090  139.0740 C   0  0  0  0  0  2  0  0  0  0  0  0
  191.7890  175.9870  144.2880 O   0  0  0  0  0  1  0  0  0  0  0  0
  189.3250  178.5010  139.0530 N   0  0  0  0  0  0  0  0  0  0  0  0
  189.6330  176.8780  145.1370 C   0  0  0  0  0  0  0  0  0  0  0  0
  187.7890  177.5140  143.5150 C   0  0  0  0  0  0  0  0  0  0  0  0
  191.6910  176.8110  146.5030 C   0  0  0  0  0  3  0  0  0  0  0  0
  188.9290  177.1990  146.3540 C   0  0  0  0  0  0  0  0  0  0  0  0
  188.4790  177.8390  141.2500 C   0  0  0  0  0  0  0  0  0  0  0  0
  189.1100  177.0330  143.8550 C   0  0  0  0  0  0  0  0  0  0  0  0
  190.7610  177.1180  140.4720 C   0  0  0  0  0  2  0  0  0  0  0  0
  186.7410  176.5910  145.5130 C   0  0  0  0  0  2  0  0  0  0  0  0
  188.8890  178.6820  137.6810 C   0  0  0  0  0  1  0  0  0  0  0  0
  188.1230  178.2300  139.8430 C   0  0  0  0  0  2  0  0  0  0  0  0
  189.7020  177.2440  141.5280 C   0  0  0  0  0  0  0  0  0  0  0  0
  182.9620  179.3580  143.4160 C   0  0  0  0  0  3  0  0  0  0  0  0
  185.4310  178.1560  144.0200 C   0  0  0  0  0  0  0  0  0  0  0  0
  184.9210  178.1240  142.7110 C   0  0  0  0  0  3  0  0  0  0  0  0
  183.6960  178.7250  142.4090 C   0  0  0  0  0  3  0  0  0  0  0  0
  183.4510  179.3870  144.7230 C   0  0  0  0  0  3  0  0  0  0  0  0
  184.6750  178.7840  145.0250 C   0  0  0  0  0  3  0  0  0  0  0  0
  1 12  1  0  0  0  0
  2 23  1  6  0  0  0
  2 18  1  0  0  0  0
  3 16  1  0  0  0  0
  4  5  1  0  0  0  0
  7 13  1  0  0  0  0
  8 17  1  0  0  0  0
  9  7  1  0  0  0  0
 10  8  1  0  0  0  0
 10 20  1  0  0  0  0
 11  7  2  0  0  0  0
 11 14  1  0  0  0  0
 12 16  2  0  0  0  0
 12  2  1  0  0  0  0
 13  5  2  0  0  0  0
 14  6  1  0  0  0  0
 14  4  2  0  0  0  0
 15 21  1  0  0  0  0
 15  1  2  0  0  0  0
 16 11  1  0  0  0  0
 17 21  1  0  0  0  0
 18  6  1  0  0  0  0
 19 10  1  0  0  0  0
 20 15  1  0  0  0  0
 21  3  2  0  0  0  0
 22 26  1  0  0  0  0
 23 27  1  0  0  0  0
 24 23  2  0  0  0  0
 25 24  1  0  0  0  0
 25 22  2  0  0  0  0
 26 27  2  0  0  0  0
M  END
>  <MODEL>
1

>  <REMARK>
 VINA RESULT:     -10.6      0.000      0.000
  Name = 
  1 active torsions:
  status: ('A' for Active; 'I' for Inactive)
    1  A    between atoms: C_2  and  C_9
                            x       y       z     vdW  Elec       q    Type
                         _______ _______ _______ _____ _____    ______ ____

>  <TORSDO>
F 1

$$$$
=
 OpenBabel10262419593D

 27 31  0  0  1  0  0  0  0  0999 V2000
  187.5170  177.9340  142.8560 N   0  0  0  0  0  0  0  0  0  0  0  0
  189.7830  177.7310  142.4630 C   0  0  2  0  0  3  0  0  0  0  0  0
  187.8290  178.0680  145.5250 N   0  0  0  0  0  0  0  0  0  0  0  0
  192.0420  175.8420  145.6210 C   0  0  0  0  0  3  0  0  0  0  0  0
  191.8540  175.6460  146.9800 C   0  0  0  0  0  3  0  0  0  0  0  0
  191.6690  177.0200  143.7160 N   0  0  0  0  0  2  0  0  0  0  0  0
  189.9940  177.1890  146.9320 C   0  0  0  0  0  0  0  0  0  0  0  0
  184.2300  179.0720  145.1090 C   0  0  0  0  0  2  0  0  0  0  0  0
  189.0780  177.9050  147.6960 O   0  0  0  0  0  1  0  0  0  0  0  0
  184.0110  178.2090  143.9510 N   0  0  0  0  0  0  0  0  0  0  0  0
  190.0530  177.2900  145.4970 C   0  0  0  0  0  0  0  0  0  0  0  0
  188.7750  177.7650  143.3580 C   0  0  0  0  0  0  0  0  0  0  0  0
  190.8610  176.3520  147.6360 C   0  0  0  0  0  3  0  0  0  0  0  0
  191.2230  176.7060  144.8900 C   0  0  0  0  0  0  0  0  0  0  0  0
  186.4340  178.1690  143.6270 C   0  0  0  0  0  0  0  0  0  0  0  0
  188.9450  177.7580  144.7950 C   0  0  0  0  0  0  0  0  0  0  0  0
  185.4400  178.5750  145.9030 C   0  0  0  0  0  2  0  0  0  0  0  0
  191.1470  178.0810  142.8970 C   0  0  0  0  0  2  0  0  0  0  0  0
  182.7920  178.6680  143.3110 C   0  0  0  0  0  1  0  0  0  0  0  0
  185.0970  178.4340  142.9960 C   0  0  0  0  0  2  0  0  0  0  0  0
  186.6080  178.3110  144.9980 C   0  0  0  0  0  0  0  0  0  0  0  0
  189.1820  177.2740  138.2280 C   0  0  0  0  0  3  0  0  0  0  0  0
  189.5610  177.5500  141.0000 C   0  0  0  0  0  0  0  0  0  0  0  0
  188.5910  178.3140  140.3320 C   0  0  0  0  0  3  0  0  0  0  0  0
  188.3980  178.1740  138.9550 C   0  0  0  0  0  3  0  0  0  0  0  0
  190.1590  176.5170  138.8770 C   0  0  0  0  0  3  0  0  0  0  0  0
  190.3520  176.6580  140.2540 C   0  0  0  0  0  3  0  0  0  0  0  0
  1 12  2  0  0  0  0
  1 15  1  0  0  0  0
  2 23  1  6  0  0  0
  2 18  1  0  0  0  0
  2 12  1  0  0  0  0
  4  5  1  0  0  0  0
  5 13  2  0  0  0  0
  6 14  1  0  0  0  0
  7 13  1  0  0  0  0
  7  9  1  0  0  0  0
  8 17  1  0  0  0  0
 10  8  1  0  0  0  0
 11  7  2  0  0  0  0
 12 16  1  0  0  0  0
 14 11  1  0  0  0  0
 14  4  2  0  0  0  0
 15 21  2  0  0  0  0
 16 11  1  0  0  0  0
 16  3  2  0  0  0  0
 18  6  1  0  0  0  0
 19 10  1  0  0  0  0
 20 15  1  0  0  0  0
 20 10  1  0  0  0  0
 21  3  1  0  0  0  0
 21 17  1  0  0  0  0
 22 26  2  0  0  0  0
 22 25  1  0  0  0  0
 24 23  1  0  0  0  0
 25 24  2  0  0  0  0
 26 27  1  0  0  0  0
 27 23  2  0  0  0  0
M  END
>  <MODEL>
2

>  <REMARK>
 VINA RESULT:     -10.4      1.587      5.233
  Name = 
  1 active torsions:
  status: ('A' for Active; 'I' for Inactive)
    1  A    between atoms: C_2  and  C_9
                            x       y       z     vdW  Elec       q    Type
                         _______ _______ _______ _____ _____    ______ ____

>  <TORSDO>
F 1

$$$$
=
 OpenBabel10262419593D

 27 31  0  0  1  0  0  0  0  0999 V2000
  186.6870  178.0870  142.1850 N   0  0  0  0  0  0  0  0  0  0  0  0
  188.9600  178.1020  142.5950 C   0  0  2  0  0  3  0  0  0  0  0  0
  186.0540  178.4140  144.7800 N   0  0  0  0  0  0  0  0  0  0  0  0
  190.1420  176.6600  146.4900 C   0  0  0  0  0  3  0  0  0  0  0  0
  189.5160  176.5280  147.7190 C   0  0  0  0  0  3  0  0  0  0  0  0
  190.3520  177.6740  144.4690 N   0  0  0  0  0  2  0  0  0  0  0  0
  187.6680  177.8580  146.9060 C   0  0  0  0  0  0  0  0  0  0  0  0
  182.7480  179.0030  143.0890 C   0  0  0  0  0  2  0  0  0  0  0  0
  186.4920  178.5180  147.2480 O   0  0  0  0  0  1  0  0  0  0  0  0
  183.0090  178.0530  142.0100 N   0  0  0  0  0  0  0  0  0  0  0  0
  188.2080  177.8780  145.5720 C   0  0  0  0  0  0  0  0  0  0  0  0
  187.7060  178.0830  143.0930 C   0  0  0  0  0  0  0  0  0  0  0  0
  188.3060  177.1630  147.9350 C   0  0  0  0  0  3  0  0  0  0  0  0
  189.5580  177.3860  145.4490 C   0  0  0  0  0  0  0  0  0  0  0  0
  185.3910  178.2510  142.5230 C   0  0  0  0  0  0  0  0  0  0  0  0
  187.3740  178.1820  144.4980 C   0  0  0  0  0  0  0  0  0  0  0  0
  183.6480  178.6870  144.2850 C   0  0  0  0  0  2  0  0  0  0  0  0
  190.0600  178.6210  143.4270 C   0  0  0  0  0  2  0  0  0  0  0  0
  182.0500  178.3400  140.9590 C   0  0  0  0  0  1  0  0  0  0  0  0
  184.3350  178.3340  141.4580 C   0  0  0  0  0  2  0  0  0  0  0  0
  185.0730  178.4940  143.8520 C   0  0  0  0  0  0  0  0  0  0  0  0
  189.8960  177.3200  138.4700 C   0  0  0  0  0  3  0  0  0  0  0  0
  189.2680  177.8100  141.1660 C   0  0  0  0  0  0  0  0  0  0  0  0
  188.6980  178.5890  140.1460 C   0  0  0  0  0  3  0  0  0  0  0  0
  189.0060  178.3430  138.8050 C   0  0  0  0  0  3  0  0  0  0  0  0
  190.4800  176.5450  139.4740 C   0  0  0  0  0  3  0  0  0  0  0  0
  190.1720  176.7930  140.8150 C   0  0  0  0  0  3  0  0  0  0  0  0
  1 15  2  0  0  0  0
  1 12  1  0  0  0  0
  2 23  1  6  0  0  0
  2 12  1  0  0  0  0
  2 18  1  0  0  0  0
  4  5  1  0  0  0  0
  5 13  2  0  0  0  0
  6 14  1  0  0  0  0
  7  9  1  0  0  0  0
  7 13  1  0  0  0  0
  8 17  1  0  0  0  0
 10  8  1  0  0  0  0
 11  7  2  0  0  0  0
 12 16  2  0  0  0  0
 14 11  1  0  0  0  0
 14  4  2  0  0  0  0
 15 21  1  0  0  0  0
 16  3  1  0  0  0  0
 16 11  1  0  0  0  0
 18  6  1  0  0  0  0
 19 10  1  0  0  0  0
 20 10  1  0  0  0  0
 20 15  1  0  0  0  0
 21 17  1  0  0  0  0
 21  3  2  0  0  0  0
 22 25  2  0  0  0  0
 22 26  1  0  0  0  0
 24 23  2  0  0  0  0
 25 24  1  0  0  0  0
 26 27  2  0  0  0  0
 27 23  1  0  0  0  0
M  END
>  <MODEL>
3

>  <REMARK>
 VINA RESULT:      -9.9      1.963      5.281
  Name = 
  1 active torsions:
  status: ('A' for Active; 'I' for Inactive)
    1  A    between atoms: C_2  and  C_9
                            x       y       z     vdW  Elec       q    Type
                         _______ _______ _______ _____ _____    ______ ____

>  <TORSDO>
F 1

$$$$
=
 OpenBabel10262419593D

 27 31  0  0  1  0  0  0  0  0999 V2000
  187.3610  178.1210  142.3580 N   0  0  0  0  0  0  0  0  0  0  0  0
  185.5990  178.7870  143.6940 C   0  0  2  0  0  3  0  0  0  0  0  0
  186.0590  178.7020  140.0760 N   0  0  0  0  0  0  0  0  0  0  0  0
  181.6810  178.3660  141.9290 C   0  0  0  0  0  3  0  0  0  0  0  0
  181.1920  178.2830  140.6350 C   0  0  0  0  0  3  0  0  0  0  0  0
  183.2570  179.0480  143.4140 N   0  0  0  0  0  2  0  0  0  0  0  0
  183.3580  178.9400  139.7870 C   0  0  0  0  0  0  0  0  0  0  0  0
  189.5680  178.1320  138.8500 C   0  0  0  0  0  2  0  0  0  0  0  0
  184.0810  179.3240  138.6620 O   0  0  0  0  0  1  0  0  0  0  0  0
  189.8690  177.1150  139.8550 N   0  0  0  0  0  0  0  0  0  0  0  0
  183.9440  178.8760  141.1000 C   0  0  0  0  0  0  0  0  0  0  0  0
  186.0620  178.5300  142.4540 C   0  0  0  0  0  0  0  0  0  0  0  0
  182.0180  178.6130  139.5750 C   0  0  0  0  0  3  0  0  0  0  0  0
  183.0050  178.7330  142.1850 C   0  0  0  0  0  0  0  0  0  0  0  0
  188.0180  178.0010  141.1850 C   0  0  0  0  0  0  0  0  0  0  0  0
  185.3280  178.7720  141.2310 C   0  0  0  0  0  0  0  0  0  0  0  0
  188.0530  178.2620  138.6830 C   0  0  0  0  0  2  0  0  0  0  0  0
  184.4570  179.7020  143.8640 C   0  0  0  0  0  2  0  0  0  0  0  0
  191.3120  176.9680  139.8830 C   0  0  0  0  0  1  0  0  0  0  0  0
  189.4740  177.6310  141.1670 C   0  0  0  0  0  2  0  0  0  0  0  0
  187.3700  178.3710  140.0150 C   0  0  0  0  0  0  0  0  0  0  0  0
  187.7010  177.5820  147.2490 C   0  0  0  0  0  3  0  0  0  0  0  0
  186.3100  178.3510  144.9300 C   0  0  0  0  0  0  0  0  0  0  0  0
  187.4780  177.5760  144.8390 C   0  0  0  0  0  3  0  0  0  0  0  0
  188.1670  177.1900  145.9910 C   0  0  0  0  0  3  0  0  0  0  0  0
  186.5480  178.3630  147.3540 C   0  0  0  0  0  3  0  0  0  0  0  0
  185.8600  178.7500  146.2010 C   0  0  0  0  0  3  0  0  0  0  0  0
  1 12  1  0  0  0  0
  2 18  1  0  0  0  0
  2 23  1  1  0  0  0
  3 16  1  0  0  0  0
  4 14  1  0  0  0  0
  5  4  2  0  0  0  0
  6 18  1  0  0  0  0
  7 11  1  0  0  0  0
  8 10  1  0  0  0  0
  9  7  1  0  0  0  0
 10 19  1  0  0  0  0
 10 20  1  0  0  0  0
 11 16  1  0  0  0  0
 11 14  2  0  0  0  0
 12  2  1  0  0  0  0
 13  7  2  0  0  0  0
 13  5  1  0  0  0  0
 14  6  1  0  0  0  0
 15  1  2  0  0  0  0
 16 12  2  0  0  0  0
 17  8  1  0  0  0  0
 17 21  1  0  0  0  0
 20 15  1  0  0  0  0
 21  3  2  0  0  0  0
 21 15  1  0  0  0  0
 22 26  1  0  0  0  0
 23 27  1  0  0  0  0
 24 23  2  0  0  0  0
 24 25  1  0  0  0  0
 25 22  2  0  0  0  0
 27 26  2  0  0  0  0
M  END
>  <MODEL>
4

>  <REMARK>
 VINA RESULT:      -9.6      2.680      5.935
  Name = 
  1 active torsions:
  status: ('A' for Active; 'I' for Inactive)
    1  A    between atoms: C_2  and  C_9
                            x       y       z     vdW  Elec       q    Type
                         _______ _______ _______ _____ _____    ______ ____

>  <TORSDO>
F 1

$$$$
=
 OpenBabel10262419593D

 27 31  0  0  1  0  0  0  0  0999 V2000
  186.3860  178.3660  141.9580 N   0  0  0  0  0  0  0  0  0  0  0  0
  187.8720  177.4250  143.4550 C   0  0  2  0  0  3  0  0  0  0  0  0
  187.9100  177.7700  139.8230 N   0  0  0  0  0  0  0  0  0  0  0  0
  192.0130  177.4910  142.2320 C   0  0  0  0  0  3  0  0  0  0  0  0
  192.6760  177.5900  141.0200 C   0  0  0  0  0  3  0  0  0  0  0  0
  190.1880  176.9110  143.4540 N   0  0  0  0  0  2  0  0  0  0  0  0
  190.5850  177.2380  139.8610 C   0  0  0  0  0  0  0  0  0  0  0  0
  184.6780  178.8110  138.2080 C   0  0  0  0  0  2  0  0  0  0  0  0
  189.9810  177.0060  138.6290 O   0  0  0  0  0  1  0  0  0  0  0  0
  184.3570  179.7970  139.2380 N   0  0  0  0  0  0  0  0  0  0  0  0
  189.8390  177.2940  141.0910 C   0  0  0  0  0  0  0  0  0  0  0  0
  187.6090  177.8050  142.1870 C   0  0  0  0  0  0  0  0  0  0  0  0
  191.9680  177.4190  139.8430 C   0  0  0  0  0  3  0  0  0  0  0  0
  190.6350  177.2650  142.2930 C   0  0  0  0  0  0  0  0  0  0  0  0
  185.9080  178.6280  140.7240 C   0  0  0  0  0  0  0  0  0  0  0  0
  188.4690  177.5490  141.0530 C   0  0  0  0  0  0  0  0  0  0  0  0
  186.1800  178.5170  138.2250 C   0  0  0  0  0  2  0  0  0  0  0  0
  188.8770  176.3760  143.7010 C   0  0  0  0  0  2  0  0  0  0  0  0
  182.9470  180.1090  139.0940 C   0  0  0  0  0  1  0  0  0  0  0  0
  184.5150  179.1640  140.5480 C   0  0  0  0  0  2  0  0  0  0  0  0
  186.6630  178.2530  139.6210 C   0  0  0  0  0  0  0  0  0  0  0  0
  185.4770  178.6380  146.8160 C   0  0  0  0  0  3  0  0  0  0  0  0
  187.0540  177.8690  144.6190 C   0  0  0  0  0  0  0  0  0  0  0  0
  185.7130  178.2460  144.4400 C   0  0  0  0  0  3  0  0  0  0  0  0
  184.9300  178.6330  145.5300 C   0  0  0  0  0  3  0  0  0  0  0  0
  186.8050  178.2530  147.0110 C   0  0  0  0  0  3  0  0  0  0  0  0
  187.5870  177.8650  145.9200 C   0  0  0  0  0  3  0  0  0  0  0  0
  1 12  1  0  0  0  0
  2 18  1  0  0  0  0
  2 23  1  6  0  0  0
  3 16  1  0  0  0  0
  4 14  1  0  0  0  0
  5  4  2  0  0  0  0
  6 18  1  0  0  0  0
  7 11  1  0  0  0  0
  8 17  1  0  0  0  0
  8 10  1  0  0  0  0
  9  7  1  0  0  0  0
 10 20  1  0  0  0  0
 11 14  2  0  0  0  0
 12  2  1  0  0  0  0
 13  7  2  0  0  0  0
 13  5  1  0  0  0  0
 14  6  1  0  0  0  0
 15  1  2  0  0  0  0
 16 11  1  0  0  0  0
 16 12  2  0  0  0  0
 17 21  1  0  0  0  0
 19 10  1  0  0  0  0
 20 15  1  0  0  0  0
 21  3  2  0  0  0  0
 21 15  1  0  0  0  0
 22 26  1  0  0  0  0
 23 27  1  0  0  0  0
 24 23  2  0  0  0  0
 24 25  1  0  0  0  0
 25 22  2  0  0  0  0
 27 26  2  0  0  0  0
M  END
>  <MODEL>
5

>  <REMARK>
 VINA RESULT:      -9.4      2.302      4.328
  Name = 
  1 active torsions:
  status: ('A' for Active; 'I' for Inactive)
    1  A    between atoms: C_2  and  C_9
                            x       y       z     vdW  Elec       q    Type
                         _______ _______ _______ _____ _____    ______ ____

>  <TORSDO>
F 1

$$$$
=
 OpenBabel10262419593D

 27 31  0  0  1  0  0  0  0  0999 V2000
  187.0930  177.8940  143.9220 N   0  0  0  0  0  0  0  0  0  0  0  0
  186.3770  178.5240  141.8180 C   0  0  2  0  0  3  0  0  0  0  0  0
  189.6550  177.6240  143.1450 N   0  0  0  0  0  0  0  0  0  0  0  0
  188.6810  176.9320  138.5310 C   0  0  0  0  0  3  0  0  0  0  0  0
  189.9660  176.4360  138.3840 C   0  0  0  0  0  3  0  0  0  0  0  0
  187.1750  178.2540  139.6000 N   0  0  0  0  0  2  0  0  0  0  0  0
  190.5240  177.2610  140.5860 C   0  0  0  0  0  0  0  0  0  0  0  0
  189.9510  177.4470  146.8890 C   0  0  0  0  0  2  0  0  0  0  0  0
  191.5470  177.4820  141.5030 O   0  0  0  0  0  1  0  0  0  0  0  0
  188.6580  176.7920  147.0680 N   0  0  0  0  0  0  0  0  0  0  0  0
  189.1600  177.6410  140.8410 C   0  0  0  0  0  0  0  0  0  0  0  0
  187.3760  178.0570  142.5960 C   0  0  0  0  0  0  0  0  0  0  0  0
  190.8930  176.6420  139.3910 C   0  0  0  0  0  3  0  0  0  0  0  0
  188.2860  177.5980  139.6940 C   0  0  0  0  0  0  0  0  0  0  0  0
  188.0290  177.6120  144.8520 C   0  0  0  0  0  0  0  0  0  0  0  0
  188.7360  177.8410  142.1540 C   0  0  0  0  0  0  0  0  0  0  0  0
  190.4430  177.2380  145.4550 C   0  0  0  0  0  2  0  0  0  0  0  0
  186.7050  179.2160  140.5600 C   0  0  0  0  0  2  0  0  0  0  0  0
  188.3060  176.9340  148.4690 C   0  0  0  0  0  1  0  0  0  0  0  0
  187.6540  177.5340  146.3050 C   0  0  0  0  0  2  0  0  0  0  0  0
  189.3600  177.5460  144.4630 C   0  0  0  0  0  0  0  0  0  0  0  0
  182.2700  178.6910  143.0860 C   0  0  0  0  0  3  0  0  0  0  0  0
  184.9540  178.5550  142.2600 C   0  0  0  0  0  0  0  0  0  0  0  0
  184.6280  178.9400  143.5710 C   0  0  0  0  0  3  0  0  0  0  0  0
  183.2940  179.0030  143.9830 C   0  0  0  0  0  3  0  0  0  0  0  0
  182.5790  178.3190  141.7760 C   0  0  0  0  0  3  0  0  0  0  0  0
  183.9120  178.2570  141.3630 C   0  0  0  0  0  3  0  0  0  0  0  0
  1 15  1  0  0  0  0
  2 23  1  1  0  0  0
  2 12  1  0  0  0  0
  3 21  1  0  0  0  0
  4 14  1  0  0  0  0
  5  4  2  0  0  0  0
  5 13  1  0  0  0  0
  6 14  1  0  0  0  0
  6 18  1  0  0  0  0
  7 11  1  0  0  0  0
  7  9  1  0  0  0  0
  8 10  1  0  0  0  0
 10 19  1  0  0  0  0
 11 16  1  0  0  0  0
 12  1  2  0  0  0  0
 13  7  2  0  0  0  0
 14 11  2  0  0  0  0
 15 20  1  0  0  0  0
 16 12  1  0  0  0  0
 16  3  2  0  0  0  0
 17  8  1  0  0  0  0
 18  2  1  0  0  0  0
 20 10  1  0  0  0  0
 21 15  2  0  0  0  0
 21 17  1  0  0  0  0
 22 25  1  0  0  0  0
 23 24  1  0  0  0  0
 24 25  2  0  0  0  0
 26 22  2  0  0  0  0
 27 26  1  0  0  0  0
 27 23  2  0  0  0  0
M  END
>  <MODEL>
6

>  <REMARK>
 VINA RESULT:      -9.0      1.367      5.395
  Name = 
  1 active torsions:
  status: ('A' for Active; 'I' for Inactive)
    1  A    between atoms: C_2  and  C_9
                            x       y       z     vdW  Elec       q    Type
                         _______ _______ _______ _____ _____    ______ ____

>  <TORSDO>
F 1

$$$$
=
 OpenBabel10262419593D

 27 31  0  0  1  0  0  0  0  0999 V2000
  187.9140  177.7950  143.7090 N   0  0  0  0  0  0  0  0  0  0  0  0
  186.4630  178.5870  142.0970 C   0  0  2  0  0  3  0  0  0  0  0  0
  189.9720  177.5960  141.9870 N   0  0  0  0  0  0  0  0  0  0  0  0
  187.2810  177.2680  138.0680 C   0  0  0  0  0  3  0  0  0  0  0  0
  188.3970  176.7890  137.4000 C   0  0  0  0  0  3  0  0  0  0  0  0
  186.3390  178.4960  139.7290 N   0  0  0  0  0  2  0  0  0  0  0  0
  189.7810  177.4390  139.2720 C   0  0  0  0  0  0  0  0  0  0  0  0
  191.6800  177.1240  145.3030 C   0  0  0  0  0  2  0  0  0  0  0  0
  191.0840  177.5900  139.7370 O   0  0  0  0  0  1  0  0  0  0  0  0
  190.5380  176.4530  145.9180 N   0  0  0  0  0  0  0  0  0  0  0  0
  188.6300  177.7940  140.0610 C   0  0  0  0  0  0  0  0  0  0  0  0
  187.6700  178.0640  142.3930 C   0  0  0  0  0  0  0  0  0  0  0  0
  189.6440  176.9180  137.9850 C   0  0  0  0  0  3  0  0  0  0  0  0
  187.3830  177.8390  139.3390 C   0  0  0  0  0  0  0  0  0  0  0  0
  189.1280  177.4430  144.1830 C   0  0  0  0  0  0  0  0  0  0  0  0
  188.7490  177.8870  141.4460 C   0  0  0  0  0  0  0  0  0  0  0  0
  191.5770  177.0310  143.7800 C   0  0  0  0  0  2  0  0  0  0  0  0
  186.3010  179.3780  140.8650 C   0  0  0  0  0  2  0  0  0  0  0  0
  190.7560  176.4830  147.3520 C   0  0  0  0  0  1  0  0  0  0  0  0
  189.3380  177.2500  145.6580 C   0  0  0  0  0  2  0  0  0  0  0  0
  190.2050  177.4130  143.3070 C   0  0  0  0  0  0  0  0  0  0  0  0
  183.1750  178.6380  144.8710 C   0  0  0  0  0  3  0  0  0  0  0  0
  185.3200  178.5790  143.0540 C   0  0  0  0  0  0  0  0  0  0  0  0
  185.5560  178.6030  144.4390 C   0  0  0  0  0  3  0  0  0  0  0  0
  184.4910  178.6280  145.3420 C   0  0  0  0  0  3  0  0  0  0  0  0
  182.9260  178.6280  143.4970 C   0  0  0  0  0  3  0  0  0  0  0  0
  183.9920  178.6040  142.5940 C   0  0  0  0  0  3  0  0  0  0  0  0
  1 15  1  0  0  0  0
  2 12  1  0  0  0  0
  2 23  1  1  0  0  0
  3 21  1  0  0  0  0
  4 14  1  0  0  0  0
  5 13  1  0  0  0  0
  5  4  2  0  0  0  0
  6 18  1  0  0  0  0
  7  9  1  0  0  0  0
  7 11  1  0  0  0  0
  8 10  1  0  0  0  0
 10 19  1  0  0  0  0
 11 16  1  0  0  0  0
 12  1  2  0  0  0  0
 13  7  2  0  0  0  0
 14  6  1  0  0  0  0
 14 11  2  0  0  0  0
 15 20  1  0  0  0  0
 16  3  2  0  0  0  0
 16 12  1  0  0  0  0
 17  8  1  0  0  0  0
 18  2  1  0  0  0  0
 20 10  1  0  0  0  0
 21 17  1  0  0  0  0
 21 15  2  0  0  0  0
 22 25  1  0  0  0  0
 23 24  1  0  0  0  0
 24 25  2  0  0  0  0
 26 22  2  0  0  0  0
 27 23  2  0  0  0  0
 27 26  1  0  0  0  0
M  END
>  <MODEL>
7

>  <REMARK>
 VINA RESULT:      -9.0      1.677      5.456
  Name = 
  1 active torsions:
  status: ('A' for Active; 'I' for Inactive)
    1  A    between atoms: C_2  and  C_9
                            x       y       z     vdW  Elec       q    Type
                         _______ _______ _______ _____ _____    ______ ____

>  <TORSDO>
F 1

$$$$
=
 OpenBabel10262419593D

 27 31  0  0  1  0  0  0  0  0999 V2000
  189.5310  177.1660  142.8480 N   0  0  0  0  0  0  0  0  0  0  0  0
  188.8780  177.6790  145.0030 C   0  0  2  0  0  3  0  0  0  0  0  0
  187.4100  178.3970  141.7400 N   0  0  0  0  0  0  0  0  0  0  0  0
  184.6200  178.0910  145.5920 C   0  0  0  0  0  3  0  0  0  0  0  0
  183.5380  178.3650  144.7710 C   0  0  0  0  0  3  0  0  0  0  0  0
  186.8340  178.2390  146.0710 N   0  0  0  0  0  2  0  0  0  0  0  0
  185.0570  178.9740  142.9930 C   0  0  0  0  0  0  0  0  0  0  0  0
  189.5990  177.7700  138.7490 C   0  0  0  0  0  2  0  0  0  0  0  0
  185.1730  179.5340  141.7240 O   0  0  0  0  0  1  0  0  0  0  0  0
  190.1440  176.5210  139.2740 N   0  0  0  0  0  0  0  0  0  0  0  0
  186.1990  178.5440  143.7560 C   0  0  0  0  0  0  0  0  0  0  0  0
  188.5810  177.6730  143.6870 C   0  0  0  0  0  0  0  0  0  0  0  0
  183.7610  178.8470  143.4930 C   0  0  0  0  0  3  0  0  0  0  0  0
  185.9330  178.2490  145.1430 C   0  0  0  0  0  0  0  0  0  0  0  0
  189.4600  177.2570  141.5030 C   0  0  0  0  0  0  0  0  0  0  0  0
  187.3990  178.2700  143.1030 C   0  0  0  0  0  0  0  0  0  0  0  0
  188.2760  178.0920  139.4460 C   0  0  0  0  0  2  0  0  0  0  0  0
  188.2030  178.6420  145.8910 C   0  0  0  0  0  2  0  0  0  0  0  0
  191.3330  176.2220  138.4970 C   0  0  0  0  0  1  0  0  0  0  0  0
  190.5890  176.7530  140.6490 C   0  0  0  0  0  2  0  0  0  0  0  0
  188.4040  177.9560  140.9350 C   0  0  0  0  0  0  0  0  0  0  0  0
  192.1770  175.4740  146.6640 C   0  0  0  0  0  3  0  0  0  0  0  0
  190.0050  176.8940  145.5820 C   0  0  0  0  0  0  0  0  0  0  0  0
  190.9780  176.3280  144.7430 C   0  0  0  0  0  3  0  0  0  0  0  0
  192.0550  175.6190  145.2800 C   0  0  0  0  0  3  0  0  0  0  0  0
  191.2230  176.0420  147.5110 C   0  0  0  0  0  3  0  0  0  0  0  0
  190.1460  176.7530  146.9740 C   0  0  0  0  0  3  0  0  0  0  0  0
  1 12  1  0  0  0  0
  2 23  1  6  0  0  0
  2 18  1  0  0  0  0
  3 16  1  0  0  0  0
  5  4  2  0  0  0  0
  7 13  2  0  0  0  0
  7 11  1  0  0  0  0
  8 10  1  0  0  0  0
  8 17  1  0  0  0  0
  9  7  1  0  0  0  0
 10 20  1  0  0  0  0
 11 14  2  0  0  0  0
 12  2  1  0  0  0  0
 13  5  1  0  0  0  0
 14  4  1  0  0  0  0
 14  6  1  0  0  0  0
 15  1  2  0  0  0  0
 16 12  2  0  0  0  0
 16 11  1  0  0  0  0
 17 21  1  0  0  0  0
 18  6  1  0  0  0  0
 19 10  1  0  0  0  0
 20 15  1  0  0  0  0
 21 15  1  0  0  0  0
 21  3  2  0  0  0  0
 22 26  1  0  0  0  0
 23 27  1  0  0  0  0
 24 25  1  0  0  0  0
 24 23  2  0  0  0  0
 25 22  2  0  0  0  0
 27 26  2  0  0  0  0
M  END
>  <MODEL>
8

>  <REMARK>
 VINA RESULT:      -9.0      1.861      5.326
  Name = 
  1 active torsions:
  status: ('A' for Active; 'I' for Inactive)
    1  A    between atoms: C_2  and  C_9
                            x       y       z     vdW  Elec       q    Type
                         _______ _______ _______ _____ _____    ______ ____

>  <TORSDO>
F 1

$$$$
=
 OpenBabel10262419593D

 27 31  0  0  1  0  0  0  0  0999 V2000
  187.6290  177.9870  142.8990 N   0  0  0  0  0  0  0  0  0  0  0  0
  185.8210  178.7200  141.6630 C   0  0  2  0  0  3  0  0  0  0  0  0
  189.2540  177.8780  140.7570 N   0  0  0  0  0  0  0  0  0  0  0  0
  185.7660  177.4430  137.5380 C   0  0  0  0  0  3  0  0  0  0  0  0
  186.7220  177.0130  136.6320 C   0  0  0  0  0  3  0  0  0  0  0  0
  185.1720  178.6280  139.3820 N   0  0  0  0  0  2  0  0  0  0  0  0
  188.4640  177.7180  138.1520 C   0  0  0  0  0  0  0  0  0  0  0  0
  191.6800  177.4730  143.6000 C   0  0  0  0  0  2  0  0  0  0  0  0
  189.8300  177.9220  138.3150 O   0  0  0  0  0  1  0  0  0  0  0  0
  190.7330  176.7520  144.4480 N   0  0  0  0  0  0  0  0  0  0  0  0
  187.5060  178.0220  139.1830 C   0  0  0  0  0  0  0  0  0  0  0  0
  187.0850  178.2480  141.6740 C   0  0  0  0  0  0  0  0  0  0  0  0
  188.0630  177.1930  136.9230 C   0  0  0  0  0  3  0  0  0  0  0  0
  186.1280  178.0160  138.7600 C   0  0  0  0  0  0  0  0  0  0  0  0
  188.9310  177.6860  143.0850 C   0  0  0  0  0  0  0  0  0  0  0  0
  187.9300  178.1180  140.5070 C   0  0  0  0  0  0  0  0  0  0  0  0
  191.2420  177.3780  142.1380 C   0  0  0  0  0  2  0  0  0  0  0  0
  185.3540  179.5060  140.5070 C   0  0  0  0  0  2  0  0  0  0  0  0
  191.2670  176.7890  145.7970 C   0  0  0  0  0  1  0  0  0  0  0  0
  189.4750  177.4990  144.4730 C   0  0  0  0  0  2  0  0  0  0  0  0
  189.7840  177.7020  141.9890 C   0  0  0  0  0  0  0  0  0  0  0  0
  183.2420  178.6290  145.1040 C   0  0  0  0  0  3  0  0  0  0  0  0
  184.9240  178.6630  142.8510 C   0  0  0  0  0  0  0  0  0  0  0  0
  185.4650  178.6760  144.1480 C   0  0  0  0  0  3  0  0  0  0  0  0
  184.6300  178.6550  145.2680 C   0  0  0  0  0  3  0  0  0  0  0  0
  182.6900  178.6280  143.8220 C   0  0  0  0  0  3  0  0  0  0  0  0
  183.5260  178.6510  142.7020 C   0  0  0  0  0  3  0  0  0  0  0  0
  1 15  1  0  0  0  0
  2 12  1  0  0  0  0
  2 23  1  1  0  0  0
  3 21  1  0  0  0  0
  4 14  1  0  0  0  0
  5 13  1  0  0  0  0
  5  4  2  0  0  0  0
  6 18  1  0  0  0  0
  7  9  1  0  0  0  0
  7 11  1  0  0  0  0
  8 10  1  0  0  0  0
 10 20  1  0  0  0  0
 10 19  1  0  0  0  0
 11 16  1  0  0  0  0
 12  1  2  0  0  0  0
 13  7  2  0  0  0  0
 14 11  2  0  0  0  0
 14  6  1  0  0  0  0
 15 20  1  0  0  0  0
 16  3  2  0  0  0  0
 16 12  1  0  0  0  0
 17  8  1  0  0  0  0
 18  2  1  0  0  0  0
 21 17  1  0  0  0  0
 21 15  2  0  0  0  0
 22 25  1  0  0  0  0
 23 24  1  0  0  0  0
 24 25  2  0  0  0  0
 26 22  2  0  0  0  0
 27 23  2  0  0  0  0
 27 26  1  0  0  0  0
M  END
>  <MODEL>
9

>  <REMARK>
 VINA RESULT:      -8.7      2.101      5.726
  Name = 
  1 active torsions:
  status: ('A' for Active; 'I' for Inactive)
    1  A    between atoms: C_2  and  C_9
                            x       y       z     vdW  Elec       q    Type
                         _______ _______ _______ _____ _____    ______ ____

>  <TORSDO>
F 1

$$$$
