=
 OpenBabel10262420323D

 55 61  0  0  1  0  0  0  0  0999 V2000
  186.3080  178.3110  141.8070 C   0  0  0  0  0  0  0  0  0  0  0  0
  183.8840  178.7430  138.5070 C   0  0  0  0  0  2  0  0  0  0  0  0
  186.1870  178.3990  136.6010 O   0  0  0  0  0  1  0  0  0  0  0  0
  189.2960  177.3860  136.7230 C   0  0  0  0  0  3  0  0  0  0  0  0
  190.2030  176.8080  135.9380 C   0  0  0  0  0  3  0  0  0  0  0  0
  190.2410  176.1880  138.7100 C   0  0  2  0  0  3  0  0  0  0  0  0
  191.5250  176.0970  137.8880 C   0  0  0  0  0  2  0  0  0  0  0  0
  187.5800  178.7730  138.3700 O   0  0  0  0  0  0  0  0  0  0  0  0
  191.2270  176.0380  136.4950 O   0  0  0  0  0  0  0  0  0  0  0  0
  185.0730  179.2580  143.7100 C   0  0  0  0  0  3  0  0  0  0  0  0
  189.3330  177.2030  138.1480 N   0  0  0  0  0  0  0  0  0  0  0  0
  182.6560  178.4900  142.5230 C   0  0  0  0  0  0  0  0  0  0  0  0
  187.3230  178.1220  141.1850 C   0  0  0  0  0  0  0  0  0  0  0  0
  183.8720  178.1710  141.9130 C   0  0  0  0  0  3  0  0  0  0  0  0
  189.3730  176.7600  140.9850 C   0  0  2  0  0  3  0  0  0  0  0  0
  182.9180  179.5930  139.3100 C   0  0  0  0  0  2  0  0  0  0  0  0
  190.6190  176.5380  140.1410 C   0  0  0  0  0  2  0  0  0  0  0  0
  185.2750  179.3400  138.5930 C   0  0  0  0  0  2  0  0  0  0  0  0
  186.2910  178.3830  137.9930 C   0  0  1  0  0  3  0  0  0  0  0  0
  183.8580  179.5680  144.3310 C   0  0  0  0  0  3  0  0  0  0  0  0
  181.5940  178.8620  139.4600 C   0  0  1  0  0  3  0  0  0  0  0  0
  185.0780  178.5590  142.4990 C   0  0  0  0  0  0  0  0  0  0  0  0
  188.1650  177.6280  138.9350 C   0  0  1  0  0  3  0  0  0  0  0  0
  188.5470  177.9110  140.3970 C   0  0  1  0  0  3  0  0  0  0  0  0
  180.9710  179.1740  140.8200 C   0  0  0  0  0  2  0  0  0  0  0  0
  181.3690  178.1300  141.8580 C   0  0  0  0  0  2  0  0  0  0  0  0
  182.6500  179.1910  143.7340 C   0  0  0  0  0  3  0  0  0  0  0  0
  189.0230  176.6120  143.4020 C   0  0  0  0  0  3  0  0  0  0  0  0
  190.9100  177.0370  144.9800 C   0  0  2  0  0  3  0  0  0  0  0  0
  191.0040  177.6970  142.6530 O   0  0  0  0  0  0  0  0  0  0  0  0
  191.4020  178.0730  143.9730 C   0  0  0  0  0  2  0  0  0  0  0  0
  189.3950  176.9010  144.8270 C   0  0  0  0  0  2  0  0  0  0  0  0
  189.7890  177.0420  142.3950 C   0  0  0  0  0  0  0  0  0  0  0  0
  191.2480  177.4820  146.3910 C   0  0  0  0  0  3  0  0  0  0  0  0
  191.7030  176.2860  147.2050 C   0  0  0  0  0  2  0  0  0  0  0  0
  190.2970  176.8210  147.3690 C   0  0  0  0  0  2  0  0  0  0  0  0
  179.6740  180.1360  138.6830 O   0  0  0  0  0  1  0  0  0  0  0  0
  180.6640  179.2270  138.2970 C   0  0  2  0  0  3  0  0  0  0  0  0
  180.0660  177.9980  137.6080 C   0  0  0  0  0  2  0  0  0  0  0  0
  180.5390  176.6770  138.2160 C   0  0  1  0  0  3  0  0  0  0  0  0
  179.5480  176.1570  139.0550 O   0  0  0  0  0  1  0  0  0  0  0  0
  183.3820  176.5990  134.8630 N   0  0  0  0  0  0  0  0  0  0  0  0
  182.0320  172.5390  136.4730 O   0  0  0  0  0  1  0  0  0  0  0  0
  180.9810  175.6640  137.1330 C   0  0  1  0  0  0  0  0  0  0  0  0
  183.0540  175.2610  138.3890 O   0  0  0  0  0  1  0  0  0  0  0  0
  182.0510  174.6490  137.6280 C   0  0  2  0  0  3  0  0  0  0  0  0
  182.5930  176.9410  136.0230 C   0  0  0  0  0  2  0  0  0  0  0  0
  184.1340  173.7080  136.3350 C   0  0  1  0  0  3  0  0  0  0  0  0
  184.3680  175.7670  134.8970 C   0  0  0  0  0  3  0  0  0  0  0  0
  182.6050  173.8110  136.4600 C   0  0  1  0  0  3  0  0  0  0  0  0
  179.8580  174.9070  136.8390 F   0  0  0  0  0  0  0  0  0  0  0  0
  184.8130  175.0710  136.1520 C   0  0  0  0  0  2  0  0  0  0  0  0
  181.3330  176.3250  135.9260 O   0  0  0  0  0  0  0  0  0  0  0  0
  184.6900  173.0140  137.4720 N   0  0  0  0  0  0  0  0  0  0  0  0
  185.9590  172.8910  137.6110 C   0  0  0  0  0  2  0  0  0  0  0  0
  1 22  1  0  0  0  0
  2 18  1  0  0  0  0
  2 16  1  0  0  0  0
  4 11  1  0  0  0  0
  5  9  1  0  0  0  0
  5  4  2  0  0  0  0
  6  7  1  6  0  0  0
  6 17  1  0  0  0  0
  9  7  1  0  0  0  0
 10 20  1  0  0  0  0
 11  6  1  0  0  0  0
 11 23  1  0  0  0  0
 12 27  1  0  0  0  0
 13  1  3  0  0  0  0
 14 22  1  0  0  0  0
 14 12  2  0  0  0  0
 15 33  1  1  0  0  0
 16 21  1  0  0  0  0
 17 15  1  0  0  0  0
 19  3  1  6  0  0  0
 19  8  1  0  0  0  0
 19 18  1  0  0  0  0
 21 38  1  6  0  0  0
 21 25  1  0  0  0  0
 22 10  2  0  0  0  0
 23  8  1  6  0  0  0
 23 24  1  0  0  0  0
 24 15  1  0  0  0  0
 24 13  1  1  0  0  0
 25 26  1  0  0  0  0
 26 12  1  0  0  0  0
 27 20  2  0  0  0  0
 28 32  1  0  0  0  0
 29 34  1  1  0  0  0
 30 31  1  0  0  0  0
 31 29  1  0  0  0  0
 32 29  1  0  0  0  0
 33 30  1  0  0  0  0
 33 28  2  0  0  0  0
 34 35  1  0  0  0  0
 34 36  1  0  0  0  0
 35 36  1  0  0  0  0
 38 37  1  1  0  0  0
 39 40  1  0  0  0  0
 39 38  1  0  0  0  0
 40 41  1  6  0  0  0
 42 49  2  0  0  0  0
 42 47  1  0  0  0  0
 44 51  1  6  0  0  0
 44 46  1  0  0  0  0
 44 40  1  0  0  0  0
 46 45  1  6  0  0  0
 48 50  1  0  0  0  0
 48 54  1  1  0  0  0
 49 52  1  0  0  0  0
 50 43  1  1  0  0  0
 50 46  1  0  0  0  0
 52 48  1  0  0  0  0
 53 47  1  0  0  0  0
 53 44  1  0  0  0  0
 54 55  2  0  0  0  0
M  END
>  <MODEL>
1

>  <REMARK>
 VINA RESULT:     -10.1      0.000      0.000
  Name = 
  7 active torsions:
  status: ('A' for Active; 'I' for Inactive)
    1  A    between atoms: C_6  and  C_20
    2  A    between atoms: C_8  and  C_22
    3  A    between atoms: C_8  and  C_43
    4  A    between atoms: C_10  and  C_32
    5  A    between atoms: N_11  and  C_29
    6  A    between atoms: C_20  and  C_22
    7  A    between atoms: C_33  and  C_52
                            x       y       z     vdW  Elec       q    Type
                         _______ _______ _______ _____ _____    ______ ____

>  <TORSDO>
F 7

$$$$
=
 OpenBabel10262420323D

 55 61  0  0  1  0  0  0  0  0999 V2000
  185.9680  178.0500  138.2060 C   0  0  0  0  0  0  0  0  0  0  0  0
  189.5830  177.2930  140.0260 C   0  0  0  0  0  2  0  0  0  0  0  0
  188.5930  178.2570  142.6990 O   0  0  0  0  0  1  0  0  0  0  0  0
  185.7270  178.9900  144.0960 C   0  0  0  0  0  3  0  0  0  0  0  0
  185.1600  178.9920  145.3010 C   0  0  0  0  0  3  0  0  0  0  0  0
  183.5310  178.3770  143.0550 C   0  0  2  0  0  3  0  0  0  0  0  0
  182.9080  178.9930  144.3070 C   0  0  0  0  0  2  0  0  0  0  0  0
  186.8490  179.2310  141.5930 O   0  0  0  0  0  0  0  0  0  0  0  0
  183.7770  178.8400  145.4270 O   0  0  0  0  0  0  0  0  0  0  0  0
  186.4110  178.1530  135.7890 C   0  0  0  0  0  3  0  0  0  0  0  0
  184.9360  178.7980  142.9100 N   0  0  0  0  0  0  0  0  0  0  0  0
  188.4820  176.2940  136.0910 C   0  0  0  0  0  0  0  0  0  0  0  0
  185.4120  178.4360  139.2030 C   0  0  0  0  0  0  0  0  0  0  0  0
  187.7100  176.6700  137.1920 C   0  0  0  0  0  3  0  0  0  0  0  0
  183.3520  178.3340  140.5610 C   0  0  2  0  0  3  0  0  0  0  0  0
  190.3050  177.4930  138.7070 C   0  0  0  0  0  2  0  0  0  0  0  0
  182.7110  178.8180  141.8530 C   0  0  0  0  0  2  0  0  0  0  0  0
  188.7440  178.5190  140.3330 C   0  0  0  0  0  2  0  0  0  0  0  0
  187.8400  178.2450  141.5230 C   0  0  1  0  0  3  0  0  0  0  0  0
  187.1730  177.7690  134.6810 C   0  0  0  0  0  3  0  0  0  0  0  0
  190.9210  176.1790  138.2550 C   0  0  1  0  0  3  0  0  0  0  0  0
  186.6810  177.6020  137.0460 C   0  0  0  0  0  0  0  0  0  0  0  0
  185.6330  178.5310  141.6440 C   0  0  1  0  0  3  0  0  0  0  0  0
  184.7660  178.9150  140.4340 C   0  0  1  0  0  3  0  0  0  0  0  0
  190.8800  176.0730  136.7320 C   0  0  0  0  0  2  0  0  0  0  0  0
  189.6220  175.3470  136.2660 C   0  0  0  0  0  2  0  0  0  0  0  0
  188.2140  176.8450  134.8330 C   0  0  0  0  0  3  0  0  0  0  0  0
  182.2230  180.0330  139.2090 C   0  0  0  0  0  3  0  0  0  0  0  0
  181.3940  179.4800  136.9200 C   0  0  2  0  0  3  0  0  0  0  0  0
  181.9990  177.7660  138.5200 O   0  0  0  0  0  0  0  0  0  0  0  0
  181.0910  178.0860  137.4640 C   0  0  0  0  0  2  0  0  0  0  0  0
  181.3340  180.4710  138.0820 C   0  0  0  0  0  2  0  0  0  0  0  0
  182.4830  178.7370  139.4110 C   0  0  0  0  0  0  0  0  0  0  0  0
  180.3730  179.8600  135.8640 C   0  0  0  0  0  3  0  0  0  0  0  0
  181.0880  180.2940  134.5990 C   0  0  0  0  0  2  0  0  0  0  0  0
  180.5120  181.3340  135.5360 C   0  0  0  0  0  2  0  0  0  0  0  0
  192.7490  177.2120  139.4820 O   0  0  0  0  0  1  0  0  0  0  0  0
  192.3460  176.0540  138.8090 C   0  0  2  0  0  3  0  0  0  0  0  0
  193.3620  175.6360  137.7440 C   0  0  0  0  0  2  0  0  0  0  0  0
  193.7920  174.1730  137.8640 C   0  0  1  0  0  3  0  0  0  0  0  0
  193.5800  173.5120  136.6510 O   0  0  0  0  0  1  0  0  0  0  0  0
  197.0490  171.2430  137.4820 N   0  0  0  0  0  0  0  0  0  0  0  0
  198.2700  175.4940  138.6380 O   0  0  0  0  0  1  0  0  0  0  0  0
  195.2530  174.0370  138.3570 C   0  0  1  0  0  0  0  0  0  0  0  0
  196.0440  174.6240  136.1060 O   0  0  0  0  0  1  0  0  0  0  0  0
  196.2830  174.7970  137.4740 C   0  0  2  0  0  3  0  0  0  0  0  0
  195.8160  171.9870  137.3830 C   0  0  0  0  0  2  0  0  0  0  0  0
  198.6960  174.0460  136.7600 C   0  0  1  0  0  3  0  0  0  0  0  0
  198.1360  171.5900  136.8790 C   0  0  0  0  0  3  0  0  0  0  0  0
  197.7280  174.4530  137.8840 C   0  0  1  0  0  3  0  0  0  0  0  0
  195.2950  174.6550  139.5960 F   0  0  0  0  0  0  0  0  0  0  0  0
  198.2340  172.8000  135.9940 C   0  0  0  0  0  2  0  0  0  0  0  0
  195.5910  172.6750  138.5880 O   0  0  0  0  0  0  0  0  0  0  0  0
  198.9130  175.1470  135.8540 N   0  0  0  0  0  0  0  0  0  0  0  0
  199.0680  174.9440  134.5980 C   0  0  0  0  0  2  0  0  0  0  0  0
  1 13  3  0  0  0  0
  2 18  1  0  0  0  0
  4  5  2  0  0  0  0
  5  9  1  0  0  0  0
  6 17  1  6  0  0  0
  6  7  1  0  0  0  0
  7  9  1  0  0  0  0
 10 22  1  0  0  0  0
 11  6  1  0  0  0  0
 11  4  1  0  0  0  0
 12 26  1  0  0  0  0
 12 14  1  0  0  0  0
 15 33  1  6  0  0  0
 15 17  1  0  0  0  0
 16  2  1  0  0  0  0
 18 19  1  0  0  0  0
 19  8  1  0  0  0  0
 19  3  1  1  0  0  0
 20 27  1  0  0  0  0
 20 10  2  0  0  0  0
 21 16  1  0  0  0  0
 21 38  1  6  0  0  0
 22 14  2  0  0  0  0
 22  1  1  0  0  0  0
 23  8  1  1  0  0  0
 23 11  1  0  0  0  0
 24 13  1  6  0  0  0
 24 15  1  0  0  0  0
 24 23  1  0  0  0  0
 25 21  1  0  0  0  0
 26 25  1  0  0  0  0
 27 12  2  0  0  0  0
 28 33  2  0  0  0  0
 29 34  1  6  0  0  0
 29 31  1  0  0  0  0
 29 32  1  0  0  0  0
 30 33  1  0  0  0  0
 31 30  1  0  0  0  0
 32 28  1  0  0  0  0
 35 36  1  0  0  0  0
 35 34  1  0  0  0  0
 36 34  1  0  0  0  0
 38 37  1  6  0  0  0
 39 40  1  0  0  0  0
 39 38  1  0  0  0  0
 40 41  1  6  0  0  0
 40 44  1  0  0  0  0
 44 53  1  0  0  0  0
 44 51  1  1  0  0  0
 46 45  1  6  0  0  0
 46 50  1  0  0  0  0
 46 44  1  0  0  0  0
 47 42  1  0  0  0  0
 47 53  1  0  0  0  0
 48 54  1  6  0  0  0
 48 50  1  0  0  0  0
 49 42  2  0  0  0  0
 50 43  1  6  0  0  0
 52 48  1  0  0  0  0
 52 49  1  0  0  0  0
 55 54  2  0  0  0  0
M  END
>  <MODEL>
2

>  <REMARK>
 VINA RESULT:      -8.9      4.641     11.297
  Name = 
  7 active torsions:
  status: ('A' for Active; 'I' for Inactive)
    1  A    between atoms: C_6  and  C_20
    2  A    between atoms: C_8  and  C_22
    3  A    between atoms: C_8  and  C_43
    4  A    between atoms: C_10  and  C_32
    5  A    between atoms: N_11  and  C_29
    6  A    between atoms: C_20  and  C_22
    7  A    between atoms: C_33  and  C_52
                            x       y       z     vdW  Elec       q    Type
                         _______ _______ _______ _____ _____    ______ ____

>  <TORSDO>
F 7

$$$$
