=
 OpenBabel10262420563D

 28 31  0  0  1  0  0  0  0  0999 V2000
  184.5030  178.3830  142.8520 C   0  0  1  0  0  3  0  0  0  0  0  0
  183.2040  176.9100  136.8990 C   0  0  1  0  0  3  0  0  0  0  0  0
  179.4220  178.3730  141.2250 S   0  0  0  0  0  1  0  0  0  0  0  0
  182.7270  175.2230  138.4760 C   0  0  2  0  0  3  0  0  0  0  0  0
  183.0730  177.6320  139.3310 C   0  0  2  0  0  3  0  0  0  0  0  0
  183.0200  175.5490  136.2520 C   0  0  1  0  0  3  0  0  0  0  0  0
  183.4710  176.5480  138.3210 C   0  0  2  0  0  3  0  0  0  0  0  0
  181.1990  176.1070  139.9250 C   0  0  0  0  0  2  0  0  0  0  0  0
  182.8680  174.5530  137.2470 O   0  0  0  0  0  0  0  0  0  0  0  0
  182.0970  178.3300  142.0430 C   0  0  2  0  0  3  0  0  0  0  0  0
  183.9230  177.4490  140.5880 C   0  0  0  0  0  2  0  0  0  0  0  0
  181.3450  175.3950  138.7260 O   0  0  0  0  0  0  0  0  0  0  0  0
  182.6230  179.1210  144.3500 C   0  0  0  0  0  2  0  0  0  0  0  0
  181.1960  178.5170  140.8130 C   0  0  1  0  0  3  0  0  0  0  0  0
  181.7430  179.3450  143.1300 C   0  0  0  0  0  2  0  0  0  0  0  0
  181.8040  175.5640  135.3440 C   0  0  0  0  0  1  0  0  0  0  0  0
  184.4120  177.6070  136.3050 C   0  0  0  0  0  1  0  0  0  0  0  0
  181.5740  177.5640  139.6650 C   0  0  1  0  0  3  0  0  0  0  0  0
  184.0850  179.3320  143.9750 C   0  0  0  0  0  2  0  0  0  0  0  0
  183.5690  178.4990  141.6330 C   0  0  2  0  0  3  0  0  0  0  0  0
  185.9780  178.6090  142.4910 C   0  0  0  0  0  2  0  0  0  0  0  0
  186.8730  177.6870  143.1900 N   0  0  0  0  0  0  0  0  0  0  0  0
  188.2850  177.5060  141.3330 O   0  0  0  0  0  0  0  0  0  0  0  0
  188.0250  177.1550  142.5180 C   0  0  0  0  0  0  0  0  0  0  0  0
  188.8560  176.2440  143.1760 O   0  0  0  0  0  0  0  0  0  0  0  0
  190.1690  175.9590  142.7170 C   0  0  0  0  0  1  0  0  0  0  0  0
  186.4910  177.1840  144.5040 C   0  0  0  0  0  2  0  0  0  0  0  0
  187.1650  177.9940  145.5970 C   0  0  0  0  0  1  0  0  0  0  0  0
  1 21  1  6  0  0  0
  1 19  1  0  0  0  0
  2 17  1  6  0  0  0
  2  7  1  0  0  0  0
  4  9  1  6  0  0  0
  4 12  1  0  0  0  0
  5 18  1  0  0  0  0
  5 11  1  1  0  0  0
  6 16  1  6  0  0  0
  6  2  1  0  0  0  0
  6  9  1  0  0  0  0
  7  4  1  0  0  0  0
  7  5  1  0  0  0  0
 10 15  1  0  0  0  0
 11 20  1  0  0  0  0
 12  8  1  0  0  0  0
 14  3  1  0  0  0  0
 14 10  1  0  0  0  0
 15 13  1  0  0  0  0
 18  8  1  0  0  0  0
 18 14  1  0  0  0  0
 19 13  1  0  0  0  0
 20 10  1  0  0  0  0
 20  1  1  0  0  0  0
 21 22  1  0  0  0  0
 22 27  1  0  0  0  0
 23 24  2  0  0  0  0
 24 25  1  0  0  0  0
 24 22  1  0  0  0  0
 26 25  1  0  0  0  0
 27 28  1  0  0  0  0
M  END
>  <MODEL>
1

>  <REMARK>
 VINA RESULT:      -6.5      0.000      0.000
  Name = 
  4 active torsions:
  status: ('A' for Active; 'I' for Inactive)
    1  A    between atoms: C_1  and  C_2
    2  A    between atoms: C_2  and  N_3
    3  A    between atoms: N_3  and  C_7
    4  A    between atoms: O_6  and  C_11
                            x       y       z     vdW  Elec       q    Type
                         _______ _______ _______ _____ _____    ______ ____

>  <TORSDO>
F 4

$$$$
=
 OpenBabel10262420563D

 28 31  0  0  1  0  0  0  0  0999 V2000
  188.0690  177.9680  141.0620 C   0  0  1  0  0  3  0  0  0  0  0  0
  192.0020  175.8830  136.6480 C   0  0  1  0  0  3  0  0  0  0  0  0
  186.2640  177.2680  136.0910 S   0  0  0  0  0  1  0  0  0  0  0  0
  190.4660  174.2870  137.4560 C   0  0  2  0  0  3  0  0  0  0  0  0
  189.9920  176.7810  137.9150 C   0  0  2  0  0  3  0  0  0  0  0  0
  192.4070  174.4630  136.2990 C   0  0  1  0  0  3  0  0  0  0  0  0
  191.0390  175.6700  137.7660 C   0  0  2  0  0  3  0  0  0  0  0  0
  188.3830  175.1130  137.0110 C   0  0  0  0  0  2  0  0  0  0  0  0
  191.5290  173.5390  136.9170 O   0  0  0  0  0  0  0  0  0  0  0  0
  187.2440  177.5840  138.6910 C   0  0  2  0  0  3  0  0  0  0  0  0
  189.5140  176.7950  139.3670 C   0  0  0  0  0  2  0  0  0  0  0  0
  189.4260  174.3270  136.4990 O   0  0  0  0  0  0  0  0  0  0  0  0
  185.7340  178.6130  140.3900 C   0  0  0  0  0  2  0  0  0  0  0  0
  187.6710  177.5710  137.2160 C   0  0  1  0  0  3  0  0  0  0  0  0
  186.1650  178.6390  138.9320 C   0  0  0  0  0  2  0  0  0  0  0  0
  192.3870  174.2710  134.7940 C   0  0  0  0  0  1  0  0  0  0  0  0
  193.2070  176.6580  137.1440 C   0  0  0  0  0  1  0  0  0  0  0  0
  188.8140  176.5760  136.9500 C   0  0  1  0  0  3  0  0  0  0  0  0
  186.9210  178.9530  141.2830 C   0  0  0  0  0  2  0  0  0  0  0  0
  188.4660  177.8810  139.5770 C   0  0  2  0  0  3  0  0  0  0  0  0
  189.2520  178.3240  141.9720 C   0  0  0  0  0  2  0  0  0  0  0  0
  189.4740  177.3280  143.0200 N   0  0  0  0  0  0  0  0  0  0  0  0
  191.7560  177.8300  143.1430 O   0  0  0  0  0  0  0  0  0  0  0  0
  190.7910  177.1270  143.5550 C   0  0  0  0  0  0  0  0  0  0  0  0
  191.0060  176.1470  144.5280 O   0  0  0  0  0  0  0  0  0  0  0  0
  191.6080  176.4490  145.7770 C   0  0  0  0  0  1  0  0  0  0  0  0
  188.3860  176.4290  143.3880 C   0  0  0  0  0  2  0  0  0  0  0  0
  187.5450  177.0440  144.4930 C   0  0  0  0  0  1  0  0  0  0  0  0
  1 19  1  0  0  0  0
  1 21  1  1  0  0  0
  2 17  1  1  0  0  0
  2  7  1  0  0  0  0
  3 14  1  0  0  0  0
  4 12  1  6  0  0  0
  4  7  1  0  0  0  0
  5 11  1  1  0  0  0
  6 16  1  6  0  0  0
  6  2  1  0  0  0  0
  6  9  1  0  0  0  0
  7  5  1  0  0  0  0
  9  4  1  0  0  0  0
 10 15  1  0  0  0  0
 10 20  1  0  0  0  0
 11 20  1  0  0  0  0
 12  8  1  0  0  0  0
 13 19  1  0  0  0  0
 14 10  1  0  0  0  0
 15 13  1  0  0  0  0
 18  8  1  0  0  0  0
 18 14  1  0  0  0  0
 18  5  1  0  0  0  0
 20  1  1  0  0  0  0
 21 22  1  0  0  0  0
 22 27  1  0  0  0  0
 22 24  1  0  0  0  0
 23 24  2  0  0  0  0
 24 25  1  0  0  0  0
 25 26  1  0  0  0  0
 27 28  1  0  0  0  0
M  END
>  <MODEL>
2

>  <REMARK>
 VINA RESULT:      -6.5      4.582      6.530
  Name = 
  4 active torsions:
  status: ('A' for Active; 'I' for Inactive)
    1  A    between atoms: C_1  and  C_2
    2  A    between atoms: C_2  and  N_3
    3  A    between atoms: N_3  and  C_7
    4  A    between atoms: O_6  and  C_11
                            x       y       z     vdW  Elec       q    Type
                         _______ _______ _______ _____ _____    ______ ____

>  <TORSDO>
F 4

$$$$
=
 OpenBabel10262420563D

 28 31  0  0  1  0  0  0  0  0999 V2000
  188.5740  177.6650  142.9880 C   0  0  1  0  0  3  0  0  0  0  0  0
  187.6660  176.1450  136.9750 C   0  0  1  0  0  3  0  0  0  0  0  0
  192.7620  177.5030  139.6860 S   0  0  0  0  0  1  0  0  0  0  0  0
  188.0470  178.4360  137.3830 C   0  0  2  0  0  3  0  0  0  0  0  0
  188.6770  176.7450  139.2270 C   0  0  2  0  0  3  0  0  0  0  0  0
  187.2540  177.0170  135.8030 C   0  0  1  0  0  3  0  0  0  0  0  0
  187.7130  177.1260  138.0960 C   0  0  2  0  0  3  0  0  0  0  0  0
  190.1080  178.5850  138.3550 C   0  0  0  0  0  2  0  0  0  0  0  0
  187.3770  178.3850  136.1470 O   0  0  0  0  0  0  0  0  0  0  0  0
  190.5330  177.6110  141.3730 C   0  0  2  0  0  3  0  0  0  0  0  0
  188.1970  177.4190  140.5120 C   0  0  0  0  0  2  0  0  0  0  0  0
  189.4300  178.5840  137.1280 O   0  0  0  0  0  0  0  0  0  0  0  0
  190.9280  178.0090  143.8040 C   0  0  0  0  0  2  0  0  0  0  0  0
  191.0670  176.9530  140.0920 C   0  0  1  0  0  3  0  0  0  0  0  0
  191.4570  177.3210  142.5540 C   0  0  0  0  0  2  0  0  0  0  0  0
  188.1160  176.7060  134.5940 C   0  0  0  0  0  1  0  0  0  0  0  0
  186.6010  175.1000  137.2440 C   0  0  0  0  0  1  0  0  0  0  0  0
  190.1200  177.1560  138.8950 C   0  0  1  0  0  3  0  0  0  0  0  0
  189.5490  177.4580  144.1480 C   0  0  0  0  0  2  0  0  0  0  0  0
  189.1220  177.0790  141.6740 C   0  0  2  0  0  3  0  0  0  0  0  0
  187.1920  177.1080  143.3550 C   0  0  0  0  0  2  0  0  0  0  0  0
  186.2220  178.1640  143.6460 N   0  0  0  0  0  0  0  0  0  0  0  0
  186.0330  177.5020  145.8820 O   0  0  0  0  0  0  0  0  0  0  0  0
  185.6650  178.2860  144.9640 C   0  0  0  0  0  0  0  0  0  0  0  0
  184.7090  179.2710  145.2270 O   0  0  0  0  0  0  0  0  0  0  0  0
  183.3180  179.0220  145.0940 C   0  0  0  0  0  1  0  0  0  0  0  0
  185.7020  178.9730  142.5500 C   0  0  0  0  0  2  0  0  0  0  0  0
  184.5750  178.2420  141.8410 C   0  0  0  0  0  1  0  0  0  0  0  0
  1 21  1  1  0  0  0
  1 19  1  0  0  0  0
  2 17  1  1  0  0  0
  2  7  1  0  0  0  0
  3 14  1  0  0  0  0
  4  9  1  6  0  0  0
  4  7  1  0  0  0  0
  5 11  1  1  0  0  0
  6 16  1  6  0  0  0
  6  9  1  0  0  0  0
  6  2  1  0  0  0  0
  7  5  1  0  0  0  0
  8 18  1  0  0  0  0
 10 20  1  0  0  0  0
 10 15  1  0  0  0  0
 11 20  1  0  0  0  0
 12  4  1  0  0  0  0
 12  8  1  0  0  0  0
 13 19  1  0  0  0  0
 14 10  1  0  0  0  0
 15 13  1  0  0  0  0
 18  5  1  0  0  0  0
 18 14  1  0  0  0  0
 20  1  1  0  0  0  0
 21 22  1  0  0  0  0
 22 24  1  0  0  0  0
 24 25  1  0  0  0  0
 24 23  2  0  0  0  0
 26 25  1  0  0  0  0
 27 22  1  0  0  0  0
 28 27  1  0  0  0  0
M  END
>  <MODEL>
3

>  <REMARK>
 VINA RESULT:      -6.5      4.166      6.683
  Name = 
  4 active torsions:
  status: ('A' for Active; 'I' for Inactive)
    1  A    between atoms: C_1  and  C_2
    2  A    between atoms: C_2  and  N_3
    3  A    between atoms: N_3  and  C_7
    4  A    between atoms: O_6  and  C_11
                            x       y       z     vdW  Elec       q    Type
                         _______ _______ _______ _____ _____    ______ ____

>  <TORSDO>
F 4

$$$$
=
 OpenBabel10262420563D

 28 31  0  0  1  0  0  0  0  0999 V2000
  184.8200  178.9830  142.2470 C   0  0  1  0  0  3  0  0  0  0  0  0
  190.0900  176.1090  144.0550 C   0  0  1  0  0  3  0  0  0  0  0  0
  185.5330  177.8700  147.4150 S   0  0  0  0  0  1  0  0  0  0  0  0
  189.9880  178.4140  144.5410 C   0  0  2  0  0  3  0  0  0  0  0  0
  187.7920  177.1890  143.9660 C   0  0  2  0  0  3  0  0  0  0  0  0
  191.4530  176.6920  144.3790 C   0  0  1  0  0  3  0  0  0  0  0  0
  189.2990  177.3280  143.7170 C   0  0  2  0  0  3  0  0  0  0  0  0
  188.1750  178.7090  145.8980 C   0  0  0  0  0  2  0  0  0  0  0  0
  191.3580  178.0970  144.5330 O   0  0  0  0  0  0  0  0  0  0  0  0
  185.2180  178.4670  144.7010 C   0  0  2  0  0  3  0  0  0  0  0  0
  187.0640  178.1690  143.0460 C   0  0  0  0  0  2  0  0  0  0  0  0
  189.5510  178.4420  145.8860 O   0  0  0  0  0  0  0  0  0  0  0  0
  183.0330  179.4170  143.9610 C   0  0  0  0  0  2  0  0  0  0  0  0
  185.9190  177.5020  145.6680 C   0  0  1  0  0  3  0  0  0  0  0  0
  183.7040  178.4310  144.9050 C   0  0  0  0  0  2  0  0  0  0  0  0
  191.9970  176.0670  145.6510 C   0  0  0  0  0  1  0  0  0  0  0  0
  190.1890  175.2030  142.8440 C   0  0  0  0  0  1  0  0  0  0  0  0
  187.4400  177.4510  145.4390 C   0  0  1  0  0  3  0  0  0  0  0  0
  183.3160  179.0200  142.5180 C   0  0  0  0  0  2  0  0  0  0  0  0
  185.5570  178.0790  143.2520 C   0  0  2  0  0  3  0  0  0  0  0  0
  185.0840  178.5860  140.7880 C   0  0  0  0  0  2  0  0  0  0  0  0
  183.8530  178.4790  140.0050 N   0  0  0  0  0  0  0  0  0  0  0  0
  184.1810  180.5800  139.0300 O   0  0  0  0  0  0  0  0  0  0  0  0
  183.4550  179.5530  139.1400 C   0  0  0  0  0  0  0  0  0  0  0  0
  182.2580  179.4640  138.4240 O   0  0  0  0  0  0  0  0  0  0  0  0
  181.5430  180.6180  138.0090 C   0  0  0  0  0  1  0  0  0  0  0  0
  182.9540  177.3550  140.2420 C   0  0  0  0  0  2  0  0  0  0  0  0
  183.0560  176.3490  139.1100 C   0  0  0  0  0  1  0  0  0  0  0  0
  1 21  1  6  0  0  0
  1 19  1  0  0  0  0
  1 20  1  0  0  0  0
  2 17  1  6  0  0  0
  2  6  1  0  0  0  0
  4  9  1  1  0  0  0
  4 12  1  0  0  0  0
  5 11  1  6  0  0  0
  5 18  1  0  0  0  0
  6  9  1  0  0  0  0
  6 16  1  1  0  0  0
  7  5  1  0  0  0  0
  7  2  1  0  0  0  0
  7  4  1  0  0  0  0
 10 15  1  0  0  0  0
 10 14  1  0  0  0  0
 11 20  1  0  0  0  0
 12  8  1  0  0  0  0
 13 15  1  0  0  0  0
 14  3  1  0  0  0  0
 18 14  1  0  0  0  0
 18  8  1  0  0  0  0
 19 13  1  0  0  0  0
 20 10  1  0  0  0  0
 22 27  1  0  0  0  0
 22 21  1  0  0  0  0
 23 24  2  0  0  0  0
 24 22  1  0  0  0  0
 25 24  1  0  0  0  0
 26 25  1  0  0  0  0
 28 27  1  0  0  0  0
M  END
>  <MODEL>
4

>  <REMARK>
 VINA RESULT:      -6.4      2.941      7.831
  Name = 
  4 active torsions:
  status: ('A' for Active; 'I' for Inactive)
    1  A    between atoms: C_1  and  C_2
    2  A    between atoms: C_2  and  N_3
    3  A    between atoms: N_3  and  C_7
    4  A    between atoms: O_6  and  C_11
                            x       y       z     vdW  Elec       q    Type
                         _______ _______ _______ _____ _____    ______ ____

>  <TORSDO>
F 4

$$$$
=
 OpenBabel10262420563D

 28 31  0  0  1  0  0  0  0  0999 V2000
  184.5240  178.4720  141.9780 C   0  0  1  0  0  3  0  0  0  0  0  0
  188.0360  178.3300  136.7870 C   0  0  1  0  0  3  0  0  0  0  0  0
  182.1410  177.8760  137.2420 S   0  0  0  0  0  1  0  0  0  0  0  0
  187.2070  176.2390  137.4930 C   0  0  2  0  0  3  0  0  0  0  0  0
  186.1120  178.3720  138.4450 C   0  0  2  0  0  3  0  0  0  0  0  0
  188.7700  177.1690  136.1410 C   0  0  1  0  0  3  0  0  0  0  0  0
  187.3940  177.6800  137.9650 C   0  0  2  0  0  3  0  0  0  0  0  0
  184.9290  176.4080  137.4790 C   0  0  0  0  0  2  0  0  0  0  0  0
  188.3270  175.9440  136.6950 O   0  0  0  0  0  0  0  0  0  0  0  0
  183.4360  178.1530  139.7050 C   0  0  2  0  0  3  0  0  0  0  0  0
  185.9200  178.0470  139.9270 C   0  0  0  0  0  2  0  0  0  0  0  0
  186.0460  176.0670  136.7030 O   0  0  0  0  0  0  0  0  0  0  0  0
  182.0210  178.4210  141.7430 C   0  0  0  0  0  2  0  0  0  0  0  0
  183.5750  178.4650  138.2080 C   0  0  1  0  0  3  0  0  0  0  0  0
  182.1560  178.7700  140.2680 C   0  0  0  0  0  2  0  0  0  0  0  0
  188.5360  177.1750  134.6410 C   0  0  0  0  0  1  0  0  0  0  0  0
  189.0280  179.3780  137.2490 C   0  0  0  0  0  1  0  0  0  0  0  0
  184.8930  177.9280  137.6220 C   0  0  1  0  0  3  0  0  0  0  0  0
  183.1960  179.0040  142.5180 C   0  0  0  0  0  2  0  0  0  0  0  0
  184.6550  178.7070  140.4610 C   0  0  2  0  0  3  0  0  0  0  0  0
  185.6940  179.0670  142.7730 C   0  0  0  0  0  2  0  0  0  0  0  0
  186.2090  178.1460  143.7850 N   0  0  0  0  0  0  0  0  0  0  0  0
  185.1560  179.3140  145.5170 O   0  0  0  0  0  0  0  0  0  0  0  0
  185.8980  178.3530  145.1720 C   0  0  0  0  0  0  0  0  0  0  0  0
  186.4250  177.4940  146.1400 O   0  0  0  0  0  0  0  0  0  0  0  0
  187.6060  177.8080  146.8600 C   0  0  0  0  0  1  0  0  0  0  0  0
  187.1740  177.1260  143.3940 C   0  0  0  0  0  2  0  0  0  0  0  0
  188.4600  177.7720  142.9100 C   0  0  0  0  0  1  0  0  0  0  0  0
  1 19  1  0  0  0  0
  1 21  1  1  0  0  0
  2 17  1  1  0  0  0
  2  7  1  0  0  0  0
  3 14  1  0  0  0  0
  4  9  1  6  0  0  0
  4  7  1  0  0  0  0
  5 11  1  1  0  0  0
  6 16  1  6  0  0  0
  6  9  1  0  0  0  0
  6  2  1  0  0  0  0
  7  5  1  0  0  0  0
  8 18  1  0  0  0  0
 10 15  1  0  0  0  0
 10 20  1  0  0  0  0
 11 20  1  0  0  0  0
 12  8  1  0  0  0  0
 12  4  1  0  0  0  0
 13 19  1  0  0  0  0
 14 10  1  0  0  0  0
 15 13  1  0  0  0  0
 18 14  1  0  0  0  0
 18  5  1  0  0  0  0
 20  1  1  0  0  0  0
 21 22  1  0  0  0  0
 22 24  1  0  0  0  0
 24 23  2  0  0  0  0
 24 25  1  0  0  0  0
 25 26  1  0  0  0  0
 27 22  1  0  0  0  0
 28 27  1  0  0  0  0
M  END
>  <MODEL>
5

>  <REMARK>
 VINA RESULT:      -6.4      2.925      4.000
  Name = 
  4 active torsions:
  status: ('A' for Active; 'I' for Inactive)
    1  A    between atoms: C_1  and  C_2
    2  A    between atoms: C_2  and  N_3
    3  A    between atoms: N_3  and  C_7
    4  A    between atoms: O_6  and  C_11
                            x       y       z     vdW  Elec       q    Type
                         _______ _______ _______ _____ _____    ______ ____

>  <TORSDO>
F 4

$$$$
=
 OpenBabel10262420563D

 28 31  0  0  1  0  0  0  0  0999 V2000
  190.9190  177.1350  138.2950 C   0  0  1  0  0  3  0  0  0  0  0  0
  191.0900  175.9930  144.4570 C   0  0  1  0  0  3  0  0  0  0  0  0
  186.7940  178.6280  141.3320 S   0  0  0  0  0  1  0  0  0  0  0  0
  191.4790  178.2350  143.8420 C   0  0  2  0  0  3  0  0  0  0  0  0
  190.4000  176.6630  142.1050 C   0  0  2  0  0  3  0  0  0  0  0  0
  191.7210  176.7980  145.5780 C   0  0  1  0  0  3  0  0  0  0  0  0
  191.3980  176.8260  143.2590 C   0  0  2  0  0  3  0  0  0  0  0  0
  189.6090  178.9360  142.7340 C   0  0  0  0  0  2  0  0  0  0  0  0
  192.0560  178.0950  145.1180 O   0  0  0  0  0  0  0  0  0  0  0  0
  188.9940  177.8610  139.7850 C   0  0  2  0  0  3  0  0  0  0  0  0
  191.1140  177.0230  140.8020 C   0  0  0  0  0  2  0  0  0  0  0  0
  190.2090  178.8380  143.9980 O   0  0  0  0  0  0  0  0  0  0  0  0
  188.8290  178.1270  137.3090 C   0  0  0  0  0  2  0  0  0  0  0  0
  188.2350  177.5330  141.0790 C   0  0  1  0  0  3  0  0  0  0  0  0
  188.0650  177.7670  138.5750 C   0  0  0  0  0  2  0  0  0  0  0  0
  190.7650  176.8940  146.7520 C   0  0  0  0  0  1  0  0  0  0  0  0
  191.7710  174.6440  144.3400 C   0  0  0  0  0  1  0  0  0  0  0  0
  189.1560  177.5400  142.3120 C   0  0  1  0  0  3  0  0  0  0  0  0
  189.9680  177.1370  137.0980 C   0  0  0  0  0  2  0  0  0  0  0  0
  190.1680  176.8820  139.6160 C   0  0  2  0  0  3  0  0  0  0  0  0
  192.0600  176.1360  138.0610 C   0  0  0  0  0  2  0  0  0  0  0  0
  191.9770  175.4880  136.7530 N   0  0  0  0  0  0  0  0  0  0  0  0
  190.6480  173.7550  137.5930 O   0  0  0  0  0  0  0  0  0  0  0  0
  191.2450  174.2610  136.6030 C   0  0  0  0  0  0  0  0  0  0  0  0
  191.2010  173.6240  135.3600 O   0  0  0  0  0  0  0  0  0  0  0  0
  190.1390  172.7550  134.9990 C   0  0  0  0  0  1  0  0  0  0  0  0
  192.7810  176.0030  135.6510 C   0  0  0  0  0  2  0  0  0  0  0  0
  194.1760  176.3570  136.1350 C   0  0  0  0  0  1  0  0  0  0  0  0
  1 21  1  6  0  0  0
  1 20  1  0  0  0  0
  2 17  1  6  0  0  0
  2  6  1  0  0  0  0
  4 12  1  1  0  0  0
  4  9  1  0  0  0  0
  5 11  1  6  0  0  0
  5 18  1  0  0  0  0
  5  7  1  0  0  0  0
  6 16  1  1  0  0  0
  7  4  1  0  0  0  0
  7  2  1  0  0  0  0
  8 12  1  0  0  0  0
  9  6  1  0  0  0  0
 10 14  1  0  0  0  0
 13 15  1  0  0  0  0
 14  3  1  0  0  0  0
 14 18  1  0  0  0  0
 15 10  1  0  0  0  0
 18  8  1  0  0  0  0
 19 13  1  0  0  0  0
 19  1  1  0  0  0  0
 20 10  1  0  0  0  0
 20 11  1  0  0  0  0
 22 21  1  0  0  0  0
 24 22  1  0  0  0  0
 24 23  2  0  0  0  0
 25 24  1  0  0  0  0
 26 25  1  0  0  0  0
 27 28  1  0  0  0  0
 27 22  1  0  0  0  0
M  END
>  <MODEL>
6

>  <REMARK>
 VINA RESULT:      -6.4      5.747      9.459
  Name = 
  4 active torsions:
  status: ('A' for Active; 'I' for Inactive)
    1  A    between atoms: C_1  and  C_2
    2  A    between atoms: C_2  and  N_3
    3  A    between atoms: N_3  and  C_7
    4  A    between atoms: O_6  and  C_11
                            x       y       z     vdW  Elec       q    Type
                         _______ _______ _______ _____ _____    ______ ____

>  <TORSDO>
F 4

$$$$
=
 OpenBabel10262420563D

 28 31  0  0  1  0  0  0  0  0999 V2000
  183.8380  178.4750  143.0910 C   0  0  1  0  0  3  0  0  0  0  0  0
  184.2360  177.1210  136.9820 C   0  0  1  0  0  3  0  0  0  0  0  0
  179.3780  178.3110  140.1680 S   0  0  0  0  0  1  0  0  0  0  0  0
  183.4340  175.3730  138.3470 C   0  0  2  0  0  3  0  0  0  0  0  0
  183.4310  177.7680  139.3030 C   0  0  2  0  0  3  0  0  0  0  0  0
  184.2920  175.7730  136.2870 C   0  0  1  0  0  3  0  0  0  0  0  0
  184.1320  176.7300  138.4180 C   0  0  2  0  0  3  0  0  0  0  0  0
  181.5380  176.1540  139.3510 C   0  0  0  0  0  2  0  0  0  0  0  0
  183.9280  174.7440  137.1890 O   0  0  0  0  0  0  0  0  0  0  0  0
  181.7380  178.3500  141.6690 C   0  0  2  0  0  3  0  0  0  0  0  0
  183.9240  177.5830  140.7380 C   0  0  0  0  0  2  0  0  0  0  0  0
  182.0300  175.4840  138.2220 O   0  0  0  0  0  0  0  0  0  0  0  0
  181.5960  179.0950  144.0460 C   0  0  0  0  0  2  0  0  0  0  0  0
  181.1890  178.5360  140.2460 C   0  0  1  0  0  3  0  0  0  0  0  0
  181.0630  179.3190  142.6390 C   0  0  0  0  0  2  0  0  0  0  0  0
  183.3620  175.7660  135.0880 C   0  0  0  0  0  1  0  0  0  0  0  0
  185.5250  177.8820  136.7440 C   0  0  0  0  0  1  0  0  0  0  0  0
  181.9020  177.6320  139.2250 C   0  0  1  0  0  3  0  0  0  0  0  0
  183.0940  179.3750  144.0780 C   0  0  0  0  0  2  0  0  0  0  0  0
  183.2570  178.5880  141.6690 C   0  0  2  0  0  3  0  0  0  0  0  0
  185.3440  178.7690  143.1400 C   0  0  0  0  0  2  0  0  0  0  0  0
  186.0510  177.9080  144.0880 N   0  0  0  0  0  0  0  0  0  0  0  0
  185.6470  179.3750  145.8650 O   0  0  0  0  0  0  0  0  0  0  0  0
  186.1750  178.3010  145.4640 C   0  0  0  0  0  0  0  0  0  0  0  0
  186.8850  177.4950  146.3570 O   0  0  0  0  0  0  0  0  0  0  0  0
  187.5150  178.0280  147.5110 C   0  0  0  0  0  1  0  0  0  0  0  0
  186.7730  176.7430  143.5890 C   0  0  0  0  0  2  0  0  0  0  0  0
  187.9910  177.1770  142.7930 C   0  0  0  0  0  1  0  0  0  0  0  0
  1 21  1  6  0  0  0
  1 19  1  0  0  0  0
  2 17  1  1  0  0  0
  2  7  1  0  0  0  0
  3 14  1  0  0  0  0
  4  9  1  6  0  0  0
  4  7  1  0  0  0  0
  5 11  1  1  0  0  0
  6 16  1  6  0  0  0
  6  2  1  0  0  0  0
  6  9  1  0  0  0  0
  7  5  1  0  0  0  0
 10 20  1  0  0  0  0
 10 15  1  0  0  0  0
 11 20  1  0  0  0  0
 12  4  1  0  0  0  0
 12  8  1  0  0  0  0
 13 19  1  0  0  0  0
 14 10  1  0  0  0  0
 15 13  1  0  0  0  0
 18  5  1  0  0  0  0
 18  8  1  0  0  0  0
 18 14  1  0  0  0  0
 20  1  1  0  0  0  0
 21 22  1  0  0  0  0
 22 24  1  0  0  0  0
 24 23  2  0  0  0  0
 24 25  1  0  0  0  0
 25 26  1  0  0  0  0
 27 22  1  0  0  0  0
 28 27  1  0  0  0  0
M  END
>  <MODEL>
7

>  <REMARK>
 VINA RESULT:      -6.0      1.556      2.094
  Name = 
  4 active torsions:
  status: ('A' for Active; 'I' for Inactive)
    1  A    between atoms: C_1  and  C_2
    2  A    between atoms: C_2  and  N_3
    3  A    between atoms: N_3  and  C_7
    4  A    between atoms: O_6  and  C_11
                            x       y       z     vdW  Elec       q    Type
                         _______ _______ _______ _____ _____    ______ ____

>  <TORSDO>
F 4

$$$$
=
 OpenBabel10262420563D

 28 31  0  0  1  0  0  0  0  0999 V2000
  189.3950  176.8970  139.7380 C   0  0  1  0  0  3  0  0  0  0  0  0
  186.0080  178.9700  144.5890 C   0  0  1  0  0  3  0  0  0  0  0  0
  191.8900  178.3080  144.2370 S   0  0  0  0  0  1  0  0  0  0  0  0
  186.8200  176.7670  144.8020 C   0  0  2  0  0  3  0  0  0  0  0  0
  187.8920  178.2960  143.0230 C   0  0  2  0  0  3  0  0  0  0  0  0
  185.2900  178.1920  145.6760 C   0  0  1  0  0  3  0  0  0  0  0  0
  186.6210  177.8810  143.7760 C   0  0  2  0  0  3  0  0  0  0  0  0
  189.0970  176.9030  144.6950 C   0  0  0  0  0  2  0  0  0  0  0  0
  185.7190  176.8430  145.6750 O   0  0  0  0  0  0  0  0  0  0  0  0
  190.5370  177.5440  141.9120 C   0  0  2  0  0  3  0  0  0  0  0  0
  188.0480  177.3810  141.8090 C   0  0  0  0  0  2  0  0  0  0  0  0
  187.9990  176.9290  145.5670 O   0  0  0  0  0  0  0  0  0  0  0  0
  191.9030  176.9230  139.9180 C   0  0  0  0  0  2  0  0  0  0  0  0
  190.4340  178.4540  143.1450 C   0  0  1  0  0  3  0  0  0  0  0  0
  191.8030  177.8560  141.1150 C   0  0  0  0  0  2  0  0  0  0  0  0
  185.5590  178.8210  147.0310 C   0  0  0  0  0  1  0  0  0  0  0  0
  185.0050  179.7400  143.7530 C   0  0  0  0  0  1  0  0  0  0  0  0
  189.1300  178.2240  143.9300 C   0  0  1  0  0  3  0  0  0  0  0  0
  190.7090  177.1410  138.9970 C   0  0  0  0  0  2  0  0  0  0  0  0
  189.3000  177.7440  141.0200 C   0  0  2  0  0  3  0  0  0  0  0  0
  188.2060  177.1180  138.7930 C   0  0  0  0  0  2  0  0  0  0  0  0
  188.4680  176.6280  137.4400 N   0  0  0  0  0  0  0  0  0  0  0  0
  188.6730  178.7990  136.5930 O   0  0  0  0  0  0  0  0  0  0  0  0
  188.6820  177.5580  136.3660 C   0  0  0  0  0  0  0  0  0  0  0  0
  188.8930  177.0860  135.0680 O   0  0  0  0  0  0  0  0  0  0  0  0
  190.1850  176.7400  134.5950 C   0  0  0  0  0  1  0  0  0  0  0  0
  188.3400  175.2020  137.1620 C   0  0  0  0  0  2  0  0  0  0  0  0
  186.9020  174.8590  136.8140 C   0  0  0  0  0  1  0  0  0  0  0  0
  1 21  1  6  0  0  0
  1 20  1  0  0  0  0
  2 17  1  6  0  0  0
  2  6  1  0  0  0  0
  4 12  1  1  0  0  0
  4  9  1  0  0  0  0
  5 11  1  6  0  0  0
  5  7  1  0  0  0  0
  5 18  1  0  0  0  0
  6 16  1  1  0  0  0
  7  2  1  0  0  0  0
  7  4  1  0  0  0  0
  8 12  1  0  0  0  0
  9  6  1  0  0  0  0
 10 14  1  0  0  0  0
 13 15  1  0  0  0  0
 14 18  1  0  0  0  0
 14  3  1  0  0  0  0
 15 10  1  0  0  0  0
 18  8  1  0  0  0  0
 19  1  1  0  0  0  0
 19 13  1  0  0  0  0
 20 11  1  0  0  0  0
 20 10  1  0  0  0  0
 22 21  1  0  0  0  0
 24 23  2  0  0  0  0
 24 22  1  0  0  0  0
 25 24  1  0  0  0  0
 26 25  1  0  0  0  0
 27 22  1  0  0  0  0
 28 27  1  0  0  0  0
M  END
>  <MODEL>
8

>  <REMARK>
 VINA RESULT:      -5.8      4.829      8.408
  Name = 
  4 active torsions:
  status: ('A' for Active; 'I' for Inactive)
    1  A    between atoms: C_1  and  C_2
    2  A    between atoms: C_2  and  N_3
    3  A    between atoms: N_3  and  C_7
    4  A    between atoms: O_6  and  C_11
                            x       y       z     vdW  Elec       q    Type
                         _______ _______ _______ _____ _____    ______ ____

>  <TORSDO>
F 4

$$$$
=
 OpenBabel10262420563D

 28 31  0  0  1  0  0  0  0  0999 V2000
  186.4590  178.2260  142.8040 C   0  0  1  0  0  3  0  0  0  0  0  0
  181.0970  177.4920  139.6400 C   0  0  1  0  0  3  0  0  0  0  0  0
  186.4700  178.8010  137.5000 S   0  0  0  0  0  1  0  0  0  0  0  0
  181.8060  179.7250  139.9070 C   0  0  2  0  0  3  0  0  0  0  0  0
  183.5240  177.8430  140.3050 C   0  0  2  0  0  3  0  0  0  0  0  0
  179.9840  178.4880  139.3690 C   0  0  1  0  0  3  0  0  0  0  0  0
  182.0680  178.3110  140.4220 C   0  0  2  0  0  3  0  0  0  0  0  0
  183.8550  179.8770  138.9110 C   0  0  0  0  0  2  0  0  0  0  0  0
  180.4210  179.8010  139.6700 O   0  0  0  0  0  0  0  0  0  0  0  0
  186.4100  178.5270  140.2830 C   0  0  2  0  0  3  0  0  0  0  0  0
  184.2750  178.2990  141.5560 C   0  0  0  0  0  2  0  0  0  0  0  0
  182.4750  179.9990  138.6920 O   0  0  0  0  0  0  0  0  0  0  0  0
  188.5810  178.6100  141.5100 C   0  0  0  0  0  2  0  0  0  0  0  0
  185.6970  178.0890  138.9950 C   0  0  1  0  0  3  0  0  0  0  0  0
  187.8870  178.1390  140.2410 C   0  0  0  0  0  2  0  0  0  0  0  0
  179.5540  178.4050  137.9160 C   0  0  0  0  0  1  0  0  0  0  0  0
  180.5760  176.3520  140.4920 C   0  0  0  0  0  1  0  0  0  0  0  0
  184.1890  178.3910  139.0330 C   0  0  1  0  0  3  0  0  0  0  0  0
  187.9560  177.9270  142.7200 C   0  0  0  0  0  2  0  0  0  0  0  0
  185.7340  177.8640  141.4950 C   0  0  2  0  0  3  0  0  0  0  0  0
  185.8500  177.5330  144.0300 C   0  0  0  0  0  2  0  0  0  0  0  0
  186.0200  178.3120  145.2560 N   0  0  0  0  0  0  0  0  0  0  0  0
  187.7680  176.9420  145.9940 O   0  0  0  0  0  0  0  0  0  0  0  0
  187.0160  177.9310  146.2180 C   0  0  0  0  0  0  0  0  0  0  0  0
  187.1490  178.6550  147.4060 O   0  0  0  0  0  0  0  0  0  0  0  0
  188.0690  178.2750  148.4180 C   0  0  0  0  0  1  0  0  0  0  0  0
  185.0610  179.3640  145.5690 C   0  0  0  0  0  2  0  0  0  0  0  0
  183.6710  178.9690  145.1020 C   0  0  0  0  0  1  0  0  0  0  0  0
  1 21  1  1  0  0  0
  2  7  1  0  0  0  0
  2 17  1  1  0  0  0
  3 14  1  0  0  0  0
  4 12  1  6  0  0  0
  4  7  1  0  0  0  0
  5  7  1  0  0  0  0
  5 11  1  1  0  0  0
  6 16  1  6  0  0  0
  6  2  1  0  0  0  0
  6  9  1  0  0  0  0
  8 18  1  0  0  0  0
  9  4  1  0  0  0  0
 10 20  1  0  0  0  0
 12  8  1  0  0  0  0
 13 19  1  0  0  0  0
 14 18  1  0  0  0  0
 14 10  1  0  0  0  0
 15 10  1  0  0  0  0
 15 13  1  0  0  0  0
 18  5  1  0  0  0  0
 19  1  1  0  0  0  0
 20 11  1  0  0  0  0
 20  1  1  0  0  0  0
 21 22  1  0  0  0  0
 22 27  1  0  0  0  0
 22 24  1  0  0  0  0
 23 24  2  0  0  0  0
 24 25  1  0  0  0  0
 25 26  1  0  0  0  0
 28 27  1  0  0  0  0
M  END
>  <MODEL>
9

>  <REMARK>
 VINA RESULT:      -5.7      2.994      4.575
  Name = 
  4 active torsions:
  status: ('A' for Active; 'I' for Inactive)
    1  A    between atoms: C_1  and  C_2
    2  A    between atoms: C_2  and  N_3
    3  A    between atoms: N_3  and  C_7
    4  A    between atoms: O_6  and  C_11
                            x       y       z     vdW  Elec       q    Type
                         _______ _______ _______ _____ _____    ______ ____

>  <TORSDO>
F 4

$$$$
