=
 OpenBabel10262421073D

 32 37  0  0  1  0  0  0  0  0999 V2000
  189.6000  178.0440  142.4920 C   0  0  0  0  0  0  0  0  0  0  0  0
  187.6950  177.6210  144.0380 C   0  0  1  0  0  3  0  0  0  0  0  0
  191.0510  178.0240  142.1980 C   0  0  0  0  0  3  0  0  0  0  0  0
  189.1700  177.7550  143.7450 C   0  0  0  0  0  0  0  0  0  0  0  0
  187.3550  177.9010  145.5170 C   0  0  1  0  0  3  0  0  0  0  0  0
  182.1350  179.2840  143.2360 O   0  0  0  0  0  0  0  0  0  0  0  0
  186.8110  178.4600  143.0980 C   0  0  1  0  0  3  0  0  0  0  0  0
  183.7100  178.7080  144.8860 N   0  0  0  0  0  2  0  0  0  0  0  0
  185.1470  178.5930  144.7470 C   0  0  1  0  0  3  0  0  0  0  0  0
  190.1520  177.2000  144.7670 C   0  0  2  0  0  3  0  0  0  0  0  0
  185.8460  177.7120  145.7660 C   0  0  0  0  0  2  0  0  0  0  0  0
  189.6890  177.4380  146.2050 C   0  0  0  0  0  2  0  0  0  0  0  0
  191.5380  177.8280  144.6050 C   0  0  0  0  0  2  0  0  0  0  0  0
  187.1810  178.0880  141.6720 C   0  0  0  0  0  2  0  0  0  0  0  0
  188.6380  178.4810  141.3950 C   0  0  2  0  0  3  0  0  0  0  0  0
  185.4220  178.1130  143.3930 N   0  0  1  0  0  0  0  0  0  0  0  0
  188.2300  177.0390  146.4270 C   0  0  1  0  0  3  0  0  0  0  0  0
  191.9570  177.8780  143.1660 C   0  0  0  0  0  3  0  0  0  0  0  0
  183.3130  178.9730  143.5530 C   0  0  0  0  0  0  0  0  0  0  0  0
  184.4320  178.8270  142.5930 C   0  0  0  0  0  2  0  0  0  0  0  0
  187.1700  177.7790  138.2120 C   0  0  1  0  0  3  0  0  0  0  0  0
  188.9280  175.1080  136.8270 O   0  0  0  0  0  1  0  0  0  0  0  0
  186.7310  178.3390  137.0240 F   0  0  0  0  0  0  0  0  0  0  0  0
  189.7560  176.2010  138.7870 C   0  0  0  0  0  2  0  0  0  0  0  0
  189.0770  177.9910  140.0130 C   0  0  1  0  0  3  0  0  0  0  0  0
  187.4790  176.4060  138.0340 O   0  0  0  0  0  0  0  0  0  0  0  0
  189.0860  176.5820  139.9620 O   0  0  0  0  0  0  0  0  0  0  0  0
  188.2410  178.6670  138.9010 C   0  0  1  0  0  3  0  0  0  0  0  0
  189.0970  179.2310  137.9520 O   0  0  0  0  0  1  0  0  0  0  0  0
  188.8050  176.2700  137.5880 C   0  0  2  0  0  3  0  0  0  0  0  0
  187.8750  177.2650  147.8920 C   0  0  0  0  0  2  0  0  0  0  0  0
  188.8040  178.2940  148.5070 C   0  0  0  0  0  1  0  0  0  0  0  0
  1  4  2  0  0  0  0
  2  4  1  1  0  0  0
  2  5  1  0  0  0  0
  3  1  1  0  0  0  0
  3 18  2  0  0  0  0
  4 10  1  0  0  0  0
  5 11  1  6  0  0  0
  5 17  1  0  0  0  0
  6 19  2  0  0  0  0
  7 14  1  6  0  0  0
  7 16  1  0  0  0  0
  7  2  1  0  0  0  0
  9  8  1  0  0  0  0
  9 11  1  1  0  0  0
 10 13  1  1  0  0  0
 10 12  1  0  0  0  0
 12 17  1  0  0  0  0
 15 14  1  1  0  0  0
 15  1  1  0  0  0  0
 16 20  1  6  0  0  0
 16  9  1  0  0  0  0
 17 31  1  1  0  0  0
 18 13  1  0  0  0  0
 19  8  1  0  0  0  0
 20 19  1  0  0  0  0
 21 23  1  6  0  0  0
 21 28  1  0  0  0  0
 24 27  1  0  0  0  0
 25 27  1  1  0  0  0
 25 15  1  0  0  0  0
 26 21  1  0  0  0  0
 28 29  1  6  0  0  0
 28 25  1  0  0  0  0
 30 22  1  1  0  0  0
 30 26  1  0  0  0  0
 30 24  1  0  0  0  0
 31 32  1  0  0  0  0
M  END
>  <MODEL>
1

>  <REMARK>
 VINA RESULT:     -11.0      0.000      0.000
  Name = 
  2 active torsions:
  status: ('A' for Active; 'I' for Inactive)
    1  A    between atoms: C_13  and  C_29
    2  A    between atoms: C_16  and  C_27
                            x       y       z     vdW  Elec       q    Type
                         _______ _______ _______ _____ _____    ______ ____

>  <TORSDO>
F 2

$$$$
=
 OpenBabel10262421073D

 32 37  0  0  1  0  0  0  0  0999 V2000
  189.3230  177.7210  142.2380 C   0  0  0  0  0  0  0  0  0  0  0  0
  187.5190  177.5360  143.9420 C   0  0  1  0  0  3  0  0  0  0  0  0
  190.7460  177.5930  141.8460 C   0  0  0  0  0  3  0  0  0  0  0  0
  188.9730  177.5590  143.5370 C   0  0  0  0  0  0  0  0  0  0  0  0
  187.3040  177.9520  145.4120 C   0  0  1  0  0  3  0  0  0  0  0  0
  182.0100  179.4510  143.3920 O   0  0  0  0  0  0  0  0  0  0  0  0
  186.6130  178.3470  142.9990 C   0  0  1  0  0  3  0  0  0  0  0  0
  183.6710  178.9180  144.9710 N   0  0  0  0  0  2  0  0  0  0  0  0
  185.0850  178.7090  144.7430 C   0  0  1  0  0  3  0  0  0  0  0  0
  189.9970  177.0310  144.5310 C   0  0  2  0  0  3  0  0  0  0  0  0
  185.8110  177.8720  145.7810 C   0  0  0  0  0  2  0  0  0  0  0  0
  189.6560  177.4110  145.9730 C   0  0  0  0  0  2  0  0  0  0  0  0
  191.3990  177.5620  144.2210 C   0  0  0  0  0  2  0  0  0  0  0  0
  186.8560  177.8400  141.5870 C   0  0  0  0  0  2  0  0  0  0  0  0
  188.3070  178.1240  141.1780 C   0  0  2  0  0  3  0  0  0  0  0  0
  185.2340  178.1060  143.4180 N   0  0  1  0  0  0  0  0  0  0  0  0
  188.1980  177.1160  146.3290 C   0  0  1  0  0  3  0  0  0  0  0  0
  191.7120  177.4720  142.7570 C   0  0  0  0  0  3  0  0  0  0  0  0
  183.1900  179.0980  143.6520 C   0  0  0  0  0  0  0  0  0  0  0  0
  184.2250  178.8110  142.6320 C   0  0  0  0  0  2  0  0  0  0  0  0
  188.6810  179.1670  137.7780 C   0  0  1  0  0  3  0  0  0  0  0  0
  187.5010  176.5800  135.7650 O   0  0  0  0  0  1  0  0  0  0  0  0
  189.5540  179.7240  136.8600 F   0  0  0  0  0  0  0  0  0  0  0  0
  187.8130  176.2270  138.1100 C   0  0  0  0  0  2  0  0  0  0  0  0
  188.6160  177.5000  139.8140 C   0  0  1  0  0  3  0  0  0  0  0  0
  187.6740  178.4170  137.1200 O   0  0  0  0  0  0  0  0  0  0  0  0
  187.4370  177.0250  139.2040 O   0  0  0  0  0  0  0  0  0  0  0  0
  189.4420  178.4730  138.9410 C   0  0  1  0  0  3  0  0  0  0  0  0
  190.5800  177.8190  138.4630 O   0  0  0  0  0  1  0  0  0  0  0  0
  188.1270  177.1050  136.8950 C   0  0  2  0  0  3  0  0  0  0  0  0
  187.9660  177.4800  147.7900 C   0  0  0  0  0  2  0  0  0  0  0  0
  189.1560  178.2410  148.3410 C   0  0  0  0  0  1  0  0  0  0  0  0
  1  4  2  0  0  0  0
  2  4  1  6  0  0  0
  2  5  1  0  0  0  0
  3  1  1  0  0  0  0
  3 18  2  0  0  0  0
  4 10  1  0  0  0  0
  5 11  1  1  0  0  0
  5 17  1  0  0  0  0
  6 19  2  0  0  0  0
  7 14  1  6  0  0  0
  7 16  1  0  0  0  0
  7  2  1  0  0  0  0
  9  8  1  0  0  0  0
  9 11  1  1  0  0  0
 10 13  1  6  0  0  0
 10 12  1  0  0  0  0
 12 17  1  0  0  0  0
 15 14  1  1  0  0  0
 15  1  1  0  0  0  0
 16 20  1  6  0  0  0
 16  9  1  0  0  0  0
 17 31  1  1  0  0  0
 18 13  1  0  0  0  0
 19  8  1  0  0  0  0
 20 19  1  0  0  0  0
 21 23  1  6  0  0  0
 21 28  1  0  0  0  0
 24 27  1  0  0  0  0
 25 27  1  6  0  0  0
 25 15  1  0  0  0  0
 26 21  1  0  0  0  0
 28 29  1  6  0  0  0
 28 25  1  0  0  0  0
 30 22  1  6  0  0  0
 30 26  1  0  0  0  0
 30 24  1  0  0  0  0
 31 32  1  0  0  0  0
M  END
>  <MODEL>
2

>  <REMARK>
 VINA RESULT:     -10.2      1.070      1.159
  Name = 
  2 active torsions:
  status: ('A' for Active; 'I' for Inactive)
    1  A    between atoms: C_13  and  C_29
    2  A    between atoms: C_16  and  C_27
                            x       y       z     vdW  Elec       q    Type
                         _______ _______ _______ _____ _____    ______ ____

>  <TORSDO>
F 2

$$$$
=
 OpenBabel10262421073D

 32 37  0  0  1  0  0  0  0  0999 V2000
  189.0240  178.2550  142.1870 C   0  0  0  0  0  0  0  0  0  0  0  0
  186.7200  177.9130  143.0640 C   0  0  1  0  0  3  0  0  0  0  0  0
  190.4920  178.2350  142.3770 C   0  0  0  0  0  3  0  0  0  0  0  0
  188.2120  178.0460  143.2520 C   0  0  0  0  0  0  0  0  0  0  0  0
  185.9240  178.2880  144.3310 C   0  0  1  0  0  3  0  0  0  0  0  0
  181.7280  179.4400  140.4040 O   0  0  0  0  0  0  0  0  0  0  0  0
  186.1930  178.6730  141.8340 C   0  0  1  0  0  3  0  0  0  0  0  0
  182.6840  179.0000  142.5080 N   0  0  0  0  0  2  0  0  0  0  0  0
  184.0870  178.8960  142.8470 C   0  0  1  0  0  3  0  0  0  0  0  0
  188.8070  177.5760  144.5710 C   0  0  2  0  0  3  0  0  0  0  0  0
  184.4140  178.0960  144.0950 C   0  0  0  0  0  2  0  0  0  0  0  0
  187.9090  177.9070  145.7640 C   0  0  0  0  0  2  0  0  0  0  0  0
  190.1780  178.2110  144.8200 C   0  0  0  0  0  2  0  0  0  0  0  0
  186.9980  178.2090  140.6320 C   0  0  0  0  0  2  0  0  0  0  0  0
  188.4700  178.6020  140.8110 C   0  0  2  0  0  3  0  0  0  0  0  0
  184.7800  178.3280  141.6900 N   0  0  1  0  0  0  0  0  0  0  0  0
  186.4530  177.5030  145.5320 C   0  0  1  0  0  3  0  0  0  0  0  0
  191.0380  178.1680  143.5920 C   0  0  0  0  0  3  0  0  0  0  0  0
  182.7380  179.1680  141.1040 C   0  0  0  0  0  0  0  0  0  0  0  0
  184.1050  178.9720  140.5670 C   0  0  0  0  0  2  0  0  0  0  0  0
  188.0090  176.8250  137.7440 C   0  0  1  0  0  3  0  0  0  0  0  0
  190.7360  174.6880  137.3650 O   0  0  0  0  0  1  0  0  0  0  0  0
  187.6970  176.9550  136.4010 F   0  0  0  0  0  0  0  0  0  0  0  0
  190.7540  176.3640  139.0720 C   0  0  0  0  0  2  0  0  0  0  0  0
  189.3260  178.0250  139.6810 C   0  0  1  0  0  3  0  0  0  0  0  0
  188.7410  175.6320  137.9740 O   0  0  0  0  0  0  0  0  0  0  0  0
  189.7610  176.7220  140.0000 O   0  0  0  0  0  0  0  0  0  0  0  0
  188.5930  178.1420  138.3250 C   0  0  1  0  0  3  0  0  0  0  0  0
  189.4310  178.7620  137.3940 O   0  0  0  0  0  1  0  0  0  0  0  0
  190.1120  175.8670  137.7730 C   0  0  2  0  0  3  0  0  0  0  0  0
  185.6480  177.8240  146.7860 C   0  0  0  0  0  2  0  0  0  0  0  0
  186.0550  179.1740  147.3430 C   0  0  0  0  0  1  0  0  0  0  0  0
  1  3  1  0  0  0  0
  1  4  2  0  0  0  0
  2  4  1  1  0  0  0
  2  5  1  0  0  0  0
  3 18  2  0  0  0  0
  4 10  1  0  0  0  0
  5 11  1  6  0  0  0
  5 17  1  0  0  0  0
  6 19  2  0  0  0  0
  7 14  1  6  0  0  0
  7  2  1  0  0  0  0
  8  9  1  0  0  0  0
  9 11  1  1  0  0  0
 10 13  1  1  0  0  0
 10 12  1  0  0  0  0
 15 14  1  1  0  0  0
 15  1  1  0  0  0  0
 16 20  1  6  0  0  0
 16  7  1  0  0  0  0
 16  9  1  0  0  0  0
 17 12  1  0  0  0  0
 17 31  1  1  0  0  0
 18 13  1  0  0  0  0
 19  8  1  0  0  0  0
 20 19  1  0  0  0  0
 21 23  1  6  0  0  0
 21 26  1  0  0  0  0
 21 28  1  0  0  0  0
 24 27  1  0  0  0  0
 25 27  1  1  0  0  0
 25 15  1  0  0  0  0
 28 29  1  6  0  0  0
 28 25  1  0  0  0  0
 30 22  1  1  0  0  0
 30 26  1  0  0  0  0
 30 24  1  0  0  0  0
 31 32  1  0  0  0  0
M  END
>  <MODEL>
3

>  <REMARK>
 VINA RESULT:      -9.5      1.368      1.724
  Name = 
  2 active torsions:
  status: ('A' for Active; 'I' for Inactive)
    1  A    between atoms: C_13  and  C_29
    2  A    between atoms: C_16  and  C_27
                            x       y       z     vdW  Elec       q    Type
                         _______ _______ _______ _____ _____    ______ ____

>  <TORSDO>
F 2

$$$$
=
 OpenBabel10262421073D

 32 37  0  0  1  0  0  0  0  0999 V2000
  184.8480  178.3950  143.4670 C   0  0  0  0  0  0  0  0  0  0  0  0
  187.3260  178.2520  143.6510 C   0  0  1  0  0  3  0  0  0  0  0  0
  183.5210  178.6310  144.0800 C   0  0  0  0  0  3  0  0  0  0  0  0
  185.9470  178.3420  144.2590 C   0  0  0  0  0  0  0  0  0  0  0  0
  188.3550  177.6060  144.6020 C   0  0  1  0  0  3  0  0  0  0  0  0
  191.0040  176.2560  139.5510 O   0  0  0  0  0  0  0  0  0  0  0  0
  187.3390  177.5660  142.2730 C   0  0  1  0  0  3  0  0  0  0  0  0
  190.7690  176.5950  141.8670 N   0  0  0  0  0  2  0  0  0  0  0  0
  189.5600  176.8860  142.6080 C   0  0  1  0  0  3  0  0  0  0  0  0
  185.8390  178.7440  145.7220 C   0  0  2  0  0  3  0  0  0  0  0  0
  189.7490  177.5760  143.9470 C   0  0  0  0  0  2  0  0  0  0  0  0
  186.9540  178.1340  146.5750 C   0  0  0  0  0  2  0  0  0  0  0  0
  184.4970  178.3160  146.3190 C   0  0  0  0  0  2  0  0  0  0  0  0
  186.3360  178.2930  141.3930 C   0  0  0  0  0  2  0  0  0  0  0  0
  184.9240  178.1260  141.9700 C   0  0  2  0  0  3  0  0  0  0  0  0
  188.6960  177.6910  141.7440 N   0  0  1  0  0  0  0  0  0  0  0  0
  188.3380  178.3200  145.9540 C   0  0  1  0  0  3  0  0  0  0  0  0
  183.3550  178.6420  145.4030 C   0  0  0  0  0  3  0  0  0  0  0  0
  190.2980  176.6050  140.5320 C   0  0  0  0  0  0  0  0  0  0  0  0
  188.8990  177.0820  140.4330 C   0  0  0  0  0  2  0  0  0  0  0  0
  181.9730  177.6220  140.0150 C   0  0  1  0  0  3  0  0  0  0  0  0
  181.9830  180.0200  137.4870 O   0  0  0  0  0  1  0  0  0  0  0  0
  180.6040  177.4270  140.0710 F   0  0  0  0  0  0  0  0  0  0  0  0
  183.5530  180.1670  139.2850 C   0  0  0  0  0  2  0  0  0  0  0  0
  183.9150  178.9630  141.1800 C   0  0  1  0  0  3  0  0  0  0  0  0
  182.3520  178.1500  138.7550 O   0  0  0  0  0  0  0  0  0  0  0  0
  184.3660  179.1770  139.8610 O   0  0  0  0  0  0  0  0  0  0  0  0
  182.4980  178.3520  141.2810 C   0  0  1  0  0  3  0  0  0  0  0  0
  181.5950  179.3360  141.6920 O   0  0  0  0  0  1  0  0  0  0  0  0
  182.2470  179.5520  138.7740 C   0  0  2  0  0  3  0  0  0  0  0  0
  189.3810  177.7270  146.8920 C   0  0  0  0  0  2  0  0  0  0  0  0
  189.0200  178.0180  148.3360 C   0  0  0  0  0  1  0  0  0  0  0  0
  1  3  1  0  0  0  0
  1  4  2  0  0  0  0
  2  4  1  1  0  0  0
  2  5  1  0  0  0  0
  3 18  2  0  0  0  0
  4 10  1  0  0  0  0
  5 11  1  6  0  0  0
  5 17  1  0  0  0  0
  6 19  2  0  0  0  0
  7 14  1  6  0  0  0
  7  2  1  0  0  0  0
  8  9  1  0  0  0  0
  9 11  1  1  0  0  0
 10 13  1  1  0  0  0
 10 12  1  0  0  0  0
 15 14  1  6  0  0  0
 15  1  1  0  0  0  0
 16 20  1  6  0  0  0
 16  7  1  0  0  0  0
 16  9  1  0  0  0  0
 17 12  1  0  0  0  0
 17 31  1  1  0  0  0
 18 13  1  0  0  0  0
 19  8  1  0  0  0  0
 20 19  1  0  0  0  0
 21 23  1  1  0  0  0
 21 28  1  0  0  0  0
 24 27  1  0  0  0  0
 25 27  1  6  0  0  0
 25 28  1  0  0  0  0
 25 15  1  0  0  0  0
 26 30  1  0  0  0  0
 26 21  1  0  0  0  0
 28 29  1  6  0  0  0
 30 22  1  6  0  0  0
 30 24  1  0  0  0  0
 31 32  1  0  0  0  0
M  END
>  <MODEL>
4

>  <REMARK>
 VINA RESULT:      -9.4      2.803      5.742
  Name = 
  2 active torsions:
  status: ('A' for Active; 'I' for Inactive)
    1  A    between atoms: C_13  and  C_29
    2  A    between atoms: C_16  and  C_27
                            x       y       z     vdW  Elec       q    Type
                         _______ _______ _______ _____ _____    ______ ____

>  <TORSDO>
F 2

$$$$
=
 OpenBabel10262421073D

 32 37  0  0  1  0  0  0  0  0999 V2000
  186.3760  178.0520  143.0020 C   0  0  0  0  0  0  0  0  0  0  0  0
  188.8320  178.0650  142.6000 C   0  0  1  0  0  3  0  0  0  0  0  0
  185.2200  178.1360  143.9240 C   0  0  0  0  0  3  0  0  0  0  0  0
  187.6310  178.0010  143.5120 C   0  0  0  0  0  0  0  0  0  0  0  0
  190.0830  177.4050  143.2150 C   0  0  1  0  0  3  0  0  0  0  0  0
  191.5370  176.7320  137.5770 O   0  0  0  0  0  0  0  0  0  0  0  0
  188.5530  177.5170  141.1890 C   0  0  1  0  0  3  0  0  0  0  0  0
  191.8340  176.8310  139.9090 N   0  0  0  0  0  2  0  0  0  0  0  0
  190.8200  176.9650  140.9330 C   0  0  1  0  0  3  0  0  0  0  0  0
  187.8500  178.2530  144.9960 C   0  0  2  0  0  3  0  0  0  0  0  0
  191.2850  177.5350  142.2610 C   0  0  0  0  0  2  0  0  0  0  0  0
  189.1600  177.6430  145.5020 C   0  0  0  0  0  2  0  0  0  0  0  0
  186.7060  177.6770  145.8330 C   0  0  0  0  0  2  0  0  0  0  0  0
  187.3400  178.2530  140.6450 C   0  0  0  0  0  2  0  0  0  0  0  0
  186.1120  177.9330  141.5070 C   0  0  2  0  0  3  0  0  0  0  0  0
  189.7420  177.7860  140.3820 N   0  0  1  0  0  0  0  0  0  0  0  0
  190.3500  177.9840  144.6050 C   0  0  1  0  0  3  0  0  0  0  0  0
  185.3680  178.0090  145.2430 C   0  0  0  0  0  3  0  0  0  0  0  0
  191.0640  176.9350  138.7260 C   0  0  0  0  0  0  0  0  0  0  0  0
  189.6600  177.3210  139.0010 C   0  0  0  0  0  2  0  0  0  0  0  0
  182.8180  177.4140  140.2190 C   0  0  1  0  0  3  0  0  0  0  0  0
  182.1290  180.0470  138.0430 O   0  0  0  0  0  1  0  0  0  0  0  0
  181.5090  177.1150  140.5580 F   0  0  0  0  0  0  0  0  0  0  0  0
  184.0620  180.1280  139.4490 C   0  0  0  0  0  2  0  0  0  0  0  0
  184.9090  178.7700  141.0640 C   0  0  1  0  0  3  0  0  0  0  0  0
  182.8700  178.0910  138.9750 O   0  0  0  0  0  0  0  0  0  0  0  0
  185.0330  179.1460  139.7110 O   0  0  0  0  0  0  0  0  0  0  0  0
  183.5840  178.0510  141.4100 C   0  0  1  0  0  3  0  0  0  0  0  0
  182.7540  178.9200  142.1220 O   0  0  0  0  0  1  0  0  0  0  0  0
  182.7050  179.4730  139.1760 C   0  0  2  0  0  3  0  0  0  0  0  0
  191.6110  177.3780  145.2110 C   0  0  0  0  0  2  0  0  0  0  0  0
  191.3010  176.7530  146.5580 C   0  0  0  0  0  1  0  0  0  0  0  0
  1  4  2  0  0  0  0
  1  3  1  0  0  0  0
  2  5  1  0  0  0  0
  2  4  1  1  0  0  0
  3 18  2  0  0  0  0
  4 10  1  0  0  0  0
  5 11  1  6  0  0  0
  5 17  1  0  0  0  0
  6 19  2  0  0  0  0
  7 14  1  6  0  0  0
  7  2  1  0  0  0  0
  8  9  1  0  0  0  0
  9 11  1  1  0  0  0
 10 12  1  1  0  0  0
 10 13  1  0  0  0  0
 15 14  1  6  0  0  0
 15  1  1  0  0  0  0
 16 20  1  6  0  0  0
 16  9  1  0  0  0  0
 16  7  1  0  0  0  0
 17 31  1  1  0  0  0
 17 12  1  0  0  0  0
 18 13  1  0  0  0  0
 19 20  1  0  0  0  0
 19  8  1  0  0  0  0
 21 23  1  1  0  0  0
 21 28  1  0  0  0  0
 24 27  1  0  0  0  0
 25 27  1  6  0  0  0
 25 28  1  0  0  0  0
 25 15  1  0  0  0  0
 26 30  1  0  0  0  0
 26 21  1  0  0  0  0
 28 29  1  6  0  0  0
 30 22  1  6  0  0  0
 30 24  1  0  0  0  0
 31 32  1  0  0  0  0
M  END
>  <MODEL>
5

>  <REMARK>
 VINA RESULT:      -8.9      2.864      5.762
  Name = 
  2 active torsions:
  status: ('A' for Active; 'I' for Inactive)
    1  A    between atoms: C_13  and  C_29
    2  A    between atoms: C_16  and  C_27
                            x       y       z     vdW  Elec       q    Type
                         _______ _______ _______ _____ _____    ______ ____

>  <TORSDO>
F 2

$$$$
=
 OpenBabel10262421073D

 32 37  0  0  1  0  0  0  0  0999 V2000
  187.1140  178.0480  145.1090 C   0  0  0  0  0  0  0  0  0  0  0  0
  186.4970  177.8780  142.7040 C   0  0  1  0  0  3  0  0  0  0  0  0
  186.7300  178.1950  146.5320 C   0  0  0  0  0  3  0  0  0  0  0  0
  186.1660  178.1690  144.1480 C   0  0  0  0  0  0  0  0  0  0  0  0
  185.5660  178.6170  141.7200 C   0  0  1  0  0  3  0  0  0  0  0  0
  190.1800  178.0410  138.1520 O   0  0  0  0  0  0  0  0  0  0  0  0
  187.9760  178.1240  142.3590 C   0  0  1  0  0  3  0  0  0  0  0  0
  187.9470  178.4270  138.7830 N   0  0  0  0  0  2  0  0  0  0  0  0
  187.4050  178.5430  140.1210 C   0  0  1  0  0  3  0  0  0  0  0  0
  184.6980  178.2300  144.5440 C   0  0  2  0  0  3  0  0  0  0  0  0
  185.9230  178.2530  140.2670 C   0  0  0  0  0  2  0  0  0  0  0  0
  183.8340  178.8940  143.4700 C   0  0  0  0  0  2  0  0  0  0  0  0
  184.5060  179.0030  145.8510 C   0  0  0  0  0  2  0  0  0  0  0  0
  188.8130  177.3260  143.3440 C   0  0  0  0  0  2  0  0  0  0  0  0
  188.5850  177.8560  144.7650 C   0  0  2  0  0  3  0  0  0  0  0  0
  188.1800  177.6550  140.9890 N   0  0  1  0  0  0  0  0  0  0  0  0
  184.1040  178.3370  142.0720 C   0  0  1  0  0  3  0  0  0  0  0  0
  185.5080  178.5930  146.8880 C   0  0  0  0  0  3  0  0  0  0  0  0
  189.2990  178.0980  139.0480 C   0  0  0  0  0  0  0  0  0  0  0  0
  189.5390  177.8210  140.4830 C   0  0  0  0  0  2  0  0  0  0  0  0
  190.1030  178.2010  147.9840 C   0  0  1  0  0  3  0  0  0  0  0  0
  192.8050  176.0030  148.0950 O   0  0  0  0  0  1  0  0  0  0  0  0
  189.8600  178.2530  149.3450 F   0  0  0  0  0  0  0  0  0  0  0  0
  191.2380  175.8850  146.2930 C   0  0  0  0  0  2  0  0  0  0  0  0
  189.3090  176.9800  145.7920 C   0  0  1  0  0  3  0  0  0  0  0  0
  191.4410  177.8050  147.7300 O   0  0  0  0  0  0  0  0  0  0  0  0
  190.6870  176.9080  145.5020 O   0  0  0  0  0  0  0  0  0  0  0  0
  188.9800  177.4370  147.2310 C   0  0  1  0  0  3  0  0  0  0  0  0
  188.5430  176.3410  147.9800 O   0  0  0  0  0  1  0  0  0  0  0  0
  191.5270  176.4020  147.7050 C   0  0  2  0  0  3  0  0  0  0  0  0
  183.1690  179.0200  141.0810 C   0  0  0  0  0  2  0  0  0  0  0  0
  181.7300  178.6290  141.3580 C   0  0  0  0  0  1  0  0  0  0  0  0
  1  3  1  0  0  0  0
  2  4  1  1  0  0  0
  3 18  2  0  0  0  0
  4 10  1  0  0  0  0
  4  1  2  0  0  0  0
  5 11  1  6  0  0  0
  5 17  1  0  0  0  0
  5  2  1  0  0  0  0
  6 19  2  0  0  0  0
  7  2  1  0  0  0  0
  7 14  1  1  0  0  0
  8 19  1  0  0  0  0
  8  9  1  0  0  0  0
  9 11  1  6  0  0  0
  9 16  1  0  0  0  0
 10 12  1  6  0  0  0
 10 13  1  0  0  0  0
 13 18  1  0  0  0  0
 15 14  1  6  0  0  0
 15  1  1  0  0  0  0
 15 25  1  0  0  0  0
 16 20  1  6  0  0  0
 16  7  1  0  0  0  0
 17 31  1  6  0  0  0
 17 12  1  0  0  0  0
 19 20  1  0  0  0  0
 21 23  1  1  0  0  0
 24 30  1  0  0  0  0
 25 27  1  6  0  0  0
 25 28  1  0  0  0  0
 26 21  1  0  0  0  0
 27 24  1  0  0  0  0
 28 29  1  1  0  0  0
 28 21  1  0  0  0  0
 30 26  1  0  0  0  0
 30 22  1  6  0  0  0
 31 32  1  0  0  0  0
M  END
>  <MODEL>
6

>  <REMARK>
 VINA RESULT:      -8.9      3.950      7.371
  Name = 
  2 active torsions:
  status: ('A' for Active; 'I' for Inactive)
    1  A    between atoms: C_13  and  C_29
    2  A    between atoms: C_16  and  C_27
                            x       y       z     vdW  Elec       q    Type
                         _______ _______ _______ _____ _____    ______ ____

>  <TORSDO>
F 2

$$$$
=
 OpenBabel10262421073D

 32 37  0  0  1  0  0  0  0  0999 V2000
  184.0250  178.7380  142.2020 C   0  0  0  0  0  0  0  0  0  0  0  0
  186.5110  178.6440  142.1250 C   0  0  1  0  0  3  0  0  0  0  0  0
  182.7620  178.8540  142.9670 C   0  0  0  0  0  3  0  0  0  0  0  0
  185.1980  178.6140  142.8700 C   0  0  0  0  0  0  0  0  0  0  0  0
  187.6400  177.9100  142.8780 C   0  0  1  0  0  3  0  0  0  0  0  0
  189.7920  177.3060  137.4600 O   0  0  0  0  0  0  0  0  0  0  0  0
  186.3970  178.1440  140.6730 C   0  0  1  0  0  3  0  0  0  0  0  0
  189.7840  177.3340  139.8120 N   0  0  0  0  0  2  0  0  0  0  0  0
  188.6510  177.4910  140.6990 C   0  0  1  0  0  3  0  0  0  0  0  0
  185.2310  178.8200  144.3770 C   0  0  2  0  0  3  0  0  0  0  0  0
  188.9610  178.0060  142.0930 C   0  0  0  0  0  2  0  0  0  0  0  0
  186.4340  178.1360  145.0300 C   0  0  0  0  0  2  0  0  0  0  0  0
  183.9620  178.2790  145.0400 C   0  0  0  0  0  2  0  0  0  0  0  0
  185.2990  178.9500  139.9990 C   0  0  0  0  0  2  0  0  0  0  0  0
  183.9550  178.6680  140.6830 C   0  0  2  0  0  3  0  0  0  0  0  0
  187.6920  178.3760  140.0370 N   0  0  1  0  0  0  0  0  0  0  0  0
  187.7460  178.4410  144.3080 C   0  0  1  0  0  3  0  0  0  0  0  0
  182.7290  178.6880  144.2900 C   0  0  0  0  0  3  0  0  0  0  0  0
  189.1820  177.5030  138.5420 C   0  0  0  0  0  0  0  0  0  0  0  0
  187.7730  177.9490  138.6440 C   0  0  0  0  0  2  0  0  0  0  0  0
  181.3020  178.4780  138.2940 C   0  0  1  0  0  3  0  0  0  0  0  0
  181.0180  181.6180  136.8090 O   0  0  0  0  0  1  0  0  0  0  0  0
  179.9960  178.0650  138.0900 F   0  0  0  0  0  0  0  0  0  0  0  0
  182.4010  181.3250  138.7380 C   0  0  0  0  0  2  0  0  0  0  0  0
  182.8590  179.5720  140.1120 C   0  0  1  0  0  3  0  0  0  0  0  0
  181.6570  179.4910  137.3680 O   0  0  0  0  0  0  0  0  0  0  0  0
  183.3500  180.3310  139.0300 O   0  0  0  0  0  0  0  0  0  0  0  0
  181.5850  178.7550  139.7960 C   0  0  1  0  0  3  0  0  0  0  0  0
  180.4810  179.3590  140.4020 O   0  0  0  0  0  1  0  0  0  0  0  0
  181.2790  180.7500  137.8690 C   0  0  2  0  0  3  0  0  0  0  0  0
  188.8880  177.7620  145.0540 C   0  0  0  0  0  2  0  0  0  0  0  0
  188.4700  177.4370  146.4750 C   0  0  0  0  0  1  0  0  0  0  0  0
  1  4  2  0  0  0  0
  1  3  1  0  0  0  0
  2  4  1  1  0  0  0
  2  5  1  0  0  0  0
  3 18  2  0  0  0  0
  4 10  1  0  0  0  0
  5 11  1  6  0  0  0
  5 17  1  0  0  0  0
  6 19  2  0  0  0  0
  7 14  1  6  0  0  0
  7  2  1  0  0  0  0
  8  9  1  0  0  0  0
  9 11  1  1  0  0  0
 10 12  1  1  0  0  0
 10 13  1  0  0  0  0
 15 14  1  6  0  0  0
 15  1  1  0  0  0  0
 16 20  1  6  0  0  0
 16  7  1  0  0  0  0
 16  9  1  0  0  0  0
 17 12  1  0  0  0  0
 17 31  1  1  0  0  0
 18 13  1  0  0  0  0
 19 20  1  0  0  0  0
 19  8  1  0  0  0  0
 21 23  1  1  0  0  0
 21 28  1  0  0  0  0
 24 27  1  0  0  0  0
 25 27  1  6  0  0  0
 25 15  1  0  0  0  0
 26 30  1  0  0  0  0
 26 21  1  0  0  0  0
 28 25  1  0  0  0  0
 28 29  1  6  0  0  0
 30 22  1  6  0  0  0
 30 24  1  0  0  0  0
 31 32  1  0  0  0  0
M  END
>  <MODEL>
7

>  <REMARK>
 VINA RESULT:      -8.9      3.333      6.360
  Name = 
  2 active torsions:
  status: ('A' for Active; 'I' for Inactive)
    1  A    between atoms: C_13  and  C_29
    2  A    between atoms: C_16  and  C_27
                            x       y       z     vdW  Elec       q    Type
                         _______ _______ _______ _____ _____    ______ ____

>  <TORSDO>
F 2

$$$$
=
 OpenBabel10262421073D

 32 37  0  0  1  0  0  0  0  0999 V2000
  187.0840  178.3080  140.1570 C   0  0  0  0  0  0  0  0  0  0  0  0
  187.5770  177.4220  142.4300 C   0  0  1  0  0  3  0  0  0  0  0  0
  187.4560  178.4890  138.7350 C   0  0  0  0  0  3  0  0  0  0  0  0
  187.9780  177.7550  141.0130 C   0  0  0  0  0  0  0  0  0  0  0  0
  188.7780  177.3930  143.3980 C   0  0  1  0  0  3  0  0  0  0  0  0
  184.6230  178.6280  147.3440 O   0  0  0  0  0  0  0  0  0  0  0  0
  186.4510  178.3220  142.9700 C   0  0  1  0  0  3  0  0  0  0  0  0
  186.7150  177.9260  146.5270 N   0  0  0  0  0  2  0  0  0  0  0  0
  187.2070  177.9850  145.1660 C   0  0  1  0  0  3  0  0  0  0  0  0
  189.2520  177.1270  140.4680 C   0  0  2  0  0  3  0  0  0  0  0  0
  188.3170  177.0100  144.8170 C   0  0  0  0  0  2  0  0  0  0  0  0
  190.3600  177.0540  141.5220 C   0  0  0  0  0  2  0  0  0  0  0  0
  189.7900  177.9120  139.2690 C   0  0  0  0  0  2  0  0  0  0  0  0
  185.2990  178.2530  141.9820 C   0  0  0  0  0  2  0  0  0  0  0  0
  185.7370  178.8350  140.6330 C   0  0  2  0  0  3  0  0  0  0  0  0
  186.0640  177.7880  144.2740 N   0  0  1  0  0  0  0  0  0  0  0  0
  189.8700  176.4750  142.8490 C   0  0  1  0  0  3  0  0  0  0  0  0
  188.6980  178.2640  138.3040 C   0  0  0  0  0  3  0  0  0  0  0  0
  185.3850  178.3860  146.3710 C   0  0  0  0  0  0  0  0  0  0  0  0
  185.0030  178.5300  144.9470 C   0  0  0  0  0  2  0  0  0  0  0  0
  182.1680  178.9130  140.4460 C   0  0  1  0  0  3  0  0  0  0  0  0
  181.2040  176.5570  138.0670 O   0  0  0  0  0  1  0  0  0  0  0  0
  181.0620  179.7390  140.3370 F   0  0  0  0  0  0  0  0  0  0  0  0
  183.5080  177.1550  138.2960 C   0  0  0  0  0  2  0  0  0  0  0  0
  184.6400  178.6510  139.5820 C   0  0  1  0  0  3  0  0  0  0  0  0
  181.8610  177.6050  139.9930 O   0  0  0  0  0  0  0  0  0  0  0  0
  184.2990  177.2890  139.4510 O   0  0  0  0  0  0  0  0  0  0  0  0
  183.4430  179.5860  139.8690 C   0  0  1  0  0  3  0  0  0  0  0  0
  183.1360  180.3170  138.7180 O   0  0  0  0  0  1  0  0  0  0  0  0
  182.0530  177.5240  138.6030 C   0  0  2  0  0  3  0  0  0  0  0  0
  191.0470  176.3960  143.8140 C   0  0  0  0  0  2  0  0  0  0  0  0
  191.6800  177.7620  143.9870 C   0  0  0  0  0  1  0  0  0  0  0  0
  1 15  1  0  0  0  0
  1  4  2  0  0  0  0
  2  4  1  6  0  0  0
  2  7  1  0  0  0  0
  2  5  1  0  0  0  0
  3  1  1  0  0  0  0
  5 11  1  1  0  0  0
  7 14  1  6  0  0  0
  7 16  1  0  0  0  0
  9 11  1  1  0  0  0
  9  8  1  0  0  0  0
 10 13  1  6  0  0  0
 10  4  1  0  0  0  0
 10 12  1  0  0  0  0
 12 17  1  0  0  0  0
 15 14  1  1  0  0  0
 16 20  1  1  0  0  0
 16  9  1  0  0  0  0
 17  5  1  0  0  0  0
 17 31  1  1  0  0  0
 18  3  2  0  0  0  0
 18 13  1  0  0  0  0
 19  8  1  0  0  0  0
 19  6  2  0  0  0  0
 20 19  1  0  0  0  0
 21 23  1  6  0  0  0
 24 30  1  0  0  0  0
 24 27  1  0  0  0  0
 25 27  1  1  0  0  0
 25 28  1  0  0  0  0
 25 15  1  0  0  0  0
 26 21  1  0  0  0  0
 28 29  1  6  0  0  0
 28 21  1  0  0  0  0
 30 22  1  1  0  0  0
 30 26  1  0  0  0  0
 31 32  1  0  0  0  0
M  END
>  <MODEL>
8

>  <REMARK>
 VINA RESULT:      -8.8      2.816      4.634
  Name = 
  2 active torsions:
  status: ('A' for Active; 'I' for Inactive)
    1  A    between atoms: C_13  and  C_29
    2  A    between atoms: C_16  and  C_27
                            x       y       z     vdW  Elec       q    Type
                         _______ _______ _______ _____ _____    ______ ____

>  <TORSDO>
F 2

$$$$
=
 OpenBabel10262421073D

 32 37  0  0  1  0  0  0  0  0999 V2000
  189.5370  177.7910  140.6640 C   0  0  0  0  0  0  0  0  0  0  0  0
  188.1520  177.4160  142.6980 C   0  0  1  0  0  3  0  0  0  0  0  0
  190.8350  177.7130  139.9550 C   0  0  0  0  0  3  0  0  0  0  0  0
  189.4810  177.4900  141.9850 C   0  0  0  0  0  0  0  0  0  0  0  0
  188.2760  177.6740  144.2150 C   0  0  1  0  0  3  0  0  0  0  0  0
  182.6920  179.3450  143.5880 O   0  0  0  0  0  0  0  0  0  0  0  0
  187.0740  178.3160  142.0690 C   0  0  1  0  0  3  0  0  0  0  0  0
  184.6520  178.6580  144.6940 N   0  0  0  0  0  2  0  0  0  0  0  0
  185.9770  178.4830  144.1370 C   0  0  1  0  0  3  0  0  0  0  0  0
  190.6900  176.8670  142.6660 C   0  0  2  0  0  3  0  0  0  0  0  0
  186.9000  177.5470  144.8950 C   0  0  0  0  0  2  0  0  0  0  0  0
  190.6830  177.0910  144.1800 C   0  0  0  0  0  2  0  0  0  0  0  0
  191.9970  177.4370  142.1090 C   0  0  0  0  0  2  0  0  0  0  0  0
  186.9890  177.9620  140.5940 C   0  0  0  0  0  2  0  0  0  0  0  0
  188.3180  178.2970  139.9040 C   0  0  2  0  0  3  0  0  0  0  0  0
  185.8180  178.0240  142.7570 N   0  0  1  0  0  0  0  0  0  0  0  0
  189.3360  176.7520  144.8170 C   0  0  1  0  0  3  0  0  0  0  0  0
  191.9770  177.5030  140.6110 C   0  0  0  0  0  3  0  0  0  0  0  0
  183.8940  178.9740  143.5410 C   0  0  0  0  0  0  0  0  0  0  0  0
  184.6730  178.8010  142.2920 C   0  0  0  0  0  2  0  0  0  0  0  0
  189.7520  175.6850  137.9280 C   0  0  1  0  0  3  0  0  0  0  0  0
  190.3390  176.9930  134.7520 O   0  0  0  0  0  1  0  0  0  0  0  0
  189.6310  174.3580  137.5550 F   0  0  0  0  0  0  0  0  0  0  0  0
  189.0460  178.2310  136.3380 C   0  0  0  0  0  2  0  0  0  0  0  0
  188.3060  177.8220  138.4490 C   0  0  1  0  0  3  0  0  0  0  0  0
  190.4930  176.4110  136.9610 O   0  0  0  0  0  0  0  0  0  0  0  0
  189.2900  178.4960  137.6960 O   0  0  0  0  0  0  0  0  0  0  0  0
  188.3890  176.2800  138.3750 C   0  0  1  0  0  3  0  0  0  0  0  0
  187.3540  175.7960  137.5720 O   0  0  0  0  0  1  0  0  0  0  0  0
  189.6330  176.8710  135.9480 C   0  0  2  0  0  3  0  0  0  0  0  0
  189.4390  176.9580  146.3240 C   0  0  0  0  0  2  0  0  0  0  0  0
  190.8680  176.7520  146.7880 C   0  0  0  0  0  1  0  0  0  0  0  0
  1  4  2  0  0  0  0
  2  4  1  6  0  0  0
  2  5  1  0  0  0  0
  3 18  2  0  0  0  0
  3  1  1  0  0  0  0
  4 10  1  0  0  0  0
  5 17  1  0  0  0  0
  5 11  1  1  0  0  0
  7 14  1  6  0  0  0
  7  2  1  0  0  0  0
  7 16  1  0  0  0  0
  9  8  1  0  0  0  0
  9 11  1  1  0  0  0
 10 13  1  6  0  0  0
 10 12  1  0  0  0  0
 12 17  1  0  0  0  0
 15 14  1  1  0  0  0
 15  1  1  0  0  0  0
 16 20  1  6  0  0  0
 16  9  1  0  0  0  0
 17 31  1  1  0  0  0
 18 13  1  0  0  0  0
 19  6  2  0  0  0  0
 19  8  1  0  0  0  0
 20 19  1  0  0  0  0
 21 23  1  6  0  0  0
 21 28  1  0  0  0  0
 24 27  1  0  0  0  0
 25 27  1  6  0  0  0
 25 15  1  0  0  0  0
 26 21  1  0  0  0  0
 28 29  1  6  0  0  0
 28 25  1  0  0  0  0
 30 22  1  6  0  0  0
 30 24  1  0  0  0  0
 30 26  1  0  0  0  0
 31 32  1  0  0  0  0
M  END
>  <MODEL>
9

>  <REMARK>
 VINA RESULT:      -8.5      1.536      2.314
  Name = 
  2 active torsions:
  status: ('A' for Active; 'I' for Inactive)
    1  A    between atoms: C_13  and  C_29
    2  A    between atoms: C_16  and  C_27
                            x       y       z     vdW  Elec       q    Type
                         _______ _______ _______ _____ _____    ______ ____

>  <TORSDO>
F 2

$$$$
