=
 OpenBabel10262421143D

 32 37  0  0  1  0  0  0  0  0999 V2000
  189.7260  177.6650  141.3720 C   0  0  0  0  0  0  0  0  0  0  0  0
  187.6410  178.0290  142.5950 C   0  0  0  0  0  0  0  0  0  0  0  0
  191.1180  177.3040  141.3430 N   0  0  0  0  0  2  0  0  0  0  0  0
  189.0780  177.7060  142.5460 C   0  0  0  0  0  0  0  0  0  0  0  0
  186.9790  177.9650  143.7760 C   0  0  0  0  0  0  0  0  0  0  0  0
  183.2440  178.8880  140.5520 C   0  0  0  0  0  2  0  0  0  0  0  0
  186.9520  178.3810  141.3310 C   0  0  0  0  0  0  0  0  0  0  0  0
  183.6300  179.4730  142.8460 O   0  0  0  0  0  0  0  0  0  0  0  0
  185.0190  179.1820  142.7650 C   0  0  1  0  0  3  0  0  0  0  0  0
  187.0030  177.5030  146.2270 C   0  0  0  0  0  3  0  0  0  0  0  0
  189.7790  177.3400  143.7840 C   0  0  0  0  0  0  0  0  0  0  0  0
  185.4760  178.1830  143.8280 C   0  0  0  0  0  2  0  0  0  0  0  0
  189.1020  177.2730  144.9300 C   0  0  0  0  0  3  0  0  0  0  0  0
  191.1670  177.0120  143.7320 N   0  0  0  0  0  2  0  0  0  0  0  0
  187.6230  178.3150  140.1760 C   0  0  0  0  0  3  0  0  0  0  0  0
  187.6030  177.1710  147.2840 O   0  0  0  0  0  0  0  0  0  0  0  0
  189.0150  177.9360  140.1460 N   0  0  0  0  0  0  0  0  0  0  0  0
  185.5400  178.7850  141.3980 C   0  0  0  0  0  0  0  0  0  0  0  0
  187.6940  177.5810  144.9750 N   0  0  0  0  0  0  0  0  0  0  0  0
  191.9520  177.3460  142.5450 C   0  0  0  0  0  2  0  0  0  0  0  0
  182.8890  178.6120  142.0090 C   0  0  0  0  0  2  0  0  0  0  0  0
  184.7020  178.6180  140.3710 C   0  0  0  0  0  3  0  0  0  0  0  0
  188.1650  177.7800  136.8470 N   0  0  0  0  0  0  0  0  0  0  0  0
  189.3900  176.1250  135.5190 C   0  0  0  0  0  1  0  0  0  0  0  0
  188.8480  175.6620  137.9240 C   0  0  0  0  0  2  0  0  0  0  0  0
  189.7240  177.8370  138.8680 C   0  0  1  0  0  3  0  0  0  0  0  0
  190.0540  176.3840  138.5220 C   0  0  0  0  0  2  0  0  0  0  0  0
  188.9710  178.5350  137.7690 C   0  0  0  0  0  0  0  0  0  0  0  0
  189.0020  179.7920  137.7070 O   0  0  0  0  0  0  0  0  0  0  0  0
  188.3870  176.3490  136.6400 C   0  0  1  0  0  3  0  0  0  0  0  0
  186.1330  177.5760  135.7190 O   0  0  0  0  0  1  0  0  0  0  0  0
  187.1810  178.4500  136.0060 C   0  0  0  0  0  2  0  0  0  0  0  0
  1  4  2  0  0  0  0
  2  5  2  0  0  0  0
  3  1  1  0  0  0  0
  3 20  1  0  0  0  0
  4  2  1  0  0  0  0
  4 11  1  0  0  0  0
  5 12  1  0  0  0  0
  5 19  1  0  0  0  0
  6 21  1  0  0  0  0
  7 18  1  0  0  0  0
  7  2  1  0  0  0  0
  9  8  1  0  0  0  0
  9 12  1  1  0  0  0
 10 16  2  0  0  0  0
 11 13  2  0  0  0  0
 13 19  1  0  0  0  0
 14 11  1  0  0  0  0
 15  7  2  0  0  0  0
 17 15  1  0  0  0  0
 17  1  1  0  0  0  0
 18  9  1  0  0  0  0
 19 10  1  0  0  0  0
 20 14  1  0  0  0  0
 21  8  1  0  0  0  0
 22  6  1  0  0  0  0
 22 18  2  0  0  0  0
 23 28  1  0  0  0  0
 25 27  1  0  0  0  0
 26 27  1  6  0  0  0
 26 17  1  0  0  0  0
 28 26  1  0  0  0  0
 29 28  2  0  0  0  0
 30 24  1  6  0  0  0
 30 23  1  0  0  0  0
 30 25  1  0  0  0  0
 31 32  1  0  0  0  0
 32 23  1  0  0  0  0
M  END
>  <MODEL>
1

>  <REMARK>
 VINA RESULT:      -9.5      0.000      0.000
  Name = 
  2 active torsions:
  status: ('A' for Active; 'I' for Inactive)
    1  A    between atoms: N_3  and  C_19
    2  A    between atoms: C_16  and  N_27
                            x       y       z     vdW  Elec       q    Type
                         _______ _______ _______ _____ _____    ______ ____

>  <TORSDO>
F 2

$$$$
=
 OpenBabel10262421143D

 32 37  0  0  1  0  0  0  0  0999 V2000
  184.5570  178.6530  143.1110 C   0  0  0  0  0  0  0  0  0  0  0  0
  186.7890  177.9240  143.7910 C   0  0  0  0  0  0  0  0  0  0  0  0
  183.2370  179.1230  143.4350 N   0  0  0  0  0  2  0  0  0  0  0  0
  185.4170  178.3630  144.1000 C   0  0  0  0  0  0  0  0  0  0  0  0
  187.6760  177.7350  144.7990 C   0  0  0  0  0  0  0  0  0  0  0  0
  190.5670  177.0760  140.7490 C   0  0  0  0  0  2  0  0  0  0  0  0
  187.1690  177.7370  142.3710 C   0  0  0  0  0  0  0  0  0  0  0  0
  190.5820  176.1450  142.9590 O   0  0  0  0  0  0  0  0  0  0  0  0
  189.2450  176.5550  143.2220 C   0  0  1  0  0  3  0  0  0  0  0  0
  188.1920  177.7780  147.2390 C   0  0  0  0  0  3  0  0  0  0  0  0
  185.0220  178.5700  145.4990 C   0  0  0  0  0  0  0  0  0  0  0  0
  189.1240  177.3930  144.4940 C   0  0  0  0  0  2  0  0  0  0  0  0
  185.9160  178.3890  146.4710 C   0  0  0  0  0  3  0  0  0  0  0  0
  183.6970  179.0110  145.7950 N   0  0  0  0  0  2  0  0  0  0  0  0
  186.2930  178.0490  141.4090 C   0  0  0  0  0  3  0  0  0  0  0  0
  187.8550  177.9730  148.4370 O   0  0  0  0  0  0  0  0  0  0  0  0
  184.9750  178.5380  141.7350 N   0  0  0  0  0  0  0  0  0  0  0  0
  188.5120  177.2170  142.0730 C   0  0  0  0  0  0  0  0  0  0  0  0
  187.2610  177.9670  146.1670 N   0  0  0  0  0  0  0  0  0  0  0  0
  182.6590  178.9460  144.7680 C   0  0  0  0  0  2  0  0  0  0  0  0
  191.2330  177.0740  142.1210 C   0  0  0  0  0  2  0  0  0  0  0  0
  189.1420  177.4870  140.9260 C   0  0  0  0  0  3  0  0  0  0  0  0
  183.3670  176.9370  139.1890 N   0  0  0  0  0  0  0  0  0  0  0  0
  183.3660  178.1100  137.0380 C   0  0  0  0  0  1  0  0  0  0  0  0
  185.3360  178.3040  138.5810 C   0  0  0  0  0  2  0  0  0  0  0  0
  184.0420  178.9060  140.6680 C   0  0  1  0  0  3  0  0  0  0  0  0
  184.7810  179.4390  139.4380 C   0  0  0  0  0  2  0  0  0  0  0  0
  183.1150  177.7700  140.3350 C   0  0  0  0  0  0  0  0  0  0  0  0
  182.1540  177.5160  141.1080 O   0  0  0  0  0  0  0  0  0  0  0  0
  184.2090  177.3990  138.0850 C   0  0  1  0  0  3  0  0  0  0  0  0
  183.4500  174.8090  138.2350 O   0  0  0  0  0  1  0  0  0  0  0  0
  182.6910  175.6540  139.0460 C   0  0  0  0  0  2  0  0  0  0  0  0
  1  3  1  0  0  0  0
  1  4  2  0  0  0  0
  2  4  1  0  0  0  0
  2  5  2  0  0  0  0
  3 20  1  0  0  0  0
  4 11  1  0  0  0  0
  5 19  1  0  0  0  0
  6 22  1  0  0  0  0
  6 21  1  0  0  0  0
  7  2  1  0  0  0  0
  8  9  1  0  0  0  0
  9 12  1  1  0  0  0
 10 16  2  0  0  0  0
 11 14  1  0  0  0  0
 11 13  2  0  0  0  0
 12  5  1  0  0  0  0
 15 17  1  0  0  0  0
 15  7  2  0  0  0  0
 17  1  1  0  0  0  0
 18  7  1  0  0  0  0
 18  9  1  0  0  0  0
 19 13  1  0  0  0  0
 19 10  1  0  0  0  0
 20 14  1  0  0  0  0
 21  8  1  0  0  0  0
 22 18  2  0  0  0  0
 23 28  1  0  0  0  0
 25 27  1  0  0  0  0
 26 27  1  6  0  0  0
 26 17  1  0  0  0  0
 28 26  1  0  0  0  0
 28 29  2  0  0  0  0
 30 24  1  6  0  0  0
 30 25  1  0  0  0  0
 30 23  1  0  0  0  0
 31 32  1  0  0  0  0
 32 23  1  0  0  0  0
M  END
>  <MODEL>
2

>  <REMARK>
 VINA RESULT:      -9.3      3.025      5.479
  Name = 
  2 active torsions:
  status: ('A' for Active; 'I' for Inactive)
    1  A    between atoms: N_3  and  C_19
    2  A    between atoms: C_16  and  N_27
                            x       y       z     vdW  Elec       q    Type
                         _______ _______ _______ _____ _____    ______ ____

>  <TORSDO>
F 2

$$$$
=
 OpenBabel10262421143D

 32 37  0  0  1  0  0  0  0  0999 V2000
  186.1240  178.4760  140.2500 C   0  0  0  0  0  0  0  0  0  0  0  0
  186.9960  178.0590  142.4960 C   0  0  0  0  0  0  0  0  0  0  0  0
  185.0610  178.8860  139.3730 N   0  0  0  0  0  2  0  0  0  0  0  0
  185.9090  178.4330  141.5740 C   0  0  0  0  0  0  0  0  0  0  0  0
  186.7930  178.1220  143.8340 C   0  0  0  0  0  0  0  0  0  0  0  0
  191.6800  177.0060  143.5890 C   0  0  0  0  0  2  0  0  0  0  0  0
  188.3040  177.6600  141.9210 C   0  0  0  0  0  0  0  0  0  0  0  0
  189.9410  176.4780  145.1540 O   0  0  0  0  0  0  0  0  0  0  0  0
  188.9090  176.8170  144.2360 C   0  0  1  0  0  3  0  0  0  0  0  0
  185.2830  178.6300  145.7530 C   0  0  0  0  0  3  0  0  0  0  0  0
  184.6100  178.8470  142.1200 C   0  0  0  0  0  0  0  0  0  0  0  0
  187.9350  177.8510  144.7990 C   0  0  0  0  0  2  0  0  0  0  0  0
  184.4390  178.9110  143.4400 C   0  0  0  0  0  3  0  0  0  0  0  0
  183.5630  179.2240  141.2260 N   0  0  0  0  0  2  0  0  0  0  0  0
  188.4890  177.7280  140.5990 C   0  0  0  0  0  3  0  0  0  0  0  0
  184.1730  179.0030  146.2180 O   0  0  0  0  0  0  0  0  0  0  0  0
  187.4280  178.1570  139.7210 N   0  0  0  0  0  0  0  0  0  0  0  0
  189.3580  177.2070  142.8420 C   0  0  0  0  0  0  0  0  0  0  0  0
  185.5070  178.5540  144.3400 N   0  0  0  0  0  0  0  0  0  0  0  0
  183.6630  178.8960  139.8050 C   0  0  0  0  0  2  0  0  0  0  0  0
  191.0730  177.2960  144.9580 C   0  0  0  0  0  2  0  0  0  0  0  0
  190.6560  177.3240  142.5500 C   0  0  0  0  0  3  0  0  0  0  0  0
  188.4760  176.0750  137.2310 N   0  0  0  0  0  0  0  0  0  0  0  0
  190.1020  177.0330  135.6690 C   0  0  0  0  0  1  0  0  0  0  0  0
  190.1220  177.7100  138.0850 C   0  0  0  0  0  2  0  0  0  0  0  0
  187.6610  178.2570  138.2780 C   0  0  1  0  0  3  0  0  0  0  0  0
  189.0590  178.8010  137.9740 C   0  0  0  0  0  2  0  0  0  0  0  0
  187.3900  176.9490  137.5880 C   0  0  0  0  0  0  0  0  0  0  0  0
  186.1970  176.5980  137.3860 O   0  0  0  0  0  0  0  0  0  0  0  0
  189.8430  176.5790  137.0970 C   0  0  1  0  0  3  0  0  0  0  0  0
  189.3230  173.9010  137.2160 O   0  0  0  0  0  1  0  0  0  0  0  0
  188.2190  174.6850  136.8780 C   0  0  0  0  0  2  0  0  0  0  0  0
  1  4  2  0  0  0  0
  2  5  2  0  0  0  0
  3 20  1  0  0  0  0
  3  1  1  0  0  0  0
  4 11  1  0  0  0  0
  4  2  1  0  0  0  0
  5 19  1  0  0  0  0
  5 12  1  0  0  0  0
  6 21  1  0  0  0  0
  7  2  1  0  0  0  0
  7 18  1  0  0  0  0
  9 12  1  1  0  0  0
  9  8  1  0  0  0  0
 10 16  2  0  0  0  0
 11 13  2  0  0  0  0
 13 19  1  0  0  0  0
 14 11  1  0  0  0  0
 15  7  2  0  0  0  0
 17  1  1  0  0  0  0
 17 15  1  0  0  0  0
 18  9  1  0  0  0  0
 19 10  1  0  0  0  0
 20 14  1  0  0  0  0
 21  8  1  0  0  0  0
 22 18  2  0  0  0  0
 22  6  1  0  0  0  0
 23 28  1  0  0  0  0
 26 27  1  1  0  0  0
 26 17  1  0  0  0  0
 27 25  1  0  0  0  0
 28 26  1  0  0  0  0
 29 28  2  0  0  0  0
 30 24  1  6  0  0  0
 30 23  1  0  0  0  0
 30 25  1  0  0  0  0
 32 31  1  0  0  0  0
 32 23  1  0  0  0  0
M  END
>  <MODEL>
3

>  <REMARK>
 VINA RESULT:      -9.2      2.127      4.697
  Name = 
  2 active torsions:
  status: ('A' for Active; 'I' for Inactive)
    1  A    between atoms: N_3  and  C_19
    2  A    between atoms: C_16  and  N_27
                            x       y       z     vdW  Elec       q    Type
                         _______ _______ _______ _____ _____    ______ ____

>  <TORSDO>
F 2

$$$$
=
 OpenBabel10262421143D

 32 37  0  0  1  0  0  0  0  0999 V2000
  187.1400  178.2550  139.8260 C   0  0  0  0  0  0  0  0  0  0  0  0
  187.2490  178.1760  142.2670 C   0  0  0  0  0  0  0  0  0  0  0  0
  187.7490  178.0750  138.5360 N   0  0  0  0  0  2  0  0  0  0  0  0
  187.8640  178.0420  140.9350 C   0  0  0  0  0  0  0  0  0  0  0  0
  187.9650  177.8580  143.3720 C   0  0  0  0  0  0  0  0  0  0  0  0
  183.4310  178.7830  145.3170 C   0  0  0  0  0  2  0  0  0  0  0  0
  185.8380  178.6240  142.3510 C   0  0  0  0  0  0  0  0  0  0  0  0
  185.6680  179.0650  146.1340 O   0  0  0  0  0  0  0  0  0  0  0  0
  186.2360  178.9610  144.8340 C   0  0  1  0  0  3  0  0  0  0  0  0
  190.0920  177.0440  144.3900 C   0  0  0  0  0  3  0  0  0  0  0  0
  189.2560  177.5860  140.8250 C   0  0  0  0  0  0  0  0  0  0  0  0
  187.3120  177.8800  144.7440 C   0  0  0  0  0  2  0  0  0  0  0  0
  189.9350  177.2670  141.9270 C   0  0  0  0  0  3  0  0  0  0  0  0
  189.8460  177.4410  139.5330 N   0  0  0  0  0  2  0  0  0  0  0  0
  185.1390  178.8130  141.2270 C   0  0  0  0  0  3  0  0  0  0  0  0
  191.2800  176.6360  144.2920 O   0  0  0  0  0  0  0  0  0  0  0  0
  185.7460  178.6150  139.9330 N   0  0  0  0  0  0  0  0  0  0  0  0
  185.2550  178.8380  143.6850 C   0  0  0  0  0  0  0  0  0  0  0  0
  189.3280  177.3910  143.2290 N   0  0  0  0  0  0  0  0  0  0  0  0
  189.2020  178.0410  138.3660 C   0  0  0  0  0  2  0  0  0  0  0  0
  184.5200  178.2530  146.2440 C   0  0  0  0  0  2  0  0  0  0  0  0
  183.9440  178.7230  143.9160 C   0  0  0  0  0  3  0  0  0  0  0  0
  182.4490  179.0060  139.1540 N   0  0  0  0  0  0  0  0  0  0  0  0
  181.6550  177.6990  137.2400 C   0  0  0  0  0  1  0  0  0  0  0  0
  183.4350  176.7750  138.7480 C   0  0  0  0  0  2  0  0  0  0  0  0
  184.9550  178.7940  138.7140 C   0  0  1  0  0  3  0  0  0  0  0  0
  184.6200  177.4510  138.0620 C   0  0  0  0  0  2  0  0  0  0  0  0
  183.7330  179.6300  138.9720 C   0  0  0  0  0  0  0  0  0  0  0  0
  183.8560  180.8780  139.0940 O   0  0  0  0  0  0  0  0  0  0  0  0
  182.1870  177.6520  138.6630 C   0  0  1  0  0  3  0  0  0  0  0  0
  181.1570  179.3770  141.0610 O   0  0  0  0  0  1  0  0  0  0  0  0
  181.3390  179.7540  139.7300 C   0  0  0  0  0  2  0  0  0  0  0  0
  1 17  1  0  0  0  0
  1  4  2  0  0  0  0
  2  7  1  0  0  0  0
  2  5  2  0  0  0  0
  3  1  1  0  0  0  0
  4  2  1  0  0  0  0
  5 12  1  0  0  0  0
  6 21  1  0  0  0  0
  7 18  1  0  0  0  0
  8 21  1  0  0  0  0
  9 12  1  1  0  0  0
  9  8  1  0  0  0  0
 11  4  1  0  0  0  0
 11 13  2  0  0  0  0
 13 19  1  0  0  0  0
 14 11  1  0  0  0  0
 15  7  2  0  0  0  0
 16 10  2  0  0  0  0
 17 15  1  0  0  0  0
 18 22  2  0  0  0  0
 18  9  1  0  0  0  0
 19  5  1  0  0  0  0
 19 10  1  0  0  0  0
 20  3  1  0  0  0  0
 20 14  1  0  0  0  0
 22  6  1  0  0  0  0
 23 32  1  0  0  0  0
 26 27  1  1  0  0  0
 26 28  1  0  0  0  0
 26 17  1  0  0  0  0
 27 25  1  0  0  0  0
 28 29  2  0  0  0  0
 28 23  1  0  0  0  0
 30 24  1  6  0  0  0
 30 25  1  0  0  0  0
 30 23  1  0  0  0  0
 32 31  1  0  0  0  0
M  END
>  <MODEL>
4

>  <REMARK>
 VINA RESULT:      -9.2      2.422      4.505
  Name = 
  2 active torsions:
  status: ('A' for Active; 'I' for Inactive)
    1  A    between atoms: N_3  and  C_19
    2  A    between atoms: C_16  and  N_27
                            x       y       z     vdW  Elec       q    Type
                         _______ _______ _______ _____ _____    ______ ____

>  <TORSDO>
F 2

$$$$
=
 OpenBabel10262421143D

 32 37  0  0  1  0  0  0  0  0999 V2000
  186.6820  178.3540  144.8010 C   0  0  0  0  0  0  0  0  0  0  0  0
  185.2520  178.6470  142.8400 C   0  0  0  0  0  0  0  0  0  0  0  0
  186.8550  178.2570  146.2250 N   0  0  0  0  0  2  0  0  0  0  0  0
  185.4610  178.5890  144.2970 C   0  0  0  0  0  0  0  0  0  0  0  0
  183.9970  178.7810  142.3470 C   0  0  0  0  0  0  0  0  0  0  0  0
  186.6810  178.1140  138.1580 C   0  0  0  0  0  2  0  0  0  0  0  0
  186.4310  178.5160  141.9510 C   0  0  0  0  0  0  0  0  0  0  0  0
  184.6890  179.3510  138.6650 O   0  0  0  0  0  0  0  0  0  0  0  0
  184.9280  179.3060  140.0670 C   0  0  1  0  0  3  0  0  0  0  0  0
  181.5450  179.0030  142.7500 C   0  0  0  0  0  3  0  0  0  0  0  0
  184.3050  178.7000  145.1970 C   0  0  0  0  0  0  0  0  0  0  0  0
  183.7490  178.7280  140.8490 C   0  0  0  0  0  2  0  0  0  0  0  0
  183.0800  178.8200  144.6870 C   0  0  0  0  0  3  0  0  0  0  0  0
  184.5080  178.6280  146.6090 N   0  0  0  0  0  2  0  0  0  0  0  0
  187.6320  178.2680  142.4840 C   0  0  0  0  0  3  0  0  0  0  0  0
  180.5540  179.0800  143.5250 O   0  0  0  0  0  0  0  0  0  0  0  0
  187.8010  178.1530  143.9130 N   0  0  0  0  0  0  0  0  0  0  0  0
  186.2280  178.6600  140.5020 C   0  0  0  0  0  0  0  0  0  0  0  0
  182.8770  178.8680  143.2610 N   0  0  0  0  0  0  0  0  0  0  0  0
  185.8530  178.7690  147.1620 C   0  0  0  0  0  2  0  0  0  0  0  0
  185.1610  178.1780  138.0400 C   0  0  0  0  0  2  0  0  0  0  0  0
  187.0320  178.0750  139.6090 C   0  0  0  0  0  3  0  0  0  0  0  0
  190.8980  177.3920  142.7010 N   0  0  0  0  0  0  0  0  0  0  0  0
  192.0560  175.5590  143.8420 C   0  0  0  0  0  1  0  0  0  0  0  0
  189.5590  175.5170  143.5990 C   0  0  0  0  0  2  0  0  0  0  0  0
  189.1180  177.8470  144.4760 C   0  0  1  0  0  3  0  0  0  0  0  0
  189.2450  176.3640  144.8310 C   0  0  0  0  0  2  0  0  0  0  0  0
  190.2230  178.3190  143.5710 C   0  0  0  0  0  0  0  0  0  0  0  0
  190.5060  179.5460  143.5370 O   0  0  0  0  0  0  0  0  0  0  0  0
  190.8780  175.9530  142.9640 C   0  0  1  0  0  3  0  0  0  0  0  0
  191.4530  177.1300  140.4500 O   0  0  0  0  0  1  0  0  0  0  0  0
  191.7170  177.8780  141.5980 C   0  0  0  0  0  2  0  0  0  0  0  0
  1  3  1  0  0  0  0
  2  4  1  0  0  0  0
  3 20  1  0  0  0  0
  4  1  2  0  0  0  0
  4 11  1  0  0  0  0
  5  2  2  0  0  0  0
  5 19  1  0  0  0  0
  6 22  1  0  0  0  0
  7 15  2  0  0  0  0
  7  2  1  0  0  0  0
  8  9  1  0  0  0  0
  9 18  1  0  0  0  0
  9 12  1  1  0  0  0
 10 19  1  0  0  0  0
 10 16  2  0  0  0  0
 11 14  1  0  0  0  0
 12  5  1  0  0  0  0
 13 11  2  0  0  0  0
 14 20  1  0  0  0  0
 15 17  1  0  0  0  0
 17  1  1  0  0  0  0
 18  7  1  0  0  0  0
 19 13  1  0  0  0  0
 21  6  1  0  0  0  0
 21  8  1  0  0  0  0
 22 18  2  0  0  0  0
 23 30  1  0  0  0  0
 23 28  1  0  0  0  0
 25 27  1  0  0  0  0
 26 17  1  6  0  0  0
 26 27  1  0  0  0  0
 28 26  1  0  0  0  0
 29 28  2  0  0  0  0
 30 25  1  0  0  0  0
 30 24  1  1  0  0  0
 31 32  1  0  0  0  0
 32 23  1  0  0  0  0
M  END
>  <MODEL>
5

>  <REMARK>
 VINA RESULT:      -8.6      2.604      5.528
  Name = 
  2 active torsions:
  status: ('A' for Active; 'I' for Inactive)
    1  A    between atoms: N_3  and  C_19
    2  A    between atoms: C_16  and  N_27
                            x       y       z     vdW  Elec       q    Type
                         _______ _______ _______ _____ _____    ______ ____

>  <TORSDO>
F 2

$$$$
=
 OpenBabel10262421143D

 32 37  0  0  1  0  0  0  0  0999 V2000
  189.6320  177.7160  140.1130 C   0  0  0  0  0  0  0  0  0  0  0  0
  188.0550  177.9900  141.9600 C   0  0  0  0  0  0  0  0  0  0  0  0
  190.9440  177.3930  139.6200 N   0  0  0  0  0  2  0  0  0  0  0  0
  189.4010  177.7060  141.4350 C   0  0  0  0  0  0  0  0  0  0  0  0
  187.8140  177.8750  143.2890 C   0  0  0  0  0  0  0  0  0  0  0  0
  183.2190  178.7940  141.4900 C   0  0  0  0  0  2  0  0  0  0  0  0
  186.9860  178.3610  141.0020 C   0  0  0  0  0  0  0  0  0  0  0  0
  184.3220  179.3210  143.5540 O   0  0  0  0  0  0  0  0  0  0  0  0
  185.6140  179.0690  143.0150 C   0  0  1  0  0  3  0  0  0  0  0  0
  188.6430  177.3410  145.5810 C   0  0  0  0  0  3  0  0  0  0  0  0
  190.4730  177.3220  142.3630 C   0  0  0  0  0  0  0  0  0  0  0  0
  186.4070  178.0520  143.8340 C   0  0  0  0  0  2  0  0  0  0  0  0
  190.2080  177.2040  143.6640 C   0  0  0  0  0  3  0  0  0  0  0  0
  191.7730  177.0320  141.8510 N   0  0  0  0  0  2  0  0  0  0  0  0
  187.2450  178.3470  139.6900 C   0  0  0  0  0  3  0  0  0  0  0  0
  189.5590  176.9950  146.3720 O   0  0  0  0  0  0  0  0  0  0  0  0
  188.5560  178.0040  139.1960 N   0  0  0  0  0  0  0  0  0  0  0  0
  185.6660  178.7260  141.5390 C   0  0  0  0  0  0  0  0  0  0  0  0
  188.8870  177.4740  144.1750 N   0  0  0  0  0  0  0  0  0  0  0  0
  192.1230  177.4210  140.4860 C   0  0  0  0  0  2  0  0  0  0  0  0
  183.3620  178.4660  142.9730 C   0  0  0  0  0  2  0  0  0  0  0  0
  184.5420  178.5670  140.8350 C   0  0  0  0  0  3  0  0  0  0  0  0
  186.8310  177.0850  136.4000 N   0  0  0  0  0  0  0  0  0  0  0  0
  188.0930  175.7610  134.7700 C   0  0  0  0  0  1  0  0  0  0  0  0
  188.5450  175.5040  137.2250 C   0  0  0  0  0  2  0  0  0  0  0  0
  188.8110  177.9620  137.7540 C   0  0  1  0  0  3  0  0  0  0  0  0
  189.5240  176.6700  137.3500 C   0  0  0  0  0  2  0  0  0  0  0  0
  187.5510  178.1950  136.9680 C   0  0  0  0  0  0  0  0  0  0  0  0
  187.0980  179.3660  136.8680 O   0  0  0  0  0  0  0  0  0  0  0  0
  187.4850  175.7980  136.1630 C   0  0  1  0  0  3  0  0  0  0  0  0
  185.4610  177.6360  134.5950 O   0  0  0  0  0  1  0  0  0  0  0  0
  185.4610  177.2540  135.9370 C   0  0  0  0  0  2  0  0  0  0  0  0
  1  4  2  0  0  0  0
  2  5  2  0  0  0  0
  3  1  1  0  0  0  0
  3 20  1  0  0  0  0
  4  2  1  0  0  0  0
  4 11  1  0  0  0  0
  5 12  1  0  0  0  0
  5 19  1  0  0  0  0
  6 21  1  0  0  0  0
  7 18  1  0  0  0  0
  7  2  1  0  0  0  0
  9  8  1  0  0  0  0
  9 12  1  1  0  0  0
 10 16  2  0  0  0  0
 11 13  2  0  0  0  0
 13 19  1  0  0  0  0
 14 11  1  0  0  0  0
 15  7  2  0  0  0  0
 17 15  1  0  0  0  0
 17  1  1  0  0  0  0
 18  9  1  0  0  0  0
 19 10  1  0  0  0  0
 20 14  1  0  0  0  0
 21  8  1  0  0  0  0
 22  6  1  0  0  0  0
 22 18  2  0  0  0  0
 23 28  1  0  0  0  0
 25 27  1  0  0  0  0
 26 27  1  6  0  0  0
 26 17  1  0  0  0  0
 28 26  1  0  0  0  0
 29 28  2  0  0  0  0
 30 24  1  6  0  0  0
 30 23  1  0  0  0  0
 30 25  1  0  0  0  0
 31 32  1  0  0  0  0
 32 23  1  0  0  0  0
M  END
>  <MODEL>
6

>  <REMARK>
 VINA RESULT:      -8.0      1.199      1.382
  Name = 
  2 active torsions:
  status: ('A' for Active; 'I' for Inactive)
    1  A    between atoms: N_3  and  C_19
    2  A    between atoms: C_16  and  N_27
                            x       y       z     vdW  Elec       q    Type
                         _______ _______ _______ _____ _____    ______ ____

>  <TORSDO>
F 2

$$$$
=
 OpenBabel10262421143D

 32 37  0  0  1  0  0  0  0  0999 V2000
  187.0040  177.9870  137.6130 C   0  0  0  0  0  0  0  0  0  0  0  0
  188.5530  177.7410  139.4890 C   0  0  0  0  0  0  0  0  0  0  0  0
  186.7270  177.9600  136.2030 N   0  0  0  0  0  2  0  0  0  0  0  0
  188.2540  177.7640  138.0460 C   0  0  0  0  0  0  0  0  0  0  0  0
  189.7980  177.4130  139.9120 C   0  0  0  0  0  0  0  0  0  0  0  0
  187.2970  177.7560  144.2500 C   0  0  0  0  0  2  0  0  0  0  0  0
  187.4580  178.0450  140.4410 C   0  0  0  0  0  0  0  0  0  0  0  0
  189.5680  178.1910  143.6130 O   0  0  0  0  0  0  0  0  0  0  0  0
  189.2500  178.2370  142.2270 C   0  0  1  0  0  3  0  0  0  0  0  0
  192.1380  176.7350  139.3730 C   0  0  0  0  0  3  0  0  0  0  0  0
  189.3190  177.4520  137.0830 C   0  0  0  0  0  0  0  0  0  0  0  0
  190.0940  177.2730  141.3950 C   0  0  0  0  0  2  0  0  0  0  0  0
  190.5320  177.1210  137.5250 C   0  0  0  0  0  3  0  0  0  0  0  0
  189.0240  177.4590  135.6870 N   0  0  0  0  0  2  0  0  0  0  0  0
  186.2210  178.2470  139.9780 C   0  0  0  0  0  3  0  0  0  0  0  0
  193.0440  176.4500  138.5460 O   0  0  0  0  0  0  0  0  0  0  0  0
  185.9400  178.2030  138.5640 N   0  0  0  0  0  0  0  0  0  0  0  0
  187.7820  178.1040  141.8750 C   0  0  0  0  0  0  0  0  0  0  0  0
  190.8200  177.0900  138.9380 N   0  0  0  0  0  0  0  0  0  0  0  0
  187.7910  178.0770  135.2040 C   0  0  0  0  0  2  0  0  0  0  0  0
  188.7410  177.2670  144.2850 C   0  0  0  0  0  2  0  0  0  0  0  0
  186.8730  177.8480  142.8210 C   0  0  0  0  0  3  0  0  0  0  0  0
  182.8330  178.4550  139.9480 N   0  0  0  0  0  0  0  0  0  0  0  0
  181.0670  177.1940  138.8110 C   0  0  0  0  0  1  0  0  0  0  0  0
  183.4090  176.2980  138.8840 C   0  0  0  0  0  2  0  0  0  0  0  0
  184.5720  178.3940  138.0780 C   0  0  1  0  0  3  0  0  0  0  0  0
  183.9320  177.0650  137.6710 C   0  0  0  0  0  2  0  0  0  0  0  0
  183.7390  179.1530  139.0730 C   0  0  0  0  0  0  0  0  0  0  0  0
  183.8920  180.3990  139.1780 O   0  0  0  0  0  0  0  0  0  0  0  0
  182.3490  177.1130  139.6240 C   0  0  1  0  0  3  0  0  0  0  0  0
  182.9770  178.7120  142.2620 O   0  0  0  0  0  1  0  0  0  0  0  0
  182.2820  179.1190  141.1220 C   0  0  0  0  0  2  0  0  0  0  0  0
  1  4  2  0  0  0  0
  1 17  1  0  0  0  0
  2  5  2  0  0  0  0
  2  7  1  0  0  0  0
  3  1  1  0  0  0  0
  4  2  1  0  0  0  0
  5 12  1  0  0  0  0
  6 21  1  0  0  0  0
  7 18  1  0  0  0  0
  8 21  1  0  0  0  0
  9 12  1  6  0  0  0
  9  8  1  0  0  0  0
 11 13  2  0  0  0  0
 11  4  1  0  0  0  0
 13 19  1  0  0  0  0
 14 11  1  0  0  0  0
 15  7  2  0  0  0  0
 16 10  2  0  0  0  0
 17 15  1  0  0  0  0
 18  9  1  0  0  0  0
 18 22  2  0  0  0  0
 19 10  1  0  0  0  0
 19  5  1  0  0  0  0
 20 14  1  0  0  0  0
 20  3  1  0  0  0  0
 22  6  1  0  0  0  0
 23 32  1  0  0  0  0
 25 30  1  0  0  0  0
 26 27  1  1  0  0  0
 26 17  1  0  0  0  0
 26 28  1  0  0  0  0
 27 25  1  0  0  0  0
 28 29  2  0  0  0  0
 28 23  1  0  0  0  0
 30 24  1  6  0  0  0
 30 23  1  0  0  0  0
 32 31  1  0  0  0  0
M  END
>  <MODEL>
7

>  <REMARK>
 VINA RESULT:      -7.8      2.500      6.143
  Name = 
  2 active torsions:
  status: ('A' for Active; 'I' for Inactive)
    1  A    between atoms: N_3  and  C_19
    2  A    between atoms: C_16  and  N_27
                            x       y       z     vdW  Elec       q    Type
                         _______ _______ _______ _____ _____    ______ ____

>  <TORSDO>
F 2

$$$$
=
 OpenBabel10262421143D

 32 37  0  0  1  0  0  0  0  0999 V2000
  188.4270  178.0890  141.1730 C   0  0  0  0  0  0  0  0  0  0  0  0
  186.0220  178.4030  141.4760 C   0  0  0  0  0  0  0  0  0  0  0  0
  189.7450  177.8880  141.7140 N   0  0  0  0  0  2  0  0  0  0  0  0
  187.3870  178.2410  142.0060 C   0  0  0  0  0  0  0  0  0  0  0  0
  184.9710  178.4500  142.3300 C   0  0  0  0  0  0  0  0  0  0  0  0
  182.6700  178.4260  137.8690 C   0  0  0  0  0  2  0  0  0  0  0  0
  185.8390  178.4710  140.0060 C   0  0  0  0  0  0  0  0  0  0  0  0
  182.1430  179.4040  139.9960 O   0  0  0  0  0  0  0  0  0  0  0  0
  183.4750  179.2630  140.4740 C   0  0  1  0  0  3  0  0  0  0  0  0
  184.1000  178.3830  144.6670 C   0  0  0  0  0  3  0  0  0  0  0  0
  187.5910  178.1550  143.4580 C   0  0  0  0  0  0  0  0  0  0  0  0
  183.5490  178.5020  141.7970 C   0  0  0  0  0  2  0  0  0  0  0  0
  186.5400  178.1920  144.2760 C   0  0  0  0  0  3  0  0  0  0  0  0
  188.9130  177.9820  143.9700 N   0  0  0  0  0  2  0  0  0  0  0  0
  186.8940  178.3020  139.2030 C   0  0  0  0  0  3  0  0  0  0  0  0
  184.2780  178.2910  145.9110 O   0  0  0  0  0  0  0  0  0  0  0  0
  188.2130  178.0820  139.7460 N   0  0  0  0  0  0  0  0  0  0  0  0
  184.4850  178.7180  139.4850 C   0  0  0  0  0  0  0  0  0  0  0  0
  185.2040  178.3420  143.7550 N   0  0  0  0  0  0  0  0  0  0  0  0
  190.0670  178.2120  143.1040 C   0  0  0  0  0  2  0  0  0  0  0  0
  181.8090  178.3440  139.1270 C   0  0  0  0  0  2  0  0  0  0  0  0
  184.1000  178.2980  138.2770 C   0  0  0  0  0  3  0  0  0  0  0  0
  188.6680  177.4730  136.4210 N   0  0  0  0  0  0  0  0  0  0  0  0
  190.3100  175.7360  135.8820 C   0  0  0  0  0  1  0  0  0  0  0  0
  188.9050  175.5450  137.9520 C   0  0  0  0  0  2  0  0  0  0  0  0
  189.3510  177.8660  138.8500 C   0  0  1  0  0  3  0  0  0  0  0  0
  189.7940  176.4010  138.8520 C   0  0  0  0  0  2  0  0  0  0  0  0
  189.0640  178.3790  137.4670 C   0  0  0  0  0  0  0  0  0  0  0  0
  189.1110  179.6190  137.2510 O   0  0  0  0  0  0  0  0  0  0  0  0
  188.9580  176.0410  136.5070 C   0  0  1  0  0  3  0  0  0  0  0  0
  186.6990  178.1600  135.3760 O   0  0  0  0  0  1  0  0  0  0  0  0
  188.0700  177.9790  135.1930 C   0  0  0  0  0  2  0  0  0  0  0  0
  1  3  1  0  0  0  0
  1  4  2  0  0  0  0
  2  4  1  0  0  0  0
  2  5  2  0  0  0  0
  3 20  1  0  0  0  0
  4 11  1  0  0  0  0
  5 19  1  0  0  0  0
  6 22  1  0  0  0  0
  6 21  1  0  0  0  0
  7  2  1  0  0  0  0
  8  9  1  0  0  0  0
  9 12  1  1  0  0  0
 10 16  2  0  0  0  0
 11 14  1  0  0  0  0
 11 13  2  0  0  0  0
 12  5  1  0  0  0  0
 15 17  1  0  0  0  0
 15  7  2  0  0  0  0
 17  1  1  0  0  0  0
 18  7  1  0  0  0  0
 18  9  1  0  0  0  0
 19 13  1  0  0  0  0
 19 10  1  0  0  0  0
 20 14  1  0  0  0  0
 21  8  1  0  0  0  0
 22 18  2  0  0  0  0
 23 30  1  0  0  0  0
 23 28  1  0  0  0  0
 25 27  1  0  0  0  0
 26 27  1  6  0  0  0
 26 17  1  0  0  0  0
 28 26  1  0  0  0  0
 29 28  2  0  0  0  0
 30 24  1  1  0  0  0
 30 25  1  0  0  0  0
 32 31  1  0  0  0  0
 32 23  1  0  0  0  0
M  END
>  <MODEL>
8

>  <REMARK>
 VINA RESULT:      -7.4      1.485      2.089
  Name = 
  2 active torsions:
  status: ('A' for Active; 'I' for Inactive)
    1  A    between atoms: N_3  and  C_19
    2  A    between atoms: C_16  and  N_27
                            x       y       z     vdW  Elec       q    Type
                         _______ _______ _______ _____ _____    ______ ____

>  <TORSDO>
F 2

$$$$
=
 OpenBabel10262421143D

 32 37  0  0  1  0  0  0  0  0999 V2000
  186.4360  178.3140  142.7810 C   0  0  0  0  0  0  0  0  0  0  0  0
  186.0070  178.3910  140.3760 C   0  0  0  0  0  0  0  0  0  0  0  0
  185.9690  178.3400  144.1410 N   0  0  0  0  0  2  0  0  0  0  0  0
  185.5580  178.4590  141.7780 C   0  0  0  0  0  0  0  0  0  0  0  0
  185.0940  178.4360  139.3760 C   0  0  0  0  0  0  0  0  0  0  0  0
  189.3390  177.5370  136.8520 C   0  0  0  0  0  2  0  0  0  0  0  0
  187.4560  178.2350  140.1050 C   0  0  0  0  0  0  0  0  0  0  0  0
  187.3260  178.7330  136.3280 O   0  0  0  0  0  0  0  0  0  0  0  0
  186.9290  178.8110  137.6920 C   0  0  1  0  0  3  0  0  0  0  0  0
  182.7120  178.5940  138.6500 C   0  0  0  0  0  3  0  0  0  0  0  0
  184.1250  178.5980  142.0710 C   0  0  0  0  0  0  0  0  0  0  0  0
  185.5260  178.2530  137.9310 C   0  0  0  0  0  2  0  0  0  0  0  0
  183.2470  178.6290  141.0700 C   0  0  0  0  0  3  0  0  0  0  0  0
  183.6910  178.6480  143.4300 N   0  0  0  0  0  2  0  0  0  0  0  0
  188.3030  178.0770  141.1280 C   0  0  0  0  0  3  0  0  0  0  0  0
  181.4830  178.6960  138.9050 O   0  0  0  0  0  0  0  0  0  0  0  0
  187.8310  178.0850  142.4910 N   0  0  0  0  0  0  0  0  0  0  0  0
  187.9080  178.2530  138.7050 C   0  0  0  0  0  0  0  0  0  0  0  0
  183.6870  178.5530  139.6990 N   0  0  0  0  0  0  0  0  0  0  0  0
  184.6590  178.8870  144.4980 C   0  0  0  0  0  2  0  0  0  0  0  0
  188.0240  177.5320  136.0790 C   0  0  0  0  0  2  0  0  0  0  0  0
  189.0210  177.6300  138.3080 C   0  0  0  0  0  3  0  0  0  0  0  0
  191.1430  177.3400  142.8220 N   0  0  0  0  0  0  0  0  0  0  0  0
  191.6810  175.6550  144.5170 C   0  0  0  0  0  1  0  0  0  0  0  0
  189.5400  175.5000  143.2180 C   0  0  0  0  0  2  0  0  0  0  0  0
  188.7690  177.8780  143.5960 C   0  0  1  0  0  3  0  0  0  0  0  0
  188.7230  176.4360  144.1070 C   0  0  0  0  0  2  0  0  0  0  0  0
  190.1600  178.3120  143.2230 C   0  0  0  0  0  0  0  0  0  0  0  0
  190.4340  179.5410  143.2010 O   0  0  0  0  0  0  0  0  0  0  0  0
  191.0060  175.9290  143.1830 C   0  0  1  0  0  3  0  0  0  0  0  0
  192.1650  177.7470  140.7650 O   0  0  0  0  0  1  0  0  0  0  0  0
  192.3630  177.7610  142.1460 C   0  0  0  0  0  2  0  0  0  0  0  0
  1  3  1  0  0  0  0
  2  4  1  0  0  0  0
  3 20  1  0  0  0  0
  4 11  1  0  0  0  0
  4  1  2  0  0  0  0
  5 19  1  0  0  0  0
  5  2  2  0  0  0  0
  6 22  1  0  0  0  0
  7  2  1  0  0  0  0
  7 15  2  0  0  0  0
  8  9  1  0  0  0  0
  9 12  1  6  0  0  0
  9 18  1  0  0  0  0
 10 16  2  0  0  0  0
 10 19  1  0  0  0  0
 11 14  1  0  0  0  0
 12  5  1  0  0  0  0
 13 11  2  0  0  0  0
 14 20  1  0  0  0  0
 15 17  1  0  0  0  0
 17  1  1  0  0  0  0
 18  7  1  0  0  0  0
 19 13  1  0  0  0  0
 21  8  1  0  0  0  0
 21  6  1  0  0  0  0
 22 18  2  0  0  0  0
 23 30  1  0  0  0  0
 23 28  1  0  0  0  0
 25 27  1  0  0  0  0
 26 17  1  6  0  0  0
 26 27  1  0  0  0  0
 28 26  1  0  0  0  0
 29 28  2  0  0  0  0
 30 25  1  0  0  0  0
 30 24  1  1  0  0  0
 31 32  1  0  0  0  0
 32 23  1  0  0  0  0
M  END
>  <MODEL>
9

>  <REMARK>
 VINA RESULT:      -7.4      2.407      6.300
  Name = 
  2 active torsions:
  status: ('A' for Active; 'I' for Inactive)
    1  A    between atoms: N_3  and  C_19
    2  A    between atoms: C_16  and  N_27
                            x       y       z     vdW  Elec       q    Type
                         _______ _______ _______ _____ _____    ______ ____

>  <TORSDO>
F 2

$$$$
