=
 OpenBabel10262423253D

 34 39  0  0  1  0  0  0  0  0999 V2000
  183.6070  178.6760  139.0450 C   0  0  2  0  0  3  0  0  0  0  0  0
  184.8330  176.7770  135.8490 C   0  0  0  0  0  2  0  0  0  0  0  0
  188.4280  176.7070  136.1770 C   0  0  0  0  0  0  0  0  0  0  0  0
  182.5980  177.0910  136.9000 N   0  0  0  0  0  2  0  0  0  0  0  0
  185.2570  179.7920  140.3900 O   0  0  0  0  0  0  0  0  0  0  0  0
  184.2340  179.0570  140.3670 C   0  0  0  0  0  0  0  0  0  0  0  0
  181.5980  177.9550  140.3760 C   0  0  0  0  0  0  0  0  0  0  0  0
  180.3720  177.3070  140.4890 O   0  0  0  0  0  1  0  0  0  0  0  0
  187.7460  177.3710  134.9700 C   0  0  0  0  0  2  0  0  0  0  0  0
  182.1380  178.6280  141.6030 C   0  0  0  0  0  2  0  0  0  0  0  0
  183.5970  178.6690  141.5930 N   0  0  0  0  0  0  0  0  0  0  0  0
  181.7080  177.3870  137.9730 C   0  0  0  0  0  0  0  0  0  0  0  0
  182.2590  177.9900  139.2000 C   0  0  0  0  0  0  0  0  0  0  0  0
  180.4800  177.1370  137.8480 O   0  0  0  0  0  0  0  0  0  0  0  0
  186.0520  176.2060  136.2410 O   0  0  0  0  0  0  0  0  0  0  0  0
  189.3800  176.1680  136.7150 O   0  0  0  0  0  0  0  0  0  0  0  0
  187.0030  177.2390  136.1840 C   0  0  1  0  0  0  0  0  0  0  0  0
  186.8170  178.4560  137.0820 C   0  0  0  0  0  2  0  0  0  0  0  0
  184.0150  177.2620  137.0190 C   0  0  0  0  0  0  0  0  0  0  0  0
  186.0340  178.0330  138.3140 C   0  0  0  0  0  2  0  0  0  0  0  0
  184.5400  177.9360  138.0820 C   0  0  0  0  0  0  0  0  0  0  0  0
  184.4760  178.6450  145.2440 C   0  0  0  0  0  3  0  0  0  0  0  0
  185.6650  178.0380  142.7900 C   0  0  0  0  0  3  0  0  0  0  0  0
  188.0430  177.8960  146.3210 C   0  0  2  0  0  3  0  0  0  0  0  0
  186.5240  177.9890  146.5090 C   0  0  0  0  0  2  0  0  0  0  0  0
  185.8010  178.2030  145.2090 C   0  0  0  0  0  0  0  0  0  0  0  0
  187.8350  177.4570  143.8770 C   0  0  0  0  0  2  0  0  0  0  0  0
  186.3940  177.8730  143.9720 C   0  0  0  0  0  0  0  0  0  0  0  0
  188.3680  176.9170  145.2010 C   0  0  0  0  0  2  0  0  0  0  0  0
  184.3350  178.4860  142.8200 C   0  0  0  0  0  0  0  0  0  0  0  0
  183.7520  178.7930  144.0590 C   0  0  0  0  0  3  0  0  0  0  0  0
  188.7560  177.4880  147.6080 C   0  0  2  0  0  3  0  0  0  0  0  0
  188.9550  178.5880  148.4450 O   0  0  0  0  0  1  0  0  0  0  0  0
  190.0870  176.8270  147.3010 C   0  0  0  0  0  1  0  0  0  0  0  0
  1 21  1  1  0  0  0
  1 13  1  0  0  0  0
  1  6  1  0  0  0  0
  2 15  1  0  0  0  0
  2 19  1  0  0  0  0
  3 17  1  0  0  0  0
  3 16  2  0  0  0  0
  4 19  1  0  0  0  0
  4 12  1  0  0  0  0
  6  5  2  0  0  0  0
  6 11  1  0  0  0  0
  7  8  1  0  0  0  0
  7 10  1  0  0  0  0
  9  3  1  0  0  0  0
 11 10  1  0  0  0  0
 11 30  1  0  0  0  0
 12 13  1  0  0  0  0
 13  7  2  0  0  0  0
 14 12  2  0  0  0  0
 17  9  1  6  0  0  0
 17 15  1  0  0  0  0
 17 18  1  0  0  0  0
 18 20  1  0  0  0  0
 19 21  2  0  0  0  0
 21 20  1  0  0  0  0
 23 30  2  0  0  0  0
 23 28  1  0  0  0  0
 24 25  1  0  0  0  0
 24 32  1  1  0  0  0
 26 22  1  0  0  0  0
 26 25  1  0  0  0  0
 27 28  1  0  0  0  0
 27 29  1  0  0  0  0
 28 26  2  0  0  0  0
 29 24  1  0  0  0  0
 30 31  1  0  0  0  0
 31 22  2  0  0  0  0
 32 34  1  6  0  0  0
 32 33  1  0  0  0  0
M  END
>  <MODEL>
1

>  <REMARK>
 VINA RESULT:     -11.1      0.000      0.000
  Name = 
  2 active torsions:
  status: ('A' for Active; 'I' for Inactive)
    1  A    between atoms: C_7  and  C_11
    2  A    between atoms: N_18  and  C_30
                            x       y       z     vdW  Elec       q    Type
                         _______ _______ _______ _____ _____    ______ ____

>  <TORSDO>
F 2

$$$$
=
 OpenBabel10262423253D

 34 39  0  0  1  0  0  0  0  0999 V2000
  182.4380  178.7030  141.2240 C   0  0  2  0  0  3  0  0  0  0  0  0
  181.2630  176.3930  138.2900 C   0  0  0  0  0  2  0  0  0  0  0  0
  184.3290  175.3360  136.7050 C   0  0  0  0  0  0  0  0  0  0  0  0
  180.1070  177.3670  140.2690 N   0  0  0  0  0  2  0  0  0  0  0  0
  184.7460  179.3740  141.2700 O   0  0  0  0  0  0  0  0  0  0  0  0
  183.7540  178.9540  141.9240 C   0  0  0  0  0  0  0  0  0  0  0  0
  181.4030  178.6350  143.5160 C   0  0  0  0  0  0  0  0  0  0  0  0
  180.3410  178.3610  144.3720 O   0  0  0  0  0  1  0  0  0  0  0  0
  183.2500  176.1080  135.9280 C   0  0  0  0  0  2  0  0  0  0  0  0
  182.6570  179.1860  144.1260 C   0  0  0  0  0  2  0  0  0  0  0  0
  183.8370  178.8160  143.3500 N   0  0  0  0  0  0  0  0  0  0  0  0
  180.0440  177.9500  141.5680 C   0  0  0  0  0  0  0  0  0  0  0  0
  181.2930  178.4300  142.1860 C   0  0  0  0  0  0  0  0  0  0  0  0
  178.9320  178.0470  142.1520 O   0  0  0  0  0  0  0  0  0  0  0  0
  182.3430  175.5220  138.0920 O   0  0  0  0  0  0  0  0  0  0  0  0
  185.2820  174.5770  136.7590 O   0  0  0  0  0  0  0  0  0  0  0  0
  183.2940  176.2450  137.3500 C   0  0  1  0  0  0  0  0  0  0  0  0
  183.8950  177.5050  137.9610 C   0  0  0  0  0  2  0  0  0  0  0  0
  181.3510  177.1410  139.5970 C   0  0  0  0  0  0  0  0  0  0  0  0
  183.8570  177.3750  139.4750 C   0  0  0  0  0  2  0  0  0  0  0  0
  182.5030  177.6890  140.0790 C   0  0  0  0  0  0  0  0  0  0  0  0
  186.4090  178.3840  146.0520 C   0  0  0  0  0  3  0  0  0  0  0  0
  186.1790  178.0300  143.2910 C   0  0  0  0  0  3  0  0  0  0  0  0
  189.9810  177.4720  145.1290 C   0  0  2  0  0  3  0  0  0  0  0  0
  188.7660  177.5650  146.0600 C   0  0  0  0  0  2  0  0  0  0  0  0
  187.5090  177.9290  145.3210 C   0  0  0  0  0  0  0  0  0  0  0  0
  188.5580  177.3030  143.0900 C   0  0  0  0  0  2  0  0  0  0  0  0
  187.3860  177.7280  143.9290 C   0  0  0  0  0  0  0  0  0  0  0  0
  189.6410  176.6160  143.9160 C   0  0  0  0  0  2  0  0  0  0  0  0
  185.0720  178.4910  144.0210 C   0  0  0  0  0  0  0  0  0  0  0  0
  185.2040  178.6700  145.4080 C   0  0  0  0  0  3  0  0  0  0  0  0
  191.2100  176.9160  145.8450 C   0  0  2  0  0  3  0  0  0  0  0  0
  191.8100  175.8980  145.1000 O   0  0  0  0  0  1  0  0  0  0  0  0
  190.8440  176.4000  147.2240 C   0  0  0  0  0  1  0  0  0  0  0  0
  1 21  1  6  0  0  0
  1  6  1  0  0  0  0
  1 13  1  0  0  0  0
  2 19  1  0  0  0  0
  3 16  2  0  0  0  0
  3 17  1  0  0  0  0
  4 12  1  0  0  0  0
  5  6  2  0  0  0  0
  6 11  1  0  0  0  0
  7 10  1  0  0  0  0
  7  8  1  0  0  0  0
  9  3  1  0  0  0  0
 11 30  1  0  0  0  0
 11 10  1  0  0  0  0
 12 14  2  0  0  0  0
 12 13  1  0  0  0  0
 13  7  2  0  0  0  0
 15  2  1  0  0  0  0
 17  9  1  6  0  0  0
 17 18  1  0  0  0  0
 17 15  1  0  0  0  0
 18 20  1  0  0  0  0
 19 21  2  0  0  0  0
 19  4  1  0  0  0  0
 20 21  1  0  0  0  0
 23 28  2  0  0  0  0
 23 30  1  0  0  0  0
 24 32  1  1  0  0  0
 24 25  1  0  0  0  0
 26 22  2  0  0  0  0
 26 25  1  0  0  0  0
 27 29  1  0  0  0  0
 27 28  1  0  0  0  0
 28 26  1  0  0  0  0
 29 24  1  0  0  0  0
 30 31  2  0  0  0  0
 31 22  1  0  0  0  0
 32 34  1  1  0  0  0
 33 32  1  0  0  0  0
M  END
>  <MODEL>
2

>  <REMARK>
 VINA RESULT:     -10.5      2.238      3.122
  Name = 
  2 active torsions:
  status: ('A' for Active; 'I' for Inactive)
    1  A    between atoms: C_7  and  C_11
    2  A    between atoms: N_18  and  C_30
                            x       y       z     vdW  Elec       q    Type
                         _______ _______ _______ _____ _____    ______ ____

>  <TORSDO>
F 2

$$$$
=
 OpenBabel10262423253D

 34 39  0  0  1  0  0  0  0  0999 V2000
  182.4180  178.8220  141.0390 C   0  0  2  0  0  3  0  0  0  0  0  0
  180.8650  176.6540  138.1730 C   0  0  0  0  0  2  0  0  0  0  0  0
  183.7170  175.4810  136.2960 C   0  0  0  0  0  0  0  0  0  0  0  0
  179.9430  177.6350  140.2670 N   0  0  0  0  0  2  0  0  0  0  0  0
  184.7540  179.3690  140.8920 O   0  0  0  0  0  0  0  0  0  0  0  0
  183.8020  178.9850  141.6240 C   0  0  0  0  0  0  0  0  0  0  0  0
  181.5870  178.7470  143.4120 C   0  0  0  0  0  0  0  0  0  0  0  0
  180.5910  178.5070  144.3540 O   0  0  0  0  0  1  0  0  0  0  0  0
  182.6170  176.3290  135.6360 C   0  0  0  0  0  2  0  0  0  0  0  0
  182.9190  179.2150  143.9190 C   0  0  0  0  0  2  0  0  0  0  0  0
  184.0030  178.8050  143.0330 N   0  0  0  0  0  0  0  0  0  0  0  0
  180.0260  178.1860  141.5790 C   0  0  0  0  0  0  0  0  0  0  0  0
  181.3490  178.5830  142.0930 C   0  0  0  0  0  0  0  0  0  0  0  0
  178.9770  178.3260  142.2620 O   0  0  0  0  0  0  0  0  0  0  0  0
  181.8750  175.7340  137.8590 O   0  0  0  0  0  0  0  0  0  0  0  0
  184.6280  174.6720  136.2490 O   0  0  0  0  0  0  0  0  0  0  0  0
  182.7940  176.4250  137.0510 C   0  0  1  0  0  0  0  0  0  0  0  0
  183.5140  177.6360  137.6330 C   0  0  0  0  0  2  0  0  0  0  0  0
  181.1090  177.3620  139.4820 C   0  0  0  0  0  0  0  0  0  0  0  0
  183.6030  177.4680  139.1410 C   0  0  0  0  0  2  0  0  0  0  0  0
  182.3270  177.8360  139.8710 C   0  0  0  0  0  0  0  0  0  0  0  0
  187.5030  177.4660  143.2900 C   0  0  0  0  0  3  0  0  0  0  0  0
  185.5050  178.4660  144.9670 C   0  0  0  0  0  3  0  0  0  0  0  0
  189.0500  176.8760  146.7110 C   0  0  2  0  0  3  0  0  0  0  0  0
  189.0740  177.1340  145.1990 C   0  0  0  0  0  2  0  0  0  0  0  0
  187.7260  177.5320  144.6680 C   0  0  0  0  0  0  0  0  0  0  0  0
  186.8930  178.0880  147.0060 C   0  0  0  0  0  2  0  0  0  0  0  0
  186.7260  178.0590  145.5130 C   0  0  0  0  0  0  0  0  0  0  0  0
  188.3600  178.0310  147.4240 C   0  0  0  0  0  2  0  0  0  0  0  0
  185.2740  178.3980  143.5840 C   0  0  0  0  0  0  0  0  0  0  0  0
  186.2850  177.8880  142.7540 C   0  0  0  0  0  3  0  0  0  0  0  0
  190.4520  176.6630  147.2780 C   0  0  2  0  0  3  0  0  0  0  0  0
  190.7600  177.6300  148.2390 O   0  0  0  0  0  1  0  0  0  0  0  0
  191.4910  176.6870  146.1720 C   0  0  0  0  0  1  0  0  0  0  0  0
  1 21  1  6  0  0  0
  1  6  1  0  0  0  0
  1 13  1  0  0  0  0
  2 19  1  0  0  0  0
  3 17  1  0  0  0  0
  4 12  1  0  0  0  0
  5  6  2  0  0  0  0
  6 11  1  0  0  0  0
  7 10  1  0  0  0  0
  7  8  1  0  0  0  0
  9  3  1  0  0  0  0
 11 30  1  0  0  0  0
 11 10  1  0  0  0  0
 12 13  1  0  0  0  0
 12 14  2  0  0  0  0
 13  7  2  0  0  0  0
 15  2  1  0  0  0  0
 16  3  2  0  0  0  0
 17  9  1  6  0  0  0
 17 18  1  0  0  0  0
 17 15  1  0  0  0  0
 18 20  1  0  0  0  0
 19 21  2  0  0  0  0
 19  4  1  0  0  0  0
 20 21  1  0  0  0  0
 22 26  1  0  0  0  0
 23 28  1  0  0  0  0
 24 32  1  1  0  0  0
 24 29  1  0  0  0  0
 25 24  1  0  0  0  0
 26 25  1  0  0  0  0
 26 28  2  0  0  0  0
 27 29  1  0  0  0  0
 28 27  1  0  0  0  0
 30 23  2  0  0  0  0
 31 22  2  0  0  0  0
 31 30  1  0  0  0  0
 32 34  1  6  0  0  0
 32 33  1  0  0  0  0
M  END
>  <MODEL>
3

>  <REMARK>
 VINA RESULT:     -10.5      2.195      3.278
  Name = 
  2 active torsions:
  status: ('A' for Active; 'I' for Inactive)
    1  A    between atoms: C_7  and  C_11
    2  A    between atoms: N_18  and  C_30
                            x       y       z     vdW  Elec       q    Type
                         _______ _______ _______ _____ _____    ______ ____

>  <TORSDO>
F 2

$$$$
=
 OpenBabel10262423253D

 34 39  0  0  1  0  0  0  0  0999 V2000
  183.3290  179.0260  141.0740 C   0  0  2  0  0  3  0  0  0  0  0  0
  182.8920  177.0940  137.6960 C   0  0  0  0  0  2  0  0  0  0  0  0
  186.2620  176.2610  136.7040 C   0  0  0  0  0  0  0  0  0  0  0  0
  181.3050  177.8080  139.4770 N   0  0  0  0  0  2  0  0  0  0  0  0
  185.5490  179.6970  141.7040 O   0  0  0  0  0  0  0  0  0  0  0  0
  184.4530  179.1940  142.0700 C   0  0  0  0  0  0  0  0  0  0  0  0
  181.8250  178.6650  143.0580 C   0  0  0  0  0  0  0  0  0  0  0  0
  180.6120  178.2810  143.6210 O   0  0  0  0  0  1  0  0  0  0  0  0
  185.3520  177.1180  135.8100 C   0  0  0  0  0  2  0  0  0  0  0  0
  182.8990  179.1420  143.9900 C   0  0  0  0  0  2  0  0  0  0  0  0
  184.2300  178.8790  143.4520 N   0  0  0  0  0  0  0  0  0  0  0  0
  180.9430  178.2220  140.7910 C   0  0  0  0  0  0  0  0  0  0  0  0
  182.0130  178.6280  141.7210 C   0  0  0  0  0  0  0  0  0  0  0  0
  179.7280  178.2400  141.1250 O   0  0  0  0  0  0  0  0  0  0  0  0
  184.0180  176.2620  137.6350 O   0  0  0  0  0  0  0  0  0  0  0  0
  187.2050  175.5060  136.8730 O   0  0  0  0  0  0  0  0  0  0  0  0
  185.0830  177.0760  137.2120 C   0  0  1  0  0  0  0  0  0  0  0  0
  185.4960  178.2530  138.0880 C   0  0  0  0  0  2  0  0  0  0  0  0
  182.6720  177.6740  139.0710 C   0  0  0  0  0  0  0  0  0  0  0  0
  185.1360  177.9340  139.5300 C   0  0  0  0  0  2  0  0  0  0  0  0
  183.6740  178.1630  139.8560 C   0  0  0  0  0  0  0  0  0  0  0  0
  186.2170  178.2460  146.5750 C   0  0  0  0  0  3  0  0  0  0  0  0
  186.5110  177.9950  143.8090 C   0  0  0  0  0  3  0  0  0  0  0  0
  189.8650  177.2140  146.3140 C   0  0  2  0  0  3  0  0  0  0  0  0
  188.4970  177.3280  146.9990 C   0  0  0  0  0  2  0  0  0  0  0  0
  187.4200  177.7700  146.0490 C   0  0  0  0  0  0  0  0  0  0  0  0
  188.8560  177.1750  144.0360 C   0  0  0  0  0  2  0  0  0  0  0  0
  187.5600  177.6200  144.6530 C   0  0  0  0  0  0  0  0  0  0  0  0
  189.7350  176.4140  145.0250 C   0  0  0  0  0  2  0  0  0  0  0  0
  185.3010  178.4790  144.3330 C   0  0  0  0  0  0  0  0  0  0  0  0
  185.1690  178.6050  145.7250 C   0  0  0  0  0  3  0  0  0  0  0  0
  190.9130  176.5820  147.2280 C   0  0  2  0  0  3  0  0  0  0  0  0
  191.4080  177.5120  148.1460 O   0  0  0  0  0  1  0  0  0  0  0  0
  192.0550  175.9990  146.4170 C   0  0  0  0  0  1  0  0  0  0  0  0
  1 21  1  6  0  0  0
  1 13  1  0  0  0  0
  1  6  1  0  0  0  0
  2 19  1  0  0  0  0
  3 16  2  0  0  0  0
  3 17  1  0  0  0  0
  4 12  1  0  0  0  0
  5  6  2  0  0  0  0
  6 11  1  0  0  0  0
  7  8  1  0  0  0  0
  7 10  1  0  0  0  0
  9  3  1  0  0  0  0
 11 10  1  0  0  0  0
 11 30  1  0  0  0  0
 12 14  2  0  0  0  0
 12 13  1  0  0  0  0
 13  7  2  0  0  0  0
 15  2  1  0  0  0  0
 17  9  1  6  0  0  0
 17 15  1  0  0  0  0
 17 18  1  0  0  0  0
 18 20  1  0  0  0  0
 19  4  1  0  0  0  0
 19 21  2  0  0  0  0
 20 21  1  0  0  0  0
 23 30  2  0  0  0  0
 23 28  1  0  0  0  0
 24 25  1  0  0  0  0
 24 32  1  1  0  0  0
 26 22  1  0  0  0  0
 26 25  1  0  0  0  0
 27 28  1  0  0  0  0
 27 29  1  0  0  0  0
 28 26  2  0  0  0  0
 29 24  1  0  0  0  0
 30 31  1  0  0  0  0
 31 22  2  0  0  0  0
 32 34  1  6  0  0  0
 32 33  1  0  0  0  0
M  END
>  <MODEL>
4

>  <REMARK>
 VINA RESULT:     -10.3      1.502      2.274
  Name = 
  2 active torsions:
  status: ('A' for Active; 'I' for Inactive)
    1  A    between atoms: C_7  and  C_11
    2  A    between atoms: N_18  and  C_30
                            x       y       z     vdW  Elec       q    Type
                         _______ _______ _______ _____ _____    ______ ____

>  <TORSDO>
F 2

$$$$
=
 OpenBabel10262423253D

 34 39  0  0  1  0  0  0  0  0999 V2000
  182.7060  178.6070  139.7210 C   0  0  2  0  0  3  0  0  0  0  0  0
  182.2920  176.3390  136.5570 C   0  0  0  0  0  2  0  0  0  0  0  0
  185.6740  175.4960  135.6150 C   0  0  0  0  0  0  0  0  0  0  0  0
  180.7010  177.1850  138.2760 N   0  0  0  0  0  2  0  0  0  0  0  0
  184.9130  179.3940  140.2560 O   0  0  0  0  0  0  0  0  0  0  0  0
  183.8340  178.9020  140.6830 C   0  0  0  0  0  0  0  0  0  0  0  0
  181.2300  178.4080  141.7480 C   0  0  0  0  0  0  0  0  0  0  0  0
  180.0320  178.0510  142.3600 O   0  0  0  0  0  1  0  0  0  0  0  0
  184.7340  176.2370  134.6500 C   0  0  0  0  0  2  0  0  0  0  0  0
  182.2980  179.0020  142.6160 C   0  0  0  0  0  2  0  0  0  0  0  0
  183.6310  178.7210  142.0920 N   0  0  0  0  0  0  0  0  0  0  0  0
  180.3400  177.7190  139.5470 C   0  0  0  0  0  0  0  0  0  0  0  0
  181.4060  178.2420  140.4200 C   0  0  0  0  0  0  0  0  0  0  0  0
  179.1280  177.7390  139.8910 O   0  0  0  0  0  0  0  0  0  0  0  0
  183.4390  175.5330  136.5660 O   0  0  0  0  0  0  0  0  0  0  0  0
  186.6370  174.7860  135.8480 O   0  0  0  0  0  0  0  0  0  0  0  0
  184.4780  176.3280  136.0530 C   0  0  1  0  0  0  0  0  0  0  0  0
  184.8670  177.5970  136.8030 C   0  0  0  0  0  2  0  0  0  0  0  0
  182.0680  177.0460  137.8700 C   0  0  0  0  0  0  0  0  0  0  0  0
  184.5280  177.4140  138.2730 C   0  0  0  0  0  2  0  0  0  0  0  0
  183.0630  177.6370  138.5910 C   0  0  0  0  0  0  0  0  0  0  0  0
  186.9610  177.5790  143.4020 C   0  0  0  0  0  3  0  0  0  0  0  0
  184.5820  178.6750  144.3730 C   0  0  0  0  0  3  0  0  0  0  0  0
  187.5720  177.4590  147.1510 C   0  0  2  0  0  3  0  0  0  0  0  0
  187.9860  177.5410  145.6760 C   0  0  0  0  0  2  0  0  0  0  0  0
  186.8170  177.8130  144.7720 C   0  0  0  0  0  0  0  0  0  0  0  0
  185.3970  178.5980  146.7300 C   0  0  0  0  0  2  0  0  0  0  0  0
  185.6240  178.3890  145.2600 C   0  0  0  0  0  0  0  0  0  0  0  0
  186.7050  178.6560  147.5150 C   0  0  0  0  0  2  0  0  0  0  0  0
  184.7200  178.4380  142.9960 C   0  0  0  0  0  0  0  0  0  0  0  0
  185.9190  177.8820  142.5230 C   0  0  0  0  0  3  0  0  0  0  0  0
  188.7810  177.3760  148.0810 C   0  0  2  0  0  3  0  0  0  0  0  0
  189.0960  178.6290  148.6110 O   0  0  0  0  0  1  0  0  0  0  0  0
  189.9850  176.8070  147.3520 C   0  0  0  0  0  1  0  0  0  0  0  0
  1 21  1  6  0  0  0
  1 13  1  0  0  0  0
  1  6  1  0  0  0  0
  2 15  1  0  0  0  0
  2 19  1  0  0  0  0
  3 16  2  0  0  0  0
  3 17  1  0  0  0  0
  4 12  1  0  0  0  0
  5  6  2  0  0  0  0
  6 11  1  0  0  0  0
  7  8  1  0  0  0  0
  7 10  1  0  0  0  0
  9  3  1  0  0  0  0
 11 10  1  0  0  0  0
 11 30  1  0  0  0  0
 12 14  2  0  0  0  0
 12 13  1  0  0  0  0
 13  7  2  0  0  0  0
 17  9  1  6  0  0  0
 17 15  1  0  0  0  0
 17 18  1  0  0  0  0
 18 20  1  0  0  0  0
 19  4  1  0  0  0  0
 19 21  2  0  0  0  0
 20 21  1  0  0  0  0
 22 26  1  0  0  0  0
 23 28  1  0  0  0  0
 24 29  1  0  0  0  0
 24 32  1  1  0  0  0
 25 24  1  0  0  0  0
 26 28  2  0  0  0  0
 26 25  1  0  0  0  0
 27 29  1  0  0  0  0
 28 27  1  0  0  0  0
 30 23  2  0  0  0  0
 31 30  1  0  0  0  0
 31 22  2  0  0  0  0
 32 34  1  6  0  0  0
 32 33  1  0  0  0  0
M  END
>  <MODEL>
5

>  <REMARK>
 VINA RESULT:     -10.1      1.427      2.115
  Name = 
  2 active torsions:
  status: ('A' for Active; 'I' for Inactive)
    1  A    between atoms: C_7  and  C_11
    2  A    between atoms: N_18  and  C_30
                            x       y       z     vdW  Elec       q    Type
                         _______ _______ _______ _____ _____    ______ ____

>  <TORSDO>
F 2

$$$$
=
 OpenBabel10262423253D

 34 39  0  0  1  0  0  0  0  0999 V2000
  186.9550  178.2620  138.7790 C   0  0  2  0  0  3  0  0  0  0  0  0
  187.2450  175.8180  135.7330 C   0  0  0  0  0  2  0  0  0  0  0  0
  190.4740  174.2570  136.1470 C   0  0  0  0  0  0  0  0  0  0  0  0
  185.3590  177.1160  136.7120 N   0  0  0  0  0  2  0  0  0  0  0  0
  188.9300  178.6600  140.0900 O   0  0  0  0  0  0  0  0  0  0  0  0
  187.6910  178.4270  140.0880 C   0  0  0  0  0  0  0  0  0  0  0  0
  184.8370  178.5460  140.1050 C   0  0  0  0  0  0  0  0  0  0  0  0
  183.4520  178.4860  140.2290 O   0  0  0  0  0  1  0  0  0  0  0  0
  190.1310  175.0660  134.8860 C   0  0  0  0  0  2  0  0  0  0  0  0
  185.6180  179.0070  141.3000 C   0  0  0  0  0  2  0  0  0  0  0  0
  186.9570  178.4260  141.3210 N   0  0  0  0  0  0  0  0  0  0  0  0
  184.6830  177.8300  137.7440 C   0  0  0  0  0  0  0  0  0  0  0  0
  185.4450  178.2220  138.9440 C   0  0  0  0  0  0  0  0  0  0  0  0
  183.4640  178.1150  137.6070 O   0  0  0  0  0  0  0  0  0  0  0  0
  188.1090  174.8120  136.1880 O   0  0  0  0  0  0  0  0  0  0  0  0
  191.1110  173.4020  136.7390 O   0  0  0  0  0  0  0  0  0  0  0  0
  189.4080  175.3400  136.0880 C   0  0  1  0  0  0  0  0  0  0  0  0
  189.7600  176.5780  136.9060 C   0  0  0  0  0  2  0  0  0  0  0  0
  186.7160  176.6790  136.8530 C   0  0  0  0  0  0  0  0  0  0  0  0
  188.8780  176.6070  138.1440 C   0  0  0  0  0  2  0  0  0  0  0  0
  187.4820  177.1360  137.8840 C   0  0  0  0  0  0  0  0  0  0  0  0
  187.3420  177.4610  144.9300 C   0  0  0  0  0  3  0  0  0  0  0  0
  188.9470  177.8910  142.6850 C   0  0  0  0  0  3  0  0  0  0  0  0
  190.8150  177.1570  146.4410 C   0  0  2  0  0  3  0  0  0  0  0  0
  189.3110  176.8780  146.3470 C   0  0  0  0  0  2  0  0  0  0  0  0
  188.7280  177.3290  145.0370 C   0  0  0  0  0  0  0  0  0  0  0  0
  191.0370  177.4570  143.9770 C   0  0  0  0  0  2  0  0  0  0  0  0
  189.5380  177.5230  143.8970 C   0  0  0  0  0  0  0  0  0  0  0  0
  191.5160  176.6560  145.1850 C   0  0  0  0  0  2  0  0  0  0  0  0
  187.5540  178.0290  142.5730 C   0  0  0  0  0  0  0  0  0  0  0  0
  186.7600  177.8160  143.7110 C   0  0  0  0  0  3  0  0  0  0  0  0
  191.4390  176.5270  147.6850 C   0  0  2  0  0  3  0  0  0  0  0  0
  192.0700  177.4900  148.4760 O   0  0  0  0  0  1  0  0  0  0  0  0
  192.4300  175.4440  147.3010 C   0  0  0  0  0  1  0  0  0  0  0  0
  1 21  1  1  0  0  0
  1 13  1  0  0  0  0
  1  6  1  0  0  0  0
  2 15  1  0  0  0  0
  2 19  1  0  0  0  0
  3 16  2  0  0  0  0
  4 19  1  0  0  0  0
  4 12  1  0  0  0  0
  6  5  2  0  0  0  0
  6 11  1  0  0  0  0
  7  8  1  0  0  0  0
  7 10  1  0  0  0  0
  9  3  1  0  0  0  0
 10 11  1  0  0  0  0
 11 30  1  0  0  0  0
 12 13  1  0  0  0  0
 13  7  2  0  0  0  0
 14 12  2  0  0  0  0
 17  9  1  6  0  0  0
 17  3  1  0  0  0  0
 17 15  1  0  0  0  0
 17 18  1  0  0  0  0
 18 20  1  0  0  0  0
 19 21  2  0  0  0  0
 21 20  1  0  0  0  0
 22 26  1  0  0  0  0
 23 28  1  0  0  0  0
 24 32  1  1  0  0  0
 25 24  1  0  0  0  0
 26 25  1  0  0  0  0
 27 29  1  0  0  0  0
 28 27  1  0  0  0  0
 28 26  2  0  0  0  0
 29 24  1  0  0  0  0
 30 23  2  0  0  0  0
 30 31  1  0  0  0  0
 31 22  2  0  0  0  0
 32 34  1  6  0  0  0
 32 33  1  0  0  0  0
M  END
>  <MODEL>
6

>  <REMARK>
 VINA RESULT:      -9.9      2.180      3.160
  Name = 
  2 active torsions:
  status: ('A' for Active; 'I' for Inactive)
    1  A    between atoms: C_7  and  C_11
    2  A    between atoms: N_18  and  C_30
                            x       y       z     vdW  Elec       q    Type
                         _______ _______ _______ _____ _____    ______ ____

>  <TORSDO>
F 2

$$$$
=
 OpenBabel10262423253D

 34 39  0  0  1  0  0  0  0  0999 V2000
  190.1390  176.8580  137.5720 C   0  0  2  0  0  3  0  0  0  0  0  0
  191.9360  173.9370  135.6850 C   0  0  0  0  0  2  0  0  0  0  0  0
  194.7900  173.1590  137.7560 C   0  0  0  0  0  0  0  0  0  0  0  0
  189.7050  175.0160  135.4390 N   0  0  0  0  0  2  0  0  0  0  0  0
  191.3050  177.9010  139.3970 O   0  0  0  0  0  0  0  0  0  0  0  0
  190.2160  177.4350  138.9670 C   0  0  0  0  0  0  0  0  0  0  0  0
  187.6390  176.9940  137.8160 C   0  0  0  0  0  0  0  0  0  0  0  0
  186.3490  176.6920  137.3900 O   0  0  0  0  0  1  0  0  0  0  0  0
  194.9570  173.6040  136.2930 C   0  0  0  0  0  2  0  0  0  0  0  0
  187.7800  177.8380  139.0470 C   0  0  0  0  0  2  0  0  0  0  0  0
  189.0220  177.5480  139.7560 N   0  0  0  0  0  0  0  0  0  0  0  0
  188.5890  175.7840  135.8810 C   0  0  0  0  0  0  0  0  0  0  0  0
  188.7160  176.5590  137.1280 C   0  0  0  0  0  0  0  0  0  0  0  0
  187.5300  175.7900  135.1990 O   0  0  0  0  0  0  0  0  0  0  0  0
  192.6030  173.2370  136.7000 O   0  0  0  0  0  0  0  0  0  0  0  0
  195.1800  172.5880  138.7600 O   0  0  0  0  0  0  0  0  0  0  0  0
  193.7640  173.9770  136.9850 C   0  0  1  0  0  0  0  0  0  0  0  0
  193.6150  175.4020  137.5040 C   0  0  0  0  0  2  0  0  0  0  0  0
  190.9000  174.8930  136.2200 C   0  0  0  0  0  0  0  0  0  0  0  0
  192.2850  175.5170  138.2310 C   0  0  0  0  0  2  0  0  0  0  0  0
  191.0990  175.6960  137.3040 C   0  0  0  0  0  0  0  0  0  0  0  0
  190.2730  177.3010  143.2880 C   0  0  0  0  0  3  0  0  0  0  0  0
  187.8660  177.7180  141.9340 C   0  0  0  0  0  3  0  0  0  0  0  0
  187.7960  177.2860  146.1700 C   0  0  2  0  0  3  0  0  0  0  0  0
  189.1670  177.4980  145.5160 C   0  0  0  0  0  2  0  0  0  0  0  0
  189.0920  177.4670  144.0150 C   0  0  0  0  0  0  0  0  0  0  0  0
  186.5730  177.8210  144.0660 C   0  0  0  0  0  2  0  0  0  0  0  0
  187.8790  177.7020  143.3320 C   0  0  0  0  0  0  0  0  0  0  0  0
  186.7670  178.2080  145.5290 C   0  0  0  0  0  2  0  0  0  0  0  0
  189.0500  177.5470  141.1990 C   0  0  0  0  0  0  0  0  0  0  0  0
  190.2520  177.3320  141.8920 C   0  0  0  0  0  3  0  0  0  0  0  0
  187.8420  177.5090  147.6800 C   0  0  2  0  0  3  0  0  0  0  0  0
  186.9330  178.4950  148.0720 O   0  0  0  0  0  1  0  0  0  0  0  0
  189.2410  177.8920  148.1270 C   0  0  0  0  0  1  0  0  0  0  0  0
  1 13  1  1  0  0  0
  1  6  1  0  0  0  0
  2 19  1  0  0  0  0
  2 15  1  0  0  0  0
  3 16  2  0  0  0  0
  4 12  1  0  0  0  0
  4 19  1  0  0  0  0
  6  5  2  0  0  0  0
  6 11  1  0  0  0  0
  7 10  1  0  0  0  0
  8  7  1  0  0  0  0
  9  3  1  0  0  0  0
 10 11  1  0  0  0  0
 11 30  1  0  0  0  0
 12 13  1  0  0  0  0
 13  7  2  0  0  0  0
 14 12  2  0  0  0  0
 15 17  1  0  0  0  0
 17  9  1  6  0  0  0
 17 18  1  0  0  0  0
 17  3  1  0  0  0  0
 18 20  1  0  0  0  0
 19 21  2  0  0  0  0
 21  1  1  0  0  0  0
 21 20  1  0  0  0  0
 22 26  1  0  0  0  0
 23 28  1  0  0  0  0
 24 32  1  1  0  0  0
 25 24  1  0  0  0  0
 26 25  1  0  0  0  0
 27 29  1  0  0  0  0
 28 26  2  0  0  0  0
 28 27  1  0  0  0  0
 29 24  1  0  0  0  0
 30 31  1  0  0  0  0
 30 23  2  0  0  0  0
 31 22  2  0  0  0  0
 32 33  1  0  0  0  0
 32 34  1  6  0  0  0
M  END
>  <MODEL>
7

>  <REMARK>
 VINA RESULT:      -9.6      3.749      5.972
  Name = 
  2 active torsions:
  status: ('A' for Active; 'I' for Inactive)
    1  A    between atoms: C_7  and  C_11
    2  A    between atoms: N_18  and  C_30
                            x       y       z     vdW  Elec       q    Type
                         _______ _______ _______ _____ _____    ______ ____

>  <TORSDO>
F 2

$$$$
=
 OpenBabel10262423253D

 34 39  0  0  1  0  0  0  0  0999 V2000
  186.6730  178.2200  138.1290 C   0  0  2  0  0  3  0  0  0  0  0  0
  187.8430  175.7060  135.3650 C   0  0  0  0  0  2  0  0  0  0  0  0
  191.1220  174.6520  136.4500 C   0  0  0  0  0  0  0  0  0  0  0  0
  185.6520  176.7600  135.9030 N   0  0  0  0  0  2  0  0  0  0  0  0
  188.3010  178.9620  139.7340 O   0  0  0  0  0  0  0  0  0  0  0  0
  187.1260  178.5510  139.5320 C   0  0  0  0  0  0  0  0  0  0  0  0
  184.3280  178.2550  139.0400 C   0  0  0  0  0  0  0  0  0  0  0  0
  182.9650  178.0000  138.9230 O   0  0  0  0  0  1  0  0  0  0  0  0
  190.9100  175.3440  135.0930 C   0  0  0  0  0  2  0  0  0  0  0  0
  184.8070  178.8780  140.3170 C   0  0  0  0  0  2  0  0  0  0  0  0
  186.1850  178.5000  140.6140 N   0  0  0  0  0  0  0  0  0  0  0  0
  184.7090  177.4150  136.7460 C   0  0  0  0  0  0  0  0  0  0  0  0
  185.1770  177.9690  138.0300 C   0  0  0  0  0  0  0  0  0  0  0  0
  183.5080  177.5130  136.3780 O   0  0  0  0  0  0  0  0  0  0  0  0
  188.7370  174.8590  136.0350 O   0  0  0  0  0  0  0  0  0  0  0  0
  191.7490  173.9270  137.2030 O   0  0  0  0  0  0  0  0  0  0  0  0
  189.9490  175.5650  136.1270 C   0  0  1  0  0  0  0  0  0  0  0  0
  189.9740  176.8770  136.9030 C   0  0  0  0  0  2  0  0  0  0  0  0
  187.0060  176.5320  136.3100 C   0  0  0  0  0  0  0  0  0  0  0  0
  188.8850  176.8350  137.9620 C   0  0  0  0  0  2  0  0  0  0  0  0
  187.5010  177.1430  137.4240 C   0  0  0  0  0  0  0  0  0  0  0  0
  186.0540  178.0930  144.3450 C   0  0  0  0  0  3  0  0  0  0  0  0
  187.9370  177.9990  142.2840 C   0  0  0  0  0  3  0  0  0  0  0  0
  189.2800  177.6990  146.3140 C   0  0  2  0  0  3  0  0  0  0  0  0
  187.7730  177.5560  146.0710 C   0  0  0  0  0  2  0  0  0  0  0  0
  187.3960  177.8460  144.6460 C   0  0  0  0  0  0  0  0  0  0  0  0
  189.8070  177.5770  143.8820 C   0  0  0  0  0  2  0  0  0  0  0  0
  188.3430  177.7750  143.6020 C   0  0  0  0  0  0  0  0  0  0  0  0
  190.0530  176.9370  145.2450 C   0  0  0  0  0  2  0  0  0  0  0  0
  186.5910  178.2530  141.9770 C   0  0  0  0  0  0  0  0  0  0  0  0
  185.6560  178.3030  143.0230 C   0  0  0  0  0  3  0  0  0  0  0  0
  189.6850  177.2190  147.7060 C   0  0  2  0  0  3  0  0  0  0  0  0
  189.5000  178.2220  148.6600 O   0  0  0  0  0  1  0  0  0  0  0  0
  191.1300  176.7560  147.7180 C   0  0  0  0  0  1  0  0  0  0  0  0
  1 21  1  1  0  0  0
  1  6  1  0  0  0  0
  2 15  1  0  0  0  0
  2 19  1  0  0  0  0
  3 16  2  0  0  0  0
  4 19  1  0  0  0  0
  4 12  1  0  0  0  0
  6  5  2  0  0  0  0
  6 11  1  0  0  0  0
  7 10  1  0  0  0  0
  8  7  1  0  0  0  0
  9  3  1  0  0  0  0
 10 11  1  0  0  0  0
 11 30  1  0  0  0  0
 12 13  1  0  0  0  0
 13  1  1  0  0  0  0
 13  7  2  0  0  0  0
 14 12  2  0  0  0  0
 15 17  1  0  0  0  0
 17  9  1  6  0  0  0
 17  3  1  0  0  0  0
 17 18  1  0  0  0  0
 18 20  1  0  0  0  0
 19 21  2  0  0  0  0
 21 20  1  0  0  0  0
 22 26  1  0  0  0  0
 23 28  1  0  0  0  0
 24 32  1  1  0  0  0
 25 24  1  0  0  0  0
 26 25  1  0  0  0  0
 27 29  1  0  0  0  0
 28 27  1  0  0  0  0
 28 26  2  0  0  0  0
 29 24  1  0  0  0  0
 30 23  2  0  0  0  0
 30 31  1  0  0  0  0
 31 22  2  0  0  0  0
 32 34  1  6  0  0  0
 32 33  1  0  0  0  0
M  END
>  <MODEL>
8

>  <REMARK>
 VINA RESULT:      -9.5      1.850      2.750
  Name = 
  2 active torsions:
  status: ('A' for Active; 'I' for Inactive)
    1  A    between atoms: C_7  and  C_11
    2  A    between atoms: N_18  and  C_30
                            x       y       z     vdW  Elec       q    Type
                         _______ _______ _______ _____ _____    ______ ____

>  <TORSDO>
F 2

$$$$
=
 OpenBabel10262423253D

 34 39  0  0  1  0  0  0  0  0999 V2000
  190.1270  176.7610  137.2960 C   0  0  2  0  0  3  0  0  0  0  0  0
  192.0660  173.8610  135.5190 C   0  0  0  0  0  2  0  0  0  0  0  0
  194.8430  173.1660  137.7200 C   0  0  0  0  0  0  0  0  0  0  0  0
  189.8260  174.8900  135.1660 N   0  0  0  0  0  2  0  0  0  0  0  0
  191.1910  177.8460  139.1590 O   0  0  0  0  0  0  0  0  0  0  0  0
  190.1310  177.3530  138.6870 C   0  0  0  0  0  0  0  0  0  0  0  0
  187.6170  176.8460  137.4300 C   0  0  0  0  0  0  0  0  0  0  0  0
  186.3530  176.5110  136.9530 O   0  0  0  0  0  1  0  0  0  0  0  0
  195.0640  173.6000  136.2620 C   0  0  0  0  0  2  0  0  0  0  0  0
  187.6860  177.7040  138.6580 C   0  0  0  0  0  2  0  0  0  0  0  0
  188.9030  177.4480  139.4220 N   0  0  0  0  0  0  0  0  0  0  0  0
  188.6750  175.6380  135.5510 C   0  0  0  0  0  0  0  0  0  0  0  0
  188.7320  176.4270  136.7940 C   0  0  0  0  0  0  0  0  0  0  0  0
  187.6470  175.6140  134.8240 O   0  0  0  0  0  0  0  0  0  0  0  0
  192.7030  173.1860  136.5700 O   0  0  0  0  0  0  0  0  0  0  0  0
  195.2010  172.6130  138.7460 O   0  0  0  0  0  0  0  0  0  0  0  0
  193.8340  173.9530  136.8970 C   0  0  1  0  0  0  0  0  0  0  0  0
  193.6330  175.3800  137.3940 C   0  0  0  0  0  2  0  0  0  0  0  0
  190.9870  174.8000  136.0000 C   0  0  0  0  0  0  0  0  0  0  0  0
  192.2710  175.4730  138.0610 C   0  0  0  0  0  2  0  0  0  0  0  0
  191.1220  175.6170  137.0830 C   0  0  0  0  0  0  0  0  0  0  0  0
  187.6710  177.8610  142.9460 C   0  0  0  0  0  3  0  0  0  0  0  0
  190.0200  177.1560  141.6080 C   0  0  0  0  0  3  0  0  0  0  0  0
  190.1180  177.6010  145.8420 C   0  0  2  0  0  3  0  0  0  0  0  0
  188.7350  177.5490  145.1810 C   0  0  0  0  0  2  0  0  0  0  0  0
  188.8210  177.5610  143.6800 C   0  0  0  0  0  0  0  0  0  0  0  0
  191.2800  176.9140  143.7480 C   0  0  0  0  0  2  0  0  0  0  0  0
  190.0010  177.1820  143.0050 C   0  0  0  0  0  0  0  0  0  0  0  0
  191.0350  176.5610  145.2120 C   0  0  0  0  0  2  0  0  0  0  0  0
  188.8680  177.4610  140.8650 C   0  0  0  0  0  0  0  0  0  0  0  0
  187.6960  177.8190  141.5510 C   0  0  0  0  0  3  0  0  0  0  0  0
  190.0380  177.3940  147.3530 C   0  0  2  0  0  3  0  0  0  0  0  0
  190.9290  176.4040  147.7740 O   0  0  0  0  0  1  0  0  0  0  0  0
  188.6270  177.0300  147.7740 C   0  0  0  0  0  1  0  0  0  0  0  0
  1 13  1  1  0  0  0
  1  6  1  0  0  0  0
  2 19  1  0  0  0  0
  2 15  1  0  0  0  0
  3 16  2  0  0  0  0
  4 12  1  0  0  0  0
  4 19  1  0  0  0  0
  6  5  2  0  0  0  0
  6 11  1  0  0  0  0
  7 10  1  0  0  0  0
  8  7  1  0  0  0  0
  9  3  1  0  0  0  0
 10 11  1  0  0  0  0
 11 30  1  0  0  0  0
 12 13  1  0  0  0  0
 13  7  2  0  0  0  0
 14 12  2  0  0  0  0
 15 17  1  0  0  0  0
 17  9  1  6  0  0  0
 17 18  1  0  0  0  0
 17  3  1  0  0  0  0
 18 20  1  0  0  0  0
 19 21  2  0  0  0  0
 21  1  1  0  0  0  0
 21 20  1  0  0  0  0
 22 26  1  0  0  0  0
 23 28  1  0  0  0  0
 24 32  1  1  0  0  0
 25 24  1  0  0  0  0
 26 25  1  0  0  0  0
 27 29  1  0  0  0  0
 28 26  2  0  0  0  0
 28 27  1  0  0  0  0
 29 24  1  0  0  0  0
 30 31  1  0  0  0  0
 30 23  2  0  0  0  0
 31 22  2  0  0  0  0
 32 33  1  0  0  0  0
 32 34  1  6  0  0  0
M  END
>  <MODEL>
9

>  <REMARK>
 VINA RESULT:      -9.1      3.851      6.044
  Name = 
  2 active torsions:
  status: ('A' for Active; 'I' for Inactive)
    1  A    between atoms: C_7  and  C_11
    2  A    between atoms: N_18  and  C_30
                            x       y       z     vdW  Elec       q    Type
                         _______ _______ _______ _____ _____    ______ ____

>  <TORSDO>
F 2

$$$$
