=
 OpenBabel10262423323D

 34 39  0  0  0  0  0  0  0  0999 V2000
  183.4160  178.4050  141.1240 C   0  0  0  0  0  0  0  0  0  0  0  0
  183.0820  177.8320  137.4780 C   0  0  0  0  0  3  0  0  0  0  0  0
  181.5930  178.6850  139.0040 N   0  0  0  0  0  0  0  0  0  0  0  0
  183.6090  178.7050  143.5660 C   0  0  0  0  0  0  0  0  0  0  0  0
  184.1970  178.3870  142.3030 C   0  0  0  0  0  3  0  0  0  0  0  0
  181.5070  179.0810  142.4530 C   0  0  0  0  0  0  0  0  0  0  0  0
  180.1560  179.4830  142.1930 N   0  0  0  0  0  2  0  0  0  0  0  0
  182.2400  179.0750  143.6390 C   0  0  0  0  0  3  0  0  0  0  0  0
  181.2380  178.9270  140.2870 C   0  0  0  0  0  0  0  0  0  0  0  0
  182.1020  178.7500  141.2880 C   0  0  0  0  0  0  0  0  0  0  0  0
  180.0260  179.3690  140.8110 O   0  0  0  0  0  0  0  0  0  0  0  0
  184.2600  177.0460  137.0110 C   0  0  0  0  0  2  0  0  0  0  0  0
  185.5420  177.7840  137.1510 C   0  0  0  0  0  0  0  0  0  0  0  0
  185.9700  178.1780  138.3480 C   0  0  0  0  0  3  0  0  0  0  0  0
  182.8750  178.2650  138.7260 C   0  0  0  0  0  0  0  0  0  0  0  0
  185.2010  178.1520  139.6050 C   0  0  0  0  0  3  0  0  0  0  0  0
  183.8670  178.2020  139.7920 C   0  0  0  0  0  0  0  0  0  0  0  0
  187.7730  177.2140  144.2170 C   0  0  0  0  0  3  0  0  0  0  0  0
  186.2690  178.3760  146.2290 N   0  0  0  0  0  0  0  0  0  0  0  0
  190.1490  177.0990  147.0570 C   0  0  0  0  0  0  0  0  0  0  0  0
  189.6150  176.9390  145.7700 C   0  0  0  0  0  3  0  0  0  0  0  0
  188.3150  177.3680  145.4920 C   0  0  0  0  0  0  0  0  0  0  0  0
  184.3730  178.6960  144.7810 N   0  0  0  0  0  2  0  0  0  0  0  0
  188.0640  178.1200  147.7870 C   0  0  0  0  0  3  0  0  0  0  0  0
  187.5330  177.9610  146.5040 C   0  0  0  0  0  0  0  0  0  0  0  0
  189.3660  177.6910  148.0620 C   0  0  0  0  0  3  0  0  0  0  0  0
  185.7180  178.2390  144.9910 C   0  0  0  0  0  0  0  0  0  0  0  0
  186.4710  177.6490  143.9640 C   0  0  0  0  0  3  0  0  0  0  0  0
  191.5200  176.6480  147.3470 C   0  0  0  0  0  0  0  0  0  0  0  0
  192.1430  177.1020  148.3440 O   0  0  0  0  0  1  0  0  0  0  0  0
  192.1390  175.7150  146.5250 O   0  0  0  0  0  0  0  0  0  0  0  0
  186.4160  177.9230  135.9750 C   0  0  0  0  0  0  0  0  0  0  0  0
  186.0000  177.4470  134.7370 O   0  0  0  0  0  0  0  0  0  0  0  0
  187.5440  178.4780  136.0730 O   0  0  0  0  0  1  0  0  0  0  0  0
  1 10  2  0  0  0  0
  1  5  1  0  0  0  0
  2 15  2  0  0  0  0
  3  9  2  0  0  0  0
  4  8  1  0  0  0  0
  4 23  1  0  0  0  0
  5  4  2  0  0  0  0
  6  8  2  0  0  0  0
  7  6  1  0  0  0  0
  9 11  1  0  0  0  0
  9 10  1  0  0  0  0
 10  6  1  0  0  0  0
 11  7  1  0  0  0  0
 12 13  1  0  0  0  0
 12  2  1  0  0  0  0
 13 14  2  0  0  0  0
 14 16  1  0  0  0  0
 15  3  1  0  0  0  0
 15 17  1  0  0  0  0
 16 17  2  0  0  0  0
 17  1  1  0  0  0  0
 18 22  1  0  0  0  0
 19 25  1  0  0  0  0
 20 29  1  0  0  0  0
 20 26  1  0  0  0  0
 21 20  2  0  0  0  0
 22 21  1  0  0  0  0
 22 25  2  0  0  0  0
 23 27  1  0  0  0  0
 24 26  2  0  0  0  0
 25 24  1  0  0  0  0
 27 19  2  0  0  0  0
 28 18  2  0  0  0  0
 28 27  1  0  0  0  0
 29 30  1  0  0  0  0
 31 29  2  0  0  0  0
 32 34  1  0  0  0  0
 32 13  1  0  0  0  0
 33 32  2  0  0  0  0
M  END
>  <MODEL>
1

>  <REMARK>
 VINA RESULT:     -11.0      0.000      0.000
  Name = 
  3 active torsions:
  status: ('A' for Active; 'I' for Inactive)
    1  A    between atoms: C_3  and  C_25
    2  A    between atoms: C_7  and  C_11
    3  A    between atoms: C_8  and  N_18
                            x       y       z     vdW  Elec       q    Type
                         _______ _______ _______ _____ _____    ______ ____

>  <TORSDO>
F 3

$$$$
=
 OpenBabel10262423323D

 34 39  0  0  0  0  0  0  0  0999 V2000
  185.2710  178.6330  142.8230 C   0  0  0  0  0  0  0  0  0  0  0  0
  185.1280  178.8060  146.5220 C   0  0  0  0  0  3  0  0  0  0  0  0
  183.4480  178.7850  144.9560 N   0  0  0  0  0  0  0  0  0  0  0  0
  185.3700  178.6070  140.3580 C   0  0  0  0  0  0  0  0  0  0  0  0
  186.0170  178.5120  141.6280 C   0  0  0  0  0  3  0  0  0  0  0  0
  183.2670  178.9060  141.4910 C   0  0  0  0  0  0  0  0  0  0  0  0
  181.8610  179.0110  141.7470 N   0  0  0  0  0  2  0  0  0  0  0  0
  183.9630  178.7910  140.2890 C   0  0  0  0  0  3  0  0  0  0  0  0
  183.0460  178.8640  143.6670 C   0  0  0  0  0  0  0  0  0  0  0  0
  183.9260  178.8330  142.6650 C   0  0  0  0  0  0  0  0  0  0  0  0
  181.7640  178.9840  143.1370 O   0  0  0  0  0  0  0  0  0  0  0  0
  186.5090  179.0230  147.0410 C   0  0  0  0  0  2  0  0  0  0  0  0
  187.4190  177.8820  146.7610 C   0  0  0  0  0  0  0  0  0  0  0  0
  187.6830  177.5170  145.5090 C   0  0  0  0  0  3  0  0  0  0  0  0
  184.7900  178.6510  145.2380 C   0  0  0  0  0  0  0  0  0  0  0  0
  186.9980  177.9950  144.2950 C   0  0  0  0  0  3  0  0  0  0  0  0
  185.7470  178.4750  144.1530 C   0  0  0  0  0  0  0  0  0  0  0  0
  189.4920  177.0000  139.7120 C   0  0  0  0  0  3  0  0  0  0  0  0
  187.8900  177.8860  137.6360 N   0  0  0  0  0  0  0  0  0  0  0  0
  191.6850  176.3850  136.7910 C   0  0  0  0  0  0  0  0  0  0  0  0
  191.2290  176.4390  138.1150 C   0  0  0  0  0  3  0  0  0  0  0  0
  189.9560  176.9410  138.4000 C   0  0  0  0  0  0  0  0  0  0  0  0
  186.0980  178.4870  139.1250 N   0  0  0  0  0  2  0  0  0  0  0  0
  189.5810  177.3460  136.0350 C   0  0  0  0  0  3  0  0  0  0  0  0
  189.1270  177.3980  137.3550 C   0  0  0  0  0  0  0  0  0  0  0  0
  190.8540  176.8410  135.7540 C   0  0  0  0  0  3  0  0  0  0  0  0
  187.4130  177.9520  138.9100 C   0  0  0  0  0  0  0  0  0  0  0  0
  188.2170  177.5070  139.9700 C   0  0  0  0  0  3  0  0  0  0  0  0
  193.0260  175.8540  136.4940 C   0  0  0  0  0  0  0  0  0  0  0  0
  193.1740  174.6510  136.1510 O   0  0  0  0  0  0  0  0  0  0  0  0
  194.1420  176.6770  136.5880 O   0  0  0  0  0  1  0  0  0  0  0  0
  188.1600  177.2710  147.8770 C   0  0  0  0  0  0  0  0  0  0  0  0
  189.2240  176.4140  147.6210 O   0  0  0  0  0  0  0  0  0  0  0  0
  187.8430  177.5190  149.0720 O   0  0  0  0  0  1  0  0  0  0  0  0
  1 17  1  0  0  0  0
  2 12  1  0  0  0  0
  3 15  1  0  0  0  0
  4  5  1  0  0  0  0
  5  1  2  0  0  0  0
  6  7  1  0  0  0  0
  6 10  2  0  0  0  0
  7 11  1  0  0  0  0
  8  4  2  0  0  0  0
  8  6  1  0  0  0  0
  9  3  2  0  0  0  0
 10  1  1  0  0  0  0
 10  9  1  0  0  0  0
 11  9  1  0  0  0  0
 13 12  1  0  0  0  0
 13 32  1  0  0  0  0
 14 13  2  0  0  0  0
 15  2  2  0  0  0  0
 16 14  1  0  0  0  0
 17 16  2  0  0  0  0
 17 15  1  0  0  0  0
 18 28  2  0  0  0  0
 19 27  2  0  0  0  0
 20 21  1  0  0  0  0
 21 22  2  0  0  0  0
 22 18  1  0  0  0  0
 23  4  1  0  0  0  0
 24 25  2  0  0  0  0
 25 19  1  0  0  0  0
 25 22  1  0  0  0  0
 26 24  1  0  0  0  0
 26 20  2  0  0  0  0
 27 23  1  0  0  0  0
 27 28  1  0  0  0  0
 29 31  1  0  0  0  0
 29 20  1  0  0  0  0
 30 29  2  0  0  0  0
 32 34  1  0  0  0  0
 33 32  2  0  0  0  0
M  END
>  <MODEL>
2

>  <REMARK>
 VINA RESULT:     -10.4      3.463      8.090
  Name = 
  3 active torsions:
  status: ('A' for Active; 'I' for Inactive)
    1  A    between atoms: C_3  and  C_25
    2  A    between atoms: C_7  and  C_11
    3  A    between atoms: C_8  and  N_18
                            x       y       z     vdW  Elec       q    Type
                         _______ _______ _______ _____ _____    ______ ____

>  <TORSDO>
F 3

$$$$
=
 OpenBabel10262423323D

 34 39  0  0  0  0  0  0  0  0999 V2000
  188.9630  177.5600  144.1730 C   0  0  0  0  0  0  0  0  0  0  0  0
  192.1320  177.0150  142.3290 C   0  0  0  0  0  3  0  0  0  0  0  0
  191.6310  176.7670  144.5570 N   0  0  0  0  0  0  0  0  0  0  0  0
  186.8780  178.0070  145.4130 C   0  0  0  0  0  0  0  0  0  0  0  0
  187.5870  177.8870  144.1790 C   0  0  0  0  0  3  0  0  0  0  0  0
  188.9010  177.4470  146.5920 C   0  0  0  0  0  0  0  0  0  0  0  0
  189.8120  177.0730  147.6330 N   0  0  0  0  0  2  0  0  0  0  0  0
  187.5450  177.7660  146.6430 C   0  0  0  0  0  3  0  0  0  0  0  0
  190.7850  176.9500  145.5960 C   0  0  0  0  0  0  0  0  0  0  0  0
  189.5330  177.3680  145.4020 C   0  0  0  0  0  0  0  0  0  0  0  0
  190.9930  176.7690  146.9610 O   0  0  0  0  0  0  0  0  0  0  0  0
  191.9720  177.5430  140.9440 C   0  0  0  0  0  2  0  0  0  0  0  0
  190.9550  176.8010  140.1540 C   0  0  0  0  0  0  0  0  0  0  0  0
  189.6850  176.7640  140.5500 C   0  0  0  0  0  3  0  0  0  0  0  0
  191.1860  176.9970  143.2740 C   0  0  0  0  0  0  0  0  0  0  0  0
  189.1590  177.2220  141.8480 C   0  0  0  0  0  3  0  0  0  0  0  0
  189.7840  177.3170  143.0380 C   0  0  0  0  0  0  0  0  0  0  0  0
  184.0170  178.4120  142.0010 C   0  0  0  0  0  3  0  0  0  0  0  0
  183.2480  178.7200  144.6410 N   0  0  0  0  0  0  0  0  0  0  0  0
  180.3960  179.0990  141.6260 C   0  0  0  0  0  0  0  0  0  0  0  0
  181.7310  178.8180  141.3000 C   0  0  0  0  0  3  0  0  0  0  0  0
  182.6880  178.6900  142.3110 C   0  0  0  0  0  0  0  0  0  0  0  0
  185.4800  178.3370  145.4540 N   0  0  0  0  0  2  0  0  0  0  0  0
  180.9850  179.1250  143.9870 C   0  0  0  0  0  3  0  0  0  0  0  0
  182.3150  178.8450  143.6620 C   0  0  0  0  0  0  0  0  0  0  0  0
  180.0300  179.2510  142.9730 C   0  0  0  0  0  3  0  0  0  0  0  0
  184.5530  178.4460  144.3640 C   0  0  0  0  0  0  0  0  0  0  0  0
  184.9540  178.2900  143.0280 C   0  0  0  0  0  3  0  0  0  0  0  0
  179.3910  179.2310  140.5590 C   0  0  0  0  0  0  0  0  0  0  0  0
  178.9380  180.3650  140.2450 O   0  0  0  0  0  1  0  0  0  0  0  0
  178.9300  178.1060  139.8870 O   0  0  0  0  0  0  0  0  0  0  0  0
  191.3330  176.2530  138.8410 C   0  0  0  0  0  0  0  0  0  0  0  0
  192.4230  176.7770  138.1560 O   0  0  0  0  0  0  0  0  0  0  0  0
  190.6800  175.3050  138.3270 O   0  0  0  0  0  1  0  0  0  0  0  0
  1  5  2  0  0  0  0
  1 10  1  0  0  0  0
  2 15  2  0  0  0  0
  3  9  2  0  0  0  0
  4 23  1  0  0  0  0
  4  8  2  0  0  0  0
  5  4  1  0  0  0  0
  6  8  1  0  0  0  0
  6  7  1  0  0  0  0
  9 11  1  0  0  0  0
 10  9  1  0  0  0  0
 10  6  2  0  0  0  0
 11  7  1  0  0  0  0
 12  2  1  0  0  0  0
 13 14  2  0  0  0  0
 13 12  1  0  0  0  0
 14 16  1  0  0  0  0
 15  3  1  0  0  0  0
 16 17  2  0  0  0  0
 17 15  1  0  0  0  0
 17  1  1  0  0  0  0
 18 22  1  0  0  0  0
 18 28  2  0  0  0  0
 20 26  1  0  0  0  0
 21 20  2  0  0  0  0
 21 22  1  0  0  0  0
 22 25  2  0  0  0  0
 25 24  1  0  0  0  0
 25 19  1  0  0  0  0
 26 24  2  0  0  0  0
 27 19  2  0  0  0  0
 27 23  1  0  0  0  0
 28 27  1  0  0  0  0
 29 20  1  0  0  0  0
 30 29  1  0  0  0  0
 31 29  2  0  0  0  0
 32 13  1  0  0  0  0
 33 32  2  0  0  0  0
 34 32  1  0  0  0  0
M  END
>  <MODEL>
3

>  <REMARK>
 VINA RESULT:     -10.4      2.909      8.598
  Name = 
  3 active torsions:
  status: ('A' for Active; 'I' for Inactive)
    1  A    between atoms: C_3  and  C_25
    2  A    between atoms: C_7  and  C_11
    3  A    between atoms: C_8  and  N_18
                            x       y       z     vdW  Elec       q    Type
                         _______ _______ _______ _____ _____    ______ ____

>  <TORSDO>
F 3

$$$$
=
 OpenBabel10262423323D

 34 39  0  0  0  0  0  0  0  0999 V2000
  186.3870  178.2700  143.7040 C   0  0  0  0  0  0  0  0  0  0  0  0
  188.8070  177.7280  146.4580 C   0  0  0  0  0  3  0  0  0  0  0  0
  186.5380  178.0800  146.5040 N   0  0  0  0  0  0  0  0  0  0  0  0
  184.7910  178.7170  141.8770 C   0  0  0  0  0  0  0  0  0  0  0  0
  186.0980  178.3510  142.3220 C   0  0  0  0  0  3  0  0  0  0  0  0
  184.0900  178.8790  144.1750 C   0  0  0  0  0  0  0  0  0  0  0  0
  183.2690  178.9900  145.3430 N   0  0  0  0  0  2  0  0  0  0  0  0
  183.7630  178.9700  142.8230 C   0  0  0  0  0  3  0  0  0  0  0  0
  185.3920  178.4250  145.8730 C   0  0  0  0  0  0  0  0  0  0  0  0
  185.3450  178.5520  144.5460 C   0  0  0  0  0  0  0  0  0  0  0  0
  184.1320  178.6980  146.3970 O   0  0  0  0  0  0  0  0  0  0  0  0
  190.1870  177.7820  145.8950 C   0  0  0  0  0  2  0  0  0  0  0  0
  190.4660  176.6800  144.9380 C   0  0  0  0  0  0  0  0  0  0  0  0
  189.7520  176.5540  143.8220 C   0  0  0  0  0  3  0  0  0  0  0  0
  187.6720  177.8380  145.7600 C   0  0  0  0  0  0  0  0  0  0  0  0
  188.5190  177.2870  143.4860 C   0  0  0  0  0  3  0  0  0  0  0  0
  187.6000  177.8370  144.3040 C   0  0  0  0  0  0  0  0  0  0  0  0
  182.0850  176.0850  139.4810 C   0  0  0  0  0  3  0  0  0  0  0  0
  183.3750  178.2830  138.4010 N   0  0  0  0  0  0  0  0  0  0  0  0
  180.8620  175.9970  135.9860 C   0  0  0  0  0  0  0  0  0  0  0  0
  181.0490  175.6520  137.3320 C   0  0  0  0  0  3  0  0  0  0  0  0
  181.8910  176.4180  138.1420 C   0  0  0  0  0  0  0  0  0  0  0  0
  184.4640  178.8080  140.4810 N   0  0  0  0  0  2  0  0  0  0  0  0
  182.3710  177.8850  136.2670 C   0  0  0  0  0  3  0  0  0  0  0  0
  182.5570  177.5410  137.6090 C   0  0  0  0  0  0  0  0  0  0  0  0
  181.5270  177.1170  135.4600 C   0  0  0  0  0  3  0  0  0  0  0  0
  183.5790  177.9790  139.7120 C   0  0  0  0  0  0  0  0  0  0  0  0
  182.9320  176.8660  140.2690 C   0  0  0  0  0  3  0  0  0  0  0  0
  179.9730  175.1890  135.1340 C   0  0  0  0  0  0  0  0  0  0  0  0
  178.9360  175.6970  134.6310 O   0  0  0  0  0  0  0  0  0  0  0  0
  180.2710  173.8570  134.8770 O   0  0  0  0  0  1  0  0  0  0  0  0
  191.6520  175.8340  145.1520 C   0  0  0  0  0  0  0  0  0  0  0  0
  192.1470  175.0530  144.1140 O   0  0  0  0  0  0  0  0  0  0  0  0
  192.2330  175.8110  146.2710 O   0  0  0  0  0  1  0  0  0  0  0  0
  1 17  1  0  0  0  0
  1 10  1  0  0  0  0
  4  5  1  0  0  0  0
  4  8  2  0  0  0  0
  5  1  2  0  0  0  0
  6 10  2  0  0  0  0
  6  7  1  0  0  0  0
  7 11  1  0  0  0  0
  8  6  1  0  0  0  0
  9 11  1  0  0  0  0
  9  3  2  0  0  0  0
 10  9  1  0  0  0  0
 12  2  1  0  0  0  0
 13 32  1  0  0  0  0
 13 12  1  0  0  0  0
 14 13  2  0  0  0  0
 15  2  2  0  0  0  0
 15  3  1  0  0  0  0
 16 14  1  0  0  0  0
 16 17  2  0  0  0  0
 17 15  1  0  0  0  0
 18 28  2  0  0  0  0
 19 27  2  0  0  0  0
 20 21  1  0  0  0  0
 21 22  2  0  0  0  0
 22 18  1  0  0  0  0
 23  4  1  0  0  0  0
 24 25  2  0  0  0  0
 25 22  1  0  0  0  0
 25 19  1  0  0  0  0
 26 20  2  0  0  0  0
 26 24  1  0  0  0  0
 27 28  1  0  0  0  0
 27 23  1  0  0  0  0
 29 20  1  0  0  0  0
 30 29  2  0  0  0  0
 31 29  1  0  0  0  0
 32 34  1  0  0  0  0
 33 32  2  0  0  0  0
M  END
>  <MODEL>
4

>  <REMARK>
 VINA RESULT:     -10.2      2.882      9.710
  Name = 
  3 active torsions:
  status: ('A' for Active; 'I' for Inactive)
    1  A    between atoms: C_3  and  C_25
    2  A    between atoms: C_7  and  C_11
    3  A    between atoms: C_8  and  N_18
                            x       y       z     vdW  Elec       q    Type
                         _______ _______ _______ _____ _____    ______ ____

>  <TORSDO>
F 3

$$$$
=
 OpenBabel10262423323D

 34 39  0  0  0  0  0  0  0  0999 V2000
  188.3410  177.6820  143.5400 C   0  0  0  0  0  0  0  0  0  0  0  0
  191.7370  177.1690  142.1470 C   0  0  0  0  0  3  0  0  0  0  0  0
  190.9620  177.0120  144.3030 N   0  0  0  0  0  0  0  0  0  0  0  0
  186.1000  178.1100  144.4790 C   0  0  0  0  0  0  0  0  0  0  0  0
  186.9660  177.9550  143.3530 C   0  0  0  0  0  3  0  0  0  0  0  0
  187.9710  177.6870  145.9340 C   0  0  0  0  0  0  0  0  0  0  0  0
  188.7510  177.4010  147.1010 N   0  0  0  0  0  2  0  0  0  0  0  0
  186.6110  177.9560  145.7950 C   0  0  0  0  0  3  0  0  0  0  0  0
  189.9830  177.2150  145.2150 C   0  0  0  0  0  0  0  0  0  0  0  0
  188.7530  177.5730  144.8410 C   0  0  0  0  0  0  0  0  0  0  0  0
  190.0190  177.1100  146.6030 O   0  0  0  0  0  0  0  0  0  0  0  0
  191.7410  177.6210  140.7260 C   0  0  0  0  0  2  0  0  0  0  0  0
  190.8580  176.8020  139.8550 C   0  0  0  0  0  0  0  0  0  0  0  0
  189.5490  176.7350  140.0870 C   0  0  0  0  0  3  0  0  0  0  0  0
  190.6790  177.1610  142.9630 C   0  0  0  0  0  0  0  0  0  0  0  0
  188.8460  177.2360  141.2810 C   0  0  0  0  0  3  0  0  0  0  0  0
  189.3090  177.4150  142.5340 C   0  0  0  0  0  0  0  0  0  0  0  0
  183.7710  178.6230  140.6970 C   0  0  0  0  0  3  0  0  0  0  0  0
  182.6000  178.7400  143.2020 N   0  0  0  0  0  0  0  0  0  0  0  0
  180.2220  179.2040  139.8110 C   0  0  0  0  0  0  0  0  0  0  0  0
  181.6010  178.9900  139.6790 C   0  0  0  0  0  3  0  0  0  0  0  0
  182.3990  178.8340  140.8150 C   0  0  0  0  0  0  0  0  0  0  0  0
  184.6990  178.3860  144.3240 N   0  0  0  0  0  2  0  0  0  0  0  0
  180.4460  179.1060  142.2320 C   0  0  0  0  0  3  0  0  0  0  0  0
  181.8200  178.8920  142.0990 C   0  0  0  0  0  0  0  0  0  0  0  0
  179.6500  179.2600  141.0920 C   0  0  0  0  0  3  0  0  0  0  0  0
  183.9430  178.5300  143.1120 C   0  0  0  0  0  0  0  0  0  0  0  0
  184.5470  178.4710  141.8470 C   0  0  0  0  0  3  0  0  0  0  0  0
  179.3830  179.3660  138.6120 C   0  0  0  0  0  0  0  0  0  0  0  0
  178.9310  180.5000  138.2980 O   0  0  0  0  0  1  0  0  0  0  0  0
  179.0830  178.2690  137.8130 O   0  0  0  0  0  0  0  0  0  0  0  0
  191.4200  176.2050  138.6320 C   0  0  0  0  0  0  0  0  0  0  0  0
  190.9260  174.9950  138.1570 O   0  0  0  0  0  1  0  0  0  0  0  0
  192.3470  176.7810  138.0010 O   0  0  0  0  0  0  0  0  0  0  0  0
  1 10  1  0  0  0  0
  2 15  2  0  0  0  0
  3  9  2  0  0  0  0
  4  8  2  0  0  0  0
  5  1  2  0  0  0  0
  5  4  1  0  0  0  0
  6  7  1  0  0  0  0
  8  6  1  0  0  0  0
  9 11  1  0  0  0  0
 10  9  1  0  0  0  0
 10  6  2  0  0  0  0
 11  7  1  0  0  0  0
 12  2  1  0  0  0  0
 13 14  2  0  0  0  0
 13 12  1  0  0  0  0
 14 16  1  0  0  0  0
 15  3  1  0  0  0  0
 16 17  2  0  0  0  0
 17 15  1  0  0  0  0
 17  1  1  0  0  0  0
 18 22  1  0  0  0  0
 18 28  2  0  0  0  0
 20 26  1  0  0  0  0
 21 20  2  0  0  0  0
 21 22  1  0  0  0  0
 22 25  2  0  0  0  0
 23  4  1  0  0  0  0
 25 24  1  0  0  0  0
 25 19  1  0  0  0  0
 26 24  2  0  0  0  0
 27 19  2  0  0  0  0
 27 23  1  0  0  0  0
 28 27  1  0  0  0  0
 29 20  1  0  0  0  0
 30 29  1  0  0  0  0
 31 29  2  0  0  0  0
 32 13  1  0  0  0  0
 33 32  1  0  0  0  0
 34 32  2  0  0  0  0
M  END
>  <MODEL>
5

>  <REMARK>
 VINA RESULT:     -10.0      2.942      8.678
  Name = 
  3 active torsions:
  status: ('A' for Active; 'I' for Inactive)
    1  A    between atoms: C_3  and  C_25
    2  A    between atoms: C_7  and  C_11
    3  A    between atoms: C_8  and  N_18
                            x       y       z     vdW  Elec       q    Type
                         _______ _______ _______ _____ _____    ______ ____

>  <TORSDO>
F 3

$$$$
=
 OpenBabel10262423323D

 34 39  0  0  0  0  0  0  0  0999 V2000
  188.2310  177.8750  144.6570 C   0  0  0  0  0  0  0  0  0  0  0  0
  189.3300  177.8960  148.1960 C   0  0  0  0  0  3  0  0  0  0  0  0
  187.2290  178.0340  147.2780 N   0  0  0  0  0  0  0  0  0  0  0  0
  187.5080  177.9500  142.2990 C   0  0  0  0  0  0  0  0  0  0  0  0
  188.5300  177.7650  143.2790 C   0  0  0  0  0  3  0  0  0  0  0  0
  185.9210  178.3150  144.0740 C   0  0  0  0  0  0  0  0  0  0  0  0
  184.6890  178.4850  144.7860 N   0  0  0  0  0  2  0  0  0  0  0  0
  186.1730  178.2140  142.7070 C   0  0  0  0  0  3  0  0  0  0  0  0
  186.4300  178.1910  146.1980 C   0  0  0  0  0  0  0  0  0  0  0  0
  186.9260  178.1550  144.9600 C   0  0  0  0  0  0  0  0  0  0  0  0
  185.0560  178.4040  146.1270 O   0  0  0  0  0  0  0  0  0  0  0  0
  190.8160  178.0140  148.2320 C   0  0  0  0  0  2  0  0  0  0  0  0
  191.5050  176.8380  147.6390 C   0  0  0  0  0  0  0  0  0  0  0  0
  191.3160  176.5130  146.3620 C   0  0  0  0  0  3  0  0  0  0  0  0
  188.5770  177.8140  147.0950 C   0  0  0  0  0  0  0  0  0  0  0  0
  190.3010  177.0800  145.4570 C   0  0  0  0  0  3  0  0  0  0  0  0
  189.1080  177.6340  145.7490 C   0  0  0  0  0  0  0  0  0  0  0  0
  191.3090  176.7330  140.2860 C   0  0  0  0  0  3  0  0  0  0  0  0
  189.0060  177.3530  138.8830 N   0  0  0  0  0  0  0  0  0  0  0  0
  192.4230  176.2000  136.7930 C   0  0  0  0  0  0  0  0  0  0  0  0
  192.4450  176.2710  138.1930 C   0  0  0  0  0  3  0  0  0  0  0  0
  191.3000  176.6570  138.8940 C   0  0  0  0  0  0  0  0  0  0  0  0
  187.7780  177.8440  140.8930 N   0  0  0  0  0  2  0  0  0  0  0  0
  190.0940  176.9070  136.8010 C   0  0  0  0  0  3  0  0  0  0  0  0
  190.1170  176.9780  138.1960 C   0  0  0  0  0  0  0  0  0  0  0  0
  191.2420  176.5190  136.1030 C   0  0  0  0  0  3  0  0  0  0  0  0
  188.9900  177.4320  140.2420 C   0  0  0  0  0  0  0  0  0  0  0  0
  190.1520  177.1220  140.9630 C   0  0  0  0  0  3  0  0  0  0  0  0
  193.6300  175.7910  136.0570 C   0  0  0  0  0  0  0  0  0  0  0  0
  194.6860  176.4750  136.1320 O   0  0  0  0  0  1  0  0  0  0  0  0
  193.6170  174.6450  135.2720 O   0  0  0  0  0  0  0  0  0  0  0  0
  192.5310  176.1390  148.4310 C   0  0  0  0  0  0  0  0  0  0  0  0
  192.5890  174.7500  148.4270 O   0  0  0  0  0  0  0  0  0  0  0  0
  193.3680  176.7880  149.1160 O   0  0  0  0  0  1  0  0  0  0  0  0
  1 10  1  0  0  0  0
  1 17  1  0  0  0  0
  2 12  1  0  0  0  0
  4  8  2  0  0  0  0
  4  5  1  0  0  0  0
  5  1  2  0  0  0  0
  6  7  1  0  0  0  0
  6 10  2  0  0  0  0
  7 11  1  0  0  0  0
  8  6  1  0  0  0  0
  9  3  2  0  0  0  0
 10  9  1  0  0  0  0
 11  9  1  0  0  0  0
 13 12  1  0  0  0  0
 13 32  1  0  0  0  0
 14 13  2  0  0  0  0
 15  3  1  0  0  0  0
 15  2  2  0  0  0  0
 16 17  2  0  0  0  0
 16 14  1  0  0  0  0
 17 15  1  0  0  0  0
 18 28  2  0  0  0  0
 19 27  2  0  0  0  0
 20 21  1  0  0  0  0
 21 22  2  0  0  0  0
 22 18  1  0  0  0  0
 23  4  1  0  0  0  0
 24 25  2  0  0  0  0
 25 19  1  0  0  0  0
 25 22  1  0  0  0  0
 26 20  2  0  0  0  0
 26 24  1  0  0  0  0
 27 23  1  0  0  0  0
 27 28  1  0  0  0  0
 29 30  1  0  0  0  0
 29 20  1  0  0  0  0
 31 29  2  0  0  0  0
 32 34  1  0  0  0  0
 33 32  2  0  0  0  0
M  END
>  <MODEL>
6

>  <REMARK>
 VINA RESULT:     -10.0      4.071      9.400
  Name = 
  3 active torsions:
  status: ('A' for Active; 'I' for Inactive)
    1  A    between atoms: C_3  and  C_25
    2  A    between atoms: C_7  and  C_11
    3  A    between atoms: C_8  and  N_18
                            x       y       z     vdW  Elec       q    Type
                         _______ _______ _______ _____ _____    ______ ____

>  <TORSDO>
F 3

$$$$
=
 OpenBabel10262423323D

 34 39  0  0  0  0  0  0  0  0999 V2000
  184.7780  178.4610  142.5900 C   0  0  0  0  0  0  0  0  0  0  0  0
  181.2130  178.8340  141.6480 C   0  0  0  0  0  3  0  0  0  0  0  0
  182.2540  179.0340  143.6850 N   0  0  0  0  0  0  0  0  0  0  0  0
  187.1360  178.1260  143.2310 C   0  0  0  0  0  0  0  0  0  0  0  0
  186.1270  178.2400  142.2270 C   0  0  0  0  0  3  0  0  0  0  0  0
  185.4540  178.4850  144.9160 C   0  0  0  0  0  0  0  0  0  0  0  0
  184.8210  178.7480  146.1740 N   0  0  0  0  0  2  0  0  0  0  0  0
  186.7950  178.2680  144.6020 C   0  0  0  0  0  3  0  0  0  0  0  0
  183.3500  178.8750  144.4630 C   0  0  0  0  0  0  0  0  0  0  0  0
  184.5330  178.5610  143.9330 C   0  0  0  0  0  0  0  0  0  0  0  0
  183.4890  178.9870  145.8440 O   0  0  0  0  0  0  0  0  0  0  0  0
  181.0430  178.3740  140.2400 C   0  0  0  0  0  2  0  0  0  0  0  0
  181.7730  179.2200  139.2610 C   0  0  0  0  0  0  0  0  0  0  0  0
  183.0970  179.3390  139.3210 C   0  0  0  0  0  3  0  0  0  0  0  0
  182.3670  178.8870  142.3200 C   0  0  0  0  0  0  0  0  0  0  0  0
  183.9680  178.8730  140.4150 C   0  0  0  0  0  3  0  0  0  0  0  0
  183.6790  178.6840  141.7170 C   0  0  0  0  0  0  0  0  0  0  0  0
  188.9040  177.1500  139.2420 C   0  0  0  0  0  3  0  0  0  0  0  0
  190.4430  177.4880  141.5180 N   0  0  0  0  0  0  0  0  0  0  0  0
  192.3150  176.6250  137.8950 C   0  0  0  0  0  0  0  0  0  0  0  0
  190.9190  176.7420  137.9560 C   0  0  0  0  0  3  0  0  0  0  0  0
  190.2910  177.0320  139.1700 C   0  0  0  0  0  0  0  0  0  0  0  0
  188.5150  177.9020  142.8970 N   0  0  0  0  0  2  0  0  0  0  0  0
  192.4490  177.0890  140.2810 C   0  0  0  0  0  3  0  0  0  0  0  0
  191.0580  177.2060  140.3390 C   0  0  0  0  0  0  0  0  0  0  0  0
  193.0750  176.8000  139.0630 C   0  0  0  0  0  3  0  0  0  0  0  0
  189.0900  177.6100  141.6140 C   0  0  0  0  0  0  0  0  0  0  0  0
  188.3010  177.4390  140.4670 C   0  0  0  0  0  3  0  0  0  0  0  0
  192.9740  176.3210  136.6150 C   0  0  0  0  0  0  0  0  0  0  0  0
  192.3360  175.7590  135.6850 O   0  0  0  0  0  0  0  0  0  0  0  0
  194.3090  176.6520  136.4190 O   0  0  0  0  0  1  0  0  0  0  0  0
  181.0350  179.7880  138.1200 C   0  0  0  0  0  0  0  0  0  0  0  0
  181.1720  179.2300  136.8540 O   0  0  0  0  0  0  0  0  0  0  0  0
  180.2710  180.7780  138.2770 O   0  0  0  0  0  1  0  0  0  0  0  0
  1 10  1  0  0  0  0
  2 15  2  0  0  0  0
  3  9  2  0  0  0  0
  4  8  2  0  0  0  0
  5  1  2  0  0  0  0
  5  4  1  0  0  0  0
  6  7  1  0  0  0  0
  8  6  1  0  0  0  0
  9 11  1  0  0  0  0
 10  9  1  0  0  0  0
 10  6  2  0  0  0  0
 11  7  1  0  0  0  0
 12  2  1  0  0  0  0
 13 14  2  0  0  0  0
 13 12  1  0  0  0  0
 14 16  1  0  0  0  0
 15  3  1  0  0  0  0
 16 17  2  0  0  0  0
 17 15  1  0  0  0  0
 17  1  1  0  0  0  0
 18 28  2  0  0  0  0
 19 27  2  0  0  0  0
 20 21  2  0  0  0  0
 20 26  1  0  0  0  0
 21 22  1  0  0  0  0
 22 18  1  0  0  0  0
 22 25  2  0  0  0  0
 23  4  1  0  0  0  0
 24 25  1  0  0  0  0
 25 19  1  0  0  0  0
 26 24  2  0  0  0  0
 27 23  1  0  0  0  0
 28 27  1  0  0  0  0
 29 20  1  0  0  0  0
 30 29  2  0  0  0  0
 31 29  1  0  0  0  0
 32 34  1  0  0  0  0
 32 13  1  0  0  0  0
 33 32  2  0  0  0  0
M  END
>  <MODEL>
7

>  <REMARK>
 VINA RESULT:      -9.6      3.855      6.319
  Name = 
  3 active torsions:
  status: ('A' for Active; 'I' for Inactive)
    1  A    between atoms: C_3  and  C_25
    2  A    between atoms: C_7  and  C_11
    3  A    between atoms: C_8  and  N_18
                            x       y       z     vdW  Elec       q    Type
                         _______ _______ _______ _____ _____    ______ ____

>  <TORSDO>
F 3

$$$$
=
 OpenBabel10262423323D

 34 39  0  0  0  0  0  0  0  0999 V2000
  183.8630  178.8200  140.3940 C   0  0  0  0  0  0  0  0  0  0  0  0
  180.2080  179.2930  140.7860 C   0  0  0  0  0  3  0  0  0  0  0  0
  181.4350  178.4960  139.0160 N   0  0  0  0  0  0  0  0  0  0  0  0
  186.3020  178.5870  140.1010 C   0  0  0  0  0  0  0  0  0  0  0  0
  185.1710  178.8650  140.9290 C   0  0  0  0  0  3  0  0  0  0  0  0
  184.8090  178.1980  138.2520 C   0  0  0  0  0  0  0  0  0  0  0  0
  184.3000  177.8000  136.9730 N   0  0  0  0  0  2  0  0  0  0  0  0
  186.1150  178.2300  138.7390 C   0  0  0  0  0  3  0  0  0  0  0  0
  182.6300  178.2930  138.4140 C   0  0  0  0  0  0  0  0  0  0  0  0
  183.7760  178.4910  139.0680 C   0  0  0  0  0  0  0  0  0  0  0  0
  182.9170  177.8760  137.1170 O   0  0  0  0  0  0  0  0  0  0  0  0
  179.9600  180.0560  142.0430 C   0  0  0  0  0  2  0  0  0  0  0  0
  180.3680  179.3120  143.2630 C   0  0  0  0  0  0  0  0  0  0  0  0
  181.6360  178.9480  143.4440 C   0  0  0  0  0  3  0  0  0  0  0  0
  181.4020  178.8970  140.3330 C   0  0  0  0  0  0  0  0  0  0  0  0
  182.7160  179.0150  142.4440 C   0  0  0  0  0  3  0  0  0  0  0  0
  182.6400  178.9810  141.0990 C   0  0  0  0  0  0  0  0  0  0  0  0
  187.8060  177.1340  144.0520 C   0  0  0  0  0  3  0  0  0  0  0  0
  189.4690  178.2300  142.1300 N   0  0  0  0  0  0  0  0  0  0  0  0
  191.1020  176.9000  145.7270 C   0  0  0  0  0  0  0  0  0  0  0  0
  189.7230  176.7910  145.4980 C   0  0  0  0  0  3  0  0  0  0  0  0
  189.1750  177.2360  144.2920 C   0  0  0  0  0  0  0  0  0  0  0  0
  187.6430  178.6240  140.6130 N   0  0  0  0  0  2  0  0  0  0  0  0
  191.3800  177.9070  143.5290 C   0  0  0  0  0  3  0  0  0  0  0  0
  190.0060  177.7980  143.3020 C   0  0  0  0  0  0  0  0  0  0  0  0
  191.9260  177.4590  144.7370 C   0  0  0  0  0  3  0  0  0  0  0  0
  188.1350  178.1390  141.8720 C   0  0  0  0  0  0  0  0  0  0  0  0
  187.2830  177.5870  142.8400 C   0  0  0  0  0  3  0  0  0  0  0  0
  191.6770  176.4290  146.9970 C   0  0  0  0  0  0  0  0  0  0  0  0
  192.2230  175.2960  147.0700 O   0  0  0  0  0  0  0  0  0  0  0  0
  191.6240  177.2320  148.1310 O   0  0  0  0  0  1  0  0  0  0  0  0
  179.3900  179.1320  144.3480 C   0  0  0  0  0  0  0  0  0  0  0  0
  178.9590  177.8560  144.6940 O   0  0  0  0  0  0  0  0  0  0  0  0
  178.9360  180.1260  144.9780 O   0  0  0  0  0  1  0  0  0  0  0  0
  1  5  1  0  0  0  0
  1 17  1  0  0  0  0
  2 12  1  0  0  0  0
  3 15  1  0  0  0  0
  4 23  1  0  0  0  0
  4  5  2  0  0  0  0
  6  8  2  0  0  0  0
  6 10  1  0  0  0  0
  7 11  1  0  0  0  0
  7  6  1  0  0  0  0
  8  4  1  0  0  0  0
  9  3  2  0  0  0  0
  9 10  1  0  0  0  0
 10  1  2  0  0  0  0
 11  9  1  0  0  0  0
 12 13  1  0  0  0  0
 13 14  2  0  0  0  0
 13 32  1  0  0  0  0
 15  2  2  0  0  0  0
 15 17  1  0  0  0  0
 16 14  1  0  0  0  0
 17 16  2  0  0  0  0
 18 22  1  0  0  0  0
 19 25  1  0  0  0  0
 20 29  1  0  0  0  0
 21 20  1  0  0  0  0
 22 21  2  0  0  0  0
 23 27  1  0  0  0  0
 24 26  1  0  0  0  0
 25 24  2  0  0  0  0
 25 22  1  0  0  0  0
 26 20  2  0  0  0  0
 27 19  2  0  0  0  0
 27 28  1  0  0  0  0
 28 18  2  0  0  0  0
 29 30  2  0  0  0  0
 29 31  1  0  0  0  0
 32 33  2  0  0  0  0
 32 34  1  0  0  0  0
M  END
>  <MODEL>
8

>  <REMARK>
 VINA RESULT:      -9.5      2.347      5.326
  Name = 
  3 active torsions:
  status: ('A' for Active; 'I' for Inactive)
    1  A    between atoms: C_3  and  C_25
    2  A    between atoms: C_7  and  C_11
    3  A    between atoms: C_8  and  N_18
                            x       y       z     vdW  Elec       q    Type
                         _______ _______ _______ _____ _____    ______ ____

>  <TORSDO>
F 3

$$$$
=
 OpenBabel10262423323D

 34 39  0  0  0  0  0  0  0  0999 V2000
  190.0620  176.7530  137.7720 C   0  0  0  0  0  0  0  0  0  0  0  0
  192.0800  175.4880  134.9320 C   0  0  0  0  0  3  0  0  0  0  0  0
  190.1570  176.7440  134.9640 N   0  0  0  0  0  0  0  0  0  0  0  0
  188.6720  177.5190  139.6610 C   0  0  0  0  0  0  0  0  0  0  0  0
  189.8640  176.9090  139.1640 C   0  0  0  0  0  3  0  0  0  0  0  0
  187.9260  177.8290  137.3920 C   0  0  0  0  0  0  0  0  0  0  0  0
  187.1810  178.2770  136.2530 N   0  0  0  0  0  2  0  0  0  0  0  0
  187.6910  178.0040  138.7550 C   0  0  0  0  0  3  0  0  0  0  0  0
  189.1090  177.2660  135.6410 C   0  0  0  0  0  0  0  0  0  0  0  0
  189.0570  177.2260  136.9730 C   0  0  0  0  0  0  0  0  0  0  0  0
  187.9630  177.8980  135.1640 O   0  0  0  0  0  0  0  0  0  0  0  0
  193.0970  174.5340  135.4600 C   0  0  0  0  0  2  0  0  0  0  0  0
  194.0890  175.1820  136.3570 C   0  0  0  0  0  0  0  0  0  0  0  0
  193.7010  175.7730  137.4840 C   0  0  0  0  0  3  0  0  0  0  0  0
  191.1990  176.1780  135.6650 C   0  0  0  0  0  0  0  0  0  0  0  0
  192.3130  176.0600  137.8870 C   0  0  0  0  0  3  0  0  0  0  0  0
  191.2220  176.2520  137.1200 C   0  0  0  0  0  0  0  0  0  0  0  0
  191.3320  176.3980  143.0750 C   0  0  0  0  0  3  0  0  0  0  0  0
  188.8960  177.6630  143.4300 N   0  0  0  0  0  0  0  0  0  0  0  0
  191.2300  176.7530  146.7610 C   0  0  0  0  0  0  0  0  0  0  0  0
  191.6790  176.4200  145.4750 C   0  0  0  0  0  3  0  0  0  0  0  0
  190.8970  176.7250  144.3580 C   0  0  0  0  0  0  0  0  0  0  0  0
  188.4400  177.6950  141.0670 N   0  0  0  0  0  2  0  0  0  0  0  0
  189.2050  177.7010  145.8000 C   0  0  0  0  0  3  0  0  0  0  0  0
  189.6530  177.3690  144.5190 C   0  0  0  0  0  0  0  0  0  0  0  0
  189.9910  177.3950  146.9160 C   0  0  0  0  0  3  0  0  0  0  0  0
  189.3000  177.3560  142.1660 C   0  0  0  0  0  0  0  0  0  0  0  0
  190.5320  176.7130  141.9750 C   0  0  0  0  0  3  0  0  0  0  0  0
  192.0560  176.4320  147.9360 C   0  0  0  0  0  0  0  0  0  0  0  0
  192.4600  175.2540  148.1300 O   0  0  0  0  0  0  0  0  0  0  0  0
  192.4000  177.4260  148.8440 O   0  0  0  0  0  1  0  0  0  0  0  0
  195.5240  175.0130  136.0720 C   0  0  0  0  0  0  0  0  0  0  0  0
  196.0310  173.7550  135.7690 O   0  0  0  0  0  0  0  0  0  0  0  0
  196.3050  176.0030  136.0930 O   0  0  0  0  0  1  0  0  0  0  0  0
  1  5  1  0  0  0  0
  2 12  1  0  0  0  0
  2 15  2  0  0  0  0
  3  9  2  0  0  0  0
  3 15  1  0  0  0  0
  4 23  1  0  0  0  0
  5  4  2  0  0  0  0
  6  8  2  0  0  0  0
  7  6  1  0  0  0  0
  8  4  1  0  0  0  0
  9 10  1  0  0  0  0
 10  6  1  0  0  0  0
 10  1  2  0  0  0  0
 11  9  1  0  0  0  0
 11  7  1  0  0  0  0
 12 13  1  0  0  0  0
 13 14  2  0  0  0  0
 14 16  1  0  0  0  0
 15 17  1  0  0  0  0
 17  1  1  0  0  0  0
 17 16  2  0  0  0  0
 18 22  1  0  0  0  0
 19 25  1  0  0  0  0
 20 26  1  0  0  0  0
 20 29  1  0  0  0  0
 21 20  2  0  0  0  0
 22 25  2  0  0  0  0
 22 21  1  0  0  0  0
 23 27  1  0  0  0  0
 24 26  2  0  0  0  0
 25 24  1  0  0  0  0
 27 19  2  0  0  0  0
 28 27  1  0  0  0  0
 28 18  2  0  0  0  0
 29 30  2  0  0  0  0
 29 31  1  0  0  0  0
 32 34  1  0  0  0  0
 32 13  1  0  0  0  0
 33 32  2  0  0  0  0
M  END
>  <MODEL>
9

>  <REMARK>
 VINA RESULT:      -9.5      5.085      7.007
  Name = 
  3 active torsions:
  status: ('A' for Active; 'I' for Inactive)
    1  A    between atoms: C_3  and  C_25
    2  A    between atoms: C_7  and  C_11
    3  A    between atoms: C_8  and  N_18
                            x       y       z     vdW  Elec       q    Type
                         _______ _______ _______ _____ _____    ______ ____

>  <TORSDO>
F 3

$$$$
