=
 OpenBabel10262420213D

 55 61  0  0  1  0  0  0  0  0999 V2000
  188.2080  178.3450  141.1290 C   0  0  0  0  0  2  0  0  0  0  0  0
  187.7110  175.8160  135.5960 C   0  0  0  0  0  2  0  0  0  0  0  0
  189.3520  177.2330  136.8600 C   0  0  2  0  0  3  0  0  0  0  0  0
  191.6790  175.4960  136.8370 C   0  0  0  0  0  3  0  0  0  0  0  0
  192.8360  174.7160  136.7860 C   0  0  0  0  0  3  0  0  0  0  0  0
  192.4380  176.5000  138.9130 C   0  0  0  0  0  0  0  0  0  0  0  0
  193.6050  175.7330  138.8340 C   0  0  0  0  0  3  0  0  0  0  0  0
  188.4850  178.4650  137.0260 C   0  0  0  0  0  1  0  0  0  0  0  0
  193.8030  174.8420  137.7780 C   0  0  0  0  0  3  0  0  0  0  0  0
  185.8270  178.8290  141.7130 C   0  0  0  0  0  3  0  0  0  0  0  0
  191.4660  176.3990  137.8860 C   0  0  0  0  0  0  0  0  0  0  0  0
  184.9710  177.9190  139.2060 C   0  0  0  0  0  0  0  0  0  0  0  0
  188.7700  176.9340  141.0230 C   0  0  0  0  0  2  0  0  0  0  0  0
  186.3290  177.9060  139.5300 C   0  0  0  0  0  3  0  0  0  0  0  0
  191.0720  177.9100  140.4560 C   0  0  0  0  0  2  0  0  0  0  0  0
  186.0220  177.3350  135.0020 C   0  0  0  0  0  2  0  0  0  0  0  0
  192.3070  177.3600  140.0150 O   0  0  0  0  0  0  0  0  0  0  0  0
  186.3140  176.1590  135.8120 N   0  0  0  0  0  2  0  0  0  0  0  0
  188.4950  175.9780  136.8900 C   0  0  0  0  0  2  0  0  0  0  0  0
  184.4700  178.8570  141.3840 C   0  0  0  0  0  3  0  0  0  0  0  0
  184.6940  177.9840  135.4090 C   0  0  2  0  0  3  0  0  0  0  0  0
  186.7590  178.3510  140.7850 C   0  0  0  0  0  0  0  0  0  0  0  0
  190.3160  177.2010  137.9110 O   0  0  0  0  0  0  0  0  0  0  0  0
  190.2890  176.8590  141.2390 C   0  0  1  0  0  3  0  0  0  0  0  0
  184.6540  178.5340  136.8360 C   0  0  0  0  0  2  0  0  0  0  0  0
  184.5290  177.4260  137.8770 C   0  0  0  0  0  2  0  0  0  0  0  0
  184.0400  178.4030  140.1300 C   0  0  0  0  0  3  0  0  0  0  0  0
  189.5360  176.6350  143.4920 C   0  0  0  0  0  2  0  0  0  0  0  0
  191.3570  176.7740  145.1830 N   0  0  0  0  0  0  0  0  0  0  0  0
  191.4750  177.9810  143.0310 C   0  0  0  0  0  2  0  0  0  0  0  0
  191.6960  178.0480  144.5450 C   0  0  0  0  0  2  0  0  0  0  0  0
  189.9320  176.4780  144.9660 C   0  0  0  0  0  2  0  0  0  0  0  0
  190.7210  176.7820  142.6410 N   0  0  0  0  0  0  0  0  0  0  0  0
  191.6670  176.8620  146.6120 C   0  0  0  0  0  3  0  0  0  0  0  0
  192.4410  175.6400  147.0800 C   0  0  0  0  0  1  0  0  0  0  0  0
  190.4450  177.0870  147.4930 C   0  0  0  0  0  1  0  0  0  0  0  0
  183.4360  177.2440  134.9500 C   0  0  0  0  0  2  0  0  0  0  0  0
  182.1850  177.6270  135.7250 C   0  0  0  0  0  2  0  0  0  0  0  0
  181.4900  178.8040  135.0530 C   0  0  0  0  0  2  0  0  0  0  0  0
  181.0790  180.2020  138.5420 C   0  0  2  0  0  3  0  0  0  0  0  0
  178.9470  179.6010  135.1730 F   0  0  0  0  0  0  0  0  0  0  0  0
  179.6000  180.0180  136.3180 C   0  0  2  0  0  0  0  0  0  0  0  0
  179.1510  181.3550  136.5510 O   0  0  0  0  0  0  0  0  0  0  0  0
  181.1270  179.8820  136.0750 C   0  0  1  0  0  3  0  0  0  0  0  0
  179.7500  178.3440  139.5310 C   0  0  0  0  0  1  0  0  0  0  0  0
  180.9550  181.7100  138.3670 C   0  0  0  0  0  2  0  0  0  0  0  0
  178.9310  183.0320  138.1720 C   0  0  0  0  0  1  0  0  0  0  0  0
  179.9340  182.2650  137.3360 C   0  0  2  0  0  0  0  0  0  0  0  0
  181.8640  179.6150  137.3850 C   0  0  0  0  0  2  0  0  0  0  0  0
  179.1700  179.1630  137.3640 O   0  0  0  0  0  0  0  0  0  0  0  0
  179.6940  179.5560  138.6220 C   0  0  2  0  0  3  0  0  0  0  0  0
  181.0530  182.9400  135.0120 C   0  0  0  0  0  1  0  0  0  0  0  0
  180.6520  183.3030  136.4360 C   0  0  0  0  0  0  0  0  0  0  0  0
  181.5050  184.3700  137.0970 C   0  0  0  0  0  2  0  0  0  0  0  0
  180.1360  184.7220  136.5310 C   0  0  0  0  0  2  0  0  0  0  0  0
  2 18  1  0  0  0  0
  2 19  1  0  0  0  0
  3 19  1  0  0  0  0
  3  8  1  1  0  0  0
  3 23  1  0  0  0  0
  4 11  1  0  0  0  0
  5  4  2  0  0  0  0
  5  9  1  0  0  0  0
  6 17  1  0  0  0  0
  7  6  1  0  0  0  0
  9  7  2  0  0  0  0
 11 23  1  0  0  0  0
 11  6  2  0  0  0  0
 12 14  2  0  0  0  0
 12 27  1  0  0  0  0
 13  1  1  0  0  0  0
 13 24  1  0  0  0  0
 14 22  1  0  0  0  0
 16 21  1  0  0  0  0
 16 18  1  0  0  0  0
 17 15  1  0  0  0  0
 20 10  1  0  0  0  0
 21 37  1  1  0  0  0
 21 25  1  0  0  0  0
 22  1  1  0  0  0  0
 22 10  2  0  0  0  0
 24 15  1  1  0  0  0
 24 33  1  0  0  0  0
 25 26  1  0  0  0  0
 26 12  1  0  0  0  0
 27 20  2  0  0  0  0
 28 32  1  0  0  0  0
 29 34  1  0  0  0  0
 30 31  1  0  0  0  0
 31 29  1  0  0  0  0
 32 29  1  0  0  0  0
 33 30  1  0  0  0  0
 33 28  1  0  0  0  0
 34 35  1  0  0  0  0
 34 36  1  0  0  0  0
 37 38  1  0  0  0  0
 39 38  1  0  0  0  0
 40 49  1  6  0  0  0
 40 51  1  0  0  0  0
 42 41  1  6  0  0  0
 42 43  1  0  0  0  0
 42 50  1  0  0  0  0
 43 48  1  0  0  0  0
 44 39  1  6  0  0  0
 44 42  1  0  0  0  0
 44 49  1  0  0  0  0
 46 40  1  0  0  0  0
 48 47  1  1  0  0  0
 48 46  1  0  0  0  0
 50 51  1  0  0  0  0
 51 45  1  1  0  0  0
 52 53  1  0  0  0  0
 53 55  1  0  0  0  0
 53 54  1  0  0  0  0
 53 48  1  0  0  0  0
 55 54  1  0  0  0  0
M  END
>  <MODEL>
1

>  <REMARK>
 VINA RESULT:      -7.5      0.000      0.000
  Name = 
  7 active torsions:
  status: ('A' for Active; 'I' for Inactive)
    1  A    between atoms: C_7  and  C_20
    2  A    between atoms: C_7  and  C_22
    3  A    between atoms: C_8  and  C_22
    4  A    between atoms: C_8  and  C_43
    5  A    between atoms: C_10  and  N_32
    6  A    between atoms: C_12  and  C_38
    7  A    between atoms: C_49  and  N_52
                            x       y       z     vdW  Elec       q    Type
                         _______ _______ _______ _____ _____    ______ ____

>  <TORSDO>
F 7

$$$$
=
 OpenBabel10262420213D

 55 61  0  0  1  0  0  0  0  0999 V2000
  188.6820  178.4660  140.9800 C   0  0  0  0  0  2  0  0  0  0  0  0
  188.5130  175.5580  135.6160 C   0  0  0  0  0  2  0  0  0  0  0  0
  190.0790  177.0610  136.8760 C   0  0  2  0  0  3  0  0  0  0  0  0
  192.3970  175.3270  137.1160 C   0  0  0  0  0  3  0  0  0  0  0  0
  193.5510  174.5460  137.1900 C   0  0  0  0  0  3  0  0  0  0  0  0
  193.0320  176.4730  139.1600 C   0  0  0  0  0  0  0  0  0  0  0  0
  194.1990  175.7030  139.2050 C   0  0  0  0  0  3  0  0  0  0  0  0
  189.2080  178.3010  136.9030 C   0  0  0  0  0  1  0  0  0  0  0  0
  194.4570  174.7410  138.2280 C   0  0  0  0  0  3  0  0  0  0  0  0
  186.2720  178.9890  141.3820 C   0  0  0  0  0  3  0  0  0  0  0  0
  192.1240  176.3000  138.0850 C   0  0  0  0  0  0  0  0  0  0  0  0
  185.5660  177.9070  138.8970 C   0  0  0  0  0  0  0  0  0  0  0  0
  189.2440  177.0520  141.0070 C   0  0  0  0  0  2  0  0  0  0  0  0
  186.9020  177.9170  139.3030 C   0  0  0  0  0  3  0  0  0  0  0  0
  191.5800  177.9870  140.5140 C   0  0  0  0  0  2  0  0  0  0  0  0
  186.8690  177.0320  134.8160 C   0  0  0  0  0  2  0  0  0  0  0  0
  192.8370  177.4080  140.1890 O   0  0  0  0  0  0  0  0  0  0  0  0
  187.1070  175.9150  135.7220 N   0  0  0  0  0  2  0  0  0  0  0  0
  189.2170  175.8110  136.9410 C   0  0  0  0  0  2  0  0  0  0  0  0
  184.9370  178.9930  140.9700 C   0  0  0  0  0  3  0  0  0  0  0  0
  185.5210  177.7070  135.0960 C   0  0  2  0  0  3  0  0  0  0  0  0
  187.2570  178.4480  140.5490 C   0  0  0  0  0  0  0  0  0  0  0  0
  190.9780  177.1020  137.9840 O   0  0  0  0  0  0  0  0  0  0  0  0
  190.7470  176.9930  141.3190 C   0  0  1  0  0  3  0  0  0  0  0  0
  185.3970  178.3550  136.4750 C   0  0  0  0  0  2  0  0  0  0  0  0
  185.2040  177.3220  137.5810 C   0  0  0  0  0  2  0  0  0  0  0  0
  184.5830  178.4530  139.7270 C   0  0  0  0  0  3  0  0  0  0  0  0
  191.2250  175.6330  143.2210 C   0  0  0  0  0  2  0  0  0  0  0  0
  191.5720  176.9230  145.3210 N   0  0  0  0  0  0  0  0  0  0  0  0
  190.0690  177.7200  143.5300 C   0  0  0  0  0  2  0  0  0  0  0  0
  190.2650  177.5190  145.0360 C   0  0  0  0  0  2  0  0  0  0  0  0
  191.6550  175.5950  144.6940 C   0  0  0  0  0  2  0  0  0  0  0  0
  191.0920  177.0140  142.7470 N   0  0  0  0  0  0  0  0  0  0  0  0
  191.7450  176.8330  146.7740 C   0  0  0  0  0  3  0  0  0  0  0  0
  192.3740  175.5070  147.1680 C   0  0  0  0  0  1  0  0  0  0  0  0
  190.4620  177.0680  147.5610 C   0  0  0  0  0  1  0  0  0  0  0  0
  184.2900  176.9360  134.6120 C   0  0  0  0  0  2  0  0  0  0  0  0
  183.7230  175.9790  135.6490 C   0  0  0  0  0  2  0  0  0  0  0  0
  182.2020  175.9820  135.5920 C   0  0  0  0  0  2  0  0  0  0  0  0
  181.0990  176.5040  139.1690 C   0  0  2  0  0  3  0  0  0  0  0  0
  179.6480  176.7300  135.4140 F   0  0  0  0  0  0  0  0  0  0  0  0
  180.0610  176.8600  136.7280 C   0  0  2  0  0  0  0  0  0  0  0  0
  179.5180  178.1020  137.1800 O   0  0  0  0  0  0  0  0  0  0  0  0
  181.6110  176.7850  136.7510 C   0  0  1  0  0  3  0  0  0  0  0  0
  179.6940  174.4650  139.4260 C   0  0  0  0  0  1  0  0  0  0  0  0
  180.9410  178.0110  139.3340 C   0  0  0  0  0  2  0  0  0  0  0  0
  178.9310  179.3430  139.0780 C   0  0  0  0  0  1  0  0  0  0  0  0
  180.1020  178.7980  138.2900 C   0  0  2  0  0  0  0  0  0  0  0  0
  182.1070  176.2110  138.0760 C   0  0  0  0  0  2  0  0  0  0  0  0
  179.4850  175.7800  137.4430 O   0  0  0  0  0  0  0  0  0  0  0  0
  179.7520  175.8590  138.8340 C   0  0  2  0  0  3  0  0  0  0  0  0
  182.3040  180.2980  138.3990 C   0  0  0  0  0  1  0  0  0  0  0  0
  180.9260  180.0200  137.8110 C   0  0  0  0  0  0  0  0  0  0  0  0
  180.1840  181.2400  137.2980 C   0  0  0  0  0  2  0  0  0  0  0  0
  180.8820  180.3000  136.3250 C   0  0  0  0  0  2  0  0  0  0  0  0
  1 13  1  0  0  0  0
  2 18  1  0  0  0  0
  2 19  1  0  0  0  0
  3  8  1  1  0  0  0
  3 19  1  0  0  0  0
  3 23  1  0  0  0  0
  4  5  2  0  0  0  0
  4 11  1  0  0  0  0
  5  9  1  0  0  0  0
  6  7  1  0  0  0  0
  6 17  1  0  0  0  0
  9  7  2  0  0  0  0
 11  6  2  0  0  0  0
 12 14  2  0  0  0  0
 12 27  1  0  0  0  0
 13 24  1  0  0  0  0
 14 22  1  0  0  0  0
 16 21  1  0  0  0  0
 16 18  1  0  0  0  0
 17 15  1  0  0  0  0
 20 10  1  0  0  0  0
 21 37  1  1  0  0  0
 21 25  1  0  0  0  0
 22  1  1  0  0  0  0
 22 10  2  0  0  0  0
 23 11  1  0  0  0  0
 24 15  1  6  0  0  0
 24 33  1  0  0  0  0
 25 26  1  0  0  0  0
 26 12  1  0  0  0  0
 27 20  2  0  0  0  0
 28 32  1  0  0  0  0
 29 34  1  0  0  0  0
 30 31  1  0  0  0  0
 31 29  1  0  0  0  0
 32 29  1  0  0  0  0
 33 28  1  0  0  0  0
 33 30  1  0  0  0  0
 34 35  1  0  0  0  0
 34 36  1  0  0  0  0
 37 38  1  0  0  0  0
 39 38  1  0  0  0  0
 40 49  1  6  0  0  0
 40 46  1  0  0  0  0
 42 41  1  6  0  0  0
 42 44  1  0  0  0  0
 42 43  1  0  0  0  0
 42 50  1  0  0  0  0
 43 48  1  0  0  0  0
 44 39  1  6  0  0  0
 44 49  1  0  0  0  0
 48 47  1  1  0  0  0
 48 46  1  0  0  0  0
 50 51  1  0  0  0  0
 51 40  1  0  0  0  0
 51 45  1  6  0  0  0
 53 48  1  0  0  0  0
 53 52  1  0  0  0  0
 54 53  1  0  0  0  0
 55 54  1  0  0  0  0
 55 53  1  0  0  0  0
M  END
>  <MODEL>
2

>  <REMARK>
 VINA RESULT:      -7.3      1.364      2.153
  Name = 
  7 active torsions:
  status: ('A' for Active; 'I' for Inactive)
    1  A    between atoms: C_7  and  C_20
    2  A    between atoms: C_7  and  C_22
    3  A    between atoms: C_8  and  C_22
    4  A    between atoms: C_8  and  C_43
    5  A    between atoms: C_10  and  N_32
    6  A    between atoms: C_12  and  C_38
    7  A    between atoms: C_49  and  N_52
                            x       y       z     vdW  Elec       q    Type
                         _______ _______ _______ _____ _____    ______ ____

>  <TORSDO>
F 7

$$$$
=
 OpenBabel10262420213D

 55 61  0  0  1  0  0  0  0  0999 V2000
  188.8890  178.3880  140.9710 C   0  0  0  0  0  2  0  0  0  0  0  0
  188.6400  175.5990  135.5480 C   0  0  0  0  0  2  0  0  0  0  0  0
  190.2400  177.0420  136.8330 C   0  0  2  0  0  3  0  0  0  0  0  0
  192.5240  175.2580  137.0250 C   0  0  0  0  0  3  0  0  0  0  0  0
  193.6630  174.4530  137.0770 C   0  0  0  0  0  3  0  0  0  0  0  0
  193.1910  176.3480  139.0900 C   0  0  0  0  0  0  0  0  0  0  0  0
  194.3420  175.5540  139.1130 C   0  0  0  0  0  3  0  0  0  0  0  0
  189.3950  178.2990  136.8900 C   0  0  0  0  0  1  0  0  0  0  0  0
  194.5770  174.6080  138.1150 C   0  0  0  0  0  3  0  0  0  0  0  0
  186.4910  178.9490  141.3960 C   0  0  0  0  0  3  0  0  0  0  0  0
  192.2750  176.2160  138.0150 C   0  0  0  0  0  0  0  0  0  0  0  0
  185.7540  177.9340  138.8920 C   0  0  0  0  0  0  0  0  0  0  0  0
  189.4230  176.9620  140.9660 C   0  0  0  0  0  2  0  0  0  0  0  0
  187.0910  177.9090  139.2920 C   0  0  0  0  0  3  0  0  0  0  0  0
  191.7750  177.8610  140.4830 C   0  0  0  0  0  2  0  0  0  0  0  0
  187.0220  177.1210  134.7870 C   0  0  0  0  0  2  0  0  0  0  0  0
  193.0190  177.2650  140.1390 O   0  0  0  0  0  0  0  0  0  0  0  0
  187.2410  175.9810  135.6690 N   0  0  0  0  0  2  0  0  0  0  0  0
  189.3540  175.8080  136.8750 C   0  0  0  0  0  2  0  0  0  0  0  0
  185.1550  178.9890  140.9900 C   0  0  0  0  0  3  0  0  0  0  0  0
  185.6880  177.8160  135.0870 C   0  0  2  0  0  3  0  0  0  0  0  0
  187.4620  178.4070  140.5470 C   0  0  0  0  0  0  0  0  0  0  0  0
  191.1440  177.0420  137.9370 O   0  0  0  0  0  0  0  0  0  0  0  0
  190.9260  176.8660  141.2700 C   0  0  1  0  0  3  0  0  0  0  0  0
  185.5830  178.4370  136.4810 C   0  0  0  0  0  2  0  0  0  0  0  0
  185.3750  177.3850  137.5650 C   0  0  0  0  0  2  0  0  0  0  0  0
  184.7850  178.4820  139.7380 C   0  0  0  0  0  3  0  0  0  0  0  0
  190.7680  175.6120  143.2950 C   0  0  0  0  0  2  0  0  0  0  0  0
  191.7240  176.7740  145.2770 N   0  0  0  0  0  0  0  0  0  0  0  0
  190.7160  178.0160  143.3940 C   0  0  0  0  0  2  0  0  0  0  0  0
  190.8350  177.8790  144.9160 C   0  0  0  0  0  2  0  0  0  0  0  0
  191.1680  175.5090  144.7720 C   0  0  0  0  0  2  0  0  0  0  0  0
  191.2770  176.8510  142.6970 N   0  0  0  0  0  0  0  0  0  0  0  0
  191.8720  176.7410  146.7350 C   0  0  0  0  0  3  0  0  0  0  0  0
  192.4060  175.3960  147.2000 C   0  0  0  0  0  1  0  0  0  0  0  0
  190.5980  177.0980  147.4900 C   0  0  0  0  0  1  0  0  0  0  0  0
  184.4410  177.0810  134.5940 C   0  0  0  0  0  2  0  0  0  0  0  0
  184.3750  175.6260  135.0340 C   0  0  0  0  0  2  0  0  0  0  0  0
  183.0200  175.0300  134.6780 C   0  0  0  0  0  2  0  0  0  0  0  0
  180.9380  173.1610  137.2200 C   0  0  2  0  0  3  0  0  0  0  0  0
  180.6380  176.2270  134.6190 F   0  0  0  0  0  0  0  0  0  0  0  0
  180.6550  175.3190  135.6620 C   0  0  2  0  0  0  0  0  0  0  0  0
  180.0230  175.9830  136.7600 O   0  0  0  0  0  0  0  0  0  0  0  0
  182.1310  174.9120  135.9160 C   0  0  1  0  0  3  0  0  0  0  0  0
  179.4890  171.8860  135.6470 C   0  0  0  0  0  1  0  0  0  0  0  0
  180.7620  174.1200  138.3900 C   0  0  0  0  0  2  0  0  0  0  0  0
  178.9310  175.6550  138.8050 C   0  0  0  0  0  1  0  0  0  0  0  0
  180.2720  175.5670  138.1100 C   0  0  2  0  0  0  0  0  0  0  0  0
  182.2140  173.4930  136.4730 C   0  0  0  0  0  2  0  0  0  0  0  0
  179.8820  174.2070  135.2450 O   0  0  0  0  0  0  0  0  0  0  0  0
  179.7360  173.2430  136.2750 C   0  0  2  0  0  3  0  0  0  0  0  0
  182.2920  176.0460  139.7830 C   0  0  0  0  0  1  0  0  0  0  0  0
  181.2170  176.5600  138.8340 C   0  0  0  0  0  0  0  0  0  0  0  0
  180.7130  177.9610  139.1230 C   0  0  0  0  0  2  0  0  0  0  0  0
  181.7120  177.7220  138.0000 C   0  0  0  0  0  2  0  0  0  0  0  0
  2 18  1  0  0  0  0
  2 19  1  0  0  0  0
  3 19  1  0  0  0  0
  3  8  1  1  0  0  0
  3 23  1  0  0  0  0
  4  5  2  0  0  0  0
  4 11  1  0  0  0  0
  5  9  1  0  0  0  0
  6  7  1  0  0  0  0
  6 17  1  0  0  0  0
  9  7  2  0  0  0  0
 11  6  2  0  0  0  0
 12 14  2  0  0  0  0
 12 27  1  0  0  0  0
 13  1  1  0  0  0  0
 13 24  1  0  0  0  0
 14 22  1  0  0  0  0
 16 21  1  0  0  0  0
 16 18  1  0  0  0  0
 17 15  1  0  0  0  0
 20 10  1  0  0  0  0
 21 37  1  1  0  0  0
 21 25  1  0  0  0  0
 22  1  1  0  0  0  0
 22 10  2  0  0  0  0
 23 11  1  0  0  0  0
 24 15  1  6  0  0  0
 24 33  1  0  0  0  0
 25 26  1  0  0  0  0
 26 12  1  0  0  0  0
 27 20  2  0  0  0  0
 28 32  1  0  0  0  0
 29 34  1  0  0  0  0
 30 31  1  0  0  0  0
 31 29  1  0  0  0  0
 32 29  1  0  0  0  0
 33 28  1  0  0  0  0
 33 30  1  0  0  0  0
 34 35  1  0  0  0  0
 34 36  1  0  0  0  0
 37 38  1  0  0  0  0
 39 38  1  0  0  0  0
 40 49  1  6  0  0  0
 40 46  1  0  0  0  0
 42 41  1  6  0  0  0
 42 44  1  0  0  0  0
 42 43  1  0  0  0  0
 43 48  1  0  0  0  0
 44 39  1  6  0  0  0
 44 49  1  0  0  0  0
 48 46  1  0  0  0  0
 48 47  1  1  0  0  0
 48 53  1  0  0  0  0
 50 42  1  0  0  0  0
 50 51  1  0  0  0  0
 51 45  1  6  0  0  0
 51 40  1  0  0  0  0
 53 54  1  0  0  0  0
 53 52  1  0  0  0  0
 55 53  1  0  0  0  0
 55 54  1  0  0  0  0
M  END
>  <MODEL>
3

>  <REMARK>
 VINA RESULT:      -6.9      2.591      3.693
  Name = 
  7 active torsions:
  status: ('A' for Active; 'I' for Inactive)
    1  A    between atoms: C_7  and  C_20
    2  A    between atoms: C_7  and  C_22
    3  A    between atoms: C_8  and  C_22
    4  A    between atoms: C_8  and  C_43
    5  A    between atoms: C_10  and  N_32
    6  A    between atoms: C_12  and  C_38
    7  A    between atoms: C_49  and  N_52
                            x       y       z     vdW  Elec       q    Type
                         _______ _______ _______ _____ _____    ______ ____

>  <TORSDO>
F 7

$$$$
=
 OpenBabel10262420213D

 55 61  0  0  1  0  0  0  0  0999 V2000
  188.8130  178.5060  141.0660 C   0  0  0  0  0  2  0  0  0  0  0  0
  188.7210  175.6610  135.6660 C   0  0  0  0  0  2  0  0  0  0  0  0
  190.2750  177.1350  136.9730 C   0  0  2  0  0  3  0  0  0  0  0  0
  192.5740  175.3790  137.2360 C   0  0  0  0  0  3  0  0  0  0  0  0
  193.7200  174.5880  137.3220 C   0  0  0  0  0  3  0  0  0  0  0  0
  193.1800  176.4970  139.3040 C   0  0  0  0  0  0  0  0  0  0  0  0
  194.3390  175.7160  139.3620 C   0  0  0  0  0  3  0  0  0  0  0  0
  189.4140  178.3820  136.9980 C   0  0  0  0  0  1  0  0  0  0  0  0
  194.6080  174.7630  138.3790 C   0  0  0  0  0  3  0  0  0  0  0  0
  186.4000  179.0440  141.4290 C   0  0  0  0  0  3  0  0  0  0  0  0
  192.2910  176.3440  138.2110 C   0  0  0  0  0  0  0  0  0  0  0  0
  185.7320  177.9960  138.9190 C   0  0  0  0  0  0  0  0  0  0  0  0
  189.3630  177.0870  141.0870 C   0  0  0  0  0  2  0  0  0  0  0  0
  187.0610  177.9910  139.3500 C   0  0  0  0  0  3  0  0  0  0  0  0
  191.7150  178.0070  140.6490 C   0  0  0  0  0  2  0  0  0  0  0  0
  187.1040  177.1570  134.8530 C   0  0  0  0  0  2  0  0  0  0  0  0
  192.9730  177.4220  140.3400 O   0  0  0  0  0  0  0  0  0  0  0  0
  187.3160  176.0280  135.7510 N   0  0  0  0  0  2  0  0  0  0  0  0
  189.4020  175.8920  137.0080 C   0  0  0  0  0  2  0  0  0  0  0  0
  185.0730  179.0640  140.9920 C   0  0  0  0  0  3  0  0  0  0  0  0
  185.7570  177.8400  135.1150 C   0  0  2  0  0  3  0  0  0  0  0  0
  187.3960  178.5040  140.6080 C   0  0  0  0  0  0  0  0  0  0  0  0
  191.1530  177.1560  138.0980 O   0  0  0  0  0  0  0  0  0  0  0  0
  190.8590  177.0110  141.4270 C   0  0  1  0  0  3  0  0  0  0  0  0
  185.6120  178.4730  136.5000 C   0  0  0  0  0  2  0  0  0  0  0  0
  185.3900  177.4300  137.5900 C   0  0  0  0  0  2  0  0  0  0  0  0
  184.7380  178.5420  139.7360 C   0  0  0  0  0  3  0  0  0  0  0  0
  190.9500  175.6670  143.3970 C   0  0  0  0  0  2  0  0  0  0  0  0
  191.5810  176.9280  145.4480 N   0  0  0  0  0  0  0  0  0  0  0  0
  190.3540  177.9900  143.5860 C   0  0  0  0  0  2  0  0  0  0  0  0
  190.4710  177.8190  145.1040 C   0  0  0  0  0  2  0  0  0  0  0  0
  191.3360  175.5930  144.8810 C   0  0  0  0  0  2  0  0  0  0  0  0
  191.1770  177.0130  142.8610 N   0  0  0  0  0  0  0  0  0  0  0  0
  191.7050  176.8670  146.9080 C   0  0  0  0  0  3  0  0  0  0  0  0
  192.4190  175.5970  147.3430 C   0  0  0  0  0  1  0  0  0  0  0  0
  190.3780  177.0090  147.6430 C   0  0  0  0  0  1  0  0  0  0  0  0
  184.5290  177.0850  134.6000 C   0  0  0  0  0  2  0  0  0  0  0  0
  183.8180  176.2720  135.6710 C   0  0  0  0  0  2  0  0  0  0  0  0
  184.1040  174.7890  135.4820 C   0  0  0  0  0  2  0  0  0  0  0  0
  180.3590  174.2810  135.4480 C   0  0  2  0  0  3  0  0  0  0  0  0
  183.5480  173.6690  137.8380 F   0  0  0  0  0  0  0  0  0  0  0  0
  182.4050  173.6630  137.0590 C   0  0  2  0  0  0  0  0  0  0  0  0
  181.8120  172.3770  137.2570 O   0  0  0  0  0  0  0  0  0  0  0  0
  182.8220  173.9650  135.5950 C   0  0  1  0  0  3  0  0  0  0  0  0
  179.7230  176.1030  137.0210 C   0  0  0  0  0  1  0  0  0  0  0  0
  180.1500  172.7770  135.3210 C   0  0  0  0  0  2  0  0  0  0  0  0
  179.8210  171.1550  137.0930 C   0  0  0  0  0  1  0  0  0  0  0  0
  180.9110  171.8280  136.2860 C   0  0  2  0  0  0  0  0  0  0  0  0
  181.6940  174.6660  134.8430 C   0  0  0  0  0  2  0  0  0  0  0  0
  181.5600  174.6800  137.5710 O   0  0  0  0  0  0  0  0  0  0  0  0
  180.3020  174.7060  136.9180 C   0  0  2  0  0  3  0  0  0  0  0  0
  180.7640  169.7460  134.6270 C   0  0  0  0  0  1  0  0  0  0  0  0
  181.5990  170.7170  135.4510 C   0  0  0  0  0  0  0  0  0  0  0  0
  182.9400  170.1840  135.9190 C   0  0  0  0  0  2  0  0  0  0  0  0
  182.8620  171.1280  134.7280 C   0  0  0  0  0  2  0  0  0  0  0  0
  1 13  1  0  0  0  0
  2 18  1  0  0  0  0
  2 19  1  0  0  0  0
  3  8  1  1  0  0  0
  3 19  1  0  0  0  0
  3 23  1  0  0  0  0
  4  5  2  0  0  0  0
  4 11  1  0  0  0  0
  5  9  1  0  0  0  0
  6  7  1  0  0  0  0
  6 17  1  0  0  0  0
  9  7  2  0  0  0  0
 11  6  2  0  0  0  0
 12 14  2  0  0  0  0
 12 27  1  0  0  0  0
 13 24  1  0  0  0  0
 14 22  1  0  0  0  0
 16 21  1  0  0  0  0
 16 18  1  0  0  0  0
 17 15  1  0  0  0  0
 20 10  1  0  0  0  0
 21 37  1  1  0  0  0
 21 25  1  0  0  0  0
 22  1  1  0  0  0  0
 22 10  2  0  0  0  0
 23 11  1  0  0  0  0
 24 15  1  6  0  0  0
 24 33  1  0  0  0  0
 25 26  1  0  0  0  0
 26 12  1  0  0  0  0
 27 20  2  0  0  0  0
 28 32  1  0  0  0  0
 29 34  1  0  0  0  0
 30 31  1  0  0  0  0
 31 29  1  0  0  0  0
 32 29  1  0  0  0  0
 33 28  1  0  0  0  0
 33 30  1  0  0  0  0
 34 35  1  0  0  0  0
 34 36  1  0  0  0  0
 37 38  1  0  0  0  0
 39 38  1  0  0  0  0
 40 49  1  1  0  0  0
 40 51  1  0  0  0  0
 42 43  1  0  0  0  0
 42 50  1  0  0  0  0
 42 41  1  1  0  0  0
 44 39  1  1  0  0  0
 44 42  1  0  0  0  0
 46 40  1  0  0  0  0
 46 48  1  0  0  0  0
 48 47  1  1  0  0  0
 48 43  1  0  0  0  0
 49 44  1  0  0  0  0
 51 45  1  6  0  0  0
 51 50  1  0  0  0  0
 52 53  1  0  0  0  0
 53 54  1  0  0  0  0
 53 48  1  0  0  0  0
 55 53  1  0  0  0  0
 55 54  1  0  0  0  0
M  END
>  <MODEL>
4

>  <REMARK>
 VINA RESULT:      -6.1      3.311      5.251
  Name = 
  7 active torsions:
  status: ('A' for Active; 'I' for Inactive)
    1  A    between atoms: C_7  and  C_20
    2  A    between atoms: C_7  and  C_22
    3  A    between atoms: C_8  and  C_22
    4  A    between atoms: C_8  and  C_43
    5  A    between atoms: C_10  and  N_32
    6  A    between atoms: C_12  and  C_38
    7  A    between atoms: C_49  and  N_52
                            x       y       z     vdW  Elec       q    Type
                         _______ _______ _______ _____ _____    ______ ____

>  <TORSDO>
F 7

$$$$
=
 OpenBabel10262420213D

 55 61  0  0  1  0  0  0  0  0999 V2000
  184.9630  178.5650  139.0380 C   0  0  0  0  0  2  0  0  0  0  0  0
  190.4100  175.9900  140.0130 C   0  0  0  0  0  2  0  0  0  0  0  0
  189.1050  177.9670  140.8400 C   0  0  2  0  0  3  0  0  0  0  0  0
  188.9160  177.3310  143.6680 C   0  0  0  0  0  3  0  0  0  0  0  0
  188.8650  177.0910  145.0420 C   0  0  0  0  0  3  0  0  0  0  0  0
  186.8390  178.5810  143.8010 C   0  0  0  0  0  0  0  0  0  0  0  0
  186.8160  178.3560  145.1820 C   0  0  0  0  0  3  0  0  0  0  0  0
  189.0420  178.7410  139.5380 C   0  0  0  0  0  1  0  0  0  0  0  0
  187.8210  177.6110  145.8000 C   0  0  0  0  0  3  0  0  0  0  0  0
  184.5460  178.0420  136.6300 C   0  0  0  0  0  3  0  0  0  0  0  0
  187.9190  178.0800  143.0310 C   0  0  0  0  0  0  0  0  0  0  0  0
  187.0620  176.8330  136.4010 C   0  0  0  0  0  0  0  0  0  0  0  0
  184.9770  177.5060  140.1310 C   0  0  0  0  0  2  0  0  0  0  0  0
  186.6550  177.3800  137.6200 C   0  0  0  0  0  3  0  0  0  0  0  0
  185.4410  179.3290  141.8720 C   0  0  0  0  0  2  0  0  0  0  0  0
  191.1670  176.6810  137.9000 C   0  0  0  0  0  2  0  0  0  0  0  0
  185.7830  179.3260  143.2520 O   0  0  0  0  0  0  0  0  0  0  0  0
  190.2940  175.7360  138.5850 N   0  0  0  0  0  2  0  0  0  0  0  0
  189.0770  176.4730  140.5680 C   0  0  0  0  0  2  0  0  0  0  0  0
  184.9590  177.5100  135.4060 C   0  0  0  0  0  3  0  0  0  0  0  0
  190.8680  176.7360  136.3970 C   0  0  2  0  0  3  0  0  0  0  0  0
  185.3950  177.9750  137.7410 C   0  0  0  0  0  0  0  0  0  0  0  0
  187.9960  178.3440  141.6560 O   0  0  0  0  0  0  0  0  0  0  0  0
  184.6660  178.0590  141.5290 C   0  0  1  0  0  3  0  0  0  0  0  0
  189.4700  177.2380  136.0350 C   0  0  0  0  0  2  0  0  0  0  0  0
  188.3950  176.1880  136.2950 C   0  0  0  0  0  2  0  0  0  0  0  0
  186.2170  176.9060  135.2900 C   0  0  0  0  0  3  0  0  0  0  0  0
  182.5510  178.8140  140.7210 C   0  0  0  0  0  2  0  0  0  0  0  0
  180.7000  178.5790  142.3690 N   0  0  0  0  0  0  0  0  0  0  0  0
  183.0350  178.9730  143.0730 C   0  0  0  0  0  2  0  0  0  0  0  0
  181.5620  179.3420  143.2740 C   0  0  0  0  0  2  0  0  0  0  0  0
  181.0400  178.9030  140.9740 C   0  0  0  0  0  2  0  0  0  0  0  0
  183.2380  178.1810  141.8520 N   0  0  0  0  0  0  0  0  0  0  0  0
  179.3010  178.9030  142.6600 C   0  0  0  0  0  3  0  0  0  0  0  0
  178.9460  180.2940  142.1590 C   0  0  0  0  0  1  0  0  0  0  0  0
  178.9310  178.7580  144.1310 C   0  0  0  0  0  1  0  0  0  0  0  0
  191.3740  175.5420  135.5850 C   0  0  0  0  0  2  0  0  0  0  0  0
  192.3030  174.6240  136.3640 C   0  0  0  0  0  2  0  0  0  0  0  0
  193.6640  175.2830  136.5460 C   0  0  0  0  0  2  0  0  0  0  0  0
  195.2060  172.2170  134.9620 C   0  0  2  0  0  3  0  0  0  0  0  0
  194.5870  173.8490  138.5960 F   0  0  0  0  0  0  0  0  0  0  0  0
  195.0140  173.2670  137.4160 C   0  0  2  0  0  0  0  0  0  0  0  0
  196.3790  172.9040  137.6380 O   0  0  0  0  0  0  0  0  0  0  0  0
  194.7950  174.2910  136.2710 C   0  0  1  0  0  3  0  0  0  0  0  0
  193.4530  170.5600  135.5770 C   0  0  0  0  0  1  0  0  0  0  0  0
  196.7110  172.3820  135.1300 C   0  0  0  0  0  2  0  0  0  0  0  0
  198.1220  171.5220  136.9050 C   0  0  0  0  0  1  0  0  0  0  0  0
  197.2780  172.7230  136.5350 C   0  0  2  0  0  0  0  0  0  0  0  0
  194.5400  173.5780  134.9460 C   0  0  0  0  0  2  0  0  0  0  0  0
  194.2200  172.1080  137.2260 O   0  0  0  0  0  0  0  0  0  0  0  0
  194.6320  171.3600  136.0930 C   0  0  2  0  0  3  0  0  0  0  0  0
  198.9340  174.5010  137.6330 C   0  0  0  0  0  1  0  0  0  0  0  0
  198.2460  173.9260  136.4010 C   0  0  0  0  0  0  0  0  0  0  0  0
  198.0330  174.9050  135.2620 C   0  0  0  0  0  2  0  0  0  0  0  0
  199.1700  173.8950  135.2040 C   0  0  0  0  0  2  0  0  0  0  0  0
  1 13  1  0  0  0  0
  2 19  1  0  0  0  0
  3  8  1  6  0  0  0
  3 23  1  0  0  0  0
  4  5  1  0  0  0  0
  5  9  2  0  0  0  0
  6  7  2  0  0  0  0
  7  9  1  0  0  0  0
 10 22  1  0  0  0  0
 11  4  2  0  0  0  0
 11  6  1  0  0  0  0
 12 14  1  0  0  0  0
 14 22  2  0  0  0  0
 15 17  1  0  0  0  0
 16 18  1  0  0  0  0
 17  6  1  0  0  0  0
 18  2  1  0  0  0  0
 19  3  1  0  0  0  0
 20 10  2  0  0  0  0
 21 37  1  1  0  0  0
 21 16  1  0  0  0  0
 22  1  1  0  0  0  0
 23 11  1  0  0  0  0
 24 13  1  6  0  0  0
 24 33  1  0  0  0  0
 24 15  1  0  0  0  0
 25 26  1  0  0  0  0
 25 21  1  0  0  0  0
 26 12  1  0  0  0  0
 27 20  1  0  0  0  0
 27 12  2  0  0  0  0
 28 32  1  0  0  0  0
 28 33  1  0  0  0  0
 29 34  1  0  0  0  0
 29 31  1  0  0  0  0
 30 31  1  0  0  0  0
 32 29  1  0  0  0  0
 33 30  1  0  0  0  0
 34 36  1  0  0  0  0
 35 34  1  0  0  0  0
 37 38  1  0  0  0  0
 38 39  1  0  0  0  0
 40 49  1  1  0  0  0
 40 46  1  0  0  0  0
 40 51  1  0  0  0  0
 42 43  1  0  0  0  0
 42 41  1  1  0  0  0
 44 39  1  1  0  0  0
 44 42  1  0  0  0  0
 46 48  1  0  0  0  0
 48 47  1  1  0  0  0
 48 43  1  0  0  0  0
 49 44  1  0  0  0  0
 50 42  1  0  0  0  0
 51 45  1  6  0  0  0
 51 50  1  0  0  0  0
 53 48  1  0  0  0  0
 53 52  1  0  0  0  0
 54 53  1  0  0  0  0
 55 54  1  0  0  0  0
 55 53  1  0  0  0  0
M  END
>  <MODEL>
5

>  <REMARK>
 VINA RESULT:      -5.4      4.299     11.857
  Name = 
  7 active torsions:
  status: ('A' for Active; 'I' for Inactive)
    1  A    between atoms: C_7  and  C_20
    2  A    between atoms: C_7  and  C_22
    3  A    between atoms: C_8  and  C_22
    4  A    between atoms: C_8  and  C_43
    5  A    between atoms: C_10  and  N_32
    6  A    between atoms: C_12  and  C_38
    7  A    between atoms: C_49  and  N_52
                            x       y       z     vdW  Elec       q    Type
                         _______ _______ _______ _____ _____    ______ ____

>  <TORSDO>
F 7

$$$$
=
 OpenBabel10262420213D

 55 61  0  0  1  0  0  0  0  0999 V2000
  185.0060  178.7430  139.8500 C   0  0  0  0  0  2  0  0  0  0  0  0
  190.4410  176.1070  140.7300 C   0  0  0  0  0  2  0  0  0  0  0  0
  189.1420  178.0540  141.6350 C   0  0  2  0  0  3  0  0  0  0  0  0
  188.9430  177.3020  144.4340 C   0  0  0  0  0  3  0  0  0  0  0  0
  188.8870  177.0050  145.7960 C   0  0  0  0  0  3  0  0  0  0  0  0
  186.8700  178.5540  144.6140 C   0  0  0  0  0  0  0  0  0  0  0  0
  186.8430  178.2720  145.9840 C   0  0  0  0  0  3  0  0  0  0  0  0
  189.0850  178.8800  140.3660 C   0  0  0  0  0  1  0  0  0  0  0  0
  187.8430  177.4980  146.5740 C   0  0  0  0  0  3  0  0  0  0  0  0
  184.5930  178.3220  137.4210 C   0  0  0  0  0  3  0  0  0  0  0  0
  187.9500  178.0810  143.8270 C   0  0  0  0  0  0  0  0  0  0  0  0
  187.1050  177.1130  137.1490 C   0  0  0  0  0  0  0  0  0  0  0  0
  185.0140  177.6390  140.8980 C   0  0  0  0  0  2  0  0  0  0  0  0
  186.6980  177.6100  138.3880 C   0  0  0  0  0  3  0  0  0  0  0  0
  185.4800  179.3870  142.7150 C   0  0  0  0  0  2  0  0  0  0  0  0
  191.2050  176.8810  138.6500 C   0  0  0  0  0  2  0  0  0  0  0  0
  185.8190  179.3250  144.0940 O   0  0  0  0  0  0  0  0  0  0  0  0
  190.3270  175.9120  139.2930 N   0  0  0  0  0  2  0  0  0  0  0  0
  189.1080  176.5720  141.3010 C   0  0  0  0  0  2  0  0  0  0  0  0
  185.0070  177.8390  136.1780 C   0  0  0  0  0  3  0  0  0  0  0  0
  190.9110  176.9990  137.1500 C   0  0  2  0  0  3  0  0  0  0  0  0
  185.4390  178.2060  138.5300 C   0  0  0  0  0  0  0  0  0  0  0  0
  188.0320  178.4010  142.4630 O   0  0  0  0  0  0  0  0  0  0  0  0
  184.7010  178.1350  142.3180 C   0  0  1  0  0  3  0  0  0  0  0  0
  189.5160  177.5220  136.8050 C   0  0  0  0  0  2  0  0  0  0  0  0
  188.4360  176.4670  137.0190 C   0  0  0  0  0  2  0  0  0  0  0  0
  186.2630  177.2350  136.0390 C   0  0  0  0  0  3  0  0  0  0  0  0
  182.5600  178.7490  141.4610 C   0  0  0  0  0  2  0  0  0  0  0  0
  180.7290  178.6290  143.1430 N   0  0  0  0  0  0  0  0  0  0  0  0
  183.0580  179.1540  143.7800 C   0  0  0  0  0  2  0  0  0  0  0  0
  181.5760  179.5010  143.9590 C   0  0  0  0  0  2  0  0  0  0  0  0
  181.0490  178.8220  141.7200 C   0  0  0  0  0  2  0  0  0  0  0  0
  183.2730  178.2500  142.6420 N   0  0  0  0  0  0  0  0  0  0  0  0
  179.3240  178.9420  143.4160 C   0  0  0  0  0  3  0  0  0  0  0  0
  178.9640  180.3290  142.9090 C   0  0  0  0  0  1  0  0  0  0  0  0
  178.9350  178.7950  144.8820 C   0  0  0  0  0  1  0  0  0  0  0  0
  191.4140  175.8380  136.2900 C   0  0  0  0  0  2  0  0  0  0  0  0
  192.3470  174.8910  137.0290 C   0  0  0  0  0  2  0  0  0  0  0  0
  192.9400  173.8760  136.0620 C   0  0  0  0  0  2  0  0  0  0  0  0
  195.6110  173.1300  138.6310 C   0  0  2  0  0  3  0  0  0  0  0  0
  195.0340  175.3490  135.3140 F   0  0  0  0  0  0  0  0  0  0  0  0
  195.4200  174.5170  136.3500 C   0  0  2  0  0  0  0  0  0  0  0  0
  196.7080  174.0180  135.9820 O   0  0  0  0  0  0  0  0  0  0  0  0
  194.3280  173.4280  136.5210 C   0  0  1  0  0  3  0  0  0  0  0  0
  195.5190  175.2730  139.8950 C   0  0  0  0  0  1  0  0  0  0  0  0
  196.6560  172.2930  137.9040 C   0  0  0  0  0  2  0  0  0  0  0  0
  198.6780  173.0520  136.8000 C   0  0  0  0  0  1  0  0  0  0  0  0
  197.2090  172.7960  136.5430 C   0  0  2  0  0  0  0  0  0  0  0  0
  194.2600  172.9500  137.9680 C   0  0  0  0  0  2  0  0  0  0  0  0
  195.5180  175.3300  137.5070 O   0  0  0  0  0  0  0  0  0  0  0  0
  196.0100  174.6080  138.6250 C   0  0  2  0  0  3  0  0  0  0  0  0
  198.4030  171.0170  134.9570 C   0  0  0  0  0  1  0  0  0  0  0  0
  197.1300  171.6370  135.5160 C   0  0  0  0  0  0  0  0  0  0  0  0
  195.9150  171.5520  134.6110 C   0  0  0  0  0  2  0  0  0  0  0  0
  196.0670  170.5940  135.7850 C   0  0  0  0  0  2  0  0  0  0  0  0
  1 13  1  0  0  0  0
  2 19  1  0  0  0  0
  3  8  1  6  0  0  0
  3 23  1  0  0  0  0
  4  5  1  0  0  0  0
  5  9  2  0  0  0  0
  6  7  2  0  0  0  0
  7  9  1  0  0  0  0
 10 22  1  0  0  0  0
 11  4  2  0  0  0  0
 11  6  1  0  0  0  0
 12 14  1  0  0  0  0
 14 22  2  0  0  0  0
 15 17  1  0  0  0  0
 16 18  1  0  0  0  0
 17  6  1  0  0  0  0
 18  2  1  0  0  0  0
 19  3  1  0  0  0  0
 20 10  2  0  0  0  0
 21 37  1  6  0  0  0
 21 16  1  0  0  0  0
 22  1  1  0  0  0  0
 23 11  1  0  0  0  0
 24 13  1  6  0  0  0
 24 33  1  0  0  0  0
 24 15  1  0  0  0  0
 25 26  1  0  0  0  0
 25 21  1  0  0  0  0
 26 12  1  0  0  0  0
 27 20  1  0  0  0  0
 27 12  2  0  0  0  0
 28 32  1  0  0  0  0
 28 33  1  0  0  0  0
 29 34  1  0  0  0  0
 29 31  1  0  0  0  0
 30 31  1  0  0  0  0
 32 29  1  0  0  0  0
 33 30  1  0  0  0  0
 34 36  1  0  0  0  0
 35 34  1  0  0  0  0
 37 38  1  0  0  0  0
 39 38  1  0  0  0  0
 40 46  1  6  0  0  0
 42 41  1  6  0  0  0
 42 44  1  0  0  0  0
 42 50  1  0  0  0  0
 43 42  1  0  0  0  0
 43 48  1  0  0  0  0
 44 39  1  1  0  0  0
 44 49  1  0  0  0  0
 48 47  1  1  0  0  0
 48 46  1  0  0  0  0
 49 40  1  0  0  0  0
 50 51  1  0  0  0  0
 51 40  1  0  0  0  0
 51 45  1  1  0  0  0
 52 53  1  0  0  0  0
 53 55  1  0  0  0  0
 53 48  1  0  0  0  0
 54 53  1  0  0  0  0
 54 55  1  0  0  0  0
M  END
>  <MODEL>
6

>  <REMARK>
 VINA RESULT:      -4.9      4.398     11.857
  Name = 
  7 active torsions:
  status: ('A' for Active; 'I' for Inactive)
    1  A    between atoms: C_7  and  C_20
    2  A    between atoms: C_7  and  C_22
    3  A    between atoms: C_8  and  C_22
    4  A    between atoms: C_8  and  C_43
    5  A    between atoms: C_10  and  N_32
    6  A    between atoms: C_12  and  C_38
    7  A    between atoms: C_49  and  N_52
                            x       y       z     vdW  Elec       q    Type
                         _______ _______ _______ _____ _____    ______ ____

>  <TORSDO>
F 7

$$$$
