=
 OpenBabel10262420193D

 55 64  0  0  1  0  0  0  0  0999 V2000
  191.0970  175.9740  139.9790 C   0  0  0  0  0  2  0  0  0  0  0  0
  187.0490  174.6490  135.8730 C   0  0  0  0  0  3  0  0  0  0  0  0
  188.2090  172.5830  137.5520 C   0  0  0  0  0  2  0  0  0  0  0  0
  185.4040  176.8610  137.0240 C   0  0  0  0  0  3  0  0  0  0  0  0
  185.7980  178.1790  134.9260 C   0  0  0  0  0  2  0  0  0  0  0  0
  190.8810  171.4160  136.0450 C   0  0  0  0  0  3  0  0  0  0  0  0
  191.6220  170.5050  135.1040 C   0  0  0  0  0  2  0  0  0  0  0  0
  192.5250  173.2550  135.6800 C   0  0  1  0  0  3  0  0  0  0  0  0
  193.1510  172.3730  134.5930 C   0  0  0  0  0  2  0  0  0  0  0  0
  190.9270  174.9010  137.2830 N   0  0  0  0  0  2  0  0  0  0  0  0
  183.5790  177.7660  135.7980 O   0  0  0  0  0  0  0  0  0  0  0  0
  184.3350  177.9000  134.5940 C   0  0  0  0  0  2  0  0  0  0  0  0
  193.0840  170.9010  134.9820 C   0  0  0  0  0  2  0  0  0  0  0  0
  188.3700  178.3490  141.1190 C   0  0  0  0  0  3  0  0  0  0  0  0
  191.2230  172.7030  136.2390 C   0  0  0  0  0  0  0  0  0  0  0  0
  188.2930  178.2080  138.6980 C   0  0  0  0  0  0  0  0  0  0  0  0
  191.9730  176.1920  138.9060 O   0  0  0  0  0  0  0  0  0  0  0  0
  189.3900  177.3340  138.7270 C   0  0  0  0  0  3  0  0  0  0  0  0
  193.3770  174.8610  137.4410 C   0  0  1  0  0  3  0  0  0  0  0  0
  186.5040  175.7860  135.0620 C   0  0  0  0  0  2  0  0  0  0  0  0
  193.5190  173.4660  136.8150 C   0  0  0  0  0  2  0  0  0  0  0  0
  188.3530  174.5570  136.1130 C   0  0  0  0  0  3  0  0  0  0  0  0
  188.9560  173.5100  136.9620 C   0  0  0  0  0  0  0  0  0  0  0  0
  189.4520  177.4630  141.1410 C   0  0  0  0  0  3  0  0  0  0  0  0
  184.0990  177.1520  136.9470 C   0  0  0  0  0  0  0  0  0  0  0  0
  186.3490  177.0930  135.8620 C   0  0  2  0  0  0  0  0  0  0  0  0
  189.9750  176.9610  139.9440 C   0  0  0  0  0  0  0  0  0  0  0  0
  190.4360  173.5270  137.2370 C   0  0  2  0  0  3  0  0  0  0  0  0
  192.0460  174.9720  138.2190 C   0  0  2  0  0  3  0  0  0  0  0  0
  187.7290  177.5460  136.3540 C   0  0  0  0  0  2  0  0  0  0  0  0
  187.6970  178.6620  137.3980 C   0  0  0  0  0  2  0  0  0  0  0  0
  187.7960  178.7260  139.9010 C   0  0  0  0  0  3  0  0  0  0  0  0
  197.0780  173.5010  138.0350 C   0  0  1  0  0  3  0  0  0  0  0  0
  194.9490  173.9790  139.2280 C   0  0  0  0  0  2  0  0  0  0  0  0
  199.1530  174.6880  137.9650 O   0  0  0  0  0  0  0  0  0  0  0  0
  196.8180  174.9480  138.2600 C   0  0  2  0  0  0  0  0  0  0  0  0
  195.7330  175.4480  137.5320 O   0  0  0  0  0  0  0  0  0  0  0  0
  198.1550  175.6400  138.2450 C   0  0  0  0  0  2  0  0  0  0  0  0
  198.5790  173.4160  138.1750 C   0  0  0  0  0  2  0  0  0  0  0  0
  196.4480  173.9880  139.3390 C   0  0  2  0  0  3  0  0  0  0  0  0
  194.6010  175.1670  138.3270 C   0  0  1  0  0  3  0  0  0  0  0  0
  182.0590  173.3820  137.9590 O   0  0  0  0  0  1  0  0  0  0  0  0
  183.2570  175.6440  138.9200 C   0  0  1  0  0  3  0  0  0  0  0  0
  182.1680  175.3120  136.7100 O   0  0  0  0  0  0  0  0  0  0  0  0
  182.0210  175.9190  138.0000 C   0  0  1  0  0  0  0  0  0  0  0  0
  181.4220  174.5810  137.6180 C   0  0  2  0  0  0  0  0  0  0  0  0
  184.2090  174.7830  138.3540 O   0  0  0  0  0  1  0  0  0  0  0  0
  183.1910  176.9230  138.1410 C   0  0  2  0  0  0  0  0  0  0  0  0
  182.7940  178.1410  138.9710 C   0  0  2  0  0  3  0  0  0  0  0  0
  183.9230  178.9080  139.2740 O   0  0  0  0  0  1  0  0  0  0  0  0
  182.1060  177.7230  140.2580 C   0  0  0  0  0  1  0  0  0  0  0  0
  179.9840  174.5000  137.2010 C   0  0  0  0  0  0  0  0  0  0  0  0
  179.6280  175.0220  136.1550 O   0  0  0  0  0  0  0  0  0  0  0  0
  178.9660  173.8460  138.0810 C   0  0  0  0  0  2  0  0  0  0  0  0
  179.1720  174.2350  139.4640 N   0  0  0  0  0  1  0  0  0  0  0  0
  2 22  2  0  0  0  0
  6 15  2  0  0  0  0
  7  6  1  0  0  0  0
  8  9  1  6  0  0  0
  8 15  1  0  0  0  0
  8 21  1  0  0  0  0
  9 13  1  0  0  0  0
 11 25  1  0  0  0  0
 12  5  1  0  0  0  0
 12 11  1  0  0  0  0
 13  7  1  0  0  0  0
 14 24  1  0  0  0  0
 16 18  2  0  0  0  0
 16 32  1  0  0  0  0
 17  1  1  0  0  0  0
 18 27  1  0  0  0  0
 19 21  1  1  0  0  0
 19 29  1  0  0  0  0
 19 41  1  0  0  0  0
 20 26  1  0  0  0  0
 20  2  1  0  0  0  0
 22 23  1  0  0  0  0
 23 28  1  0  0  0  0
 23  3  2  0  0  0  0
 25  4  2  0  0  0  0
 25 48  1  0  0  0  0
 26  5  1  6  0  0  0
 26 30  1  0  0  0  0
 26  4  1  0  0  0  0
 27  1  1  0  0  0  0
 27 24  2  0  0  0  0
 28 15  1  6  0  0  0
 28 10  1  0  0  0  0
 29 10  1  6  0  0  0
 29 17  1  0  0  0  0
 30 31  1  0  0  0  0
 31 16  1  0  0  0  0
 32 14  2  0  0  0  0
 33 39  1  1  0  0  0
 33 36  1  0  0  0  0
 33 40  1  0  0  0  0
 35 39  1  0  0  0  0
 35 38  1  0  0  0  0
 36 38  1  1  0  0  0
 36 40  1  0  0  0  0
 37 36  1  0  0  0  0
 37 41  1  0  0  0  0
 40 34  1  6  0  0  0
 41 34  1  1  0  0  0
 43 47  1  6  0  0  0
 44 46  1  0  0  0  0
 45 44  1  6  0  0  0
 45 48  1  0  0  0  0
 45 43  1  0  0  0  0
 46 42  1  1  0  0  0
 46 45  1  0  0  0  0
 48 43  1  0  0  0  0
 48 49  1  1  0  0  0
 49 50  1  0  0  0  0
 49 51  1  1  0  0  0
 52 46  1  0  0  0  0
 52 54  1  0  0  0  0
 53 52  2  0  0  0  0
 54 55  1  0  0  0  0
M  END
>  <MODEL>
1

>  <REMARK>
 VINA RESULT:      -1.8      0.000      0.000
  Name = 
  5 active torsions:
  status: ('A' for Active; 'I' for Inactive)
    1  A    between atoms: C_1  and  C_53
    2  A    between atoms: C_11  and  C_29
    3  A    between atoms: C_29  and  C_38
    4  A    between atoms: C_33  and  C_52
    5  A    between atoms: C_42  and  C_53
                            x       y       z     vdW  Elec       q    Type
                         _______ _______ _______ _____ _____    ______ ____

>  <TORSDO>
F 5

$$$$
=
 OpenBabel10262420193D

 55 64  0  0  1  0  0  0  0  0999 V2000
  183.2150  174.2350  137.9550 C   0  0  0  0  0  2  0  0  0  0  0  0
  186.9250  178.8220  137.5100 C   0  0  0  0  0  3  0  0  0  0  0  0
  185.1420  178.5560  139.7860 C   0  0  0  0  0  2  0  0  0  0  0  0
  189.0690  176.8170  136.9580 C   0  0  0  0  0  3  0  0  0  0  0  0
  189.1730  177.6530  134.5950 C   0  0  0  0  0  2  0  0  0  0  0  0
  182.3290  180.0890  139.0720 C   0  0  0  0  0  3  0  0  0  0  0  0
  181.4090  181.2770  139.0000 C   0  0  0  0  0  2  0  0  0  0  0  0
  181.2960  179.0720  137.0430 C   0  0  1  0  0  3  0  0  0  0  0  0
  180.5010  180.3740  136.8910 C   0  0  0  0  0  2  0  0  0  0  0  0
  183.2110  177.0360  137.1790 N   0  0  0  0  0  2  0  0  0  0  0  0
  191.1370  177.4990  136.0020 O   0  0  0  0  0  0  0  0  0  0  0  0
  190.5120  178.2770  134.9800 C   0  0  0  0  0  2  0  0  0  0  0  0
  180.1280  180.9450  138.2530 C   0  0  0  0  0  2  0  0  0  0  0  0
  186.4430  172.2860  137.5510 C   0  0  0  0  0  3  0  0  0  0  0  0
  182.3570  179.1270  138.1300 C   0  0  0  0  0  0  0  0  0  0  0  0
  186.6000  174.3050  136.2140 C   0  0  0  0  0  0  0  0  0  0  0  0
  182.4940  174.8420  136.9180 O   0  0  0  0  0  0  0  0  0  0  0  0
  185.3010  174.6530  136.6100 C   0  0  0  0  0  3  0  0  0  0  0  0
  180.8460  176.6080  136.6780 C   0  0  1  0  0  3  0  0  0  0  0  0
  187.8110  178.8670  136.3020 C   0  0  0  0  0  2  0  0  0  0  0  0
  180.3460  177.9120  137.3150 C   0  0  0  0  0  2  0  0  0  0  0  0
  185.6380  178.5120  137.3910 C   0  0  0  0  0  3  0  0  0  0  0  0
  184.7200  178.3760  138.5390 C   0  0  0  0  0  0  0  0  0  0  0  0
  185.1540  172.6480  137.9560 C   0  0  0  0  0  3  0  0  0  0  0  0
  190.4050  176.8800  137.0270 C   0  0  0  0  0  0  0  0  0  0  0  0
  188.2890  177.4780  135.8390 C   0  0  2  0  0  0  0  0  0  0  0  0
  184.5720  173.8280  137.4770 C   0  0  0  0  0  0  0  0  0  0  0  0
  183.2940  177.9510  138.3130 C   0  0  2  0  0  3  0  0  0  0  0  0
  182.1130  176.1010  137.4050 C   0  0  2  0  0  3  0  0  0  0  0  0
  187.0720  176.6350  135.4410 C   0  0  0  0  0  2  0  0  0  0  0  0
  187.3660  175.1490  135.2380 C   0  0  0  0  0  2  0  0  0  0  0  0
  187.1620  173.1080  136.6770 C   0  0  0  0  0  3  0  0  0  0  0  0
  180.2150  172.8730  135.4330 C   0  0  1  0  0  3  0  0  0  0  0  0
  179.3150  175.1840  135.2390 C   0  0  0  0  0  2  0  0  0  0  0  0
  179.4490  170.9760  136.6720 O   0  0  0  0  0  0  0  0  0  0  0  0
  179.4810  173.3430  136.6390 C   0  0  2  0  0  0  0  0  0  0  0  0
  180.1250  174.3800  137.3240 O   0  0  0  0  0  0  0  0  0  0  0  0
  178.9890  172.1160  137.3580 C   0  0  0  0  0  2  0  0  0  0  0  0
  179.8630  171.4040  135.3940 C   0  0  0  0  0  2  0  0  0  0  0  0
  178.9530  173.7250  135.2970 C   0  0  2  0  0  3  0  0  0  0  0  0
  179.7150  175.5600  136.6680 C   0  0  1  0  0  3  0  0  0  0  0  0
  194.4270  175.1020  136.7660 O   0  0  0  0  0  1  0  0  0  0  0  0
  192.6190  176.4050  138.3510 C   0  0  1  0  0  3  0  0  0  0  0  0
  192.1630  174.9690  136.3740 O   0  0  0  0  0  0  0  0  0  0  0  0
  192.1120  175.0290  137.8040 C   0  0  1  0  0  0  0  0  0  0  0  0
  193.2450  174.3970  137.0200 C   0  0  2  0  0  0  0  0  0  0  0  0
  193.1160  177.2640  137.3590 O   0  0  0  0  0  1  0  0  0  0  0  0
  191.1490  176.1870  138.1540 C   0  0  2  0  0  0  0  0  0  0  0  0
  190.3790  175.9140  139.4440 C   0  0  2  0  0  3  0  0  0  0  0  0
  189.0110  175.8130  139.1790 O   0  0  0  0  0  1  0  0  0  0  0  0
  190.6170  177.0130  140.4640 C   0  0  0  0  0  1  0  0  0  0  0  0
  193.2760  172.9110  136.8210 C   0  0  0  0  0  0  0  0  0  0  0  0
  192.3000  172.3440  136.3520 O   0  0  0  0  0  0  0  0  0  0  0  0
  194.4600  172.1050  137.2500 C   0  0  0  0  0  2  0  0  0  0  0  0
  195.1000  172.7220  138.3980 N   0  0  0  0  0  1  0  0  0  0  0  0
  4 25  2  0  0  0  0
  5 12  1  0  0  0  0
  7  6  1  0  0  0  0
  8  9  1  1  0  0  0
  8 21  1  0  0  0  0
  8 15  1  0  0  0  0
  9 13  1  0  0  0  0
 10 29  1  0  0  0  0
 11 25  1  0  0  0  0
 12 11  1  0  0  0  0
 13  7  1  0  0  0  0
 14 24  1  0  0  0  0
 15 28  1  0  0  0  0
 15  6  2  0  0  0  0
 16 18  2  0  0  0  0
 16 32  1  0  0  0  0
 17  1  1  0  0  0  0
 18 27  1  0  0  0  0
 19 21  1  1  0  0  0
 19 29  1  0  0  0  0
 20  2  1  0  0  0  0
 22  2  2  0  0  0  0
 22 23  1  0  0  0  0
 23  3  2  0  0  0  0
 25 48  1  0  0  0  0
 26  5  1  6  0  0  0
 26 20  1  0  0  0  0
 26  4  1  0  0  0  0
 27  1  1  0  0  0  0
 27 24  2  0  0  0  0
 28 10  1  6  0  0  0
 28 23  1  0  0  0  0
 29 17  1  6  0  0  0
 30 26  1  0  0  0  0
 31 30  1  0  0  0  0
 31 16  1  0  0  0  0
 32 14  2  0  0  0  0
 33 39  1  6  0  0  0
 33 36  1  0  0  0  0
 35 38  1  0  0  0  0
 36 37  1  0  0  0  0
 36 38  1  1  0  0  0
 39 35  1  0  0  0  0
 40 34  1  1  0  0  0
 40 33  1  0  0  0  0
 40 36  1  0  0  0  0
 41 34  1  6  0  0  0
 41 19  1  0  0  0  0
 41 37  1  0  0  0  0
 43 47  1  6  0  0  0
 44 46  1  0  0  0  0
 45 44  1  6  0  0  0
 45 48  1  0  0  0  0
 45 43  1  0  0  0  0
 46 42  1  6  0  0  0
 46 45  1  0  0  0  0
 48 43  1  0  0  0  0
 48 49  1  1  0  0  0
 49 51  1  1  0  0  0
 50 49  1  0  0  0  0
 52 46  1  0  0  0  0
 52 54  1  0  0  0  0
 53 52  2  0  0  0  0
 54 55  1  0  0  0  0
M  END
>  <MODEL>
2

>  <REMARK>
 VINA RESULT:      -1.6      2.498     11.345
  Name = 
  5 active torsions:
  status: ('A' for Active; 'I' for Inactive)
    1  A    between atoms: C_1  and  C_53
    2  A    between atoms: C_11  and  C_29
    3  A    between atoms: C_29  and  C_38
    4  A    between atoms: C_33  and  C_52
    5  A    between atoms: C_42  and  C_53
                            x       y       z     vdW  Elec       q    Type
                         _______ _______ _______ _____ _____    ______ ____

>  <TORSDO>
F 5

$$$$
=
 OpenBabel10262420193D

 55 64  0  0  1  0  0  0  0  0999 V2000
  183.1300  173.6790  137.5940 C   0  0  0  0  0  2  0  0  0  0  0  0
  186.5680  178.4920  137.7020 C   0  0  0  0  0  3  0  0  0  0  0  0
  184.8770  177.8110  139.9620 C   0  0  0  0  0  2  0  0  0  0  0  0
  188.7990  176.7110  136.8240 C   0  0  0  0  0  3  0  0  0  0  0  0
  188.7810  177.8690  134.5990 C   0  0  0  0  0  2  0  0  0  0  0  0
  181.9630  179.2610  139.5380 C   0  0  0  0  0  3  0  0  0  0  0  0
  180.9780  180.3920  139.6560 C   0  0  0  0  0  2  0  0  0  0  0  0
  180.9210  178.4750  137.4130 C   0  0  1  0  0  3  0  0  0  0  0  0
  180.0520  179.7370  137.4640 C   0  0  0  0  0  2  0  0  0  0  0  0
  182.9480  176.5550  137.2160 N   0  0  0  0  0  2  0  0  0  0  0  0
  190.7940  177.6380  135.9220 O   0  0  0  0  0  0  0  0  0  0  0  0
  190.0950  178.5110  135.0340 C   0  0  0  0  0  2  0  0  0  0  0  0
  179.6930  180.0920  138.9010 C   0  0  0  0  0  2  0  0  0  0  0  0
  186.4440  171.9960  136.8430 C   0  0  0  0  0  3  0  0  0  0  0  0
  182.0130  178.4420  138.4710 C   0  0  0  0  0  0  0  0  0  0  0  0
  186.4480  174.1850  135.7970 C   0  0  0  0  0  0  0  0  0  0  0  0
  182.3430  174.3800  136.6700 O   0  0  0  0  0  0  0  0  0  0  0  0
  185.1440  174.3990  136.2700 C   0  0  0  0  0  3  0  0  0  0  0  0
  180.5950  176.0630  136.7190 C   0  0  1  0  0  3  0  0  0  0  0  0
  187.4110  178.7550  136.4910 C   0  0  0  0  0  2  0  0  0  0  0  0
  180.0450  177.2350  137.5440 C   0  0  0  0  0  2  0  0  0  0  0  0
  185.2960  178.1270  137.5730 C   0  0  0  0  0  3  0  0  0  0  0  0
  184.4250  177.7810  138.7130 C   0  0  0  0  0  0  0  0  0  0  0  0
  185.1500  172.2230  137.3260 C   0  0  0  0  0  3  0  0  0  0  0  0
  190.1310  176.8410  136.8680 C   0  0  0  0  0  0  0  0  0  0  0  0
  187.9490  177.4730  135.8280 C   0  0  2  0  0  0  0  0  0  0  0  0
  184.4900  173.4210  137.0310 C   0  0  0  0  0  0  0  0  0  0  0  0
  183.0170  177.3080  138.4650 C   0  0  2  0  0  3  0  0  0  0  0  0
  181.9100  175.5350  137.3370 C   0  0  2  0  0  3  0  0  0  0  0  0
  186.7660  176.6230  135.3450 C   0  0  0  0  0  2  0  0  0  0  0  0
  187.1340  175.2000  134.9300 C   0  0  0  0  0  2  0  0  0  0  0  0
  187.0880  172.9710  136.0750 C   0  0  0  0  0  3  0  0  0  0  0  0
  180.2270  172.3780  135.2410 C   0  0  1  0  0  3  0  0  0  0  0  0
  179.2180  174.6480  135.1240 C   0  0  0  0  0  2  0  0  0  0  0  0
  179.4990  170.3780  136.3330 O   0  0  0  0  0  0  0  0  0  0  0  0
  179.4070  172.7420  136.4290 C   0  0  2  0  0  0  0  0  0  0  0  0
  179.9600  173.7680  137.2040 O   0  0  0  0  0  0  0  0  0  0  0  0
  178.9450  171.4530  137.0530 C   0  0  0  0  0  2  0  0  0  0  0  0
  179.9550  170.8980  135.1040 C   0  0  0  0  0  2  0  0  0  0  0  0
  178.9310  173.1730  135.0830 C   0  0  2  0  0  3  0  0  0  0  0  0
  179.5230  174.9620  136.5910 C   0  0  1  0  0  3  0  0  0  0  0  0
  189.1060  176.1800  141.1000 O   0  0  0  0  0  1  0  0  0  0  0  0
  190.2770  175.1400  138.8580 C   0  0  1  0  0  3  0  0  0  0  0  0
  189.9630  177.5340  139.4480 O   0  0  0  0  0  0  0  0  0  0  0  0
  190.9240  176.4760  139.3540 C   0  0  1  0  0  0  0  0  0  0  0  0
  190.2270  176.8790  140.6380 C   0  0  2  0  0  0  0  0  0  0  0  0
  188.8840  175.2050  138.7030 O   0  0  0  0  0  1  0  0  0  0  0  0
  190.9480  176.0450  137.8690 C   0  0  2  0  0  0  0  0  0  0  0  0
  192.3360  175.5780  137.4360 C   0  0  2  0  0  3  0  0  0  0  0  0
  192.6880  174.4110  138.1180 O   0  0  0  0  0  1  0  0  0  0  0  0
  193.3770  176.6510  137.6970 C   0  0  0  0  0  1  0  0  0  0  0  0
  190.9240  177.7800  141.6130 C   0  0  0  0  0  0  0  0  0  0  0  0
  192.0800  178.1160  141.4060 O   0  0  0  0  0  0  0  0  0  0  0  0
  190.2440  178.2210  142.8710 C   0  0  0  0  0  2  0  0  0  0  0  0
  191.1800  178.9210  143.7310 N   0  0  0  0  0  1  0  0  0  0  0  0
  4 25  2  0  0  0  0
  5 12  1  0  0  0  0
  6  7  1  0  0  0  0
  8  9  1  1  0  0  0
  8 21  1  0  0  0  0
  8 15  1  0  0  0  0
  9 13  1  0  0  0  0
 10 29  1  0  0  0  0
 11 25  1  0  0  0  0
 12 11  1  0  0  0  0
 13  7  1  0  0  0  0
 14 24  1  0  0  0  0
 15  6  2  0  0  0  0
 16 32  1  0  0  0  0
 16 18  2  0  0  0  0
 17  1  1  0  0  0  0
 18 27  1  0  0  0  0
 19 29  1  0  0  0  0
 19 21  1  1  0  0  0
 20  2  1  0  0  0  0
 22  2  2  0  0  0  0
 22 23  1  0  0  0  0
 23  3  2  0  0  0  0
 25 48  1  0  0  0  0
 26  5  1  6  0  0  0
 26 20  1  0  0  0  0
 26  4  1  0  0  0  0
 27 24  2  0  0  0  0
 27  1  1  0  0  0  0
 28 10  1  6  0  0  0
 28 15  1  0  0  0  0
 28 23  1  0  0  0  0
 29 17  1  6  0  0  0
 30 26  1  0  0  0  0
 31 30  1  0  0  0  0
 31 16  1  0  0  0  0
 32 14  2  0  0  0  0
 33 39  1  6  0  0  0
 33 36  1  0  0  0  0
 35 38  1  0  0  0  0
 36 38  1  1  0  0  0
 36 37  1  0  0  0  0
 39 35  1  0  0  0  0
 40 34  1  1  0  0  0
 40 33  1  0  0  0  0
 40 36  1  0  0  0  0
 41 34  1  6  0  0  0
 41 19  1  0  0  0  0
 41 37  1  0  0  0  0
 43 47  1  6  0  0  0
 43 45  1  0  0  0  0
 44 46  1  0  0  0  0
 45 44  1  6  0  0  0
 45 46  1  0  0  0  0
 46 42  1  1  0  0  0
 46 52  1  0  0  0  0
 48 49  1  6  0  0  0
 48 43  1  0  0  0  0
 48 45  1  0  0  0  0
 49 51  1  1  0  0  0
 49 50  1  0  0  0  0
 52 54  1  0  0  0  0
 53 52  2  0  0  0  0
 54 55  1  0  0  0  0
M  END
>  <MODEL>
3

>  <REMARK>
 VINA RESULT:      -1.2      3.087     11.172
  Name = 
  5 active torsions:
  status: ('A' for Active; 'I' for Inactive)
    1  A    between atoms: C_1  and  C_53
    2  A    between atoms: C_11  and  C_29
    3  A    between atoms: C_29  and  C_38
    4  A    between atoms: C_33  and  C_52
    5  A    between atoms: C_42  and  C_53
                            x       y       z     vdW  Elec       q    Type
                         _______ _______ _______ _____ _____    ______ ____

>  <TORSDO>
F 5

$$$$
=
 OpenBabel10262420193D

 55 64  0  0  1  0  0  0  0  0999 V2000
  187.3390  177.2670  141.8320 C   0  0  0  0  0  2  0  0  0  0  0  0
  185.2260  176.1070  136.4300 C   0  0  0  0  0  3  0  0  0  0  0  0
  186.6840  174.0930  137.9290 C   0  0  0  0  0  2  0  0  0  0  0  0
  182.6200  177.1990  137.3990 C   0  0  0  0  0  3  0  0  0  0  0  0
  182.9350  179.1680  135.8770 C   0  0  0  0  0  2  0  0  0  0  0  0
  189.8710  174.3740  137.1940 C   0  0  0  0  0  3  0  0  0  0  0  0
  191.1090  174.0920  136.3860 C   0  0  0  0  0  2  0  0  0  0  0  0
  190.6860  176.6530  137.7910 C   0  0  1  0  0  3  0  0  0  0  0  0
  191.8450  176.4080  136.8170 C   0  0  0  0  0  2  0  0  0  0  0  0
  188.2410  177.1110  139.0740 N   0  0  0  0  0  2  0  0  0  0  0  0
  180.9250  177.8200  135.8520 O   0  0  0  0  0  0  0  0  0  0  0  0
  181.8240  178.5610  135.0250 C   0  0  0  0  0  2  0  0  0  0  0  0
  192.2780  174.9480  136.8450 C   0  0  0  0  0  2  0  0  0  0  0  0
  183.7100  178.1650  142.4650 C   0  0  0  0  0  3  0  0  0  0  0  0
  189.6190  175.5710  137.7540 C   0  0  0  0  0  0  0  0  0  0  0  0
  184.2610  178.7840  140.1840 C   0  0  0  0  0  0  0  0  0  0  0  0
  188.2800  178.0790  141.1840 O   0  0  0  0  0  0  0  0  0  0  0  0
  185.5750  178.3400  140.3950 C   0  0  0  0  0  3  0  0  0  0  0  0
  190.3960  177.7980  140.0290 C   0  0  1  0  0  3  0  0  0  0  0  0
  184.4790  177.2090  135.7390 C   0  0  0  0  0  2  0  0  0  0  0  0
  191.2210  176.7950  139.2100 C   0  0  0  0  0  2  0  0  0  0  0  0
  186.3650  176.3610  137.0670 C   0  0  0  0  0  3  0  0  0  0  0  0
  187.1180  175.3460  137.8310 C   0  0  0  0  0  0  0  0  0  0  0  0
  185.0180  177.7090  142.6620 C   0  0  0  0  0  3  0  0  0  0  0  0
  181.3630  177.0700  136.9540 C   0  0  0  0  0  0  0  0  0  0  0  0
  183.6370  178.0740  136.6960 C   0  0  2  0  0  0  0  0  0  0  0  0
  185.9590  177.8060  141.6320 C   0  0  0  0  0  0  0  0  0  0  0  0
  188.3610  175.7420  138.5810 C   0  0  2  0  0  3  0  0  0  0  0  0
  188.9890  177.2300  140.3220 C   0  0  2  0  0  3  0  0  0  0  0  0
  184.5690  178.7590  137.7030 C   0  0  0  0  0  2  0  0  0  0  0  0
  183.8550  179.4150  138.8850 C   0  0  0  0  0  2  0  0  0  0  0  0
  183.3350  178.7080  141.2320 C   0  0  0  0  0  3  0  0  0  0  0  0
  189.8540  177.7190  143.9790 C   0  0  1  0  0  3  0  0  0  0  0  0
  190.4110  179.2580  142.1060 C   0  0  0  0  0  2  0  0  0  0  0  0
  191.2220  176.7290  145.6720 O   0  0  0  0  0  0  0  0  0  0  0  0
  191.2400  177.5680  143.4580 C   0  0  2  0  0  0  0  0  0  0  0  0
  191.3020  177.0540  142.1570 O   0  0  0  0  0  0  0  0  0  0  0  0
  192.0630  176.9790  144.5720 C   0  0  0  0  0  2  0  0  0  0  0  0
  190.0340  177.4570  145.4560 C   0  0  0  0  0  2  0  0  0  0  0  0
  190.6670  178.9410  143.5530 C   0  0  2  0  0  3  0  0  0  0  0  0
  191.1560  178.1780  141.3160 C   0  0  1  0  0  3  0  0  0  0  0  0
  181.4760  172.6760  137.2330 O   0  0  0  0  0  1  0  0  0  0  0  0
  180.8330  175.0160  138.4950 C   0  0  1  0  0  3  0  0  0  0  0  0
  180.9620  174.5830  136.0500 O   0  0  0  0  0  0  0  0  0  0  0  0
  180.0660  174.7850  137.1500 C   0  0  1  0  0  0  0  0  0  0  0  0
  180.4640  173.4230  136.6180 C   0  0  2  0  0  0  0  0  0  0  0  0
  182.2260  174.8780  138.3870 O   0  0  0  0  0  1  0  0  0  0  0  0
  180.3700  176.1990  137.7000 C   0  0  2  0  0  0  0  0  0  0  0  0
  179.1170  176.8720  138.2540 C   0  0  2  0  0  3  0  0  0  0  0  0
  179.1980  178.2570  138.0880 O   0  0  0  0  0  1  0  0  0  0  0  0
  178.9310  176.5490  139.7260 C   0  0  0  0  0  1  0  0  0  0  0  0
  179.5550  172.6980  135.6700 C   0  0  0  0  0  0  0  0  0  0  0  0
  179.2780  173.2040  134.5940 O   0  0  0  0  0  0  0  0  0  0  0  0
  178.9310  171.3940  136.0540 C   0  0  0  0  0  2  0  0  0  0  0  0
  179.8030  170.2920  135.6920 N   0  0  0  0  0  1  0  0  0  0  0  0
  2 22  2  0  0  0  0
  5 26  1  0  0  0  0
  6 15  2  0  0  0  0
  7 13  1  0  0  0  0
  7  6  1  0  0  0  0
  8  9  1  6  0  0  0
  8 21  1  0  0  0  0
  9 13  1  0  0  0  0
 11 25  1  0  0  0  0
 12 11  1  0  0  0  0
 12  5  1  0  0  0  0
 14 24  1  0  0  0  0
 15  8  1  0  0  0  0
 16 18  2  0  0  0  0
 16 32  1  0  0  0  0
 17  1  1  0  0  0  0
 18 27  1  0  0  0  0
 19 21  1  1  0  0  0
 19 29  1  0  0  0  0
 19 41  1  0  0  0  0
 20  2  1  0  0  0  0
 22 23  1  0  0  0  0
 23  3  2  0  0  0  0
 23 28  1  0  0  0  0
 25  4  2  0  0  0  0
 25 48  1  0  0  0  0
 26 20  1  6  0  0  0
 26  4  1  0  0  0  0
 26 30  1  0  0  0  0
 27  1  1  0  0  0  0
 27 24  2  0  0  0  0
 28 15  1  6  0  0  0
 28 10  1  0  0  0  0
 29 10  1  6  0  0  0
 29 17  1  0  0  0  0
 30 31  1  0  0  0  0
 31 16  1  0  0  0  0
 32 14  2  0  0  0  0
 33 39  1  1  0  0  0
 36 40  1  0  0  0  0
 36 33  1  0  0  0  0
 36 38  1  1  0  0  0
 37 36  1  0  0  0  0
 38 35  1  0  0  0  0
 39 35  1  0  0  0  0
 40 34  1  6  0  0  0
 40 33  1  0  0  0  0
 41 34  1  1  0  0  0
 41 37  1  0  0  0  0
 43 47  1  6  0  0  0
 44 46  1  0  0  0  0
 45 44  1  6  0  0  0
 45 48  1  0  0  0  0
 45 43  1  0  0  0  0
 46 45  1  0  0  0  0
 46 42  1  1  0  0  0
 48 49  1  1  0  0  0
 48 43  1  0  0  0  0
 49 51  1  1  0  0  0
 50 49  1  0  0  0  0
 52 54  1  0  0  0  0
 52 46  1  0  0  0  0
 53 52  2  0  0  0  0
 55 54  1  0  0  0  0
M  END
>  <MODEL>
4

>  <REMARK>
 VINA RESULT:      -0.1      3.113      4.918
  Name = 
  5 active torsions:
  status: ('A' for Active; 'I' for Inactive)
    1  A    between atoms: C_1  and  C_53
    2  A    between atoms: C_11  and  C_29
    3  A    between atoms: C_29  and  C_38
    4  A    between atoms: C_33  and  C_52
    5  A    between atoms: C_42  and  C_53
                            x       y       z     vdW  Elec       q    Type
                         _______ _______ _______ _____ _____    ______ ____

>  <TORSDO>
F 5

$$$$
=
 OpenBabel10262420193D

 55 64  0  0  1  0  0  0  0  0999 V2000
  190.9830  175.9100  139.8970 C   0  0  0  0  0  2  0  0  0  0  0  0
  186.7700  174.4760  135.9990 C   0  0  0  0  0  3  0  0  0  0  0  0
  187.9390  172.4710  137.7440 C   0  0  0  0  0  2  0  0  0  0  0  0
  185.2140  176.7820  137.0880 C   0  0  0  0  0  3  0  0  0  0  0  0
  185.5670  177.9820  134.9130 C   0  0  0  0  0  2  0  0  0  0  0  0
  190.5320  171.1650  136.2130 C   0  0  0  0  0  3  0  0  0  0  0  0
  191.2210  170.1900  135.2970 C   0  0  0  0  0  2  0  0  0  0  0  0
  192.2040  172.9430  135.7010 C   0  0  1  0  0  3  0  0  0  0  0  0
  192.7730  171.9920  134.6410 C   0  0  0  0  0  2  0  0  0  0  0  0
  190.6980  174.7060  137.2670 N   0  0  0  0  0  2  0  0  0  0  0  0
  183.3690  177.6670  135.8770 O   0  0  0  0  0  0  0  0  0  0  0  0
  184.0870  177.7210  134.6430 C   0  0  0  0  0  2  0  0  0  0  0  0
  192.6860  170.5440  135.1060 C   0  0  0  0  0  2  0  0  0  0  0  0
  188.3490  178.4050  141.0020 C   0  0  0  0  0  3  0  0  0  0  0  0
  190.9090  172.4520  136.3290 C   0  0  0  0  0  0  0  0  0  0  0  0
  188.1880  178.1430  138.5950 C   0  0  0  0  0  0  0  0  0  0  0  0
  191.8260  176.0530  138.7870 O   0  0  0  0  0  0  0  0  0  0  0  0
  189.2650  177.2460  138.6330 C   0  0  0  0  0  3  0  0  0  0  0  0
  193.1500  174.6150  137.3480 C   0  0  1  0  0  3  0  0  0  0  0  0
  186.2230  175.5830  135.1490 C   0  0  0  0  0  2  0  0  0  0  0  0
  193.2400  173.1870  136.7900 C   0  0  0  0  0  2  0  0  0  0  0  0
  188.0790  174.3650  136.2010 C   0  0  0  0  0  3  0  0  0  0  0  0
  188.6870  173.3490  137.0830 C   0  0  0  0  0  0  0  0  0  0  0  0
  189.4120  177.4960  141.0340 C   0  0  0  0  0  3  0  0  0  0  0  0
  183.9140  177.1000  137.0390 C   0  0  0  0  0  0  0  0  0  0  0  0
  186.1250  176.9320  135.8850 C   0  0  2  0  0  0  0  0  0  0  0  0
  189.8820  176.9210  139.8480 C   0  0  0  0  0  0  0  0  0  0  0  0
  190.1750  173.3440  137.3080 C   0  0  2  0  0  3  0  0  0  0  0  0
  191.8490  174.7980  138.1610 C   0  0  2  0  0  3  0  0  0  0  0  0
  187.5300  177.3770  136.3070 C   0  0  0  0  0  2  0  0  0  0  0  0
  187.5580  178.5440  137.2930 C   0  0  0  0  0  2  0  0  0  0  0  0
  187.7430  178.7330  139.7850 C   0  0  0  0  0  3  0  0  0  0  0  0
  196.8880  173.2950  137.7750 C   0  0  1  0  0  3  0  0  0  0  0  0
  194.8110  173.7550  139.0630 C   0  0  0  0  0  2  0  0  0  0  0  0
  198.9460  174.5040  137.6080 O   0  0  0  0  0  0  0  0  0  0  0  0
  196.6240  174.7410  138.0090 C   0  0  2  0  0  0  0  0  0  0  0  0
  195.5010  175.2280  137.3290 O   0  0  0  0  0  0  0  0  0  0  0  0
  197.9520  175.4460  137.9310 C   0  0  0  0  0  2  0  0  0  0  0  0
  198.3960  173.2270  137.8480 C   0  0  0  0  0  2  0  0  0  0  0  0
  196.3140  173.7800  139.1060 C   0  0  2  0  0  3  0  0  0  0  0  0
  194.4100  174.9370  138.1760 C   0  0  1  0  0  3  0  0  0  0  0  0
  179.5100  177.0740  137.1040 O   0  0  0  0  0  1  0  0  0  0  0  0
  181.8030  176.1100  138.2390 C   0  0  1  0  0  3  0  0  0  0  0  0
  181.4920  178.2400  136.9960 O   0  0  0  0  0  0  0  0  0  0  0  0
  181.6700  177.6680  138.2980 C   0  0  1  0  0  0  0  0  0  0  0  0
  180.3230  178.0390  137.7100 C   0  0  2  0  0  0  0  0  0  0  0  0
  181.6220  175.5700  136.9560 O   0  0  0  0  0  1  0  0  0  0  0  0
  183.0420  176.9540  138.2720 C   0  0  2  0  0  0  0  0  0  0  0  0
  183.7300  177.0000  139.6330 C   0  0  2  0  0  3  0  0  0  0  0  0
  182.7810  177.1170  140.6520 O   0  0  0  0  0  1  0  0  0  0  0  0
  184.7040  178.1620  139.7130 C   0  0  0  0  0  1  0  0  0  0  0  0
  179.6810  179.3430  138.0820 C   0  0  0  0  0  0  0  0  0  0  0  0
  179.2800  179.5140  139.2230 O   0  0  0  0  0  0  0  0  0  0  0  0
  179.4670  180.4110  137.0570 C   0  0  0  0  0  2  0  0  0  0  0  0
  179.4300  181.7170  137.6900 N   0  0  0  0  0  1  0  0  0  0  0  0
  2 22  2  0  0  0  0
  6 15  2  0  0  0  0
  7  6  1  0  0  0  0
  8  9  1  6  0  0  0
  8 15  1  0  0  0  0
  8 21  1  0  0  0  0
  9 13  1  0  0  0  0
 10 28  1  0  0  0  0
 11 25  1  0  0  0  0
 12  5  1  0  0  0  0
 12 11  1  0  0  0  0
 13  7  1  0  0  0  0
 14 24  1  0  0  0  0
 16 18  2  0  0  0  0
 16 32  1  0  0  0  0
 17  1  1  0  0  0  0
 18 27  1  0  0  0  0
 19 21  1  1  0  0  0
 19 29  1  0  0  0  0
 19 41  1  0  0  0  0
 20 26  1  0  0  0  0
 20  2  1  0  0  0  0
 22 23  1  0  0  0  0
 23 28  1  0  0  0  0
 23  3  2  0  0  0  0
 25  4  2  0  0  0  0
 25 48  1  0  0  0  0
 26  5  1  6  0  0  0
 26 30  1  0  0  0  0
 26  4  1  0  0  0  0
 27  1  1  0  0  0  0
 27 24  2  0  0  0  0
 28 15  1  6  0  0  0
 29 10  1  6  0  0  0
 29 17  1  0  0  0  0
 30 31  1  0  0  0  0
 31 16  1  0  0  0  0
 32 14  2  0  0  0  0
 33 39  1  1  0  0  0
 33 36  1  0  0  0  0
 33 40  1  0  0  0  0
 35 39  1  0  0  0  0
 35 38  1  0  0  0  0
 36 38  1  1  0  0  0
 36 40  1  0  0  0  0
 37 36  1  0  0  0  0
 37 41  1  0  0  0  0
 40 34  1  6  0  0  0
 41 34  1  6  0  0  0
 43 47  1  6  0  0  0
 43 48  1  0  0  0  0
 43 45  1  0  0  0  0
 44 46  1  0  0  0  0
 45 44  1  6  0  0  0
 46 42  1  6  0  0  0
 46 52  1  0  0  0  0
 46 45  1  0  0  0  0
 48 45  1  0  0  0  0
 48 49  1  1  0  0  0
 49 51  1  6  0  0  0
 49 50  1  0  0  0  0
 52 53  2  0  0  0  0
 54 55  1  0  0  0  0
 54 52  1  0  0  0  0
M  END
>  <MODEL>
5

>  <REMARK>
 VINA RESULT:      -0.0      1.662      2.076
  Name = 
  5 active torsions:
  status: ('A' for Active; 'I' for Inactive)
    1  A    between atoms: C_1  and  C_53
    2  A    between atoms: C_11  and  C_29
    3  A    between atoms: C_29  and  C_38
    4  A    between atoms: C_33  and  C_52
    5  A    between atoms: C_42  and  C_53
                            x       y       z     vdW  Elec       q    Type
                         _______ _______ _______ _____ _____    ______ ____

>  <TORSDO>
F 5

$$$$
=
 OpenBabel10262420193D

 55 64  0  0  1  0  0  0  0  0999 V2000
  187.8450  177.1190  141.9690 C   0  0  0  0  0  2  0  0  0  0  0  0
  186.3990  176.0340  136.3360 C   0  0  0  0  0  3  0  0  0  0  0  0
  187.7210  174.0190  137.9560 C   0  0  0  0  0  2  0  0  0  0  0  0
  183.6730  177.0480  137.0180 C   0  0  0  0  0  3  0  0  0  0  0  0
  184.1160  179.0560  135.5810 C   0  0  0  0  0  2  0  0  0  0  0  0
  190.9640  174.3830  137.6010 C   0  0  0  0  0  3  0  0  0  0  0  0
  192.2940  174.1450  136.9380 C   0  0  0  0  0  2  0  0  0  0  0  0
  191.6510  176.6650  138.3330 C   0  0  1  0  0  3  0  0  0  0  0  0
  192.9200  176.4660  137.4960 C   0  0  0  0  0  2  0  0  0  0  0  0
  189.0640  177.0430  139.3320 N   0  0  0  0  0  2  0  0  0  0  0  0
  182.1550  177.6670  135.2960 O   0  0  0  0  0  0  0  0  0  0  0  0
  183.1260  178.4450  134.5940 C   0  0  0  0  0  2  0  0  0  0  0  0
  193.3820  175.0150  137.5450 C   0  0  0  0  0  2  0  0  0  0  0  0
  184.1470  177.9270  142.1930 C   0  0  0  0  0  3  0  0  0  0  0  0
  190.6210  175.5620  138.1520 C   0  0  0  0  0  0  0  0  0  0  0  0
  184.9440  178.6070  140.0040 C   0  0  0  0  0  0  0  0  0  0  0  0
  188.8350  177.9660  141.4500 O   0  0  0  0  0  0  0  0  0  0  0  0
  186.2340  178.1870  140.3570 C   0  0  0  0  0  3  0  0  0  0  0  0
  191.0770  177.7550  140.5440 C   0  0  1  0  0  3  0  0  0  0  0  0
  185.7120  177.1340  135.5850 C   0  0  0  0  0  2  0  0  0  0  0  0
  192.0140  176.7880  139.8070 C   0  0  0  0  0  2  0  0  0  0  0  0
  187.4500  176.2970  137.1060 C   0  0  0  0  0  3  0  0  0  0  0  0
  188.1330  175.2820  137.9320 C   0  0  0  0  0  0  0  0  0  0  0  0
  185.4340  177.4940  142.5320 C   0  0  0  0  0  3  0  0  0  0  0  0
  182.4800  176.9030  136.4260 C   0  0  0  0  0  0  0  0  0  0  0  0
  184.7450  177.9600  136.4540 C   0  0  2  0  0  0  0  0  0  0  0  0
  186.4860  177.6330  141.6200 C   0  0  0  0  0  0  0  0  0  0  0  0
  189.2720  175.6880  138.8290 C   0  0  2  0  0  3  0  0  0  0  0  0
  189.6590  177.1510  140.6600 C   0  0  2  0  0  3  0  0  0  0  0  0
  185.5370  178.6430  137.5750 C   0  0  0  0  0  2  0  0  0  0  0  0
  184.6760  179.2570  138.6780 C   0  0  0  0  0  2  0  0  0  0  0  0
  183.9040  178.4890  140.9350 C   0  0  0  0  0  3  0  0  0  0  0  0
  189.9860  177.8230  144.3780 C   0  0  1  0  0  3  0  0  0  0  0  0
  190.9000  179.2690  142.5730 C   0  0  0  0  0  2  0  0  0  0  0  0
  191.0350  176.7970  146.2660 O   0  0  0  0  0  0  0  0  0  0  0  0
  191.4170  177.5700  144.0610 C   0  0  2  0  0  0  0  0  0  0  0  0
  191.6260  177.0160  142.7920 O   0  0  0  0  0  0  0  0  0  0  0  0
  192.0370  176.9620  145.2910 C   0  0  0  0  0  2  0  0  0  0  0  0
  189.9400  177.5930  145.8700 C   0  0  0  0  0  2  0  0  0  0  0  0
  190.9300  178.9790  144.0480 C   0  0  2  0  0  3  0  0  0  0  0  0
  191.6730  178.1220  141.9170 C   0  0  1  0  0  3  0  0  0  0  0  0
  178.9310  178.2050  138.6870 O   0  0  0  0  0  1  0  0  0  0  0  0
  179.9740  176.3520  136.9680 C   0  0  1  0  0  3  0  0  0  0  0  0
  181.1900  177.7730  138.6050 O   0  0  0  0  0  0  0  0  0  0  0  0
  180.7250  176.4440  138.3380 C   0  0  1  0  0  0  0  0  0  0  0  0
  179.9860  177.4450  139.2040 C   0  0  2  0  0  0  0  0  0  0  0  0
  179.8110  177.5880  136.3230 O   0  0  0  0  0  1  0  0  0  0  0  0
  181.4280  175.9950  137.0350 C   0  0  2  0  0  0  0  0  0  0  0  0
  181.7030  174.4930  137.0290 C   0  0  2  0  0  3  0  0  0  0  0  0
  181.4540  173.9600  135.7620 O   0  0  0  0  0  1  0  0  0  0  0  0
  180.8450  173.7770  138.0570 C   0  0  0  0  0  1  0  0  0  0  0  0
  180.1190  177.3800  140.6970 C   0  0  0  0  0  0  0  0  0  0  0  0
  179.8920  176.3300  141.2780 O   0  0  0  0  0  0  0  0  0  0  0  0
  180.4620  178.6010  141.4890 C   0  0  0  0  0  2  0  0  0  0  0  0
  179.7170  178.6200  142.7340 N   0  0  0  0  0  1  0  0  0  0  0  0
  2 22  2  0  0  0  0
  6 15  2  0  0  0  0
  7 13  1  0  0  0  0
  7  6  1  0  0  0  0
  8  9  1  6  0  0  0
  8 21  1  0  0  0  0
  9 13  1  0  0  0  0
 11 25  1  0  0  0  0
 12 11  1  0  0  0  0
 12  5  1  0  0  0  0
 14 24  1  0  0  0  0
 15  8  1  0  0  0  0
 15 28  1  0  0  0  0
 16 18  2  0  0  0  0
 16 32  1  0  0  0  0
 17  1  1  0  0  0  0
 18 27  1  0  0  0  0
 19 21  1  1  0  0  0
 19 29  1  0  0  0  0
 19 41  1  0  0  0  0
 20  2  1  0  0  0  0
 20 26  1  0  0  0  0
 22 23  1  0  0  0  0
 23  3  2  0  0  0  0
 25  4  2  0  0  0  0
 25 48  1  0  0  0  0
 26  5  1  6  0  0  0
 26  4  1  0  0  0  0
 26 30  1  0  0  0  0
 27  1  1  0  0  0  0
 27 24  2  0  0  0  0
 28 23  1  6  0  0  0
 28 10  1  0  0  0  0
 29 10  1  6  0  0  0
 29 17  1  0  0  0  0
 30 31  1  0  0  0  0
 31 16  1  0  0  0  0
 32 14  2  0  0  0  0
 33 39  1  1  0  0  0
 36 33  1  0  0  0  0
 36 38  1  1  0  0  0
 37 36  1  0  0  0  0
 38 35  1  0  0  0  0
 39 35  1  0  0  0  0
 40 34  1  6  0  0  0
 40 36  1  0  0  0  0
 40 33  1  0  0  0  0
 41 34  1  1  0  0  0
 41 37  1  0  0  0  0
 43 47  1  6  0  0  0
 43 48  1  0  0  0  0
 43 45  1  0  0  0  0
 44 46  1  0  0  0  0
 45 44  1  6  0  0  0
 45 46  1  0  0  0  0
 46 42  1  6  0  0  0
 46 52  1  0  0  0  0
 48 49  1  6  0  0  0
 48 45  1  0  0  0  0
 49 51  1  1  0  0  0
 50 49  1  0  0  0  0
 52 53  2  0  0  0  0
 52 54  1  0  0  0  0
 54 55  1  0  0  0  0
M  END
>  <MODEL>
6

>  <REMARK>
 VINA RESULT:       0.1      2.908      5.141
  Name = 
  5 active torsions:
  status: ('A' for Active; 'I' for Inactive)
    1  A    between atoms: C_1  and  C_53
    2  A    between atoms: C_11  and  C_29
    3  A    between atoms: C_29  and  C_38
    4  A    between atoms: C_33  and  C_52
    5  A    between atoms: C_42  and  C_53
                            x       y       z     vdW  Elec       q    Type
                         _______ _______ _______ _____ _____    ______ ____

>  <TORSDO>
F 5

$$$$
=
 OpenBabel10262420193D

 55 64  0  0  1  0  0  0  0  0999 V2000
  187.8110  176.8100  142.7610 C   0  0  0  0  0  2  0  0  0  0  0  0
  184.9770  177.5830  137.6260 C   0  0  0  0  0  3  0  0  0  0  0  0
  186.3180  175.0790  138.2330 C   0  0  0  0  0  2  0  0  0  0  0  0
  182.6600  178.5500  139.2440 C   0  0  0  0  0  3  0  0  0  0  0  0
  183.0590  180.8570  138.3440 C   0  0  0  0  0  2  0  0  0  0  0  0
  189.4120  175.2840  137.1570 C   0  0  0  0  0  3  0  0  0  0  0  0
  190.5050  175.1570  136.1310 C   0  0  0  0  0  2  0  0  0  0  0  0
  190.5790  177.1820  138.2770 C   0  0  1  0  0  3  0  0  0  0  0  0
  191.5810  177.1480  137.1160 C   0  0  0  0  0  2  0  0  0  0  0  0
  188.3730  177.4380  139.9790 N   0  0  0  0  0  2  0  0  0  0  0  0
  180.9000  179.7720  138.2130 O   0  0  0  0  0  0  0  0  0  0  0  0
  181.7910  180.6490  137.5220 C   0  0  0  0  0  2  0  0  0  0  0  0
  191.8200  175.7180  136.6470 C   0  0  0  0  0  2  0  0  0  0  0  0
  184.4240  177.7930  144.1530 C   0  0  0  0  0  3  0  0  0  0  0  0
  189.3820  176.2660  138.0770 C   0  0  0  0  0  0  0  0  0  0  0  0
  184.7940  179.0370  142.1030 C   0  0  0  0  0  0  0  0  0  0  0  0
  188.7720  177.6950  142.2530 O   0  0  0  0  0  0  0  0  0  0  0  0
  186.0540  178.4320  141.9790 C   0  0  0  0  0  3  0  0  0  0  0  0
  190.6920  177.5970  140.7710 C   0  0  1  0  0  3  0  0  0  0  0  0
  184.3090  178.9070  137.4090 C   0  0  0  0  0  2  0  0  0  0  0  0
  191.2830  176.8270  139.5810 C   0  0  0  0  0  2  0  0  0  0  0  0
  186.2030  177.5210  138.1360 C   0  0  0  0  0  3  0  0  0  0  0  0
  186.8970  176.2560  138.4470 C   0  0  0  0  0  0  0  0  0  0  0  0
  185.6740  177.1810  144.0130 C   0  0  0  0  0  3  0  0  0  0  0  0
  181.3560  178.6810  138.9680 C   0  0  0  0  0  0  0  0  0  0  0  0
  183.6990  179.5040  138.6900 C   0  0  2  0  0  0  0  0  0  0  0  0
  186.5000  177.5080  142.9320 C   0  0  0  0  0  0  0  0  0  0  0  0
  188.2570  176.2850  139.0910 C   0  0  2  0  0  3  0  0  0  0  0  0
  189.2640  177.0950  141.0840 C   0  0  2  0  0  3  0  0  0  0  0  0
  184.8180  179.7560  139.7080 C   0  0  0  0  0  2  0  0  0  0  0  0
  184.3320  180.0740  141.1220 C   0  0  0  0  0  2  0  0  0  0  0  0
  183.9880  178.7230  143.2040 C   0  0  0  0  0  3  0  0  0  0  0  0
  190.4800  177.6240  144.7520 C   0  0  1  0  0  3  0  0  0  0  0  0
  191.5930  178.7580  142.8390 C   0  0  0  0  0  2  0  0  0  0  0  0
  191.2860  176.0070  146.3200 O   0  0  0  0  0  0  0  0  0  0  0  0
  191.5580  176.8220  144.1130 C   0  0  2  0  0  0  0  0  0  0  0  0
  191.2570  176.4050  142.8110 O   0  0  0  0  0  0  0  0  0  0  0  0
  192.0550  175.8510  145.1510 C   0  0  0  0  0  2  0  0  0  0  0  0
  190.6130  177.2420  146.2080 C   0  0  0  0  0  2  0  0  0  0  0  0
  191.7630  178.2920  144.2590 C   0  0  2  0  0  3  0  0  0  0  0  0
  191.6330  177.4870  141.9870 C   0  0  1  0  0  3  0  0  0  0  0  0
  181.3310  174.3100  138.4220 O   0  0  0  0  0  1  0  0  0  0  0  0
  180.7830  176.3910  140.1100 C   0  0  1  0  0  3  0  0  0  0  0  0
  180.8610  176.4180  137.6260 O   0  0  0  0  0  0  0  0  0  0  0  0
  179.9890  176.4380  138.7620 C   0  0  1  0  0  0  0  0  0  0  0  0
  180.3350  175.1880  137.9780 C   0  0  2  0  0  0  0  0  0  0  0  0
  182.1690  176.2360  139.9500 O   0  0  0  0  0  1  0  0  0  0  0  0
  180.3460  177.7140  139.5590 C   0  0  2  0  0  0  0  0  0  0  0  0
  179.1240  178.3080  140.2550 C   0  0  2  0  0  3  0  0  0  0  0  0
  179.2260  179.7010  140.3070 O   0  0  0  0  0  1  0  0  0  0  0  0
  178.9780  177.7590  141.6620 C   0  0  0  0  0  1  0  0  0  0  0  0
  179.3890  174.6790  136.9310 C   0  0  0  0  0  0  0  0  0  0  0  0
  178.9450  175.4500  136.0930 O   0  0  0  0  0  0  0  0  0  0  0  0
  178.9310  173.2550  136.9390 C   0  0  0  0  0  2  0  0  0  0  0  0
  179.5130  172.5330  135.8220 N   0  0  0  0  0  1  0  0  0  0  0  0
  1 27  1  0  0  0  0
  2 22  2  0  0  0  0
  3 23  2  0  0  0  0
  5 26  1  0  0  0  0
  6 15  2  0  0  0  0
  7 13  1  0  0  0  0
  7  6  1  0  0  0  0
  8  9  1  6  0  0  0
  8 21  1  0  0  0  0
 11 25  1  0  0  0  0
 12 11  1  0  0  0  0
 12  5  1  0  0  0  0
 13  9  1  0  0  0  0
 15  8  1  0  0  0  0
 16 32  1  0  0  0  0
 17  1  1  0  0  0  0
 18 16  2  0  0  0  0
 18 27  1  0  0  0  0
 19 21  1  6  0  0  0
 19 29  1  0  0  0  0
 19 41  1  0  0  0  0
 20  2  1  0  0  0  0
 22 23  1  0  0  0  0
 23 28  1  0  0  0  0
 24 14  1  0  0  0  0
 25  4  2  0  0  0  0
 25 48  1  0  0  0  0
 26 20  1  6  0  0  0
 26  4  1  0  0  0  0
 26 30  1  0  0  0  0
 27 24  2  0  0  0  0
 28 15  1  6  0  0  0
 28 10  1  0  0  0  0
 29 10  1  6  0  0  0
 29 17  1  0  0  0  0
 30 31  1  0  0  0  0
 31 16  1  0  0  0  0
 32 14  2  0  0  0  0
 33 39  1  1  0  0  0
 36 40  1  0  0  0  0
 36 33  1  0  0  0  0
 36 38  1  1  0  0  0
 37 36  1  0  0  0  0
 38 35  1  0  0  0  0
 39 35  1  0  0  0  0
 40 34  1  6  0  0  0
 40 33  1  0  0  0  0
 41 37  1  0  0  0  0
 41 34  1  1  0  0  0
 43 47  1  6  0  0  0
 44 46  1  0  0  0  0
 45 44  1  6  0  0  0
 45 48  1  0  0  0  0
 45 43  1  0  0  0  0
 46 42  1  1  0  0  0
 46 45  1  0  0  0  0
 48 43  1  0  0  0  0
 48 49  1  1  0  0  0
 49 50  1  0  0  0  0
 49 51  1  1  0  0  0
 52 54  1  0  0  0  0
 52 46  1  0  0  0  0
 53 52  2  0  0  0  0
 55 54  1  0  0  0  0
M  END
>  <MODEL>
7

>  <REMARK>
 VINA RESULT:       0.9      3.483      5.245
  Name = 
  5 active torsions:
  status: ('A' for Active; 'I' for Inactive)
    1  A    between atoms: C_1  and  C_53
    2  A    between atoms: C_11  and  C_29
    3  A    between atoms: C_29  and  C_38
    4  A    between atoms: C_33  and  C_52
    5  A    between atoms: C_42  and  C_53
                            x       y       z     vdW  Elec       q    Type
                         _______ _______ _______ _____ _____    ______ ____

>  <TORSDO>
F 5

$$$$
