=
 OpenBabel10262422393D

 43 48  0  0  1  0  0  0  0  0999 V2000
  191.7270  176.1130  136.5910 C   0  0  0  0  0  0  0  0  0  0  0  0
  186.6740  176.9000  137.0560 C   0  0  2  0  0  3  0  0  0  0  0  0
  186.4370  178.4760  138.8150 C   0  0  1  0  0  3  0  0  0  0  0  0
  189.4280  176.6080  136.1610 C   0  0  0  0  0  0  0  0  0  0  0  0
  191.4860  175.8070  138.0410 C   0  0  0  0  0  2  0  0  0  0  0  0
  192.8940  176.0430  136.1270 O   0  0  0  0  0  0  0  0  0  0  0  0
  189.1200  176.4700  137.6060 C   0  0  0  0  0  0  0  0  0  0  0  0
  190.6370  176.4370  135.7200 N   0  0  0  0  0  0  0  0  0  0  0  0
  190.0810  176.1250  138.4670 C   0  0  0  0  0  3  0  0  0  0  0  0
  187.7420  177.9380  138.9140 O   0  0  0  0  0  0  0  0  0  0  0  0
  187.7430  176.7710  138.1330 C   0  0  1  0  0  3  0  0  0  0  0  0
  187.1960  177.6530  135.8330 C   0  0  0  0  0  2  0  0  0  0  0  0
  185.6380  177.7380  137.7410 C   0  0  2  0  0  3  0  0  0  0  0  0
  188.3270  176.8720  135.1810 C   0  0  0  0  0  2  0  0  0  0  0  0
  185.7250  178.5480  140.1030 N   0  0  0  0  0  0  0  0  0  0  0  0
  184.5610  179.3880  139.8860 C   0  0  0  0  0  1  0  0  0  0  0  0
  186.5270  179.1890  141.1460 C   0  0  0  0  0  2  0  0  0  0  0  0
  186.7290  178.2630  142.3430 C   0  0  1  0  0  3  0  0  0  0  0  0
  185.5540  177.5630  142.6210 O   0  0  0  0  0  1  0  0  0  0  0  0
  187.8590  177.2960  142.1290 C   0  0  0  0  0  3  0  0  0  0  0  0
  189.0200  177.3430  142.7930 C   0  0  0  0  0  0  0  0  0  0  0  0
  191.6870  177.5710  143.9230 C   0  0  0  0  0  2  0  0  0  0  0  0
  189.2720  178.3560  143.8860 C   0  0  2  0  0  3  0  0  0  0  0  0
  190.0130  176.2370  142.5650 C   0  0  0  0  0  2  0  0  0  0  0  0
  191.4620  176.7150  142.6770 C   0  0  1  0  0  3  0  0  0  0  0  0
  190.7430  178.7740  143.9540 C   0  0  0  0  0  2  0  0  0  0  0  0
  191.9030  177.4390  141.4190 C   0  0  0  0  0  1  0  0  0  0  0  0
  188.7430  177.9070  145.2190 C   0  0  0  0  0  0  0  0  0  0  0  0
  187.9430  177.6230  147.9530 C   0  0  0  0  0  2  0  0  0  0  0  0
  186.8710  177.4770  146.8820 C   0  0  0  0  0  2  0  0  0  0  0  0
  189.2100  176.9270  147.4740 C   0  0  0  0  0  2  0  0  0  0  0  0
  187.3080  178.2010  145.6090 C   0  0  0  0  0  2  0  0  0  0  0  0
  189.6190  177.4050  146.1050 C   0  0  0  0  0  3  0  0  0  0  0  0
  184.6710  176.8990  138.3060 O   0  0  0  0  0  0  0  0  0  0  0  0
  183.6810  176.7840  137.3280 C   0  0  0  0  0  2  0  0  0  0  0  0
  183.6450  175.3630  136.8010 C   0  0  0  0  0  2  0  0  0  0  0  0
  183.6850  174.4210  137.9050 N   0  0  0  0  0  2  0  0  0  0  0  0
  184.7980  173.5280  137.6430 C   0  0  0  0  0  2  0  0  0  0  0  0
  185.1750  173.5810  136.1670 C   0  0  1  0  0  3  0  0  0  0  0  0
  186.6710  173.3570  135.9170 C   0  0  2  0  0  3  0  0  0  0  0  0
  185.6790  172.2310  135.6980 C   0  0  0  0  0  2  0  0  0  0  0  0
  188.7110  173.0060  136.6930 C   0  0  0  0  0  1  0  0  0  0  0  0
  187.3820  173.1240  137.0980 O   0  0  0  0  0  0  0  0  0  0  0  0
  1  5  1  0  0  0  0
  2 12  1  6  0  0  0
  2 13  1  0  0  0  0
  2 11  1  0  0  0  0
  3 10  1  0  0  0  0
  3 15  1  1  0  0  0
  4  7  1  0  0  0  0
  5  9  1  0  0  0  0
  6  1  2  0  0  0  0
  7  9  2  0  0  0  0
  8  4  2  0  0  0  0
  8  1  1  0  0  0  0
 11  7  1  6  0  0  0
 11 10  1  0  0  0  0
 13 34  1  1  0  0  0
 13  3  1  0  0  0  0
 14 12  1  0  0  0  0
 14  4  1  0  0  0  0
 15 17  1  0  0  0  0
 16 15  1  0  0  0  0
 17 18  1  0  0  0  0
 18 19  1  6  0  0  0
 20 18  1  0  0  0  0
 20 21  2  0  0  0  0
 21 23  1  0  0  0  0
 22 26  1  0  0  0  0
 23 26  1  0  0  0  0
 23 28  1  1  0  0  0
 24 25  1  0  0  0  0
 24 21  1  0  0  0  0
 25 27  1  6  0  0  0
 25 22  1  0  0  0  0
 28 32  1  0  0  0  0
 28 33  2  0  0  0  0
 30 29  1  0  0  0  0
 31 29  1  0  0  0  0
 32 30  1  0  0  0  0
 33 31  1  0  0  0  0
 35 34  1  0  0  0  0
 36 35  1  0  0  0  0
 36 37  1  0  0  0  0
 38 37  1  0  0  0  0
 39 38  1  1  0  0  0
 40 39  1  0  0  0  0
 40 43  1  1  0  0  0
 41 40  1  0  0  0  0
 41 39  1  0  0  0  0
 42 43  1  0  0  0  0
M  END
>  <MODEL>
1

>  <REMARK>
 VINA RESULT:      -7.5      0.000      0.000
  Name = 
  12 active torsions:
  status: ('A' for Active; 'I' for Inactive)
    1  A    between atoms: C_1  and  C_35
    2  A    between atoms: C_1  and  O_38
    3  A    between atoms: N_2  and  C_6
    4  A    between atoms: N_2  and  C_13
    5  A    between atoms: C_3  and  C_12
    6  A    between atoms: C_6  and  C_12
    7  A    between atoms: C_9  and  C_19
    8  A    between atoms: C_9  and  N_32
    9  A    between atoms: C_11  and  C_14
   10  A    between atoms: C_25  and  O_39
   11  A    between atoms: N_32  and  C_35
   12  A    between atoms: C_34  and  O_38
                            x       y       z     vdW  Elec       q    Type
                         _______ _______ _______ _____ _____    ______ ____

>  <TORSDO>
F 12

$$$$
=
 OpenBabel10262422393D

 43 48  0  0  1  0  0  0  0  0999 V2000
  188.0650  177.6650  145.5340 C   0  0  0  0  0  0  0  0  0  0  0  0
  190.5310  176.6890  141.1380 C   0  0  2  0  0  3  0  0  0  0  0  0
  189.4790  178.0520  139.5050 C   0  0  1  0  0  3  0  0  0  0  0  0
  189.7410  177.3640  143.8560 C   0  0  0  0  0  0  0  0  0  0  0  0
  186.9440  177.2620  144.6200 C   0  0  0  0  0  2  0  0  0  0  0  0
  187.8080  178.0030  146.7180 O   0  0  0  0  0  0  0  0  0  0  0  0
  188.6890  177.0980  142.8440 C   0  0  0  0  0  0  0  0  0  0  0  0
  189.4260  177.6210  145.0900 N   0  0  0  0  0  0  0  0  0  0  0  0
  187.4030  177.0770  143.2010 C   0  0  0  0  0  3  0  0  0  0  0  0
  188.6040  177.9840  140.6140 O   0  0  0  0  0  0  0  0  0  0  0  0
  189.0460  176.9040  141.3940 C   0  0  1  0  0  3  0  0  0  0  0  0
  191.3910  177.6020  142.0130 C   0  0  0  0  0  2  0  0  0  0  0  0
  190.6680  177.1120  139.7080 C   0  0  2  0  0  3  0  0  0  0  0  0
  191.1870  177.2640  143.4820 C   0  0  0  0  0  2  0  0  0  0  0  0
  188.8110  177.8500  138.2070 N   0  0  0  0  0  0  0  0  0  0  0  0
  189.1650  178.9870  137.3770 C   0  0  0  0  0  1  0  0  0  0  0  0
  187.3520  177.8450  138.3280 C   0  0  0  0  0  2  0  0  0  0  0  0
  186.7450  176.5910  137.7040 C   0  0  1  0  0  3  0  0  0  0  0  0
  185.4410  176.8430  137.2760 O   0  0  0  0  0  1  0  0  0  0  0  0
  187.5650  176.0710  136.5580 C   0  0  0  0  0  3  0  0  0  0  0  0
  187.7020  174.7720  136.2630 C   0  0  0  0  0  0  0  0  0  0  0  0
  188.3390  171.9830  135.7590 C   0  0  0  0  0  2  0  0  0  0  0  0
  186.9720  173.6990  137.0390 C   0  0  2  0  0  3  0  0  0  0  0  0
  188.4520  174.4040  135.0140 C   0  0  0  0  0  2  0  0  0  0  0  0
  189.2110  173.0820  135.1510 C   0  0  1  0  0  3  0  0  0  0  0  0
  187.7790  172.4010  137.1200 C   0  0  0  0  0  2  0  0  0  0  0  0
  190.4990  173.2640  135.9320 C   0  0  0  0  0  1  0  0  0  0  0  0
  185.5760  173.4740  136.5320 C   0  0  0  0  0  0  0  0  0  0  0  0
  182.8020  173.6150  135.8350 C   0  0  0  0  0  2  0  0  0  0  0  0
  183.8090  173.4410  134.7070 C   0  0  0  0  0  2  0  0  0  0  0  0
  183.2300  172.7430  137.0080 C   0  0  0  0  0  2  0  0  0  0  0  0
  185.1790  173.9540  135.1500 C   0  0  0  0  0  2  0  0  0  0  0  0
  184.6620  173.0040  137.3970 C   0  0  0  0  0  3  0  0  0  0  0  0
  190.5760  175.9830  138.8860 O   0  0  0  0  0  0  0  0  0  0  0  0
  191.8830  175.7440  138.4580 C   0  0  0  0  0  2  0  0  0  0  0  0
  192.0670  176.2760  137.0500 C   0  0  0  0  0  2  0  0  0  0  0  0
  193.4000  175.9600  136.5690 N   0  0  0  0  0  2  0  0  0  0  0  0
  194.0550  175.2210  137.6320 C   0  0  0  0  0  2  0  0  0  0  0  0
  195.3440  174.5920  137.1150 C   0  0  1  0  0  3  0  0  0  0  0  0
  196.2930  174.1500  138.2350 C   0  0  2  0  0  3  0  0  0  0  0  0
  195.4230  173.1340  137.5180 C   0  0  0  0  0  2  0  0  0  0  0  0
  196.8040  175.0050  140.2080 C   0  0  0  0  0  1  0  0  0  0  0  0
  195.7670  174.3910  139.5070 O   0  0  0  0  0  0  0  0  0  0  0  0
  1  6  2  0  0  0  0
  2 11  1  0  0  0  0
  2 12  1  1  0  0  0
  3 15  1  6  0  0  0
  3 13  1  0  0  0  0
  3 10  1  0  0  0  0
  4  8  2  0  0  0  0
  5  1  1  0  0  0  0
  7  9  2  0  0  0  0
  7  4  1  0  0  0  0
  8  1  1  0  0  0  0
  9  5  1  0  0  0  0
 11 10  1  6  0  0  0
 11  7  1  0  0  0  0
 12 14  1  0  0  0  0
 13 34  1  6  0  0  0
 13  2  1  0  0  0  0
 14  4  1  0  0  0  0
 15 17  1  0  0  0  0
 16 15  1  0  0  0  0
 18 19  1  6  0  0  0
 18 17  1  0  0  0  0
 20 18  1  0  0  0  0
 21 20  2  0  0  0  0
 21 23  1  0  0  0  0
 22 26  1  0  0  0  0
 23 28  1  6  0  0  0
 23 26  1  0  0  0  0
 24 25  1  0  0  0  0
 24 21  1  0  0  0  0
 25 22  1  0  0  0  0
 25 27  1  1  0  0  0
 28 33  2  0  0  0  0
 29 31  1  0  0  0  0
 30 32  1  0  0  0  0
 30 29  1  0  0  0  0
 31 33  1  0  0  0  0
 32 28  1  0  0  0  0
 35 34  1  0  0  0  0
 36 35  1  0  0  0  0
 37 36  1  0  0  0  0
 37 38  1  0  0  0  0
 39 41  1  0  0  0  0
 39 38  1  1  0  0  0
 39 40  1  0  0  0  0
 40 43  1  1  0  0  0
 41 40  1  0  0  0  0
 43 42  1  0  0  0  0
M  END
>  <MODEL>
2

>  <REMARK>
 VINA RESULT:      -7.3      2.586      8.488
  Name = 
  12 active torsions:
  status: ('A' for Active; 'I' for Inactive)
    1  A    between atoms: C_1  and  C_35
    2  A    between atoms: C_1  and  O_38
    3  A    between atoms: N_2  and  C_6
    4  A    between atoms: N_2  and  C_13
    5  A    between atoms: C_3  and  C_12
    6  A    between atoms: C_6  and  C_12
    7  A    between atoms: C_9  and  C_19
    8  A    between atoms: C_9  and  N_32
    9  A    between atoms: C_11  and  C_14
   10  A    between atoms: C_25  and  O_39
   11  A    between atoms: N_32  and  C_35
   12  A    between atoms: C_34  and  O_38
                            x       y       z     vdW  Elec       q    Type
                         _______ _______ _______ _____ _____    ______ ____

>  <TORSDO>
F 12

$$$$
=
 OpenBabel10262422393D

 43 48  0  0  1  0  0  0  0  0999 V2000
  191.6240  176.0680  136.5580 C   0  0  0  0  0  0  0  0  0  0  0  0
  186.6130  177.0870  137.0200 C   0  0  2  0  0  3  0  0  0  0  0  0
  186.4320  178.5500  138.8810 C   0  0  1  0  0  3  0  0  0  0  0  0
  189.3600  176.7120  136.1370 C   0  0  0  0  0  0  0  0  0  0  0  0
  191.3470  175.6770  137.9810 C   0  0  0  0  0  2  0  0  0  0  0  0
  192.7920  175.9680  136.1040 O   0  0  0  0  0  0  0  0  0  0  0  0
  189.0250  176.4920  137.5670 C   0  0  0  0  0  0  0  0  0  0  0  0
  190.5650  176.5070  135.6990 N   0  0  0  0  0  0  0  0  0  0  0  0
  189.9540  176.0390  138.4120 C   0  0  0  0  0  3  0  0  0  0  0  0
  187.7060  177.9380  138.9560 O   0  0  0  0  0  0  0  0  0  0  0  0
  187.6570  176.8290  138.0980 C   0  0  1  0  0  3  0  0  0  0  0  0
  187.1910  177.8920  135.8570 C   0  0  0  0  0  2  0  0  0  0  0  0
  185.6120  177.9290  137.7490 C   0  0  2  0  0  3  0  0  0  0  0  0
  188.2890  177.0990  135.1660 C   0  0  0  0  0  2  0  0  0  0  0  0
  185.7050  178.5720  140.1620 N   0  0  0  0  0  0  0  0  0  0  0  0
  184.5210  179.3850  139.9540 C   0  0  0  0  0  1  0  0  0  0  0  0
  186.4800  179.2090  141.2290 C   0  0  0  0  0  2  0  0  0  0  0  0
  186.6890  178.2630  142.4090 C   0  0  1  0  0  3  0  0  0  0  0  0
  185.5130  177.5640  142.6870 O   0  0  0  0  0  1  0  0  0  0  0  0
  187.8110  177.2940  142.1680 C   0  0  0  0  0  3  0  0  0  0  0  0
  188.9830  177.3300  142.8150 C   0  0  0  0  0  0  0  0  0  0  0  0
  191.6670  177.5380  143.9070 C   0  0  0  0  0  2  0  0  0  0  0  0
  189.2550  178.3330  143.9140 C   0  0  2  0  0  3  0  0  0  0  0  0
  189.9680  176.2230  142.5610 C   0  0  0  0  0  2  0  0  0  0  0  0
  191.4210  176.6950  142.6560 C   0  0  1  0  0  3  0  0  0  0  0  0
  190.7280  178.7440  143.9630 C   0  0  0  0  0  2  0  0  0  0  0  0
  191.8450  177.4290  141.3980 C   0  0  0  0  0  1  0  0  0  0  0  0
  188.7450  177.8720  145.2500 C   0  0  0  0  0  0  0  0  0  0  0  0
  187.9970  177.5600  147.9960 C   0  0  0  0  0  2  0  0  0  0  0  0
  186.9000  177.4550  146.9460 C   0  0  0  0  0  2  0  0  0  0  0  0
  189.2370  176.8440  147.4780 C   0  0  0  0  0  2  0  0  0  0  0  0
  187.3260  178.1910  145.6760 C   0  0  0  0  0  2  0  0  0  0  0  0
  189.6280  177.3360  146.1090 C   0  0  0  0  0  3  0  0  0  0  0  0
  184.5940  177.1060  138.2450 O   0  0  0  0  0  0  0  0  0  0  0  0
  183.7800  176.8400  137.1430 C   0  0  0  0  0  2  0  0  0  0  0  0
  182.3300  176.7760  137.5800 C   0  0  0  0  0  2  0  0  0  0  0  0
  182.2510  176.4960  139.0020 N   0  0  0  0  0  2  0  0  0  0  0  0
  181.0420  177.1390  139.4810 C   0  0  0  0  0  2  0  0  0  0  0  0
  181.2990  177.8020  140.8290 C   0  0  1  0  0  3  0  0  0  0  0  0
  180.9200  179.2870  140.8540 C   0  0  2  0  0  3  0  0  0  0  0  0
  179.9960  178.2480  141.4600 C   0  0  0  0  0  2  0  0  0  0  0  0
  179.9960  181.0410  139.8760 C   0  0  0  0  0  1  0  0  0  0  0  0
  180.3880  179.7240  139.6380 O   0  0  0  0  0  0  0  0  0  0  0  0
  1  5  1  0  0  0  0
  2 12  1  6  0  0  0
  2 13  1  0  0  0  0
  2 11  1  0  0  0  0
  3 10  1  0  0  0  0
  3 15  1  1  0  0  0
  4  7  1  0  0  0  0
  5  9  1  0  0  0  0
  6  1  2  0  0  0  0
  7  9  2  0  0  0  0
  8  4  2  0  0  0  0
  8  1  1  0  0  0  0
 11  7  1  6  0  0  0
 11 10  1  0  0  0  0
 13 34  1  1  0  0  0
 13  3  1  0  0  0  0
 14 12  1  0  0  0  0
 14  4  1  0  0  0  0
 15 17  1  0  0  0  0
 16 15  1  0  0  0  0
 17 18  1  0  0  0  0
 18 19  1  6  0  0  0
 20 18  1  0  0  0  0
 20 21  2  0  0  0  0
 21 23  1  0  0  0  0
 22 26  1  0  0  0  0
 23 26  1  0  0  0  0
 23 28  1  1  0  0  0
 24 25  1  0  0  0  0
 24 21  1  0  0  0  0
 25 27  1  6  0  0  0
 25 22  1  0  0  0  0
 28 32  1  0  0  0  0
 28 33  2  0  0  0  0
 30 29  1  0  0  0  0
 31 29  1  0  0  0  0
 32 30  1  0  0  0  0
 33 31  1  0  0  0  0
 35 36  1  0  0  0  0
 35 34  1  0  0  0  0
 36 37  1  0  0  0  0
 37 38  1  0  0  0  0
 39 38  1  6  0  0  0
 39 40  1  0  0  0  0
 39 41  1  0  0  0  0
 40 43  1  6  0  0  0
 40 41  1  0  0  0  0
 43 42  1  0  0  0  0
M  END
>  <MODEL>
3

>  <REMARK>
 VINA RESULT:      -7.2      1.714      3.548
  Name = 
  12 active torsions:
  status: ('A' for Active; 'I' for Inactive)
    1  A    between atoms: C_1  and  C_35
    2  A    between atoms: C_1  and  O_38
    3  A    between atoms: N_2  and  C_6
    4  A    between atoms: N_2  and  C_13
    5  A    between atoms: C_3  and  C_12
    6  A    between atoms: C_6  and  C_12
    7  A    between atoms: C_9  and  C_19
    8  A    between atoms: C_9  and  N_32
    9  A    between atoms: C_11  and  C_14
   10  A    between atoms: C_25  and  O_39
   11  A    between atoms: N_32  and  C_35
   12  A    between atoms: C_34  and  O_38
                            x       y       z     vdW  Elec       q    Type
                         _______ _______ _______ _____ _____    ______ ____

>  <TORSDO>
F 12

$$$$
=
 OpenBabel10262422393D

 43 48  0  0  1  0  0  0  0  0999 V2000
  190.4130  177.0180  139.7050 C   0  0  0  0  0  0  0  0  0  0  0  0
  186.7100  178.2320  143.0480 C   0  0  2  0  0  3  0  0  0  0  0  0
  184.6760  178.0310  141.8420 C   0  0  1  0  0  3  0  0  0  0  0  0
  188.9880  177.1150  141.6220 C   0  0  0  0  0  0  0  0  0  0  0  0
  189.6840  178.1180  138.9910 C   0  0  0  0  0  2  0  0  0  0  0  0
  191.3910  176.4570  139.1470 O   0  0  0  0  0  0  0  0  0  0  0  0
  188.1200  178.1030  140.9340 C   0  0  0  0  0  0  0  0  0  0  0  0
  190.0400  176.6330  141.0340 N   0  0  0  0  0  0  0  0  0  0  0  0
  188.4360  178.5400  139.7130 C   0  0  0  0  0  3  0  0  0  0  0  0
  185.7190  178.0970  140.8880 O   0  0  0  0  0  0  0  0  0  0  0  0
  186.8440  178.5840  141.5730 C   0  0  1  0  0  3  0  0  0  0  0  0
  187.2140  176.8190  143.3380 C   0  0  0  0  0  2  0  0  0  0  0  0
  185.2260  178.2730  143.2480 C   0  0  2  0  0  3  0  0  0  0  0  0
  188.7020  176.7210  143.0380 C   0  0  0  0  0  2  0  0  0  0  0  0
  183.5260  178.8950  141.5270 N   0  0  0  0  0  0  0  0  0  0  0  0
  182.6230  178.8150  142.6600 C   0  0  0  0  0  1  0  0  0  0  0  0
  182.7840  178.4270  140.3550 C   0  0  0  0  0  2  0  0  0  0  0  0
  182.8820  179.4190  139.1980 C   0  0  1  0  0  3  0  0  0  0  0  0
  184.0880  180.1190  139.2590 O   0  0  0  0  0  1  0  0  0  0  0  0
  182.7510  178.7480  137.8610 C   0  0  0  0  0  3  0  0  0  0  0  0
  181.6810  178.8700  137.0640 C   0  0  0  0  0  0  0  0  0  0  0  0
  179.2780  178.7900  135.4340 C   0  0  0  0  0  2  0  0  0  0  0  0
  180.5190  179.7660  137.4240 C   0  0  2  0  0  3  0  0  0  0  0  0
  181.7390  178.2410  135.7000 C   0  0  0  0  0  2  0  0  0  0  0  0
  180.3730  177.7440  135.2230 C   0  0  1  0  0  3  0  0  0  0  0  0
  179.1890  179.2190  136.9000 C   0  0  0  0  0  2  0  0  0  0  0  0
  180.0100  176.4210  135.8710 C   0  0  0  0  0  1  0  0  0  0  0  0
  180.7480  181.1940  137.0190 C   0  0  0  0  0  0  0  0  0  0  0  0
  180.5490  183.9580  136.2990 C   0  0  0  0  0  2  0  0  0  0  0  0
  181.4280  183.5970  137.4870 C   0  0  0  0  0  2  0  0  0  0  0  0
  180.7560  182.9180  135.2050 C   0  0  0  0  0  2  0  0  0  0  0  0
  180.9830  182.2570  138.0740 C   0  0  0  0  0  2  0  0  0  0  0  0
  180.5620  181.5190  135.7290 C   0  0  0  0  0  3  0  0  0  0  0  0
  184.8640  179.5360  143.7310 O   0  0  0  0  0  0  0  0  0  0  0  0
  185.3960  179.5930  145.0200 C   0  0  0  0  0  2  0  0  0  0  0  0
  184.5170  178.8090  145.9730 C   0  0  0  0  0  2  0  0  0  0  0  0
  185.2530  178.4920  147.1830 N   0  0  0  0  0  2  0  0  0  0  0  0
  186.6240  178.2480  146.7770 C   0  0  0  0  0  2  0  0  0  0  0  0
  187.3690  177.4940  147.8730 C   0  0  1  0  0  3  0  0  0  0  0  0
  188.8500  177.2650  147.5510 C   0  0  2  0  0  3  0  0  0  0  0  0
  188.4330  178.3760  148.4960 C   0  0  0  0  0  2  0  0  0  0  0  0
  190.4350  177.2080  146.0110 C   0  0  0  0  0  1  0  0  0  0  0  0
  189.2220  177.8200  146.3230 O   0  0  0  0  0  0  0  0  0  0  0  0
  1  8  1  0  0  0  0
  2 13  1  0  0  0  0
  2 12  1  6  0  0  0
  3 15  1  6  0  0  0
  3 13  1  0  0  0  0
  4 14  1  0  0  0  0
  5  1  1  0  0  0  0
  5  9  1  0  0  0  0
  6  1  2  0  0  0  0
  7 11  1  0  0  0  0
  7  4  1  0  0  0  0
  8  4  2  0  0  0  0
  9  7  2  0  0  0  0
 10  3  1  0  0  0  0
 11 10  1  6  0  0  0
 11  2  1  0  0  0  0
 13 34  1  6  0  0  0
 14 12  1  0  0  0  0
 15 16  1  0  0  0  0
 17 15  1  0  0  0  0
 18 19  1  6  0  0  0
 18 17  1  0  0  0  0
 20 18  1  0  0  0  0
 21 23  1  0  0  0  0
 21 20  2  0  0  0  0
 22 26  1  0  0  0  0
 23 28  1  6  0  0  0
 24 21  1  0  0  0  0
 25 22  1  0  0  0  0
 25 24  1  0  0  0  0
 25 27  1  1  0  0  0
 26 23  1  0  0  0  0
 28 32  1  0  0  0  0
 29 30  1  0  0  0  0
 30 32  1  0  0  0  0
 31 33  1  0  0  0  0
 31 29  1  0  0  0  0
 33 28  2  0  0  0  0
 34 35  1  0  0  0  0
 35 36  1  0  0  0  0
 36 37  1  0  0  0  0
 38 37  1  0  0  0  0
 39 38  1  6  0  0  0
 39 41  1  0  0  0  0
 40 43  1  6  0  0  0
 40 39  1  0  0  0  0
 40 41  1  0  0  0  0
 42 43  1  0  0  0  0
M  END
>  <MODEL>
4

>  <REMARK>
 VINA RESULT:      -7.2      3.562      9.429
  Name = 
  12 active torsions:
  status: ('A' for Active; 'I' for Inactive)
    1  A    between atoms: C_1  and  C_35
    2  A    between atoms: C_1  and  O_38
    3  A    between atoms: N_2  and  C_6
    4  A    between atoms: N_2  and  C_13
    5  A    between atoms: C_3  and  C_12
    6  A    between atoms: C_6  and  C_12
    7  A    between atoms: C_9  and  C_19
    8  A    between atoms: C_9  and  N_32
    9  A    between atoms: C_11  and  C_14
   10  A    between atoms: C_25  and  O_39
   11  A    between atoms: N_32  and  C_35
   12  A    between atoms: C_34  and  O_38
                            x       y       z     vdW  Elec       q    Type
                         _______ _______ _______ _____ _____    ______ ____

>  <TORSDO>
F 12

$$$$
=
 OpenBabel10262422393D

 43 48  0  0  1  0  0  0  0  0999 V2000
  190.5700  177.1190  139.6520 C   0  0  0  0  0  0  0  0  0  0  0  0
  186.8000  178.1710  142.9750 C   0  0  2  0  0  3  0  0  0  0  0  0
  184.7900  178.0230  141.7210 C   0  0  1  0  0  3  0  0  0  0  0  0
  189.1080  177.1250  141.5440 C   0  0  0  0  0  0  0  0  0  0  0  0
  189.8520  178.2500  138.9760 C   0  0  0  0  0  2  0  0  0  0  0  0
  191.5600  176.5860  139.0880 O   0  0  0  0  0  0  0  0  0  0  0  0
  188.2500  178.1420  140.8850 C   0  0  0  0  0  0  0  0  0  0  0  0
  190.1720  176.6720  140.9540 N   0  0  0  0  0  0  0  0  0  0  0  0
  188.5890  178.6350  139.6920 C   0  0  0  0  0  3  0  0  0  0  0  0
  185.8510  178.1350  140.7920 O   0  0  0  0  0  0  0  0  0  0  0  0
  186.9610  178.5910  141.5200 C   0  0  1  0  0  3  0  0  0  0  0  0
  187.3020  176.7470  143.2090 C   0  0  0  0  0  2  0  0  0  0  0  0
  185.3130  178.2010  143.1470 C   0  0  2  0  0  3  0  0  0  0  0  0
  188.7960  176.6650  142.9330 C   0  0  0  0  0  2  0  0  0  0  0  0
  183.6440  178.9000  141.4240 N   0  0  0  0  0  0  0  0  0  0  0  0
  182.4500  178.0910  141.5840 C   0  0  0  0  0  1  0  0  0  0  0  0
  183.6540  179.3770  140.0400 C   0  0  0  0  0  2  0  0  0  0  0  0
  182.9390  178.4020  139.1080 C   0  0  1  0  0  3  0  0  0  0  0  0
  181.7000  178.9150  138.7230 O   0  0  0  0  0  1  0  0  0  0  0  0
  183.7550  178.0780  137.8890 C   0  0  0  0  0  3  0  0  0  0  0  0
  183.9510  176.8360  137.4270 C   0  0  0  0  0  0  0  0  0  0  0  0
  184.7160  174.1730  136.5550 C   0  0  0  0  0  2  0  0  0  0  0  0
  183.2970  175.6350  138.0700 C   0  0  2  0  0  3  0  0  0  0  0  0
  184.6870  176.6720  136.1270 C   0  0  0  0  0  2  0  0  0  0  0  0
  185.5150  175.3860  136.0780 C   0  0  1  0  0  3  0  0  0  0  0  0
  184.1700  174.3820  137.9680 C   0  0  0  0  0  2  0  0  0  0  0  0
  186.8120  175.5350  136.8510 C   0  0  0  0  0  1  0  0  0  0  0  0
  181.9010  175.4020  137.5650 C   0  0  0  0  0  0  0  0  0  0  0  0
  179.1580  175.5720  136.7600 C   0  0  0  0  0  2  0  0  0  0  0  0
  180.1780  175.1450  135.7150 C   0  0  0  0  0  2  0  0  0  0  0  0
  179.5050  174.9010  138.0830 C   0  0  0  0  0  2  0  0  0  0  0  0
  181.5670  175.6510  136.1070 C   0  0  0  0  0  2  0  0  0  0  0  0
  180.9400  175.1460  138.4680 C   0  0  0  0  0  3  0  0  0  0  0  0
  184.9380  179.4390  143.6810 O   0  0  0  0  0  0  0  0  0  0  0  0
  184.4050  179.1420  144.9360 C   0  0  0  0  0  2  0  0  0  0  0  0
  185.4490  179.3900  146.0080 C   0  0  0  0  0  2  0  0  0  0  0  0
  185.9520  178.1260  146.5140 N   0  0  0  0  0  2  0  0  0  0  0  0
  187.3930  178.2650  146.6050 C   0  0  0  0  0  2  0  0  0  0  0  0
  187.9290  177.4200  147.7560 C   0  0  1  0  0  3  0  0  0  0  0  0
  189.3790  176.9690  147.5510 C   0  0  2  0  0  3  0  0  0  0  0  0
  189.0610  178.1400  148.4610 C   0  0  0  0  0  2  0  0  0  0  0  0
  191.1300  176.7610  146.2170 C   0  0  0  0  0  1  0  0  0  0  0  0
  189.9250  177.4490  146.3560 O   0  0  0  0  0  0  0  0  0  0  0  0
  1  8  1  0  0  0  0
  2 13  1  0  0  0  0
  2 12  1  6  0  0  0
  3 15  1  6  0  0  0
  3 13  1  0  0  0  0
  4 14  1  0  0  0  0
  5  1  1  0  0  0  0
  5  9  1  0  0  0  0
  6  1  2  0  0  0  0
  7 11  1  0  0  0  0
  7  4  1  0  0  0  0
  8  4  2  0  0  0  0
  9  7  2  0  0  0  0
 10  3  1  0  0  0  0
 11 10  1  6  0  0  0
 11  2  1  0  0  0  0
 13 34  1  6  0  0  0
 14 12  1  0  0  0  0
 15 16  1  0  0  0  0
 17 15  1  0  0  0  0
 18 19  1  6  0  0  0
 18 17  1  0  0  0  0
 20 18  1  0  0  0  0
 21 20  2  0  0  0  0
 21 23  1  0  0  0  0
 22 26  1  0  0  0  0
 23 28  1  6  0  0  0
 24 21  1  0  0  0  0
 25 24  1  0  0  0  0
 25 22  1  0  0  0  0
 25 27  1  1  0  0  0
 26 23  1  0  0  0  0
 28 33  2  0  0  0  0
 29 31  1  0  0  0  0
 30 32  1  0  0  0  0
 30 29  1  0  0  0  0
 31 33  1  0  0  0  0
 32 28  1  0  0  0  0
 34 35  1  0  0  0  0
 35 36  1  0  0  0  0
 36 37  1  0  0  0  0
 37 38  1  0  0  0  0
 39 38  1  6  0  0  0
 39 41  1  0  0  0  0
 40 43  1  6  0  0  0
 40 39  1  0  0  0  0
 40 41  1  0  0  0  0
 42 43  1  0  0  0  0
M  END
>  <MODEL>
5

>  <REMARK>
 VINA RESULT:      -6.9      2.568      8.476
  Name = 
  12 active torsions:
  status: ('A' for Active; 'I' for Inactive)
    1  A    between atoms: C_1  and  C_35
    2  A    between atoms: C_1  and  O_38
    3  A    between atoms: N_2  and  C_6
    4  A    between atoms: N_2  and  C_13
    5  A    between atoms: C_3  and  C_12
    6  A    between atoms: C_6  and  C_12
    7  A    between atoms: C_9  and  C_19
    8  A    between atoms: C_9  and  N_32
    9  A    between atoms: C_11  and  C_14
   10  A    between atoms: C_25  and  O_39
   11  A    between atoms: N_32  and  C_35
   12  A    between atoms: C_34  and  O_38
                            x       y       z     vdW  Elec       q    Type
                         _______ _______ _______ _____ _____    ______ ____

>  <TORSDO>
F 12

$$$$
=
 OpenBabel10262422393D

 43 48  0  0  1  0  0  0  0  0999 V2000
  191.6330  176.3000  136.7260 C   0  0  0  0  0  0  0  0  0  0  0  0
  186.6000  177.1920  137.2090 C   0  0  2  0  0  3  0  0  0  0  0  0
  186.3860  178.6090  139.1010 C   0  0  1  0  0  3  0  0  0  0  0  0
  189.3550  176.9000  136.3180 C   0  0  0  0  0  0  0  0  0  0  0  0
  191.3650  175.8710  138.1390 C   0  0  0  0  0  2  0  0  0  0  0  0
  192.8030  176.2370  136.2690 O   0  0  0  0  0  0  0  0  0  0  0  0
  189.0250  176.6410  137.7420 C   0  0  0  0  0  0  0  0  0  0  0  0
  190.5640  176.7330  135.8760 N   0  0  0  0  0  0  0  0  0  0  0  0
  189.9640  176.1910  138.5780 C   0  0  0  0  0  3  0  0  0  0  0  0
  187.6730  178.0250  139.1630 O   0  0  0  0  0  0  0  0  0  0  0  0
  187.6500  176.9340  138.2800 C   0  0  1  0  0  3  0  0  0  0  0  0
  187.1590  178.0360  136.0640 C   0  0  0  0  0  2  0  0  0  0  0  0
  185.5800  177.9950  137.9550 C   0  0  2  0  0  3  0  0  0  0  0  0
  188.2760  177.2840  135.3550 C   0  0  0  0  0  2  0  0  0  0  0  0
  185.6590  178.5860  140.3820 N   0  0  0  0  0  0  0  0  0  0  0  0
  184.4600  179.3820  140.1940 C   0  0  0  0  0  1  0  0  0  0  0  0
  186.4220  179.2100  141.4640 C   0  0  0  0  0  2  0  0  0  0  0  0
  186.6540  178.2370  142.6170 C   0  0  1  0  0  3  0  0  0  0  0  0
  185.4910  177.5160  142.8890 O   0  0  0  0  0  1  0  0  0  0  0  0
  187.7860  177.2890  142.3410 C   0  0  0  0  0  3  0  0  0  0  0  0
  188.9760  177.3440  142.9550 C   0  0  0  0  0  0  0  0  0  0  0  0
  191.6850  177.5960  143.9700 C   0  0  0  0  0  2  0  0  0  0  0  0
  189.2610  178.3480  144.0490 C   0  0  2  0  0  3  0  0  0  0  0  0
  189.9720  176.2560  142.6690 C   0  0  0  0  0  2  0  0  0  0  0  0
  191.4180  176.7530  142.7240 C   0  0  1  0  0  3  0  0  0  0  0  0
  190.7270  178.7860  144.0580 C   0  0  0  0  0  2  0  0  0  0  0  0
  191.7940  177.4990  141.4570 C   0  0  0  0  0  1  0  0  0  0  0  0
  188.7970  177.8730  145.3980 C   0  0  0  0  0  0  0  0  0  0  0  0
  188.1920  177.5090  148.1720 C   0  0  0  0  0  2  0  0  0  0  0  0
  187.0300  177.5280  147.1900 C   0  0  0  0  0  2  0  0  0  0  0  0
  189.3420  176.7240  147.5530 C   0  0  0  0  0  2  0  0  0  0  0  0
  187.4350  178.2800  145.9220 C   0  0  0  0  0  2  0  0  0  0  0  0
  189.6860  177.2400  146.1800 C   0  0  0  0  0  3  0  0  0  0  0  0
  184.5810  177.1380  138.4320 O   0  0  0  0  0  0  0  0  0  0  0  0
  183.7270  176.9430  137.3460 C   0  0  0  0  0  2  0  0  0  0  0  0
  182.8290  178.1530  137.1760 C   0  0  0  0  0  2  0  0  0  0  0  0
  181.4420  177.7750  137.3770 N   0  0  0  0  0  2  0  0  0  0  0  0
  181.3400  176.3760  137.0050 C   0  0  0  0  0  2  0  0  0  0  0  0
  180.2920  175.6810  137.8660 C   0  0  1  0  0  3  0  0  0  0  0  0
  180.5010  174.1660  137.9680 C   0  0  2  0  0  3  0  0  0  0  0  0
  180.9320  175.0780  139.1010 C   0  0  0  0  0  2  0  0  0  0  0  0
  181.1390  172.8360  136.3220 C   0  0  0  0  0  1  0  0  0  0  0  0
  181.6310  173.7340  137.2680 O   0  0  0  0  0  0  0  0  0  0  0  0
  1  5  1  0  0  0  0
  2 12  1  6  0  0  0
  2 13  1  0  0  0  0
  2 11  1  0  0  0  0
  3 10  1  0  0  0  0
  3 15  1  1  0  0  0
  4  7  1  0  0  0  0
  5  9  1  0  0  0  0
  6  1  2  0  0  0  0
  7  9  2  0  0  0  0
  8  4  2  0  0  0  0
  8  1  1  0  0  0  0
 11  7  1  6  0  0  0
 11 10  1  0  0  0  0
 13 34  1  1  0  0  0
 13  3  1  0  0  0  0
 14 12  1  0  0  0  0
 14  4  1  0  0  0  0
 15 17  1  0  0  0  0
 16 15  1  0  0  0  0
 17 18  1  0  0  0  0
 18 19  1  6  0  0  0
 20 18  1  0  0  0  0
 20 21  2  0  0  0  0
 21 23  1  0  0  0  0
 22 26  1  0  0  0  0
 23 26  1  0  0  0  0
 23 28  1  1  0  0  0
 24 25  1  0  0  0  0
 24 21  1  0  0  0  0
 25 27  1  6  0  0  0
 25 22  1  0  0  0  0
 28 32  1  0  0  0  0
 28 33  2  0  0  0  0
 30 29  1  0  0  0  0
 31 29  1  0  0  0  0
 32 30  1  0  0  0  0
 33 31  1  0  0  0  0
 35 34  1  0  0  0  0
 36 35  1  0  0  0  0
 36 37  1  0  0  0  0
 38 37  1  0  0  0  0
 39 38  1  6  0  0  0
 39 40  1  0  0  0  0
 39 41  1  0  0  0  0
 40 43  1  6  0  0  0
 40 41  1  0  0  0  0
 42 43  1  0  0  0  0
M  END
>  <MODEL>
6

>  <REMARK>
 VINA RESULT:      -6.8      1.722      2.437
  Name = 
  12 active torsions:
  status: ('A' for Active; 'I' for Inactive)
    1  A    between atoms: C_1  and  C_35
    2  A    between atoms: C_1  and  O_38
    3  A    between atoms: N_2  and  C_6
    4  A    between atoms: N_2  and  C_13
    5  A    between atoms: C_3  and  C_12
    6  A    between atoms: C_6  and  C_12
    7  A    between atoms: C_9  and  C_19
    8  A    between atoms: C_9  and  N_32
    9  A    between atoms: C_11  and  C_14
   10  A    between atoms: C_25  and  O_39
   11  A    between atoms: N_32  and  C_35
   12  A    between atoms: C_34  and  O_38
                            x       y       z     vdW  Elec       q    Type
                         _______ _______ _______ _____ _____    ______ ____

>  <TORSDO>
F 12

$$$$
=
 OpenBabel10262422393D

 43 48  0  0  1  0  0  0  0  0999 V2000
  191.6160  176.3520  136.6630 C   0  0  0  0  0  0  0  0  0  0  0  0
  186.5880  177.2710  137.1540 C   0  0  2  0  0  3  0  0  0  0  0  0
  186.3800  178.6490  139.0750 C   0  0  1  0  0  3  0  0  0  0  0  0
  189.3430  176.9770  136.2630 C   0  0  0  0  0  0  0  0  0  0  0  0
  191.3420  175.8960  138.0660 C   0  0  0  0  0  2  0  0  0  0  0  0
  192.7870  176.2900  136.2080 O   0  0  0  0  0  0  0  0  0  0  0  0
  189.0080  176.6910  137.6810 C   0  0  0  0  0  0  0  0  0  0  0  0
  190.5520  176.8110  135.8200 N   0  0  0  0  0  0  0  0  0  0  0  0
  189.9420  176.2170  138.5090 C   0  0  0  0  0  3  0  0  0  0  0  0
  187.6630  178.0550  139.1280 O   0  0  0  0  0  0  0  0  0  0  0  0
  187.6340  176.9830  138.2220 C   0  0  1  0  0  3  0  0  0  0  0  0
  187.1560  178.1340  136.0280 C   0  0  0  0  0  2  0  0  0  0  0  0
  185.5720  178.0650  137.9150 C   0  0  2  0  0  3  0  0  0  0  0  0
  188.2690  177.3890  135.3060 C   0  0  0  0  0  2  0  0  0  0  0  0
  185.6500  178.6040  140.3540 N   0  0  0  0  0  0  0  0  0  0  0  0
  184.4530  179.4060  140.1770 C   0  0  0  0  0  1  0  0  0  0  0  0
  186.4110  179.2080  141.4490 C   0  0  0  0  0  2  0  0  0  0  0  0
  186.6080  178.2250  142.6000 C   0  0  1  0  0  3  0  0  0  0  0  0
  185.4310  177.5160  142.8420 O   0  0  0  0  0  1  0  0  0  0  0  0
  187.7360  177.2670  142.3430 C   0  0  0  0  0  3  0  0  0  0  0  0
  188.9210  177.3200  142.9650 C   0  0  0  0  0  0  0  0  0  0  0  0
  191.6240  177.5630  143.9980 C   0  0  0  0  0  2  0  0  0  0  0  0
  189.2050  178.3320  144.0500 C   0  0  2  0  0  3  0  0  0  0  0  0
  189.9110  176.2210  142.6970 C   0  0  0  0  0  2  0  0  0  0  0  0
  191.3610  176.7090  142.7590 C   0  0  1  0  0  3  0  0  0  0  0  0
  190.6740  178.7600  144.0660 C   0  0  0  0  0  2  0  0  0  0  0  0
  191.7510  177.4390  141.4870 C   0  0  0  0  0  1  0  0  0  0  0  0
  188.7280  177.8760  145.4000 C   0  0  0  0  0  0  0  0  0  0  0  0
  188.0670  177.5620  148.1680 C   0  0  0  0  0  2  0  0  0  0  0  0
  186.9310  177.5010  147.1570 C   0  0  0  0  0  2  0  0  0  0  0  0
  189.2660  176.8140  147.6010 C   0  0  0  0  0  2  0  0  0  0  0  0
  187.3350  178.2350  145.8780 C   0  0  0  0  0  2  0  0  0  0  0  0
  189.6240  177.3060  146.2230 C   0  0  0  0  0  3  0  0  0  0  0  0
  184.5670  177.2060  138.3720 O   0  0  0  0  0  0  0  0  0  0  0  0
  184.2050  176.4520  137.2540 C   0  0  0  0  0  2  0  0  0  0  0  0
  182.7500  176.7080  136.9120 C   0  0  0  0  0  2  0  0  0  0  0  0
  181.9550  176.7600  138.1260 N   0  0  0  0  0  2  0  0  0  0  0  0
  180.9910  177.8280  137.9400 C   0  0  0  0  0  2  0  0  0  0  0  0
  181.7070  179.1210  137.5690 C   0  0  1  0  0  3  0  0  0  0  0  0
  181.0220  179.8870  136.4320 C   0  0  2  0  0  3  0  0  0  0  0  0
  180.8320  180.3200  137.8730 C   0  0  0  0  0  2  0  0  0  0  0  0
  179.9960  179.2040  134.5970 C   0  0  0  0  0  1  0  0  0  0  0  0
  179.8600  179.2530  135.9840 O   0  0  0  0  0  0  0  0  0  0  0  0
  1  5  1  0  0  0  0
  2 12  1  6  0  0  0
  2 13  1  0  0  0  0
  2 11  1  0  0  0  0
  3 10  1  0  0  0  0
  3 15  1  1  0  0  0
  4  7  1  0  0  0  0
  5  9  1  0  0  0  0
  6  1  2  0  0  0  0
  7  9  2  0  0  0  0
  8  4  2  0  0  0  0
  8  1  1  0  0  0  0
 11  7  1  6  0  0  0
 11 10  1  0  0  0  0
 13 34  1  1  0  0  0
 13  3  1  0  0  0  0
 14 12  1  0  0  0  0
 14  4  1  0  0  0  0
 15 17  1  0  0  0  0
 16 15  1  0  0  0  0
 17 18  1  0  0  0  0
 18 19  1  6  0  0  0
 20 18  1  0  0  0  0
 20 21  2  0  0  0  0
 21 23  1  0  0  0  0
 22 26  1  0  0  0  0
 23 26  1  0  0  0  0
 23 28  1  1  0  0  0
 24 25  1  0  0  0  0
 24 21  1  0  0  0  0
 25 27  1  6  0  0  0
 25 22  1  0  0  0  0
 28 32  1  0  0  0  0
 28 33  2  0  0  0  0
 30 29  1  0  0  0  0
 31 29  1  0  0  0  0
 32 30  1  0  0  0  0
 33 31  1  0  0  0  0
 35 34  1  0  0  0  0
 36 35  1  0  0  0  0
 36 37  1  0  0  0  0
 38 37  1  0  0  0  0
 39 41  1  0  0  0  0
 39 38  1  1  0  0  0
 40 43  1  1  0  0  0
 40 39  1  0  0  0  0
 40 41  1  0  0  0  0
 42 43  1  0  0  0  0
M  END
>  <MODEL>
7

>  <REMARK>
 VINA RESULT:      -6.8      1.726      3.322
  Name = 
  12 active torsions:
  status: ('A' for Active; 'I' for Inactive)
    1  A    between atoms: C_1  and  C_35
    2  A    between atoms: C_1  and  O_38
    3  A    between atoms: N_2  and  C_6
    4  A    between atoms: N_2  and  C_13
    5  A    between atoms: C_3  and  C_12
    6  A    between atoms: C_6  and  C_12
    7  A    between atoms: C_9  and  C_19
    8  A    between atoms: C_9  and  N_32
    9  A    between atoms: C_11  and  C_14
   10  A    between atoms: C_25  and  O_39
   11  A    between atoms: N_32  and  C_35
   12  A    between atoms: C_34  and  O_38
                            x       y       z     vdW  Elec       q    Type
                         _______ _______ _______ _____ _____    ______ ____

>  <TORSDO>
F 12

$$$$
=
 OpenBabel10262422393D

 43 48  0  0  1  0  0  0  0  0999 V2000
  188.5040  177.6020  145.4060 C   0  0  0  0  0  0  0  0  0  0  0  0
  190.4360  176.6850  140.7380 C   0  0  2  0  0  3  0  0  0  0  0  0
  189.3990  178.2650  139.3010 C   0  0  1  0  0  3  0  0  0  0  0  0
  189.9770  177.2460  143.5560 C   0  0  0  0  0  0  0  0  0  0  0  0
  187.2670  177.3860  144.5830 C   0  0  0  0  0  2  0  0  0  0  0  0
  188.3960  177.8800  146.6270 O   0  0  0  0  0  0  0  0  0  0  0  0
  188.8140  177.1640  142.6380 C   0  0  0  0  0  0  0  0  0  0  0  0
  189.8060  177.4460  144.8280 N   0  0  0  0  0  0  0  0  0  0  0  0
  187.5710  177.2550  143.1170 C   0  0  0  0  0  3  0  0  0  0  0  0
  188.6260  178.2110  140.4850 O   0  0  0  0  0  0  0  0  0  0  0  0
  189.0140  177.0370  141.1510 C   0  0  1  0  0  3  0  0  0  0  0  0
  191.4680  177.4370  141.5780 C   0  0  0  0  0  2  0  0  0  0  0  0
  190.4890  177.1920  139.3290 C   0  0  2  0  0  3  0  0  0  0  0  0
  191.3620  177.0190  143.0360 C   0  0  0  0  0  2  0  0  0  0  0  0
  188.5990  178.2270  138.0650 N   0  0  0  0  0  0  0  0  0  0  0  0
  189.0490  179.3360  137.2450 C   0  0  0  0  0  1  0  0  0  0  0  0
  187.1720  178.4350  138.3210 C   0  0  0  0  0  2  0  0  0  0  0  0
  186.3130  177.4520  137.5300 C   0  0  1  0  0  3  0  0  0  0  0  0
  186.8560  176.1680  137.5970 O   0  0  0  0  0  1  0  0  0  0  0  0
  184.8900  177.4270  138.0080 C   0  0  0  0  0  3  0  0  0  0  0  0
  183.8340  177.2310  137.2080 C   0  0  0  0  0  0  0  0  0  0  0  0
  181.4750  177.1620  135.5150 C   0  0  0  0  0  2  0  0  0  0  0  0
  183.9960  176.9450  135.7330 C   0  0  2  0  0  3  0  0  0  0  0  0
  182.4770  177.1090  137.8430 C   0  0  0  0  0  2  0  0  0  0  0  0
  181.3600  177.6610  136.9550 C   0  0  1  0  0  3  0  0  0  0  0  0
  182.8360  177.5080  134.9080 C   0  0  0  0  0  2  0  0  0  0  0  0
  181.3070  179.1770  137.0150 C   0  0  0  0  0  1  0  0  0  0  0  0
  184.2410  175.4890  135.4540 C   0  0  0  0  0  0  0  0  0  0  0  0
  185.0250  172.7350  135.4780 C   0  0  0  0  0  2  0  0  0  0  0  0
  183.5390  173.0480  135.3890 C   0  0  0  0  0  2  0  0  0  0  0  0
  185.7840  173.7170  134.5940 C   0  0  0  0  0  2  0  0  0  0  0  0
  183.2670  174.4420  135.9550 C   0  0  0  0  0  2  0  0  0  0  0  0
  185.4210  175.1430  134.9140 C   0  0  0  0  0  3  0  0  0  0  0  0
  190.1970  176.1410  138.4530 O   0  0  0  0  0  0  0  0  0  0  0  0
  191.2690  176.1110  137.5600 C   0  0  0  0  0  2  0  0  0  0  0  0
  192.0960  174.8620  137.7930 C   0  0  0  0  0  2  0  0  0  0  0  0
  193.1750  174.7910  136.8240 N   0  0  0  0  0  2  0  0  0  0  0  0
  194.3390  175.3750  137.4630 C   0  0  0  0  0  2  0  0  0  0  0  0
  195.5260  174.4240  137.3580 C   0  0  1  0  0  3  0  0  0  0  0  0
  196.3990  174.4050  138.6180 C   0  0  2  0  0  3  0  0  0  0  0  0
  195.3950  173.2970  138.3630 C   0  0  0  0  0  2  0  0  0  0  0  0
  196.9070  175.2530  140.5960 C   0  0  0  0  0  1  0  0  0  0  0  0
  195.9100  175.2490  139.6200 O   0  0  0  0  0  0  0  0  0  0  0  0
  1  6  2  0  0  0  0
  2 11  1  0  0  0  0
  2 12  1  1  0  0  0
  3 15  1  6  0  0  0
  3 13  1  0  0  0  0
  3 10  1  0  0  0  0
  4  8  2  0  0  0  0
  5  1  1  0  0  0  0
  7  9  2  0  0  0  0
  7  4  1  0  0  0  0
  8  1  1  0  0  0  0
  9  5  1  0  0  0  0
 11 10  1  6  0  0  0
 11  7  1  0  0  0  0
 12 14  1  0  0  0  0
 13 34  1  6  0  0  0
 13  2  1  0  0  0  0
 14  4  1  0  0  0  0
 15 17  1  0  0  0  0
 16 15  1  0  0  0  0
 18 19  1  1  0  0  0
 18 20  1  0  0  0  0
 18 17  1  0  0  0  0
 21 24  1  0  0  0  0
 21 20  2  0  0  0  0
 22 25  1  0  0  0  0
 23 28  1  1  0  0  0
 23 21  1  0  0  0  0
 25 27  1  6  0  0  0
 25 24  1  0  0  0  0
 26 22  1  0  0  0  0
 26 23  1  0  0  0  0
 28 32  1  0  0  0  0
 30 29  1  0  0  0  0
 30 32  1  0  0  0  0
 31 33  1  0  0  0  0
 31 29  1  0  0  0  0
 33 28  2  0  0  0  0
 35 36  1  0  0  0  0
 35 34  1  0  0  0  0
 37 38  1  0  0  0  0
 37 36  1  0  0  0  0
 39 38  1  1  0  0  0
 39 41  1  0  0  0  0
 39 40  1  0  0  0  0
 40 43  1  1  0  0  0
 41 40  1  0  0  0  0
 43 42  1  0  0  0  0
M  END
>  <MODEL>
8

>  <REMARK>
 VINA RESULT:      -6.5      2.709      8.893
  Name = 
  12 active torsions:
  status: ('A' for Active; 'I' for Inactive)
    1  A    between atoms: C_1  and  C_35
    2  A    between atoms: C_1  and  O_38
    3  A    between atoms: N_2  and  C_6
    4  A    between atoms: N_2  and  C_13
    5  A    between atoms: C_3  and  C_12
    6  A    between atoms: C_6  and  C_12
    7  A    between atoms: C_9  and  C_19
    8  A    between atoms: C_9  and  N_32
    9  A    between atoms: C_11  and  C_14
   10  A    between atoms: C_25  and  O_39
   11  A    between atoms: N_32  and  C_35
   12  A    between atoms: C_34  and  O_38
                            x       y       z     vdW  Elec       q    Type
                         _______ _______ _______ _____ _____    ______ ____

>  <TORSDO>
F 12

$$$$
=
 OpenBabel10262422393D

 43 48  0  0  1  0  0  0  0  0999 V2000
  190.9470  176.9500  145.0580 C   0  0  0  0  0  0  0  0  0  0  0  0
  186.0560  178.5050  144.9100 C   0  0  2  0  0  3  0  0  0  0  0  0
  185.2370  177.8230  142.7890 C   0  0  1  0  0  3  0  0  0  0  0  0
  188.6400  177.3350  145.5570 C   0  0  0  0  0  0  0  0  0  0  0  0
  190.9100  177.7760  143.8050 C   0  0  0  0  0  2  0  0  0  0  0  0
  192.0170  176.3820  145.3960 O   0  0  0  0  0  0  0  0  0  0  0  0
  188.4720  178.0430  144.2630 C   0  0  0  0  0  0  0  0  0  0  0  0
  189.7920  176.8420  145.8990 N   0  0  0  0  0  0  0  0  0  0  0  0
  189.5180  178.2190  143.4530 C   0  0  0  0  0  3  0  0  0  0  0  0
  186.6500  177.7770  142.7230 O   0  0  0  0  0  0  0  0  0  0  0  0
  187.1160  178.5220  143.8180 C   0  0  1  0  0  3  0  0  0  0  0  0
  186.1660  177.2560  145.7830 C   0  0  0  0  0  2  0  0  0  0  0  0
  184.7880  178.4360  144.1160 C   0  0  2  0  0  3  0  0  0  0  0  0
  187.4980  177.2470  146.5200 C   0  0  0  0  0  2  0  0  0  0  0  0
  184.6070  178.4680  141.6240 N   0  0  0  0  0  0  0  0  0  0  0  0
  183.7260  177.4800  141.0290 C   0  0  0  0  0  1  0  0  0  0  0  0
  185.5850  178.8410  140.6000 C   0  0  0  0  0  2  0  0  0  0  0  0
  184.9260  179.0090  139.2330 C   0  0  1  0  0  3  0  0  0  0  0  0
  184.5230  180.3310  139.0450 O   0  0  0  0  0  1  0  0  0  0  0  0
  185.8300  178.5880  138.1110 C   0  0  0  0  0  3  0  0  0  0  0  0
  185.6230  177.5080  137.3460 C   0  0  0  0  0  0  0  0  0  0  0  0
  185.4500  175.0110  135.8720 C   0  0  0  0  0  2  0  0  0  0  0  0
  184.3970  176.6400  137.5120 C   0  0  2  0  0  3  0  0  0  0  0  0
  186.5430  177.2780  136.1800 C   0  0  0  0  0  2  0  0  0  0  0  0
  186.7640  175.7920  135.8900 C   0  0  1  0  0  3  0  0  0  0  0  0
  184.6850  175.1720  137.1870 C   0  0  0  0  0  2  0  0  0  0  0  0
  187.7590  175.1820  136.8600 C   0  0  0  0  0  1  0  0  0  0  0  0
  183.2110  177.1700  136.7560 C   0  0  0  0  0  0  0  0  0  0  0  0
  181.3340  178.6860  135.2150 C   0  0  0  0  0  2  0  0  0  0  0  0
  181.6970  177.2940  134.7200 C   0  0  0  0  0  2  0  0  0  0  0  0
  181.1880  178.6420  136.7300 C   0  0  0  0  0  2  0  0  0  0  0  0
  183.0610  176.8850  135.2750 C   0  0  0  0  0  2  0  0  0  0  0  0
  182.4030  178.0390  137.3850 C   0  0  0  0  0  3  0  0  0  0  0  0
  184.2870  179.7310  143.9390 O   0  0  0  0  0  0  0  0  0  0  0  0
  183.0190  179.7080  144.5230 C   0  0  0  0  0  2  0  0  0  0  0  0
  181.9730  179.4130  143.4650 C   0  0  0  0  0  2  0  0  0  0  0  0
  181.0410  178.4120  143.9520 N   0  0  0  0  0  2  0  0  0  0  0  0
  180.0770  178.1990  142.8900 C   0  0  0  0  0  2  0  0  0  0  0  0
  180.5460  178.8810  141.6110 C   0  0  1  0  0  3  0  0  0  0  0  0
  180.2740  178.0550  140.3490 C   0  0  2  0  0  3  0  0  0  0  0  0
  179.3660  179.2120  140.7200 C   0  0  0  0  0  2  0  0  0  0  0  0
  179.7030  176.1200  139.4430 C   0  0  0  0  0  1  0  0  0  0  0  0
  179.6230  176.8490  140.6290 O   0  0  0  0  0  0  0  0  0  0  0  0
  1  6  2  0  0  0  0
  1  8  1  0  0  0  0
  2 12  1  1  0  0  0
  3 15  1  6  0  0  0
  3 13  1  0  0  0  0
  4  8  2  0  0  0  0
  4 14  1  0  0  0  0
  5  1  1  0  0  0  0
  7  4  1  0  0  0  0
  9  5  1  0  0  0  0
  9  7  2  0  0  0  0
 10  3  1  0  0  0  0
 11 10  1  6  0  0  0
 11  7  1  0  0  0  0
 11  2  1  0  0  0  0
 12 14  1  0  0  0  0
 13 34  1  6  0  0  0
 13  2  1  0  0  0  0
 16 15  1  0  0  0  0
 17 15  1  0  0  0  0
 18 19  1  6  0  0  0
 18 17  1  0  0  0  0
 20 18  1  0  0  0  0
 21 23  1  0  0  0  0
 21 20  2  0  0  0  0
 22 25  1  0  0  0  0
 22 26  1  0  0  0  0
 23 28  1  6  0  0  0
 24 21  1  0  0  0  0
 25 24  1  0  0  0  0
 25 27  1  1  0  0  0
 26 23  1  0  0  0  0
 28 33  2  0  0  0  0
 29 31  1  0  0  0  0
 30 29  1  0  0  0  0
 30 32  1  0  0  0  0
 31 33  1  0  0  0  0
 32 28  1  0  0  0  0
 34 35  1  0  0  0  0
 36 37  1  0  0  0  0
 36 35  1  0  0  0  0
 38 37  1  0  0  0  0
 39 38  1  1  0  0  0
 40 43  1  1  0  0  0
 40 41  1  0  0  0  0
 40 39  1  0  0  0  0
 41 39  1  0  0  0  0
 42 43  1  0  0  0  0
M  END
>  <MODEL>
9

>  <REMARK>
 VINA RESULT:      -6.4      3.198      8.490
  Name = 
  12 active torsions:
  status: ('A' for Active; 'I' for Inactive)
    1  A    between atoms: C_1  and  C_35
    2  A    between atoms: C_1  and  O_38
    3  A    between atoms: N_2  and  C_6
    4  A    between atoms: N_2  and  C_13
    5  A    between atoms: C_3  and  C_12
    6  A    between atoms: C_6  and  C_12
    7  A    between atoms: C_9  and  C_19
    8  A    between atoms: C_9  and  N_32
    9  A    between atoms: C_11  and  C_14
   10  A    between atoms: C_25  and  O_39
   11  A    between atoms: N_32  and  C_35
   12  A    between atoms: C_34  and  O_38
                            x       y       z     vdW  Elec       q    Type
                         _______ _______ _______ _____ _____    ______ ____

>  <TORSDO>
F 12

$$$$
