=
 OpenBabel10262422513D

 37 40  0  0  1  0  0  0  0  0999 V2000
  189.4800  177.6390  142.2290 C   0  0  1  0  0  0  0  0  0  0  0  0
  190.9810  176.8150  139.2100 S   0  0  0  0  0  0  0  0  0  0  0  0
  187.6160  178.6620  138.0520 C   0  0  0  0  0  3  0  0  0  0  0  0
  189.5220  178.4490  143.5550 C   0  0  1  0  0  3  0  0  0  0  0  0
  184.8510  177.9080  142.7830 C   0  0  0  0  0  2  0  0  0  0  0  0
  188.7910  175.8200  138.0830 C   0  0  0  0  0  3  0  0  0  0  0  0
  186.7690  179.3470  142.8130 O   0  0  0  0  0  1  0  0  0  0  0  0
  186.6450  177.9740  145.2770 O   0  0  0  0  0  1  0  0  0  0  0  0
  188.8980  178.3070  138.1360 C   0  0  0  0  0  3  0  0  0  0  0  0
  184.0660  178.1640  140.4150 C   0  0  0  0  0  2  0  0  0  0  0  0
  187.5040  175.6920  137.3710 C   0  0  0  0  0  3  0  0  0  0  0  0
  189.0200  177.6720  144.7820 C   0  0  2  0  0  3  0  0  0  0  0  0
  190.8220  176.9330  141.9720 C   0  0  0  0  0  2  0  0  0  0  0  0
  191.5830  178.1790  139.4090 O   0  0  0  0  0  0  0  0  0  0  0  0
  185.1660  178.4730  138.2120 C   0  0  0  0  0  2  0  0  0  0  0  0
  186.4890  176.5510  137.4490 C   0  0  0  0  0  3  0  0  0  0  0  0
  190.8300  175.9740  140.7800 C   0  0  0  0  0  2  0  0  0  0  0  0
  187.5690  177.1790  144.5910 C   0  0  2  0  0  3  0  0  0  0  0  0
  186.3270  178.0710  142.4540 C   0  0  1  0  0  3  0  0  0  0  0  0
  186.4850  177.7340  138.3590 C   0  0  1  0  0  3  0  0  0  0  0  0
  188.3570  176.5810  142.2460 C   0  0  0  0  0  2  0  0  0  0  0  0
  189.3970  176.9550  138.4620 C   0  0  0  0  0  0  0  0  0  0  0  0
  183.9850  178.7220  141.8290 C   0  0  1  0  0  3  0  0  0  0  0  0
  191.8820  176.0190  138.3090 O   0  0  0  0  0  0  0  0  0  0  0  0
  187.1580  176.9610  143.1140 C   0  0  1  0  0  3  0  0  0  0  0  0
  189.1350  178.4380  145.9460 O   0  0  0  0  0  1  0  0  0  0  0  0
  189.2290  178.5390  141.1950 O   0  0  0  0  0  1  0  0  0  0  0  0
  184.7910  179.1490  139.5180 C   0  0  0  0  0  2  0  0  0  0  0  0
  182.2560  178.8270  143.6720 C   0  0  0  0  0  3  0  0  0  0  0  0
  182.5670  178.7650  142.3030 C   0  0  0  0  0  0  0  0  0  0  0  0
  181.5330  178.7390  141.3610 C   0  0  0  0  0  3  0  0  0  0  0  0
  179.2020  178.7540  140.8630 F   0  0  0  0  0  0  0  0  0  0  0  0
  179.8940  178.8400  143.1420 C   0  0  0  0  0  3  0  0  0  0  0  0
  180.1990  178.7780  141.7790 C   0  0  0  0  0  0  0  0  0  0  0  0
  180.9230  178.8650  144.0880 C   0  0  0  0  0  3  0  0  0  0  0  0
  191.9140  178.5030  144.4230 C   0  0  0  0  0  1  0  0  0  0  0  0
  190.7850  179.2940  143.7820 C   0  0  0  0  0  2  0  0  0  0  0  0
  1 27  1  6  0  0  0
  1 21  1  0  0  0  0
  1  4  1  0  0  0  0
  2 14  2  0  0  0  0
  2 17  1  0  0  0  0
  3  9  2  0  0  0  0
  3 20  1  0  0  0  0
  4 37  1  1  0  0  0
  4 12  1  0  0  0  0
  6 22  2  0  0  0  0
  9 22  1  0  0  0  0
 10 23  1  0  0  0  0
 11 16  2  0  0  0  0
 11  6  1  0  0  0  0
 12 26  1  1  0  0  0
 13  1  1  0  0  0  0
 15 20  1  0  0  0  0
 15 28  1  0  0  0  0
 17 13  1  0  0  0  0
 18 12  1  0  0  0  0
 18  8  1  6  0  0  0
 19  5  1  0  0  0  0
 19  7  1  1  0  0  0
 19 25  1  0  0  0  0
 20 16  1  6  0  0  0
 22  2  1  0  0  0  0
 23 30  1  1  0  0  0
 23  5  1  0  0  0  0
 24  2  2  0  0  0  0
 25 21  1  6  0  0  0
 25 18  1  0  0  0  0
 28 10  1  0  0  0  0
 29 35  1  0  0  0  0
 30 29  2  0  0  0  0
 31 34  2  0  0  0  0
 31 30  1  0  0  0  0
 32 34  1  0  0  0  0
 33 35  2  0  0  0  0
 34 33  1  0  0  0  0
 37 36  1  0  0  0  0
M  END
>  <MODEL>
1

>  <REMARK>
 VINA RESULT:      -6.9      0.000      0.000
  Name = 
  2 active torsions:
  status: ('A' for Active; 'I' for Inactive)
    1  A    between atoms: C_5  and  C_23
    2  A    between atoms: C_6  and  C_31
                            x       y       z     vdW  Elec       q    Type
                         _______ _______ _______ _____ _____    ______ ____

>  <TORSDO>
F 2

$$$$
=
 OpenBabel10262422513D

 37 40  0  0  1  0  0  0  0  0999 V2000
  181.7860  175.8890  137.7490 C   0  0  1  0  0  0  0  0  0  0  0  0
  180.9880  178.3650  140.0470 S   0  0  0  0  0  0  0  0  0  0  0  0
  184.6710  179.4120  138.8590 C   0  0  0  0  0  3  0  0  0  0  0  0
  181.4950  175.1970  136.3890 C   0  0  1  0  0  3  0  0  0  0  0  0
  186.1550  174.4160  137.0050 C   0  0  0  0  0  2  0  0  0  0  0  0
  183.2950  178.2680  141.3600 C   0  0  0  0  0  3  0  0  0  0  0  0
  184.4090  175.5800  135.8430 O   0  0  0  0  0  1  0  0  0  0  0  0
  183.8280  172.8170  135.7920 O   0  0  0  0  0  1  0  0  0  0  0  0
  183.3820  179.4840  139.1880 C   0  0  0  0  0  3  0  0  0  0  0  0
  187.5010  176.3210  137.9280 C   0  0  0  0  0  2  0  0  0  0  0  0
  184.7000  178.4790  141.7610 C   0  0  0  0  0  3  0  0  0  0  0  0
  181.6240  173.6660  136.4210 C   0  0  2  0  0  3  0  0  0  0  0  0
  180.4910  176.0850  138.5560 C   0  0  0  0  0  2  0  0  0  0  0  0
  180.4690  179.0250  138.7990 O   0  0  0  0  0  0  0  0  0  0  0  0
  186.9880  178.5800  138.8180 C   0  0  0  0  0  2  0  0  0  0  0  0
  185.7340  178.5890  140.9270 C   0  0  0  0  0  3  0  0  0  0  0  0
  180.6900  176.6040  139.9820 C   0  0  0  0  0  2  0  0  0  0  0  0
  183.0340  173.2220  136.8690 C   0  0  2  0  0  3  0  0  0  0  0  0
  184.8190  175.1360  137.1030 C   0  0  1  0  0  3  0  0  0  0  0  0
  185.6170  178.4170  139.4500 C   0  0  1  0  0  3  0  0  0  0  0  0
  182.7820  175.0730  138.5980 C   0  0  0  0  0  2  0  0  0  0  0  0
  182.7110  178.6650  140.2200 C   0  0  0  0  0  0  0  0  0  0  0  0
  187.2870  175.4010  136.7340 C   0  0  1  0  0  3  0  0  0  0  0  0
  180.2670  178.9430  141.2310 O   0  0  0  0  0  0  0  0  0  0  0  0
  183.7660  174.2430  137.7750 C   0  0  1  0  0  3  0  0  0  0  0  0
  181.2970  173.1060  135.1830 O   0  0  0  0  0  1  0  0  0  0  0  0
  182.3490  177.1350  137.4760 O   0  0  0  0  0  1  0  0  0  0  0  0
  187.0940  177.7360  137.5610 C   0  0  0  0  0  2  0  0  0  0  0  0
  188.6510  173.9040  135.2200 C   0  0  0  0  0  3  0  0  0  0  0  0
  188.5490  174.6760  136.3880 C   0  0  0  0  0  0  0  0  0  0  0  0
  189.6460  174.7710  137.2510 C   0  0  0  0  0  3  0  0  0  0  0  0
  191.8970  174.1990  137.7890 F   0  0  0  0  0  0  0  0  0  0  0  0
  190.9350  173.3350  135.7860 C   0  0  0  0  0  3  0  0  0  0  0  0
  190.8370  174.1030  136.9510 C   0  0  0  0  0  0  0  0  0  0  0  0
  189.8420  173.2370  134.9210 C   0  0  0  0  0  3  0  0  0  0  0  0
  180.6740  176.8070  134.5960 C   0  0  0  0  0  1  0  0  0  0  0  0
  180.2870  175.7400  135.6080 C   0  0  0  0  0  2  0  0  0  0  0  0
  1 27  1  6  0  0  0
  1 13  1  0  0  0  0
  1 21  1  0  0  0  0
  2 22  1  0  0  0  0
  2 24  2  0  0  0  0
  3  9  2  0  0  0  0
  3 20  1  0  0  0  0
  4 37  1  1  0  0  0
  4 12  1  0  0  0  0
  4  1  1  0  0  0  0
  5 19  1  0  0  0  0
  6 11  1  0  0  0  0
  9 22  1  0  0  0  0
 12 26  1  6  0  0  0
 12 18  1  0  0  0  0
 13 17  1  0  0  0  0
 14  2  2  0  0  0  0
 16 11  2  0  0  0  0
 17  2  1  0  0  0  0
 18  8  1  6  0  0  0
 18 25  1  0  0  0  0
 19  7  1  6  0  0  0
 19 25  1  0  0  0  0
 20 15  1  6  0  0  0
 20 16  1  0  0  0  0
 22  6  2  0  0  0  0
 23 30  1  1  0  0  0
 23  5  1  0  0  0  0
 23 10  1  0  0  0  0
 25 21  1  6  0  0  0
 28 10  1  0  0  0  0
 28 15  1  0  0  0  0
 29 30  1  0  0  0  0
 30 31  2  0  0  0  0
 33 34  2  0  0  0  0
 34 31  1  0  0  0  0
 34 32  1  0  0  0  0
 35 29  2  0  0  0  0
 35 33  1  0  0  0  0
 36 37  1  0  0  0  0
M  END
>  <MODEL>
2

>  <REMARK>
 VINA RESULT:      -6.1      5.256      9.668
  Name = 
  2 active torsions:
  status: ('A' for Active; 'I' for Inactive)
    1  A    between atoms: C_5  and  C_23
    2  A    between atoms: C_6  and  C_31
                            x       y       z     vdW  Elec       q    Type
                         _______ _______ _______ _____ _____    ______ ____

>  <TORSDO>
F 2

$$$$
=
 OpenBabel10262422513D

 37 40  0  0  1  0  0  0  0  0999 V2000
  187.9120  177.0420  137.0880 C   0  0  1  0  0  0  0  0  0  0  0  0
  184.7420  176.9450  135.6790 S   0  0  0  0  0  0  0  0  0  0  0  0
  184.1260  178.9270  139.1100 C   0  0  0  0  0  3  0  0  0  0  0  0
  189.3830  177.5370  137.0140 C   0  0  1  0  0  3  0  0  0  0  0  0
  188.6500  177.0770  141.7000 C   0  0  0  0  0  2  0  0  0  0  0  0
  183.4870  176.1760  137.8910 C   0  0  0  0  0  3  0  0  0  0  0  0
  188.9430  178.5170  139.8040 O   0  0  0  0  0  1  0  0  0  0  0  0
  191.0410  176.6270  139.8230 O   0  0  0  0  0  1  0  0  0  0  0  0
  184.0900  178.5910  137.8200 C   0  0  0  0  0  3  0  0  0  0  0  0
  186.4230  177.8360  142.5690 C   0  0  0  0  0  2  0  0  0  0  0  0
  182.8030  176.1810  139.1990 C   0  0  0  0  0  3  0  0  0  0  0  0
  190.4200  176.4960  137.4620 C   0  0  2  0  0  3  0  0  0  0  0  0
  187.4640  176.4410  135.7460 C   0  0  0  0  0  2  0  0  0  0  0  0
  185.2220  178.2430  135.0920 O   0  0  0  0  0  0  0  0  0  0  0  0
  184.3130  178.6530  141.5490 C   0  0  0  0  0  2  0  0  0  0  0  0
  183.1010  176.9790  140.2240 C   0  0  0  0  0  3  0  0  0  0  0  0
  186.0870  175.7720  135.7640 C   0  0  0  0  0  2  0  0  0  0  0  0
  190.1670  176.0250  138.9110 C   0  0  2  0  0  3  0  0  0  0  0  0
  188.3220  177.3420  140.2390 C   0  0  1  0  0  3  0  0  0  0  0  0
  184.2510  177.9290  140.2150 C   0  0  1  0  0  3  0  0  0  0  0  0
  187.7260  175.9820  138.1940 C   0  0  0  0  0  2  0  0  0  0  0  0
  184.0910  177.2110  137.2900 C   0  0  0  0  0  0  0  0  0  0  0  0
  187.9270  178.0640  142.6100 C   0  0  1  0  0  3  0  0  0  0  0  0
  183.6590  176.3890  134.7980 O   0  0  0  0  0  0  0  0  0  0  0  0
  188.6920  176.1330  139.3690 C   0  0  1  0  0  3  0  0  0  0  0  0
  191.7220  176.9860  137.3190 O   0  0  0  0  0  1  0  0  0  0  0  0
  187.1120  178.1440  137.3880 O   0  0  0  0  0  1  0  0  0  0  0  0
  185.7470  179.0130  141.8900 C   0  0  0  0  0  2  0  0  0  0  0  0
  189.8190  177.9930  144.2870 C   0  0  0  0  0  3  0  0  0  0  0  0
  188.4420  177.9680  144.0110 C   0  0  0  0  0  0  0  0  0  0  0  0
  187.5290  177.8490  145.0640 C   0  0  0  0  0  3  0  0  0  0  0  0
  187.0950  177.6430  147.4000 F   0  0  0  0  0  0  0  0  0  0  0  0
  189.3560  177.7830  146.6540 C   0  0  0  0  0  3  0  0  0  0  0  0
  187.9840  177.7580  146.3840 C   0  0  0  0  0  0  0  0  0  0  0  0
  190.2720  177.9010  145.6060 C   0  0  0  0  0  3  0  0  0  0  0  0
  190.1680  177.4500  134.5940 C   0  0  0  0  0  1  0  0  0  0  0  0
  189.7550  178.3390  135.7570 C   0  0  0  0  0  2  0  0  0  0  0  0
  1 27  1  1  0  0  0
  1 21  1  0  0  0  0
  2 17  1  0  0  0  0
  2 22  1  0  0  0  0
  4 37  1  6  0  0  0
  4  1  1  0  0  0  0
  4 12  1  0  0  0  0
  5 23  1  0  0  0  0
  6 11  1  0  0  0  0
  9  3  2  0  0  0  0
 10 23  1  0  0  0  0
 11 16  2  0  0  0  0
 12 26  1  1  0  0  0
 12 18  1  0  0  0  0
 13 17  1  0  0  0  0
 13  1  1  0  0  0  0
 14  2  2  0  0  0  0
 15 28  1  0  0  0  0
 18 25  1  0  0  0  0
 18  8  1  1  0  0  0
 19  7  1  6  0  0  0
 19  5  1  0  0  0  0
 20  3  1  6  0  0  0
 20 16  1  0  0  0  0
 20 15  1  0  0  0  0
 22  9  1  0  0  0  0
 22  6  2  0  0  0  0
 23 30  1  1  0  0  0
 24  2  2  0  0  0  0
 25 21  1  6  0  0  0
 25 19  1  0  0  0  0
 28 10  1  0  0  0  0
 29 35  1  0  0  0  0
 30 29  2  0  0  0  0
 30 31  1  0  0  0  0
 31 34  2  0  0  0  0
 34 33  1  0  0  0  0
 34 32  1  0  0  0  0
 35 33  2  0  0  0  0
 36 37  1  0  0  0  0
M  END
>  <MODEL>
3

>  <REMARK>
 VINA RESULT:      -6.0      3.274      6.527
  Name = 
  2 active torsions:
  status: ('A' for Active; 'I' for Inactive)
    1  A    between atoms: C_5  and  C_23
    2  A    between atoms: C_6  and  C_31
                            x       y       z     vdW  Elec       q    Type
                         _______ _______ _______ _____ _____    ______ ____

>  <TORSDO>
F 2

$$$$
=
 OpenBabel10262422513D

 37 40  0  0  1  0  0  0  0  0999 V2000
  187.0910  176.7690  136.5760 C   0  0  1  0  0  0  0  0  0  0  0  0
  183.6710  176.7050  135.9850 S   0  0  0  0  0  0  0  0  0  0  0  0
  183.9560  178.9450  139.2980 C   0  0  0  0  0  3  0  0  0  0  0  0
  188.5100  177.1970  136.1110 C   0  0  1  0  0  3  0  0  0  0  0  0
  188.9300  177.0960  140.8570 C   0  0  0  0  0  2  0  0  0  0  0  0
  182.9750  176.1450  138.4870 C   0  0  0  0  0  3  0  0  0  0  0  0
  188.7860  178.3860  138.8400 O   0  0  0  0  0  1  0  0  0  0  0  0
  190.7810  176.4170  138.5000 O   0  0  0  0  0  1  0  0  0  0  0  0
  183.5990  178.5220  138.0850 C   0  0  0  0  0  3  0  0  0  0  0  0
  187.0000  178.0050  142.1760 C   0  0  0  0  0  2  0  0  0  0  0  0
  182.6310  176.2700  139.9170 C   0  0  0  0  0  3  0  0  0  0  0  0
  189.6010  176.1470  136.3760 C   0  0  2  0  0  3  0  0  0  0  0  0
  186.3150  176.0950  135.4320 C   0  0  0  0  0  2  0  0  0  0  0  0
  184.0240  177.9380  135.2000 O   0  0  0  0  0  0  0  0  0  0  0  0
  184.7240  178.8340  141.6340 C   0  0  0  0  0  2  0  0  0  0  0  0
  183.1880  177.1240  140.7750 C   0  0  0  0  0  3  0  0  0  0  0  0
  184.9700  175.4860  135.8340 C   0  0  0  0  0  2  0  0  0  0  0  0
  189.6980  175.7900  137.8750 C   0  0  2  0  0  3  0  0  0  0  0  0
  188.2620  177.2710  139.5020 C   0  0  1  0  0  3  0  0  0  0  0  0
  184.3230  178.0220  140.4150 C   0  0  1  0  0  3  0  0  0  0  0  0
  187.1550  175.7980  137.7730 C   0  0  0  0  0  2  0  0  0  0  0  0
  183.4390  177.1100  137.6800 C   0  0  0  0  0  0  0  0  0  0  0  0
  188.4740  178.1720  141.8350 C   0  0  1  0  0  3  0  0  0  0  0  0
  182.3940  176.1340  135.4370 O   0  0  0  0  0  0  0  0  0  0  0  0
  188.3810  175.9900  138.6650 C   0  0  1  0  0  3  0  0  0  0  0  0
  190.8400  176.5720  135.8850 O   0  0  0  0  0  1  0  0  0  0  0  0
  186.4140  177.9210  136.9740 O   0  0  0  0  0  1  0  0  0  0  0  0
  186.2070  179.1580  141.5900 C   0  0  0  0  0  2  0  0  0  0  0  0
  190.6410  178.6060  143.0640 C   0  0  0  0  0  3  0  0  0  0  0  0
  189.3120  178.1530  143.0740 C   0  0  0  0  0  0  0  0  0  0  0  0
  188.7560  177.6720  144.2640 C   0  0  0  0  0  3  0  0  0  0  0  0
  188.9740  177.1770  146.5850 F   0  0  0  0  0  0  0  0  0  0  0  0
  190.8410  178.0950  145.4220 C   0  0  0  0  0  3  0  0  0  0  0  0
  189.5180  177.6430  145.4360 C   0  0  0  0  0  0  0  0  0  0  0  0
  191.4020  178.5760  144.2350 C   0  0  0  0  0  3  0  0  0  0  0  0
  187.5560  179.0050  134.5940 C   0  0  0  0  0  1  0  0  0  0  0  0
  188.5840  177.8930  134.7430 C   0  0  0  0  0  2  0  0  0  0  0  0
  1 27  1  1  0  0  0
  1 21  1  0  0  0  0
  2 22  1  0  0  0  0
  4 37  1  6  0  0  0
  4 12  1  0  0  0  0
  4  1  1  0  0  0  0
  5 23  1  0  0  0  0
  6 11  1  0  0  0  0
  9  3  2  0  0  0  0
 11 16  2  0  0  0  0
 12 26  1  1  0  0  0
 12 18  1  0  0  0  0
 13 17  1  0  0  0  0
 13  1  1  0  0  0  0
 14  2  2  0  0  0  0
 17  2  1  0  0  0  0
 18  8  1  1  0  0  0
 18 25  1  0  0  0  0
 19  7  1  6  0  0  0
 19  5  1  0  0  0  0
 20  3  1  6  0  0  0
 20 16  1  0  0  0  0
 20 15  1  0  0  0  0
 22  9  1  0  0  0  0
 22  6  2  0  0  0  0
 23 10  1  0  0  0  0
 23 30  1  1  0  0  0
 24  2  2  0  0  0  0
 25 21  1  6  0  0  0
 25 19  1  0  0  0  0
 28 15  1  0  0  0  0
 28 10  1  0  0  0  0
 29 30  2  0  0  0  0
 29 35  1  0  0  0  0
 30 31  1  0  0  0  0
 31 34  2  0  0  0  0
 33 34  1  0  0  0  0
 34 32  1  0  0  0  0
 35 33  2  0  0  0  0
 36 37  1  0  0  0  0
M  END
>  <MODEL>
4

>  <REMARK>
 VINA RESULT:      -5.7      3.556      7.271
  Name = 
  2 active torsions:
  status: ('A' for Active; 'I' for Inactive)
    1  A    between atoms: C_5  and  C_23
    2  A    between atoms: C_6  and  C_31
                            x       y       z     vdW  Elec       q    Type
                         _______ _______ _______ _____ _____    ______ ____

>  <TORSDO>
F 2

$$$$
=
 OpenBabel10262422513D

 37 40  0  0  1  0  0  0  0  0999 V2000
  190.4980  176.8940  139.5680 C   0  0  1  0  0  0  0  0  0  0  0  0
  189.9230  176.2490  136.2070 S   0  0  0  0  0  0  0  0  0  0  0  0
  186.8060  178.5620  137.2110 C   0  0  0  0  0  3  0  0  0  0  0  0
  191.3910  177.5450  140.6610 C   0  0  1  0  0  3  0  0  0  0  0  0
  187.0620  177.5970  142.6520 C   0  0  0  0  0  2  0  0  0  0  0  0
  187.3560  175.6230  136.4880 C   0  0  0  0  0  3  0  0  0  0  0  0
  188.8630  178.8100  141.6340 O   0  0  0  0  0  1  0  0  0  0  0  0
  189.9250  177.1970  143.6940 O   0  0  0  0  0  1  0  0  0  0  0  0
  187.8470  178.0640  136.5440 C   0  0  0  0  0  3  0  0  0  0  0  0
  185.1420  178.1940  141.1520 C   0  0  0  0  0  2  0  0  0  0  0  0
  185.8890  175.7140  136.6250 C   0  0  0  0  0  3  0  0  0  0  0  0
  191.5450  176.6970  141.9340 C   0  0  2  0  0  3  0  0  0  0  0  0
  191.3460  176.0800  138.5770 C   0  0  0  0  0  2  0  0  0  0  0  0
  190.7310  177.5100  136.0710 O   0  0  0  0  0  0  0  0  0  0  0  0
  184.8640  178.6210  138.7230 C   0  0  0  0  0  2  0  0  0  0  0  0
  185.2320  176.6630  137.2890 C   0  0  0  0  0  3  0  0  0  0  0  0
  190.5460  175.2620  137.5610 C   0  0  0  0  0  2  0  0  0  0  0  0
  190.1790  176.3870  142.5820 C   0  0  2  0  0  3  0  0  0  0  0  0
  188.1100  177.6350  141.5510 C   0  0  1  0  0  3  0  0  0  0  0  0
  185.9120  177.7330  138.0760 C   0  0  1  0  0  3  0  0  0  0  0  0
  189.4310  175.9680  140.1870 C   0  0  0  0  0  2  0  0  0  0  0  0
  188.2330  176.6380  136.4910 C   0  0  0  0  0  0  0  0  0  0  0  0
  185.9460  178.6000  142.3790 C   0  0  1  0  0  3  0  0  0  0  0  0
  190.0380  175.4630  134.9310 O   0  0  0  0  0  0  0  0  0  0  0  0
  188.9890  176.3780  141.5910 C   0  0  1  0  0  3  0  0  0  0  0  0
  192.4020  177.3150  142.8500 O   0  0  0  0  0  1  0  0  0  0  0  0
  189.8530  177.9230  138.8840 O   0  0  0  0  0  1  0  0  0  0  0  0
  185.3840  179.1870  140.0310 C   0  0  0  0  0  2  0  0  0  0  0  0
  183.6830  178.9990  143.4350 C   0  0  0  0  0  3  0  0  0  0  0  0
  185.0570  178.7420  143.5730 C   0  0  0  0  0  0  0  0  0  0  0  0
  185.6110  178.6180  144.8520 C   0  0  0  0  0  3  0  0  0  0  0  0
  185.3430  178.6260  147.2210 F   0  0  0  0  0  0  0  0  0  0  0  0
  183.4340  179.0030  145.8430 C   0  0  0  0  0  3  0  0  0  0  0  0
  184.8020  178.7480  145.9850 C   0  0  0  0  0  0  0  0  0  0  0  0
  182.8760  179.1280  144.5680 C   0  0  0  0  0  3  0  0  0  0  0  0
  193.8170  177.2340  139.9560 C   0  0  0  0  0  1  0  0  0  0  0  0
  192.6770  178.2200  140.1590 C   0  0  0  0  0  2  0  0  0  0  0  0
  1 27  1  6  0  0  0
  1 21  1  0  0  0  0
  1  4  1  0  0  0  0
  2 22  1  0  0  0  0
  2 17  1  0  0  0  0
  4 37  1  6  0  0  0
  4 12  1  0  0  0  0
  6 22  2  0  0  0  0
  6 11  1  0  0  0  0
  9  3  2  0  0  0  0
 10 23  1  0  0  0  0
 11 16  2  0  0  0  0
 12 18  1  0  0  0  0
 12 26  1  1  0  0  0
 13  1  1  0  0  0  0
 14  2  2  0  0  0  0
 15 28  1  0  0  0  0
 16 20  1  0  0  0  0
 17 13  1  0  0  0  0
 18  8  1  1  0  0  0
 19 25  1  0  0  0  0
 19  7  1  1  0  0  0
 19  5  1  0  0  0  0
 20  3  1  6  0  0  0
 20 15  1  0  0  0  0
 22  9  1  0  0  0  0
 23  5  1  0  0  0  0
 23 30  1  1  0  0  0
 24  2  2  0  0  0  0
 25 21  1  6  0  0  0
 25 18  1  0  0  0  0
 28 10  1  0  0  0  0
 29 30  2  0  0  0  0
 29 35  1  0  0  0  0
 30 31  1  0  0  0  0
 31 34  2  0  0  0  0
 33 34  1  0  0  0  0
 34 32  1  0  0  0  0
 35 33  2  0  0  0  0
 36 37  1  0  0  0  0
M  END
>  <MODEL>
5

>  <REMARK>
 VINA RESULT:      -5.7      2.520      3.401
  Name = 
  2 active torsions:
  status: ('A' for Active; 'I' for Inactive)
    1  A    between atoms: C_5  and  C_23
    2  A    between atoms: C_6  and  C_31
                            x       y       z     vdW  Elec       q    Type
                         _______ _______ _______ _____ _____    ______ ____

>  <TORSDO>
F 2

$$$$
=
 OpenBabel10262422513D

 37 40  0  0  1  0  0  0  0  0999 V2000
  182.3410  174.0220  136.8690 C   0  0  1  0  0  0  0  0  0  0  0  0
  180.2170  176.2380  138.4890 S   0  0  0  0  0  0  0  0  0  0  0  0
  183.4260  178.5070  137.6930 C   0  0  0  0  0  3  0  0  0  0  0  0
  182.6240  173.1120  135.6420 C   0  0  1  0  0  3  0  0  0  0  0  0
  186.9960  174.3240  137.1000 C   0  0  0  0  0  2  0  0  0  0  0  0
  182.0580  177.2240  140.1320 C   0  0  0  0  0  3  0  0  0  0  0  0
  185.2410  174.5490  135.4810 O   0  0  0  0  0  1  0  0  0  0  0  0
  185.7360  171.7980  135.8840 O   0  0  0  0  0  1  0  0  0  0  0  0
  182.1610  178.1010  137.8030 C   0  0  0  0  0  3  0  0  0  0  0  0
  187.3190  176.7030  137.8260 C   0  0  0  0  0  2  0  0  0  0  0  0
  183.1660  178.0220  140.6920 C   0  0  0  0  0  3  0  0  0  0  0  0
  183.2940  171.7740  135.9920 C   0  0  2  0  0  3  0  0  0  0  0  0
  180.9230  173.7850  137.4150 C   0  0  0  0  0  2  0  0  0  0  0  0
  179.7760  176.4810  137.0720 O   0  0  0  0  0  0  0  0  0  0  0  0
  185.8360  178.6630  138.1690 C   0  0  0  0  0  2  0  0  0  0  0  0
  184.2420  178.4300  140.0200 C   0  0  0  0  0  3  0  0  0  0  0  0
  180.6060  174.5100  138.7260 C   0  0  0  0  0  2  0  0  0  0  0  0
  184.6360  171.9830  136.7280 C   0  0  2  0  0  3  0  0  0  0  0  0
  185.5010  174.4610  136.8520 C   0  0  1  0  0  3  0  0  0  0  0  0
  184.5180  178.0480  138.6050 C   0  0  1  0  0  3  0  0  0  0  0  0
  183.3580  173.7770  138.0020 C   0  0  0  0  0  2  0  0  0  0  0  0
  181.6300  177.2150  138.8610 C   0  0  0  0  0  0  0  0  0  0  0  0
  187.7190  175.6360  136.8170 C   0  0  1  0  0  3  0  0  0  0  0  0
  179.0980  176.6220  139.4150 O   0  0  0  0  0  0  0  0  0  0  0  0
  184.7300  173.3120  137.5170 C   0  0  1  0  0  3  0  0  0  0  0  0
  183.4700  170.9840  134.8520 O   0  0  0  0  0  1  0  0  0  0  0  0
  182.4540  175.3460  136.4460 O   0  0  0  0  0  1  0  0  0  0  0  0
  186.5130  177.7840  137.1330 C   0  0  0  0  0  2  0  0  0  0  0  0
  189.8180  174.5550  135.9110 C   0  0  0  0  0  3  0  0  0  0  0  0
  189.2010  175.4340  136.8160 C   0  0  0  0  0  0  0  0  0  0  0  0
  189.9840  176.1370  137.7380 C   0  0  0  0  0  3  0  0  0  0  0  0
  192.1250  176.6500  138.6520 F   0  0  0  0  0  0  0  0  0  0  0  0
  191.9820  175.0900  136.8540 C   0  0  0  0  0  3  0  0  0  0  0  0
  191.3720  175.9660  137.7570 C   0  0  0  0  0  0  0  0  0  0  0  0
  191.2050  174.3850  135.9310 C   0  0  0  0  0  3  0  0  0  0  0  0
  180.6810  171.7560  134.7100 C   0  0  0  0  0  1  0  0  0  0  0  0
  181.5010  173.0320  134.5960 C   0  0  0  0  0  2  0  0  0  0  0  0
  1 27  1  6  0  0  0
  1 13  1  0  0  0  0
  1 21  1  0  0  0  0
  2 17  1  0  0  0  0
  2 22  1  0  0  0  0
  2 24  2  0  0  0  0
  3  9  2  0  0  0  0
  4 37  1  1  0  0  0
  4 12  1  0  0  0  0
  4  1  1  0  0  0  0
  6 11  1  0  0  0  0
  9 22  1  0  0  0  0
 12 26  1  6  0  0  0
 12 18  1  0  0  0  0
 13 17  1  0  0  0  0
 14  2  2  0  0  0  0
 15 20  1  0  0  0  0
 16 11  2  0  0  0  0
 18  8  1  6  0  0  0
 18 25  1  0  0  0  0
 19  7  1  6  0  0  0
 19  5  1  0  0  0  0
 19 25  1  0  0  0  0
 20  3  1  6  0  0  0
 20 16  1  0  0  0  0
 22  6  2  0  0  0  0
 23 30  1  1  0  0  0
 23  5  1  0  0  0  0
 23 10  1  0  0  0  0
 25 21  1  6  0  0  0
 28 10  1  0  0  0  0
 28 15  1  0  0  0  0
 29 35  2  0  0  0  0
 29 30  1  0  0  0  0
 30 31  2  0  0  0  0
 31 34  1  0  0  0  0
 33 34  2  0  0  0  0
 34 32  1  0  0  0  0
 35 33  1  0  0  0  0
 37 36  1  0  0  0  0
M  END
>  <MODEL>
6

>  <REMARK>
 VINA RESULT:      -5.4      5.679      9.931
  Name = 
  2 active torsions:
  status: ('A' for Active; 'I' for Inactive)
    1  A    between atoms: C_5  and  C_23
    2  A    between atoms: C_6  and  C_31
                            x       y       z     vdW  Elec       q    Type
                         _______ _______ _______ _____ _____    ______ ____

>  <TORSDO>
F 2

$$$$
=
 OpenBabel10262422513D

 37 40  0  0  1  0  0  0  0  0999 V2000
  185.3560  173.9410  136.1320 C   0  0  1  0  0  0  0  0  0  0  0  0
  188.8020  174.0850  135.7440 S   0  0  0  0  0  0  0  0  0  0  0  0
  188.1350  176.6920  138.7170 C   0  0  0  0  0  3  0  0  0  0  0  0
  184.0970  173.1140  136.5130 C   0  0  1  0  0  3  0  0  0  0  0  0
  182.7990  177.5780  137.5610 C   0  0  0  0  0  2  0  0  0  0  0  0
  188.9640  176.7370  135.7550 C   0  0  0  0  0  3  0  0  0  0  0  0
  183.4410  175.3990  138.3280 O   0  0  0  0  0  1  0  0  0  0  0  0
  181.3570  175.1050  136.4450 O   0  0  0  0  0  1  0  0  0  0  0  0
  188.6660  175.7010  138.0000 C   0  0  0  0  0  3  0  0  0  0  0  0
  184.5330  179.0270  138.6500 C   0  0  0  0  0  2  0  0  0  0  0  0
  189.0490  178.1430  136.1960 C   0  0  0  0  0  3  0  0  0  0  0  0
  182.8770  173.3780  135.6170 C   0  0  2  0  0  3  0  0  0  0  0  0
  186.2580  173.1560  135.1650 C   0  0  0  0  0  2  0  0  0  0  0  0
  188.7250  172.9920  136.7740 O   0  0  0  0  0  0  0  0  0  0  0  0
  186.9400  178.7880  139.2040 C   0  0  0  0  0  2  0  0  0  0  0  0
  188.4300  178.6590  137.2580 C   0  0  0  0  0  3  0  0  0  0  0  0
  187.4390  173.9460  134.5960 C   0  0  0  0  0  2  0  0  0  0  0  0
  182.4690  174.8670  135.6300 C   0  0  2  0  0  3  0  0  0  0  0  0
  183.7200  176.3830  137.3740 C   0  0  1  0  0  3  0  0  0  0  0  0
  187.4770  177.8860  138.1060 C   0  0  1  0  0  3  0  0  0  0  0  0
  184.9750  175.2840  135.4760 C   0  0  0  0  0  2  0  0  0  0  0  0
  188.7560  175.6590  136.5260 C   0  0  0  0  0  0  0  0  0  0  0  0
  183.1710  178.3650  138.8120 C   0  0  1  0  0  3  0  0  0  0  0  0
  190.0950  173.9470  134.9920 O   0  0  0  0  0  0  0  0  0  0  0  0
  183.6310  175.8440  135.9400 C   0  0  1  0  0  3  0  0  0  0  0  0
  181.7990  172.5640  135.9800 O   0  0  0  0  0  1  0  0  0  0  0  0
  186.0590  174.2020  137.3070 O   0  0  0  0  0  1  0  0  0  0  0  0
  185.5320  178.3740  139.5870 C   0  0  0  0  0  2  0  0  0  0  0  0
  181.2220  179.1930  140.1940 C   0  0  0  0  0  3  0  0  0  0  0  0
  182.1210  179.3810  139.1320 C   0  0  0  0  0  0  0  0  0  0  0  0
  182.0360  180.5400  138.3530 C   0  0  0  0  0  3  0  0  0  0  0  0
  180.9860  182.6260  137.8740 F   0  0  0  0  0  0  0  0  0  0  0  0
  180.1700  181.3140  139.6890 C   0  0  0  0  0  3  0  0  0  0  0  0
  181.0630  181.5060  138.6310 C   0  0  0  0  0  0  0  0  0  0  0  0
  180.2500  180.1580  140.4710 C   0  0  0  0  0  3  0  0  0  0  0  0
  184.1130  170.7050  135.6930 C   0  0  0  0  0  1  0  0  0  0  0  0
  184.3470  171.6410  136.8690 C   0  0  0  0  0  2  0  0  0  0  0  0
  1  4  1  0  0  0  0
  1 27  1  1  0  0  0
  2 22  1  0  0  0  0
  2 14  2  0  0  0  0
  4 37  1  6  0  0  0
  5 23  1  0  0  0  0
  6 11  1  0  0  0  0
  6 22  2  0  0  0  0
  9  3  2  0  0  0  0
 10 23  1  0  0  0  0
 10 28  1  0  0  0  0
 11 16  2  0  0  0  0
 12 18  1  0  0  0  0
 12 26  1  1  0  0  0
 12  4  1  0  0  0  0
 13  1  1  0  0  0  0
 15 28  1  0  0  0  0
 17 13  1  0  0  0  0
 17  2  1  0  0  0  0
 18 25  1  0  0  0  0
 18  8  1  1  0  0  0
 19  5  1  0  0  0  0
 19  7  1  1  0  0  0
 20 16  1  1  0  0  0
 20  3  1  0  0  0  0
 20 15  1  0  0  0  0
 21  1  1  0  0  0  0
 22  9  1  0  0  0  0
 23 30  1  6  0  0  0
 24  2  2  0  0  0  0
 25 21  1  1  0  0  0
 25 19  1  0  0  0  0
 29 35  1  0  0  0  0
 30 29  2  0  0  0  0
 31 34  2  0  0  0  0
 31 30  1  0  0  0  0
 32 34  1  0  0  0  0
 33 35  2  0  0  0  0
 34 33  1  0  0  0  0
 36 37  1  0  0  0  0
M  END
>  <MODEL>
7

>  <REMARK>
 VINA RESULT:      -5.3      4.379      6.885
  Name = 
  2 active torsions:
  status: ('A' for Active; 'I' for Inactive)
    1  A    between atoms: C_5  and  C_23
    2  A    between atoms: C_6  and  C_31
                            x       y       z     vdW  Elec       q    Type
                         _______ _______ _______ _____ _____    ______ ____

>  <TORSDO>
F 2

$$$$
=
 OpenBabel10262422513D

 37 40  0  0  1  0  0  0  0  0999 V2000
  183.3070  178.3610  138.3830 C   0  0  1  0  0  0  0  0  0  0  0  0
  180.0210  179.4530  138.1430 S   0  0  0  0  0  0  0  0  0  0  0  0
  179.6400  175.4640  138.0080 C   0  0  0  0  0  3  0  0  0  0  0  0
  184.6120  178.2530  139.2190 C   0  0  1  0  0  3  0  0  0  0  0  0
  184.8290  174.4120  136.4070 C   0  0  0  0  0  2  0  0  0  0  0  0
  179.3580  177.8710  136.1140 C   0  0  0  0  0  3  0  0  0  0  0  0
  184.4870  175.3320  138.5950 O   0  0  0  0  0  1  0  0  0  0  0  0
  186.8900  176.3840  137.5500 O   0  0  0  0  0  1  0  0  0  0  0  0
  179.4440  176.7420  138.3320 C   0  0  0  0  0  3  0  0  0  0  0  0
  182.6860  173.1610  136.0460 C   0  0  0  0  0  2  0  0  0  0  0  0
  178.9310  176.7050  135.3160 C   0  0  0  0  0  3  0  0  0  0  0  0
  185.9000  178.4490  138.4030 C   0  0  2  0  0  3  0  0  0  0  0  0
  182.7570  179.7970  138.4020 C   0  0  0  0  0  2  0  0  0  0  0  0
  180.1200  179.3280  139.6380 O   0  0  0  0  0  0  0  0  0  0  0  0
  180.3080  173.5130  136.6640 C   0  0  0  0  0  2  0  0  0  0  0  0
  179.2400  175.4350  135.5740 C   0  0  0  0  0  3  0  0  0  0  0  0
  181.5680  180.0460  137.4710 C   0  0  0  0  0  2  0  0  0  0  0  0
  186.0070  177.4260  137.2510 C   0  0  2  0  0  3  0  0  0  0  0  0
  184.2010  175.5190  137.2400 C   0  0  1  0  0  3  0  0  0  0  0  0
  180.1570  175.0240  136.6770 C   0  0  1  0  0  3  0  0  0  0  0  0
  183.5360  177.9350  136.9180 C   0  0  0  0  0  2  0  0  0  0  0  0
  179.6270  177.8970  137.4280 C   0  0  0  0  0  0  0  0  0  0  0  0
  184.0970  173.0910  136.6110 C   0  0  1  0  0  3  0  0  0  0  0  0
  178.9330  180.4350  137.8130 O   0  0  0  0  0  0  0  0  0  0  0  0
  184.6450  176.8990  136.7370 C   0  0  1  0  0  3  0  0  0  0  0  0
  187.0300  178.3940  139.2240 O   0  0  0  0  0  1  0  0  0  0  0  0
  182.3690  177.5020  138.9550 O   0  0  0  0  0  1  0  0  0  0  0  0
  181.6790  173.1140  137.1790 C   0  0  0  0  0  2  0  0  0  0  0  0
  184.2100  170.8030  135.5400 C   0  0  0  0  0  3  0  0  0  0  0  0
  184.8610  171.9610  135.9970 C   0  0  0  0  0  0  0  0  0  0  0  0
  186.2510  172.0630  135.8810 C   0  0  0  0  0  3  0  0  0  0  0  0
  188.3340  171.1250  135.2000 F   0  0  0  0  0  0  0  0  0  0  0  0
  186.3370  169.8690  134.8560 C   0  0  0  0  0  3  0  0  0  0  0  0
  186.9880  171.0200  135.3110 C   0  0  0  0  0  0  0  0  0  0  0  0
  184.9480  169.7620  134.9700 C   0  0  0  0  0  3  0  0  0  0  0  0
  184.2840  177.9900  141.7300 C   0  0  0  0  0  1  0  0  0  0  0  0
  184.5870  178.9490  140.5890 C   0  0  0  0  0  2  0  0  0  0  0  0
  1 13  1  0  0  0  0
  1 27  1  1  0  0  0
  1  4  1  0  0  0  0
  2 14  2  0  0  0  0
  3  9  2  0  0  0  0
  4 37  1  1  0  0  0
  5 23  1  0  0  0  0
  5 19  1  0  0  0  0
  6 22  2  0  0  0  0
 10 23  1  0  0  0  0
 10 28  1  0  0  0  0
 11 16  2  0  0  0  0
 11  6  1  0  0  0  0
 12  4  1  0  0  0  0
 12 26  1  1  0  0  0
 15 20  1  0  0  0  0
 15 28  1  0  0  0  0
 17  2  1  0  0  0  0
 17 13  1  0  0  0  0
 18  8  1  1  0  0  0
 18 12  1  0  0  0  0
 19  7  1  1  0  0  0
 20 16  1  6  0  0  0
 20  3  1  0  0  0  0
 21  1  1  0  0  0  0
 22  2  1  0  0  0  0
 22  9  1  0  0  0  0
 23 30  1  6  0  0  0
 24  2  2  0  0  0  0
 25 21  1  1  0  0  0
 25 19  1  0  0  0  0
 25 18  1  0  0  0  0
 29 30  1  0  0  0  0
 31 30  2  0  0  0  0
 32 34  1  0  0  0  0
 33 35  1  0  0  0  0
 33 34  2  0  0  0  0
 34 31  1  0  0  0  0
 35 29  2  0  0  0  0
 37 36  1  0  0  0  0
M  END
>  <MODEL>
8

>  <REMARK>
 VINA RESULT:      -5.0      5.592      9.201
  Name = 
  2 active torsions:
  status: ('A' for Active; 'I' for Inactive)
    1  A    between atoms: C_5  and  C_23
    2  A    between atoms: C_6  and  C_31
                            x       y       z     vdW  Elec       q    Type
                         _______ _______ _______ _____ _____    ______ ____

>  <TORSDO>
F 2

$$$$
=
 OpenBabel10262422513D

 37 40  0  0  1  0  0  0  0  0999 V2000
  183.7680  177.6770  138.6600 C   0  0  1  0  0  0  0  0  0  0  0  0
  185.9430  177.5120  135.9600 S   0  0  0  0  0  0  0  0  0  0  0  0
  188.2430  176.3310  139.0240 C   0  0  0  0  0  3  0  0  0  0  0  0
  182.4850  177.1560  139.3640 C   0  0  1  0  0  3  0  0  0  0  0  0
  185.1740  178.6330  143.0100 C   0  0  0  0  0  2  0  0  0  0  0  0
  187.9580  178.7610  137.1600 C   0  0  0  0  0  3  0  0  0  0  0  0
  184.2300  176.8120  141.7660 O   0  0  0  0  0  1  0  0  0  0  0  0
  182.1630  178.6300  142.3960 O   0  0  0  0  0  1  0  0  0  0  0  0
  187.6620  176.3790  137.8260 C   0  0  0  0  0  3  0  0  0  0  0  0
  187.6250  178.1130  142.8810 C   0  0  0  0  0  2  0  0  0  0  0  0
  189.1490  179.0500  137.9820 C   0  0  0  0  0  3  0  0  0  0  0  0
  181.6460  178.2540  140.0360 C   0  0  2  0  0  3  0  0  0  0  0  0
  183.4990  177.9780  137.1760 C   0  0  0  0  0  2  0  0  0  0  0  0
  185.4010  176.1100  135.9130 O   0  0  0  0  0  0  0  0  0  0  0  0
  189.1350  177.1260  141.1770 C   0  0  0  0  0  2  0  0  0  0  0  0
  189.4310  178.4900  139.1580 C   0  0  0  0  0  3  0  0  0  0  0  0
  184.6540  178.6550  136.4340 C   0  0  0  0  0  2  0  0  0  0  0  0
  182.4640  179.0320  141.0900 C   0  0  2  0  0  3  0  0  0  0  0  0
  184.8430  178.0620  141.6390 C   0  0  1  0  0  3  0  0  0  0  0  0
  188.5130  177.5440  139.8560 C   0  0  1  0  0  3  0  0  0  0  0  0
  184.3070  178.9540  139.3360 C   0  0  0  0  0  2  0  0  0  0  0  0
  187.2690  177.6110  137.1090 C   0  0  0  0  0  0  0  0  0  0  0  0
  186.3330  177.8780  143.6510 C   0  0  1  0  0  3  0  0  0  0  0  0
  186.4490  177.8780  134.5940 O   0  0  0  0  0  0  0  0  0  0  0  0
  183.9910  179.0480  140.8290 C   0  0  1  0  0  3  0  0  0  0  0  0
  180.4820  177.7250  140.6010 O   0  0  0  0  0  1  0  0  0  0  0  0
  184.7360  176.6780  138.7570 O   0  0  0  0  0  1  0  0  0  0  0  0
  188.0540  176.8280  142.2000 C   0  0  0  0  0  2  0  0  0  0  0  0
  185.5070  179.0190  145.7510 C   0  0  0  0  0  3  0  0  0  0  0  0
  186.4900  178.2680  145.0860 C   0  0  0  0  0  0  0  0  0  0  0  0
  187.6440  177.8780  145.7750 C   0  0  0  0  0  3  0  0  0  0  0  0
  188.9340  177.8480  147.7790 F   0  0  0  0  0  0  0  0  0  0  0  0
  186.8340  178.9770  147.7760 C   0  0  0  0  0  3  0  0  0  0  0  0
  187.8160  178.2300  147.1170 C   0  0  0  0  0  0  0  0  0  0  0  0
  185.6800  179.3700  147.0920 C   0  0  0  0  0  3  0  0  0  0  0  0
  181.2580  174.9270  139.4710 C   0  0  0  0  0  1  0  0  0  0  0  0
  181.6840  176.0950  138.5930 C   0  0  0  0  0  2  0  0  0  0  0  0
  1 27  1  1  0  0  0
  1 21  1  0  0  0  0
  1  4  1  0  0  0  0
  2 17  1  0  0  0  0
  2 22  1  0  0  0  0
  4 37  1  6  0  0  0
  4 12  1  0  0  0  0
  5 23  1  0  0  0  0
  6 11  1  0  0  0  0
  9  3  2  0  0  0  0
 10 23  1  0  0  0  0
 11 16  2  0  0  0  0
 12 26  1  1  0  0  0
 12 18  1  0  0  0  0
 13  1  1  0  0  0  0
 14  2  2  0  0  0  0
 15 28  1  0  0  0  0
 16 20  1  0  0  0  0
 17 13  1  0  0  0  0
 18  8  1  1  0  0  0
 19  7  1  1  0  0  0
 19  5  1  0  0  0  0
 20  3  1  6  0  0  0
 20 15  1  0  0  0  0
 22  6  2  0  0  0  0
 22  9  1  0  0  0  0
 23 30  1  1  0  0  0
 24  2  2  0  0  0  0
 25 21  1  6  0  0  0
 25 18  1  0  0  0  0
 25 19  1  0  0  0  0
 28 10  1  0  0  0  0
 29 35  1  0  0  0  0
 30 29  2  0  0  0  0
 30 31  1  0  0  0  0
 31 34  2  0  0  0  0
 34 33  1  0  0  0  0
 34 32  1  0  0  0  0
 35 33  2  0  0  0  0
 37 36  1  0  0  0  0
M  END
>  <MODEL>
9

>  <REMARK>
 VINA RESULT:      -4.0      3.682      6.544
  Name = 
  2 active torsions:
  status: ('A' for Active; 'I' for Inactive)
    1  A    between atoms: C_5  and  C_23
    2  A    between atoms: C_6  and  C_31
                            x       y       z     vdW  Elec       q    Type
                         _______ _______ _______ _____ _____    ______ ____

>  <TORSDO>
F 2

$$$$
