=
 OpenBabel10262421403D

 32 32  0  0  1  0  0  0  0  0999 V2000
  188.4720  177.6580  140.9210 C   0  0  2  0  0  3  0  0  0  0  0  0
  188.6080  177.6580  139.3940 C   0  0  1  0  0  3  0  0  0  0  0  0
  187.8040  178.6470  138.8210 O   0  0  0  0  0  0  0  0  0  0  0  0
  186.8130  177.9510  138.1270 C   0  0  0  0  0  2  0  0  0  0  0  0
  186.9740  178.1950  136.6420 C   0  0  0  0  0  1  0  0  0  0  0  0
  189.9980  177.8840  139.0260 N   0  0  0  0  0  2  0  0  0  0  0  0
  190.2500  177.1530  137.7930 C   0  0  0  0  0  2  0  0  0  0  0  0
  190.0310  174.9410  136.6960 C   0  0  1  0  0  3  0  0  0  0  0  0
  191.2740  174.3190  137.1220 N   0  0  0  0  0  2  0  0  0  0  0  0
  191.2460  175.0080  138.3520 N   0  0  0  0  0  2  0  0  0  0  0  0
  188.9300  173.8990  136.6600 C   0  0  0  0  0  1  0  0  0  0  0  0
  189.9990  175.6670  138.0040 C   0  0  1  0  0  3  0  0  0  0  0  0
  187.6300  178.8200  141.4750 C   0  0  0  0  0  2  0  0  0  0  0  0
  186.4760  178.3440  142.2210 N   0  0  0  0  0  2  0  0  0  0  0  0
  185.3860  179.2570  141.9310 C   0  0  0  0  0  2  0  0  0  0  0  0
  184.1750  178.6590  142.2740 O   0  0  0  0  0  0  0  0  0  0  0  0
  183.7340  178.0600  141.0950 C   0  0  0  0  0  1  0  0  0  0  0  0
  189.7540  177.4000  141.6070 N   0  0  0  0  0  0  0  0  0  0  0  0
  189.7720  176.0550  142.1940 C   0  0  0  0  0  2  0  0  0  0  0  0
  188.6820  175.8350  143.2390 C   0  0  0  0  0  1  0  0  0  0  0  0
  190.1120  178.4210  142.5940 C   0  0  0  0  0  2  0  0  0  0  0  0
  191.5400  178.2160  143.0880 C   0  0  0  0  0  2  0  0  0  0  0  0
  191.6520  178.4840  144.5800 C   0  0  0  0  0  2  0  0  0  0  0  0
  190.3390  178.1710  145.2780 C   0  0  0  0  0  2  0  0  0  0  0  0
  190.5620  177.2210  146.4080 C   0  0  0  0  0  0  0  0  0  0  0  0
  191.6960  176.8890  146.7170 O   0  0  0  0  0  0  0  0  0  0  0  0
  189.3940  176.6760  147.1600 C   0  0  0  0  0  2  0  0  0  0  0  0
  188.6410  177.7820  147.8290 C   0  0  0  0  0  0  0  0  0  0  0  0
  189.2180  178.4690  148.7120 O   0  0  0  0  0  0  0  0  0  0  0  0
  187.3240  178.0890  147.4810 O   0  0  0  0  0  0  0  0  0  0  0  0
  186.7480  177.6790  146.2500 C   0  0  0  0  0  2  0  0  0  0  0  0
  185.2820  178.6870  145.9010 S   0  0  0  0  0  1  0  0  0  0  0  0
  1 13  1  1  0  0  0
  1 18  1  0  0  0  0
  2  3  1  6  0  0  0
  2  1  1  0  0  0  0
  4  3  1  0  0  0  0
  5  4  1  0  0  0  0
  6  2  1  0  0  0  0
  7  6  1  0  0  0  0
  8 11  1  1  0  0  0
  8  9  1  0  0  0  0
  8 12  1  0  0  0  0
  9 10  1  0  0  0  0
 12  7  1  6  0  0  0
 12 10  1  0  0  0  0
 13 14  1  0  0  0  0
 15 14  1  0  0  0  0
 15 16  1  0  0  0  0
 17 16  1  0  0  0  0
 18 19  1  0  0  0  0
 18 21  1  0  0  0  0
 19 20  1  0  0  0  0
 21 22  1  0  0  0  0
 22 23  1  0  0  0  0
 23 24  1  0  0  0  0
 24 25  1  0  0  0  0
 25 26  2  0  0  0  0
 25 27  1  0  0  0  0
 27 28  1  0  0  0  0
 28 29  2  0  0  0  0
 30 28  1  0  0  0  0
 31 30  1  0  0  0  0
 32 31  1  0  0  0  0
M  END
>  <MODEL>
1

>  <REMARK>
 VINA RESULT:      -5.4      0.000      0.000
  Name = 
  21 active torsions:
  status: ('A' for Active; 'I' for Inactive)
    1  A    between atoms: C_1  and  O_20
    2  A    between atoms: C_2  and  C_9
    3  A    between atoms: C_2  and  C_23
    4  A    between atoms: C_3  and  N_14
    5  A    between atoms: C_4  and  O_5
    6  A    between atoms: C_4  and  N_13
    7  A    between atoms: C_6  and  O_31
    8  A    between atoms: C_7  and  N_27
    9  A    between atoms: C_7  and  C_32
   10  A    between atoms: C_8  and  C_23
   11  A    between atoms: C_8  and  C_28
   12  A    between atoms: C_9  and  C_10
   13  A    between atoms: C_10  and  C_19
   14  A    between atoms: N_13  and  C_15
   15  A    between atoms: N_14  and  C_26
   16  A    between atoms: N_14  and  C_28
   17  A    between atoms: C_15  and  C_26
   18  A    between atoms: C_16  and  C_26
   19  A    between atoms: C_16  and  N_27
   20  A    between atoms: C_16  and  O_31
   21  A    between atoms: C_19  and  O_20
                            x       y       z     vdW  Elec       q    Type
                         _______ _______ _______ _____ _____    ______ ____

>  <TORSDO>
F 21

$$$$
=
 OpenBabel10262421403D

 32 32  0  0  1  0  0  0  0  0999 V2000
  189.0630  177.5670  140.9510 C   0  0  2  0  0  3  0  0  0  0  0  0
  190.0890  177.5850  139.8130 C   0  0  1  0  0  3  0  0  0  0  0  0
  190.6270  176.3110  139.6050 O   0  0  0  0  0  0  0  0  0  0  0  0
  191.9140  176.5380  139.1160 C   0  0  0  0  0  2  0  0  0  0  0  0
  192.6950  177.3620  140.1170 C   0  0  0  0  0  1  0  0  0  0  0  0
  189.4550  178.0530  138.5890 N   0  0  0  0  0  2  0  0  0  0  0  0
  188.6710  176.9510  138.0520 C   0  0  0  0  0  2  0  0  0  0  0  0
  186.3020  177.2400  137.3810 C   0  0  1  0  0  3  0  0  0  0  0  0
  186.1680  178.6800  137.5240 N   0  0  0  0  0  2  0  0  0  0  0  0
  187.5110  178.8850  137.1450 N   0  0  0  0  0  2  0  0  0  0  0  0
  185.4920  176.7710  136.1880 C   0  0  0  0  0  1  0  0  0  0  0  0
  187.7250  177.4580  136.9730 C   0  0  1  0  0  3  0  0  0  0  0  0
  188.2120  178.8450  141.0480 C   0  0  0  0  0  2  0  0  0  0  0  0
  186.8210  178.5970  140.7050 N   0  0  0  0  0  2  0  0  0  0  0  0
  186.0190  179.1920  141.7570 C   0  0  0  0  0  2  0  0  0  0  0  0
  184.7220  179.4030  141.2900 O   0  0  0  0  0  0  0  0  0  0  0  0
  184.0330  178.2410  141.6350 C   0  0  0  0  0  1  0  0  0  0  0  0
  189.6280  177.0650  142.2200 N   0  0  0  0  0  0  0  0  0  0  0  0
  188.8150  175.9680  142.7570 C   0  0  0  0  0  2  0  0  0  0  0  0
  187.6290  176.4450  143.5910 C   0  0  0  0  0  1  0  0  0  0  0  0
  189.8510  178.1090  143.2220 C   0  0  0  0  0  2  0  0  0  0  0  0
  191.3280  178.1970  143.5890 C   0  0  0  0  0  2  0  0  0  0  0  0
  191.5760  177.6930  145.0020 C   0  0  0  0  0  2  0  0  0  0  0  0
  190.2720  177.2590  145.6500 C   0  0  0  0  0  2  0  0  0  0  0  0
  190.4050  177.2540  147.1370 C   0  0  0  0  0  0  0  0  0  0  0  0
  191.2290  176.5330  147.6780 O   0  0  0  0  0  0  0  0  0  0  0  0
  189.5260  178.1320  147.9640 C   0  0  0  0  0  2  0  0  0  0  0  0
  188.1260  177.6030  147.9820 C   0  0  0  0  0  0  0  0  0  0  0  0
  187.9140  176.4500  148.4390 O   0  0  0  0  0  0  0  0  0  0  0  0
  187.0480  178.3650  147.5290 O   0  0  0  0  0  0  0  0  0  0  0  0
  186.0490  177.8340  146.6700 C   0  0  0  0  0  2  0  0  0  0  0  0
  185.4450  179.1390  145.5650 S   0  0  0  0  0  1  0  0  0  0  0  0
  1 13  1  1  0  0  0
  1 18  1  0  0  0  0
  2  6  1  6  0  0  0
  2  1  1  0  0  0  0
  3  2  1  0  0  0  0
  4  3  1  0  0  0  0
  4  5  1  0  0  0  0
  7  6  1  0  0  0  0
  8 11  1  6  0  0  0
  8  9  1  0  0  0  0
 10  9  1  0  0  0  0
 12 10  1  0  0  0  0
 12  8  1  0  0  0  0
 12  7  1  1  0  0  0
 14 13  1  0  0  0  0
 14 15  1  0  0  0  0
 16 17  1  0  0  0  0
 16 15  1  0  0  0  0
 18 19  1  0  0  0  0
 18 21  1  0  0  0  0
 19 20  1  0  0  0  0
 21 22  1  0  0  0  0
 22 23  1  0  0  0  0
 23 24  1  0  0  0  0
 24 25  1  0  0  0  0
 25 26  2  0  0  0  0
 25 27  1  0  0  0  0
 27 28  1  0  0  0  0
 28 29  2  0  0  0  0
 30 28  1  0  0  0  0
 31 30  1  0  0  0  0
 32 31  1  0  0  0  0
M  END
>  <MODEL>
2

>  <REMARK>
 VINA RESULT:      -5.2      1.747      2.756
  Name = 
  21 active torsions:
  status: ('A' for Active; 'I' for Inactive)
    1  A    between atoms: C_1  and  O_20
    2  A    between atoms: C_2  and  C_9
    3  A    between atoms: C_2  and  C_23
    4  A    between atoms: C_3  and  N_14
    5  A    between atoms: C_4  and  O_5
    6  A    between atoms: C_4  and  N_13
    7  A    between atoms: C_6  and  O_31
    8  A    between atoms: C_7  and  N_27
    9  A    between atoms: C_7  and  C_32
   10  A    between atoms: C_8  and  C_23
   11  A    between atoms: C_8  and  C_28
   12  A    between atoms: C_9  and  C_10
   13  A    between atoms: C_10  and  C_19
   14  A    between atoms: N_13  and  C_15
   15  A    between atoms: N_14  and  C_26
   16  A    between atoms: N_14  and  C_28
   17  A    between atoms: C_15  and  C_26
   18  A    between atoms: C_16  and  C_26
   19  A    between atoms: C_16  and  N_27
   20  A    between atoms: C_16  and  O_31
   21  A    between atoms: C_19  and  O_20
                            x       y       z     vdW  Elec       q    Type
                         _______ _______ _______ _____ _____    ______ ____

>  <TORSDO>
F 21

$$$$
=
 OpenBabel10262421403D

 32 32  0  0  1  0  0  0  0  0999 V2000
  188.4660  178.1140  141.9020 C   0  0  2  0  0  3  0  0  0  0  0  0
  189.2140  177.7580  143.1910 C   0  0  1  0  0  3  0  0  0  0  0  0
  189.6370  178.9120  143.8580 O   0  0  0  0  0  0  0  0  0  0  0  0
  190.9780  179.0640  143.5020 C   0  0  0  0  0  2  0  0  0  0  0  0
  191.7840  177.9210  144.0820 C   0  0  0  0  0  1  0  0  0  0  0  0
  188.3450  176.9810  144.0630 N   0  0  0  0  0  2  0  0  0  0  0  0
  188.1900  177.7250  145.3030 C   0  0  0  0  0  2  0  0  0  0  0  0
  189.8950  177.5650  147.0950 C   0  0  1  0  0  3  0  0  0  0  0  0
  189.0730  177.8540  148.2580 N   0  0  0  0  0  2  0  0  0  0  0  0
  187.9500  177.2350  147.6720 N   0  0  0  0  0  2  0  0  0  0  0  0
  190.9340  176.5200  147.4550 C   0  0  0  0  0  1  0  0  0  0  0  0
  188.7050  176.9020  146.4760 C   0  0  1  0  0  3  0  0  0  0  0  0
  186.9430  178.2470  142.0760 C   0  0  0  0  0  2  0  0  0  0  0  0
  186.4210  179.4250  141.4020 N   0  0  0  0  0  2  0  0  0  0  0  0
  185.1140  179.0650  140.8860 C   0  0  0  0  0  2  0  0  0  0  0  0
  184.9250  179.6630  139.6410 O   0  0  0  0  0  0  0  0  0  0  0  0
  184.4590  178.6340  138.8250 C   0  0  0  0  0  1  0  0  0  0  0  0
  188.9200  177.3200  140.7420 N   0  0  0  0  0  0  0  0  0  0  0  0
  190.2220  176.6980  141.0100 C   0  0  0  0  0  2  0  0  0  0  0  0
  191.3760  177.3620  140.2640 C   0  0  0  0  0  1  0  0  0  0  0  0
  188.9320  178.0680  139.4820 C   0  0  0  0  0  2  0  0  0  0  0  0
  188.4380  177.1960  138.3340 C   0  0  0  0  0  2  0  0  0  0  0  0
  189.1220  177.5650  137.0270 C   0  0  0  0  0  2  0  0  0  0  0  0
  188.7640  176.5660  135.9380 C   0  0  0  0  0  2  0  0  0  0  0  0
  189.9650  175.7720  135.5450 C   0  0  0  0  0  0  0  0  0  0  0  0
  191.0060  176.3370  135.2480 O   0  0  0  0  0  0  0  0  0  0  0  0
  189.8910  174.2810  135.5130 C   0  0  0  0  0  2  0  0  0  0  0  0
  189.7390  173.7360  136.8990 C   0  0  0  0  0  0  0  0  0  0  0  0
  190.5950  174.0360  137.7710 O   0  0  0  0  0  0  0  0  0  0  0  0
  188.6580  172.9270  137.2550 O   0  0  0  0  0  0  0  0  0  0  0  0
  187.4950  172.8140  136.4480 C   0  0  0  0  0  2  0  0  0  0  0  0
  186.1810  173.8600  137.1310 S   0  0  0  0  0  1  0  0  0  0  0  0
  1 13  1  1  0  0  0
  1  2  1  0  0  0  0
  2  3  1  1  0  0  0
  2  6  1  0  0  0  0
  4  3  1  0  0  0  0
  4  5  1  0  0  0  0
  6  7  1  0  0  0  0
  8 11  1  1  0  0  0
  8  9  1  0  0  0  0
 10  9  1  0  0  0  0
 12  7  1  6  0  0  0
 12  8  1  0  0  0  0
 12 10  1  0  0  0  0
 14 13  1  0  0  0  0
 15 14  1  0  0  0  0
 16 15  1  0  0  0  0
 17 16  1  0  0  0  0
 18 19  1  0  0  0  0
 18  1  1  0  0  0  0
 20 19  1  0  0  0  0
 21 18  1  0  0  0  0
 22 21  1  0  0  0  0
 23 22  1  0  0  0  0
 24 23  1  0  0  0  0
 25 24  1  0  0  0  0
 26 25  2  0  0  0  0
 27 25  1  0  0  0  0
 27 28  1  0  0  0  0
 28 30  1  0  0  0  0
 28 29  2  0  0  0  0
 31 32  1  0  0  0  0
 31 30  1  0  0  0  0
M  END
>  <MODEL>
3

>  <REMARK>
 VINA RESULT:      -4.8      3.326      8.083
  Name = 
  21 active torsions:
  status: ('A' for Active; 'I' for Inactive)
    1  A    between atoms: C_1  and  O_20
    2  A    between atoms: C_2  and  C_9
    3  A    between atoms: C_2  and  C_23
    4  A    between atoms: C_3  and  N_14
    5  A    between atoms: C_4  and  O_5
    6  A    between atoms: C_4  and  N_13
    7  A    between atoms: C_6  and  O_31
    8  A    between atoms: C_7  and  N_27
    9  A    between atoms: C_7  and  C_32
   10  A    between atoms: C_8  and  C_23
   11  A    between atoms: C_8  and  C_28
   12  A    between atoms: C_9  and  C_10
   13  A    between atoms: C_10  and  C_19
   14  A    between atoms: N_13  and  C_15
   15  A    between atoms: N_14  and  C_26
   16  A    between atoms: N_14  and  C_28
   17  A    between atoms: C_15  and  C_26
   18  A    between atoms: C_16  and  C_26
   19  A    between atoms: C_16  and  N_27
   20  A    between atoms: C_16  and  O_31
   21  A    between atoms: C_19  and  O_20
                            x       y       z     vdW  Elec       q    Type
                         _______ _______ _______ _____ _____    ______ ____

>  <TORSDO>
F 21

$$$$
=
 OpenBabel10262421403D

 32 32  0  0  1  0  0  0  0  0999 V2000
  183.5100  178.2730  138.9720 C   0  0  2  0  0  3  0  0  0  0  0  0
  184.4460  177.5050  138.0330 C   0  0  1  0  0  3  0  0  0  0  0  0
  183.8670  177.3470  136.7700 O   0  0  0  0  0  0  0  0  0  0  0  0
  183.3100  176.0670  136.7850 C   0  0  0  0  0  2  0  0  0  0  0  0
  184.0640  175.1800  135.8170 C   0  0  0  0  0  1  0  0  0  0  0  0
  185.7080  178.2190  137.9060 N   0  0  0  0  0  2  0  0  0  0  0  0
  186.7150  177.2590  137.4850 C   0  0  0  0  0  2  0  0  0  0  0  0
  189.0740  177.9720  137.7580 C   0  0  1  0  0  3  0  0  0  0  0  0
  188.9000  179.0930  138.6660 N   0  0  0  0  0  2  0  0  0  0  0  0
  187.8000  178.4690  139.2920 N   0  0  0  0  0  2  0  0  0  0  0  0
  190.3530  177.2340  138.1010 C   0  0  0  0  0  1  0  0  0  0  0  0
  187.9110  177.3080  138.4260 C   0  0  1  0  0  3  0  0  0  0  0  0
  183.7810  179.7860  139.0270 C   0  0  0  0  0  2  0  0  0  0  0  0
  182.5500  180.5590  138.9770 N   0  0  0  0  0  2  0  0  0  0  0  0
  181.7690  180.0290  137.8750 C   0  0  0  0  0  2  0  0  0  0  0  0
  181.1090  181.0720  137.2290 O   0  0  0  0  0  0  0  0  0  0  0  0
  179.7790  180.6570  137.1630 C   0  0  0  0  0  1  0  0  0  0  0  0
  183.3280  177.5970  140.2730 N   0  0  0  0  0  0  0  0  0  0  0  0
  181.9050  177.4970  140.6160 C   0  0  0  0  0  2  0  0  0  0  0  0
  181.0710  176.7970  139.5460 C   0  0  0  0  0  1  0  0  0  0  0  0
  184.1030  178.1950  141.3630 C   0  0  0  0  0  2  0  0  0  0  0  0
  183.1820  178.6760  142.4770 C   0  0  0  0  0  2  0  0  0  0  0  0
  183.9720  179.0620  143.7180 C   0  0  0  0  0  2  0  0  0  0  0  0
  185.3010  178.3250  143.7540 C   0  0  0  0  0  2  0  0  0  0  0  0
  185.8870  178.3750  145.1260 C   0  0  0  0  0  0  0  0  0  0  0  0
  185.6570  179.3240  145.8600 O   0  0  0  0  0  0  0  0  0  0  0  0
  186.7610  177.2620  145.6010 C   0  0  0  0  0  2  0  0  0  0  0  0
  188.1210  177.3660  144.9860 C   0  0  0  0  0  0  0  0  0  0  0  0
  188.8850  178.2990  145.3450 O   0  0  0  0  0  0  0  0  0  0  0  0
  188.5740  176.4400  144.0440 O   0  0  0  0  0  0  0  0  0  0  0  0
  188.4560  176.6580  142.6460 C   0  0  0  0  0  2  0  0  0  0  0  0
  190.0370  177.2570  141.9900 S   0  0  0  0  0  1  0  0  0  0  0  0
  1 13  1  1  0  0  0
  1 18  1  0  0  0  0
  2  3  1  6  0  0  0
  2  1  1  0  0  0  0
  3  4  1  0  0  0  0
  5  4  1  0  0  0  0
  6  2  1  0  0  0  0
  7  6  1  0  0  0  0
  8 11  1  1  0  0  0
  8 12  1  0  0  0  0
  8  9  1  0  0  0  0
  9 10  1  0  0  0  0
 12  7  1  6  0  0  0
 12 10  1  0  0  0  0
 14 13  1  0  0  0  0
 15 14  1  0  0  0  0
 16 15  1  0  0  0  0
 17 16  1  0  0  0  0
 18 19  1  0  0  0  0
 18 21  1  0  0  0  0
 20 19  1  0  0  0  0
 21 22  1  0  0  0  0
 22 23  1  0  0  0  0
 23 24  1  0  0  0  0
 24 25  1  0  0  0  0
 25 27  1  0  0  0  0
 25 26  2  0  0  0  0
 28 29  2  0  0  0  0
 28 27  1  0  0  0  0
 30 28  1  0  0  0  0
 31 30  1  0  0  0  0
 32 31  1  0  0  0  0
M  END
>  <MODEL>
4

>  <REMARK>
 VINA RESULT:      -4.7      3.324      5.410
  Name = 
  21 active torsions:
  status: ('A' for Active; 'I' for Inactive)
    1  A    between atoms: C_1  and  O_20
    2  A    between atoms: C_2  and  C_9
    3  A    between atoms: C_2  and  C_23
    4  A    between atoms: C_3  and  N_14
    5  A    between atoms: C_4  and  O_5
    6  A    between atoms: C_4  and  N_13
    7  A    between atoms: C_6  and  O_31
    8  A    between atoms: C_7  and  N_27
    9  A    between atoms: C_7  and  C_32
   10  A    between atoms: C_8  and  C_23
   11  A    between atoms: C_8  and  C_28
   12  A    between atoms: C_9  and  C_10
   13  A    between atoms: C_10  and  C_19
   14  A    between atoms: N_13  and  C_15
   15  A    between atoms: N_14  and  C_26
   16  A    between atoms: N_14  and  C_28
   17  A    between atoms: C_15  and  C_26
   18  A    between atoms: C_16  and  C_26
   19  A    between atoms: C_16  and  N_27
   20  A    between atoms: C_16  and  O_31
   21  A    between atoms: C_19  and  O_20
                            x       y       z     vdW  Elec       q    Type
                         _______ _______ _______ _____ _____    ______ ____

>  <TORSDO>
F 21

$$$$
=
 OpenBabel10262421403D

 32 32  0  0  1  0  0  0  0  0999 V2000
  186.8000  178.2820  143.5330 C   0  0  2  0  0  3  0  0  0  0  0  0
  187.7010  177.7880  142.3970 C   0  0  1  0  0  3  0  0  0  0  0  0
  188.0050  178.8260  141.5120 O   0  0  0  0  0  0  0  0  0  0  0  0
  187.7820  178.2950  140.2410 C   0  0  0  0  0  2  0  0  0  0  0  0
  189.0610  178.3680  139.4340 C   0  0  0  0  0  1  0  0  0  0  0  0
  188.9320  177.2420  142.9500 N   0  0  0  0  0  2  0  0  0  0  0  0
  189.8680  178.3430  143.1080 C   0  0  0  0  0  2  0  0  0  0  0  0
  190.8510  176.6480  144.6270 C   0  0  1  0  0  3  0  0  0  0  0  0
  191.6200  175.8650  143.6750 N   0  0  0  0  0  2  0  0  0  0  0  0
  191.8850  177.0050  142.8880 N   0  0  0  0  0  2  0  0  0  0  0  0
  191.6060  176.7360  145.9390 C   0  0  0  0  0  1  0  0  0  0  0  0
  191.1370  177.8580  143.7950 C   0  0  1  0  0  3  0  0  0  0  0  0
  186.6700  177.2940  144.7060 C   0  0  0  0  0  2  0  0  0  0  0  0
  187.5210  177.6670  145.8250 N   0  0  0  0  0  2  0  0  0  0  0  0
  186.6430  178.1380  146.8790 C   0  0  0  0  0  2  0  0  0  0  0  0
  187.3320  178.1410  148.0910 O   0  0  0  0  0  0  0  0  0  0  0  0
  188.6660  177.9420  147.7350 C   0  0  0  0  0  1  0  0  0  0  0  0
  185.5410  178.8780  143.0440 N   0  0  0  0  0  0  0  0  0  0  0  0
  184.8390  179.5800  144.1250 C   0  0  0  0  0  2  0  0  0  0  0  0
  183.4970  178.9480  144.4880 C   0  0  0  0  0  1  0  0  0  0  0  0
  184.6610  177.9260  142.3620 C   0  0  0  0  0  2  0  0  0  0  0  0
  184.1820  178.4930  141.0310 C   0  0  0  0  0  2  0  0  0  0  0  0
  182.7020  178.2180  140.8150 C   0  0  0  0  0  2  0  0  0  0  0  0
  182.3720  178.2160  139.3310 C   0  0  0  0  0  2  0  0  0  0  0  0
  182.3950  176.8240  138.7940 C   0  0  0  0  0  0  0  0  0  0  0  0
  182.5490  175.8760  139.5480 O   0  0  0  0  0  0  0  0  0  0  0  0
  182.2310  176.5910  137.3290 C   0  0  0  0  0  2  0  0  0  0  0  0
  183.5370  176.7760  136.6210 C   0  0  0  0  0  0  0  0  0  0  0  0
  183.5320  177.0750  135.3990 O   0  0  0  0  0  0  0  0  0  0  0  0
  184.7570  176.6500  137.2870 O   0  0  0  0  0  0  0  0  0  0  0  0
  185.6960  177.7130  137.3600 C   0  0  0  0  0  2  0  0  0  0  0  0
  187.0910  177.3660  136.2550 S   0  0  0  0  0  1  0  0  0  0  0  0
  1 13  1  1  0  0  0
  2  3  1  6  0  0  0
  2  6  1  0  0  0  0
  2  1  1  0  0  0  0
  4  3  1  0  0  0  0
  5  4  1  0  0  0  0
  6  7  1  0  0  0  0
  8 11  1  1  0  0  0
  9  8  1  0  0  0  0
 10  9  1  0  0  0  0
 10 12  1  0  0  0  0
 12  7  1  6  0  0  0
 12  8  1  0  0  0  0
 13 14  1  0  0  0  0
 14 15  1  0  0  0  0
 15 16  1  0  0  0  0
 17 16  1  0  0  0  0
 18  1  1  0  0  0  0
 18 19  1  0  0  0  0
 19 20  1  0  0  0  0
 21 18  1  0  0  0  0
 22 21  1  0  0  0  0
 23 22  1  0  0  0  0
 24 23  1  0  0  0  0
 25 24  1  0  0  0  0
 25 26  2  0  0  0  0
 27 25  1  0  0  0  0
 28 30  1  0  0  0  0
 28 27  1  0  0  0  0
 29 28  2  0  0  0  0
 30 31  1  0  0  0  0
 32 31  1  0  0  0  0
M  END
>  <MODEL>
5

>  <REMARK>
 VINA RESULT:      -4.6      3.205      7.873
  Name = 
  21 active torsions:
  status: ('A' for Active; 'I' for Inactive)
    1  A    between atoms: C_1  and  O_20
    2  A    between atoms: C_2  and  C_9
    3  A    between atoms: C_2  and  C_23
    4  A    between atoms: C_3  and  N_14
    5  A    between atoms: C_4  and  O_5
    6  A    between atoms: C_4  and  N_13
    7  A    between atoms: C_6  and  O_31
    8  A    between atoms: C_7  and  N_27
    9  A    between atoms: C_7  and  C_32
   10  A    between atoms: C_8  and  C_23
   11  A    between atoms: C_8  and  C_28
   12  A    between atoms: C_9  and  C_10
   13  A    between atoms: C_10  and  C_19
   14  A    between atoms: N_13  and  C_15
   15  A    between atoms: N_14  and  C_26
   16  A    between atoms: N_14  and  C_28
   17  A    between atoms: C_15  and  C_26
   18  A    between atoms: C_16  and  C_26
   19  A    between atoms: C_16  and  N_27
   20  A    between atoms: C_16  and  O_31
   21  A    between atoms: C_19  and  O_20
                            x       y       z     vdW  Elec       q    Type
                         _______ _______ _______ _____ _____    ______ ____

>  <TORSDO>
F 21

$$$$
=
 OpenBabel10262421403D

 32 32  0  0  1  0  0  0  0  0999 V2000
  186.7410  178.4240  143.4110 C   0  0  2  0  0  3  0  0  0  0  0  0
  187.5870  177.8390  142.2750 C   0  0  1  0  0  3  0  0  0  0  0  0
  187.8930  178.8170  141.3250 O   0  0  0  0  0  0  0  0  0  0  0  0
  187.7700  178.1750  140.0920 C   0  0  0  0  0  2  0  0  0  0  0  0
  188.9720  178.5060  139.2320 C   0  0  0  0  0  1  0  0  0  0  0  0
  188.8180  177.2820  142.8170 N   0  0  0  0  0  2  0  0  0  0  0  0
  189.8020  178.3520  142.8590 C   0  0  0  0  0  2  0  0  0  0  0  0
  190.6520  176.7080  144.5080 C   0  0  1  0  0  3  0  0  0  0  0  0
  191.6210  176.0000  143.6880 N   0  0  0  0  0  2  0  0  0  0  0  0
  191.9230  177.1700  142.9600 N   0  0  0  0  0  2  0  0  0  0  0  0
  191.1780  176.8290  145.9250 C   0  0  0  0  0  1  0  0  0  0  0  0
  190.9770  177.9500  143.7390 C   0  0  1  0  0  3  0  0  0  0  0  0
  186.6520  177.5230  144.6550 C   0  0  0  0  0  2  0  0  0  0  0  0
  187.5580  177.9590  145.7060 N   0  0  0  0  0  2  0  0  0  0  0  0
  186.9700  177.5400  146.9640 C   0  0  0  0  0  2  0  0  0  0  0  0
  187.9720  177.0620  147.8080 O   0  0  0  0  0  0  0  0  0  0  0  0
  188.5630  178.2100  148.3350 C   0  0  0  0  0  1  0  0  0  0  0  0
  185.4680  179.0010  142.9350 N   0  0  0  0  0  0  0  0  0  0  0  0
  184.7430  179.6480  144.0340 C   0  0  0  0  0  2  0  0  0  0  0  0
  183.4970  178.8820  144.4730 C   0  0  0  0  0  1  0  0  0  0  0  0
  184.6180  178.0480  142.2190 C   0  0  0  0  0  2  0  0  0  0  0  0
  184.3550  178.5240  140.7950 C   0  0  0  0  0  2  0  0  0  0  0  0
  182.9690  178.1160  140.3230 C   0  0  0  0  0  2  0  0  0  0  0  0
  181.9220  178.4880  141.3600 C   0  0  0  0  0  2  0  0  0  0  0  0
  180.6770  178.9730  140.6930 C   0  0  0  0  0  0  0  0  0  0  0  0
  180.3140  180.1300  140.8340 O   0  0  0  0  0  0  0  0  0  0  0  0
  179.8740  178.0370  139.8520 C   0  0  0  0  0  2  0  0  0  0  0  0
  179.6530  176.7440  140.5730 C   0  0  0  0  0  0  0  0  0  0  0  0
  178.9310  176.7340  141.6030 O   0  0  0  0  0  0  0  0  0  0  0  0
  180.2070  175.5470  140.1180 O   0  0  0  0  0  0  0  0  0  0  0  0
  180.2850  175.2210  138.7380 C   0  0  0  0  0  2  0  0  0  0  0  0
  179.7970  173.4910  138.4960 S   0  0  0  0  0  1  0  0  0  0  0  0
  1 13  1  1  0  0  0
  2  3  1  6  0  0  0
  2  6  1  0  0  0  0
  2  1  1  0  0  0  0
  4  3  1  0  0  0  0
  5  4  1  0  0  0  0
  6  7  1  0  0  0  0
  8 11  1  1  0  0  0
  9  8  1  0  0  0  0
 10  9  1  0  0  0  0
 10 12  1  0  0  0  0
 12  7  1  6  0  0  0
 12  8  1  0  0  0  0
 13 14  1  0  0  0  0
 14 15  1  0  0  0  0
 15 16  1  0  0  0  0
 16 17  1  0  0  0  0
 18  1  1  0  0  0  0
 18 19  1  0  0  0  0
 19 20  1  0  0  0  0
 21 18  1  0  0  0  0
 22 21  1  0  0  0  0
 23 22  1  0  0  0  0
 23 24  1  0  0  0  0
 25 26  2  0  0  0  0
 25 24  1  0  0  0  0
 27 28  1  0  0  0  0
 27 25  1  0  0  0  0
 28 29  2  0  0  0  0
 30 28  1  0  0  0  0
 31 30  1  0  0  0  0
 32 31  1  0  0  0  0
M  END
>  <MODEL>
6

>  <REMARK>
 VINA RESULT:      -4.6      3.323      7.876
  Name = 
  21 active torsions:
  status: ('A' for Active; 'I' for Inactive)
    1  A    between atoms: C_1  and  O_20
    2  A    between atoms: C_2  and  C_9
    3  A    between atoms: C_2  and  C_23
    4  A    between atoms: C_3  and  N_14
    5  A    between atoms: C_4  and  O_5
    6  A    between atoms: C_4  and  N_13
    7  A    between atoms: C_6  and  O_31
    8  A    between atoms: C_7  and  N_27
    9  A    between atoms: C_7  and  C_32
   10  A    between atoms: C_8  and  C_23
   11  A    between atoms: C_8  and  C_28
   12  A    between atoms: C_9  and  C_10
   13  A    between atoms: C_10  and  C_19
   14  A    between atoms: N_13  and  C_15
   15  A    between atoms: N_14  and  C_26
   16  A    between atoms: N_14  and  C_28
   17  A    between atoms: C_15  and  C_26
   18  A    between atoms: C_16  and  C_26
   19  A    between atoms: C_16  and  N_27
   20  A    between atoms: C_16  and  O_31
   21  A    between atoms: C_19  and  O_20
                            x       y       z     vdW  Elec       q    Type
                         _______ _______ _______ _____ _____    ______ ____

>  <TORSDO>
F 21

$$$$
=
 OpenBabel10262421403D

 32 32  0  0  1  0  0  0  0  0999 V2000
  189.3820  177.3480  138.1130 C   0  0  2  0  0  3  0  0  0  0  0  0
  190.0510  176.0640  137.6100 C   0  0  1  0  0  3  0  0  0  0  0  0
  189.0970  175.0830  137.3230 O   0  0  0  0  0  0  0  0  0  0  0  0
  188.7510  175.2950  135.9870 C   0  0  0  0  0  2  0  0  0  0  0  0
  187.3990  174.6700  135.7130 C   0  0  0  0  0  1  0  0  0  0  0  0
  190.8290  176.3540  136.4140 N   0  0  0  0  0  2  0  0  0  0  0  0
  191.8280  175.3060  136.2760 C   0  0  0  0  0  2  0  0  0  0  0  0
  194.1410  174.7370  136.9640 C   0  0  1  0  0  3  0  0  0  0  0  0
  194.7740  176.0390  136.8350 N   0  0  0  0  0  2  0  0  0  0  0  0
  193.5860  176.7010  137.2080 N   0  0  0  0  0  2  0  0  0  0  0  0
  194.7230  174.0060  138.1570 C   0  0  0  0  0  1  0  0  0  0  0  0
  192.8820  175.4400  137.3660 C   0  0  1  0  0  3  0  0  0  0  0  0
  189.1050  178.3850  137.0110 C   0  0  0  0  0  2  0  0  0  0  0  0
  187.8420  179.0750  137.2200 N   0  0  0  0  0  2  0  0  0  0  0  0
  186.8100  178.0560  137.2500 C   0  0  0  0  0  2  0  0  0  0  0  0
  186.2080  178.0410  138.5060 O   0  0  0  0  0  0  0  0  0  0  0  0
  184.8810  178.3930  138.2630 C   0  0  0  0  0  1  0  0  0  0  0  0
  189.9980  177.8640  139.3520 N   0  0  0  0  0  0  0  0  0  0  0  0
  190.8760  176.8570  139.9590 C   0  0  0  0  0  2  0  0  0  0  0  0
  192.0910  177.4560  140.6630 C   0  0  0  0  0  1  0  0  0  0  0  0
  189.0320  178.3870  140.3200 C   0  0  0  0  0  2  0  0  0  0  0  0
  188.4450  177.2590  141.1600 C   0  0  0  0  0  2  0  0  0  0  0  0
  188.6030  177.5380  142.6460 C   0  0  0  0  0  2  0  0  0  0  0  0
  189.2780  176.3650  143.3390 C   0  0  0  0  0  2  0  0  0  0  0  0
  190.3270  176.8520  144.2840 C   0  0  0  0  0  0  0  0  0  0  0  0
  191.4490  176.3700  144.2590 O   0  0  0  0  0  0  0  0  0  0  0  0
  190.0000  177.9310  145.2620 C   0  0  0  0  0  2  0  0  0  0  0  0
  189.3600  177.3510  146.4850 C   0  0  0  0  0  0  0  0  0  0  0  0
  190.0130  176.5380  147.1890 O   0  0  0  0  0  0  0  0  0  0  0  0
  188.0700  177.7100  146.8780 O   0  0  0  0  0  0  0  0  0  0  0  0
  187.0360  177.9760  145.9420 C   0  0  0  0  0  2  0  0  0  0  0  0
  185.5810  178.6200  146.8120 S   0  0  0  0  0  1  0  0  0  0  0  0
  1 13  1  6  0  0  0
  1 18  1  0  0  0  0
  2  6  1  6  0  0  0
  2  1  1  0  0  0  0
  3  2  1  0  0  0  0
  4  3  1  0  0  0  0
  5  4  1  0  0  0  0
  7  6  1  0  0  0  0
  8 12  1  0  0  0  0
  8 11  1  1  0  0  0
  9  8  1  0  0  0  0
  9 10  1  0  0  0  0
 10 12  1  0  0  0  0
 12  7  1  6  0  0  0
 13 14  1  0  0  0  0
 14 15  1  0  0  0  0
 15 16  1  0  0  0  0
 17 16  1  0  0  0  0
 18 19  1  0  0  0  0
 18 21  1  0  0  0  0
 19 20  1  0  0  0  0
 21 22  1  0  0  0  0
 22 23  1  0  0  0  0
 23 24  1  0  0  0  0
 24 25  1  0  0  0  0
 25 27  1  0  0  0  0
 26 25  2  0  0  0  0
 27 28  1  0  0  0  0
 28 30  1  0  0  0  0
 28 29  2  0  0  0  0
 31 32  1  0  0  0  0
 31 30  1  0  0  0  0
M  END
>  <MODEL>
7

>  <REMARK>
 VINA RESULT:      -4.5      2.242      3.417
  Name = 
  21 active torsions:
  status: ('A' for Active; 'I' for Inactive)
    1  A    between atoms: C_1  and  O_20
    2  A    between atoms: C_2  and  C_9
    3  A    between atoms: C_2  and  C_23
    4  A    between atoms: C_3  and  N_14
    5  A    between atoms: C_4  and  O_5
    6  A    between atoms: C_4  and  N_13
    7  A    between atoms: C_6  and  O_31
    8  A    between atoms: C_7  and  N_27
    9  A    between atoms: C_7  and  C_32
   10  A    between atoms: C_8  and  C_23
   11  A    between atoms: C_8  and  C_28
   12  A    between atoms: C_9  and  C_10
   13  A    between atoms: C_10  and  C_19
   14  A    between atoms: N_13  and  C_15
   15  A    between atoms: N_14  and  C_26
   16  A    between atoms: N_14  and  C_28
   17  A    between atoms: C_15  and  C_26
   18  A    between atoms: C_16  and  C_26
   19  A    between atoms: C_16  and  N_27
   20  A    between atoms: C_16  and  O_31
   21  A    between atoms: C_19  and  O_20
                            x       y       z     vdW  Elec       q    Type
                         _______ _______ _______ _____ _____    ______ ____

>  <TORSDO>
F 21

$$$$
=
 OpenBabel10262421403D

 32 32  0  0  1  0  0  0  0  0999 V2000
  188.4100  177.0840  142.8960 C   0  0  2  0  0  3  0  0  0  0  0  0
  187.2460  177.6150  143.7400 C   0  0  1  0  0  3  0  0  0  0  0  0
  186.0370  177.5100  143.0460 O   0  0  0  0  0  0  0  0  0  0  0  0
  185.4660  178.7810  143.1200 C   0  0  0  0  0  2  0  0  0  0  0  0
  184.0700  178.6720  143.6960 C   0  0  0  0  0  1  0  0  0  0  0  0
  187.1610  176.8650  144.9850 N   0  0  0  0  0  2  0  0  0  0  0  0
  187.3990  177.7980  146.0750 C   0  0  0  0  0  2  0  0  0  0  0  0
  189.4190  177.9770  147.5020 C   0  0  1  0  0  3  0  0  0  0  0  0
  188.8010  178.2510  148.7890 N   0  0  0  0  0  2  0  0  0  0  0  0
  187.6790  177.4590  148.4660 N   0  0  0  0  0  2  0  0  0  0  0  0
  190.6360  177.0950  147.7010 C   0  0  0  0  0  1  0  0  0  0  0  0
  188.2320  177.1320  147.1620 C   0  0  1  0  0  3  0  0  0  0  0  0
  189.1790  175.9230  143.5490 C   0  0  0  0  0  2  0  0  0  0  0  0
  190.3950  175.6000  142.8190 N   0  0  0  0  0  2  0  0  0  0  0  0
  191.5060  175.9150  143.6990 C   0  0  0  0  0  2  0  0  0  0  0  0
  192.0640  174.7340  144.1830 O   0  0  0  0  0  0  0  0  0  0  0  0
  192.1870  174.9410  145.5560 C   0  0  0  0  0  1  0  0  0  0  0  0
  189.2330  178.1640  142.3160 N   0  0  0  0  0  0  0  0  0  0  0  0
  189.4550  179.2360  143.2930 C   0  0  0  0  0  2  0  0  0  0  0  0
  190.8260  179.1730  143.9600 C   0  0  0  0  0  1  0  0  0  0  0  0
  188.7130  178.6890  141.0520 C   0  0  0  0  0  2  0  0  0  0  0  0
  188.6940  177.6030  139.9830 C   0  0  0  0  0  2  0  0  0  0  0  0
  189.9280  177.6770  139.0970 C   0  0  0  0  0  2  0  0  0  0  0  0
  189.5490  177.4790  137.6390 C   0  0  0  0  0  2  0  0  0  0  0  0
  188.6910  178.6060  137.1660 C   0  0  0  0  0  0  0  0  0  0  0  0
  189.0420  179.7620  137.3400 O   0  0  0  0  0  0  0  0  0  0  0  0
  187.3980  178.3150  136.4790 C   0  0  0  0  0  2  0  0  0  0  0  0
  186.3310  178.0060  137.4830 C   0  0  0  0  0  0  0  0  0  0  0  0
  185.8370  178.9460  138.1580 O   0  0  0  0  0  0  0  0  0  0  0  0
  185.8520  176.7080  137.6700 O   0  0  0  0  0  0  0  0  0  0  0  0
  185.8500  175.7420  136.6300 C   0  0  0  0  0  2  0  0  0  0  0  0
  185.2990  174.1450  137.2880 S   0  0  0  0  0  1  0  0  0  0  0  0
  1 13  1  1  0  0  0
  1  2  1  0  0  0  0
  2  3  1  6  0  0  0
  2  6  1  0  0  0  0
  3  4  1  0  0  0  0
  4  5  1  0  0  0  0
  6  7  1  0  0  0  0
  8 11  1  1  0  0  0
  8  9  1  0  0  0  0
 10  9  1  0  0  0  0
 12  7  1  6  0  0  0
 12  8  1  0  0  0  0
 12 10  1  0  0  0  0
 14 13  1  0  0  0  0
 14 15  1  0  0  0  0
 15 16  1  0  0  0  0
 16 17  1  0  0  0  0
 18  1  1  0  0  0  0
 18 19  1  0  0  0  0
 19 20  1  0  0  0  0
 21 18  1  0  0  0  0
 22 21  1  0  0  0  0
 23 22  1  0  0  0  0
 24 23  1  0  0  0  0
 25 26  2  0  0  0  0
 25 24  1  0  0  0  0
 27 25  1  0  0  0  0
 27 28  1  0  0  0  0
 28 30  1  0  0  0  0
 28 29  2  0  0  0  0
 31 32  1  0  0  0  0
 31 30  1  0  0  0  0
M  END
>  <MODEL>
8

>  <REMARK>
 VINA RESULT:      -4.5      3.107      8.185
  Name = 
  21 active torsions:
  status: ('A' for Active; 'I' for Inactive)
    1  A    between atoms: C_1  and  O_20
    2  A    between atoms: C_2  and  C_9
    3  A    between atoms: C_2  and  C_23
    4  A    between atoms: C_3  and  N_14
    5  A    between atoms: C_4  and  O_5
    6  A    between atoms: C_4  and  N_13
    7  A    between atoms: C_6  and  O_31
    8  A    between atoms: C_7  and  N_27
    9  A    between atoms: C_7  and  C_32
   10  A    between atoms: C_8  and  C_23
   11  A    between atoms: C_8  and  C_28
   12  A    between atoms: C_9  and  C_10
   13  A    between atoms: C_10  and  C_19
   14  A    between atoms: N_13  and  C_15
   15  A    between atoms: N_14  and  C_26
   16  A    between atoms: N_14  and  C_28
   17  A    between atoms: C_15  and  C_26
   18  A    between atoms: C_16  and  C_26
   19  A    between atoms: C_16  and  N_27
   20  A    between atoms: C_16  and  O_31
   21  A    between atoms: C_19  and  O_20
                            x       y       z     vdW  Elec       q    Type
                         _______ _______ _______ _____ _____    ______ ____

>  <TORSDO>
F 21

$$$$
=
 OpenBabel10262421403D

 32 32  0  0  1  0  0  0  0  0999 V2000
  186.9980  178.2920  141.1180 C   0  0  2  0  0  3  0  0  0  0  0  0
  185.7920  179.1790  141.4420 C   0  0  1  0  0  3  0  0  0  0  0  0
  185.1260  179.5620  140.2740 O   0  0  0  0  0  0  0  0  0  0  0  0
  183.9370  178.8310  140.2790 C   0  0  0  0  0  2  0  0  0  0  0  0
  183.0740  179.2680  139.1140 C   0  0  0  0  0  1  0  0  0  0  0  0
  184.8740  178.4610  142.3140 N   0  0  0  0  0  2  0  0  0  0  0  0
  184.7520  179.2240  143.5460 C   0  0  0  0  0  2  0  0  0  0  0  0
  186.1680  178.5450  145.4640 C   0  0  1  0  0  3  0  0  0  0  0  0
  185.4030  179.1110  146.5620 N   0  0  0  0  0  2  0  0  0  0  0  0
  184.1860  178.8850  145.8850 N   0  0  0  0  0  2  0  0  0  0  0  0
  186.7740  177.2230  145.8970 C   0  0  0  0  0  1  0  0  0  0  0  0
  184.8770  178.3000  144.7500 C   0  0  1  0  0  3  0  0  0  0  0  0
  188.0330  178.2020  142.2530 C   0  0  0  0  0  2  0  0  0  0  0  0
  188.3770  176.8240  142.5660 N   0  0  0  0  0  2  0  0  0  0  0  0
  189.6230  176.8630  143.3090 C   0  0  0  0  0  2  0  0  0  0  0  0
  190.3070  175.6620  143.1300 O   0  0  0  0  0  0  0  0  0  0  0  0
  191.5800  175.9050  143.6440 C   0  0  0  0  0  1  0  0  0  0  0  0
  187.5370  178.5330  139.7650 N   0  0  0  0  0  0  0  0  0  0  0  0
  187.0460  177.5250  138.8180 C   0  0  0  0  0  2  0  0  0  0  0  0
  186.5460  178.1210  137.5040 C   0  0  0  0  0  1  0  0  0  0  0  0
  188.9970  178.6450  139.7210 C   0  0  0  0  0  2  0  0  0  0  0  0
  189.6280  177.3090  139.3470 C   0  0  0  0  0  2  0  0  0  0  0  0
  190.5180  177.4430  138.1210 C   0  0  0  0  0  2  0  0  0  0  0  0
  191.7950  176.6380  138.3000 C   0  0  0  0  0  2  0  0  0  0  0  0
  192.2080  176.0220  137.0040 C   0  0  0  0  0  0  0  0  0  0  0  0
  191.3670  175.6980  136.1810 O   0  0  0  0  0  0  0  0  0  0  0  0
  193.6560  175.8020  136.7160 C   0  0  0  0  0  2  0  0  0  0  0  0
  194.1450  174.5680  137.4070 C   0  0  0  0  0  0  0  0  0  0  0  0
  193.3500  173.6080  137.5770 O   0  0  0  0  0  0  0  0  0  0  0  0
  195.4650  174.4440  137.8420 O   0  0  0  0  0  0  0  0  0  0  0  0
  195.9020  173.3590  138.6470 C   0  0  0  0  0  2  0  0  0  0  0  0
  196.6190  172.0720  137.5910 S   0  0  0  0  0  1  0  0  0  0  0  0
  1  2  1  0  0  0  0
  1 13  1  1  0  0  0
  2  3  1  6  0  0  0
  2  6  1  0  0  0  0
  3  4  1  0  0  0  0
  5  4  1  0  0  0  0
  6  7  1  0  0  0  0
  8 11  1  1  0  0  0
  8  9  1  0  0  0  0
 10  9  1  0  0  0  0
 12  7  1  6  0  0  0
 12  8  1  0  0  0  0
 12 10  1  0  0  0  0
 13 14  1  0  0  0  0
 14 15  1  0  0  0  0
 16 15  1  0  0  0  0
 16 17  1  0  0  0  0
 18  1  1  0  0  0  0
 19 18  1  0  0  0  0
 20 19  1  0  0  0  0
 21 18  1  0  0  0  0
 22 21  1  0  0  0  0
 23 24  1  0  0  0  0
 23 22  1  0  0  0  0
 25 24  1  0  0  0  0
 26 25  2  0  0  0  0
 27 25  1  0  0  0  0
 27 28  1  0  0  0  0
 28 29  2  0  0  0  0
 28 30  1  0  0  0  0
 30 31  1  0  0  0  0
 32 31  1  0  0  0  0
M  END
>  <MODEL>
9

>  <REMARK>
 VINA RESULT:      -4.5      4.300      8.466
  Name = 
  21 active torsions:
  status: ('A' for Active; 'I' for Inactive)
    1  A    between atoms: C_1  and  O_20
    2  A    between atoms: C_2  and  C_9
    3  A    between atoms: C_2  and  C_23
    4  A    between atoms: C_3  and  N_14
    5  A    between atoms: C_4  and  O_5
    6  A    between atoms: C_4  and  N_13
    7  A    between atoms: C_6  and  O_31
    8  A    between atoms: C_7  and  N_27
    9  A    between atoms: C_7  and  C_32
   10  A    between atoms: C_8  and  C_23
   11  A    between atoms: C_8  and  C_28
   12  A    between atoms: C_9  and  C_10
   13  A    between atoms: C_10  and  C_19
   14  A    between atoms: N_13  and  C_15
   15  A    between atoms: N_14  and  C_26
   16  A    between atoms: N_14  and  C_28
   17  A    between atoms: C_15  and  C_26
   18  A    between atoms: C_16  and  C_26
   19  A    between atoms: C_16  and  N_27
   20  A    between atoms: C_16  and  O_31
   21  A    between atoms: C_19  and  O_20
                            x       y       z     vdW  Elec       q    Type
                         _______ _______ _______ _____ _____    ______ ____

>  <TORSDO>
F 21

$$$$
