=
 OpenBabel10262421143D

 32 37  0  0  1  0  0  0  0  0999 V2000
  189.8060  177.1460  142.9820 C   0  0  0  0  0  0  0  0  0  0  0  0
  187.9620  178.0130  144.4050 C   0  0  2  0  0  3  0  0  0  0  0  0
  191.1040  176.6380  142.8380 C   0  0  0  0  0  3  0  0  0  0  0  0
  189.2920  177.3530  144.2720 C   0  0  0  0  0  0  0  0  0  0  0  0
  187.3450  177.8500  145.7650 C   0  0  0  0  0  0  0  0  0  0  0  0
  183.5370  178.8160  142.5910 C   0  0  0  0  0  3  0  0  0  0  0  0
  187.0360  177.4790  143.3180 C   0  0  2  0  0  3  0  0  0  0  0  0
  183.9110  178.8090  144.9890 C   0  0  0  0  0  3  0  0  0  0  0  0
  185.2100  178.3350  144.7880 C   0  0  0  0  0  0  0  0  0  0  0  0
  190.0390  177.0300  145.4120 C   0  0  0  0  0  0  0  0  0  0  0  0
  186.0690  178.0720  145.9170 N   0  0  0  0  0  0  0  0  0  0  0  0
  189.4630  177.1840  146.7220 N   0  0  0  0  0  0  0  0  0  0  0  0
  191.3320  176.5180  145.2580 C   0  0  0  0  0  3  0  0  0  0  0  0
  187.6520  177.6740  142.0010 N   0  0  0  0  0  0  0  0  0  0  0  0
  188.9310  177.4570  141.8150 C   0  0  0  0  0  0  0  0  0  0  0  0
  185.6780  178.1040  143.4720 C   0  0  0  0  0  0  0  0  0  0  0  0
  188.2240  177.5530  146.9170 C   0  0  0  0  0  0  0  0  0  0  0  0
  191.8640  176.3300  143.9750 C   0  0  0  0  0  3  0  0  0  0  0  0
  183.0790  179.0560  143.8920 C   0  0  0  0  0  3  0  0  0  0  0  0
  184.8310  178.3300  142.3810 C   0  0  0  0  0  3  0  0  0  0  0  0
  187.8040  177.2690  138.5810 C   0  0  1  0  0  3  0  0  0  0  0  0
  190.5330  175.9350  136.5000 O   0  0  0  0  0  0  0  0  0  0  0  0
  186.4960  177.8460  138.0800 C   0  0  0  0  0  1  0  0  0  0  0  0
  190.8140  176.5570  138.7730 C   0  0  0  0  0  2  0  0  0  0  0  0
  189.5220  177.6160  140.4490 C   0  0  1  0  0  3  0  0  0  0  0  0
  188.6420  176.8940  137.4430 N   0  0  0  0  0  2  0  0  0  0  0  0
  190.0060  176.3240  139.9600 N   0  0  0  0  0  2  0  0  0  0  0  0
  188.5010  178.2720  139.5070 C   0  0  1  0  0  3  0  0  0  0  0  0
  189.1060  179.2990  138.7760 O   0  0  0  0  0  1  0  0  0  0  0  0
  189.9920  176.4160  137.5280 C   0  0  0  0  0  0  0  0  0  0  0  0
  187.7080  177.6500  148.2460 N   0  0  0  0  0  2  0  0  0  0  0  0
  188.3670  178.1890  149.1580 O   0  0  0  0  0  1  0  0  0  0  0  0
  1  4  1  0  0  0  0
  2  4  1  1  0  0  0
  2  5  1  0  0  0  0
  3  1  2  0  0  0  0
  3 18  1  0  0  0  0
  4 10  2  0  0  0  0
  5 11  2  0  0  0  0
  5 17  1  0  0  0  0
  6 19  1  0  0  0  0
  7 14  1  6  0  0  0
  7 16  1  0  0  0  0
  7  2  1  0  0  0  0
  9  8  1  0  0  0  0
  9 11  1  0  0  0  0
 10 12  1  0  0  0  0
 12 17  2  0  0  0  0
 13 10  1  0  0  0  0
 15 14  2  0  0  0  0
 15  1  1  0  0  0  0
 16  9  2  0  0  0  0
 17 31  1  0  0  0  0
 18 13  2  0  0  0  0
 19  8  2  0  0  0  0
 20  6  2  0  0  0  0
 20 16  1  0  0  0  0
 21 23  1  6  0  0  0
 21 28  1  0  0  0  0
 22 30  2  0  0  0  0
 24 27  1  0  0  0  0
 25 15  1  1  0  0  0
 26 30  1  0  0  0  0
 26 21  1  0  0  0  0
 27 25  1  0  0  0  0
 28 29  1  6  0  0  0
 28 25  1  0  0  0  0
 30 24  1  0  0  0  0
 31 32  1  0  0  0  0
M  END
>  <MODEL>
1

>  <REMARK>
 VINA RESULT:     -11.8      0.000      0.000
  Name = 
  2 active torsions:
  status: ('A' for Active; 'I' for Inactive)
    1  A    between atoms: N_13  and  C_29
    2  A    between atoms: C_16  and  C_27
                            x       y       z     vdW  Elec       q    Type
                         _______ _______ _______ _____ _____    ______ ____

>  <TORSDO>
F 2

$$$$
=
 OpenBabel10262421143D

 32 37  0  0  1  0  0  0  0  0999 V2000
  184.6390  178.7360  142.9570 C   0  0  0  0  0  0  0  0  0  0  0  0
  186.8980  177.7080  142.8320 C   0  0  2  0  0  3  0  0  0  0  0  0
  183.5140  179.1300  143.6930 C   0  0  0  0  0  3  0  0  0  0  0  0
  185.7630  178.2410  143.6370 C   0  0  0  0  0  0  0  0  0  0  0  0
  188.1710  177.5590  143.6160 C   0  0  0  0  0  0  0  0  0  0  0  0
  189.5270  177.8750  138.7610 C   0  0  0  0  0  3  0  0  0  0  0  0
  187.1070  178.6060  141.6180 C   0  0  2  0  0  3  0  0  0  0  0  0
  190.5370  177.1970  140.8610 C   0  0  0  0  0  3  0  0  0  0  0  0
  189.3770  177.5740  141.5430 C   0  0  0  0  0  0  0  0  0  0  0  0
  185.7900  178.1680  145.0360 C   0  0  0  0  0  0  0  0  0  0  0  0
  189.3020  177.4350  142.9770 N   0  0  0  0  0  0  0  0  0  0  0  0
  186.9810  177.7250  145.7130 N   0  0  0  0  0  0  0  0  0  0  0  0
  184.6650  178.5680  145.7630 C   0  0  0  0  0  3  0  0  0  0  0  0
  185.8550  178.7120  140.8590 N   0  0  0  0  0  0  0  0  0  0  0  0
  184.7040  178.8410  141.4710 C   0  0  0  0  0  0  0  0  0  0  0  0
  188.2790  178.1030  140.8240 C   0  0  0  0  0  0  0  0  0  0  0  0
  188.0940  177.4450  145.0880 C   0  0  0  0  0  0  0  0  0  0  0  0
  183.5280  179.0410  145.0920 C   0  0  0  0  0  3  0  0  0  0  0  0
  190.6090  177.3410  139.4710 C   0  0  0  0  0  3  0  0  0  0  0  0
  188.3680  178.2660  139.4360 C   0  0  0  0  0  3  0  0  0  0  0  0
  183.1250  177.1180  138.9610 C   0  0  1  0  0  3  0  0  0  0  0  0
  181.4360  179.5630  136.7870 O   0  0  0  0  0  0  0  0  0  0  0  0
  182.9720  175.6110  138.9010 C   0  0  0  0  0  1  0  0  0  0  0  0
  182.4530  180.1400  138.8520 C   0  0  0  0  0  2  0  0  0  0  0  0
  183.4490  178.9980  140.6690 C   0  0  1  0  0  3  0  0  0  0  0  0
  182.2520  177.7380  137.9660 N   0  0  0  0  0  2  0  0  0  0  0  0
  183.7230  179.7700  139.4570 N   0  0  0  0  0  2  0  0  0  0  0  0
  182.8340  177.6190  140.3790 C   0  0  1  0  0  3  0  0  0  0  0  0
  181.4600  177.6380  140.6370 O   0  0  0  0  0  1  0  0  0  0  0  0
  182.0480  179.1480  137.8040 C   0  0  0  0  0  0  0  0  0  0  0  0
  189.2490  177.0450  145.8290 N   0  0  0  0  0  2  0  0  0  0  0  0
  189.1670  176.7290  147.0340 O   0  0  0  0  0  1  0  0  0  0  0  0
  1  4  2  0  0  0  0
  1  3  1  0  0  0  0
  2  5  1  1  0  0  0
  2  4  1  0  0  0  0
  3 18  2  0  0  0  0
  4 10  1  0  0  0  0
  5 17  1  0  0  0  0
  6 20  2  0  0  0  0
  6 19  1  0  0  0  0
  7 16  1  6  0  0  0
  7  2  1  0  0  0  0
  8  9  1  0  0  0  0
  9 11  1  0  0  0  0
 10 12  1  0  0  0  0
 10 13  2  0  0  0  0
 11  5  2  0  0  0  0
 14 15  2  0  0  0  0
 14  7  1  0  0  0  0
 15  1  1  0  0  0  0
 16  9  2  0  0  0  0
 17 12  2  0  0  0  0
 17 31  1  0  0  0  0
 18 13  1  0  0  0  0
 19  8  2  0  0  0  0
 20 16  1  0  0  0  0
 21 23  1  1  0  0  0
 21 28  1  0  0  0  0
 22 30  2  0  0  0  0
 24 27  1  0  0  0  0
 25 15  1  6  0  0  0
 26 21  1  0  0  0  0
 27 25  1  0  0  0  0
 28 29  1  6  0  0  0
 28 25  1  0  0  0  0
 30 26  1  0  0  0  0
 30 24  1  0  0  0  0
 31 32  1  0  0  0  0
M  END
>  <MODEL>
2

>  <REMARK>
 VINA RESULT:     -11.3      3.114      5.906
  Name = 
  2 active torsions:
  status: ('A' for Active; 'I' for Inactive)
    1  A    between atoms: N_13  and  C_29
    2  A    between atoms: C_16  and  C_27
                            x       y       z     vdW  Elec       q    Type
                         _______ _______ _______ _____ _____    ______ ____

>  <TORSDO>
F 2

$$$$
=
 OpenBabel10262421143D

 32 37  0  0  1  0  0  0  0  0999 V2000
  185.8410  178.1300  144.2230 C   0  0  0  0  0  0  0  0  0  0  0  0
  188.0740  177.4030  143.4090 C   0  0  2  0  0  3  0  0  0  0  0  0
  184.9570  178.4260  145.2690 C   0  0  0  0  0  3  0  0  0  0  0  0
  187.1820  177.8410  144.5200 C   0  0  0  0  0  0  0  0  0  0  0  0
  189.5360  177.4840  143.7470 C   0  0  0  0  0  0  0  0  0  0  0  0
  189.2400  177.6090  138.7070 C   0  0  0  0  0  3  0  0  0  0  0  0
  187.7550  178.2270  142.1670 C   0  0  2  0  0  3  0  0  0  0  0  0
  190.9460  177.2320  140.3920 C   0  0  0  0  0  3  0  0  0  0  0  0
  190.0160  177.5030  141.3990 C   0  0  0  0  0  0  0  0  0  0  0  0
  187.6570  177.8780  145.8380 C   0  0  0  0  0  0  0  0  0  0  0  0
  190.4160  177.4630  142.7840 N   0  0  0  0  0  0  0  0  0  0  0  0
  189.0520  177.6490  146.1100 N   0  0  0  0  0  0  0  0  0  0  0  0
  186.7680  178.1790  146.8750 C   0  0  0  0  0  3  0  0  0  0  0  0
  186.3280  178.1090  141.8470 N   0  0  0  0  0  0  0  0  0  0  0  0
  185.4200  178.1300  142.7920 C   0  0  0  0  0  0  0  0  0  0  0  0
  188.6820  177.8250  141.0540 C   0  0  0  0  0  0  0  0  0  0  0  0
  189.9420  177.4720  145.1700 C   0  0  0  0  0  0  0  0  0  0  0  0
  185.4220  178.4450  146.5910 C   0  0  0  0  0  3  0  0  0  0  0  0
  190.5570  177.2790  139.0480 C   0  0  0  0  0  3  0  0  0  0  0  0
  188.3060  177.8940  139.7070 C   0  0  0  0  0  3  0  0  0  0  0  0
  183.4510  179.1780  140.1870 C   0  0  1  0  0  3  0  0  0  0  0  0
  180.1440  180.0640  141.5430 O   0  0  0  0  0  0  0  0  0  0  0  0
  183.8180  179.0740  138.7200 C   0  0  0  0  0  1  0  0  0  0  0  0
  181.8360  179.0030  142.8250 C   0  0  0  0  0  2  0  0  0  0  0  0
  183.9690  178.0580  142.4310 C   0  0  1  0  0  3  0  0  0  0  0  0
  182.0310  179.5040  140.3130 N   0  0  0  0  0  2  0  0  0  0  0  0
  183.2670  179.2350  142.9440 N   0  0  0  0  0  2  0  0  0  0  0  0
  183.8120  177.8780  140.9120 C   0  0  1  0  0  3  0  0  0  0  0  0
  182.8840  176.8700  140.6380 O   0  0  0  0  0  1  0  0  0  0  0  0
  181.3030  179.5760  141.5470 C   0  0  0  0  0  0  0  0  0  0  0  0
  191.3170  177.2870  145.5130 N   0  0  0  0  0  2  0  0  0  0  0  0
  191.6700  177.1120  146.6970 O   0  0  0  0  0  1  0  0  0  0  0  0
  1  4  2  0  0  0  0
  1  3  1  0  0  0  0
  2  5  1  1  0  0  0
  2  4  1  0  0  0  0
  3 18  2  0  0  0  0
  4 10  1  0  0  0  0
  5 17  1  0  0  0  0
  6 19  2  0  0  0  0
  6 20  1  0  0  0  0
  7 16  1  6  0  0  0
  7  2  1  0  0  0  0
  8  9  2  0  0  0  0
  9 11  1  0  0  0  0
 10 12  1  0  0  0  0
 10 13  2  0  0  0  0
 11  5  2  0  0  0  0
 14  7  1  0  0  0  0
 14 15  2  0  0  0  0
 15  1  1  0  0  0  0
 16  9  1  0  0  0  0
 17 31  1  0  0  0  0
 17 12  2  0  0  0  0
 18 13  1  0  0  0  0
 19  8  1  0  0  0  0
 20 16  2  0  0  0  0
 21 23  1  6  0  0  0
 21 26  1  0  0  0  0
 21 28  1  0  0  0  0
 22 30  2  0  0  0  0
 24 27  1  0  0  0  0
 25 15  1  6  0  0  0
 25 27  1  0  0  0  0
 26 30  1  0  0  0  0
 28 29  1  1  0  0  0
 28 25  1  0  0  0  0
 30 24  1  0  0  0  0
 31 32  1  0  0  0  0
M  END
>  <MODEL>
3

>  <REMARK>
 VINA RESULT:     -10.4      2.919      5.997
  Name = 
  2 active torsions:
  status: ('A' for Active; 'I' for Inactive)
    1  A    between atoms: N_13  and  C_29
    2  A    between atoms: C_16  and  C_27
                            x       y       z     vdW  Elec       q    Type
                         _______ _______ _______ _____ _____    ______ ____

>  <TORSDO>
F 2

$$$$
=
 OpenBabel10262421143D

 32 37  0  0  1  0  0  0  0  0999 V2000
  188.6630  177.8250  140.8070 C   0  0  0  0  0  0  0  0  0  0  0  0
  188.7350  178.2070  143.2620 C   0  0  2  0  0  3  0  0  0  0  0  0
  189.3070  177.5580  139.5910 C   0  0  0  0  0  3  0  0  0  0  0  0
  189.4080  177.7960  141.9970 C   0  0  0  0  0  0  0  0  0  0  0  0
  189.4790  177.7900  144.4980 C   0  0  0  0  0  0  0  0  0  0  0  0
  184.6740  178.4720  145.8970 C   0  0  0  0  0  3  0  0  0  0  0  0
  187.3150  177.6560  143.2670 C   0  0  2  0  0  3  0  0  0  0  0  0
  186.8380  178.2520  146.9740 C   0  0  0  0  0  3  0  0  0  0  0  0
  187.4360  178.0240  145.7310 C   0  0  0  0  0  0  0  0  0  0  0  0
  190.7710  177.4710  141.9920 C   0  0  0  0  0  0  0  0  0  0  0  0
  188.8550  177.7790  145.6440 N   0  0  0  0  0  0  0  0  0  0  0  0
  191.4960  177.3770  143.2320 N   0  0  0  0  0  0  0  0  0  0  0  0
  191.4040  177.2010  140.7740 C   0  0  0  0  0  3  0  0  0  0  0  0
  186.6060  178.1000  142.0610 N   0  0  0  0  0  0  0  0  0  0  0  0
  187.2040  178.1190  140.8950 C   0  0  0  0  0  0  0  0  0  0  0  0
  186.6430  178.0260  144.5590 C   0  0  0  0  0  0  0  0  0  0  0  0
  190.9280  177.5110  144.4010 C   0  0  0  0  0  0  0  0  0  0  0  0
  190.6750  177.2520  139.5780 C   0  0  0  0  0  3  0  0  0  0  0  0
  185.4600  178.4820  147.0550 C   0  0  0  0  0  3  0  0  0  0  0  0
  185.2620  178.2330  144.6510 C   0  0  0  0  0  3  0  0  0  0  0  0
  183.9800  177.8270  139.7640 C   0  0  1  0  0  3  0  0  0  0  0  0
  184.0850  177.4690  136.1000 O   0  0  0  0  0  0  0  0  0  0  0  0
  182.7380  178.0370  140.6070 C   0  0  0  0  0  1  0  0  0  0  0  0
  185.9910  177.9950  137.4130 C   0  0  0  0  0  2  0  0  0  0  0  0
  186.4410  178.5290  139.6740 C   0  0  1  0  0  3  0  0  0  0  0  0
  183.6090  177.7830  138.3500 N   0  0  0  0  0  2  0  0  0  0  0  0
  186.4920  177.4640  138.6710 N   0  0  0  0  0  2  0  0  0  0  0  0
  185.0070  178.9250  140.0580 C   0  0  1  0  0  3  0  0  0  0  0  0
  184.6540  180.1270  139.4370 O   0  0  0  0  0  1  0  0  0  0  0  0
  184.5290  177.7060  137.2530 C   0  0  0  0  0  0  0  0  0  0  0  0
  191.7040  177.3690  145.5930 N   0  0  0  0  0  2  0  0  0  0  0  0
  192.0220  176.2430  146.0270 O   0  0  0  0  0  1  0  0  0  0  0  0
  1 15  1  0  0  0  0
  1  4  1  0  0  0  0
  2  4  1  6  0  0  0
  2  7  1  0  0  0  0
  2  5  1  0  0  0  0
  3  1  2  0  0  0  0
  5 11  2  0  0  0  0
  6 19  1  0  0  0  0
  7 14  1  6  0  0  0
  7 16  1  0  0  0  0
  8 19  2  0  0  0  0
  9  8  1  0  0  0  0
 10  4  2  0  0  0  0
 10 12  1  0  0  0  0
 11  9  1  0  0  0  0
 12 17  2  0  0  0  0
 13 10  1  0  0  0  0
 15 14  2  0  0  0  0
 16 20  1  0  0  0  0
 16  9  2  0  0  0  0
 17  5  1  0  0  0  0
 17 31  1  0  0  0  0
 18  3  1  0  0  0  0
 18 13  2  0  0  0  0
 20  6  2  0  0  0  0
 21 28  1  0  0  0  0
 21 23  1  1  0  0  0
 22 30  2  0  0  0  0
 24 27  1  0  0  0  0
 25 28  1  0  0  0  0
 25 15  1  1  0  0  0
 26 21  1  0  0  0  0
 27 25  1  0  0  0  0
 28 29  1  6  0  0  0
 30 24  1  0  0  0  0
 30 26  1  0  0  0  0
 31 32  1  0  0  0  0
M  END
>  <MODEL>
4

>  <REMARK>
 VINA RESULT:     -10.2      2.465      3.809
  Name = 
  2 active torsions:
  status: ('A' for Active; 'I' for Inactive)
    1  A    between atoms: N_13  and  C_29
    2  A    between atoms: C_16  and  C_27
                            x       y       z     vdW  Elec       q    Type
                         _______ _______ _______ _____ _____    ______ ____

>  <TORSDO>
F 2

$$$$
=
 OpenBabel10262421143D

 32 37  0  0  1  0  0  0  0  0999 V2000
  184.8400  178.2940  143.5870 C   0  0  0  0  0  0  0  0  0  0  0  0
  187.1980  177.5310  143.4000 C   0  0  2  0  0  3  0  0  0  0  0  0
  183.7200  178.6280  144.3610 C   0  0  0  0  0  3  0  0  0  0  0  0
  186.0550  178.0080  144.2290 C   0  0  0  0  0  0  0  0  0  0  0  0
  188.5230  177.6150  144.1010 C   0  0  0  0  0  0  0  0  0  0  0  0
  189.5390  177.5820  139.1540 C   0  0  0  0  0  3  0  0  0  0  0  0
  187.2210  178.3170  142.0940 C   0  0  2  0  0  3  0  0  0  0  0  0
  190.7480  177.2490  141.2320 C   0  0  0  0  0  3  0  0  0  0  0  0
  189.5930  177.5570  141.9560 C   0  0  0  0  0  0  0  0  0  0  0  0
  186.1740  178.0840  145.6230 C   0  0  0  0  0  0  0  0  0  0  0  0
  189.6220  177.5590  143.3980 N   0  0  0  0  0  0  0  0  0  0  0  0
  187.4490  177.8570  146.2530 N   0  0  0  0  0  0  0  0  0  0  0  0
  185.0530  178.4230  146.3870 C   0  0  0  0  0  3  0  0  0  0  0  0
  185.9220  178.1960  141.4190 N   0  0  0  0  0  0  0  0  0  0  0  0
  184.8020  178.2510  142.0970 C   0  0  0  0  0  0  0  0  0  0  0  0
  188.3970  177.8750  141.2690 C   0  0  0  0  0  0  0  0  0  0  0  0
  188.5490  177.6460  145.5800 C   0  0  0  0  0  0  0  0  0  0  0  0
  183.8290  178.6870  145.7570 C   0  0  0  0  0  3  0  0  0  0  0  0
  190.7190  177.2560  139.8330 C   0  0  0  0  0  3  0  0  0  0  0  0
  188.3820  177.9030  139.8700 C   0  0  0  0  0  3  0  0  0  0  0  0
  183.7430  178.4310  138.8400 C   0  0  1  0  0  3  0  0  0  0  0  0
  180.4270  180.0320  138.8070 O   0  0  0  0  0  0  0  0  0  0  0  0
  184.4260  177.7630  137.6640 C   0  0  0  0  0  1  0  0  0  0  0  0
  181.5370  179.3770  140.8000 C   0  0  0  0  0  2  0  0  0  0  0  0
  183.4920  178.1750  141.3760 C   0  0  1  0  0  3  0  0  0  0  0  0
  182.4190  178.9000  138.4350 N   0  0  0  0  0  2  0  0  0  0  0  0
  182.9150  179.5140  141.2440 N   0  0  0  0  0  2  0  0  0  0  0  0
  183.6750  177.4630  140.0260 C   0  0  1  0  0  3  0  0  0  0  0  0
  182.6710  176.5080  139.8440 O   0  0  0  0  0  1  0  0  0  0  0  0
  181.4420  179.4830  139.3080 C   0  0  0  0  0  0  0  0  0  0  0  0
  189.7860  177.4650  146.2710 N   0  0  0  0  0  2  0  0  0  0  0  0
  189.8190  176.9950  147.4270 O   0  0  0  0  0  1  0  0  0  0  0  0
  1  4  2  0  0  0  0
  1  3  1  0  0  0  0
  2  5  1  1  0  0  0
  2  4  1  0  0  0  0
  3 18  2  0  0  0  0
  4 10  1  0  0  0  0
  5 17  1  0  0  0  0
  6 19  2  0  0  0  0
  6 20  1  0  0  0  0
  7 16  1  6  0  0  0
  7  2  1  0  0  0  0
  8  9  2  0  0  0  0
  9 11  1  0  0  0  0
 10 12  1  0  0  0  0
 10 13  2  0  0  0  0
 11  5  2  0  0  0  0
 14  7  1  0  0  0  0
 14 15  2  0  0  0  0
 15  1  1  0  0  0  0
 16  9  1  0  0  0  0
 17 12  2  0  0  0  0
 17 31  1  0  0  0  0
 18 13  1  0  0  0  0
 19  8  1  0  0  0  0
 20 16  2  0  0  0  0
 21 23  1  6  0  0  0
 21 28  1  0  0  0  0
 22 30  2  0  0  0  0
 24 27  1  0  0  0  0
 25 15  1  6  0  0  0
 26 21  1  0  0  0  0
 26 30  1  0  0  0  0
 27 25  1  0  0  0  0
 28 29  1  6  0  0  0
 28 25  1  0  0  0  0
 30 24  1  0  0  0  0
 31 32  1  0  0  0  0
M  END
>  <MODEL>
5

>  <REMARK>
 VINA RESULT:     -10.1      2.939      5.864
  Name = 
  2 active torsions:
  status: ('A' for Active; 'I' for Inactive)
    1  A    between atoms: N_13  and  C_29
    2  A    between atoms: C_16  and  C_27
                            x       y       z     vdW  Elec       q    Type
                         _______ _______ _______ _____ _____    ______ ____

>  <TORSDO>
F 2

$$$$
=
 OpenBabel10262421143D

 32 37  0  0  1  0  0  0  0  0999 V2000
  189.7820  177.5350  141.8170 C   0  0  0  0  0  0  0  0  0  0  0  0
  188.1180  178.2600  143.5160 C   0  0  2  0  0  3  0  0  0  0  0  0
  191.0790  177.1350  141.4680 C   0  0  0  0  0  3  0  0  0  0  0  0
  189.4610  177.7100  143.1720 C   0  0  0  0  0  0  0  0  0  0  0  0
  187.7390  178.0570  144.9550 C   0  0  0  0  0  0  0  0  0  0  0  0
  183.4130  178.6810  142.4230 C   0  0  0  0  0  3  0  0  0  0  0  0
  187.0810  177.6420  142.5860 C   0  0  2  0  0  3  0  0  0  0  0  0
  184.1580  178.7240  144.7330 C   0  0  0  0  0  3  0  0  0  0  0  0
  185.4440  178.3570  144.3280 C   0  0  0  0  0  0  0  0  0  0  0  0
  190.4020  177.4580  144.1790 C   0  0  0  0  0  0  0  0  0  0  0  0
  186.4880  178.1740  145.3070 N   0  0  0  0  0  0  0  0  0  0  0  0
  190.0280  177.5750  145.5650 N   0  0  0  0  0  0  0  0  0  0  0  0
  191.6920  177.0540  143.8220 C   0  0  0  0  0  3  0  0  0  0  0  0
  187.4650  177.8770  141.1880 N   0  0  0  0  0  0  0  0  0  0  0  0
  188.7120  177.7640  140.8040 C   0  0  0  0  0  0  0  0  0  0  0  0
  185.7170  178.1550  142.9540 C   0  0  0  0  0  0  0  0  0  0  0  0
  188.8090  177.8420  145.9530 C   0  0  0  0  0  0  0  0  0  0  0  0
  192.0300  176.9000  142.4710 C   0  0  0  0  0  3  0  0  0  0  0  0
  183.1460  178.8930  143.7810 C   0  0  0  0  0  3  0  0  0  0  0  0
  184.6930  178.3020  142.0100 C   0  0  0  0  0  3  0  0  0  0  0  0
  187.3980  176.8430  137.7720 C   0  0  1  0  0  3  0  0  0  0  0  0
  190.1930  176.2920  135.4390 O   0  0  0  0  0  0  0  0  0  0  0  0
  185.9270  176.8810  137.4130 C   0  0  0  0  0  1  0  0  0  0  0  0
  190.4690  177.2230  137.6050 C   0  0  0  0  0  2  0  0  0  0  0  0
  189.0660  177.9600  139.3620 C   0  0  1  0  0  3  0  0  0  0  0  0
  188.1930  176.6510  136.5600 N   0  0  0  0  0  2  0  0  0  0  0  0
  189.9200  176.8640  138.9030 N   0  0  0  0  0  2  0  0  0  0  0  0
  187.7890  178.1200  138.5230 C   0  0  1  0  0  3  0  0  0  0  0  0
  187.9170  179.2030  137.6480 O   0  0  0  0  0  1  0  0  0  0  0  0
  189.6250  176.6720  136.4950 C   0  0  0  0  0  0  0  0  0  0  0  0
  188.5010  177.9070  147.3470 N   0  0  0  0  0  2  0  0  0  0  0  0
  188.1330  176.8940  147.9760 O   0  0  0  0  0  1  0  0  0  0  0  0
  1  4  1  0  0  0  0
  2  4  1  1  0  0  0
  2  5  1  0  0  0  0
  3  1  2  0  0  0  0
  3 18  1  0  0  0  0
  4 10  2  0  0  0  0
  5 11  2  0  0  0  0
  5 17  1  0  0  0  0
  6 19  1  0  0  0  0
  7 14  1  6  0  0  0
  7 16  1  0  0  0  0
  7  2  1  0  0  0  0
  9  8  1  0  0  0  0
  9 11  1  0  0  0  0
 10 12  1  0  0  0  0
 12 17  2  0  0  0  0
 13 10  1  0  0  0  0
 15 14  2  0  0  0  0
 15  1  1  0  0  0  0
 16  9  2  0  0  0  0
 17 31  1  0  0  0  0
 18 13  2  0  0  0  0
 19  8  2  0  0  0  0
 20  6  2  0  0  0  0
 20 16  1  0  0  0  0
 21 23  1  6  0  0  0
 21 28  1  0  0  0  0
 22 30  2  0  0  0  0
 24 27  1  0  0  0  0
 25 15  1  1  0  0  0
 26 21  1  0  0  0  0
 27 25  1  0  0  0  0
 28 29  1  6  0  0  0
 28 25  1  0  0  0  0
 30 26  1  0  0  0  0
 30 24  1  0  0  0  0
 31 32  1  0  0  0  0
M  END
>  <MODEL>
6

>  <REMARK>
 VINA RESULT:      -9.9      1.019      1.130
  Name = 
  2 active torsions:
  status: ('A' for Active; 'I' for Inactive)
    1  A    between atoms: N_13  and  C_29
    2  A    between atoms: C_16  and  C_27
                            x       y       z     vdW  Elec       q    Type
                         _______ _______ _______ _____ _____    ______ ____

>  <TORSDO>
F 2

$$$$
=
 OpenBabel10262421143D

 32 37  0  0  1  0  0  0  0  0999 V2000
  187.1530  178.2480  141.1860 C   0  0  0  0  0  0  0  0  0  0  0  0
  189.3660  177.9490  142.2780 C   0  0  2  0  0  3  0  0  0  0  0  0
  186.3670  178.4010  140.0370 C   0  0  0  0  0  3  0  0  0  0  0  0
  188.5250  177.9810  141.0480 C   0  0  0  0  0  0  0  0  0  0  0  0
  190.7050  177.2990  142.0710 C   0  0  0  0  0  0  0  0  0  0  0  0
  189.7380  177.0050  147.0190 C   0  0  0  0  0  3  0  0  0  0  0  0
  188.5890  177.2550  143.3900 C   0  0  2  0  0  3  0  0  0  0  0  0
  191.6550  176.7540  145.5510 C   0  0  0  0  0  3  0  0  0  0  0  0
  190.8310  176.9470  144.4390 C   0  0  0  0  0  0  0  0  0  0  0  0
  189.1100  177.8330  139.7840 C   0  0  0  0  0  0  0  0  0  0  0  0
  191.3880  176.9020  143.1090 N   0  0  0  0  0  0  0  0  0  0  0  0
  190.5040  177.4880  139.6690 N   0  0  0  0  0  0  0  0  0  0  0  0
  188.3170  177.9820  138.6420 C   0  0  0  0  0  3  0  0  0  0  0  0
  187.2980  177.9260  143.5860 N   0  0  0  0  0  0  0  0  0  0  0  0
  186.5870  178.3330  142.5630 C   0  0  0  0  0  0  0  0  0  0  0  0
  189.4470  177.1760  144.6210 C   0  0  0  0  0  0  0  0  0  0  0  0
  191.2610  177.2300  140.7020 C   0  0  0  0  0  0  0  0  0  0  0  0
  186.9520  178.2720  138.7690 C   0  0  0  0  0  3  0  0  0  0  0  0
  191.1090  176.7900  146.8390 C   0  0  0  0  0  3  0  0  0  0  0  0
  188.9050  177.1870  145.9120 C   0  0  0  0  0  3  0  0  0  0  0  0
  184.2910  178.4470  145.1090 C   0  0  1  0  0  3  0  0  0  0  0  0
  180.9330  178.6100  143.6080 O   0  0  0  0  0  0  0  0  0  0  0  0
  184.6260  178.6260  146.5760 C   0  0  0  0  0  1  0  0  0  0  0  0
  182.9340  178.8000  142.3460 C   0  0  0  0  0  2  0  0  0  0  0  0
  185.2510  178.9700  142.7930 C   0  0  1  0  0  3  0  0  0  0  0  0
  182.8550  178.6330  144.9080 N   0  0  0  0  0  2  0  0  0  0  0  0
  184.1850  178.0580  142.3750 N   0  0  0  0  0  2  0  0  0  0  0  0
  185.1240  179.4120  144.2590 C   0  0  1  0  0  3  0  0  0  0  0  0
  184.6180  180.7140  144.3290 O   0  0  0  0  0  1  0  0  0  0  0  0
  182.1900  178.6460  143.6380 C   0  0  0  0  0  0  0  0  0  0  0  0
  192.6280  176.8590  140.5110 N   0  0  0  0  0  2  0  0  0  0  0  0
  193.4100  177.5810  139.8600 O   0  0  0  0  0  1  0  0  0  0  0  0
  1 15  1  0  0  0  0
  2  4  1  6  0  0  0
  2  7  1  0  0  0  0
  3  1  2  0  0  0  0
  4  1  1  0  0  0  0
  5  2  1  0  0  0  0
  5 11  2  0  0  0  0
  7 14  1  1  0  0  0
  7 16  1  0  0  0  0
  8 19  2  0  0  0  0
  9 16  2  0  0  0  0
  9  8  1  0  0  0  0
 10  4  2  0  0  0  0
 11  9  1  0  0  0  0
 12 10  1  0  0  0  0
 12 17  2  0  0  0  0
 13 18  2  0  0  0  0
 13 10  1  0  0  0  0
 15 14  2  0  0  0  0
 16 20  1  0  0  0  0
 17  5  1  0  0  0  0
 18  3  1  0  0  0  0
 19  6  1  0  0  0  0
 20  6  2  0  0  0  0
 21 23  1  1  0  0  0
 22 30  2  0  0  0  0
 24 27  1  0  0  0  0
 24 30  1  0  0  0  0
 25 15  1  1  0  0  0
 25 28  1  0  0  0  0
 26 21  1  0  0  0  0
 27 25  1  0  0  0  0
 28 29  1  6  0  0  0
 28 21  1  0  0  0  0
 30 26  1  0  0  0  0
 31 17  1  0  0  0  0
 32 31  1  0  0  0  0
M  END
>  <MODEL>
7

>  <REMARK>
 VINA RESULT:      -9.8      2.710      7.017
  Name = 
  2 active torsions:
  status: ('A' for Active; 'I' for Inactive)
    1  A    between atoms: N_13  and  C_29
    2  A    between atoms: C_16  and  C_27
                            x       y       z     vdW  Elec       q    Type
                         _______ _______ _______ _____ _____    ______ ____

>  <TORSDO>
F 2

$$$$
=
 OpenBabel10262421143D

 32 37  0  0  1  0  0  0  0  0999 V2000
  186.3290  178.3610  143.4560 C   0  0  0  0  0  0  0  0  0  0  0  0
  185.9950  178.8720  141.0470 C   0  0  2  0  0  3  0  0  0  0  0  0
  185.8350  178.2540  144.7630 C   0  0  0  0  0  3  0  0  0  0  0  0
  185.4360  178.6340  142.4080 C   0  0  0  0  0  0  0  0  0  0  0  0
  184.9700  178.7800  139.9530 C   0  0  0  0  0  0  0  0  0  0  0  0
  189.4470  177.9490  137.7680 C   0  0  0  0  0  3  0  0  0  0  0  0
  187.1390  177.8930  140.8060 C   0  0  2  0  0  3  0  0  0  0  0  0
  187.1870  178.4940  137.0690 C   0  0  0  0  0  3  0  0  0  0  0  0
  186.7540  178.4070  138.3950 C   0  0  0  0  0  0  0  0  0  0  0  0
  184.0610  178.7670  142.6420 C   0  0  0  0  0  0  0  0  0  0  0  0
  185.3650  178.6280  138.7190 N   0  0  0  0  0  0  0  0  0  0  0  0
  183.1570  178.9740  141.5410 N   0  0  0  0  0  0  0  0  0  0  0  0
  183.5770  178.6530  143.9490 C   0  0  0  0  0  3  0  0  0  0  0  0
  188.1360  178.0230  141.8750 N   0  0  0  0  0  0  0  0  0  0  0  0
  187.7700  178.1740  143.1240 C   0  0  0  0  0  0  0  0  0  0  0  0
  187.6800  178.0940  139.4180 C   0  0  0  0  0  0  0  0  0  0  0  0
  183.5440  178.9790  140.2920 C   0  0  0  0  0  0  0  0  0  0  0  0
  184.4630  178.4040  145.0060 C   0  0  0  0  0  3  0  0  0  0  0  0
  188.5330  178.2710  136.7580 C   0  0  0  0  0  3  0  0  0  0  0  0
  189.0200  177.8490  139.0950 C   0  0  0  0  0  3  0  0  0  0  0  0
  190.9890  177.0720  143.5560 C   0  0  1  0  0  3  0  0  0  0  0  0
  191.4500  176.2680  147.1200 O   0  0  0  0  0  0  0  0  0  0  0  0
  192.0780  177.1280  142.5030 C   0  0  0  0  0  1  0  0  0  0  0  0
  189.5150  177.3460  146.2680 C   0  0  0  0  0  2  0  0  0  0  0  0
  188.8100  178.2530  144.1990 C   0  0  1  0  0  3  0  0  0  0  0  0
  191.5830  176.7670  144.8570 N   0  0  0  0  0  2  0  0  0  0  0  0
  188.6930  177.1000  145.0930 N   0  0  0  0  0  2  0  0  0  0  0  0
  190.2060  178.3890  143.5720 C   0  0  1  0  0  3  0  0  0  0  0  0
  190.9280  179.4000  144.2130 O   0  0  0  0  0  1  0  0  0  0  0  0
  190.8770  176.7410  146.1050 C   0  0  0  0  0  0  0  0  0  0  0  0
  182.5850  179.1550  139.2480 N   0  0  0  0  0  2  0  0  0  0  0  0
  182.4020  180.2710  138.7190 O   0  0  0  0  0  1  0  0  0  0  0  0
  1  3  1  0  0  0  0
  2  5  1  6  0  0  0
  2  4  1  0  0  0  0
  3 18  2  0  0  0  0
  4 10  1  0  0  0  0
  4  1  2  0  0  0  0
  5 17  1  0  0  0  0
  6 20  1  0  0  0  0
  7 16  1  6  0  0  0
  7  2  1  0  0  0  0
  7 14  1  0  0  0  0
  8  9  2  0  0  0  0
  9 11  1  0  0  0  0
  9 16  1  0  0  0  0
 10 13  2  0  0  0  0
 11  5  2  0  0  0  0
 12 10  1  0  0  0  0
 13 18  1  0  0  0  0
 14 15  2  0  0  0  0
 15  1  1  0  0  0  0
 17 12  2  0  0  0  0
 19  8  1  0  0  0  0
 19  6  2  0  0  0  0
 20 16  2  0  0  0  0
 21 23  1  6  0  0  0
 21 28  1  0  0  0  0
 21 26  1  0  0  0  0
 25 15  1  6  0  0  0
 25 27  1  0  0  0  0
 26 30  1  0  0  0  0
 27 24  1  0  0  0  0
 28 25  1  0  0  0  0
 28 29  1  1  0  0  0
 30 24  1  0  0  0  0
 30 22  2  0  0  0  0
 31 17  1  0  0  0  0
 32 31  1  0  0  0  0
M  END
>  <MODEL>
8

>  <REMARK>
 VINA RESULT:      -9.7      2.627      6.970
  Name = 
  2 active torsions:
  status: ('A' for Active; 'I' for Inactive)
    1  A    between atoms: N_13  and  C_29
    2  A    between atoms: C_16  and  C_27
                            x       y       z     vdW  Elec       q    Type
                         _______ _______ _______ _____ _____    ______ ____

>  <TORSDO>
F 2

$$$$
=
 OpenBabel10262421143D

 32 37  0  0  1  0  0  0  0  0999 V2000
  187.5990  178.2040  141.1170 C   0  0  0  0  0  0  0  0  0  0  0  0
  187.5710  177.5100  143.5030 C   0  0  2  0  0  3  0  0  0  0  0  0
  186.9380  178.6480  139.9640 C   0  0  0  0  0  3  0  0  0  0  0  0
  186.8850  178.1060  142.3210 C   0  0  0  0  0  0  0  0  0  0  0  0
  186.8740  177.7910  144.8040 C   0  0  0  0  0  0  0  0  0  0  0  0
  191.6800  176.7610  145.9650 C   0  0  0  0  0  3  0  0  0  0  0  0
  189.0120  178.0050  143.5380 C   0  0  2  0  0  3  0  0  0  0  0  0
  189.5530  176.9190  147.1230 C   0  0  0  0  0  3  0  0  0  0  0  0
  188.9350  177.3260  145.9380 C   0  0  0  0  0  0  0  0  0  0  0  0
  185.5360  178.4770  142.3970 C   0  0  0  0  0  0  0  0  0  0  0  0
  187.5250  177.6320  145.9240 N   0  0  0  0  0  0  0  0  0  0  0  0
  184.8450  178.4370  143.6600 N   0  0  0  0  0  0  0  0  0  0  0  0
  184.8860  178.9250  141.2430 C   0  0  0  0  0  3  0  0  0  0  0  0
  189.6740  177.6950  142.2650 N   0  0  0  0  0  0  0  0  0  0  0  0
  189.0470  177.8480  141.1250 C   0  0  0  0  0  0  0  0  0  0  0  0
  189.6990  177.4470  144.7530 C   0  0  0  0  0  0  0  0  0  0  0  0
  185.4350  178.1320  144.7850 C   0  0  0  0  0  0  0  0  0  0  0  0
  185.5830  179.0030  140.0300 C   0  0  0  0  0  3  0  0  0  0  0  0
  190.9220  176.6300  147.1350 C   0  0  0  0  0  3  0  0  0  0  0  0
  191.0730  177.1790  144.7780 C   0  0  0  0  0  3  0  0  0  0  0  0
  188.4050  176.1000  138.2450 C   0  0  1  0  0  3  0  0  0  0  0  0
  191.5900  174.7200  137.0150 O   0  0  0  0  0  0  0  0  0  0  0  0
  187.0830  176.0960  137.5040 C   0  0  0  0  0  1  0  0  0  0  0  0
  191.4470  176.2600  138.8150 C   0  0  0  0  0  2  0  0  0  0  0  0
  189.7650  177.5710  139.8400 C   0  0  1  0  0  3  0  0  0  0  0  0
  189.4400  175.5040  137.4010 N   0  0  0  0  0  2  0  0  0  0  0  0
  190.5560  176.3470  139.9620 N   0  0  0  0  0  2  0  0  0  0  0  0
  188.7620  177.5260  138.6760 C   0  0  1  0  0  3  0  0  0  0  0  0
  189.2380  178.2770  137.5970 O   0  0  0  0  0  1  0  0  0  0  0  0
  190.8360  175.4350  137.7230 C   0  0  0  0  0  0  0  0  0  0  0  0
  184.6940  178.1480  146.0070 N   0  0  0  0  0  2  0  0  0  0  0  0
  183.8090  179.0030  146.2160 O   0  0  0  0  0  1  0  0  0  0  0  0
  1 15  1  0  0  0  0
  1  4  1  0  0  0  0
  2  4  1  6  0  0  0
  2  7  1  0  0  0  0
  2  5  1  0  0  0  0
  3 18  1  0  0  0  0
  3  1  2  0  0  0  0
  4 10  2  0  0  0  0
  5 11  2  0  0  0  0
  6 19  1  0  0  0  0
  7 14  1  6  0  0  0
  7 16  1  0  0  0  0
  8 19  2  0  0  0  0
  9  8  1  0  0  0  0
 10 12  1  0  0  0  0
 11  9  1  0  0  0  0
 12 17  2  0  0  0  0
 13 10  1  0  0  0  0
 15 14  2  0  0  0  0
 16 20  1  0  0  0  0
 16  9  2  0  0  0  0
 17  5  1  0  0  0  0
 17 31  1  0  0  0  0
 18 13  2  0  0  0  0
 20  6  2  0  0  0  0
 21 23  1  6  0  0  0
 21 28  1  0  0  0  0
 22 30  2  0  0  0  0
 24 27  1  0  0  0  0
 25 27  1  0  0  0  0
 25 15  1  1  0  0  0
 26 30  1  0  0  0  0
 26 21  1  0  0  0  0
 28 29  1  6  0  0  0
 28 25  1  0  0  0  0
 30 24  1  0  0  0  0
 31 32  1  0  0  0  0
M  END
>  <MODEL>
9

>  <REMARK>
 VINA RESULT:      -9.5      1.705      4.357
  Name = 
  2 active torsions:
  status: ('A' for Active; 'I' for Inactive)
    1  A    between atoms: N_13  and  C_29
    2  A    between atoms: C_16  and  C_27
                            x       y       z     vdW  Elec       q    Type
                         _______ _______ _______ _____ _____    ______ ____

>  <TORSDO>
F 2

$$$$
