=
 OpenBabel10252414563D

 34 38  0  0  1  0  0  0  0  0999 V2000
  187.2440  176.8330  137.6180 C   0  0  0  0  0  0  0  0  0  0  0  0
  185.5060  175.6080  136.2530 C   0  0  0  0  0  0  0  0  0  0  0  0
  181.5080  175.3280  137.9490 C   0  0  0  0  0  0  0  0  0  0  0  0
  184.9330  177.6240  137.6280 C   0  0  0  0  0  0  0  0  0  0  0  0
  182.0090  178.9110  138.3070 C   0  0  0  0  0  2  0  0  0  0  0  0
  188.9550  177.9890  139.0460 C   0  0  0  0  0  1  0  0  0  0  0  0
  186.3480  174.8580  135.6900 O   0  0  0  0  0  0  0  0  0  0  0  0
  183.3810  176.7170  135.7860 C   0  0  0  0  0  2  0  0  0  0  0  0
  181.6070  171.9110  137.2600 C   0  0  0  0  0  1  0  0  0  0  0  0
  181.3810  174.3360  136.9160 N   0  0  0  0  0  0  0  0  0  0  0  0
  182.3160  173.2090  136.9180 C   0  0  2  0  0  3  0  0  0  0  0  0
  185.9170  176.7090  137.1640 C   0  0  0  0  0  0  0  0  0  0  0  0
  181.8380  174.9830  139.1140 O   0  0  0  0  0  0  0  0  0  0  0  0
  182.4940  177.5550  138.0430 N   0  0  1  0  0  0  0  0  0  0  0  0
  188.2420  175.9730  137.1640 O   0  0  0  0  0  1  0  0  0  0  0  0
  183.6540  174.3680  135.0050 C   0  0  0  0  0  2  0  0  0  0  0  0
  185.2900  178.5520  138.6390 C   0  0  0  0  0  0  0  0  0  0  0  0
  187.5610  177.8280  138.5460 C   0  0  0  0  0  0  0  0  0  0  0  0
  184.0400  175.3850  136.0690 C   0  0  1  0  0  3  0  0  0  0  0  0
  183.1380  179.9300  138.5500 C   0  0  0  0  0  2  0  0  0  0  0  0
  184.2860  179.3850  139.4140 C   0  0  1  0  0  3  0  0  0  0  0  0
  181.3140  176.7820  137.6430 C   0  0  0  0  0  2  0  0  0  0  0  0
  183.5400  177.6440  137.0040 C   0  0  1  0  0  3  0  0  0  0  0  0
  186.5860  178.6280  139.0440 N   0  0  0  0  0  0  0  0  0  0  0  0
  183.0950  173.0660  135.6000 C   0  0  0  0  0  2  0  0  0  0  0  0
  184.2080  178.2450  143.1230 C   0  0  1  0  0  3  0  0  0  0  0  0
  183.0400  178.9520  143.4670 O   0  0  0  0  0  0  0  0  0  0  0  0
  183.8000  178.6980  140.7060 C   0  0  1  0  0  3  0  0  0  0  0  0
  182.0710  178.6310  142.5000 C   0  0  0  0  0  2  0  0  0  0  0  0
  184.8130  178.8310  141.8470 C   0  0  0  0  0  2  0  0  0  0  0  0
  182.4470  179.2570  141.1560 C   0  0  0  0  0  2  0  0  0  0  0  0
  185.2130  178.3520  144.2500 C   0  0  0  0  0  1  0  0  0  0  0  0
  178.9310  174.2550  136.7510 C   0  0  0  0  0  1  0  0  0  0  0  0
  180.2440  174.3550  135.9970 C   0  0  0  0  0  2  0  0  0  0  0  0
  1 18  1  0  0  0  0
  2 12  1  0  0  0  0
  3 13  2  0  0  0  0
  4 17  2  0  0  0  0
  5 20  1  0  0  0  0
  7  2  2  0  0  0  0
  8 19  1  0  0  0  0
 10 11  1  0  0  0  0
 10  3  1  0  0  0  0
 11  9  1  6  0  0  0
 12  1  2  0  0  0  0
 12  4  1  0  0  0  0
 14 22  1  6  0  0  0
 14  5  1  0  0  0  0
 15  1  1  0  0  0  0
 16 25  1  0  0  0  0
 17 24  1  0  0  0  0
 17 21  1  0  0  0  0
 18 24  2  0  0  0  0
 18  6  1  0  0  0  0
 19 16  1  6  0  0  0
 19  2  1  0  0  0  0
 21 20  1  6  0  0  0
 21 28  1  0  0  0  0
 22  3  1  0  0  0  0
 23  8  1  6  0  0  0
 23  4  1  0  0  0  0
 23 14  1  0  0  0  0
 25 11  1  0  0  0  0
 26 27  1  0  0  0  0
 26 32  1  1  0  0  0
 28 31  1  1  0  0  0
 28 30  1  0  0  0  0
 29 27  1  0  0  0  0
 30 26  1  0  0  0  0
 31 29  1  0  0  0  0
 34 33  1  0  0  0  0
 34 10  1  0  0  0  0
M  END
>  <MODEL>
1

>  <REMARK>
 VINA RESULT:      -6.6      0.000      0.000
  Name = 
  2 active torsions:
  status: ('A' for Active; 'I' for Inactive)
    1  A    between atoms: C_12  and  C_28
    2  A    between atoms: N_13  and  C_33
                            x       y       z     vdW  Elec       q    Type
                         _______ _______ _______ _____ _____    ______ ____

>  <TORSDO>
F 2

$$$$
=
 OpenBabel10252414563D

 34 38  0  0  1  0  0  0  0  0999 V2000
  180.7200  180.6140  137.0160 C   0  0  0  0  0  0  0  0  0  0  0  0
  180.1660  178.3830  135.9650 C   0  0  0  0  0  0  0  0  0  0  0  0
  181.2980  174.8210  138.1930 C   0  0  0  0  0  0  0  0  0  0  0  0
  180.0360  178.7520  138.4410 C   0  0  0  0  0  0  0  0  0  0  0  0
  179.5390  176.5890  140.8380 C   0  0  0  0  0  2  0  0  0  0  0  0
  181.3630  182.8030  138.0630 C   0  0  0  0  0  1  0  0  0  0  0  0
  180.2360  178.8220  134.7860 O   0  0  0  0  0  0  0  0  0  0  0  0
  178.9310  176.7380  137.2800 C   0  0  0  0  0  2  0  0  0  0  0  0
  182.7530  173.6200  135.2600 C   0  0  0  0  0  1  0  0  0  0  0  0
  181.0350  174.2110  136.9180 N   0  0  0  0  0  0  0  0  0  0  0  0
  181.7890  174.6830  135.7550 C   0  0  2  0  0  3  0  0  0  0  0  0
  180.2960  179.2780  137.1470 C   0  0  0  0  0  0  0  0  0  0  0  0
  182.4700  175.1700  138.4930 O   0  0  0  0  0  0  0  0  0  0  0  0
  180.1680  176.5270  139.5180 N   0  0  1  0  0  0  0  0  0  0  0  0
  180.9570  181.1740  135.7630 O   0  0  0  0  0  1  0  0  0  0  0  0
  179.7040  176.0590  135.0120 C   0  0  0  0  0  2  0  0  0  0  0  0
  180.3420  179.5490  139.5730 C   0  0  0  0  0  0  0  0  0  0  0  0
  180.9160  181.3850  138.1640 C   0  0  0  0  0  0  0  0  0  0  0  0
  180.0030  176.9220  136.2290 C   0  0  1  0  0  3  0  0  0  0  0  0
  179.2500  178.0260  141.3130 C   0  0  0  0  0  2  0  0  0  0  0  0
  180.3780  179.0190  140.9950 C   0  0  1  0  0  3  0  0  0  0  0  0
  180.1810  175.1070  139.1510 C   0  0  0  0  0  2  0  0  0  0  0  0
  179.3840  177.3810  138.6030 C   0  0  1  0  0  3  0  0  0  0  0  0
  180.7520  180.8320  139.3910 N   0  0  0  0  0  0  0  0  0  0  0  0
  180.8900  175.1700  134.6070 C   0  0  0  0  0  2  0  0  0  0  0  0
  184.2260  178.5170  140.9810 C   0  0  1  0  0  3  0  0  0  0  0  0
  184.4580  179.1400  142.2210 O   0  0  0  0  0  0  0  0  0  0  0  0
  181.7710  178.5100  141.4140 C   0  0  1  0  0  3  0  0  0  0  0  0
  183.5680  178.5590  143.1420 C   0  0  0  0  0  2  0  0  0  0  0  0
  182.8650  178.9420  140.4320 C   0  0  0  0  0  2  0  0  0  0  0  0
  182.1350  178.9870  142.8240 C   0  0  0  0  0  2  0  0  0  0  0  0
  185.3100  178.9200  140.0030 C   0  0  0  0  0  1  0  0  0  0  0  0
  180.7290  171.8760  137.6190 C   0  0  0  0  0  1  0  0  0  0  0  0
  180.1710  173.0350  136.8150 C   0  0  0  0  0  2  0  0  0  0  0  0
  1 12  2  0  0  0  0
  1 18  1  0  0  0  0
  2 19  1  0  0  0  0
  2 12  1  0  0  0  0
  3 13  2  0  0  0  0
  3 22  1  0  0  0  0
  4 23  1  0  0  0  0
  4 17  2  0  0  0  0
  5 20  1  0  0  0  0
  6 18  1  0  0  0  0
  7  2  2  0  0  0  0
 10  3  1  0  0  0  0
 11  9  1  6  0  0  0
 11 10  1  0  0  0  0
 12  4  1  0  0  0  0
 14 22  1  6  0  0  0
 14  5  1  0  0  0  0
 15  1  1  0  0  0  0
 17 21  1  0  0  0  0
 18 24  2  0  0  0  0
 19 16  1  6  0  0  0
 19  8  1  0  0  0  0
 21 20  1  6  0  0  0
 21 28  1  0  0  0  0
 23  8  1  6  0  0  0
 23 14  1  0  0  0  0
 24 17  1  0  0  0  0
 25 16  1  0  0  0  0
 25 11  1  0  0  0  0
 26 32  1  6  0  0  0
 26 27  1  0  0  0  0
 27 29  1  0  0  0  0
 28 30  1  6  0  0  0
 28 31  1  0  0  0  0
 30 26  1  0  0  0  0
 31 29  1  0  0  0  0
 34 10  1  0  0  0  0
 34 33  1  0  0  0  0
M  END
>  <MODEL>
2

>  <REMARK>
 VINA RESULT:      -5.9      2.664      4.641
  Name = 
  2 active torsions:
  status: ('A' for Active; 'I' for Inactive)
    1  A    between atoms: C_12  and  C_28
    2  A    between atoms: N_13  and  C_33
                            x       y       z     vdW  Elec       q    Type
                         _______ _______ _______ _____ _____    ______ ____

>  <TORSDO>
F 2

$$$$
=
 OpenBabel10252414563D

 34 38  0  0  1  0  0  0  0  0999 V2000
  184.3720  178.6620  142.1080 C   0  0  0  0  0  0  0  0  0  0  0  0
  186.0670  178.5280  140.2380 C   0  0  0  0  0  0  0  0  0  0  0  0
  185.0370  176.0390  136.8210 C   0  0  0  0  0  0  0  0  0  0  0  0
  183.6010  178.5300  139.7940 C   0  0  0  0  0  0  0  0  0  0  0  0
  181.9950  178.0230  136.9950 C   0  0  0  0  0  2  0  0  0  0  0  0
  182.6920  178.7020  143.9730 C   0  0  0  0  0  1  0  0  0  0  0  0
  187.0530  178.7280  140.9990 O   0  0  0  0  0  0  0  0  0  0  0  0
  185.3400  178.9940  137.9550 C   0  0  0  0  0  2  0  0  0  0  0  0
  188.1800  174.5590  137.1290 C   0  0  0  0  0  1  0  0  0  0  0  0
  186.4410  176.2030  136.5600 N   0  0  0  0  0  0  0  0  0  0  0  0
  187.3920  175.7730  137.5870 C   0  0  2  0  0  3  0  0  0  0  0  0
  184.6660  178.5930  140.7330 C   0  0  0  0  0  0  0  0  0  0  0  0
  184.6300  175.0310  137.4580 O   0  0  0  0  0  0  0  0  0  0  0  0
  183.2630  177.5440  137.5490 N   0  0  1  0  0  0  0  0  0  0  0  0
  185.3880  178.7550  143.0570 O   0  0  0  0  0  1  0  0  0  0  0  0
  187.6980  178.2650  138.2900 C   0  0  0  0  0  2  0  0  0  0  0  0
  182.2740  178.4020  140.2790 C   0  0  0  0  0  0  0  0  0  0  0  0
  183.0400  178.6280  142.5260 C   0  0  0  0  0  0  0  0  0  0  0  0
  186.2700  178.1570  138.8050 C   0  0  1  0  0  3  0  0  0  0  0  0
  181.1030  178.7340  138.0300 C   0  0  0  0  0  2  0  0  0  0  0  0
  181.0850  178.0480  139.4040 C   0  0  1  0  0  3  0  0  0  0  0  0
  184.0510  177.0860  136.4000 C   0  0  0  0  0  2  0  0  0  0  0  0
  183.8780  178.6580  138.2990 C   0  0  1  0  0  3  0  0  0  0  0  0
  182.0460  178.4720  141.6170 N   0  0  0  0  0  0  0  0  0  0  0  0
  188.3440  176.8930  138.0380 C   0  0  0  0  0  2  0  0  0  0  0  0
  179.8780  174.5000  140.4140 C   0  0  1  0  0  3  0  0  0  0  0  0
  178.9310  174.3700  139.3810 O   0  0  0  0  0  0  0  0  0  0  0  0
  180.8280  176.5300  139.3220 C   0  0  1  0  0  3  0  0  0  0  0  0
  179.5900  174.6910  138.1810 C   0  0  0  0  0  2  0  0  0  0  0  0
  180.2270  175.9740  140.6160 C   0  0  0  0  0  2  0  0  0  0  0  0
  179.9090  176.1860  138.1450 C   0  0  0  0  0  2  0  0  0  0  0  0
  179.3060  173.9380  141.6980 C   0  0  0  0  0  1  0  0  0  0  0  0
  186.8110  178.1270  135.0780 C   0  0  0  0  0  1  0  0  0  0  0  0
  186.9120  176.6220  135.2410 C   0  0  0  0  0  2  0  0  0  0  0  0
  1 18  1  0  0  0  0
  1 15  1  0  0  0  0
  2 12  1  0  0  0  0
  2  7  2  0  0  0  0
  3 13  2  0  0  0  0
  4 17  2  0  0  0  0
  4 12  1  0  0  0  0
  5 14  1  0  0  0  0
  5 20  1  0  0  0  0
 10  3  1  0  0  0  0
 10 11  1  0  0  0  0
 11  9  1  6  0  0  0
 11 25  1  0  0  0  0
 12  1  2  0  0  0  0
 14 22  1  6  0  0  0
 14 23  1  0  0  0  0
 16 19  1  0  0  0  0
 17 24  1  0  0  0  0
 18  6  1  0  0  0  0
 19  8  1  6  0  0  0
 19  2  1  0  0  0  0
 21 20  1  6  0  0  0
 21 17  1  0  0  0  0
 22  3  1  0  0  0  0
 23  8  1  1  0  0  0
 23  4  1  0  0  0  0
 24 18  2  0  0  0  0
 25 16  1  0  0  0  0
 26 30  1  0  0  0  0
 26 32  1  1  0  0  0
 27 26  1  0  0  0  0
 28 31  1  6  0  0  0
 28 21  1  0  0  0  0
 28 30  1  0  0  0  0
 29 27  1  0  0  0  0
 31 29  1  0  0  0  0
 33 34  1  0  0  0  0
 34 10  1  0  0  0  0
M  END
>  <MODEL>
3

>  <REMARK>
 VINA RESULT:      -5.8      2.166      5.443
  Name = 
  2 active torsions:
  status: ('A' for Active; 'I' for Inactive)
    1  A    between atoms: C_12  and  C_28
    2  A    between atoms: N_13  and  C_33
                            x       y       z     vdW  Elec       q    Type
                         _______ _______ _______ _____ _____    ______ ____

>  <TORSDO>
F 2

$$$$
=
 OpenBabel10252414563D

 34 38  0  0  1  0  0  0  0  0999 V2000
  187.4830  177.7040  142.9060 C   0  0  0  0  0  0  0  0  0  0  0  0
  189.2480  177.5100  141.1080 C   0  0  0  0  0  0  0  0  0  0  0  0
  187.9230  176.1770  137.1830 C   0  0  0  0  0  0  0  0  0  0  0  0
  186.9170  178.2790  140.6000 C   0  0  0  0  0  0  0  0  0  0  0  0
  185.4970  178.8320  137.7110 C   0  0  0  0  0  2  0  0  0  0  0  0
  185.7080  177.8060  144.6780 C   0  0  0  0  0  1  0  0  0  0  0  0
  190.1780  177.2680  141.9240 O   0  0  0  0  0  0  0  0  0  0  0  0
  188.8770  178.6290  138.9690 C   0  0  0  0  0  2  0  0  0  0  0  0
  190.5340  173.8660  137.2420 C   0  0  0  0  0  1  0  0  0  0  0  0
  189.3390  176.0040  137.0100 N   0  0  0  0  0  0  0  0  0  0  0  0
  190.0500  175.1230  137.9400 C   0  0  2  0  0  3  0  0  0  0  0  0
  187.8720  177.8500  141.5610 C   0  0  0  0  0  0  0  0  0  0  0  0
  187.2130  175.2070  137.5610 O   0  0  0  0  0  0  0  0  0  0  0  0
  186.5410  177.9200  138.1800 N   0  0  1  0  0  0  0  0  0  0  0  0
  188.3980  177.3140  143.8810 O   0  0  0  0  0  1  0  0  0  0  0  0
  190.9250  177.2300  139.2010 C   0  0  0  0  0  2  0  0  0  0  0  0
  185.5640  178.4190  141.0020 C   0  0  0  0  0  0  0  0  0  0  0  0
  186.1550  177.9480  143.2640 C   0  0  0  0  0  0  0  0  0  0  0  0
  189.4770  177.4100  139.6350 C   0  0  1  0  0  3  0  0  0  0  0  0
  184.7290  179.5250  138.8530 C   0  0  0  0  0  2  0  0  0  0  0  0
  184.4090  178.5950  140.0330 C   0  0  1  0  0  3  0  0  0  0  0  0
  187.2840  177.5170  136.9810 C   0  0  0  0  0  2  0  0  0  0  0  0
  187.3530  178.6390  139.1830 C   0  0  1  0  0  3  0  0  0  0  0  0
  185.2410  178.2640  142.3140 N   0  0  0  0  0  0  0  0  0  0  0  0
  191.2140  175.8200  138.6640 C   0  0  0  0  0  2  0  0  0  0  0  0
  181.7760  175.7700  139.6460 C   0  0  1  0  0  3  0  0  0  0  0  0
  181.6310  175.8980  138.2520 O   0  0  0  0  0  0  0  0  0  0  0  0
  183.7750  177.2590  139.6000 C   0  0  1  0  0  3  0  0  0  0  0  0
  182.9260  175.8790  137.7040 C   0  0  0  0  0  2  0  0  0  0  0  0
  182.3930  177.0440  140.2230 C   0  0  0  0  0  2  0  0  0  0  0  0
  183.6670  177.1650  138.0740 C   0  0  0  0  0  2  0  0  0  0  0  0
  180.4190  175.5400  140.2760 C   0  0  0  0  0  1  0  0  0  0  0  0
  189.7420  175.7050  134.6050 C   0  0  0  0  0  1  0  0  0  0  0  0
  190.0210  176.5470  135.8360 C   0  0  0  0  0  2  0  0  0  0  0  0
  1 18  1  0  0  0  0
  1 15  1  0  0  0  0
  2 12  1  0  0  0  0
  2  7  2  0  0  0  0
  3 13  2  0  0  0  0
  4 17  2  0  0  0  0
  4 12  1  0  0  0  0
  5 14  1  0  0  0  0
  5 20  1  0  0  0  0
 10  3  1  0  0  0  0
 10 11  1  0  0  0  0
 11  9  1  6  0  0  0
 11 25  1  0  0  0  0
 12  1  2  0  0  0  0
 14 22  1  6  0  0  0
 14 23  1  0  0  0  0
 16 19  1  0  0  0  0
 17 24  1  0  0  0  0
 18  6  1  0  0  0  0
 19  8  1  6  0  0  0
 19  2  1  0  0  0  0
 21 20  1  6  0  0  0
 21 17  1  0  0  0  0
 22  3  1  0  0  0  0
 23  8  1  1  0  0  0
 23  4  1  0  0  0  0
 24 18  2  0  0  0  0
 25 16  1  0  0  0  0
 26 30  1  0  0  0  0
 26 32  1  1  0  0  0
 27 26  1  0  0  0  0
 28 31  1  6  0  0  0
 28 21  1  0  0  0  0
 28 30  1  0  0  0  0
 29 31  1  0  0  0  0
 29 27  1  0  0  0  0
 33 34  1  0  0  0  0
 34 10  1  0  0  0  0
M  END
>  <MODEL>
4

>  <REMARK>
 VINA RESULT:      -5.4      2.631      6.239
  Name = 
  2 active torsions:
  status: ('A' for Active; 'I' for Inactive)
    1  A    between atoms: C_12  and  C_28
    2  A    between atoms: N_13  and  C_33
                            x       y       z     vdW  Elec       q    Type
                         _______ _______ _______ _____ _____    ______ ____

>  <TORSDO>
F 2

$$$$
=
 OpenBabel10252414563D

 34 38  0  0  1  0  0  0  0  0999 V2000
  184.9150  177.5770  137.9170 C   0  0  0  0  0  0  0  0  0  0  0  0
  186.7460  178.3540  139.4760 C   0  0  0  0  0  0  0  0  0  0  0  0
  190.6110  176.3900  139.1070 C   0  0  0  0  0  0  0  0  0  0  0  0
  187.2200  177.6650  137.1130 C   0  0  0  0  0  0  0  0  0  0  0  0
  190.0890  177.2390  135.6110 C   0  0  0  0  0  2  0  0  0  0  0  0
  183.1070  176.7170  136.4030 C   0  0  0  0  0  1  0  0  0  0  0  0
  185.9450  178.7000  140.3860 O   0  0  0  0  0  0  0  0  0  0  0  0
  188.9000  179.0070  138.5290 C   0  0  0  0  0  2  0  0  0  0  0  0
  190.5590  175.9470  142.5660 C   0  0  0  0  0  1  0  0  0  0  0  0
  190.8120  177.0370  140.3750 N   0  0  0  0  0  0  0  0  0  0  0  0
  189.8780  176.7360  141.4620 C   0  0  2  0  0  3  0  0  0  0  0  0
  186.2710  177.8750  138.1500 C   0  0  0  0  0  0  0  0  0  0  0  0
  190.1980  175.2010  139.0670 O   0  0  0  0  0  0  0  0  0  0  0  0
  189.6220  177.0850  136.9900 N   0  0  1  0  0  0  0  0  0  0  0  0
  183.9510  177.7960  138.8990 O   0  0  0  0  0  1  0  0  0  0  0  0
  188.6810  179.0070  141.0100 C   0  0  0  0  0  2  0  0  0  0  0  0
  186.7920  177.0330  135.9180 C   0  0  0  0  0  0  0  0  0  0  0  0
  184.5330  177.0430  136.6840 C   0  0  0  0  0  0  0  0  0  0  0  0
  188.2210  178.3550  139.7140 C   0  0  1  0  0  3  0  0  0  0  0  0
  188.9460  177.4150  134.5940 C   0  0  0  0  0  2  0  0  0  0  0  0
  187.7390  176.5010  134.8570 C   0  0  1  0  0  3  0  0  0  0  0  0
  190.8280  177.1340  137.8240 C   0  0  0  0  0  2  0  0  0  0  0  0
  188.6540  178.1660  137.2640 C   0  0  1  0  0  3  0  0  0  0  0  0
  185.4710  176.7630  135.7450 N   0  0  0  0  0  0  0  0  0  0  0  0
  189.1950  177.9870  142.0390 C   0  0  0  0  0  2  0  0  0  0  0  0
  189.9360  173.3090  135.0660 C   0  0  1  0  0  3  0  0  0  0  0  0
  189.7940  173.1270  136.4550 O   0  0  0  0  0  0  0  0  0  0  0  0
  188.1300  175.0280  135.0820 C   0  0  1  0  0  3  0  0  0  0  0  0
  188.4170  173.1820  136.7340 C   0  0  0  0  0  2  0  0  0  0  0  0
  189.5850  174.7490  134.6940 C   0  0  0  0  0  2  0  0  0  0  0  0
  187.9030  174.6090  136.5380 C   0  0  0  0  0  2  0  0  0  0  0  0
  191.3670  173.0200  134.6630 C   0  0  0  0  0  1  0  0  0  0  0  0
  193.2540  177.1210  140.1290 C   0  0  0  0  0  1  0  0  0  0  0  0
  192.0120  177.8340  140.6270 C   0  0  0  0  0  2  0  0  0  0  0  0
  1 12  1  0  0  0  0
  1 15  1  0  0  0  0
  2 19  1  0  0  0  0
  2  7  2  0  0  0  0
  3 10  1  0  0  0  0
  4 23  1  0  0  0  0
  4 12  2  0  0  0  0
  6 18  1  0  0  0  0
 10 34  1  0  0  0  0
 10 11  1  0  0  0  0
 11 25  1  0  0  0  0
 11  9  1  1  0  0  0
 12  2  1  0  0  0  0
 13  3  2  0  0  0  0
 14  5  1  6  0  0  0
 14 23  1  0  0  0  0
 14 22  1  0  0  0  0
 16 25  1  0  0  0  0
 17  4  1  0  0  0  0
 18  1  2  0  0  0  0
 19  8  1  6  0  0  0
 19 16  1  0  0  0  0
 20  5  1  0  0  0  0
 21 20  1  1  0  0  0
 21 28  1  0  0  0  0
 21 17  1  0  0  0  0
 22  3  1  0  0  0  0
 23  8  1  1  0  0  0
 24 17  2  0  0  0  0
 24 18  1  0  0  0  0
 26 32  1  1  0  0  0
 26 27  1  0  0  0  0
 27 29  1  0  0  0  0
 28 30  1  1  0  0  0
 28 31  1  0  0  0  0
 30 26  1  0  0  0  0
 31 29  1  0  0  0  0
 33 34  1  0  0  0  0
M  END
>  <MODEL>
5

>  <REMARK>
 VINA RESULT:      -5.1      3.294      8.407
  Name = 
  2 active torsions:
  status: ('A' for Active; 'I' for Inactive)
    1  A    between atoms: C_12  and  C_28
    2  A    between atoms: N_13  and  C_33
                            x       y       z     vdW  Elec       q    Type
                         _______ _______ _______ _____ _____    ______ ____

>  <TORSDO>
F 2

$$$$
=
 OpenBabel10252414563D

 34 38  0  0  1  0  0  0  0  0999 V2000
  186.3020  173.5340  137.2180 C   0  0  0  0  0  0  0  0  0  0  0  0
  184.3150  175.0160  137.7080 C   0  0  0  0  0  0  0  0  0  0  0  0
  185.1590  178.9710  139.3160 C   0  0  0  0  0  0  0  0  0  0  0  0
  186.4730  175.9390  136.8290 C   0  0  0  0  0  0  0  0  0  0  0  0
  187.4030  179.0480  136.4570 C   0  0  0  0  0  2  0  0  0  0  0  0
  188.3020  172.0700  136.8210 C   0  0  0  0  0  1  0  0  0  0  0  0
  183.5390  174.0500  137.9350 O   0  0  0  0  0  0  0  0  0  0  0  0
  184.2730  177.2730  136.7770 C   0  0  0  0  0  2  0  0  0  0  0  0
  182.7890  178.3170  141.7890 C   0  0  0  0  0  1  0  0  0  0  0  0
  183.7520  178.9100  139.6050 N   0  0  0  0  0  0  0  0  0  0  0  0
  183.2620  177.8100  140.4390 C   0  0  2  0  0  3  0  0  0  0  0  0
  185.7090  174.8100  137.2300 C   0  0  0  0  0  0  0  0  0  0  0  0
  185.9960  178.6270  140.1920 O   0  0  0  0  0  0  0  0  0  0  0  0
  186.5200  178.3490  137.3920 N   0  0  1  0  0  0  0  0  0  0  0  0
  185.5760  172.4000  137.5760 O   0  0  0  0  0  1  0  0  0  0  0  0
  182.4060  176.6120  138.2880 C   0  0  0  0  0  2  0  0  0  0  0  0
  187.8540  175.7630  136.5560 C   0  0  0  0  0  0  0  0  0  0  0  0
  187.6430  173.4050  136.8480 C   0  0  0  0  0  0  0  0  0  0  0  0
  183.8820  176.4230  137.9660 C   0  0  1  0  0  3  0  0  0  0  0  0
  188.2690  178.1000  135.6060 C   0  0  0  0  0  2  0  0  0  0  0  0
  188.8360  176.9090  136.3930 C   0  0  1  0  0  3  0  0  0  0  0  0
  185.6450  179.3810  137.9590 C   0  0  0  0  0  2  0  0  0  0  0  0
  185.8060  177.2980  136.6390 C   0  0  1  0  0  3  0  0  0  0  0  0
  188.3780  174.5080  136.5600 N   0  0  0  0  0  0  0  0  0  0  0  0
  182.1620  176.9780  139.7610 C   0  0  0  0  0  2  0  0  0  0  0  0
  189.4880  177.2050  140.2070 C   0  0  1  0  0  3  0  0  0  0  0  0
  190.7110  176.5060  140.1990 O   0  0  0  0  0  0  0  0  0  0  0  0
  189.5090  177.3200  137.7170 C   0  0  1  0  0  3  0  0  0  0  0  0
  191.5040  177.0870  139.1930 C   0  0  0  0  0  2  0  0  0  0  0  0
  188.6980  176.8820  138.9390 C   0  0  0  0  0  2  0  0  0  0  0  0
  190.9290  176.7530  137.8170 C   0  0  0  0  0  2  0  0  0  0  0  0
  188.6810  176.7950  141.4200 C   0  0  0  0  0  1  0  0  0  0  0  0
  182.0970  179.6760  137.9590 C   0  0  0  0  0  1  0  0  0  0  0  0
  182.8620  180.0070  139.2270 C   0  0  0  0  0  2  0  0  0  0  0  0
  1 12  1  0  0  0  0
  1 15  1  0  0  0  0
  2  7  2  0  0  0  0
  2 19  1  0  0  0  0
  3 10  1  0  0  0  0
  3 13  2  0  0  0  0
  4 12  2  0  0  0  0
  6 18  1  0  0  0  0
 10 11  1  0  0  0  0
 11  9  1  1  0  0  0
 12  2  1  0  0  0  0
 14  5  1  6  0  0  0
 14 22  1  0  0  0  0
 16 25  1  0  0  0  0
 17 24  2  0  0  0  0
 17  4  1  0  0  0  0
 18  1  2  0  0  0  0
 19  8  1  6  0  0  0
 19 16  1  0  0  0  0
 20  5  1  0  0  0  0
 21 20  1  1  0  0  0
 21 17  1  0  0  0  0
 21 28  1  0  0  0  0
 22  3  1  0  0  0  0
 23  8  1  1  0  0  0
 23  4  1  0  0  0  0
 23 14  1  0  0  0  0
 24 18  1  0  0  0  0
 25 11  1  0  0  0  0
 26 32  1  1  0  0  0
 27 26  1  0  0  0  0
 28 31  1  1  0  0  0
 28 30  1  0  0  0  0
 29 27  1  0  0  0  0
 30 26  1  0  0  0  0
 31 29  1  0  0  0  0
 33 34  1  0  0  0  0
 34 10  1  0  0  0  0
M  END
>  <MODEL>
6

>  <REMARK>
 VINA RESULT:      -4.8      2.523      5.581
  Name = 
  2 active torsions:
  status: ('A' for Active; 'I' for Inactive)
    1  A    between atoms: C_12  and  C_28
    2  A    between atoms: N_13  and  C_33
                            x       y       z     vdW  Elec       q    Type
                         _______ _______ _______ _____ _____    ______ ____

>  <TORSDO>
F 2

$$$$
=
 OpenBabel10252414563D

 34 38  0  0  1  0  0  0  0  0999 V2000
  184.5490  178.3940  140.0210 C   0  0  0  0  0  0  0  0  0  0  0  0
  186.8990  178.4350  139.0920 C   0  0  0  0  0  0  0  0  0  0  0  0
  187.8840  175.4410  136.0930 C   0  0  0  0  0  0  0  0  0  0  0  0
  184.9200  177.8570  137.6670 C   0  0  0  0  0  0  0  0  0  0  0  0
  184.8270  176.7260  134.6040 C   0  0  0  0  0  2  0  0  0  0  0  0
  182.2290  178.2620  140.9700 C   0  0  0  0  0  1  0  0  0  0  0  0
  187.3990  178.9220  140.1420 O   0  0  0  0  0  0  0  0  0  0  0  0
  187.2060  178.4930  136.6710 C   0  0  0  0  0  2  0  0  0  0  0  0
  190.7410  174.7170  137.9570 C   0  0  0  0  0  1  0  0  0  0  0  0
  189.2150  175.8770  136.4150 N   0  0  0  0  0  0  0  0  0  0  0  0
  189.6610  175.7730  137.8070 C   0  0  2  0  0  3  0  0  0  0  0  0
  185.4320  178.2470  138.9350 C   0  0  0  0  0  0  0  0  0  0  0  0
  187.3920  174.4400  136.6790 O   0  0  0  0  0  0  0  0  0  0  0  0
  185.7700  176.5930  135.7160 N   0  0  1  0  0  0  0  0  0  0  0  0
  185.0090  178.8020  141.2710 O   0  0  0  0  0  1  0  0  0  0  0  0
  189.2470  178.3300  138.0900 C   0  0  0  0  0  2  0  0  0  0  0  0
  183.5520  177.4960  137.5680 C   0  0  0  0  0  0  0  0  0  0  0  0
  183.1920  178.1160  139.8430 C   0  0  0  0  0  0  0  0  0  0  0  0
  187.7720  177.9700  137.9730 C   0  0  1  0  0  3  0  0  0  0  0  0
  183.4720  177.3320  135.0180 C   0  0  0  0  0  2  0  0  0  0  0  0
  182.9460  176.8040  136.3610 C   0  0  1  0  0  3  0  0  0  0  0  0
  187.0460  176.2000  135.1090 C   0  0  0  0  0  2  0  0  0  0  0  0
  185.8130  177.8860  136.4300 C   0  0  1  0  0  3  0  0  0  0  0  0
  182.7430  177.6540  138.6500 N   0  0  0  0  0  0  0  0  0  0  0  0
  190.1330  177.1130  138.3940 C   0  0  0  0  0  2  0  0  0  0  0  0
  181.8070  173.1830  137.1710 C   0  0  1  0  0  3  0  0  0  0  0  0
  181.7460  172.7480  135.8330 O   0  0  0  0  0  0  0  0  0  0  0  0
  182.9810  175.2670  136.4660 C   0  0  1  0  0  3  0  0  0  0  0  0
  182.9700  173.0990  135.2350 C   0  0  0  0  0  2  0  0  0  0  0  0
  181.7710  174.7100  137.2230 C   0  0  0  0  0  2  0  0  0  0  0  0
  183.0590  174.6180  135.0810 C   0  0  0  0  0  2  0  0  0  0  0  0
  180.6260  172.6270  137.9370 C   0  0  0  0  0  1  0  0  0  0  0  0
  189.8100  177.6030  134.7720 C   0  0  0  0  0  1  0  0  0  0  0  0
  190.1570  176.2490  135.3610 C   0  0  0  0  0  2  0  0  0  0  0  0
  1 15  1  0  0  0  0
  2  7  2  0  0  0  0
  3 10  1  0  0  0  0
  3 13  2  0  0  0  0
  4 12  1  0  0  0  0
  5 20  1  0  0  0  0
 10 11  1  0  0  0  0
 11  9  1  6  0  0  0
 11 25  1  0  0  0  0
 12  2  1  0  0  0  0
 12  1  2  0  0  0  0
 14  5  1  6  0  0  0
 14 23  1  0  0  0  0
 16 25  1  0  0  0  0
 17  4  2  0  0  0  0
 17 24  1  0  0  0  0
 18  1  1  0  0  0  0
 18  6  1  0  0  0  0
 19  8  1  6  0  0  0
 19 16  1  0  0  0  0
 19  2  1  0  0  0  0
 21 20  1  6  0  0  0
 21 28  1  0  0  0  0
 21 17  1  0  0  0  0
 22 14  1  0  0  0  0
 22  3  1  0  0  0  0
 23  8  1  1  0  0  0
 23  4  1  0  0  0  0
 24 18  2  0  0  0  0
 26 30  1  0  0  0  0
 26 32  1  1  0  0  0
 27 26  1  0  0  0  0
 28 31  1  6  0  0  0
 28 30  1  0  0  0  0
 29 27  1  0  0  0  0
 31 29  1  0  0  0  0
 33 34  1  0  0  0  0
 34 10  1  0  0  0  0
M  END
>  <MODEL>
7

>  <REMARK>
 VINA RESULT:      -4.7      2.221      6.677
  Name = 
  2 active torsions:
  status: ('A' for Active; 'I' for Inactive)
    1  A    between atoms: C_12  and  C_28
    2  A    between atoms: N_13  and  C_33
                            x       y       z     vdW  Elec       q    Type
                         _______ _______ _______ _____ _____    ______ ____

>  <TORSDO>
F 2

$$$$
=
 OpenBabel10252414563D

 34 38  0  0  1  0  0  0  0  0999 V2000
  188.5970  177.8700  140.5320 C   0  0  0  0  0  0  0  0  0  0  0  0
  190.6460  177.1580  139.2360 C   0  0  0  0  0  0  0  0  0  0  0  0
  189.9730  174.9660  135.5370 C   0  0  0  0  0  0  0  0  0  0  0  0
  188.5390  177.8870  138.0900 C   0  0  0  0  0  0  0  0  0  0  0  0
  187.7560  177.7810  134.9210 C   0  0  0  0  0  2  0  0  0  0  0  0
  186.5350  178.4860  141.8240 C   0  0  0  0  0  1  0  0  0  0  0  0
  191.3750  177.0810  140.2610 O   0  0  0  0  0  0  0  0  0  0  0  0
  190.7990  177.7340  136.8680 C   0  0  0  0  0  2  0  0  0  0  0  0
  192.2920  172.6210  136.6700 C   0  0  0  0  0  1  0  0  0  0  0  0
  191.3730  174.6900  135.7070 N   0  0  0  0  0  0  0  0  0  0  0  0
  191.8050  174.0320  136.9430 C   0  0  2  0  0  3  0  0  0  0  0  0
  189.2480  177.6620  139.3020 C   0  0  0  0  0  0  0  0  0  0  0  0
  189.1150  174.1530  135.9720 O   0  0  0  0  0  0  0  0  0  0  0  0
  188.5990  176.9630  135.7950 N   0  0  1  0  0  0  0  0  0  0  0  0
  189.2670  177.6880  141.7400 O   0  0  0  0  0  1  0  0  0  0  0  0
  192.6220  176.3410  137.8380 C   0  0  0  0  0  2  0  0  0  0  0  0
  187.1540  178.1850  138.1580 C   0  0  0  0  0  0  0  0  0  0  0  0
  187.2540  178.2560  140.5400 C   0  0  0  0  0  0  0  0  0  0  0  0
  191.1410  176.6890  137.9070 C   0  0  1  0  0  3  0  0  0  0  0  0
  186.8540  178.7670  135.6870 C   0  0  0  0  0  2  0  0  0  0  0  0
  186.2270  178.1720  136.9560 C   0  0  1  0  0  3  0  0  0  0  0  0
  189.5160  176.2450  134.9030 C   0  0  0  0  0  2  0  0  0  0  0  0
  189.2700  177.8680  136.7510 C   0  0  1  0  0  3  0  0  0  0  0  0
  186.5730  178.3720  139.3730 N   0  0  0  0  0  0  0  0  0  0  0  0
  192.8720  174.8300  137.7120 C   0  0  0  0  0  2  0  0  0  0  0  0
  185.6390  174.3390  137.1020 C   0  0  1  0  0  3  0  0  0  0  0  0
  184.4480  174.4030  137.8500 O   0  0  0  0  0  0  0  0  0  0  0  0
  185.5630  176.8010  136.7210 C   0  0  1  0  0  3  0  0  0  0  0  0
  183.6100  175.3280  137.2010 C   0  0  0  0  0  2  0  0  0  0  0  0
  186.4170  175.6450  137.2510 C   0  0  0  0  0  2  0  0  0  0  0  0
  184.1720  176.7410  137.3590 C   0  0  0  0  0  2  0  0  0  0  0  0
  186.4880  173.1890  137.6040 C   0  0  0  0  0  1  0  0  0  0  0  0
  192.9840  176.2530  134.7100 C   0  0  0  0  0  1  0  0  0  0  0  0
  192.3160  174.8950  134.6080 C   0  0  0  0  0  2  0  0  0  0  0  0
  1 18  1  0  0  0  0
  1 15  1  0  0  0  0
  2 12  1  0  0  0  0
  2  7  2  0  0  0  0
  3 10  1  0  0  0  0
  3 13  2  0  0  0  0
  4 17  2  0  0  0  0
  4 12  1  0  0  0  0
  5 20  1  0  0  0  0
  5 14  1  0  0  0  0
 10 11  1  0  0  0  0
 11  9  1  6  0  0  0
 11 25  1  0  0  0  0
 12  1  2  0  0  0  0
 14 22  1  6  0  0  0
 14 23  1  0  0  0  0
 16 19  1  0  0  0  0
 17 24  1  0  0  0  0
 18  6  1  0  0  0  0
 19  8  1  6  0  0  0
 19  2  1  0  0  0  0
 21 20  1  6  0  0  0
 21 17  1  0  0  0  0
 22  3  1  0  0  0  0
 23  8  1  1  0  0  0
 23  4  1  0  0  0  0
 24 18  2  0  0  0  0
 25 16  1  0  0  0  0
 26 30  1  0  0  0  0
 26 32  1  1  0  0  0
 26 27  1  0  0  0  0
 28 21  1  0  0  0  0
 28 30  1  1  0  0  0
 28 31  1  0  0  0  0
 29 31  1  0  0  0  0
 29 27  1  0  0  0  0
 34 33  1  0  0  0  0
 34 10  1  0  0  0  0
M  END
>  <MODEL>
8

>  <REMARK>
 VINA RESULT:      -4.6      3.508      7.317
  Name = 
  2 active torsions:
  status: ('A' for Active; 'I' for Inactive)
    1  A    between atoms: C_12  and  C_28
    2  A    between atoms: N_13  and  C_33
                            x       y       z     vdW  Elec       q    Type
                         _______ _______ _______ _____ _____    ______ ____

>  <TORSDO>
F 2

$$$$
=
 OpenBabel10252414563D

 34 38  0  0  1  0  0  0  0  0999 V2000
  183.2320  177.7500  139.4990 C   0  0  0  0  0  0  0  0  0  0  0  0
  184.2730  178.5420  141.6610 C   0  0  0  0  0  0  0  0  0  0  0  0
  188.3440  177.2400  142.4800 C   0  0  0  0  0  0  0  0  0  0  0  0
  185.6130  178.2930  139.5580 C   0  0  0  0  0  0  0  0  0  0  0  0
  188.8410  178.5200  139.1140 C   0  0  0  0  0  2  0  0  0  0  0  0
  182.2140  176.8740  137.3790 C   0  0  0  0  0  1  0  0  0  0  0  0
  183.1690  178.6280  142.2640 O   0  0  0  0  0  0  0  0  0  0  0  0
  186.4550  179.6370  141.5860 C   0  0  0  0  0  2  0  0  0  0  0  0
  187.2490  176.2800  145.6490 C   0  0  0  0  0  1  0  0  0  0  0  0
  187.9940  177.7110  143.7920 N   0  0  0  0  0  0  0  0  0  0  0  0
  186.8300  177.1180  144.4550 C   0  0  2  0  0  3  0  0  0  0  0  0
  184.3550  178.2050  140.2150 C   0  0  0  0  0  0  0  0  0  0  0  0
  188.1980  176.0230  142.1900 O   0  0  0  0  0  0  0  0  0  0  0  0
  187.9880  178.0940  140.2250 N   0  0  1  0  0  0  0  0  0  0  0  0
  181.9770  177.6780  140.1010 O   0  0  0  0  0  1  0  0  0  0  0  0
  185.4430  179.2320  143.8250 C   0  0  0  0  0  2  0  0  0  0  0  0
  185.7250  177.7920  138.2360 C   0  0  0  0  0  0  0  0  0  0  0  0
  183.3810  177.3580  138.1670 C   0  0  0  0  0  0  0  0  0  0  0  0
  185.5620  178.7230  142.3960 C   0  0  1  0  0  3  0  0  0  0  0  0
  188.0810  178.6780  137.7830 C   0  0  0  0  0  2  0  0  0  0  0  0
  187.0490  177.5690  137.5260 C   0  0  1  0  0  3  0  0  0  0  0  0
  188.8230  178.1920  141.4260 C   0  0  0  0  0  2  0  0  0  0  0  0
  186.7980  178.9690  140.2420 C   0  0  1  0  0  3  0  0  0  0  0  0
  184.6090  177.3620  137.5910 N   0  0  0  0  0  0  0  0  0  0  0  0
  185.7740  178.1550  144.8700 C   0  0  0  0  0  2  0  0  0  0  0  0
  187.3590  173.7060  137.3230 C   0  0  1  0  0  3  0  0  0  0  0  0
  188.5450  173.6960  136.5650 O   0  0  0  0  0  0  0  0  0  0  0  0
  187.6150  176.1510  137.7370 C   0  0  1  0  0  3  0  0  0  0  0  0
  189.4530  174.5490  137.2180 C   0  0  0  0  0  2  0  0  0  0  0  0
  186.6750  175.0680  137.2000 C   0  0  0  0  0  2  0  0  0  0  0  0
  188.9930  176.0010  137.0840 C   0  0  0  0  0  2  0  0  0  0  0  0
  186.4260  172.6280  136.8150 C   0  0  0  0  0  1  0  0  0  0  0  0
  190.2480  178.0200  144.7170 C   0  0  0  0  0  1  0  0  0  0  0  0
  188.8730  178.6280  144.5170 C   0  0  0  0  0  2  0  0  0  0  0  0
  1 15  1  0  0  0  0
  1 12  1  0  0  0  0
  2  7  2  0  0  0  0
  2 19  1  0  0  0  0
  3 10  1  0  0  0  0
  4 12  2  0  0  0  0
  4 23  1  0  0  0  0
  6 18  1  0  0  0  0
 10 11  1  0  0  0  0
 10 34  1  0  0  0  0
 11 25  1  0  0  0  0
 11  9  1  1  0  0  0
 12  2  1  0  0  0  0
 13  3  2  0  0  0  0
 14  5  1  6  0  0  0
 14 23  1  0  0  0  0
 14 22  1  0  0  0  0
 16 25  1  0  0  0  0
 17  4  1  0  0  0  0
 18  1  2  0  0  0  0
 19  8  1  6  0  0  0
 19 16  1  0  0  0  0
 20  5  1  0  0  0  0
 21 28  1  0  0  0  0
 21 20  1  1  0  0  0
 21 17  1  0  0  0  0
 22  3  1  0  0  0  0
 23  8  1  1  0  0  0
 24 18  1  0  0  0  0
 24 17  2  0  0  0  0
 26 32  1  6  0  0  0
 27 29  1  0  0  0  0
 27 26  1  0  0  0  0
 28 31  1  6  0  0  0
 30 26  1  0  0  0  0
 30 28  1  0  0  0  0
 31 29  1  0  0  0  0
 34 33  1  0  0  0  0
M  END
>  <MODEL>
9

>  <REMARK>
 VINA RESULT:      -4.6      2.448      7.910
  Name = 
  2 active torsions:
  status: ('A' for Active; 'I' for Inactive)
    1  A    between atoms: C_12  and  C_28
    2  A    between atoms: N_13  and  C_33
                            x       y       z     vdW  Elec       q    Type
                         _______ _______ _______ _____ _____    ______ ____

>  <TORSDO>
F 2

$$$$
