=
 OpenBabel10262421553D

 30 32  0  0  0  0  0  0  0  0999 V2000
  186.4450  177.8160  142.6510 C   0  0  0  0  0  3  0  0  0  0  0  0
  184.1120  178.4200  142.3380 C   0  0  0  0  0  0  0  0  0  0  0  0
  186.1010  178.3920  146.8120 C   0  0  0  0  0  3  0  0  0  0  0  0
  187.5580  177.6120  143.4720 C   0  0  0  0  0  0  0  0  0  0  0  0
  187.2020  178.1650  147.6400 C   0  0  0  0  0  3  0  0  0  0  0  0
  182.8890  178.8270  142.8760 C   0  0  0  0  0  3  0  0  0  0  0  0
  184.2190  178.2220  140.9660 O   0  0  0  0  0  1  0  0  0  0  0  0
  186.1990  178.2100  145.4210 C   0  0  0  0  0  0  0  0  0  0  0  0
  182.7550  179.0320  144.2490 C   0  0  0  0  0  3  0  0  0  0  0  0
  185.2170  178.2170  143.1830 C   0  0  0  0  0  0  0  0  0  0  0  0
  187.4380  177.7990  144.8640 C   0  0  0  0  0  0  0  0  0  0  0  0
  188.4150  177.7510  147.0900 C   0  0  0  0  0  3  0  0  0  0  0  0
  188.5320  177.5670  145.7120 C   0  0  0  0  0  3  0  0  0  0  0  0
  183.8480  178.8300  145.0960 C   0  0  0  0  0  3  0  0  0  0  0  0
  185.0880  178.4230  144.5780 C   0  0  0  0  0  0  0  0  0  0  0  0
  190.3350  177.4330  141.1060 O   0  0  0  0  0  0  0  0  0  0  0  0
  189.2080  177.7350  141.5840 C   0  0  0  0  0  0  0  0  0  0  0  0
  188.8070  177.2280  142.8720 N   0  0  0  0  0  0  0  0  0  0  0  0
  188.2940  178.5930  140.7720 C   0  0  0  0  0  2  0  0  0  0  0  0
  188.6950  178.5380  139.3100 C   0  0  0  0  0  2  0  0  0  0  0  0
  187.7850  176.7710  138.0000 O   0  0  0  0  0  0  0  0  0  0  0  0
  187.6100  177.9050  138.5160 C   0  0  0  0  0  0  0  0  0  0  0  0
  186.4120  178.5810  138.3150 O   0  0  0  0  0  1  0  0  0  0  0  0
  189.6110  176.2030  143.5290 C   0  0  0  0  0  2  0  0  0  0  0  0
  191.0480  176.6770  143.6780 C   0  0  0  0  0  2  0  0  0  0  0  0
  191.7090  175.9840  144.8530 C   0  0  0  0  0  2  0  0  0  0  0  0
  191.8080  176.9000  145.9780 N   0  0  0  0  0  2  0  0  0  0  0  0
  192.0100  175.0410  147.6040 N   0  0  0  0  0  1  0  0  0  0  0  0
  191.9540  176.4360  147.3190 C   0  0  0  0  0  0  0  0  0  0  0  0
  192.0360  177.2670  148.2600 O   0  0  0  0  0  0  0  0  0  0  0  0
  1 10  2  0  0  0  0
  1  4  1  0  0  0  0
  2  6  2  0  0  0  0
  2 10  1  0  0  0  0
  3  5  2  0  0  0  0
  4 11  2  0  0  0  0
  6  9  1  0  0  0  0
  7  2  1  0  0  0  0
  8  3  1  0  0  0  0
  9 14  2  0  0  0  0
 10 15  1  0  0  0  0
 11  8  1  0  0  0  0
 11 13  1  0  0  0  0
 12  5  1  0  0  0  0
 13 12  2  0  0  0  0
 15 14  1  0  0  0  0
 15  8  2  0  0  0  0
 16 17  2  0  0  0  0
 17 18  1  0  0  0  0
 18  4  1  0  0  0  0
 18 24  1  0  0  0  0
 19 17  1  0  0  0  0
 20 19  1  0  0  0  0
 21 22  2  0  0  0  0
 22 20  1  0  0  0  0
 23 22  1  0  0  0  0
 24 25  1  0  0  0  0
 25 26  1  0  0  0  0
 26 27  1  0  0  0  0
 27 29  1  0  0  0  0
 29 28  1  0  0  0  0
 29 30  2  0  0  0  0
M  END
>  <MODEL>
1

>  <REMARK>
 VINA RESULT:      -9.8      0.000      0.000
  Name = 
  8 active torsions:
  status: ('A' for Active; 'I' for Inactive)
    1  A    between atoms: C_4  and  N_13
    2  A    between atoms: N_7  and  C_16
    3  A    between atoms: C_8  and  C_12
    4  A    between atoms: C_9  and  C_12
    5  A    between atoms: C_9  and  C_17
    6  A    between atoms: N_13  and  C_27
    7  A    between atoms: C_16  and  C_30
    8  A    between atoms: C_27  and  C_30
                            x       y       z     vdW  Elec       q    Type
                         _______ _______ _______ _____ _____    ______ ____

>  <TORSDO>
F 8

$$$$
=
 OpenBabel10262421553D

 30 32  0  0  0  0  0  0  0  0999 V2000
  188.9460  177.6380  143.4690 C   0  0  0  0  0  3  0  0  0  0  0  0
  190.9140  176.8700  144.6700 C   0  0  0  0  0  0  0  0  0  0  0  0
  186.7860  177.9370  147.0760 C   0  0  0  0  0  3  0  0  0  0  0  0
  187.6140  178.0630  143.4450 C   0  0  0  0  0  0  0  0  0  0  0  0
  185.4650  178.3870  147.0610 C   0  0  0  0  0  3  0  0  0  0  0  0
  191.5370  176.5280  145.8730 C   0  0  0  0  0  3  0  0  0  0  0  0
  191.6330  176.7780  143.4830 O   0  0  0  0  0  1  0  0  0  0  0  0
  187.5200  177.8260  145.8820 C   0  0  0  0  0  0  0  0  0  0  0  0
  190.8370  176.6110  147.0770 C   0  0  0  0  0  3  0  0  0  0  0  0
  189.5760  177.3000  144.6690 C   0  0  0  0  0  0  0  0  0  0  0  0
  186.8970  178.1700  144.6540 C   0  0  0  0  0  0  0  0  0  0  0  0
  184.8580  178.7340  145.8540 C   0  0  0  0  0  3  0  0  0  0  0  0
  185.5700  178.6270  144.6580 C   0  0  0  0  0  3  0  0  0  0  0  0
  189.5080  177.0390  147.0860 C   0  0  0  0  0  3  0  0  0  0  0  0
  188.8610  177.3870  145.8880 C   0  0  0  0  0  0  0  0  0  0  0  0
  187.1410  178.4210  139.8420 O   0  0  0  0  0  0  0  0  0  0  0  0
  187.7180  178.2030  140.9400 C   0  0  0  0  0  0  0  0  0  0  0  0
  187.0030  178.3720  142.1810 N   0  0  0  0  0  0  0  0  0  0  0  0
  189.1580  177.8060  140.9260 C   0  0  0  0  0  2  0  0  0  0  0  0
  189.6690  177.7640  139.4980 C   0  0  0  0  0  2  0  0  0  0  0  0
  191.9640  177.2420  139.8510 O   0  0  0  0  0  1  0  0  0  0  0  0
  190.8480  176.8620  139.4150 C   0  0  0  0  0  0  0  0  0  0  0  0
  190.7230  175.6110  138.8230 O   0  0  0  0  0  0  0  0  0  0  0  0
  185.6830  178.9920  142.1770 C   0  0  0  0  0  2  0  0  0  0  0  0
  184.6260  177.9750  141.7730 C   0  0  0  0  0  2  0  0  0  0  0  0
  183.3180  178.6760  141.4570 C   0  0  0  0  0  2  0  0  0  0  0  0
  182.8720  178.3130  140.1220 N   0  0  0  0  0  2  0  0  0  0  0  0
  184.1860  180.1360  139.0780 N   0  0  0  0  0  1  0  0  0  0  0  0
  183.2970  179.0280  138.9620 C   0  0  0  0  0  0  0  0  0  0  0  0
  182.8850  178.6760  137.8270 O   0  0  0  0  0  0  0  0  0  0  0  0
  1 10  1  0  0  0  0
  2  6  1  0  0  0  0
  4  1  2  0  0  0  0
  4 11  1  0  0  0  0
  5  3  1  0  0  0  0
  6  9  2  0  0  0  0
  7  2  1  0  0  0  0
  8 15  1  0  0  0  0
  8  3  2  0  0  0  0
  9 14  1  0  0  0  0
 10  2  2  0  0  0  0
 10 15  1  0  0  0  0
 11 13  2  0  0  0  0
 11  8  1  0  0  0  0
 12  5  2  0  0  0  0
 13 12  1  0  0  0  0
 15 14  2  0  0  0  0
 16 17  2  0  0  0  0
 17 18  1  0  0  0  0
 18  4  1  0  0  0  0
 19 17  1  0  0  0  0
 20 19  1  0  0  0  0
 22 20  1  0  0  0  0
 22 21  1  0  0  0  0
 23 22  2  0  0  0  0
 24 18  1  0  0  0  0
 25 24  1  0  0  0  0
 26 25  1  0  0  0  0
 27 26  1  0  0  0  0
 29 28  1  0  0  0  0
 29 27  1  0  0  0  0
 30 29  2  0  0  0  0
M  END
>  <MODEL>
2

>  <REMARK>
 VINA RESULT:      -9.1      2.527      6.511
  Name = 
  8 active torsions:
  status: ('A' for Active; 'I' for Inactive)
    1  A    between atoms: C_4  and  N_13
    2  A    between atoms: N_7  and  C_16
    3  A    between atoms: C_8  and  C_12
    4  A    between atoms: C_9  and  C_12
    5  A    between atoms: C_9  and  C_17
    6  A    between atoms: N_13  and  C_27
    7  A    between atoms: C_16  and  C_30
    8  A    between atoms: C_27  and  C_30
                            x       y       z     vdW  Elec       q    Type
                         _______ _______ _______ _____ _____    ______ ____

>  <TORSDO>
F 8

$$$$
=
 OpenBabel10262421553D

 30 32  0  0  0  0  0  0  0  0999 V2000
  188.1850  177.8470  144.1830 C   0  0  0  0  0  3  0  0  0  0  0  0
  187.8600  177.9770  146.5880 C   0  0  0  0  0  0  0  0  0  0  0  0
  184.0930  178.6140  143.5260 C   0  0  0  0  0  3  0  0  0  0  0  0
  187.6920  177.8970  142.8760 C   0  0  0  0  0  0  0  0  0  0  0  0
  183.6000  178.6920  142.2230 C   0  0  0  0  0  3  0  0  0  0  0  0
  187.0130  178.1620  147.6830 C   0  0  0  0  0  3  0  0  0  0  0  0
  189.2110  177.7320  146.8080 O   0  0  0  0  0  1  0  0  0  0  0  0
  185.4540  178.3530  143.7640 C   0  0  0  0  0  0  0  0  0  0  0  0
  185.6530  178.4080  147.4880 C   0  0  0  0  0  3  0  0  0  0  0  0
  187.3440  178.0370  145.2820 C   0  0  0  0  0  0  0  0  0  0  0  0
  186.3250  178.1610  142.6590 C   0  0  0  0  0  0  0  0  0  0  0  0
  184.4590  178.5140  141.1390 C   0  0  0  0  0  3  0  0  0  0  0  0
  185.8130  178.2520  141.3550 C   0  0  0  0  0  3  0  0  0  0  0  0
  185.1320  178.4710  146.1940 C   0  0  0  0  0  3  0  0  0  0  0  0
  185.9650  178.2870  145.0770 C   0  0  0  0  0  0  0  0  0  0  0  0
  190.3120  176.3870  140.8280 O   0  0  0  0  0  0  0  0  0  0  0  0
  189.5740  176.6100  141.8250 C   0  0  0  0  0  0  0  0  0  0  0  0
  188.5940  177.6660  141.7800 N   0  0  0  0  0  0  0  0  0  0  0  0
  189.7660  175.7860  143.0560 C   0  0  0  0  0  2  0  0  0  0  0  0
  191.2450  175.6750  143.3790 C   0  0  0  0  0  2  0  0  0  0  0  0
  191.7820  176.2310  145.6300 O   0  0  0  0  0  1  0  0  0  0  0  0
  191.5960  176.6390  144.4550 C   0  0  0  0  0  0  0  0  0  0  0  0
  191.6870  177.9950  144.1690 O   0  0  0  0  0  0  0  0  0  0  0  0
  188.5940  178.6070  140.6660 C   0  0  0  0  0  2  0  0  0  0  0  0
  188.3070  177.8780  139.3620 C   0  0  0  0  0  2  0  0  0  0  0  0
  188.9880  178.5860  138.2060 C   0  0  0  0  0  2  0  0  0  0  0  0
  188.0140  178.8910  137.1700 N   0  0  0  0  0  2  0  0  0  0  0  0
  188.6110  176.8650  135.8730 N   0  0  0  0  0  1  0  0  0  0  0  0
  187.8340  178.0480  136.0320 C   0  0  0  0  0  0  0  0  0  0  0  0
  186.9780  178.3530  135.1620 O   0  0  0  0  0  0  0  0  0  0  0  0
  1 10  1  0  0  0  0
  2  7  1  0  0  0  0
  2  6  1  0  0  0  0
  3  8  1  0  0  0  0
  4  1  2  0  0  0  0
  5  3  2  0  0  0  0
  8 15  1  0  0  0  0
  9  6  2  0  0  0  0
 10  2  2  0  0  0  0
 11  4  1  0  0  0  0
 11  8  2  0  0  0  0
 12 13  2  0  0  0  0
 12  5  1  0  0  0  0
 13 11  1  0  0  0  0
 14  9  1  0  0  0  0
 15 10  1  0  0  0  0
 15 14  2  0  0  0  0
 16 17  2  0  0  0  0
 17 19  1  0  0  0  0
 18 17  1  0  0  0  0
 18  4  1  0  0  0  0
 19 20  1  0  0  0  0
 20 22  1  0  0  0  0
 22 21  1  0  0  0  0
 23 22  2  0  0  0  0
 24 18  1  0  0  0  0
 25 24  1  0  0  0  0
 26 25  1  0  0  0  0
 27 26  1  0  0  0  0
 28 29  1  0  0  0  0
 29 27  1  0  0  0  0
 30 29  2  0  0  0  0
M  END
>  <MODEL>
3

>  <REMARK>
 VINA RESULT:      -9.0      2.440      6.457
  Name = 
  8 active torsions:
  status: ('A' for Active; 'I' for Inactive)
    1  A    between atoms: C_4  and  N_13
    2  A    between atoms: N_7  and  C_16
    3  A    between atoms: C_8  and  C_12
    4  A    between atoms: C_9  and  C_12
    5  A    between atoms: C_9  and  C_17
    6  A    between atoms: N_13  and  C_27
    7  A    between atoms: C_16  and  C_30
    8  A    between atoms: C_27  and  C_30
                            x       y       z     vdW  Elec       q    Type
                         _______ _______ _______ _____ _____    ______ ____

>  <TORSDO>
F 8

$$$$
=
 OpenBabel10262421553D

 30 32  0  0  0  0  0  0  0  0999 V2000
  188.3560  177.8500  142.9470 C   0  0  0  0  0  3  0  0  0  0  0  0
  190.4870  177.1240  143.8620 C   0  0  0  0  0  0  0  0  0  0  0  0
  186.6500  177.9070  146.8000 C   0  0  0  0  0  3  0  0  0  0  0  0
  187.0160  178.2150  143.1050 C   0  0  0  0  0  0  0  0  0  0  0  0
  185.3200  178.2970  146.9670 C   0  0  0  0  0  3  0  0  0  0  0  0
  191.2670  176.7620  144.9630 C   0  0  0  0  0  3  0  0  0  0  0  0
  191.0560  177.1110  142.5930 O   0  0  0  0  0  1  0  0  0  0  0  0
  187.2340  177.8770  145.5210 C   0  0  0  0  0  0  0  0  0  0  0  0
  190.7190  176.7650  146.2470 C   0  0  0  0  0  3  0  0  0  0  0  0
  189.1430  177.4920  144.0440 C   0  0  0  0  0  0  0  0  0  0  0  0
  186.4500  178.2400  144.3950 C   0  0  0  0  0  0  0  0  0  0  0  0
  184.5550  178.6640  145.8590 C   0  0  0  0  0  3  0  0  0  0  0  0
  185.1170  178.6380  144.5820 C   0  0  0  0  0  3  0  0  0  0  0  0
  189.3850  177.1320  146.4370 C   0  0  0  0  0  3  0  0  0  0  0  0
  188.5810  177.4990  145.3440 C   0  0  0  0  0  0  0  0  0  0  0  0
  186.1250  178.8160  139.6140 O   0  0  0  0  0  0  0  0  0  0  0  0
  186.8370  178.5840  140.6280 C   0  0  0  0  0  0  0  0  0  0  0  0
  186.2410  178.5460  141.9400 N   0  0  0  0  0  0  0  0  0  0  0  0
  188.3070  178.3900  140.4410 C   0  0  0  0  0  2  0  0  0  0  0  0
  188.5600  177.4510  139.2760 C   0  0  0  0  0  2  0  0  0  0  0  0
  189.0570  179.4450  138.0770 O   0  0  0  0  0  1  0  0  0  0  0  0
  189.1940  178.1970  138.1590 C   0  0  0  0  0  0  0  0  0  0  0  0
  189.9120  177.5120  137.1860 O   0  0  0  0  0  0  0  0  0  0  0  0
  184.8590  178.9790  142.1200 C   0  0  0  0  0  2  0  0  0  0  0  0
  183.9070  177.9550  141.5230 C   0  0  0  0  0  2  0  0  0  0  0  0
  182.7870  178.6540  140.7760 C   0  0  0  0  0  2  0  0  0  0  0  0
  181.5100  178.0500  141.1180 N   0  0  0  0  0  2  0  0  0  0  0  0
  181.0600  179.7500  142.8640 N   0  0  0  0  0  1  0  0  0  0  0  0
  180.6700  178.5870  142.1390 C   0  0  0  0  0  0  0  0  0  0  0  0
  179.5720  178.0300  142.3990 O   0  0  0  0  0  0  0  0  0  0  0  0
  1  4  2  0  0  0  0
  1 10  1  0  0  0  0
  2 10  2  0  0  0  0
  2  6  1  0  0  0  0
  3  5  1  0  0  0  0
  4 11  1  0  0  0  0
  6  9  2  0  0  0  0
  7  2  1  0  0  0  0
  8  3  2  0  0  0  0
  9 14  1  0  0  0  0
 10 15  1  0  0  0  0
 11 13  2  0  0  0  0
 11  8  1  0  0  0  0
 12  5  2  0  0  0  0
 13 12  1  0  0  0  0
 15  8  1  0  0  0  0
 15 14  2  0  0  0  0
 16 17  2  0  0  0  0
 17 18  1  0  0  0  0
 18 24  1  0  0  0  0
 18  4  1  0  0  0  0
 19 17  1  0  0  0  0
 20 19  1  0  0  0  0
 21 22  1  0  0  0  0
 22 20  1  0  0  0  0
 23 22  2  0  0  0  0
 25 24  1  0  0  0  0
 26 27  1  0  0  0  0
 26 25  1  0  0  0  0
 27 29  1  0  0  0  0
 29 30  2  0  0  0  0
 29 28  1  0  0  0  0
M  END
>  <MODEL>
4

>  <REMARK>
 VINA RESULT:      -8.8      2.693      6.477
  Name = 
  8 active torsions:
  status: ('A' for Active; 'I' for Inactive)
    1  A    between atoms: C_4  and  N_13
    2  A    between atoms: N_7  and  C_16
    3  A    between atoms: C_8  and  C_12
    4  A    between atoms: C_9  and  C_12
    5  A    between atoms: C_9  and  C_17
    6  A    between atoms: N_13  and  C_27
    7  A    between atoms: C_16  and  C_30
    8  A    between atoms: C_27  and  C_30
                            x       y       z     vdW  Elec       q    Type
                         _______ _______ _______ _____ _____    ______ ____

>  <TORSDO>
F 8

$$$$
=
 OpenBabel10262421553D

 30 32  0  0  0  0  0  0  0  0999 V2000
  188.7240  177.8200  143.3390 C   0  0  0  0  0  3  0  0  0  0  0  0
  190.7130  177.1090  144.5400 C   0  0  0  0  0  0  0  0  0  0  0  0
  186.5080  177.8850  146.9230 C   0  0  0  0  0  3  0  0  0  0  0  0
  187.3730  178.1790  143.3110 C   0  0  0  0  0  0  0  0  0  0  0  0
  185.1660  178.2690  146.9060 C   0  0  0  0  0  3  0  0  0  0  0  0
  191.3380  176.7560  145.7380 C   0  0  0  0  0  3  0  0  0  0  0  0
  191.4500  177.0950  143.3600 O   0  0  0  0  0  1  0  0  0  0  0  0
  187.2610  177.8520  145.7360 C   0  0  0  0  0  0  0  0  0  0  0  0
  190.6200  176.7620  146.9350 C   0  0  0  0  0  3  0  0  0  0  0  0
  189.3560  177.4720  144.5350 C   0  0  0  0  0  0  0  0  0  0  0  0
  186.6370  178.2070  144.5120 C   0  0  0  0  0  0  0  0  0  0  0  0
  184.5580  178.6270  145.7030 C   0  0  0  0  0  3  0  0  0  0  0  0
  185.2890  178.5990  144.5140 C   0  0  0  0  0  3  0  0  0  0  0  0
  189.2710  177.1230  146.9400 C   0  0  0  0  0  3  0  0  0  0  0  0
  188.6220  177.4810  145.7470 C   0  0  0  0  0  0  0  0  0  0  0  0
  186.8900  178.5470  139.7100 O   0  0  0  0  0  0  0  0  0  0  0  0
  187.4680  178.3160  140.8060 C   0  0  0  0  0  0  0  0  0  0  0  0
  186.7630  178.5020  142.0500 N   0  0  0  0  0  0  0  0  0  0  0  0
  188.8990  177.8880  140.7850 C   0  0  0  0  0  2  0  0  0  0  0  0
  189.3170  177.5520  139.3650 C   0  0  0  0  0  2  0  0  0  0  0  0
  190.6190  175.6260  138.8590 O   0  0  0  0  0  0  0  0  0  0  0  0
  190.5780  176.7660  139.3870 C   0  0  0  0  0  0  0  0  0  0  0  0
  191.7040  177.2780  140.0210 O   0  0  0  0  0  1  0  0  0  0  0  0
  185.4560  179.1510  142.0520 C   0  0  0  0  0  2  0  0  0  0  0  0
  184.4010  178.2090  141.4940 C   0  0  0  0  0  2  0  0  0  0  0  0
  183.3400  178.9950  140.7470 C   0  0  0  0  0  2  0  0  0  0  0  0
  182.0330  178.3990  140.9700 N   0  0  0  0  0  2  0  0  0  0  0  0
  181.8170  179.4630  143.1970 N   0  0  0  0  0  1  0  0  0  0  0  0
  181.2920  178.6290  142.1680 C   0  0  0  0  0  0  0  0  0  0  0  0
  180.1650  178.0910  142.3160 O   0  0  0  0  0  0  0  0  0  0  0  0
  1 10  1  0  0  0  0
  2  6  1  0  0  0  0
  4  1  2  0  0  0  0
  4 11  1  0  0  0  0
  5  3  1  0  0  0  0
  6  9  2  0  0  0  0
  7  2  1  0  0  0  0
  8 15  1  0  0  0  0
  8  3  2  0  0  0  0
  9 14  1  0  0  0  0
 10  2  2  0  0  0  0
 10 15  1  0  0  0  0
 11 13  2  0  0  0  0
 11  8  1  0  0  0  0
 12  5  2  0  0  0  0
 13 12  1  0  0  0  0
 15 14  2  0  0  0  0
 16 17  2  0  0  0  0
 17 18  1  0  0  0  0
 18 24  1  0  0  0  0
 18  4  1  0  0  0  0
 19 17  1  0  0  0  0
 20 22  1  0  0  0  0
 20 19  1  0  0  0  0
 21 22  2  0  0  0  0
 22 23  1  0  0  0  0
 25 24  1  0  0  0  0
 26 27  1  0  0  0  0
 26 25  1  0  0  0  0
 27 29  1  0  0  0  0
 29 30  2  0  0  0  0
 29 28  1  0  0  0  0
M  END
>  <MODEL>
5

>  <REMARK>
 VINA RESULT:      -8.7      2.570      6.393
  Name = 
  8 active torsions:
  status: ('A' for Active; 'I' for Inactive)
    1  A    between atoms: C_4  and  N_13
    2  A    between atoms: N_7  and  C_16
    3  A    between atoms: C_8  and  C_12
    4  A    between atoms: C_9  and  C_12
    5  A    between atoms: C_9  and  C_17
    6  A    between atoms: N_13  and  C_27
    7  A    between atoms: C_16  and  C_30
    8  A    between atoms: C_27  and  C_30
                            x       y       z     vdW  Elec       q    Type
                         _______ _______ _______ _____ _____    ______ ____

>  <TORSDO>
F 8

$$$$
=
 OpenBabel10262421553D

 30 32  0  0  0  0  0  0  0  0999 V2000
  183.6580  178.4920  141.3750 C   0  0  0  0  0  3  0  0  0  0  0  0
  185.3230  178.4990  143.1440 C   0  0  0  0  0  0  0  0  0  0  0  0
  180.5720  179.0460  144.1920 C   0  0  0  0  0  3  0  0  0  0  0  0
  182.3300  178.5700  140.9420 C   0  0  0  0  0  0  0  0  0  0  0  0
  179.2480  179.1520  143.7630 C   0  0  0  0  0  3  0  0  0  0  0  0
  185.6410  178.5870  144.5010 C   0  0  0  0  0  3  0  0  0  0  0  0
  186.3440  178.3240  142.2170 O   0  0  0  0  0  1  0  0  0  0  0  0
  181.6140  178.8560  143.2670 C   0  0  0  0  0  0  0  0  0  0  0  0
  184.6340  178.7620  145.4520 C   0  0  0  0  0  3  0  0  0  0  0  0
  183.9830  178.5850  142.7300 C   0  0  0  0  0  0  0  0  0  0  0  0
  181.3010  178.7630  141.8850 C   0  0  0  0  0  0  0  0  0  0  0  0
  178.9450  179.0710  142.4040 C   0  0  0  0  0  3  0  0  0  0  0  0
  179.9660  178.8790  141.4710 C   0  0  0  0  0  3  0  0  0  0  0  0
  183.3000  178.8500  145.0490 C   0  0  0  0  0  3  0  0  0  0  0  0
  182.9560  178.7630  143.6890 C   0  0  0  0  0  0  0  0  0  0  0  0
  181.2770  177.1220  137.7580 O   0  0  0  0  0  0  0  0  0  0  0  0
  181.5790  177.1950  138.9800 C   0  0  0  0  0  0  0  0  0  0  0  0
  182.0460  178.4390  139.5380 N   0  0  0  0  0  0  0  0  0  0  0  0
  181.4800  175.9610  139.8170 C   0  0  0  0  0  2  0  0  0  0  0  0
  180.0280  175.6840  140.1590 C   0  0  0  0  0  2  0  0  0  0  0  0
  179.6810  173.5270  141.1030 O   0  0  0  0  0  1  0  0  0  0  0  0
  179.7590  174.2260  140.0600 C   0  0  0  0  0  0  0  0  0  0  0  0
  179.6270  173.6280  138.8130 O   0  0  0  0  0  0  0  0  0  0  0  0
  182.3650  179.5550  138.6540 C   0  0  0  0  0  2  0  0  0  0  0  0
  181.2200  180.5560  138.6360 C   0  0  0  0  0  2  0  0  0  0  0  0
  181.7350  181.9340  138.2670 C   0  0  0  0  0  2  0  0  0  0  0  0
  180.6550  182.7310  137.7060 N   0  0  0  0  0  2  0  0  0  0  0  0
  182.1120  184.7240  137.4800 N   0  0  0  0  0  1  0  0  0  0  0  0
  180.8440  184.0940  137.3230 C   0  0  0  0  0  0  0  0  0  0  0  0
  179.8800  184.7430  136.8420 O   0  0  0  0  0  0  0  0  0  0  0  0
  1 10  1  0  0  0  0
  2  6  1  0  0  0  0
  4  1  2  0  0  0  0
  4 11  1  0  0  0  0
  5  3  1  0  0  0  0
  6  9  2  0  0  0  0
  7  2  1  0  0  0  0
  8 15  1  0  0  0  0
  8  3  2  0  0  0  0
 10  2  2  0  0  0  0
 10 15  1  0  0  0  0
 11  8  1  0  0  0  0
 12  5  2  0  0  0  0
 13 11  2  0  0  0  0
 13 12  1  0  0  0  0
 14  9  1  0  0  0  0
 15 14  2  0  0  0  0
 16 17  2  0  0  0  0
 17 18  1  0  0  0  0
 17 19  1  0  0  0  0
 18  4  1  0  0  0  0
 19 20  1  0  0  0  0
 22 20  1  0  0  0  0
 22 21  1  0  0  0  0
 23 22  2  0  0  0  0
 24 18  1  0  0  0  0
 25 24  1  0  0  0  0
 26 25  1  0  0  0  0
 27 26  1  0  0  0  0
 29 28  1  0  0  0  0
 29 27  1  0  0  0  0
 30 29  2  0  0  0  0
M  END
>  <MODEL>
6

>  <REMARK>
 VINA RESULT:      -8.5      5.170      9.313
  Name = 
  8 active torsions:
  status: ('A' for Active; 'I' for Inactive)
    1  A    between atoms: C_4  and  N_13
    2  A    between atoms: N_7  and  C_16
    3  A    between atoms: C_8  and  C_12
    4  A    between atoms: C_9  and  C_12
    5  A    between atoms: C_9  and  C_17
    6  A    between atoms: N_13  and  C_27
    7  A    between atoms: C_16  and  C_30
    8  A    between atoms: C_27  and  C_30
                            x       y       z     vdW  Elec       q    Type
                         _______ _______ _______ _____ _____    ______ ____

>  <TORSDO>
F 8

$$$$
=
 OpenBabel10262421553D

 30 32  0  0  0  0  0  0  0  0999 V2000
  187.0670  178.1920  144.8300 C   0  0  0  0  0  3  0  0  0  0  0  0
  186.6870  178.5060  147.2090 C   0  0  0  0  0  0  0  0  0  0  0  0
  190.8880  176.5830  145.5880 C   0  0  0  0  0  3  0  0  0  0  0  0
  187.8700  177.7840  143.7610 C   0  0  0  0  0  0  0  0  0  0  0  0
  191.6840  176.1490  144.5270 C   0  0  0  0  0  3  0  0  0  0  0  0
  187.1390  178.4020  148.5270 C   0  0  0  0  0  3  0  0  0  0  0  0
  185.4230  179.0300  146.9640 O   0  0  0  0  0  1  0  0  0  0  0  0
  189.6130  177.1280  145.3530 C   0  0  0  0  0  0  0  0  0  0  0  0
  188.4040  177.8800  148.8000 C   0  0  0  0  0  3  0  0  0  0  0  0
  187.5100  178.0850  146.1500 C   0  0  0  0  0  0  0  0  0  0  0  0
  189.1450  177.2400  144.0180 C   0  0  0  0  0  0  0  0  0  0  0  0
  191.2170  176.2510  143.2160 C   0  0  0  0  0  3  0  0  0  0  0  0
  189.9550  176.7910  142.9640 C   0  0  0  0  0  3  0  0  0  0  0  0
  189.2270  177.4580  147.7540 C   0  0  0  0  0  3  0  0  0  0  0  0
  188.7950  177.5550  146.4200 C   0  0  0  0  0  0  0  0  0  0  0  0
  185.6650  178.6270  140.9750 O   0  0  0  0  0  0  0  0  0  0  0  0
  186.0510  178.4390  142.1590 C   0  0  0  0  0  0  0  0  0  0  0  0
  187.3790  177.9420  142.4190 N   0  0  0  0  0  0  0  0  0  0  0  0
  185.0930  178.7040  143.2750 C   0  0  0  0  0  2  0  0  0  0  0  0
  183.6670  178.6240  142.7620 C   0  0  0  0  0  2  0  0  0  0  0  0
  183.1550  179.2250  145.0070 O   0  0  0  0  0  1  0  0  0  0  0  0
  182.7230  178.9920  143.8490 C   0  0  0  0  0  0  0  0  0  0  0  0
  181.3580  179.0450  143.5930 O   0  0  0  0  0  0  0  0  0  0  0  0
  188.2020  177.4630  141.3140 C   0  0  0  0  0  2  0  0  0  0  0  0
  188.6380  178.6280  140.4390 C   0  0  0  0  0  2  0  0  0  0  0  0
  189.1130  178.1220  139.0910 C   0  0  0  0  0  2  0  0  0  0  0  0
  189.7850  176.8420  139.2510 N   0  0  0  0  0  2  0  0  0  0  0  0
  190.3830  176.7430  136.8480 N   0  0  0  0  0  1  0  0  0  0  0  0
  190.4030  176.1720  138.1530 C   0  0  0  0  0  0  0  0  0  0  0  0
  190.9730  175.0660  138.3410 O   0  0  0  0  0  0  0  0  0  0  0  0
  1 10  1  0  0  0  0
  2  6  1  0  0  0  0
  4 11  1  0  0  0  0
  4  1  2  0  0  0  0
  5  3  2  0  0  0  0
  6  9  2  0  0  0  0
  7  2  1  0  0  0  0
  8  3  1  0  0  0  0
  8 15  1  0  0  0  0
 10 15  1  0  0  0  0
 10  2  2  0  0  0  0
 11  8  2  0  0  0  0
 12  5  1  0  0  0  0
 13 12  2  0  0  0  0
 13 11  1  0  0  0  0
 14  9  1  0  0  0  0
 15 14  2  0  0  0  0
 16 17  2  0  0  0  0
 17 18  1  0  0  0  0
 17 19  1  0  0  0  0
 18  4  1  0  0  0  0
 20 19  1  0  0  0  0
 20 22  1  0  0  0  0
 22 21  1  0  0  0  0
 23 22  2  0  0  0  0
 24 18  1  0  0  0  0
 25 24  1  0  0  0  0
 26 27  1  0  0  0  0
 26 25  1  0  0  0  0
 28 29  1  0  0  0  0
 29 30  2  0  0  0  0
 29 27  1  0  0  0  0
M  END
>  <MODEL>
7

>  <REMARK>
 VINA RESULT:      -8.4      2.575      5.973
  Name = 
  8 active torsions:
  status: ('A' for Active; 'I' for Inactive)
    1  A    between atoms: C_4  and  N_13
    2  A    between atoms: N_7  and  C_16
    3  A    between atoms: C_8  and  C_12
    4  A    between atoms: C_9  and  C_12
    5  A    between atoms: C_9  and  C_17
    6  A    between atoms: N_13  and  C_27
    7  A    between atoms: C_16  and  C_30
    8  A    between atoms: C_27  and  C_30
                            x       y       z     vdW  Elec       q    Type
                         _______ _______ _______ _____ _____    ______ ____

>  <TORSDO>
F 8

$$$$
=
 OpenBabel10262421553D

 30 32  0  0  0  0  0  0  0  0999 V2000
  186.7300  178.1560  143.5330 C   0  0  0  0  0  3  0  0  0  0  0  0
  185.4080  178.5500  145.5330 C   0  0  0  0  0  0  0  0  0  0  0  0
  190.0820  177.1340  145.8760 C   0  0  0  0  0  3  0  0  0  0  0  0
  187.9300  177.8020  142.9080 C   0  0  0  0  0  0  0  0  0  0  0  0
  191.2740  176.7530  145.2570 C   0  0  0  0  0  3  0  0  0  0  0  0
  185.3070  178.5850  146.9260 C   0  0  0  0  0  3  0  0  0  0  0  0
  184.2970  178.8800  144.7640 O   0  0  0  0  0  1  0  0  0  0  0  0
  188.9550  177.4830  145.1100 C   0  0  0  0  0  0  0  0  0  0  0  0
  186.4070  178.2580  147.7210 C   0  0  0  0  0  3  0  0  0  0  0  0
  186.6220  178.1870  144.9260 C   0  0  0  0  0  0  0  0  0  0  0  0
  189.0460  177.4530  143.6940 C   0  0  0  0  0  0  0  0  0  0  0  0
  191.3570  176.7150  143.8650 C   0  0  0  0  0  3  0  0  0  0  0  0
  190.2500  177.0610  143.0890 C   0  0  0  0  0  3  0  0  0  0  0  0
  187.6170  177.8940  147.1250 C   0  0  0  0  0  3  0  0  0  0  0  0
  187.7420  177.8540  145.7260 C   0  0  0  0  0  0  0  0  0  0  0  0
  187.0840  178.4930  139.4230 O   0  0  0  0  0  0  0  0  0  0  0  0
  186.9710  178.4410  140.6770 C   0  0  0  0  0  0  0  0  0  0  0  0
  187.9980  177.8140  141.4720 N   0  0  0  0  0  0  0  0  0  0  0  0
  185.7410  179.0050  141.3090 C   0  0  0  0  0  2  0  0  0  0  0  0
  184.5110  178.3080  140.7590 C   0  0  0  0  0  2  0  0  0  0  0  0
  182.4280  179.3120  140.1940 O   0  0  0  0  0  1  0  0  0  0  0  0
  183.6730  179.2830  140.0140 C   0  0  0  0  0  0  0  0  0  0  0  0
  184.2610  180.1420  139.0940 O   0  0  0  0  0  0  0  0  0  0  0  0
  189.0610  177.0600  140.8170 C   0  0  0  0  0  2  0  0  0  0  0  0
  189.6560  177.8710  139.6770 C   0  0  0  0  0  2  0  0  0  0  0  0
  190.8210  177.1250  139.0550 C   0  0  0  0  0  2  0  0  0  0  0  0
  191.9850  177.2150  139.9210 N   0  0  0  0  0  2  0  0  0  0  0  0
  193.5390  176.7500  138.0470 N   0  0  0  0  0  1  0  0  0  0  0  0
  193.3110  177.0300  139.4260 C   0  0  0  0  0  0  0  0  0  0  0  0
  194.2870  177.1180  140.2140 O   0  0  0  0  0  0  0  0  0  0  0  0
  1 10  1  0  0  0  0
  2  6  1  0  0  0  0
  4  1  2  0  0  0  0
  4 11  1  0  0  0  0
  5  3  1  0  0  0  0
  6  9  2  0  0  0  0
  7  2  1  0  0  0  0
  8 15  1  0  0  0  0
  8  3  2  0  0  0  0
 10  2  2  0  0  0  0
 10 15  1  0  0  0  0
 11  8  1  0  0  0  0
 12  5  2  0  0  0  0
 13 11  2  0  0  0  0
 13 12  1  0  0  0  0
 14  9  1  0  0  0  0
 15 14  2  0  0  0  0
 16 17  2  0  0  0  0
 17 19  1  0  0  0  0
 17 18  1  0  0  0  0
 18  4  1  0  0  0  0
 20 19  1  0  0  0  0
 22 21  1  0  0  0  0
 22 20  1  0  0  0  0
 23 22  2  0  0  0  0
 24 18  1  0  0  0  0
 25 24  1  0  0  0  0
 26 25  1  0  0  0  0
 26 27  1  0  0  0  0
 28 29  1  0  0  0  0
 29 27  1  0  0  0  0
 29 30  2  0  0  0  0
M  END
>  <MODEL>
8

>  <REMARK>
 VINA RESULT:      -8.3      2.850      4.631
  Name = 
  8 active torsions:
  status: ('A' for Active; 'I' for Inactive)
    1  A    between atoms: C_4  and  N_13
    2  A    between atoms: N_7  and  C_16
    3  A    between atoms: C_8  and  C_12
    4  A    between atoms: C_9  and  C_12
    5  A    between atoms: C_9  and  C_17
    6  A    between atoms: N_13  and  C_27
    7  A    between atoms: C_16  and  C_30
    8  A    between atoms: C_27  and  C_30
                            x       y       z     vdW  Elec       q    Type
                         _______ _______ _______ _____ _____    ______ ____

>  <TORSDO>
F 8

$$$$
=
 OpenBabel10262421553D

 30 32  0  0  0  0  0  0  0  0999 V2000
  184.4210  178.1280  141.6820 C   0  0  0  0  0  3  0  0  0  0  0  0
  185.7400  178.0670  143.7210 C   0  0  0  0  0  0  0  0  0  0  0  0
  181.0240  179.3770  143.8430 C   0  0  0  0  0  3  0  0  0  0  0  0
  183.2160  178.3510  141.0090 C   0  0  0  0  0  0  0  0  0  0  0  0
  179.8260  179.6280  143.1720 C   0  0  0  0  0  3  0  0  0  0  0  0
  185.8320  178.2370  145.1050 C   0  0  0  0  0  3  0  0  0  0  0  0
  186.8650  177.6630  143.0110 O   0  0  0  0  0  1  0  0  0  0  0  0
  182.1660  178.9540  143.1390 C   0  0  0  0  0  0  0  0  0  0  0  0
  184.7170  178.6420  145.8410 C   0  0  0  0  0  3  0  0  0  0  0  0
  184.5200  178.3020  143.0640 C   0  0  0  0  0  0  0  0  0  0  0  0
  182.0840  178.7760  141.7330 C   0  0  0  0  0  0  0  0  0  0  0  0
  179.7510  179.4620  141.7890 C   0  0  0  0  0  3  0  0  0  0  0  0
  180.8730  179.0410  141.0740 C   0  0  0  0  0  3  0  0  0  0  0  0
  183.5020  178.8800  145.1950 C   0  0  0  0  0  3  0  0  0  0  0  0
  183.3850  178.7140  143.8050 C   0  0  0  0  0  0  0  0  0  0  0  0
  182.4670  176.7940  137.7910 O   0  0  0  0  0  0  0  0  0  0  0  0
  182.5620  176.9380  139.0390 C   0  0  0  0  0  0  0  0  0  0  0  0
  183.1580  178.1300  139.5890 N   0  0  0  0  0  0  0  0  0  0  0  0
  182.0820  175.8350  139.9250 C   0  0  0  0  0  2  0  0  0  0  0  0
  180.8080  175.2350  139.3600 C   0  0  0  0  0  2  0  0  0  0  0  0
  178.9330  176.7000  139.3760 O   0  0  0  0  0  0  0  0  0  0  0  0
  179.6270  175.8630  140.0080 C   0  0  0  0  0  0  0  0  0  0  0  0
  179.3100  175.5490  141.3230 O   0  0  0  0  0  1  0  0  0  0  0  0
  183.8360  179.0740  138.7070 C   0  0  0  0  0  2  0  0  0  0  0  0
  185.3430  178.9130  138.8250 C   0  0  0  0  0  2  0  0  0  0  0  0
  185.8820  178.1420  137.6350 C   0  0  0  0  0  2  0  0  0  0  0  0
  187.1170  178.7510  137.1690 N   0  0  0  0  0  2  0  0  0  0  0  0
  188.5080  177.1790  138.4860 N   0  0  0  0  0  1  0  0  0  0  0  0
  188.3980  178.2780  137.5870 C   0  0  0  0  0  0  0  0  0  0  0  0
  189.4390  178.8370  137.1560 O   0  0  0  0  0  0  0  0  0  0  0  0
  1 10  1  0  0  0  0
  2  6  1  0  0  0  0
  4  1  2  0  0  0  0
  4 11  1  0  0  0  0
  5  3  1  0  0  0  0
  6  9  2  0  0  0  0
  7  2  1  0  0  0  0
  8 15  1  0  0  0  0
  8  3  2  0  0  0  0
 10  2  2  0  0  0  0
 10 15  1  0  0  0  0
 11  8  1  0  0  0  0
 12  5  2  0  0  0  0
 13 11  2  0  0  0  0
 13 12  1  0  0  0  0
 14  9  1  0  0  0  0
 15 14  2  0  0  0  0
 16 17  2  0  0  0  0
 17 18  1  0  0  0  0
 17 19  1  0  0  0  0
 18  4  1  0  0  0  0
 20 19  1  0  0  0  0
 20 22  1  0  0  0  0
 21 22  2  0  0  0  0
 22 23  1  0  0  0  0
 24 25  1  0  0  0  0
 24 18  1  0  0  0  0
 26 25  1  0  0  0  0
 27 29  1  0  0  0  0
 27 26  1  0  0  0  0
 29 28  1  0  0  0  0
 30 29  2  0  0  0  0
M  END
>  <MODEL>
9

>  <REMARK>
 VINA RESULT:      -8.2      4.058      7.311
  Name = 
  8 active torsions:
  status: ('A' for Active; 'I' for Inactive)
    1  A    between atoms: C_4  and  N_13
    2  A    between atoms: N_7  and  C_16
    3  A    between atoms: C_8  and  C_12
    4  A    between atoms: C_9  and  C_12
    5  A    between atoms: C_9  and  C_17
    6  A    between atoms: N_13  and  C_27
    7  A    between atoms: C_16  and  C_30
    8  A    between atoms: C_27  and  C_30
                            x       y       z     vdW  Elec       q    Type
                         _______ _______ _______ _____ _____    ______ ____

>  <TORSDO>
F 8

$$$$
