=
 OpenBabel10262423303D

 34 37  0  0  0  0  0  0  0  0999 V2000
  182.9680  177.9550  139.8090 C   0  0  0  0  0  0  0  0  0  0  0  0
  183.3710  177.8390  141.0830 C   0  0  0  0  0  3  0  0  0  0  0  0
  183.1750  174.8010  137.6740 C   0  0  0  0  0  3  0  0  0  0  0  0
  181.6100  175.3930  139.3890 O   0  0  0  0  0  1  0  0  0  0  0  0
  184.3110  175.0620  136.9020 C   0  0  0  0  0  0  0  0  0  0  0  0
  185.0050  176.2620  137.1000 C   0  0  0  0  0  3  0  0  0  0  0  0
  182.7260  175.7190  138.6270 C   0  0  0  0  0  0  0  0  0  0  0  0
  184.5630  177.1870  138.0470 C   0  0  0  0  0  3  0  0  0  0  0  0
  183.4150  176.9380  138.8190 C   0  0  0  0  0  0  0  0  0  0  0  0
  185.6080  173.0510  136.0700 C   0  0  0  0  0  0  0  0  0  0  0  0
  185.8370  172.2240  135.0220 F   0  0  0  0  0  0  0  0  0  0  0  0
  186.3610  172.8030  137.3340 C   0  0  0  0  0  1  0  0  0  0  0  0
  184.7240  174.0430  135.9140 C   0  0  0  0  0  3  0  0  0  0  0  0
  184.1600  180.4600  138.9560 O   0  0  0  0  0  1  0  0  0  0  0  0
  182.7760  180.3240  138.9550 C   0  0  0  0  0  0  0  0  0  0  0  0
  180.5920  181.3040  138.5710 C   0  0  0  0  0  3  0  0  0  0  0  0
  181.9860  181.4060  138.5540 C   0  0  0  0  0  3  0  0  0  0  0  0
  180.7690  179.0350  139.3930 C   0  0  0  0  0  3  0  0  0  0  0  0
  182.1670  179.1230  139.3680 C   0  0  0  0  0  0  0  0  0  0  0  0
  179.9840  180.1200  138.9930 C   0  0  0  0  0  3  0  0  0  0  0  0
  183.0620  178.8350  142.1560 C   0  0  0  0  0  2  0  0  0  0  0  0
  184.4300  178.7570  145.6860 C   0  0  0  0  0  3  0  0  0  0  0  0
  185.2930  178.1820  143.0790 C   0  0  0  0  0  3  0  0  0  0  0  0
  187.9000  177.6290  146.3330 C   0  0  0  0  0  0  0  0  0  0  0  0
  186.5990  178.1010  146.5480 C   0  0  0  0  0  3  0  0  0  0  0  0
  185.7290  178.2870  145.4700 C   0  0  0  0  0  0  0  0  0  0  0  0
  187.4590  177.5250  143.9420 C   0  0  0  0  0  3  0  0  0  0  0  0
  186.1630  177.9970  144.1570 C   0  0  0  0  0  0  0  0  0  0  0  0
  188.3240  177.3420  145.0250 C   0  0  0  0  0  3  0  0  0  0  0  0
  183.9950  178.6570  143.3010 C   0  0  0  0  0  0  0  0  0  0  0  0
  183.5640  178.9390  144.6030 C   0  0  0  0  0  3  0  0  0  0  0  0
  189.7440  176.5890  147.4070 O   0  0  0  0  0  0  0  0  0  0  0  0
  188.8120  177.4350  147.4710 C   0  0  0  0  0  0  0  0  0  0  0  0
  188.6540  178.1860  148.6300 O   0  0  0  0  0  1  0  0  0  0  0  0
  1  2  2  0  0  0  0
  2 21  1  0  0  0  0
  3  7  1  0  0  0  0
  5  6  1  0  0  0  0
  5  3  2  0  0  0  0
  6  8  2  0  0  0  0
  7  9  2  0  0  0  0
  7  4  1  0  0  0  0
  8  9  1  0  0  0  0
  9  1  1  0  0  0  0
 10 12  1  0  0  0  0
 11 10  1  0  0  0  0
 13 10  2  0  0  0  0
 13  5  1  0  0  0  0
 15 14  1  0  0  0  0
 15 19  1  0  0  0  0
 16 20  2  0  0  0  0
 17 16  1  0  0  0  0
 17 15  2  0  0  0  0
 19 18  2  0  0  0  0
 19  1  1  0  0  0  0
 20 18  1  0  0  0  0
 21 30  1  0  0  0  0
 23 30  2  0  0  0  0
 23 28  1  0  0  0  0
 24 25  1  0  0  0  0
 24 33  1  0  0  0  0
 26 22  1  0  0  0  0
 26 25  2  0  0  0  0
 27 28  2  0  0  0  0
 27 29  1  0  0  0  0
 28 26  1  0  0  0  0
 29 24  2  0  0  0  0
 30 31  1  0  0  0  0
 31 22  2  0  0  0  0
 32 33  2  0  0  0  0
 33 34  1  0  0  0  0
M  END
>  <MODEL>
1

>  <REMARK>
 VINA RESULT:      -9.7      0.000      0.000
  Name = 
  6 active torsions:
  status: ('A' for Active; 'I' for Inactive)
    1  A    between atoms: C_1  and  C_20
    2  A    between atoms: C_1  and  C_34
    3  A    between atoms: C_7  and  C_15
    4  A    between atoms: C_9  and  C_18
    5  A    between atoms: C_18  and  C_30
    6  A    between atoms: C_23  and  C_25
                            x       y       z     vdW  Elec       q    Type
                         _______ _______ _______ _____ _____    ______ ____

>  <TORSDO>
F 6

$$$$
=
 OpenBabel10262423303D

 34 37  0  0  0  0  0  0  0  0999 V2000
  183.1480  178.0730  139.8160 C   0  0  0  0  0  0  0  0  0  0  0  0
  183.6050  177.9550  141.0720 C   0  0  0  0  0  3  0  0  0  0  0  0
  185.5050  176.7900  137.1050 C   0  0  0  0  0  3  0  0  0  0  0  0
  185.5980  178.8110  138.3900 O   0  0  0  0  0  1  0  0  0  0  0  0
  184.8850  175.5910  136.7430 C   0  0  0  0  0  0  0  0  0  0  0  0
  183.6940  175.2240  137.3790 C   0  0  0  0  0  3  0  0  0  0  0  0
  184.9570  177.6150  138.0920 C   0  0  0  0  0  0  0  0  0  0  0  0
  183.1390  176.0370  138.3680 C   0  0  0  0  0  3  0  0  0  0  0  0
  183.7620  177.2390  138.7480 C   0  0  0  0  0  0  0  0  0  0  0  0
  186.3150  173.7040  135.8390 C   0  0  0  0  0  0  0  0  0  0  0  0
  186.7980  173.1020  134.7260 F   0  0  0  0  0  0  0  0  0  0  0  0
  186.6980  173.1360  137.1650 C   0  0  0  0  0  1  0  0  0  0  0  0
  185.5250  174.7740  135.6900 C   0  0  0  0  0  3  0  0  0  0  0  0
  180.3110  177.6350  140.2450 O   0  0  0  0  0  1  0  0  0  0  0  0
  180.7440  178.8380  139.6990 C   0  0  0  0  0  0  0  0  0  0  0  0
  180.2060  181.0160  138.7800 C   0  0  0  0  0  3  0  0  0  0  0  0
  179.7980  179.8100  139.3560 C   0  0  0  0  0  3  0  0  0  0  0  0
  182.5100  180.2870  138.8840 C   0  0  0  0  0  3  0  0  0  0  0  0
  182.1130  179.0790  139.4740 C   0  0  0  0  0  0  0  0  0  0  0  0
  181.5610  181.2530  138.5420 C   0  0  0  0  0  3  0  0  0  0  0  0
  183.1320  178.7920  142.2190 C   0  0  0  0  0  2  0  0  0  0  0  0
  184.4550  178.7740  145.7680 C   0  0  0  0  0  3  0  0  0  0  0  0
  185.3470  178.1430  143.1830 C   0  0  0  0  0  3  0  0  0  0  0  0
  187.9100  177.6390  146.4800 C   0  0  0  0  0  0  0  0  0  0  0  0
  186.6080  178.1230  146.6690 C   0  0  0  0  0  3  0  0  0  0  0  0
  185.7530  178.2930  145.5770 C   0  0  0  0  0  0  0  0  0  0  0  0
  187.4980  177.4900  144.0870 C   0  0  0  0  0  3  0  0  0  0  0  0
  186.2020  177.9740  144.2760 C   0  0  0  0  0  0  0  0  0  0  0  0
  188.3480  177.3240  145.1840 C   0  0  0  0  0  3  0  0  0  0  0  0
  184.0500  178.6310  143.3800 C   0  0  0  0  0  0  0  0  0  0  0  0
  183.6040  178.9410  144.6700 C   0  0  0  0  0  3  0  0  0  0  0  0
  189.9100  176.8700  147.5010 O   0  0  0  0  0  0  0  0  0  0  0  0
  188.8050  177.4620  147.6330 C   0  0  0  0  0  0  0  0  0  0  0  0
  188.4410  177.9480  148.8840 O   0  0  0  0  0  1  0  0  0  0  0  0
  1  2  2  0  0  0  0
  2 21  1  0  0  0  0
  3  7  1  0  0  0  0
  5  3  2  0  0  0  0
  5  6  1  0  0  0  0
  6  8  2  0  0  0  0
  7  4  1  0  0  0  0
  7  9  2  0  0  0  0
  8  9  1  0  0  0  0
  9  1  1  0  0  0  0
 10 12  1  0  0  0  0
 11 10  1  0  0  0  0
 13 10  2  0  0  0  0
 13  5  1  0  0  0  0
 15 14  1  0  0  0  0
 16 17  1  0  0  0  0
 17 15  2  0  0  0  0
 18 19  2  0  0  0  0
 19 15  1  0  0  0  0
 19  1  1  0  0  0  0
 20 16  2  0  0  0  0
 20 18  1  0  0  0  0
 21 30  1  0  0  0  0
 23 30  2  0  0  0  0
 23 28  1  0  0  0  0
 24 25  1  0  0  0  0
 24 33  1  0  0  0  0
 26 22  1  0  0  0  0
 26 25  2  0  0  0  0
 27 28  2  0  0  0  0
 27 29  1  0  0  0  0
 28 26  1  0  0  0  0
 29 24  2  0  0  0  0
 30 31  1  0  0  0  0
 31 22  2  0  0  0  0
 32 33  2  0  0  0  0
 33 34  1  0  0  0  0
M  END
>  <MODEL>
2

>  <REMARK>
 VINA RESULT:      -9.5      0.785      1.779
  Name = 
  6 active torsions:
  status: ('A' for Active; 'I' for Inactive)
    1  A    between atoms: C_1  and  C_20
    2  A    between atoms: C_1  and  C_34
    3  A    between atoms: C_7  and  C_15
    4  A    between atoms: C_9  and  C_18
    5  A    between atoms: C_18  and  C_30
    6  A    between atoms: C_23  and  C_25
                            x       y       z     vdW  Elec       q    Type
                         _______ _______ _______ _____ _____    ______ ____

>  <TORSDO>
F 6

$$$$
=
 OpenBabel10262423303D

 34 37  0  0  0  0  0  0  0  0999 V2000
  180.9790  179.2460  140.6160 C   0  0  0  0  0  0  0  0  0  0  0  0
  181.3560  179.7540  141.7990 C   0  0  0  0  0  3  0  0  0  0  0  0
  181.8230  181.4750  137.6380 C   0  0  0  0  0  3  0  0  0  0  0  0
  183.2770  180.2880  139.1280 O   0  0  0  0  0  1  0  0  0  0  0  0
  180.5500  181.8760  137.2220 C   0  0  0  0  0  0  0  0  0  0  0  0
  179.4300  181.4250  137.9320 C   0  0  0  0  0  3  0  0  0  0  0  0
  181.9870  180.6300  138.7390 C   0  0  0  0  0  0  0  0  0  0  0  0
  179.5830  180.5790  139.0310 C   0  0  0  0  0  3  0  0  0  0  0  0
  180.8580  180.1590  139.4480 C   0  0  0  0  0  0  0  0  0  0  0  0
  180.7840  184.0660  135.9690 C   0  0  0  0  0  0  0  0  0  0  0  0
  180.6160  184.6980  134.7830 F   0  0  0  0  0  0  0  0  0  0  0  0
  181.3220  184.8570  137.1140 C   0  0  0  0  0  1  0  0  0  0  0  0
  180.4570  182.7710  136.0500 C   0  0  0  0  0  3  0  0  0  0  0  0
  182.7320  177.2380  139.4660 O   0  0  0  0  0  1  0  0  0  0  0  0
  181.4750  176.8660  139.9290 C   0  0  0  0  0  0  0  0  0  0  0  0
  179.8070  175.1370  140.2520 C   0  0  0  0  0  3  0  0  0  0  0  0
  181.0760  175.5310  139.8190 C   0  0  0  0  0  3  0  0  0  0  0  0
  179.3240  177.4150  140.9070 C   0  0  0  0  0  3  0  0  0  0  0  0
  180.5990  177.8180  140.4880 C   0  0  0  0  0  0  0  0  0  0  0  0
  178.9310  176.0790  140.7930 C   0  0  0  0  0  3  0  0  0  0  0  0
  181.4350  178.9620  143.0660 C   0  0  0  0  0  2  0  0  0  0  0  0
  185.1290  178.2160  142.6980 C   0  0  0  0  0  3  0  0  0  0  0  0
  183.2670  178.6790  144.7450 C   0  0  0  0  0  3  0  0  0  0  0  0
  187.3000  177.9530  145.6900 C   0  0  0  0  0  0  0  0  0  0  0  0
  186.8830  177.9630  144.3520 C   0  0  0  0  0  3  0  0  0  0  0  0
  185.5440  178.2040  144.0330 C   0  0  0  0  0  0  0  0  0  0  0  0
  185.0220  178.4290  146.3970 C   0  0  0  0  0  3  0  0  0  0  0  0
  184.6060  178.4380  145.0630 C   0  0  0  0  0  0  0  0  0  0  0  0
  186.3620  178.1870  146.7080 C   0  0  0  0  0  3  0  0  0  0  0  0
  182.8570  178.6850  143.4070 C   0  0  0  0  0  0  0  0  0  0  0  0
  183.7880  178.4590  142.3860 C   0  0  0  0  0  3  0  0  0  0  0  0
  189.6310  178.2690  145.3740 O   0  0  0  0  0  0  0  0  0  0  0  0
  188.7110  177.6990  146.0200 C   0  0  0  0  0  0  0  0  0  0  0  0
  189.0440  176.8260  147.0490 O   0  0  0  0  0  1  0  0  0  0  0  0
  1  2  2  0  0  0  0
  2 21  1  0  0  0  0
  3  7  1  0  0  0  0
  5  3  2  0  0  0  0
  5  6  1  0  0  0  0
  6  8  2  0  0  0  0
  7  4  1  0  0  0  0
  7  9  2  0  0  0  0
  8  9  1  0  0  0  0
  9  1  1  0  0  0  0
 10 13  2  0  0  0  0
 10 12  1  0  0  0  0
 11 10  1  0  0  0  0
 13  5  1  0  0  0  0
 14 15  1  0  0  0  0
 15 19  1  0  0  0  0
 16 20  2  0  0  0  0
 17 15  2  0  0  0  0
 17 16  1  0  0  0  0
 19  1  1  0  0  0  0
 19 18  2  0  0  0  0
 20 18  1  0  0  0  0
 21 30  1  0  0  0  0
 22 26  1  0  0  0  0
 23 28  1  0  0  0  0
 24 33  1  0  0  0  0
 24 29  1  0  0  0  0
 25 24  2  0  0  0  0
 26 25  1  0  0  0  0
 26 28  2  0  0  0  0
 27 29  2  0  0  0  0
 28 27  1  0  0  0  0
 30 23  2  0  0  0  0
 31 22  2  0  0  0  0
 31 30  1  0  0  0  0
 32 33  2  0  0  0  0
 33 34  1  0  0  0  0
M  END
>  <MODEL>
3

>  <REMARK>
 VINA RESULT:      -9.0      3.435      5.661
  Name = 
  6 active torsions:
  status: ('A' for Active; 'I' for Inactive)
    1  A    between atoms: C_1  and  C_20
    2  A    between atoms: C_1  and  C_34
    3  A    between atoms: C_7  and  C_15
    4  A    between atoms: C_9  and  C_18
    5  A    between atoms: C_18  and  C_30
    6  A    between atoms: C_23  and  C_25
                            x       y       z     vdW  Elec       q    Type
                         _______ _______ _______ _____ _____    ______ ____

>  <TORSDO>
F 6

$$$$
=
 OpenBabel10262423303D

 34 37  0  0  0  0  0  0  0  0999 V2000
  182.6110  177.9470  139.9250 C   0  0  0  0  0  0  0  0  0  0  0  0
  183.3620  177.8060  141.0280 C   0  0  0  0  0  3  0  0  0  0  0  0
  183.5580  175.6210  137.0540 C   0  0  0  0  0  3  0  0  0  0  0  0
  184.6770  177.5720  137.8820 O   0  0  0  0  0  1  0  0  0  0  0  0
  182.4950  174.7130  137.0700 C   0  0  0  0  0  0  0  0  0  0  0  0
  181.4720  174.8820  138.0110 C   0  0  0  0  0  3  0  0  0  0  0  0
  183.6130  176.6810  137.9640 C   0  0  0  0  0  0  0  0  0  0  0  0
  181.5190  175.9350  138.9260 C   0  0  0  0  0  3  0  0  0  0  0  0
  182.5900  176.8450  138.9250 C   0  0  0  0  0  0  0  0  0  0  0  0
  183.2220  172.4890  136.0990 C   0  0  0  0  0  0  0  0  0  0  0  0
  183.0760  171.6150  135.0750 F   0  0  0  0  0  0  0  0  0  0  0  0
  184.1760  172.1340  137.1910 C   0  0  0  0  0  1  0  0  0  0  0  0
  182.5070  173.6190  136.0770 C   0  0  0  0  0  3  0  0  0  0  0  0
  180.0340  178.5750  141.1040 O   0  0  0  0  0  1  0  0  0  0  0  0
  180.6380  179.4900  140.2480 C   0  0  0  0  0  0  0  0  0  0  0  0
  180.5540  181.6150  139.0850 C   0  0  0  0  0  3  0  0  0  0  0  0
  179.9820  180.6910  139.9630 C   0  0  0  0  0  3  0  0  0  0  0  0
  182.4450  180.1390  138.7670 C   0  0  0  0  0  3  0  0  0  0  0  0
  181.8860  179.2120  139.6560 C   0  0  0  0  0  0  0  0  0  0  0  0
  181.7840  181.3370  138.4850 C   0  0  0  0  0  3  0  0  0  0  0  0
  183.5360  178.8680  142.0670 C   0  0  0  0  0  2  0  0  0  0  0  0
  186.9290  177.6780  143.2560 C   0  0  0  0  0  3  0  0  0  0  0  0
  184.5810  178.7680  144.3370 C   0  0  0  0  0  3  0  0  0  0  0  0
  187.8290  177.8480  146.8470 C   0  0  0  0  0  0  0  0  0  0  0  0
  187.9160  177.6100  145.4680 C   0  0  0  0  0  3  0  0  0  0  0  0
  186.8400  177.9140  144.6310 C   0  0  0  0  0  0  0  0  0  0  0  0
  185.5700  178.7020  146.5480 C   0  0  0  0  0  3  0  0  0  0  0  0
  185.6580  178.4640  145.1750 C   0  0  0  0  0  0  0  0  0  0  0  0
  186.6500  178.3950  147.3800 C   0  0  0  0  0  3  0  0  0  0  0  0
  184.6750  178.5250  142.9620 C   0  0  0  0  0  0  0  0  0  0  0  0
  185.8490  177.9850  142.4230 C   0  0  0  0  0  3  0  0  0  0  0  0
  189.1110  178.1210  148.8250 O   0  0  0  0  0  1  0  0  0  0  0  0
  188.9650  177.5260  147.7240 C   0  0  0  0  0  0  0  0  0  0  0  0
  189.8900  176.5600  147.3460 O   0  0  0  0  0  0  0  0  0  0  0  0
  1  2  2  0  0  0  0
  2 21  1  0  0  0  0
  3  5  2  0  0  0  0
  3  7  1  0  0  0  0
  4  7  1  0  0  0  0
  5  6  1  0  0  0  0
  6  8  2  0  0  0  0
  7  9  2  0  0  0  0
  9  8  1  0  0  0  0
  9  1  1  0  0  0  0
 10 12  1  0  0  0  0
 11 10  1  0  0  0  0
 13 10  2  0  0  0  0
 13  5  1  0  0  0  0
 15 14  1  0  0  0  0
 16 17  2  0  0  0  0
 17 15  1  0  0  0  0
 18 19  1  0  0  0  0
 19  1  1  0  0  0  0
 19 15  2  0  0  0  0
 20 18  2  0  0  0  0
 20 16  1  0  0  0  0
 21 30  1  0  0  0  0
 22 26  1  0  0  0  0
 23 28  1  0  0  0  0
 24 29  1  0  0  0  0
 24 33  1  0  0  0  0
 25 24  2  0  0  0  0
 26 28  2  0  0  0  0
 26 25  1  0  0  0  0
 27 29  2  0  0  0  0
 28 27  1  0  0  0  0
 30 23  2  0  0  0  0
 31 30  1  0  0  0  0
 31 22  2  0  0  0  0
 33 32  1  0  0  0  0
 34 33  2  0  0  0  0
M  END
>  <MODEL>
4

>  <REMARK>
 VINA RESULT:      -9.0      1.391      2.365
  Name = 
  6 active torsions:
  status: ('A' for Active; 'I' for Inactive)
    1  A    between atoms: C_1  and  C_20
    2  A    between atoms: C_1  and  C_34
    3  A    between atoms: C_7  and  C_15
    4  A    between atoms: C_9  and  C_18
    5  A    between atoms: C_18  and  C_30
    6  A    between atoms: C_23  and  C_25
                            x       y       z     vdW  Elec       q    Type
                         _______ _______ _______ _____ _____    ______ ____

>  <TORSDO>
F 6

$$$$
=
 OpenBabel10262423303D

 34 37  0  0  0  0  0  0  0  0999 V2000
  189.7820  176.4440  138.4020 C   0  0  0  0  0  0  0  0  0  0  0  0
  189.7440  176.7960  139.6960 C   0  0  0  0  0  3  0  0  0  0  0  0
  192.2890  173.9820  136.9190 C   0  0  0  0  0  3  0  0  0  0  0  0
  190.0010  173.6500  137.5490 O   0  0  0  0  0  1  0  0  0  0  0  0
  193.4320  174.7790  136.8130 C   0  0  0  0  0  0  0  0  0  0  0  0
  193.3740  176.1100  137.2440 C   0  0  0  0  0  3  0  0  0  0  0  0
  191.0980  174.4970  137.4370 C   0  0  0  0  0  0  0  0  0  0  0  0
  192.1890  176.6350  137.7600 C   0  0  0  0  0  3  0  0  0  0  0  0
  191.0310  175.8440  137.8580 C   0  0  0  0  0  0  0  0  0  0  0  0
  195.6330  173.5260  136.9080 C   0  0  0  0  0  0  0  0  0  0  0  0
  196.6710  173.0350  136.1900 F   0  0  0  0  0  0  0  0  0  0  0  0
  195.6480  173.3280  138.3870 C   0  0  0  0  0  1  0  0  0  0  0  0
  194.6540  174.1630  136.2550 C   0  0  0  0  0  3  0  0  0  0  0  0
  189.4000  179.0080  137.0950 O   0  0  0  0  0  1  0  0  0  0  0  0
  188.4840  177.9840  136.8780 C   0  0  0  0  0  0  0  0  0  0  0  0
  186.4380  177.2150  135.8300 C   0  0  0  0  0  3  0  0  0  0  0  0
  187.3880  178.2180  136.0420 C   0  0  0  0  0  3  0  0  0  0  0  0
  187.6750  175.7360  137.2920 C   0  0  0  0  0  3  0  0  0  0  0  0
  188.6390  176.7310  137.5020 C   0  0  0  0  0  0  0  0  0  0  0  0
  186.5800  175.9750  136.4580 C   0  0  0  0  0  3  0  0  0  0  0  0
  188.5840  177.4830  140.3460 C   0  0  0  0  0  2  0  0  0  0  0  0
  190.2920  177.8690  143.7030 C   0  0  0  0  0  3  0  0  0  0  0  0
  187.7070  177.4690  142.6880 C   0  0  0  0  0  3  0  0  0  0  0  0
  188.3190  177.7650  146.8380 C   0  0  0  0  0  0  0  0  0  0  0  0
  189.4060  177.8650  145.9590 C   0  0  0  0  0  3  0  0  0  0  0  0
  189.2080  177.7670  144.5790 C   0  0  0  0  0  0  0  0  0  0  0  0
  186.8220  177.4680  144.9430 C   0  0  0  0  0  3  0  0  0  0  0  0
  187.9060  177.5670  144.0680 C   0  0  0  0  0  0  0  0  0  0  0  0
  187.0290  177.5660  146.3220 C   0  0  0  0  0  3  0  0  0  0  0  0
  188.7980  177.5660  141.8160 C   0  0  0  0  0  0  0  0  0  0  0  0
  190.0870  177.7710  142.3230 C   0  0  0  0  0  3  0  0  0  0  0  0
  187.6160  177.5580  149.0960 O   0  0  0  0  0  1  0  0  0  0  0  0
  188.5340  177.8690  148.2900 C   0  0  0  0  0  0  0  0  0  0  0  0
  189.7530  178.3130  148.7880 O   0  0  0  0  0  0  0  0  0  0  0  0
  1  2  2  0  0  0  0
  2 21  1  0  0  0  0
  3  7  1  0  0  0  0
  5  3  2  0  0  0  0
  5  6  1  0  0  0  0
  6  8  2  0  0  0  0
  7  4  1  0  0  0  0
  7  9  2  0  0  0  0
  8  9  1  0  0  0  0
  9  1  1  0  0  0  0
 10 12  1  0  0  0  0
 11 10  1  0  0  0  0
 13  5  1  0  0  0  0
 13 10  2  0  0  0  0
 15 14  1  0  0  0  0
 15 19  1  0  0  0  0
 16 17  1  0  0  0  0
 16 20  2  0  0  0  0
 17 15  2  0  0  0  0
 18 19  2  0  0  0  0
 19  1  1  0  0  0  0
 20 18  1  0  0  0  0
 21 30  1  0  0  0  0
 22 26  1  0  0  0  0
 23 28  1  0  0  0  0
 24 33  1  0  0  0  0
 25 24  2  0  0  0  0
 26 25  1  0  0  0  0
 27 29  2  0  0  0  0
 28 26  2  0  0  0  0
 28 27  1  0  0  0  0
 29 24  1  0  0  0  0
 30 31  1  0  0  0  0
 30 23  2  0  0  0  0
 31 22  2  0  0  0  0
 33 34  2  0  0  0  0
 33 32  1  0  0  0  0
M  END
>  <MODEL>
5

>  <REMARK>
 VINA RESULT:      -8.9      5.093      6.786
  Name = 
  6 active torsions:
  status: ('A' for Active; 'I' for Inactive)
    1  A    between atoms: C_1  and  C_20
    2  A    between atoms: C_1  and  C_34
    3  A    between atoms: C_7  and  C_15
    4  A    between atoms: C_9  and  C_18
    5  A    between atoms: C_18  and  C_30
    6  A    between atoms: C_23  and  C_25
                            x       y       z     vdW  Elec       q    Type
                         _______ _______ _______ _____ _____    ______ ____

>  <TORSDO>
F 6

$$$$
=
 OpenBabel10262423303D

 34 37  0  0  0  0  0  0  0  0999 V2000
  189.7680  177.3050  144.0570 C   0  0  0  0  0  0  0  0  0  0  0  0
  188.4740  177.6490  144.1430 C   0  0  0  0  0  3  0  0  0  0  0  0
  192.2270  177.8200  141.1870 C   0  0  0  0  0  3  0  0  0  0  0  0
  192.3140  178.6200  143.4440 O   0  0  0  0  0  1  0  0  0  0  0  0
  191.5910  177.1330  140.1490 C   0  0  0  0  0  0  0  0  0  0  0  0
  190.3560  176.5220  140.3970 C   0  0  0  0  0  3  0  0  0  0  0  0
  191.6530  177.8970  142.4590 C   0  0  0  0  0  0  0  0  0  0  0  0
  189.7750  176.5890  141.6640 C   0  0  0  0  0  3  0  0  0  0  0  0
  190.4130  177.2680  142.7170 C   0  0  0  0  0  0  0  0  0  0  0  0
  192.0210  176.2760  137.8040 C   0  0  0  0  0  0  0  0  0  0  0  0
  192.7620  176.4200  136.6800 F   0  0  0  0  0  0  0  0  0  0  0  0
  190.9830  175.2040  137.8250 C   0  0  0  0  0  1  0  0  0  0  0  0
  192.2610  177.0970  138.8320 C   0  0  0  0  0  3  0  0  0  0  0  0
  191.7540  175.1880  144.0140 O   0  0  0  0  0  1  0  0  0  0  0  0
  191.4850  175.8520  145.2060 C   0  0  0  0  0  0  0  0  0  0  0  0
  191.8990  176.1080  147.5800 C   0  0  0  0  0  3  0  0  0  0  0  0
  192.1710  175.4750  146.3650 C   0  0  0  0  0  3  0  0  0  0  0  0
  190.2500  177.5000  146.4870 C   0  0  0  0  0  3  0  0  0  0  0  0
  190.5240  176.8810  145.2600 C   0  0  0  0  0  0  0  0  0  0  0  0
  190.9370  177.1180  147.6420 C   0  0  0  0  0  3  0  0  0  0  0  0
  187.6870  177.6450  145.4150 C   0  0  0  0  0  2  0  0  0  0  0  0
  184.0820  178.6800  145.9370 C   0  0  0  0  0  3  0  0  0  0  0  0
  185.7940  178.0050  143.8200 C   0  0  0  0  0  3  0  0  0  0  0  0
  181.7940  179.0450  143.0450 C   0  0  0  0  0  0  0  0  0  0  0  0
  182.2740  179.0340  144.3610 C   0  0  0  0  0  3  0  0  0  0  0  0
  183.6030  178.6890  144.6240 C   0  0  0  0  0  0  0  0  0  0  0  0
  183.9870  178.3610  142.2460 C   0  0  0  0  0  3  0  0  0  0  0  0
  184.4660  178.3500  143.5580 C   0  0  0  0  0  0  0  0  0  0  0  0
  182.6580  178.7070  141.9910 C   0  0  0  0  0  3  0  0  0  0  0  0
  186.2670  177.9930  145.1380 C   0  0  0  0  0  0  0  0  0  0  0  0
  185.4130  178.3350  146.1930 C   0  0  0  0  0  3  0  0  0  0  0  0
  180.0720  180.6130  142.5880 O   0  0  0  0  0  0  0  0  0  0  0  0
  180.3940  179.4090  142.7750 C   0  0  0  0  0  0  0  0  0  0  0  0
  179.4120  178.4270  142.7220 O   0  0  0  0  0  1  0  0  0  0  0  0
  1  2  2  0  0  0  0
  1 19  1  0  0  0  0
  2 21  1  0  0  0  0
  3  7  1  0  0  0  0
  5  6  1  0  0  0  0
  5  3  2  0  0  0  0
  6  8  2  0  0  0  0
  7  9  2  0  0  0  0
  7  4  1  0  0  0  0
  8  9  1  0  0  0  0
  9  1  1  0  0  0  0
 10 12  1  0  0  0  0
 10 13  2  0  0  0  0
 11 10  1  0  0  0  0
 13  5  1  0  0  0  0
 14 15  1  0  0  0  0
 15 19  2  0  0  0  0
 15 17  1  0  0  0  0
 16 20  1  0  0  0  0
 17 16  2  0  0  0  0
 18 20  2  0  0  0  0
 19 18  1  0  0  0  0
 22 31  1  0  0  0  0
 23 30  1  0  0  0  0
 24 25  2  0  0  0  0
 25 26  1  0  0  0  0
 26 22  2  0  0  0  0
 27 28  1  0  0  0  0
 28 23  2  0  0  0  0
 28 26  1  0  0  0  0
 29 27  2  0  0  0  0
 29 24  1  0  0  0  0
 30 21  1  0  0  0  0
 30 31  2  0  0  0  0
 32 33  2  0  0  0  0
 33 24  1  0  0  0  0
 34 33  1  0  0  0  0
M  END
>  <MODEL>
6

>  <REMARK>
 VINA RESULT:      -8.6      4.024      8.679
  Name = 
  6 active torsions:
  status: ('A' for Active; 'I' for Inactive)
    1  A    between atoms: C_1  and  C_20
    2  A    between atoms: C_1  and  C_34
    3  A    between atoms: C_7  and  C_15
    4  A    between atoms: C_9  and  C_18
    5  A    between atoms: C_18  and  C_30
    6  A    between atoms: C_23  and  C_25
                            x       y       z     vdW  Elec       q    Type
                         _______ _______ _______ _____ _____    ______ ____

>  <TORSDO>
F 6

$$$$
=
 OpenBabel10262423303D

 34 37  0  0  0  0  0  0  0  0999 V2000
  181.0480  179.1570  140.7750 C   0  0  0  0  0  0  0  0  0  0  0  0
  181.4030  179.5930  141.9930 C   0  0  0  0  0  3  0  0  0  0  0  0
  181.9840  181.4850  137.9020 C   0  0  0  0  0  3  0  0  0  0  0  0
  183.3850  180.1410  139.3070 O   0  0  0  0  0  1  0  0  0  0  0  0
  180.7320  181.9800  137.5270 C   0  0  0  0  0  0  0  0  0  0  0  0
  179.5970  181.5580  138.2290 C   0  0  0  0  0  3  0  0  0  0  0  0
  182.1120  180.5760  138.9560 C   0  0  0  0  0  0  0  0  0  0  0  0
  179.7130  180.6480  139.2810 C   0  0  0  0  0  3  0  0  0  0  0  0
  180.9660  180.1350  139.6570 C   0  0  0  0  0  0  0  0  0  0  0  0
  181.0980  184.2090  136.3770 C   0  0  0  0  0  0  0  0  0  0  0  0
  180.9490  184.9120  135.2300 F   0  0  0  0  0  0  0  0  0  0  0  0
  181.7210  184.8990  137.5450 C   0  0  0  0  0  1  0  0  0  0  0  0
  180.6780  182.9390  136.4030 C   0  0  0  0  0  3  0  0  0  0  0  0
  182.8490  177.1570  139.6900 O   0  0  0  0  0  1  0  0  0  0  0  0
  181.5520  176.7950  140.0350 C   0  0  0  0  0  0  0  0  0  0  0  0
  179.8310  175.0920  140.1510 C   0  0  0  0  0  3  0  0  0  0  0  0
  181.1380  175.4740  139.8390 C   0  0  0  0  0  3  0  0  0  0  0  0
  179.3390  177.3530  140.8570 C   0  0  0  0  0  3  0  0  0  0  0  0
  180.6520  177.7440  140.5590 C   0  0  0  0  0  0  0  0  0  0  0  0
  178.9310  176.0320  140.6570 C   0  0  0  0  0  3  0  0  0  0  0  0
  181.4420  178.7310  143.2150 C   0  0  0  0  0  2  0  0  0  0  0  0
  184.4050  178.7580  145.5740 C   0  0  0  0  0  3  0  0  0  0  0  0
  183.8780  178.2860  142.8590 C   0  0  0  0  0  3  0  0  0  0  0  0
  187.8040  177.9600  144.3310 C   0  0  0  0  0  0  0  0  0  0  0  0
  186.7560  178.3060  145.1950 C   0  0  0  0  0  3  0  0  0  0  0  0
  185.4490  178.4160  144.7110 C   0  0  0  0  0  0  0  0  0  0  0  0
  186.2270  177.8320  142.4830 C   0  0  0  0  0  3  0  0  0  0  0  0
  185.1830  178.1770  143.3440 C   0  0  0  0  0  0  0  0  0  0  0  0
  187.5310  177.7250  142.9740 C   0  0  0  0  0  3  0  0  0  0  0  0
  182.8360  178.6350  143.7270 C   0  0  0  0  0  0  0  0  0  0  0  0
  183.1000  178.8660  145.0830 C   0  0  0  0  0  3  0  0  0  0  0  0
  190.1370  178.3860  144.2340 O   0  0  0  0  0  0  0  0  0  0  0  0
  189.1760  177.8460  144.8470 C   0  0  0  0  0  0  0  0  0  0  0  0
  189.4290  177.1410  146.0180 O   0  0  0  0  0  1  0  0  0  0  0  0
  1  2  2  0  0  0  0
  2 21  1  0  0  0  0
  3  7  1  0  0  0  0
  5  3  2  0  0  0  0
  5  6  1  0  0  0  0
  6  8  2  0  0  0  0
  7  4  1  0  0  0  0
  7  9  2  0  0  0  0
  8  9  1  0  0  0  0
  9  1  1  0  0  0  0
 10 13  2  0  0  0  0
 10 12  1  0  0  0  0
 11 10  1  0  0  0  0
 13  5  1  0  0  0  0
 14 15  1  0  0  0  0
 15 19  1  0  0  0  0
 16 20  2  0  0  0  0
 17 15  2  0  0  0  0
 17 16  1  0  0  0  0
 19  1  1  0  0  0  0
 19 18  2  0  0  0  0
 20 18  1  0  0  0  0
 21 30  1  0  0  0  0
 23 28  2  0  0  0  0
 23 30  1  0  0  0  0
 24 33  1  0  0  0  0
 24 25  2  0  0  0  0
 26 25  1  0  0  0  0
 26 22  2  0  0  0  0
 27 29  2  0  0  0  0
 27 28  1  0  0  0  0
 28 26  1  0  0  0  0
 29 24  1  0  0  0  0
 30 31  2  0  0  0  0
 31 22  1  0  0  0  0
 32 33  2  0  0  0  0
 33 34  1  0  0  0  0
M  END
>  <MODEL>
7

>  <REMARK>
 VINA RESULT:      -8.6      3.491      5.614
  Name = 
  6 active torsions:
  status: ('A' for Active; 'I' for Inactive)
    1  A    between atoms: C_1  and  C_20
    2  A    between atoms: C_1  and  C_34
    3  A    between atoms: C_7  and  C_15
    4  A    between atoms: C_9  and  C_18
    5  A    between atoms: C_18  and  C_30
    6  A    between atoms: C_23  and  C_25
                            x       y       z     vdW  Elec       q    Type
                         _______ _______ _______ _____ _____    ______ ____

>  <TORSDO>
F 6

$$$$
=
 OpenBabel10262423303D

 34 37  0  0  0  0  0  0  0  0999 V2000
  182.8570  177.9310  141.2210 C   0  0  0  0  0  0  0  0  0  0  0  0
  184.0860  177.9890  141.7570 C   0  0  0  0  0  3  0  0  0  0  0  0
  183.1810  176.9350  137.5530 C   0  0  0  0  0  3  0  0  0  0  0  0
  184.2430  178.7120  138.7610 O   0  0  0  0  0  1  0  0  0  0  0  0
  182.2950  175.8570  137.4790 C   0  0  0  0  0  0  0  0  0  0  0  0
  181.5890  175.4780  138.6280 C   0  0  0  0  0  3  0  0  0  0  0  0
  183.3740  177.6270  138.7520 C   0  0  0  0  0  0  0  0  0  0  0  0
  181.7760  176.1600  139.8300 C   0  0  0  0  0  3  0  0  0  0  0  0
  182.6750  177.2380  139.9170 C   0  0  0  0  0  0  0  0  0  0  0  0
  182.4500  173.9100  135.8640 C   0  0  0  0  0  0  0  0  0  0  0  0
  182.2290  173.4900  134.5960 F   0  0  0  0  0  0  0  0  0  0  0  0
  183.0250  172.9340  136.8350 C   0  0  0  0  0  1  0  0  0  0  0  0
  182.1450  175.1750  136.1760 C   0  0  0  0  0  3  0  0  0  0  0  0
  181.3300  180.0210  139.9070 O   0  0  0  0  0  1  0  0  0  0  0  0
  180.9890  179.6310  141.1970 C   0  0  0  0  0  0  0  0  0  0  0  0
  179.5770  179.9110  143.1470 C   0  0  0  0  0  3  0  0  0  0  0  0
  179.9220  180.2650  141.8400 C   0  0  0  0  0  3  0  0  0  0  0  0
  181.3670  178.2850  143.1780 C   0  0  0  0  0  3  0  0  0  0  0  0
  181.7140  178.6230  141.8640 C   0  0  0  0  0  0  0  0  0  0  0  0
  180.3010  178.9230  143.8170 C   0  0  0  0  0  3  0  0  0  0  0  0
  184.4190  178.7250  143.0160 C   0  0  0  0  0  2  0  0  0  0  0  0
  188.0490  177.6500  143.0540 C   0  0  0  0  0  3  0  0  0  0  0  0
  186.0080  178.2410  144.8850 C   0  0  0  0  0  3  0  0  0  0  0  0
  189.8220  177.1280  146.2660 C   0  0  0  0  0  0  0  0  0  0  0  0
  189.5670  177.2040  144.8900 C   0  0  0  0  0  3  0  0  0  0  0  0
  188.3010  177.5730  144.4260 C   0  0  0  0  0  0  0  0  0  0  0  0
  187.5270  177.7970  146.7200 C   0  0  0  0  0  3  0  0  0  0  0  0
  187.2740  177.8720  145.3490 C   0  0  0  0  0  0  0  0  0  0  0  0
  188.7950  177.4260  147.1760 C   0  0  0  0  0  3  0  0  0  0  0  0
  185.7600  178.3120  143.5100 C   0  0  0  0  0  0  0  0  0  0  0  0
  186.7810  178.0210  142.5960 C   0  0  0  0  0  3  0  0  0  0  0  0
  191.9130  176.0300  146.0320 O   0  0  0  0  0  0  0  0  0  0  0  0
  191.1550  176.7380  146.7480 C   0  0  0  0  0  0  0  0  0  0  0  0
  191.5950  177.1500  148.0010 O   0  0  0  0  0  1  0  0  0  0  0  0
  1  2  2  0  0  0  0
  1 19  1  0  0  0  0
  2 21  1  0  0  0  0
  3  7  1  0  0  0  0
  5  3  2  0  0  0  0
  5  6  1  0  0  0  0
  6  8  2  0  0  0  0
  7  4  1  0  0  0  0
  7  9  2  0  0  0  0
  8  9  1  0  0  0  0
  9  1  1  0  0  0  0
 10 13  2  0  0  0  0
 10 12  1  0  0  0  0
 11 10  1  0  0  0  0
 13  5  1  0  0  0  0
 14 15  1  0  0  0  0
 15 17  2  0  0  0  0
 15 19  1  0  0  0  0
 16 20  2  0  0  0  0
 17 16  1  0  0  0  0
 18 20  1  0  0  0  0
 19 18  2  0  0  0  0
 21 30  1  0  0  0  0
 22 26  1  0  0  0  0
 23 28  1  0  0  0  0
 24 33  1  0  0  0  0
 24 29  1  0  0  0  0
 25 24  2  0  0  0  0
 26 25  1  0  0  0  0
 26 28  2  0  0  0  0
 27 29  2  0  0  0  0
 28 27  1  0  0  0  0
 30 23  2  0  0  0  0
 31 22  2  0  0  0  0
 31 30  1  0  0  0  0
 32 33  2  0  0  0  0
 33 34  1  0  0  0  0
M  END
>  <MODEL>
8

>  <REMARK>
 VINA RESULT:      -8.4      2.067      3.081
  Name = 
  6 active torsions:
  status: ('A' for Active; 'I' for Inactive)
    1  A    between atoms: C_1  and  C_20
    2  A    between atoms: C_1  and  C_34
    3  A    between atoms: C_7  and  C_15
    4  A    between atoms: C_9  and  C_18
    5  A    between atoms: C_18  and  C_30
    6  A    between atoms: C_23  and  C_25
                            x       y       z     vdW  Elec       q    Type
                         _______ _______ _______ _____ _____    ______ ____

>  <TORSDO>
F 6

$$$$
=
 OpenBabel10262423303D

 34 37  0  0  0  0  0  0  0  0999 V2000
  189.0720  177.5680  142.2180 C   0  0  0  0  0  0  0  0  0  0  0  0
  187.7850  177.7860  142.5300 C   0  0  0  0  0  3  0  0  0  0  0  0
  189.0280  177.7520  138.4090 C   0  0  0  0  0  3  0  0  0  0  0  0
  187.3870  178.4750  140.0000 O   0  0  0  0  0  1  0  0  0  0  0  0
  190.2450  177.1460  138.0870 C   0  0  0  0  0  0  0  0  0  0  0  0
  191.0600  176.6690  139.1210 C   0  0  0  0  0  3  0  0  0  0  0  0
  188.6220  177.8930  139.7390 C   0  0  0  0  0  0  0  0  0  0  0  0
  190.6670  176.8070  140.4530 C   0  0  0  0  0  3  0  0  0  0  0  0
  189.4500  177.4270  140.7860 C   0  0  0  0  0  0  0  0  0  0  0  0
  190.7660  175.9230  135.9300 C   0  0  0  0  0  0  0  0  0  0  0  0
  191.0990  176.0530  134.6240 F   0  0  0  0  0  0  0  0  0  0  0  0
  190.6050  174.5440  136.4770 C   0  0  0  0  0  1  0  0  0  0  0  0
  190.6040  177.0340  136.6580 C   0  0  0  0  0  3  0  0  0  0  0  0
  190.1520  174.9680  142.9250 O   0  0  0  0  0  1  0  0  0  0  0  0
  190.5980  176.1010  143.5970 C   0  0  0  0  0  0  0  0  0  0  0  0
  191.9940  177.0810  145.3190 C   0  0  0  0  0  3  0  0  0  0  0  0
  191.5510  175.9610  144.6100 C   0  0  0  0  0  3  0  0  0  0  0  0
  190.5310  178.4910  144.0050 C   0  0  0  0  0  3  0  0  0  0  0  0
  190.0890  177.3760  143.2800 C   0  0  0  0  0  0  0  0  0  0  0  0
  191.4820  178.3440  145.0190 C   0  0  0  0  0  3  0  0  0  0  0  0
  187.2610  177.8630  143.9290 C   0  0  0  0  0  2  0  0  0  0  0  0
  183.8020  178.8740  145.0930 C   0  0  0  0  0  3  0  0  0  0  0  0
  185.1050  178.1880  142.7040 C   0  0  0  0  0  3  0  0  0  0  0  0
  181.0190  179.1850  142.6660 C   0  0  0  0  0  0  0  0  0  0  0  0
  181.7330  179.1940  143.8720 C   0  0  0  0  0  3  0  0  0  0  0  0
  183.0910  178.8630  143.8900 C   0  0  0  0  0  0  0  0  0  0  0  0
  183.0360  178.5110  141.4850 C   0  0  0  0  0  3  0  0  0  0  0  0
  183.7470  178.5180  142.6870 C   0  0  0  0  0  0  0  0  0  0  0  0
  181.6790  178.8420  141.4750 C   0  0  0  0  0  3  0  0  0  0  0  0
  185.8100  178.1950  143.9130 C   0  0  0  0  0  0  0  0  0  0  0  0
  185.1610  178.5420  145.1040 C   0  0  0  0  0  3  0  0  0  0  0  0
  178.9330  179.5790  143.7280 O   0  0  0  0  0  1  0  0  0  0  0  0
  179.5900  179.5340  142.6530 C   0  0  0  0  0  0  0  0  0  0  0  0
  178.9490  179.8200  141.4530 O   0  0  0  0  0  0  0  0  0  0  0  0
  1  2  2  0  0  0  0
  1 19  1  0  0  0  0
  2 21  1  0  0  0  0
  3  7  1  0  0  0  0
  5  3  2  0  0  0  0
  5  6  1  0  0  0  0
  6  8  2  0  0  0  0
  7  4  1  0  0  0  0
  7  9  2  0  0  0  0
  8  9  1  0  0  0  0
  9  1  1  0  0  0  0
 10 12  1  0  0  0  0
 10 13  2  0  0  0  0
 11 10  1  0  0  0  0
 13  5  1  0  0  0  0
 14 15  1  0  0  0  0
 15 17  1  0  0  0  0
 17 16  2  0  0  0  0
 18 20  2  0  0  0  0
 19 15  2  0  0  0  0
 19 18  1  0  0  0  0
 20 16  1  0  0  0  0
 22 31  1  0  0  0  0
 23 30  1  0  0  0  0
 24 25  2  0  0  0  0
 25 26  1  0  0  0  0
 26 22  2  0  0  0  0
 27 28  1  0  0  0  0
 28 23  2  0  0  0  0
 28 26  1  0  0  0  0
 29 27  2  0  0  0  0
 29 24  1  0  0  0  0
 30 21  1  0  0  0  0
 30 31  2  0  0  0  0
 33 24  1  0  0  0  0
 33 32  1  0  0  0  0
 34 33  2  0  0  0  0
M  END
>  <MODEL>
9

>  <REMARK>
 VINA RESULT:      -8.3      3.741      7.733
  Name = 
  6 active torsions:
  status: ('A' for Active; 'I' for Inactive)
    1  A    between atoms: C_1  and  C_20
    2  A    between atoms: C_1  and  C_34
    3  A    between atoms: C_7  and  C_15
    4  A    between atoms: C_9  and  C_18
    5  A    between atoms: C_18  and  C_30
    6  A    between atoms: C_23  and  C_25
                            x       y       z     vdW  Elec       q    Type
                         _______ _______ _______ _____ _____    ______ ____

>  <TORSDO>
F 6

$$$$
