=
 OpenBabel10262419153D

 34 39  0  0  1  0  0  0  0  0999 V2000
  186.6880  177.9200  145.4940 N   0  0  0  0  0  0  0  0  0  0  0  0
  184.8880  178.6830  144.0110 C   0  0  0  0  0  0  0  0  0  0  0  0
  187.1210  178.1150  143.2170 C   0  0  0  0  0  0  0  0  0  0  0  0
  187.7710  178.7300  140.9280 O   0  0  0  0  0  0  0  0  0  0  0  0
  184.4640  178.1730  146.4680 C   0  0  0  0  0  2  0  0  0  0  0  0
  188.9470  176.3050  143.5110 C   0  0  2  0  0  3  0  0  0  0  0  0
  190.9070  175.0370  142.9190 O   0  0  0  0  0  1  0  0  0  0  0  0
  183.9930  178.9220  145.2020 C   0  0  0  0  0  2  0  0  0  0  0  0
  185.5180  179.1260  141.7040 C   0  0  0  0  0  3  0  0  0  0  0  0
  190.7620  177.1750  141.8180 C   0  0  2  0  0  3  0  0  0  0  0  0
  186.1730  178.1860  144.2150 C   0  0  0  0  0  0  0  0  0  0  0  0
  192.6350  177.7920  143.1550 F   0  0  0  0  0  0  0  0  0  0  0  0
  190.0760  177.8380  140.6140 C   0  0  2  0  0  3  0  0  0  0  0  0
  188.5860  177.6610  140.5760 C   0  0  0  0  0  0  0  0  0  0  0  0
  185.9800  178.3230  146.7020 C   0  0  0  0  0  2  0  0  0  0  0  0
  188.4730  177.7610  143.8300 C   0  0  2  0  0  0  0  0  0  0  0  0
  190.0080  175.9930  142.4410 C   0  0  2  0  0  3  0  0  0  0  0  0
  188.0950  177.8040  145.2970 C   0  0  0  0  0  0  0  0  0  0  0  0
  184.5580  179.1540  142.7330 C   0  0  0  0  0  3  0  0  0  0  0  0
  190.5900  178.3480  143.9560 O   0  0  0  0  0  0  0  0  0  0  0  0
  191.3650  178.1890  142.7990 C   0  0  2  0  0  3  0  0  0  0  0  0
  189.4120  178.7720  143.5370 O   0  0  0  0  0  0  0  0  0  0  0  0
  188.0720  176.5340  140.3250 O   0  0  0  0  0  0  0  0  0  0  0  0
  187.8880  175.3910  143.4530 O   0  0  0  0  0  1  0  0  0  0  0  0
  186.8140  178.6260  141.9370 C   0  0  0  0  0  0  0  0  0  0  0  0
  188.9170  177.7320  146.2490 O   0  0  0  0  0  0  0  0  0  0  0  0
  190.7710  177.5010  139.2930 C   0  0  0  0  0  2  0  0  0  0  0  0
  188.5320  178.4440  136.4940 C   0  0  0  0  0  2  0  0  0  0  0  0
  189.8110  177.2680  138.2230 N   0  0  0  0  0  0  0  0  0  0  0  0
  189.4940  178.5850  137.6720 C   0  0  0  0  0  2  0  0  0  0  0  0
  190.1780  176.8070  135.8580 O   0  0  0  0  0  0  0  0  0  0  0  0
  190.2010  174.9670  137.4240 C   0  0  0  0  0  1  0  0  0  0  0  0
  190.4890  176.4440  137.1970 C   0  0  2  0  0  3  0  0  0  0  0  0
  188.8110  177.1330  135.7670 C   0  0  0  0  0  2  0  0  0  0  0  0
  1 15  1  0  0  0  0
  2 11  1  0  0  0  0
  2  8  1  0  0  0  0
  3 16  1  0  0  0  0
  3 11  2  0  0  0  0
  4 25  1  0  0  0  0
  5 15  1  0  0  0  0
  6 24  1  6  0  0  0
  6 16  1  0  0  0  0
  8  5  1  0  0  0  0
  9 25  2  0  0  0  0
  9 19  1  0  0  0  0
 10 17  1  0  0  0  0
 10 21  1  0  0  0  0
 11  1  1  0  0  0  0
 13 10  1  0  0  0  0
 14 13  1  0  0  0  0
 14  4  1  0  0  0  0
 16 18  1  0  0  0  0
 17  7  1  0  0  0  0
 17  6  1  0  0  0  0
 18  1  1  0  0  0  0
 18 26  2  0  0  0  0
 19  2  2  0  0  0  0
 21 12  1  0  0  0  0
 21 20  1  0  0  0  0
 22 16  1  0  0  0  0
 22 20  1  0  0  0  0
 23 14  2  0  0  0  0
 25  3  1  0  0  0  0
 27 13  1  0  0  0  0
 28 30  1  0  0  0  0
 29 27  1  0  0  0  0
 30 29  1  0  0  0  0
 31 33  1  0  0  0  0
 33 32  1  0  0  0  0
 33 29  1  0  0  0  0
 34 31  1  0  0  0  0
 34 28  1  0  0  0  0
M  END
>  <MODEL>
1

>  <REMARK>
 VINA RESULT:      -8.7      0.000      0.000
  Name = 
  2 active torsions:
  status: ('A' for Active; 'I' for Inactive)
    1  A    between atoms: C_3  and  N_13
    2  A    between atoms: C_3  and  C_17
                            x       y       z     vdW  Elec       q    Type
                         _______ _______ _______ _____ _____    ______ ____

>  <TORSDO>
F 2

$$$$
=
 OpenBabel10262419153D

 34 39  0  0  1  0  0  0  0  0999 V2000
  180.3290  178.0460  141.6810 N   0  0  0  0  0  0  0  0  0  0  0  0
  181.8190  179.0500  143.3530 C   0  0  0  0  0  0  0  0  0  0  0  0
  182.5620  178.3930  141.1260 C   0  0  0  0  0  0  0  0  0  0  0  0
  184.9700  178.3060  140.6420 O   0  0  0  0  0  0  0  0  0  0  0  0
  179.3110  178.8690  143.7420 C   0  0  0  0  0  2  0  0  0  0  0  0
  181.8200  178.5290  138.6510 C   0  0  2  0  0  3  0  0  0  0  0  0
  182.1060  178.4810  136.2590 O   0  0  0  0  0  1  0  0  0  0  0  0
  180.7120  179.0190  144.3760 C   0  0  0  0  0  2  0  0  0  0  0  0
  184.1830  179.1070  142.7820 C   0  0  0  0  0  3  0  0  0  0  0  0
  183.8630  177.3650  137.4730 C   0  0  2  0  0  3  0  0  0  0  0  0
  181.5700  178.5790  142.0660 C   0  0  0  0  0  0  0  0  0  0  0  0
  182.9940  175.3560  136.5320 F   0  0  0  0  0  0  0  0  0  0  0  0
  185.1570  177.6850  138.2370 C   0  0  2  0  0  3  0  0  0  0  0  0
  184.9990  178.7180  139.3160 C   0  0  0  0  0  0  0  0  0  0  0  0
  179.2790  177.7770  142.6540 C   0  0  0  0  0  2  0  0  0  0  0  0
  181.9850  177.6430  139.9290 C   0  0  2  0  0  0  0  0  0  0  0  0
  182.8050  178.4750  137.4690 C   0  0  2  0  0  3  0  0  0  0  0  0
  180.5980  177.3550  140.4640 C   0  0  0  0  0  0  0  0  0  0  0  0
  183.1470  179.3220  143.7100 C   0  0  0  0  0  3  0  0  0  0  0  0
  182.2590  175.9070  138.6030 O   0  0  0  0  0  0  0  0  0  0  0  0
  183.3530  175.9410  137.7270 C   0  0  2  0  0  3  0  0  0  0  0  0
  182.6930  176.4380  139.7310 O   0  0  0  0  0  0  0  0  0  0  0  0
  184.7970  179.9310  139.0290 O   0  0  0  0  0  0  0  0  0  0  0  0
  181.4630  179.8500  138.9500 O   0  0  0  0  0  1  0  0  0  0  0  0
  183.9060  178.6230  141.4890 C   0  0  0  0  0  0  0  0  0  0  0  0
  179.7560  176.6040  139.9020 O   0  0  0  0  0  0  0  0  0  0  0  0
  186.3350  177.9510  137.2970 C   0  0  0  0  0  2  0  0  0  0  0  0
  189.0340  175.4750  136.7280 C   0  0  0  0  0  2  0  0  0  0  0  0
  187.4980  177.1480  137.6490 N   0  0  0  0  0  0  0  0  0  0  0  0
  187.7850  176.3190  136.4810 C   0  0  0  0  0  2  0  0  0  0  0  0
  189.8730  177.6310  137.3940 O   0  0  0  0  0  0  0  0  0  0  0  0
  188.7280  178.4200  139.3700 C   0  0  0  0  0  1  0  0  0  0  0  0
  188.6200  178.0840  137.8900 C   0  0  2  0  0  3  0  0  0  0  0  0
  189.9950  176.2460  137.6260 C   0  0  0  0  0  2  0  0  0  0  0  0
  1 11  1  0  0  0  0
  1 15  1  0  0  0  0
  2 19  1  0  0  0  0
  2  8  1  0  0  0  0
  3 25  2  0  0  0  0
  3 11  1  0  0  0  0
  4 25  1  0  0  0  0
  5  8  1  0  0  0  0
  6 24  1  1  0  0  0
  6 16  1  0  0  0  0
  7 17  1  0  0  0  0
  9 19  2  0  0  0  0
 10 21  1  0  0  0  0
 10 13  1  0  0  0  0
 11  2  2  0  0  0  0
 12 21  1  0  0  0  0
 13 14  1  0  0  0  0
 14  4  1  0  0  0  0
 15  5  1  0  0  0  0
 16 18  1  0  0  0  0
 16  3  1  0  0  0  0
 17 10  1  0  0  0  0
 17  6  1  0  0  0  0
 18  1  1  0  0  0  0
 20 22  1  0  0  0  0
 21 20  1  0  0  0  0
 22 16  1  0  0  0  0
 23 14  2  0  0  0  0
 25  9  1  0  0  0  0
 26 18  2  0  0  0  0
 27 29  1  0  0  0  0
 27 13  1  0  0  0  0
 28 34  1  0  0  0  0
 29 33  1  0  0  0  0
 30 28  1  0  0  0  0
 30 29  1  0  0  0  0
 31 34  1  0  0  0  0
 31 33  1  0  0  0  0
 33 32  1  0  0  0  0
M  END
>  <MODEL>
2

>  <REMARK>
 VINA RESULT:      -7.9      4.656      6.665
  Name = 
  2 active torsions:
  status: ('A' for Active; 'I' for Inactive)
    1  A    between atoms: C_3  and  N_13
    2  A    between atoms: C_3  and  C_17
                            x       y       z     vdW  Elec       q    Type
                         _______ _______ _______ _____ _____    ______ ____

>  <TORSDO>
F 2

$$$$
=
 OpenBabel10262419153D

 34 39  0  0  1  0  0  0  0  0999 V2000
  186.5360  178.3380  139.6930 N   0  0  0  0  0  0  0  0  0  0  0  0
  187.9020  178.1770  141.7250 C   0  0  0  0  0  0  0  0  0  0  0  0
  188.6400  177.3550  139.5520 C   0  0  0  0  0  0  0  0  0  0  0  0
  190.6270  175.9140  139.4280 O   0  0  0  0  0  0  0  0  0  0  0  0
  185.7070  179.4660  141.6930 C   0  0  0  0  0  2  0  0  0  0  0  0
  188.6900  178.0550  137.0620 C   0  0  2  0  0  3  0  0  0  0  0  0
  189.4390  178.0030  134.7730 O   0  0  0  0  0  1  0  0  0  0  0  0
  186.7640  178.7310  142.5470 C   0  0  0  0  0  2  0  0  0  0  0  0
  189.9530  176.8840  141.5360 C   0  0  0  0  0  3  0  0  0  0  0  0
  189.9450  175.9980  136.0100 C   0  0  2  0  0  3  0  0  0  0  0  0
  187.7350  178.0220  140.3500 C   0  0  0  0  0  0  0  0  0  0  0  0
  188.3500  174.9350  134.5950 F   0  0  0  0  0  0  0  0  0  0  0  0
  190.9810  175.4550  137.0050 C   0  0  2  0  0  3  0  0  0  0  0  0
  191.1830  176.3150  138.2200 C   0  0  0  0  0  0  0  0  0  0  0  0
  185.3240  178.6690  140.4300 C   0  0  0  0  0  2  0  0  0  0  0  0
  188.0360  177.1590  138.1640 C   0  0  2  0  0  0  0  0  0  0  0  0
  189.7180  177.5140  136.0520 C   0  0  2  0  0  3  0  0  0  0  0  0
  186.6450  177.6990  138.4230 C   0  0  0  0  0  0  0  0  0  0  0  0
  189.0320  177.6020  142.3210 C   0  0  0  0  0  3  0  0  0  0  0  0
  187.5940  175.6780  136.5980 O   0  0  0  0  0  0  0  0  0  0  0  0
  188.6870  175.1240  135.9170 C   0  0  2  0  0  3  0  0  0  0  0  0
  187.9780  175.7830  137.8560 O   0  0  0  0  0  0  0  0  0  0  0  0
  191.7610  177.4340  138.1350 O   0  0  0  0  0  0  0  0  0  0  0  0
  189.0700  179.3150  137.5430 O   0  0  0  0  0  1  0  0  0  0  0  0
  189.7590  176.7350  140.1490 C   0  0  0  0  0  0  0  0  0  0  0  0
  185.6840  177.6160  137.6120 O   0  0  0  0  0  0  0  0  0  0  0  0
  192.2860  175.0450  136.3180 C   0  0  0  0  0  2  0  0  0  0  0  0
  192.3550  171.4540  135.4030 C   0  0  0  0  0  2  0  0  0  0  0  0
  192.5750  173.6300  136.5080 N   0  0  0  0  0  0  0  0  0  0  0  0
  192.0480  172.9480  135.3280 C   0  0  0  0  0  2  0  0  0  0  0  0
  194.5430  172.3320  135.8900 O   0  0  0  0  0  0  0  0  0  0  0  0
  194.5380  173.5130  137.9980 C   0  0  0  0  0  1  0  0  0  0  0  0
  194.0470  173.4850  136.5580 C   0  0  2  0  0  3  0  0  0  0  0  0
  193.6790  171.2460  136.1290 C   0  0  0  0  0  2  0  0  0  0  0  0
  1 11  1  0  0  0  0
  1 15  1  0  0  0  0
  2 19  1  0  0  0  0
  2  8  1  0  0  0  0
  3 25  2  0  0  0  0
  3 11  1  0  0  0  0
  4 25  1  0  0  0  0
  5  8  1  0  0  0  0
  6 24  1  1  0  0  0
  6 16  1  0  0  0  0
  7 17  1  0  0  0  0
  9 19  2  0  0  0  0
 10 17  1  0  0  0  0
 10 13  1  0  0  0  0
 11  2  2  0  0  0  0
 12 21  1  0  0  0  0
 13 14  1  0  0  0  0
 14  4  1  0  0  0  0
 15  5  1  0  0  0  0
 16 18  1  0  0  0  0
 16  3  1  0  0  0  0
 17  6  1  0  0  0  0
 18  1  1  0  0  0  0
 20 22  1  0  0  0  0
 21 10  1  0  0  0  0
 21 20  1  0  0  0  0
 22 16  1  0  0  0  0
 23 14  2  0  0  0  0
 25  9  1  0  0  0  0
 26 18  2  0  0  0  0
 27 29  1  0  0  0  0
 27 13  1  0  0  0  0
 28 34  1  0  0  0  0
 29 33  1  0  0  0  0
 30 28  1  0  0  0  0
 30 29  1  0  0  0  0
 31 34  1  0  0  0  0
 31 33  1  0  0  0  0
 33 32  1  0  0  0  0
M  END
>  <MODEL>
3

>  <REMARK>
 VINA RESULT:      -6.9      3.488      6.145
  Name = 
  2 active torsions:
  status: ('A' for Active; 'I' for Inactive)
    1  A    between atoms: C_3  and  N_13
    2  A    between atoms: C_3  and  C_17
                            x       y       z     vdW  Elec       q    Type
                         _______ _______ _______ _____ _____    ______ ____

>  <TORSDO>
F 2

$$$$
=
 OpenBabel10262419153D

 34 39  0  0  1  0  0  0  0  0999 V2000
  190.8290  174.4640  136.3580 N   0  0  0  0  0  0  0  0  0  0  0  0
  189.1850  173.0050  135.2660 C   0  0  0  0  0  0  0  0  0  0  0  0
  188.5760  175.0340  136.4720 C   0  0  0  0  0  0  0  0  0  0  0  0
  186.2150  175.4410  137.0170 O   0  0  0  0  0  0  0  0  0  0  0  0
  191.6880  172.6370  134.9850 C   0  0  0  0  0  2  0  0  0  0  0  0
  189.3160  177.4990  136.7380 C   0  0  2  0  0  3  0  0  0  0  0  0
  189.0680  179.8230  137.3190 O   0  0  0  0  0  1  0  0  0  0  0  0
  190.2740  172.0190  134.9200 C   0  0  0  0  0  2  0  0  0  0  0  0
  186.8470  173.5270  135.6840 C   0  0  0  0  0  3  0  0  0  0  0  0
  187.4860  178.3710  138.4120 C   0  0  2  0  0  3  0  0  0  0  0  0
  189.5180  174.1720  135.9500 C   0  0  0  0  0  0  0  0  0  0  0  0
  188.6600  178.8970  140.4190 F   0  0  0  0  0  0  0  0  0  0  0  0
  186.1510  177.6630  138.1410 C   0  0  2  0  0  3  0  0  0  0  0  0
  186.1380  176.8230  136.8960 C   0  0  0  0  0  0  0  0  0  0  0  0
  191.8970  173.4780  136.2600 C   0  0  0  0  0  2  0  0  0  0  0  0
  189.2730  176.0630  137.3570 C   0  0  2  0  0  0  0  0  0  0  0  0
  188.3640  178.6240  137.1810 C   0  0  2  0  0  3  0  0  0  0  0  0
  190.6820  175.5080  137.3160 C   0  0  0  0  0  0  0  0  0  0  0  0
  187.8280  172.6840  135.1300 C   0  0  0  0  0  3  0  0  0  0  0  0
  189.2800  176.9990  139.3490 O   0  0  0  0  0  0  0  0  0  0  0  0
  188.2030  177.8410  139.6610 C   0  0  2  0  0  3  0  0  0  0  0  0
  188.7580  175.9950  138.6690 O   0  0  0  0  0  0  0  0  0  0  0  0
  186.1580  177.3560  135.7520 O   0  0  0  0  0  0  0  0  0  0  0  0
  189.4660  177.4840  135.3450 O   0  0  0  0  0  1  0  0  0  0  0  0
  187.2080  174.6990  136.3770 C   0  0  0  0  0  0  0  0  0  0  0  0
  191.6340  175.9210  138.0320 O   0  0  0  0  0  0  0  0  0  0  0  0
  184.9570  178.6140  138.2540 C   0  0  0  0  0  2  0  0  0  0  0  0
  183.6910  178.5600  141.7380 C   0  0  0  0  0  2  0  0  0  0  0  0
  184.0620  178.2300  139.3370 N   0  0  0  0  0  0  0  0  0  0  0  0
  184.5980  178.8560  140.5440 C   0  0  0  0  0  2  0  0  0  0  0  0
  182.0360  179.3080  140.1570 O   0  0  0  0  0  0  0  0  0  0  0  0
  181.8710  177.7680  138.3020 C   0  0  0  0  0  1  0  0  0  0  0  0
  182.7290  178.7940  139.0270 C   0  0  2  0  0  3  0  0  0  0  0  0
  182.2460  178.4580  141.2610 C   0  0  0  0  0  2  0  0  0  0  0  0
  1 18  1  0  0  0  0
  2 11  1  0  0  0  0
  3 16  1  0  0  0  0
  5 15  1  0  0  0  0
  6 24  1  6  0  0  0
  6 17  1  0  0  0  0
  6 16  1  0  0  0  0
  8  5  1  0  0  0  0
  8  2  1  0  0  0  0
  9 25  2  0  0  0  0
 10 21  1  0  0  0  0
 11  1  1  0  0  0  0
 11  3  2  0  0  0  0
 13 27  1  0  0  0  0
 13 10  1  0  0  0  0
 14  4  1  0  0  0  0
 14 13  1  0  0  0  0
 15  1  1  0  0  0  0
 16 22  1  0  0  0  0
 17  7  1  0  0  0  0
 17 10  1  0  0  0  0
 18 16  1  0  0  0  0
 18 26  2  0  0  0  0
 19  2  2  0  0  0  0
 19  9  1  0  0  0  0
 20 21  1  0  0  0  0
 21 12  1  0  0  0  0
 22 20  1  0  0  0  0
 23 14  2  0  0  0  0
 25  3  1  0  0  0  0
 25  4  1  0  0  0  0
 27 29  1  0  0  0  0
 29 30  1  0  0  0  0
 30 28  1  0  0  0  0
 31 34  1  0  0  0  0
 32 33  1  0  0  0  0
 33 29  1  0  0  0  0
 33 31  1  0  0  0  0
 34 28  1  0  0  0  0
M  END
>  <MODEL>
4

>  <REMARK>
 VINA RESULT:      -6.9      3.708      8.218
  Name = 
  2 active torsions:
  status: ('A' for Active; 'I' for Inactive)
    1  A    between atoms: C_3  and  N_13
    2  A    between atoms: C_3  and  C_17
                            x       y       z     vdW  Elec       q    Type
                         _______ _______ _______ _____ _____    ______ ____

>  <TORSDO>
F 2

$$$$
=
 OpenBabel10262419153D

 34 39  0  0  1  0  0  0  0  0999 V2000
  180.7390  178.0990  141.7610 N   0  0  0  0  0  0  0  0  0  0  0  0
  182.5790  178.8730  143.1870 C   0  0  0  0  0  0  0  0  0  0  0  0
  182.8640  178.2970  140.8360 C   0  0  0  0  0  0  0  0  0  0  0  0
  185.1350  178.0450  139.9300 O   0  0  0  0  0  0  0  0  0  0  0  0
  180.1690  178.8730  144.0050 C   0  0  0  0  0  2  0  0  0  0  0  0
  181.7230  178.6460  138.5400 C   0  0  2  0  0  3  0  0  0  0  0  0
  181.5870  178.7230  136.1360 O   0  0  0  0  0  1  0  0  0  0  0  0
  181.6660  178.8690  144.3880 C   0  0  0  0  0  2  0  0  0  0  0  0
  184.8050  178.7730  142.2110 C   0  0  0  0  0  3  0  0  0  0  0  0
  183.4180  177.3950  136.9660 C   0  0  2  0  0  3  0  0  0  0  0  0
  182.0700  178.5040  141.9440 C   0  0  0  0  0  0  0  0  0  0  0  0
  182.2210  175.5250  136.1010 F   0  0  0  0  0  0  0  0  0  0  0  0
  184.8470  177.5600  137.5040 C   0  0  2  0  0  3  0  0  0  0  0  0
  184.9730  178.5340  138.6400 C   0  0  0  0  0  0  0  0  0  0  0  0
  179.8510  177.8570  142.8900 C   0  0  0  0  0  2  0  0  0  0  0  0
  182.0240  177.6710  139.7260 C   0  0  2  0  0  0  0  0  0  0  0  0
  182.4810  178.5850  137.2020 C   0  0  2  0  0  3  0  0  0  0  0  0
  180.7290  177.4650  140.4840 C   0  0  0  0  0  0  0  0  0  0  0  0
  183.9680  179.0130  143.3160 C   0  0  0  0  0  3  0  0  0  0  0  0
  181.9060  176.0050  138.2940 O   0  0  0  0  0  0  0  0  0  0  0  0
  182.8320  176.0040  137.2400 C   0  0  2  0  0  3  0  0  0  0  0  0
  182.5750  176.4280  139.3500 O   0  0  0  0  0  0  0  0  0  0  0  0
  184.8360  179.7750  138.4500 O   0  0  0  0  0  0  0  0  0  0  0  0
  181.5440  179.9710  138.9590 O   0  0  0  0  0  1  0  0  0  0  0  0
  184.2660  178.3930  140.9650 C   0  0  0  0  0  0  0  0  0  0  0  0
  179.7390  176.8210  140.0450 O   0  0  0  0  0  0  0  0  0  0  0  0
  185.8650  177.7870  136.3830 C   0  0  0  0  0  2  0  0  0  0  0  0
  188.7860  175.8080  137.5190 C   0  0  0  0  0  2  0  0  0  0  0  0
  186.8490  176.7150  136.3220 N   0  0  0  0  0  0  0  0  0  0  0  0
  187.7440  176.9240  137.4580 C   0  0  0  0  0  2  0  0  0  0  0  0
  186.7940  174.4770  137.2870 O   0  0  0  0  0  0  0  0  0  0  0  0
  185.7690  174.8440  135.1300 C   0  0  0  0  0  1  0  0  0  0  0  0
  186.1170  175.4380  136.4870 C   0  0  2  0  0  3  0  0  0  0  0  0
  188.1720  174.5140  136.9980 C   0  0  0  0  0  2  0  0  0  0  0  0
  1 11  1  0  0  0  0
  1 15  1  0  0  0  0
  2 19  1  0  0  0  0
  2  8  1  0  0  0  0
  3 25  2  0  0  0  0
  3 11  1  0  0  0  0
  4 25  1  0  0  0  0
  5  8  1  0  0  0  0
  6 24  1  1  0  0  0
  6 16  1  0  0  0  0
  7 17  1  0  0  0  0
  9 19  2  0  0  0  0
 10 17  1  0  0  0  0
 10 21  1  0  0  0  0
 10 13  1  0  0  0  0
 11  2  2  0  0  0  0
 12 21  1  0  0  0  0
 13 14  1  0  0  0  0
 14  4  1  0  0  0  0
 15  5  1  0  0  0  0
 16 18  1  0  0  0  0
 16  3  1  0  0  0  0
 17  6  1  0  0  0  0
 18  1  1  0  0  0  0
 20 22  1  0  0  0  0
 21 20  1  0  0  0  0
 22 16  1  0  0  0  0
 23 14  2  0  0  0  0
 25  9  1  0  0  0  0
 26 18  2  0  0  0  0
 27 13  1  0  0  0  0
 29 27  1  0  0  0  0
 29 33  1  0  0  0  0
 29 30  1  0  0  0  0
 30 28  1  0  0  0  0
 32 33  1  0  0  0  0
 33 31  1  0  0  0  0
 34 31  1  0  0  0  0
 34 28  1  0  0  0  0
M  END
>  <MODEL>
5

>  <REMARK>
 VINA RESULT:      -6.7      4.880      6.874
  Name = 
  2 active torsions:
  status: ('A' for Active; 'I' for Inactive)
    1  A    between atoms: C_3  and  N_13
    2  A    between atoms: C_3  and  C_17
                            x       y       z     vdW  Elec       q    Type
                         _______ _______ _______ _____ _____    ______ ____

>  <TORSDO>
F 2

$$$$
=
 OpenBabel10262419153D

 34 39  0  0  1  0  0  0  0  0999 V2000
  184.4640  178.1680  137.8600 N   0  0  0  0  0  0  0  0  0  0  0  0
  184.8570  178.9790  140.1430 C   0  0  0  0  0  0  0  0  0  0  0  0
  186.6000  177.9790  138.7630 C   0  0  0  0  0  0  0  0  0  0  0  0
  188.7320  177.3380  139.8040 O   0  0  0  0  0  0  0  0  0  0  0  0
  182.6430  179.3730  138.9510 C   0  0  0  0  0  2  0  0  0  0  0  0
  187.5190  178.0450  136.3450 C   0  0  2  0  0  3  0  0  0  0  0  0
  189.1430  177.7200  134.5960 O   0  0  0  0  0  1  0  0  0  0  0  0
  183.3870  179.2770  140.3020 C   0  0  0  0  0  2  0  0  0  0  0  0
  187.0380  178.4790  141.0960 C   0  0  0  0  0  3  0  0  0  0  0  0
  189.5360  176.3700  136.5530 C   0  0  2  0  0  3  0  0  0  0  0  0
  185.3180  178.4560  138.9360 C   0  0  0  0  0  0  0  0  0  0  0  0
  188.9670  174.5150  135.1700 F   0  0  0  0  0  0  0  0  0  0  0  0
  190.1590  176.4750  137.9540 C   0  0  2  0  0  3  0  0  0  0  0  0
  189.6310  177.6110  138.7810 C   0  0  0  0  0  0  0  0  0  0  0  0
  183.0150  178.2180  137.9990 C   0  0  0  0  0  2  0  0  0  0  0  0
  186.6930  177.2630  137.4190 C   0  0  2  0  0  0  0  0  0  0  0  0
  188.9690  177.6750  135.9820 C   0  0  2  0  0  3  0  0  0  0  0  0
  185.2370  177.3280  137.0060 C   0  0  0  0  0  0  0  0  0  0  0  0
  185.7350  178.9930  141.2340 C   0  0  0  0  0  3  0  0  0  0  0  0
  187.2970  175.3970  136.4230 O   0  0  0  0  0  0  0  0  0  0  0  0
  188.6700  175.1160  136.3740 C   0  0  2  0  0  3  0  0  0  0  0  0
  187.0870  175.9230  137.6150 O   0  0  0  0  0  0  0  0  0  0  0  0
  189.9170  178.8090  138.4990 O   0  0  0  0  0  0  0  0  0  0  0  0
  187.3630  179.4330  136.4460 O   0  0  0  0  0  1  0  0  0  0  0  0
  187.4790  177.9490  139.8670 C   0  0  0  0  0  0  0  0  0  0  0  0
  184.7480  176.7250  136.0120 O   0  0  0  0  0  0  0  0  0  0  0  0
  191.6870  176.3970  137.9160 C   0  0  0  0  0  2  0  0  0  0  0  0
  193.8480  176.0450  134.9260 C   0  0  0  0  0  2  0  0  0  0  0  0
  192.1660  175.7780  136.6880 N   0  0  0  0  0  0  0  0  0  0  0  0
  193.2340  176.6430  136.1910 C   0  0  0  0  0  2  0  0  0  0  0  0
  193.9040  174.1040  136.3480 O   0  0  0  0  0  0  0  0  0  0  0  0
  191.6640  173.3700  136.8780 C   0  0  0  0  0  1  0  0  0  0  0  0
  192.7180  174.4530  137.0500 C   0  0  2  0  0  3  0  0  0  0  0  0
  193.7950  174.5240  135.0080 C   0  0  0  0  0  2  0  0  0  0  0  0
  1 15  1  0  0  0  0
  1 11  1  0  0  0  0
  2  8  1  0  0  0  0
  2 19  1  0  0  0  0
  3 11  1  0  0  0  0
  3 25  2  0  0  0  0
  4 25  1  0  0  0  0
  5  8  1  0  0  0  0
  6 24  1  1  0  0  0
  6 16  1  0  0  0  0
  7 17  1  0  0  0  0
  9 19  2  0  0  0  0
 10 13  1  0  0  0  0
 11  2  2  0  0  0  0
 12 21  1  0  0  0  0
 13 14  1  0  0  0  0
 14  4  1  0  0  0  0
 15  5  1  0  0  0  0
 16 22  1  0  0  0  0
 16  3  1  0  0  0  0
 17  6  1  0  0  0  0
 17 10  1  0  0  0  0
 18 16  1  0  0  0  0
 18  1  1  0  0  0  0
 20 22  1  0  0  0  0
 21 20  1  0  0  0  0
 21 10  1  0  0  0  0
 23 14  2  0  0  0  0
 25  9  1  0  0  0  0
 26 18  2  0  0  0  0
 27 13  1  0  0  0  0
 28 34  1  0  0  0  0
 28 30  1  0  0  0  0
 29 33  1  0  0  0  0
 29 27  1  0  0  0  0
 30 29  1  0  0  0  0
 31 33  1  0  0  0  0
 32 33  1  0  0  0  0
 34 31  1  0  0  0  0
M  END
>  <MODEL>
6

>  <REMARK>
 VINA RESULT:      -6.7      3.827      6.111
  Name = 
  2 active torsions:
  status: ('A' for Active; 'I' for Inactive)
    1  A    between atoms: C_3  and  N_13
    2  A    between atoms: C_3  and  C_17
                            x       y       z     vdW  Elec       q    Type
                         _______ _______ _______ _____ _____    ______ ____

>  <TORSDO>
F 2

$$$$
=
 OpenBabel10262419153D

 34 39  0  0  1  0  0  0  0  0999 V2000
  186.3210  178.4560  141.8680 N   0  0  0  0  0  0  0  0  0  0  0  0
  187.5880  177.5500  143.7650 C   0  0  0  0  0  0  0  0  0  0  0  0
  188.3930  177.4760  141.4650 C   0  0  0  0  0  0  0  0  0  0  0  0
  190.3300  176.0670  140.9180 O   0  0  0  0  0  0  0  0  0  0  0  0
  185.4440  178.8790  144.1060 C   0  0  0  0  0  2  0  0  0  0  0  0
  188.5810  178.9750  139.3640 C   0  0  2  0  0  3  0  0  0  0  0  0
  189.4300  179.6640  137.2180 O   0  0  0  0  0  1  0  0  0  0  0  0
  186.4350  177.8480  144.6910 C   0  0  0  0  0  2  0  0  0  0  0  0
  189.5970  176.2980  143.2090 C   0  0  0  0  0  3  0  0  0  0  0  0
  189.8080  177.3370  137.7140 C   0  0  2  0  0  3  0  0  0  0  0  0
  187.4780  177.8780  142.4150 C   0  0  0  0  0  0  0  0  0  0  0  0
  188.2410  176.8950  135.9740 F   0  0  0  0  0  0  0  0  0  0  0  0
  190.7780  176.4390  138.4960 C   0  0  2  0  0  3  0  0  0  0  0  0
  190.9550  176.8260  139.9360 C   0  0  0  0  0  0  0  0  0  0  0  0
  185.0900  178.5770  142.6370 C   0  0  0  0  0  2  0  0  0  0  0  0
  187.8460  177.7920  140.0760 C   0  0  2  0  0  0  0  0  0  0  0  0
  189.6330  178.7580  138.2620 C   0  0  2  0  0  3  0  0  0  0  0  0
  186.4650  178.2800  140.4610 C   0  0  0  0  0  0  0  0  0  0  0  0
  188.6680  176.7520  144.1630 C   0  0  0  0  0  3  0  0  0  0  0  0
  187.4220  176.9520  138.0870 O   0  0  0  0  0  0  0  0  0  0  0  0
  188.5250  176.6090  137.2910 C   0  0  2  0  0  3  0  0  0  0  0  0
  187.7520  176.6060  139.3160 O   0  0  0  0  0  0  0  0  0  0  0  0
  191.5760  177.8780  140.2550 O   0  0  0  0  0  0  0  0  0  0  0  0
  188.9840  179.9770  140.2570 O   0  0  0  0  0  1  0  0  0  0  0  0
  189.4610  176.6370  141.8490 C   0  0  0  0  0  0  0  0  0  0  0  0
  185.5390  178.5240  139.6410 O   0  0  0  0  0  0  0  0  0  0  0  0
  192.0970  176.2220  137.7500 C   0  0  0  0  0  2  0  0  0  0  0  0
  191.6250  173.0010  135.9780 C   0  0  0  0  0  2  0  0  0  0  0  0
  192.3330  174.8120  137.4700 N   0  0  0  0  0  0  0  0  0  0  0  0
  191.4140  174.4570  136.3900 C   0  0  0  0  0  2  0  0  0  0  0  0
  193.9100  173.7590  135.9390 O   0  0  0  0  0  0  0  0  0  0  0  0
  194.6530  174.3420  138.1640 C   0  0  0  0  0  1  0  0  0  0  0  0
  193.7320  174.6860  137.0030 C   0  0  2  0  0  3  0  0  0  0  0  0
  193.0930  172.6320  136.1600 C   0  0  0  0  0  2  0  0  0  0  0  0
  1 11  1  0  0  0  0
  1 15  1  0  0  0  0
  2 19  1  0  0  0  0
  2  8  1  0  0  0  0
  3 25  2  0  0  0  0
  3 11  1  0  0  0  0
  4 25  1  0  0  0  0
  5  8  1  0  0  0  0
  6 16  1  0  0  0  0
  6 24  1  1  0  0  0
  7 17  1  0  0  0  0
  9 19  2  0  0  0  0
 10 17  1  0  0  0  0
 10 13  1  0  0  0  0
 11  2  2  0  0  0  0
 12 21  1  0  0  0  0
 13 14  1  0  0  0  0
 14 23  2  0  0  0  0
 14  4  1  0  0  0  0
 15  5  1  0  0  0  0
 16 18  1  0  0  0  0
 16  3  1  0  0  0  0
 17  6  1  0  0  0  0
 18  1  1  0  0  0  0
 20 22  1  0  0  0  0
 21 10  1  0  0  0  0
 21 20  1  0  0  0  0
 22 16  1  0  0  0  0
 25  9  1  0  0  0  0
 26 18  2  0  0  0  0
 27 13  1  0  0  0  0
 28 34  1  0  0  0  0
 28 30  1  0  0  0  0
 29 27  1  0  0  0  0
 30 29  1  0  0  0  0
 31 34  1  0  0  0  0
 31 33  1  0  0  0  0
 33 29  1  0  0  0  0
 33 32  1  0  0  0  0
M  END
>  <MODEL>
7

>  <REMARK>
 VINA RESULT:      -6.2      2.717      4.795
  Name = 
  2 active torsions:
  status: ('A' for Active; 'I' for Inactive)
    1  A    between atoms: C_3  and  N_13
    2  A    between atoms: C_3  and  C_17
                            x       y       z     vdW  Elec       q    Type
                         _______ _______ _______ _____ _____    ______ ____

>  <TORSDO>
F 2

$$$$
=
 OpenBabel10262419153D

 34 39  0  0  1  0  0  0  0  0999 V2000
  191.9010  175.3100  136.5600 N   0  0  0  0  0  0  0  0  0  0  0  0
  191.1060  173.3770  135.2730 C   0  0  0  0  0  0  0  0  0  0  0  0
  189.6130  175.0500  136.2280 C   0  0  0  0  0  0  0  0  0  0  0  0
  187.1990  174.5960  136.3080 O   0  0  0  0  0  0  0  0  0  0  0  0
  193.5860  173.9160  135.4750 C   0  0  0  0  0  2  0  0  0  0  0  0
  189.3870  177.6150  136.4830 C   0  0  2  0  0  3  0  0  0  0  0  0
  188.2420  179.6980  136.8740 O   0  0  0  0  0  1  0  0  0  0  0  0
  192.5140  172.8410  135.1880 C   0  0  0  0  0  2  0  0  0  0  0  0
  188.6980  173.0400  135.2250 C   0  0  0  0  0  3  0  0  0  0  0  0
  187.0830  177.7710  137.7420 C   0  0  2  0  0  3  0  0  0  0  0  0
  190.8760  174.5800  135.9370 C   0  0  0  0  0  0  0  0  0  0  0  0
  187.5950  178.6540  139.8950 F   0  0  0  0  0  0  0  0  0  0  0  0
  186.1550  176.6420  137.2720 C   0  0  2  0  0  3  0  0  0  0  0  0
  186.6730  175.8640  136.0970 C   0  0  0  0  0  0  0  0  0  0  0  0
  193.2420  174.7630  136.7160 C   0  0  0  0  0  2  0  0  0  0  0  0
  189.7260  176.2490  137.1650 C   0  0  2  0  0  0  0  0  0  0  0  0
  188.0370  178.3290  136.6790 C   0  0  2  0  0  3  0  0  0  0  0  0
  191.2200  176.2260  137.4140 C   0  0  0  0  0  0  0  0  0  0  0  0
  189.9970  172.6020  134.9090 C   0  0  0  0  0  3  0  0  0  0  0  0
  189.0270  177.1060  139.0670 O   0  0  0  0  0  0  0  0  0  0  0  0
  187.6870  177.5130  139.1290 C   0  0  2  0  0  3  0  0  0  0  0  0
  189.0260  175.9910  138.3620 O   0  0  0  0  0  0  0  0  0  0  0  0
  186.7240  176.3820  134.9460 O   0  0  0  0  0  0  0  0  0  0  0  0
  189.7960  177.6690  135.1440 O   0  0  0  0  0  1  0  0  0  0  0  0
  188.4910  174.2570  135.9040 C   0  0  0  0  0  0  0  0  0  0  0  0
  191.8140  176.9390  138.2670 O   0  0  0  0  0  0  0  0  0  0  0  0
  184.7070  177.1110  137.1100 C   0  0  0  0  0  2  0  0  0  0  0  0
  182.5890  177.3600  140.1420 C   0  0  0  0  0  2  0  0  0  0  0  0
  183.8550  176.6120  138.1810 N   0  0  0  0  0  0  0  0  0  0  0  0
  183.5350  177.7700  139.0140 C   0  0  0  0  0  2  0  0  0  0  0  0
  181.4320  176.3720  138.2770 O   0  0  0  0  0  0  0  0  0  0  0  0
  182.7440  174.5910  137.3050 C   0  0  0  0  0  1  0  0  0  0  0  0
  182.6220  176.0870  137.5530 C   0  0  2  0  0  3  0  0  0  0  0  0
  181.6800  176.2370  139.6570 C   0  0  0  0  0  2  0  0  0  0  0  0
  1 15  1  0  0  0  0
  1 18  1  0  0  0  0
  2 11  1  0  0  0  0
  3 16  1  0  0  0  0
  5 15  1  0  0  0  0
  6 24  1  6  0  0  0
  6 17  1  0  0  0  0
  6 16  1  0  0  0  0
  8  2  1  0  0  0  0
  8  5  1  0  0  0  0
  9 25  2  0  0  0  0
 10 21  1  0  0  0  0
 11  3  2  0  0  0  0
 11  1  1  0  0  0  0
 13 10  1  0  0  0  0
 14  4  1  0  0  0  0
 14 13  1  0  0  0  0
 16 18  1  0  0  0  0
 16 22  1  0  0  0  0
 17  7  1  0  0  0  0
 17 10  1  0  0  0  0
 18 26  2  0  0  0  0
 19  9  1  0  0  0  0
 19  2  2  0  0  0  0
 20 21  1  0  0  0  0
 21 12  1  0  0  0  0
 22 20  1  0  0  0  0
 23 14  2  0  0  0  0
 25  3  1  0  0  0  0
 25  4  1  0  0  0  0
 27 13  1  0  0  0  0
 27 29  1  0  0  0  0
 29 30  1  0  0  0  0
 30 28  1  0  0  0  0
 31 34  1  0  0  0  0
 32 33  1  0  0  0  0
 33 29  1  0  0  0  0
 33 31  1  0  0  0  0
 34 28  1  0  0  0  0
M  END
>  <MODEL>
8

>  <REMARK>
 VINA RESULT:      -6.0      4.455      8.489
  Name = 
  2 active torsions:
  status: ('A' for Active; 'I' for Inactive)
    1  A    between atoms: C_3  and  N_13
    2  A    between atoms: C_3  and  C_17
                            x       y       z     vdW  Elec       q    Type
                         _______ _______ _______ _____ _____    ______ ____

>  <TORSDO>
F 2

$$$$
=
 OpenBabel10262419153D

 34 39  0  0  1  0  0  0  0  0999 V2000
  186.5880  178.6460  140.0520 N   0  0  0  0  0  0  0  0  0  0  0  0
  187.2240  177.5010  137.9770 C   0  0  0  0  0  0  0  0  0  0  0  0
  184.9080  177.8700  138.6420 C   0  0  0  0  0  0  0  0  0  0  0  0
  183.1160  176.6870  137.4470 O   0  0  0  0  0  0  0  0  0  0  0  0
  188.9570  178.6280  139.4630 C   0  0  0  0  0  2  0  0  0  0  0  0
  183.3780  179.7160  139.6130 C   0  0  2  0  0  3  0  0  0  0  0  0
  181.2910  180.8110  140.1130 O   0  0  0  0  0  1  0  0  0  0  0  0
  188.6790  177.5690  138.3720 C   0  0  0  0  0  2  0  0  0  0  0  0
  185.4110  176.4790  136.7200 C   0  0  0  0  0  3  0  0  0  0  0  0
  181.0690  178.4580  139.6440 C   0  0  2  0  0  3  0  0  0  0  0  0
  186.2630  178.0490  138.8240 C   0  0  0  0  0  0  0  0  0  0  0  0
  180.4970  178.2350  141.9470 F   0  0  0  0  0  0  0  0  0  0  0  0
  180.9840  177.4950  138.4510 C   0  0  2  0  0  3  0  0  0  0  0  0
  182.1030  177.6380  137.4590 C   0  0  0  0  0  0  0  0  0  0  0  0
  187.9310  178.5630  140.6110 C   0  0  0  0  0  2  0  0  0  0  0  0
  184.1640  178.3880  139.8690 C   0  0  2  0  0  0  0  0  0  0  0  0
  181.8540  179.7520  139.3960 C   0  0  2  0  0  3  0  0  0  0  0  0
  185.3480  178.7240  140.7510 C   0  0  0  0  0  0  0  0  0  0  0  0
  186.7860  176.7080  136.9080 C   0  0  0  0  0  3  0  0  0  0  0  0
  182.6680  177.8810  141.4010 O   0  0  0  0  0  0  0  0  0  0  0  0
  181.3400  177.7420  140.9740 C   0  0  2  0  0  3  0  0  0  0  0  0
  183.4040  177.3470  140.4440 O   0  0  0  0  0  0  0  0  0  0  0  0
  182.1840  178.6530  136.7120 O   0  0  0  0  0  0  0  0  0  0  0  0
  184.0350  180.5710  138.7180 O   0  0  0  0  0  1  0  0  0  0  0  0
  184.4580  177.0390  137.5940 C   0  0  0  0  0  0  0  0  0  0  0  0
  185.2650  179.0530  141.9650 O   0  0  0  0  0  0  0  0  0  0  0  0
  179.5930  177.4850  137.8120 C   0  0  0  0  0  2  0  0  0  0  0  0
  178.9680  174.2420  136.1290 C   0  0  0  0  0  2  0  0  0  0  0  0
  179.0670  176.1330  137.6860 N   0  0  0  0  0  0  0  0  0  0  0  0
  179.4270  175.6830  136.3420 C   0  0  0  0  0  2  0  0  0  0  0  0
  180.0890  173.9920  138.2450 O   0  0  0  0  0  0  0  0  0  0  0  0
  178.9310  175.2210  139.9740 C   0  0  0  0  0  1  0  0  0  0  0  0
  179.7540  175.2980  138.6970 C   0  0  2  0  0  3  0  0  0  0  0  0
  179.0390  173.4880  137.4530 C   0  0  0  0  0  2  0  0  0  0  0  0
  1 15  1  0  0  0  0
  1 18  1  0  0  0  0
  2  8  1  0  0  0  0
  2 11  1  0  0  0  0
  3 11  2  0  0  0  0
  3 16  1  0  0  0  0
  4 14  1  0  0  0  0
  4 25  1  0  0  0  0
  5 15  1  0  0  0  0
  6 24  1  6  0  0  0
  6 16  1  0  0  0  0
  8  5  1  0  0  0  0
  9 19  1  0  0  0  0
  9 25  2  0  0  0  0
 10 21  1  0  0  0  0
 11  1  1  0  0  0  0
 13 10  1  0  0  0  0
 14 13  1  0  0  0  0
 16 22  1  0  0  0  0
 16 18  1  0  0  0  0
 17  6  1  0  0  0  0
 17 10  1  0  0  0  0
 17  7  1  0  0  0  0
 18 26  2  0  0  0  0
 19  2  2  0  0  0  0
 21 20  1  0  0  0  0
 21 12  1  0  0  0  0
 22 20  1  0  0  0  0
 23 14  2  0  0  0  0
 25  3  1  0  0  0  0
 27 13  1  0  0  0  0
 28 30  1  0  0  0  0
 28 34  1  0  0  0  0
 29 27  1  0  0  0  0
 29 33  1  0  0  0  0
 30 29  1  0  0  0  0
 31 33  1  0  0  0  0
 33 32  1  0  0  0  0
 34 31  1  0  0  0  0
M  END
>  <MODEL>
9

>  <REMARK>
 VINA RESULT:      -6.0      5.932      8.575
  Name = 
  2 active torsions:
  status: ('A' for Active; 'I' for Inactive)
    1  A    between atoms: C_3  and  N_13
    2  A    between atoms: C_3  and  C_17
                            x       y       z     vdW  Elec       q    Type
                         _______ _______ _______ _____ _____    ______ ____

>  <TORSDO>
F 2

$$$$
