=
 OpenBabel10262420363D

 55 61  0  0  1  0  0  0  0  0999 V2000
  189.8690  177.3530  140.6470 C   0  0  0  0  0  2  0  0  0  0  0  0
  188.8350  178.1350  138.0710 C   0  0  0  0  0  0  0  0  0  0  0  0
  188.2170  178.5670  139.1710 C   0  0  0  0  0  3  0  0  0  0  0  0
  190.0580  176.4430  139.4380 C   0  0  0  0  0  2  0  0  0  0  0  0
  188.6790  178.1900  140.4780 N   0  0  0  0  0  0  0  0  0  0  0  0
  190.0710  177.2890  138.1680 C   0  0  0  0  0  2  0  0  0  0  0  0
  187.9590  178.5850  141.6130 N   0  0  0  0  0  2  0  0  0  0  0  0
  187.4210  177.3800  142.2290 C   0  0  0  0  0  2  0  0  0  0  0  0
  189.4340  176.9720  146.8380 C   0  0  0  0  0  2  0  0  0  0  0  0
  184.5250  177.7930  142.3580 C   0  0  0  0  0  2  0  0  0  0  0  0
  188.0010  177.5370  148.7860 C   0  0  0  0  0  2  0  0  0  0  0  0
  187.1450  177.9960  146.4630 C   0  0  0  0  0  0  0  0  0  0  0  0
  187.0240  178.3290  147.9250 C   0  0  0  0  0  2  0  0  0  0  0  0
  189.3980  177.6520  148.2020 C   0  0  0  0  0  2  0  0  0  0  0  0
  188.3220  177.4370  145.9270 C   0  0  0  0  0  0  0  0  0  0  0  0
  186.1560  178.1290  144.2960 C   0  0  0  0  0  0  0  0  0  0  0  0
  184.1020  179.5600  143.9480 C   0  0  0  0  0  2  0  0  0  0  0  0
  186.1240  178.3380  145.6390 N   0  0  0  0  0  0  0  0  0  0  0  0
  182.8970  179.4790  143.0280 C   0  0  1  0  0  3  0  0  0  0  0  0
  188.4030  177.2200  144.5390 C   0  0  0  0  0  0  0  0  0  0  0  0
  183.2890  178.5360  141.8950 C   0  0  0  0  0  2  0  0  0  0  0  0
  187.3130  177.5660  143.7120 C   0  0  0  0  0  0  0  0  0  0  0  0
  185.0150  178.5220  143.5110 N   0  0  0  0  0  0  0  0  0  0  0  0
  189.6540  176.6380  143.9430 C   0  0  0  0  0  2  0  0  0  0  0  0
  190.6690  178.9510  143.9740 N   0  0  0  0  0  2  0  0  0  0  0  0
  191.9340  177.0570  144.4960 O   0  0  0  0  0  0  0  0  0  0  0  0
  191.7830  179.8710  144.1370 C   0  0  0  0  0  1  0  0  0  0  0  0
  190.8190  177.5440  144.1640 C   0  0  0  0  0  0  0  0  0  0  0  0
  181.7190  178.9100  143.8030 C   0  0  0  0  0  2  0  0  0  0  0  0
  180.4280  179.2870  143.1580 C   0  0  0  0  0  0  0  0  0  0  0  0
  180.3140  180.4000  142.5800 O   0  0  0  0  0  0  0  0  0  0  0  0
  179.3610  178.3980  143.1630 O   0  0  0  0  0  1  0  0  0  0  0  0
  188.3090  178.5300  136.7360 C   0  0  0  0  0  2  0  0  0  0  0  0
  188.8490  177.5940  135.6650 C   0  0  0  0  0  2  0  0  0  0  0  0
  187.8040  176.6890  135.2090 N   0  0  0  0  0  2  0  0  0  0  0  0
  188.1420  175.3400  135.6370 C   0  0  0  0  0  2  0  0  0  0  0  0
  187.1190  174.8290  136.6380 C   0  0  0  0  0  2  0  0  0  0  0  0
  186.1120  175.7950  136.8000 O   0  0  0  0  0  0  0  0  0  0  0  0
  182.0660  175.3250  136.8810 C   0  0  2  0  0  0  0  0  0  0  0  0
  181.2050  178.2940  135.8660 S   0  0  0  0  0  1  0  0  0  0  0  0
  183.8200  176.3970  136.0730 C   0  0  2  0  0  0  0  0  0  0  0  0
  185.0430  174.5040  135.2040 F   0  0  0  0  0  0  0  0  0  0  0  0
  184.5390  177.6090  138.3390 C   0  0  0  0  0  1  0  0  0  0  0  0
  183.4560  177.2190  137.3290 C   0  0  2  0  0  0  0  0  0  0  0  0
  184.8750  175.2750  136.3500 C   0  0  1  0  0  0  0  0  0  0  0  0
  182.8250  174.0590  137.3250 C   0  0  0  0  0  2  0  0  0  0  0  0
  182.2310  176.4840  137.8780 C   0  0  1  0  0  0  0  0  0  0  0  0
  180.6000  174.9940  136.6790 C   0  0  0  0  0  1  0  0  0  0  0  0
  182.1060  177.9510  137.4230 C   0  0  2  0  0  0  0  0  0  0  0  0
  184.3350  174.3400  137.4530 C   0  0  0  0  0  2  0  0  0  0  0  0
  184.2410  177.2420  135.0620 F   0  0  0  0  0  0  0  0  0  0  0  0
  182.2410  176.1840  139.3810 C   0  0  0  0  0  1  0  0  0  0  0  0
  182.6380  175.7460  135.6690 O   0  0  0  0  0  0  0  0  0  0  0  0
  181.9490  178.9910  138.5310 C   0  0  0  0  0  2  0  0  0  0  0  0
  182.0950  180.2740  138.0040 O   0  0  0  0  0  1  0  0  0  0  0  0
  2  6  1  0  0  0  0
  2  3  2  0  0  0  0
  3  5  1  0  0  0  0
  4  1  1  0  0  0  0
  5  1  1  0  0  0  0
  5  7  1  0  0  0  0
  6  4  1  0  0  0  0
  7  8  1  0  0  0  0
  8 22  1  0  0  0  0
  9 14  1  0  0  0  0
 10 23  1  0  0  0  0
 12 13  1  0  0  0  0
 13 11  1  0  0  0  0
 14 11  1  0  0  0  0
 15 12  1  0  0  0  0
 15  9  1  0  0  0  0
 16 18  1  0  0  0  0
 18 12  2  0  0  0  0
 19 29  1  1  0  0  0
 19 17  1  0  0  0  0
 20 15  2  0  0  0  0
 21 10  1  0  0  0  0
 21 19  1  0  0  0  0
 22 16  2  0  0  0  0
 22 20  1  0  0  0  0
 23 17  1  0  0  0  0
 23 16  1  0  0  0  0
 24 28  1  0  0  0  0
 24 20  1  0  0  0  0
 25 27  1  0  0  0  0
 25 28  1  0  0  0  0
 28 26  2  0  0  0  0
 30 32  1  0  0  0  0
 30 29  1  0  0  0  0
 31 30  2  0  0  0  0
 33  2  1  0  0  0  0
 34 33  1  0  0  0  0
 35 36  1  0  0  0  0
 35 34  1  0  0  0  0
 36 37  1  0  0  0  0
 37 38  1  0  0  0  0
 39 48  1  6  0  0  0
 39 46  1  0  0  0  0
 39 47  1  0  0  0  0
 41 51  1  6  0  0  0
 41 45  1  0  0  0  0
 41 44  1  0  0  0  0
 44 49  1  0  0  0  0
 44 47  1  0  0  0  0
 44 43  1  1  0  0  0
 45 42  1  6  0  0  0
 45 38  1  0  0  0  0
 45 50  1  0  0  0  0
 46 50  1  0  0  0  0
 47 52  1  1  0  0  0
 49 40  1  6  0  0  0
 49 47  1  0  0  0  0
 49 54  1  0  0  0  0
 53 41  1  0  0  0  0
 53 39  1  0  0  0  0
 55 54  1  0  0  0  0
M  END
>  <MODEL>
1

>  <REMARK>
 VINA RESULT:      -8.5      0.000      0.000
  Name = 
  15 active torsions:
  status: ('A' for Active; 'I' for Inactive)
    1  A    between atoms: N_2  and  C_28
    2  A    between atoms: N_2  and  N_44
    3  A    between atoms: C_8  and  O_22
    4  A    between atoms: C_8  and  C_43
    5  A    between atoms: C_10  and  C_32
    6  A    between atoms: C_11  and  C_38
    7  A    between atoms: C_19  and  C_40
    8  A    between atoms: C_19  and  C_45
    9  A    between atoms: C_20  and  O_22
   10  A    between atoms: C_27  and  C_54
   11  A    between atoms: C_28  and  C_49
   12  A    between atoms: C_32  and  C_39
   13  A    between atoms: N_35  and  C_43
   14  A    between atoms: N_35  and  C_51
   15  A    between atoms: C_51  and  C_54
                            x       y       z     vdW  Elec       q    Type
                         _______ _______ _______ _____ _____    ______ ____

>  <TORSDO>
F 15

$$$$
=
 OpenBabel10262420363D

 55 61  0  0  1  0  0  0  0  0999 V2000
  190.0540  177.8660  140.6040 C   0  0  0  0  0  2  0  0  0  0  0  0
  188.5350  177.1430  138.2600 C   0  0  0  0  0  0  0  0  0  0  0  0
  187.8950  177.6740  139.3040 C   0  0  0  0  0  3  0  0  0  0  0  0
  190.5230  176.7240  139.7080 C   0  0  0  0  0  2  0  0  0  0  0  0
  188.6020  178.0320  140.5020 N   0  0  0  0  0  0  0  0  0  0  0  0
  190.0250  176.9610  138.2860 C   0  0  0  0  0  2  0  0  0  0  0  0
  187.8930  178.5040  141.6150 N   0  0  0  0  0  2  0  0  0  0  0  0
  187.2640  177.3560  142.2510 C   0  0  0  0  0  2  0  0  0  0  0  0
  189.3860  176.9800  146.8140 C   0  0  0  0  0  2  0  0  0  0  0  0
  184.3790  177.8110  142.4470 C   0  0  0  0  0  2  0  0  0  0  0  0
  188.0100  177.5910  148.7890 C   0  0  0  0  0  2  0  0  0  0  0  0
  187.1030  178.0320  146.4820 C   0  0  0  0  0  0  0  0  0  0  0  0
  187.0240  178.3860  147.9410 C   0  0  0  0  0  2  0  0  0  0  0  0
  189.3940  177.6790  148.1690 C   0  0  0  0  0  2  0  0  0  0  0  0
  188.2580  177.4490  145.9250 C   0  0  0  0  0  0  0  0  0  0  0  0
  186.0620  178.1500  144.3390 C   0  0  0  0  0  0  0  0  0  0  0  0
  184.0200  179.6050  144.0220 C   0  0  0  0  0  2  0  0  0  0  0  0
  186.0660  178.3770  145.6790 N   0  0  0  0  0  0  0  0  0  0  0  0
  182.7910  179.5300  143.1340 C   0  0  1  0  0  3  0  0  0  0  0  0
  188.3010  177.2120  144.5380 C   0  0  0  0  0  0  0  0  0  0  0  0
  183.1410  178.5660  142.0040 C   0  0  0  0  0  2  0  0  0  0  0  0
  187.1960  177.5630  143.7340 C   0  0  0  0  0  0  0  0  0  0  0  0
  184.9080  178.5480  143.5770 N   0  0  0  0  0  0  0  0  0  0  0  0
  189.5290  176.6040  143.9190 C   0  0  0  0  0  2  0  0  0  0  0  0
  190.5750  178.9020  144.0100 N   0  0  0  0  0  2  0  0  0  0  0  0
  191.8420  176.9700  144.3600 O   0  0  0  0  0  0  0  0  0  0  0  0
  191.7080  179.8010  144.1560 C   0  0  0  0  0  1  0  0  0  0  0  0
  190.7160  177.4860  144.1180 C   0  0  0  0  0  0  0  0  0  0  0  0
  181.6250  178.9880  143.9460 C   0  0  0  0  0  2  0  0  0  0  0  0
  180.3270  179.2880  143.2740 C   0  0  0  0  0  0  0  0  0  0  0  0
  179.4150  178.4210  143.2500 O   0  0  0  0  0  1  0  0  0  0  0  0
  180.1110  180.5370  142.7050 O   0  0  0  0  0  0  0  0  0  0  0  0
  187.7610  176.7640  137.0470 C   0  0  0  0  0  2  0  0  0  0  0  0
  187.4090  178.0070  136.2440 C   0  0  0  0  0  2  0  0  0  0  0  0
  186.3980  177.6930  135.2440 N   0  0  0  0  0  2  0  0  0  0  0  0
  186.0420  176.2880  135.3730 C   0  0  0  0  0  2  0  0  0  0  0  0
  184.5380  176.1350  135.5410 C   0  0  0  0  0  2  0  0  0  0  0  0
  184.2400  176.0070  136.9080 O   0  0  0  0  0  0  0  0  0  0  0  0
  180.8120  178.0430  137.7480 C   0  0  2  0  0  0  0  0  0  0  0  0
  179.8910  176.3870  140.3920 S   0  0  0  0  0  1  0  0  0  0  0  0
  182.4640  176.7620  138.4630 C   0  0  2  0  0  0  0  0  0  0  0  0
  184.3250  178.1460  137.7880 F   0  0  0  0  0  0  0  0  0  0  0  0
  181.7880  174.5640  137.1080 C   0  0  0  0  0  1  0  0  0  0  0  0
  181.3980  175.7390  138.0100 C   0  0  2  0  0  0  0  0  0  0  0  0
  183.4900  177.1270  137.3390 C   0  0  1  0  0  0  0  0  0  0  0  0
  181.5380  178.5810  136.4990 C   0  0  0  0  0  2  0  0  0  0  0  0
  180.2490  176.6290  137.5300 C   0  0  1  0  0  0  0  0  0  0  0  0
  179.7110  179.0050  138.1490 C   0  0  0  0  0  1  0  0  0  0  0  0
  180.0320  175.6670  138.7140 C   0  0  2  0  0  0  0  0  0  0  0  0
  182.7220  177.6720  136.1170 C   0  0  0  0  0  2  0  0  0  0  0  0
  183.1060  176.3030  139.5990 F   0  0  0  0  0  0  0  0  0  0  0  0
  179.6370  176.2660  136.1730 C   0  0  0  0  0  1  0  0  0  0  0  0
  181.7680  177.9480  138.7730 O   0  0  0  0  0  0  0  0  0  0  0  0
  179.1660  174.4390  138.4380 C   0  0  0  0  0  2  0  0  0  0  0  0
  179.4660  173.4290  139.3510 O   0  0  0  0  0  1  0  0  0  0  0  0
  2  6  1  0  0  0  0
  2  3  2  0  0  0  0
  3  5  1  0  0  0  0
  4  1  1  0  0  0  0
  5  1  1  0  0  0  0
  5  7  1  0  0  0  0
  6  4  1  0  0  0  0
  7  8  1  0  0  0  0
  8 22  1  0  0  0  0
  9 14  1  0  0  0  0
 10 23  1  0  0  0  0
 12 13  1  0  0  0  0
 13 11  1  0  0  0  0
 14 11  1  0  0  0  0
 15 12  1  0  0  0  0
 15  9  1  0  0  0  0
 16 18  1  0  0  0  0
 18 12  2  0  0  0  0
 19 29  1  1  0  0  0
 19 17  1  0  0  0  0
 20 15  2  0  0  0  0
 21 10  1  0  0  0  0
 21 19  1  0  0  0  0
 22 16  2  0  0  0  0
 22 20  1  0  0  0  0
 23 17  1  0  0  0  0
 23 16  1  0  0  0  0
 24 28  1  0  0  0  0
 24 20  1  0  0  0  0
 25 28  1  0  0  0  0
 25 27  1  0  0  0  0
 28 26  2  0  0  0  0
 30 29  1  0  0  0  0
 31 30  1  0  0  0  0
 32 30  2  0  0  0  0
 33  2  1  0  0  0  0
 34 33  1  0  0  0  0
 35 36  1  0  0  0  0
 35 34  1  0  0  0  0
 36 37  1  0  0  0  0
 37 38  1  0  0  0  0
 38 45  1  0  0  0  0
 39 48  1  1  0  0  0
 39 53  1  0  0  0  0
 41 53  1  0  0  0  0
 41 51  1  1  0  0  0
 44 43  1  6  0  0  0
 44 41  1  0  0  0  0
 44 49  1  0  0  0  0
 45 42  1  1  0  0  0
 45 41  1  0  0  0  0
 46 39  1  0  0  0  0
 47 52  1  6  0  0  0
 47 39  1  0  0  0  0
 47 44  1  0  0  0  0
 47 49  1  0  0  0  0
 49 40  1  1  0  0  0
 50 46  1  0  0  0  0
 50 45  1  0  0  0  0
 54 49  1  0  0  0  0
 54 55  1  0  0  0  0
M  END
>  <MODEL>
2

>  <REMARK>
 VINA RESULT:      -8.3      1.599      2.517
  Name = 
  15 active torsions:
  status: ('A' for Active; 'I' for Inactive)
    1  A    between atoms: N_2  and  C_28
    2  A    between atoms: N_2  and  N_44
    3  A    between atoms: C_8  and  O_22
    4  A    between atoms: C_8  and  C_43
    5  A    between atoms: C_10  and  C_32
    6  A    between atoms: C_11  and  C_38
    7  A    between atoms: C_19  and  C_40
    8  A    between atoms: C_19  and  C_45
    9  A    between atoms: C_20  and  O_22
   10  A    between atoms: C_27  and  C_54
   11  A    between atoms: C_28  and  C_49
   12  A    between atoms: C_32  and  C_39
   13  A    between atoms: N_35  and  C_43
   14  A    between atoms: N_35  and  C_51
   15  A    between atoms: C_51  and  C_54
                            x       y       z     vdW  Elec       q    Type
                         _______ _______ _______ _____ _____    ______ ____

>  <TORSDO>
F 15

$$$$
=
 OpenBabel10262420363D

 55 61  0  0  1  0  0  0  0  0999 V2000
  185.8380  178.9800  143.6690 C   0  0  0  0  0  2  0  0  0  0  0  0
  183.4410  178.6160  142.1060 C   0  0  0  0  0  0  0  0  0  0  0  0
  184.6270  178.4750  141.5100 C   0  0  0  0  0  3  0  0  0  0  0  0
  184.5610  179.7260  144.0400 C   0  0  0  0  0  2  0  0  0  0  0  0
  185.8500  178.6660  142.2380 N   0  0  0  0  0  0  0  0  0  0  0  0
  183.3520  178.9190  143.5730 C   0  0  0  0  0  2  0  0  0  0  0  0
  187.0780  178.5990  141.5680 N   0  0  0  0  0  2  0  0  0  0  0  0
  187.4840  177.2010  141.5370 C   0  0  0  0  0  2  0  0  0  0  0  0
  190.3410  176.4860  137.4390 C   0  0  0  0  0  2  0  0  0  0  0  0
  189.0210  176.8060  143.9960 C   0  0  0  0  0  2  0  0  0  0  0  0
  192.7950  176.2810  137.7560 C   0  0  0  0  0  2  0  0  0  0  0  0
  191.3580  176.9230  139.7210 C   0  0  0  0  0  0  0  0  0  0  0  0
  192.7410  176.9350  139.1320 C   0  0  0  0  0  2  0  0  0  0  0  0
  191.7050  176.8670  136.8760 C   0  0  0  0  0  2  0  0  0  0  0  0
  190.2110  176.8030  138.9110 C   0  0  0  0  0  0  0  0  0  0  0  0
  190.0160  177.1930  141.6750 C   0  0  0  0  0  0  0  0  0  0  0  0
  191.0680  178.0710  143.7990 C   0  0  0  0  0  2  0  0  0  0  0  0
  191.2240  177.1310  141.0540 N   0  0  0  0  0  0  0  0  0  0  0  0
  190.8140  177.8490  145.2790 C   0  0  1  0  0  3  0  0  0  0  0  0
  188.9410  176.8780  139.5130 C   0  0  0  0  0  0  0  0  0  0  0  0
  189.4060  177.2700  145.3860 C   0  0  0  0  0  2  0  0  0  0  0  0
  188.8370  177.0720  140.9060 C   0  0  0  0  0  0  0  0  0  0  0  0
  189.9840  177.4100  143.0970 N   0  0  0  0  0  0  0  0  0  0  0  0
  187.7030  176.7670  138.6670 C   0  0  0  0  0  2  0  0  0  0  0  0
  187.2190  177.6020  136.3320 N   0  0  0  0  0  2  0  0  0  0  0  0
  187.9810  179.0410  138.0080 O   0  0  0  0  0  0  0  0  0  0  0  0
  187.1790  178.6380  135.3130 C   0  0  0  0  0  1  0  0  0  0  0  0
  187.6400  177.8750  137.6690 C   0  0  0  0  0  0  0  0  0  0  0  0
  191.8340  176.8550  145.8140 C   0  0  0  0  0  2  0  0  0  0  0  0
  191.5620  176.5370  147.2460 C   0  0  0  0  0  0  0  0  0  0  0  0
  191.3000  175.3550  147.5890 O   0  0  0  0  0  0  0  0  0  0  0  0
  191.6320  177.5380  148.2060 O   0  0  0  0  0  1  0  0  0  0  0  0
  182.1980  178.4330  141.3090 C   0  0  0  0  0  2  0  0  0  0  0  0
  181.0840  179.3000  141.8740 C   0  0  0  0  0  2  0  0  0  0  0  0
  180.0010  179.4260  140.9090 N   0  0  0  0  0  2  0  0  0  0  0  0
  180.0520  180.7610  140.3300 C   0  0  0  0  0  2  0  0  0  0  0  0
  180.4880  180.6920  138.8750 C   0  0  0  0  0  2  0  0  0  0  0  0
  180.2010  179.4130  138.3700 O   0  0  0  0  0  0  0  0  0  0  0  0
  182.8650  176.8780  136.6160 C   0  0  2  0  0  0  0  0  0  0  0  0
  180.7550  174.7990  135.2710 S   0  0  0  0  0  1  0  0  0  0  0  0
  180.8230  177.7160  136.6730 C   0  0  2  0  0  0  0  0  0  0  0  0
  181.3790  180.0590  136.4850 F   0  0  0  0  0  0  0  0  0  0  0  0
  180.0840  176.6330  138.9980 C   0  0  0  0  0  1  0  0  0  0  0  0
  180.7250  176.4940  137.6130 C   0  0  2  0  0  0  0  0  0  0  0  0
  181.1810  179.0450  137.4170 C   0  0  1  0  0  0  0  0  0  0  0  0
  183.5480  178.0310  137.3780 C   0  0  0  0  0  2  0  0  0  0  0  0
  182.1370  175.9060  137.5600 C   0  0  1  0  0  0  0  0  0  0  0  0
  183.8930  176.1440  135.7780 C   0  0  0  0  0  1  0  0  0  0  0  0
  180.9380  175.0700  137.0730 C   0  0  2  0  0  0  0  0  0  0  0  0
  182.5140  178.8540  138.1710 C   0  0  0  0  0  2  0  0  0  0  0  0
  179.6520  177.8480  135.9480 F   0  0  0  0  0  0  0  0  0  0  0  0
  182.7730  175.5540  138.9100 C   0  0  0  0  0  1  0  0  0  0  0  0
  181.8860  177.4520  135.7880 O   0  0  0  0  0  0  0  0  0  0  0  0
  180.5130  173.9090  137.9710 C   0  0  0  0  0  2  0  0  0  0  0  0
  180.0350  172.8550  137.1930 O   0  0  0  0  0  1  0  0  0  0  0  0
  1  4  1  0  0  0  0
  2  6  1  0  0  0  0
  3  2  2  0  0  0  0
  3  5  1  0  0  0  0
  5  1  1  0  0  0  0
  6  4  1  0  0  0  0
  7  5  1  0  0  0  0
  8  7  1  0  0  0  0
  9 15  1  0  0  0  0
 10 21  1  0  0  0  0
 11 13  1  0  0  0  0
 12 18  1  0  0  0  0
 13 12  1  0  0  0  0
 14  9  1  0  0  0  0
 14 11  1  0  0  0  0
 15 20  1  0  0  0  0
 15 12  2  0  0  0  0
 16 23  1  0  0  0  0
 17 19  1  0  0  0  0
 18 16  2  0  0  0  0
 19 21  1  0  0  0  0
 19 29  1  6  0  0  0
 20 22  2  0  0  0  0
 22  8  1  0  0  0  0
 22 16  1  0  0  0  0
 23 17  1  0  0  0  0
 23 10  1  0  0  0  0
 24 20  1  0  0  0  0
 25 28  1  0  0  0  0
 27 25  1  0  0  0  0
 28 26  2  0  0  0  0
 28 24  1  0  0  0  0
 29 30  1  0  0  0  0
 30 31  2  0  0  0  0
 30 32  1  0  0  0  0
 33 34  1  0  0  0  0
 33  2  1  0  0  0  0
 35 34  1  0  0  0  0
 36 35  1  0  0  0  0
 37 36  1  0  0  0  0
 38 37  1  0  0  0  0
 39 48  1  6  0  0  0
 39 46  1  0  0  0  0
 39 47  1  0  0  0  0
 41 51  1  6  0  0  0
 41 45  1  0  0  0  0
 41 44  1  0  0  0  0
 44 43  1  1  0  0  0
 45 42  1  6  0  0  0
 45 50  1  0  0  0  0
 45 38  1  0  0  0  0
 46 50  1  0  0  0  0
 47 44  1  0  0  0  0
 47 52  1  1  0  0  0
 49 40  1  6  0  0  0
 49 47  1  0  0  0  0
 49 44  1  0  0  0  0
 49 54  1  0  0  0  0
 53 39  1  0  0  0  0
 53 41  1  0  0  0  0
 55 54  1  0  0  0  0
M  END
>  <MODEL>
3

>  <REMARK>
 VINA RESULT:      -6.2      2.290      7.285
  Name = 
  15 active torsions:
  status: ('A' for Active; 'I' for Inactive)
    1  A    between atoms: N_2  and  C_28
    2  A    between atoms: N_2  and  N_44
    3  A    between atoms: C_8  and  O_22
    4  A    between atoms: C_8  and  C_43
    5  A    between atoms: C_10  and  C_32
    6  A    between atoms: C_11  and  C_38
    7  A    between atoms: C_19  and  C_40
    8  A    between atoms: C_19  and  C_45
    9  A    between atoms: C_20  and  O_22
   10  A    between atoms: C_27  and  C_54
   11  A    between atoms: C_28  and  C_49
   12  A    between atoms: C_32  and  C_39
   13  A    between atoms: N_35  and  C_43
   14  A    between atoms: N_35  and  C_51
   15  A    between atoms: C_51  and  C_54
                            x       y       z     vdW  Elec       q    Type
                         _______ _______ _______ _____ _____    ______ ____

>  <TORSDO>
F 15

$$$$
=
 OpenBabel10262420363D

 55 61  0  0  1  0  0  0  0  0999 V2000
  191.3810  177.8460  139.7730 C   0  0  0  0  0  2  0  0  0  0  0  0
  190.1630  176.1490  137.7840 C   0  0  0  0  0  0  0  0  0  0  0  0
  189.3840  176.7340  138.6960 C   0  0  0  0  0  3  0  0  0  0  0  0
  192.1670  176.6860  139.1700 C   0  0  0  0  0  2  0  0  0  0  0  0
  189.9430  177.5710  139.7200 N   0  0  0  0  0  0  0  0  0  0  0  0
  191.6430  176.3990  137.7650 C   0  0  0  0  0  2  0  0  0  0  0  0
  189.1130  178.1010  140.7180 N   0  0  0  0  0  2  0  0  0  0  0  0
  188.2150  177.0390  141.1480 C   0  0  0  0  0  2  0  0  0  0  0  0
  187.3350  177.3780  146.1050 C   0  0  0  0  0  2  0  0  0  0  0  0
  185.8250  177.6900  139.5890 C   0  0  0  0  0  2  0  0  0  0  0  0
  185.2020  178.4180  146.8380 C   0  0  0  0  0  2  0  0  0  0  0  0
  185.8210  178.4830  144.3980 C   0  0  0  0  0  0  0  0  0  0  0  0
  184.9940  179.1020  145.4910 C   0  0  0  0  0  2  0  0  0  0  0  0
  186.6900  178.3100  147.1240 C   0  0  0  0  0  2  0  0  0  0  0  0
  186.9850  177.7420  144.6810 C   0  0  0  0  0  0  0  0  0  0  0  0
  186.1900  178.2690  142.0510 C   0  0  0  0  0  0  0  0  0  0  0  0
  184.9250  179.7580  140.4480 C   0  0  0  0  0  2  0  0  0  0  0  0
  185.4770  178.7360  143.1110 N   0  0  0  0  0  0  0  0  0  0  0  0
  184.4080  179.5940  139.0300 C   0  0  1  0  0  3  0  0  0  0  0  0
  187.7590  177.2540  143.6120 C   0  0  0  0  0  0  0  0  0  0  0  0
  185.1790  178.4220  138.4300 C   0  0  0  0  0  2  0  0  0  0  0  0
  187.3620  177.5160  142.2840 C   0  0  0  0  0  0  0  0  0  0  0  0
  185.7360  178.5880  140.7230 N   0  0  0  0  0  0  0  0  0  0  0  0
  189.0140  176.4730  143.8900 C   0  0  0  0  0  2  0  0  0  0  0  0
  190.2470  178.6410  144.2920 N   0  0  0  0  0  2  0  0  0  0  0  0
  191.2070  176.9020  143.0610 O   0  0  0  0  0  0  0  0  0  0  0  0
  191.3840  179.5310  144.1230 C   0  0  0  0  0  1  0  0  0  0  0  0
  190.2230  177.3320  143.7230 C   0  0  0  0  0  0  0  0  0  0  0  0
  182.9220  179.2780  139.0770 C   0  0  0  0  0  2  0  0  0  0  0  0
  182.1180  180.4400  138.5950 C   0  0  0  0  0  0  0  0  0  0  0  0
  182.5710  181.6090  138.7070 O   0  0  0  0  0  1  0  0  0  0  0  0
  180.8840  180.2300  137.9930 O   0  0  0  0  0  0  0  0  0  0  0  0
  189.5450  175.2700  136.7540 C   0  0  0  0  0  2  0  0  0  0  0  0
  188.3560  175.9710  136.1160 C   0  0  0  0  0  2  0  0  0  0  0  0
  187.4100  174.9920  135.5980 N   0  0  0  0  0  2  0  0  0  0  0  0
  186.4860  174.6350  136.6650 C   0  0  0  0  0  2  0  0  0  0  0  0
  185.2620  175.5360  136.6300 C   0  0  0  0  0  2  0  0  0  0  0  0
  184.2230  174.9280  137.3530 O   0  0  0  0  0  0  0  0  0  0  0  0
  180.3010  174.2860  136.4520 C   0  0  2  0  0  0  0  0  0  0  0  0
  179.1890  177.3090  136.9160 S   0  0  0  0  0  1  0  0  0  0  0  0
  181.9860  175.7050  136.6200 C   0  0  2  0  0  0  0  0  0  0  0  0
  183.5560  174.5900  135.1620 F   0  0  0  0  0  0  0  0  0  0  0  0
  182.2310  175.6130  139.2770 C   0  0  0  0  0  1  0  0  0  0  0  0
  181.3520  175.7460  138.0290 C   0  0  2  0  0  0  0  0  0  0  0  0
  183.1370  174.6530  136.4880 C   0  0  1  0  0  0  0  0  0  0  0  0
  181.1590  173.0110  136.3350 C   0  0  0  0  0  2  0  0  0  0  0  0
  180.1760  174.7740  137.9050 C   0  0  1  0  0  0  0  0  0  0  0  0
  178.9330  174.0350  135.8500 C   0  0  0  0  0  1  0  0  0  0  0  0
  179.9160  176.2580  138.2280 C   0  0  2  0  0  0  0  0  0  0  0  0
  182.5870  173.2590  136.8580 C   0  0  0  0  0  2  0  0  0  0  0  0
  182.4180  176.9690  136.2610 F   0  0  0  0  0  0  0  0  0  0  0  0
  180.0300  173.7450  139.0310 C   0  0  0  0  0  1  0  0  0  0  0  0
  180.9650  175.2980  135.7380 O   0  0  0  0  0  0  0  0  0  0  0  0
  179.4760  176.5720  139.6570 C   0  0  0  0  0  2  0  0  0  0  0  0
  179.7100  177.9170  139.9440 O   0  0  0  0  0  1  0  0  0  0  0  0
  2  3  2  0  0  0  0
  3  5  1  0  0  0  0
  4  1  1  0  0  0  0
  5  1  1  0  0  0  0
  5  7  1  0  0  0  0
  6  2  1  0  0  0  0
  6  4  1  0  0  0  0
  7  8  1  0  0  0  0
  8 22  1  0  0  0  0
  9 14  1  0  0  0  0
 10 23  1  0  0  0  0
 11 14  1  0  0  0  0
 12 15  1  0  0  0  0
 12 13  1  0  0  0  0
 13 11  1  0  0  0  0
 15  9  1  0  0  0  0
 16 22  2  0  0  0  0
 16 18  1  0  0  0  0
 17 23  1  0  0  0  0
 18 12  2  0  0  0  0
 19 29  1  1  0  0  0
 19 17  1  0  0  0  0
 20 24  1  0  0  0  0
 20 15  2  0  0  0  0
 21 19  1  0  0  0  0
 21 10  1  0  0  0  0
 22 20  1  0  0  0  0
 23 16  1  0  0  0  0
 26 28  2  0  0  0  0
 27 25  1  0  0  0  0
 28 24  1  0  0  0  0
 28 25  1  0  0  0  0
 30 31  1  0  0  0  0
 30 29  1  0  0  0  0
 32 30  2  0  0  0  0
 33  2  1  0  0  0  0
 34 33  1  0  0  0  0
 35 34  1  0  0  0  0
 35 36  1  0  0  0  0
 37 36  1  0  0  0  0
 37 38  1  0  0  0  0
 39 48  1  6  0  0  0
 39 47  1  0  0  0  0
 41 51  1  6  0  0  0
 41 44  1  0  0  0  0
 44 49  1  0  0  0  0
 44 43  1  1  0  0  0
 45 42  1  6  0  0  0
 45 41  1  0  0  0  0
 45 50  1  0  0  0  0
 45 38  1  0  0  0  0
 46 39  1  0  0  0  0
 46 50  1  0  0  0  0
 47 44  1  0  0  0  0
 47 49  1  0  0  0  0
 47 52  1  1  0  0  0
 49 40  1  6  0  0  0
 49 54  1  0  0  0  0
 53 39  1  0  0  0  0
 53 41  1  0  0  0  0
 54 55  1  0  0  0  0
M  END
>  <MODEL>
4

>  <REMARK>
 VINA RESULT:      -6.0      1.860      2.723
  Name = 
  15 active torsions:
  status: ('A' for Active; 'I' for Inactive)
    1  A    between atoms: N_2  and  C_28
    2  A    between atoms: N_2  and  N_44
    3  A    between atoms: C_8  and  O_22
    4  A    between atoms: C_8  and  C_43
    5  A    between atoms: C_10  and  C_32
    6  A    between atoms: C_11  and  C_38
    7  A    between atoms: C_19  and  C_40
    8  A    between atoms: C_19  and  C_45
    9  A    between atoms: C_20  and  O_22
   10  A    between atoms: C_27  and  C_54
   11  A    between atoms: C_28  and  C_49
   12  A    between atoms: C_32  and  C_39
   13  A    between atoms: N_35  and  C_43
   14  A    between atoms: N_35  and  C_51
   15  A    between atoms: C_51  and  C_54
                            x       y       z     vdW  Elec       q    Type
                         _______ _______ _______ _____ _____    ______ ____

>  <TORSDO>
F 15

$$$$
=
 OpenBabel10262420363D

 55 61  0  0  1  0  0  0  0  0999 V2000
  192.6230  177.7160  140.6070 C   0  0  0  0  0  2  0  0  0  0  0  0
  191.2100  176.0850  138.6950 C   0  0  0  0  0  0  0  0  0  0  0  0
  190.5810  176.4610  139.8100 C   0  0  0  0  0  3  0  0  0  0  0  0
  193.3880  176.7430  139.7170 C   0  0  0  0  0  2  0  0  0  0  0  0
  191.2460  177.2560  140.8030 N   0  0  0  0  0  0  0  0  0  0  0  0
  192.6150  176.5330  138.4180 C   0  0  0  0  0  2  0  0  0  0  0  0
  190.5930  177.5630  142.0040 N   0  0  0  0  0  2  0  0  0  0  0  0
  189.5440  176.5700  142.1960 C   0  0  0  0  0  2  0  0  0  0  0  0
  184.9550  178.6480  142.4870 C   0  0  0  0  0  2  0  0  0  0  0  0
  191.0590  176.9680  144.6700 C   0  0  0  0  0  2  0  0  0  0  0  0
  184.1780  179.4420  144.7080 C   0  0  0  0  0  2  0  0  0  0  0  0
  186.3300  178.1440  144.5570 C   0  0  0  0  0  0  0  0  0  0  0  0
  185.2040  178.5910  145.4480 C   0  0  0  0  0  2  0  0  0  0  0  0
  183.7610  178.7340  143.4300 C   0  0  0  0  0  2  0  0  0  0  0  0
  186.1850  178.0810  143.1570 C   0  0  0  0  0  0  0  0  0  0  0  0
  188.5280  177.2270  144.4250 C   0  0  0  0  0  0  0  0  0  0  0  0
  189.6360  176.3360  146.5150 C   0  0  0  0  0  2  0  0  0  0  0  0
  187.4720  177.7020  145.1380 N   0  0  0  0  0  0  0  0  0  0  0  0
  191.0720  176.2490  147.0000 C   0  0  1  0  0  3  0  0  0  0  0  0
  187.2490  177.5800  142.3830 C   0  0  0  0  0  0  0  0  0  0  0  0
  191.9490  176.4100  145.7620 C   0  0  0  0  0  2  0  0  0  0  0  0
  188.4330  177.1500  143.0180 C   0  0  0  0  0  0  0  0  0  0  0  0
  189.6990  176.7890  145.1390 N   0  0  0  0  0  0  0  0  0  0  0  0
  187.1120  177.4910  140.8890 C   0  0  0  0  0  2  0  0  0  0  0  0
  188.2210  178.4620  138.8370 N   0  0  0  0  0  2  0  0  0  0  0  0
  188.2360  179.5920  140.8830 O   0  0  0  0  0  0  0  0  0  0  0  0
  189.0000  179.4770  138.1480 C   0  0  0  0  0  1  0  0  0  0  0  0
  187.8780  178.5810  140.2180 C   0  0  0  0  0  0  0  0  0  0  0  0
  191.3340  177.3800  147.9820 C   0  0  0  0  0  2  0  0  0  0  0  0
  192.5020  177.0640  148.8540 C   0  0  0  0  0  0  0  0  0  0  0  0
  192.9800  177.9480  149.6120 O   0  0  0  0  0  1  0  0  0  0  0  0
  193.0430  175.7840  148.8570 O   0  0  0  0  0  0  0  0  0  0  0  0
  190.4910  175.2400  137.7020 C   0  0  0  0  0  2  0  0  0  0  0  0
  189.0250  175.6420  137.6410 C   0  0  0  0  0  2  0  0  0  0  0  0
  188.3870  175.0530  136.4710 N   0  0  0  0  0  2  0  0  0  0  0  0
  187.0130  174.7180  136.8150 C   0  0  0  0  0  2  0  0  0  0  0  0
  186.0550  175.7390  136.2220 C   0  0  0  0  0  2  0  0  0  0  0  0
  185.2320  176.2430  137.2430 O   0  0  0  0  0  0  0  0  0  0  0  0
  181.2020  176.4410  137.8090 C   0  0  2  0  0  0  0  0  0  0  0  0
  180.6770  179.4080  136.5800 S   0  0  0  0  0  1  0  0  0  0  0  0
  182.9840  177.1400  136.7070 C   0  0  2  0  0  0  0  0  0  0  0  0
  183.7930  175.0050  135.9190 F   0  0  0  0  0  0  0  0  0  0  0  0
  184.1500  178.4170  138.7400 C   0  0  0  0  0  1  0  0  0  0  0  0
  182.9040  178.1190  137.9000 C   0  0  2  0  0  0  0  0  0  0  0  0
  183.8850  175.8920  136.9870 C   0  0  1  0  0  0  0  0  0  0  0  0
  181.8110  175.1140  138.3010 C   0  0  0  0  0  2  0  0  0  0  0  0
  181.6600  177.6420  138.6520 C   0  0  1  0  0  0  0  0  0  0  0  0
  179.6890  176.3340  137.8030 C   0  0  0  0  0  1  0  0  0  0  0  0
  181.7020  179.0630  138.0590 C   0  0  2  0  0  0  0  0  0  0  0  0
  183.3500  175.1580  138.2350 C   0  0  0  0  0  2  0  0  0  0  0  0
  183.3990  177.8130  135.5720 F   0  0  0  0  0  0  0  0  0  0  0  0
  181.8100  177.4790  140.1690 C   0  0  0  0  0  1  0  0  0  0  0  0
  181.6770  176.6550  136.5040 O   0  0  0  0  0  0  0  0  0  0  0  0
  181.8390  180.2100  139.0600 C   0  0  0  0  0  2  0  0  0  0  0  0
  182.1480  181.3930  138.3890 O   0  0  0  0  0  1  0  0  0  0  0  0
  1  5  1  0  0  0  0
  2  3  2  0  0  0  0
  3  5  1  0  0  0  0
  4  1  1  0  0  0  0
  5  7  1  0  0  0  0
  6  2  1  0  0  0  0
  6  4  1  0  0  0  0
  7  8  1  0  0  0  0
  8 22  1  0  0  0  0
  9 15  1  0  0  0  0
  9 14  1  0  0  0  0
 10 23  1  0  0  0  0
 10 21  1  0  0  0  0
 11 13  1  0  0  0  0
 12 18  1  0  0  0  0
 12 13  1  0  0  0  0
 14 11  1  0  0  0  0
 15 12  2  0  0  0  0
 16 18  2  0  0  0  0
 16 23  1  0  0  0  0
 17 19  1  0  0  0  0
 19 29  1  1  0  0  0
 20 22  2  0  0  0  0
 20 15  1  0  0  0  0
 21 19  1  0  0  0  0
 22 16  1  0  0  0  0
 23 17  1  0  0  0  0
 24 20  1  0  0  0  0
 25 28  1  0  0  0  0
 27 25  1  0  0  0  0
 28 26  2  0  0  0  0
 28 24  1  0  0  0  0
 29 30  1  0  0  0  0
 30 32  2  0  0  0  0
 30 31  1  0  0  0  0
 33  2  1  0  0  0  0
 34 33  1  0  0  0  0
 35 36  1  0  0  0  0
 35 34  1  0  0  0  0
 37 36  1  0  0  0  0
 37 38  1  0  0  0  0
 39 48  1  6  0  0  0
 39 46  1  0  0  0  0
 39 47  1  0  0  0  0
 41 51  1  6  0  0  0
 41 45  1  0  0  0  0
 41 44  1  0  0  0  0
 44 49  1  0  0  0  0
 44 47  1  0  0  0  0
 44 43  1  1  0  0  0
 45 42  1  6  0  0  0
 45 38  1  0  0  0  0
 45 50  1  0  0  0  0
 47 52  1  1  0  0  0
 49 40  1  6  0  0  0
 49 47  1  0  0  0  0
 49 54  1  0  0  0  0
 50 46  1  0  0  0  0
 53 41  1  0  0  0  0
 53 39  1  0  0  0  0
 55 54  1  0  0  0  0
M  END
>  <MODEL>
5

>  <REMARK>
 VINA RESULT:      -6.0      2.063      5.248
  Name = 
  15 active torsions:
  status: ('A' for Active; 'I' for Inactive)
    1  A    between atoms: N_2  and  C_28
    2  A    between atoms: N_2  and  N_44
    3  A    between atoms: C_8  and  O_22
    4  A    between atoms: C_8  and  C_43
    5  A    between atoms: C_10  and  C_32
    6  A    between atoms: C_11  and  C_38
    7  A    between atoms: C_19  and  C_40
    8  A    between atoms: C_19  and  C_45
    9  A    between atoms: C_20  and  O_22
   10  A    between atoms: C_27  and  C_54
   11  A    between atoms: C_28  and  C_49
   12  A    between atoms: C_32  and  C_39
   13  A    between atoms: N_35  and  C_43
   14  A    between atoms: N_35  and  C_51
   15  A    between atoms: C_51  and  C_54
                            x       y       z     vdW  Elec       q    Type
                         _______ _______ _______ _____ _____    ______ ____

>  <TORSDO>
F 15

$$$$
