=
 OpenBabel10262420533D

 28 29  0  0  1  0  0  0  0  0999 V2000
  187.3830  177.7990  145.1390 C   0  0  2  0  0  3  0  0  0  0  0  0
  188.0700  176.2250  143.2670 C   0  0  0  0  0  1  0  0  0  0  0  0
  187.5920  177.6240  143.6270 C   0  0  1  0  0  3  0  0  0  0  0  0
  182.3360  178.4250  144.1390 O   0  0  0  0  0  0  0  0  0  0  0  0
  184.2760  178.8600  141.2310 C   0  0  0  0  0  0  0  0  0  0  0  0
  185.1550  178.1380  143.3580 C   0  0  0  0  0  3  0  0  0  0  0  0
  181.8890  179.0820  141.9840 N   0  0  0  0  0  0  0  0  0  0  0  0
  184.0770  178.5390  142.5670 C   0  0  0  0  0  0  0  0  0  0  0  0
  186.6120  178.4020  141.4120 C   0  0  0  0  0  3  0  0  0  0  0  0
  182.7910  179.2910  140.6000 S   0  0  0  0  0  0  0  0  0  0  0  0
  185.5240  178.8030  140.6220 C   0  0  0  0  0  3  0  0  0  0  0  0
  180.4590  179.3060  142.1020 C   0  0  0  0  0  1  0  0  0  0  0  0
  182.7330  178.6680  142.9670 C   0  0  0  0  0  0  0  0  0  0  0  0
  186.4350  178.0720  142.7770 C   0  0  0  0  0  0  0  0  0  0  0  0
  186.3220  178.8370  145.4960 C   0  0  0  0  0  2  0  0  0  0  0  0
  185.3940  178.3040  146.5690 C   0  0  0  0  0  1  0  0  0  0  0  0
  188.7030  178.1530  145.8160 C   0  0  0  0  0  2  0  0  0  0  0  0
  189.2940  177.0010  146.6360 C   0  0  1  0  0  3  0  0  0  0  0  0
  190.7670  177.1230  146.9180 C   0  0  0  0  0  0  0  0  0  0  0  0
  191.7520  177.0280  145.8770 N   0  0  0  0  0  2  0  0  0  0  0  0
  191.1550  177.3520  148.0940 O   0  0  0  0  0  0  0  0  0  0  0  0
  191.5250  175.4830  144.0350 C   0  0  0  0  0  2  0  0  0  0  0  0
  191.5650  176.7370  144.4800 C   0  0  0  0  0  0  0  0  0  0  0  0
  191.4500  177.8570  143.5200 C   0  0  0  0  0  0  0  0  0  0  0  0
  191.4370  179.2780  143.9780 C   0  0  0  0  0  1  0  0  0  0  0  0
  191.3610  177.6200  142.2170 C   0  0  0  0  0  2  0  0  0  0  0  0
  188.0680  177.7200  148.7520 C   0  0  0  0  0  1  0  0  0  0  0  0
  188.4450  176.5670  147.8350 C   0  0  0  0  0  2  0  0  0  0  0  0
  1 15  1  6  0  0  0
  1 17  1  0  0  0  0
  3  2  1  1  0  0  0
  3  1  1  0  0  0  0
  5  8  1  0  0  0  0
  7 12  1  0  0  0  0
  7 13  1  0  0  0  0
  8 13  1  0  0  0  0
  8  6  2  0  0  0  0
  9 14  2  0  0  0  0
 10  5  1  0  0  0  0
 10  7  1  0  0  0  0
 11  5  2  0  0  0  0
 11  9  1  0  0  0  0
 13  4  2  0  0  0  0
 14  6  1  0  0  0  0
 14  3  1  0  0  0  0
 15 16  1  0  0  0  0
 18 17  1  1  0  0  0
 18 19  1  0  0  0  0
 18 28  1  0  0  0  0
 19 21  2  0  0  0  0
 20 19  1  0  0  0  0
 22 23  2  0  0  0  0
 23 20  1  0  0  0  0
 24 25  1  0  0  0  0
 24 23  1  0  0  0  0
 26 24  2  0  0  0  0
 28 27  1  0  0  0  0
M  END
>  <MODEL>
1

>  <REMARK>
 VINA RESULT:      -8.2      0.000      0.000
  Name = 
  9 active torsions:
  status: ('A' for Active; 'I' for Inactive)
    1  A    between atoms: C_1  and  C_2
    2  A    between atoms: C_1  and  C_17
    3  A    between atoms: C_1  and  C_26
    4  A    between atoms: N_3  and  C_11
    5  A    between atoms: C_6  and  C_11
    6  A    between atoms: C_16  and  C_27
    7  A    between atoms: C_17  and  C_27
    8  A    between atoms: C_20  and  C_25
    9  A    between atoms: C_20  and  C_27
                            x       y       z     vdW  Elec       q    Type
                         _______ _______ _______ _____ _____    ______ ____

>  <TORSDO>
F 9

$$$$
=
 OpenBabel10262420533D

 28 29  0  0  1  0  0  0  0  0999 V2000
  190.1010  176.7620  142.8590 C   0  0  2  0  0  3  0  0  0  0  0  0
  190.8760  178.9550  143.8790 C   0  0  0  0  0  1  0  0  0  0  0  0
  190.1730  177.6290  144.1250 C   0  0  1  0  0  3  0  0  0  0  0  0
  185.0490  178.5490  142.9290 O   0  0  0  0  0  0  0  0  0  0  0  0
  186.4400  178.1500  146.1410 C   0  0  0  0  0  0  0  0  0  0  0  0
  187.7020  178.0380  144.0880 C   0  0  0  0  0  3  0  0  0  0  0  0
  184.2100  178.5810  145.0670 N   0  0  0  0  0  0  0  0  0  0  0  0
  186.4880  178.2120  144.7540 C   0  0  0  0  0  0  0  0  0  0  0  0
  188.7900  177.7430  146.2570 C   0  0  0  0  0  3  0  0  0  0  0  0
  184.8520  178.3960  146.5930 S   0  0  0  0  0  0  0  0  0  0  0  0
  187.5660  177.9190  146.9220 C   0  0  0  0  0  3  0  0  0  0  0  0
  182.8120  178.8300  144.7630 C   0  0  0  0  0  1  0  0  0  0  0  0
  185.2280  178.4560  144.1740 C   0  0  0  0  0  0  0  0  0  0  0  0
  188.8630  177.7990  144.8440 C   0  0  0  0  0  0  0  0  0  0  0  0
  190.7170  175.3750  143.0290 C   0  0  0  0  0  2  0  0  0  0  0  0
  191.7990  175.3990  144.0910 C   0  0  0  0  0  1  0  0  0  0  0  0
  190.7620  177.4820  141.6880 C   0  0  0  0  0  2  0  0  0  0  0  0
  189.9000  177.5030  140.4220 C   0  0  1  0  0  3  0  0  0  0  0  0
  190.4660  176.7270  139.2640 C   0  0  0  0  0  0  0  0  0  0  0  0
  190.0300  176.9470  137.9140 N   0  0  0  0  0  2  0  0  0  0  0  0
  191.3780  175.8830  139.4720 O   0  0  0  0  0  0  0  0  0  0  0  0
  189.1780  179.1310  137.3340 C   0  0  0  0  0  2  0  0  0  0  0  0
  188.9900  177.8160  137.4300 C   0  0  0  0  0  0  0  0  0  0  0  0
  187.6790  177.2360  137.0650 C   0  0  0  0  0  0  0  0  0  0  0  0
  187.3630  175.7990  137.3210 C   0  0  0  0  0  1  0  0  0  0  0  0
  186.7420  177.9910  136.5050 C   0  0  0  0  0  2  0  0  0  0  0  0
  187.6160  178.5950  140.7120 C   0  0  0  0  0  1  0  0  0  0  0  0
  188.4020  177.2950  140.6640 C   0  0  0  0  0  2  0  0  0  0  0  0
  1 17  1  6  0  0  0
  1 15  1  0  0  0  0
  1  3  1  0  0  0  0
  3  2  1  6  0  0  0
  3 14  1  0  0  0  0
  4 13  2  0  0  0  0
  5 10  1  0  0  0  0
  5 11  1  0  0  0  0
  6  8  1  0  0  0  0
  6 14  2  0  0  0  0
  7 10  1  0  0  0  0
  8  5  2  0  0  0  0
  9 11  2  0  0  0  0
 12  7  1  0  0  0  0
 13  8  1  0  0  0  0
 13  7  1  0  0  0  0
 14  9  1  0  0  0  0
 15 16  1  0  0  0  0
 18 28  1  1  0  0  0
 18 17  1  0  0  0  0
 19 21  2  0  0  0  0
 19 18  1  0  0  0  0
 20 19  1  0  0  0  0
 22 23  2  0  0  0  0
 23 20  1  0  0  0  0
 24 25  1  0  0  0  0
 24 23  1  0  0  0  0
 26 24  2  0  0  0  0
 28 27  1  0  0  0  0
M  END
>  <MODEL>
2

>  <REMARK>
 VINA RESULT:      -8.1      3.565      6.066
  Name = 
  9 active torsions:
  status: ('A' for Active; 'I' for Inactive)
    1  A    between atoms: C_1  and  C_2
    2  A    between atoms: C_1  and  C_17
    3  A    between atoms: C_1  and  C_26
    4  A    between atoms: N_3  and  C_11
    5  A    between atoms: C_6  and  C_11
    6  A    between atoms: C_16  and  C_27
    7  A    between atoms: C_17  and  C_27
    8  A    between atoms: C_20  and  C_25
    9  A    between atoms: C_20  and  C_27
                            x       y       z     vdW  Elec       q    Type
                         _______ _______ _______ _____ _____    ______ ____

>  <TORSDO>
F 9

$$$$
=
 OpenBabel10262420533D

 28 29  0  0  1  0  0  0  0  0999 V2000
  187.2810  177.8950  145.3150 C   0  0  2  0  0  3  0  0  0  0  0  0
  187.8650  176.5530  143.2390 C   0  0  0  0  0  1  0  0  0  0  0  0
  187.2480  177.8340  143.7800 C   0  0  1  0  0  3  0  0  0  0  0  0
  185.2270  179.0980  139.0000 O   0  0  0  0  0  0  0  0  0  0  0  0
  183.4530  178.7070  142.0190 C   0  0  0  0  0  0  0  0  0  0  0  0
  185.8390  178.4280  141.7960 C   0  0  0  0  0  3  0  0  0  0  0  0
  183.0190  179.2690  139.6090 N   0  0  0  0  0  0  0  0  0  0  0  0
  184.5960  178.7160  141.2300 C   0  0  0  0  0  0  0  0  0  0  0  0
  184.7270  178.1260  143.9520 C   0  0  0  0  0  3  0  0  0  0  0  0
  182.1650  179.0890  141.0270 S   0  0  0  0  0  0  0  0  0  0  0  0
  183.4800  178.4180  143.3780 C   0  0  0  0  0  3  0  0  0  0  0  0
  182.4490  179.6130  138.3180 C   0  0  0  0  0  1  0  0  0  0  0  0
  184.3300  179.0350  139.8840 C   0  0  0  0  0  0  0  0  0  0  0  0
  185.9060  178.1280  143.1690 C   0  0  0  0  0  0  0  0  0  0  0  0
  186.3340  178.9350  145.9080 C   0  0  0  0  0  2  0  0  0  0  0  0
  185.4100  178.2950  146.9260 C   0  0  0  0  0  1  0  0  0  0  0  0
  188.7030  178.1510  145.8020 C   0  0  0  0  0  2  0  0  0  0  0  0
  189.2780  177.0000  146.6330 C   0  0  1  0  0  3  0  0  0  0  0  0
  190.7640  177.0720  146.8620 C   0  0  0  0  0  0  0  0  0  0  0  0
  191.7060  176.9850  145.7820 N   0  0  0  0  0  2  0  0  0  0  0  0
  191.2020  177.2530  148.0290 O   0  0  0  0  0  0  0  0  0  0  0  0
  191.3190  175.5080  143.9110 C   0  0  0  0  0  2  0  0  0  0  0  0
  191.4600  176.7440  144.3850 C   0  0  0  0  0  0  0  0  0  0  0  0
  191.3950  177.8950  143.4560 C   0  0  0  0  0  0  0  0  0  0  0  0
  191.4260  179.3020  143.9550 C   0  0  0  0  0  1  0  0  0  0  0  0
  191.3160  177.6980  142.1460 C   0  0  0  0  0  2  0  0  0  0  0  0
  188.2300  177.8010  148.8130 C   0  0  0  0  0  1  0  0  0  0  0  0
  188.4550  176.6300  147.8700 C   0  0  0  0  0  2  0  0  0  0  0  0
  1 17  1  6  0  0  0
  1 15  1  0  0  0  0
  3  2  1  1  0  0  0
  3  1  1  0  0  0  0
  4 13  2  0  0  0  0
  5 11  1  0  0  0  0
  6 14  2  0  0  0  0
  7 13  1  0  0  0  0
  7 10  1  0  0  0  0
  8  6  1  0  0  0  0
  8  5  2  0  0  0  0
 10  5  1  0  0  0  0
 11  9  2  0  0  0  0
 12  7  1  0  0  0  0
 13  8  1  0  0  0  0
 14  3  1  0  0  0  0
 14  9  1  0  0  0  0
 15 16  1  0  0  0  0
 18 17  1  1  0  0  0
 18 19  1  0  0  0  0
 18 28  1  0  0  0  0
 19 21  2  0  0  0  0
 20 19  1  0  0  0  0
 22 23  2  0  0  0  0
 23 20  1  0  0  0  0
 24 25  1  0  0  0  0
 24 23  1  0  0  0  0
 26 24  2  0  0  0  0
 28 27  1  0  0  0  0
M  END
>  <MODEL>
3

>  <REMARK>
 VINA RESULT:      -8.1      1.479      1.918
  Name = 
  9 active torsions:
  status: ('A' for Active; 'I' for Inactive)
    1  A    between atoms: C_1  and  C_2
    2  A    between atoms: C_1  and  C_17
    3  A    between atoms: C_1  and  C_26
    4  A    between atoms: N_3  and  C_11
    5  A    between atoms: C_6  and  C_11
    6  A    between atoms: C_16  and  C_27
    7  A    between atoms: C_17  and  C_27
    8  A    between atoms: C_20  and  C_25
    9  A    between atoms: C_20  and  C_27
                            x       y       z     vdW  Elec       q    Type
                         _______ _______ _______ _____ _____    ______ ____

>  <TORSDO>
F 9

$$$$
=
 OpenBabel10262420533D

 28 29  0  0  1  0  0  0  0  0999 V2000
  187.6800  177.4350  146.3450 C   0  0  2  0  0  3  0  0  0  0  0  0
  186.1890  179.3670  147.0490 C   0  0  0  0  0  1  0  0  0  0  0  0
  186.2780  178.0580  146.2790 C   0  0  1  0  0  3  0  0  0  0  0  0
  181.5760  179.1090  143.9720 O   0  0  0  0  0  0  0  0  0  0  0  0
  184.6110  178.3460  142.3540 C   0  0  0  0  0  0  0  0  0  0  0  0
  184.3410  178.4810  144.7470 C   0  0  0  0  0  3  0  0  0  0  0  0
  182.2270  178.8920  141.7800 N   0  0  0  0  0  0  0  0  0  0  0  0
  183.8040  178.5690  143.4620 C   0  0  0  0  0  0  0  0  0  0  0  0
  186.5060  177.9430  143.7480 C   0  0  0  0  0  3  0  0  0  0  0  0
  183.6530  178.5320  140.9990 S   0  0  0  0  0  0  0  0  0  0  0  0
  185.9600  178.0310  142.4580 C   0  0  0  0  0  3  0  0  0  0  0  0
  180.9580  179.1760  141.1330 C   0  0  0  0  0  1  0  0  0  0  0  0
  182.4730  178.8710  143.1170 C   0  0  0  0  0  0  0  0  0  0  0  0
  185.7050  178.1680  144.8930 C   0  0  0  0  0  0  0  0  0  0  0  0
  188.0480  176.8970  147.7260 C   0  0  0  0  0  2  0  0  0  0  0  0
  188.6280  177.9990  148.5900 C   0  0  0  0  0  1  0  0  0  0  0  0
  188.7280  178.4430  145.8860 C   0  0  0  0  0  2  0  0  0  0  0  0
  189.8840  177.8070  145.1070 C   0  0  1  0  0  3  0  0  0  0  0  0
  190.4830  178.6860  144.0420 C   0  0  0  0  0  0  0  0  0  0  0  0
  190.3380  178.3950  142.6440 N   0  0  0  0  0  0  0  0  0  0  0  0
  191.0980  179.7320  144.3780 O   0  0  0  0  0  0  0  0  0  0  0  0
  189.3710  176.1840  142.7230 C   0  0  0  0  0  1  0  0  0  0  0  0
  189.7200  177.2570  142.0170 C   0  0  0  0  0  0  0  0  0  0  0  0
  189.5000  177.2720  140.5530 C   0  0  0  0  0  0  0  0  0  0  0  0
  190.3870  176.5110  139.6240 C   0  0  0  0  0  1  0  0  0  0  0  0
  188.4950  177.9640  140.0310 C   0  0  0  0  0  2  0  0  0  0  0  0
  191.8180  176.1500  145.1680 C   0  0  0  0  0  1  0  0  0  0  0  0
  190.9040  177.0600  145.9710 C   0  0  0  0  0  2  0  0  0  0  0  0
  1 17  1  1  0  0  0
  1 15  1  0  0  0  0
  3  1  1  0  0  0  0
  3  2  1  6  0  0  0
  5 11  2  0  0  0  0
  5  8  1  0  0  0  0
  6 14  1  0  0  0  0
  7 13  1  0  0  0  0
  8  6  2  0  0  0  0
  9 14  2  0  0  0  0
 10  7  1  0  0  0  0
 10  5  1  0  0  0  0
 11  9  1  0  0  0  0
 12  7  1  0  0  0  0
 13  8  1  0  0  0  0
 13  4  2  0  0  0  0
 14  3  1  0  0  0  0
 15 16  1  0  0  0  0
 18 17  1  1  0  0  0
 18 28  1  0  0  0  0
 19 21  2  0  0  0  0
 19 18  1  0  0  0  0
 20 19  1  0  0  0  0
 23 20  2  0  0  0  0
 23 22  1  0  0  0  0
 24 23  1  0  0  0  0
 25 24  1  0  0  0  0
 26 24  2  0  0  0  0
 27 28  1  0  0  0  0
M  END
>  <MODEL>
4

>  <REMARK>
 VINA RESULT:      -8.1      1.696      2.966
  Name = 
  9 active torsions:
  status: ('A' for Active; 'I' for Inactive)
    1  A    between atoms: C_1  and  C_2
    2  A    between atoms: C_1  and  C_17
    3  A    between atoms: C_1  and  C_26
    4  A    between atoms: N_3  and  C_11
    5  A    between atoms: C_6  and  C_11
    6  A    between atoms: C_16  and  C_27
    7  A    between atoms: C_17  and  C_27
    8  A    between atoms: C_20  and  C_25
    9  A    between atoms: C_20  and  C_27
                            x       y       z     vdW  Elec       q    Type
                         _______ _______ _______ _____ _____    ______ ____

>  <TORSDO>
F 9

$$$$
=
 OpenBabel10262420533D

 28 29  0  0  1  0  0  0  0  0999 V2000
  190.0440  178.3090  143.4050 C   0  0  2  0  0  3  0  0  0  0  0  0
  190.9150  175.9320  143.1910 C   0  0  0  0  0  1  0  0  0  0  0  0
  190.8880  177.3250  142.5800 C   0  0  1  0  0  3  0  0  0  0  0  0
  186.7670  178.4450  139.3720 O   0  0  0  0  0  0  0  0  0  0  0  0
  189.9360  177.2380  138.4140 C   0  0  0  0  0  0  0  0  0  0  0  0
  189.2870  177.7020  140.6910 C   0  0  0  0  0  3  0  0  0  0  0  0
  187.7480  177.8960  137.3690 N   0  0  0  0  0  0  0  0  0  0  0  0
  188.9820  177.6670  139.3290 C   0  0  0  0  0  0  0  0  0  0  0  0
  191.5220  176.8670  140.1590 C   0  0  0  0  0  3  0  0  0  0  0  0
  189.2400  177.3250  136.8990 S   0  0  0  0  0  0  0  0  0  0  0  0
  191.2100  176.8320  138.7910 C   0  0  0  0  0  3  0  0  0  0  0  0
  186.6400  178.1950  136.4790 C   0  0  0  0  0  1  0  0  0  0  0  0
  187.7650  178.0280  138.7220 C   0  0  0  0  0  0  0  0  0  0  0  0
  190.5680  177.3020  141.1110 C   0  0  0  0  0  0  0  0  0  0  0  0
  190.7940  179.5790  143.8010 C   0  0  0  0  0  2  0  0  0  0  0  0
  192.1280  179.2350  144.4340 C   0  0  0  0  0  1  0  0  0  0  0  0
  189.4980  177.6200  144.6500 C   0  0  0  0  0  2  0  0  0  0  0  0
  187.9710  177.6850  144.7610 C   0  0  1  0  0  3  0  0  0  0  0  0
  187.2310  176.9050  143.7080 C   0  0  0  0  0  0  0  0  0  0  0  0
  186.0890  177.4430  143.0250 N   0  0  0  0  0  2  0  0  0  0  0  0
  187.6440  175.7610  143.3820 O   0  0  0  0  0  0  0  0  0  0  0  0
  185.8020  179.8070  142.6230 C   0  0  0  0  0  2  0  0  0  0  0  0
  185.4120  178.6950  143.2420 C   0  0  0  0  0  0  0  0  0  0  0  0
  184.2830  178.7470  144.1970 C   0  0  0  0  0  0  0  0  0  0  0  0
  184.5100  178.7950  145.6720 C   0  0  0  0  0  1  0  0  0  0  0  0
  183.0300  178.7590  143.7580 C   0  0  0  0  0  2  0  0  0  0  0  0
  188.4810  177.7230  147.2580 C   0  0  0  0  0  1  0  0  0  0  0  0
  187.4250  177.5220  146.1830 C   0  0  0  0  0  2  0  0  0  0  0  0
  1 15  1  1  0  0  0
  1 17  1  0  0  0  0
  3  2  1  1  0  0  0
  3  1  1  0  0  0  0
  5 11  2  0  0  0  0
  5  8  1  0  0  0  0
  6 14  1  0  0  0  0
  7 13  1  0  0  0  0
  8  6  2  0  0  0  0
  9 14  2  0  0  0  0
 10  7  1  0  0  0  0
 10  5  1  0  0  0  0
 11  9  1  0  0  0  0
 12  7  1  0  0  0  0
 13  8  1  0  0  0  0
 13  4  2  0  0  0  0
 14  3  1  0  0  0  0
 15 16  1  0  0  0  0
 18 17  1  1  0  0  0
 18 28  1  0  0  0  0
 19 18  1  0  0  0  0
 20 23  1  0  0  0  0
 20 19  1  0  0  0  0
 21 19  2  0  0  0  0
 22 23  2  0  0  0  0
 23 24  1  0  0  0  0
 24 25  1  0  0  0  0
 26 24  2  0  0  0  0
 28 27  1  0  0  0  0
M  END
>  <MODEL>
5

>  <REMARK>
 VINA RESULT:      -8.0      3.358      5.847
  Name = 
  9 active torsions:
  status: ('A' for Active; 'I' for Inactive)
    1  A    between atoms: C_1  and  C_2
    2  A    between atoms: C_1  and  C_17
    3  A    between atoms: C_1  and  C_26
    4  A    between atoms: N_3  and  C_11
    5  A    between atoms: C_6  and  C_11
    6  A    between atoms: C_16  and  C_27
    7  A    between atoms: C_17  and  C_27
    8  A    between atoms: C_20  and  C_25
    9  A    between atoms: C_20  and  C_27
                            x       y       z     vdW  Elec       q    Type
                         _______ _______ _______ _____ _____    ______ ____

>  <TORSDO>
F 9

$$$$
=
 OpenBabel10262420533D

 28 29  0  0  1  0  0  0  0  0999 V2000
  184.6250  178.2260  141.9420 C   0  0  2  0  0  3  0  0  0  0  0  0
  182.7760  179.0000  143.5020 C   0  0  0  0  0  1  0  0  0  0  0  0
  184.2680  179.0210  143.2070 C   0  0  1  0  0  3  0  0  0  0  0  0
  189.1680  177.2020  144.3080 O   0  0  0  0  0  0  0  0  0  0  0  0
  186.6380  178.0170  146.6200 C   0  0  0  0  0  0  0  0  0  0  0  0
  186.4080  178.2100  144.2260 C   0  0  0  0  0  3  0  0  0  0  0  0
  189.0000  177.1610  146.5980 N   0  0  0  0  0  0  0  0  0  0  0  0
  187.1740  177.8800  145.3450 C   0  0  0  0  0  0  0  0  0  0  0  0
  184.5720  178.8110  145.7240 C   0  0  0  0  0  3  0  0  0  0  0  0
  187.8150  177.5410  147.7040 S   0  0  0  0  0  0  0  0  0  0  0  0
  185.3460  178.4770  146.8460 C   0  0  0  0  0  3  0  0  0  0  0  0
  190.3280  176.6680  146.9190 C   0  0  0  0  0  1  0  0  0  0  0  0
  188.4960  177.3980  145.3570 C   0  0  0  0  0  0  0  0  0  0  0  0
  185.0970  178.6820  144.4160 C   0  0  0  0  0  0  0  0  0  0  0  0
  185.4710  179.0110  140.9430 C   0  0  0  0  0  2  0  0  0  0  0  0
  186.9220  178.5770  141.0160 C   0  0  0  0  0  1  0  0  0  0  0  0
  183.3570  177.7200  141.2620 C   0  0  0  0  0  2  0  0  0  0  0  0
  183.4490  177.7090  139.7330 C   0  0  1  0  0  3  0  0  0  0  0  0
  183.0520  176.4080  139.0890 C   0  0  0  0  0  0  0  0  0  0  0  0
  183.5390  176.0190  137.7960 N   0  0  0  0  0  2  0  0  0  0  0  0
  182.3000  175.6140  139.7130 O   0  0  0  0  0  0  0  0  0  0  0  0
  183.8570  177.3220  135.7880 C   0  0  0  0  0  2  0  0  0  0  0  0
  184.3670  176.7600  136.8810 C   0  0  0  0  0  0  0  0  0  0  0  0
  185.8180  176.8680  137.1500 C   0  0  0  0  0  0  0  0  0  0  0  0
  186.4600  178.1820  137.4490 C   0  0  0  0  0  1  0  0  0  0  0  0
  186.5870  175.7860  137.1380 C   0  0  0  0  0  2  0  0  0  0  0  0
  181.5800  179.4400  139.6530 C   0  0  0  0  0  1  0  0  0  0  0  0
  182.8900  178.9610  139.0500 C   0  0  0  0  0  2  0  0  0  0  0  0
  1 15  1  6  0  0  0
  1  3  1  0  0  0  0
  3  2  1  1  0  0  0
  3 14  1  0  0  0  0
  4 13  2  0  0  0  0
  5 11  1  0  0  0  0
  5 10  1  0  0  0  0
  6 14  2  0  0  0  0
  6  8  1  0  0  0  0
  7 12  1  0  0  0  0
  7 10  1  0  0  0  0
  8 13  1  0  0  0  0
  8  5  2  0  0  0  0
  9 11  2  0  0  0  0
 13  7  1  0  0  0  0
 14  9  1  0  0  0  0
 15 16  1  0  0  0  0
 17  1  1  0  0  0  0
 18 28  1  6  0  0  0
 18 17  1  0  0  0  0
 19 21  2  0  0  0  0
 19 18  1  0  0  0  0
 20 19  1  0  0  0  0
 22 23  2  0  0  0  0
 23 24  1  0  0  0  0
 23 20  1  0  0  0  0
 24 25  1  0  0  0  0
 26 24  2  0  0  0  0
 28 27  1  0  0  0  0
M  END
>  <MODEL>
6

>  <REMARK>
 VINA RESULT:      -7.9      3.287      8.080
  Name = 
  9 active torsions:
  status: ('A' for Active; 'I' for Inactive)
    1  A    between atoms: C_1  and  C_2
    2  A    between atoms: C_1  and  C_17
    3  A    between atoms: C_1  and  C_26
    4  A    between atoms: N_3  and  C_11
    5  A    between atoms: C_6  and  C_11
    6  A    between atoms: C_16  and  C_27
    7  A    between atoms: C_17  and  C_27
    8  A    between atoms: C_20  and  C_25
    9  A    between atoms: C_20  and  C_27
                            x       y       z     vdW  Elec       q    Type
                         _______ _______ _______ _____ _____    ______ ____

>  <TORSDO>
F 9

$$$$
=
 OpenBabel10262420533D

 28 29  0  0  1  0  0  0  0  0999 V2000
  189.9040  178.3960  143.4400 C   0  0  2  0  0  3  0  0  0  0  0  0
  190.6430  176.0180  142.9390 C   0  0  0  0  0  1  0  0  0  0  0  0
  190.5440  177.4440  142.4180 C   0  0  1  0  0  3  0  0  0  0  0  0
  191.8930  176.1400  137.4170 O   0  0  0  0  0  0  0  0  0  0  0  0
  188.8940  177.6510  138.4810 C   0  0  0  0  0  0  0  0  0  0  0  0
  190.6990  177.0260  139.9530 C   0  0  0  0  0  3  0  0  0  0  0  0
  189.9870  176.8640  136.3600 N   0  0  0  0  0  0  0  0  0  0  0  0
  190.1550  177.1010  138.6700 C   0  0  0  0  0  0  0  0  0  0  0  0
  188.6660  178.0690  140.8200 C   0  0  0  0  0  3  0  0  0  0  0  0
  188.5640  177.5800  136.8450 S   0  0  0  0  0  0  0  0  0  0  0  0
  188.1240  178.1440  139.5270 C   0  0  0  0  0  3  0  0  0  0  0  0
  190.3340  176.5170  134.9930 C   0  0  0  0  0  1  0  0  0  0  0  0
  190.7500  176.6690  137.4690 C   0  0  0  0  0  0  0  0  0  0  0  0
  189.9480  177.5110  141.0390 C   0  0  0  0  0  0  0  0  0  0  0  0
  190.8310  179.5200  143.8960 C   0  0  0  0  0  2  0  0  0  0  0  0
  192.1760  178.9630  144.3180 C   0  0  0  0  0  1  0  0  0  0  0  0
  189.4040  177.6130  144.6500 C   0  0  0  0  0  2  0  0  0  0  0  0
  187.8880  177.7040  144.8490 C   0  0  1  0  0  3  0  0  0  0  0  0
  187.0750  176.9420  143.8380 C   0  0  0  0  0  0  0  0  0  0  0  0
  185.8810  177.4870  143.2540 N   0  0  0  0  0  2  0  0  0  0  0  0
  187.4670  175.8080  143.4570 O   0  0  0  0  0  0  0  0  0  0  0  0
  185.5710  179.8620  142.9440 C   0  0  0  0  0  2  0  0  0  0  0  0
  185.2170  178.7290  143.5480 C   0  0  0  0  0  0  0  0  0  0  0  0
  184.1430  178.7480  144.5660 C   0  0  0  0  0  0  0  0  0  0  0  0
  182.7010  178.7560  144.1780 C   0  0  0  0  0  1  0  0  0  0  0  0
  184.4410  178.7510  145.8590 C   0  0  0  0  0  2  0  0  0  0  0  0
  188.5670  177.5320  147.2990 C   0  0  0  0  0  1  0  0  0  0  0  0
  187.4220  177.5440  146.2990 C   0  0  0  0  0  2  0  0  0  0  0  0
  1 15  1  1  0  0  0
  1 17  1  0  0  0  0
  3  2  1  1  0  0  0
  3  1  1  0  0  0  0
  4 13  2  0  0  0  0
  5  8  2  0  0  0  0
  5 11  1  0  0  0  0
  6 14  2  0  0  0  0
  7 10  1  0  0  0  0
  7 13  1  0  0  0  0
  8  6  1  0  0  0  0
  9 14  1  0  0  0  0
 10  5  1  0  0  0  0
 11  9  2  0  0  0  0
 12  7  1  0  0  0  0
 13  8  1  0  0  0  0
 14  3  1  0  0  0  0
 15 16  1  0  0  0  0
 18 17  1  1  0  0  0
 18 28  1  0  0  0  0
 19 18  1  0  0  0  0
 20 23  1  0  0  0  0
 20 19  1  0  0  0  0
 21 19  2  0  0  0  0
 22 23  2  0  0  0  0
 23 24  1  0  0  0  0
 24 26  2  0  0  0  0
 25 24  1  0  0  0  0
 28 27  1  0  0  0  0
M  END
>  <MODEL>
7

>  <REMARK>
 VINA RESULT:      -7.8      4.067      6.598
  Name = 
  9 active torsions:
  status: ('A' for Active; 'I' for Inactive)
    1  A    between atoms: C_1  and  C_2
    2  A    between atoms: C_1  and  C_17
    3  A    between atoms: C_1  and  C_26
    4  A    between atoms: N_3  and  C_11
    5  A    between atoms: C_6  and  C_11
    6  A    between atoms: C_16  and  C_27
    7  A    between atoms: C_17  and  C_27
    8  A    between atoms: C_20  and  C_25
    9  A    between atoms: C_20  and  C_27
                            x       y       z     vdW  Elec       q    Type
                         _______ _______ _______ _____ _____    ______ ____

>  <TORSDO>
F 9

$$$$
=
 OpenBabel10262420533D

 28 29  0  0  1  0  0  0  0  0999 V2000
  187.3690  177.6480  146.4560 C   0  0  2  0  0  3  0  0  0  0  0  0
  186.3230  179.8020  147.3030 C   0  0  0  0  0  1  0  0  0  0  0  0
  186.0740  178.4520  146.6480 C   0  0  1  0  0  3  0  0  0  0  0  0
  186.6980  178.7620  141.3520 O   0  0  0  0  0  0  0  0  0  0  0  0
  183.6610  178.7950  143.1370 C   0  0  0  0  0  0  0  0  0  0  0  0
  185.8390  178.6170  144.1590 C   0  0  0  0  0  3  0  0  0  0  0  0
  184.4830  178.9110  140.7650 N   0  0  0  0  0  0  0  0  0  0  0  0
  185.0440  178.7340  143.0180 C   0  0  0  0  0  0  0  0  0  0  0  0
  183.8040  178.6270  145.5140 C   0  0  0  0  0  3  0  0  0  0  0  0
  183.0380  178.9290  141.5930 S   0  0  0  0  0  0  0  0  0  0  0  0
  183.0090  178.7460  144.3630 C   0  0  0  0  0  3  0  0  0  0  0  0
  184.6310  178.9960  139.3230 C   0  0  0  0  0  1  0  0  0  0  0  0
  185.4820  178.8020  141.6820 C   0  0  0  0  0  0  0  0  0  0  0  0
  185.2150  178.5610  145.4180 C   0  0  0  0  0  0  0  0  0  0  0  0
  187.8080  176.8840  147.7020 C   0  0  0  0  0  2  0  0  0  0  0  0
  188.1670  177.8450  148.8180 C   0  0  0  0  0  1  0  0  0  0  0  0
  188.4950  178.5640  145.9860 C   0  0  0  0  0  2  0  0  0  0  0  0
  189.1310  178.1190  144.6660 C   0  0  1  0  0  3  0  0  0  0  0  0
  190.5380  178.6080  144.4510 C   0  0  0  0  0  0  0  0  0  0  0  0
  191.6820  177.7890  144.7410 N   0  0  0  0  0  2  0  0  0  0  0  0
  190.7270  179.7540  143.9660 O   0  0  0  0  0  0  0  0  0  0  0  0
  191.6810  175.3800  144.5760 C   0  0  0  0  0  2  0  0  0  0  0  0
  191.7280  176.4760  145.3290 C   0  0  0  0  0  0  0  0  0  0  0  0
  191.7960  176.3490  146.8020 C   0  0  0  0  0  0  0  0  0  0  0  0
  191.3000  177.4320  147.7020 C   0  0  0  0  0  1  0  0  0  0  0  0
  192.2980  175.2540  147.3600 C   0  0  0  0  0  2  0  0  0  0  0  0
  188.5550  176.4320  142.8450 C   0  0  0  0  0  1  0  0  0  0  0  0
  188.9020  176.6470  144.3090 C   0  0  0  0  0  2  0  0  0  0  0  0
  1 17  1  1  0  0  0
  1  3  1  0  0  0  0
  1 15  1  0  0  0  0
  3  2  1  6  0  0  0
  4 13  2  0  0  0  0
  5 11  1  0  0  0  0
  6 14  2  0  0  0  0
  7 10  1  0  0  0  0
  7 13  1  0  0  0  0
  8  5  2  0  0  0  0
  8  6  1  0  0  0  0
 10  5  1  0  0  0  0
 11  9  2  0  0  0  0
 12  7  1  0  0  0  0
 13  8  1  0  0  0  0
 14  9  1  0  0  0  0
 14  3  1  0  0  0  0
 15 16  1  0  0  0  0
 18 28  1  1  0  0  0
 18 17  1  0  0  0  0
 19 18  1  0  0  0  0
 19 20  1  0  0  0  0
 20 23  1  0  0  0  0
 21 19  2  0  0  0  0
 22 23  2  0  0  0  0
 23 24  1  0  0  0  0
 24 26  2  0  0  0  0
 24 25  1  0  0  0  0
 27 28  1  0  0  0  0
M  END
>  <MODEL>
8

>  <REMARK>
 VINA RESULT:      -7.7      1.937      3.553
  Name = 
  9 active torsions:
  status: ('A' for Active; 'I' for Inactive)
    1  A    between atoms: C_1  and  C_2
    2  A    between atoms: C_1  and  C_17
    3  A    between atoms: C_1  and  C_26
    4  A    between atoms: N_3  and  C_11
    5  A    between atoms: C_6  and  C_11
    6  A    between atoms: C_16  and  C_27
    7  A    between atoms: C_17  and  C_27
    8  A    between atoms: C_20  and  C_25
    9  A    between atoms: C_20  and  C_27
                            x       y       z     vdW  Elec       q    Type
                         _______ _______ _______ _____ _____    ______ ____

>  <TORSDO>
F 9

$$$$
=
 OpenBabel10262420533D

 28 29  0  0  1  0  0  0  0  0999 V2000
  185.0120  178.3700  142.1370 C   0  0  2  0  0  3  0  0  0  0  0  0
  182.9760  178.6290  143.6330 C   0  0  0  0  0  1  0  0  0  0  0  0
  184.4470  178.9620  143.4370 C   0  0  1  0  0  3  0  0  0  0  0  0
  189.2920  177.0690  144.6520 O   0  0  0  0  0  0  0  0  0  0  0  0
  186.7950  178.1130  146.9060 C   0  0  0  0  0  0  0  0  0  0  0  0
  186.5640  178.1540  144.5060 C   0  0  0  0  0  3  0  0  0  0  0  0
  189.1290  177.1850  146.9400 N   0  0  0  0  0  0  0  0  0  0  0  0
  187.3230  177.8760  145.6440 C   0  0  0  0  0  0  0  0  0  0  0  0
  184.7520  178.9090  145.9620 C   0  0  0  0  0  3  0  0  0  0  0  0
  187.9590  177.6730  148.0190 S   0  0  0  0  0  0  0  0  0  0  0  0
  185.5180  178.6260  147.1030 C   0  0  0  0  0  3  0  0  0  0  0  0
  190.4420  176.6730  147.2920 C   0  0  0  0  0  1  0  0  0  0  0  0
  188.6300  177.3540  145.6860 C   0  0  0  0  0  0  0  0  0  0  0  0
  185.2690  178.6780  144.6650 C   0  0  0  0  0  0  0  0  0  0  0  0
  185.9810  179.3000  141.4100 C   0  0  0  0  0  2  0  0  0  0  0  0
  187.3270  178.6270  141.2230 C   0  0  0  0  0  1  0  0  0  0  0  0
  183.8760  177.9720  141.2010 C   0  0  0  0  0  2  0  0  0  0  0  0
  183.7740  178.8580  139.9560 C   0  0  1  0  0  3  0  0  0  0  0  0
  184.3280  178.2420  138.7000 C   0  0  0  0  0  0  0  0  0  0  0  0
  183.6050  177.2490  137.9550 N   0  0  0  0  0  2  0  0  0  0  0  0
  185.4420  178.6310  138.2600 O   0  0  0  0  0  0  0  0  0  0  0  0
  182.2850  175.5650  139.0740 C   0  0  0  0  0  2  0  0  0  0  0  0
  182.3480  176.6230  138.2680 C   0  0  0  0  0  0  0  0  0  0  0  0
  181.1090  177.1480  137.6540 C   0  0  0  0  0  0  0  0  0  0  0  0
  179.7640  176.8470  138.2290 C   0  0  0  0  0  1  0  0  0  0  0  0
  181.1670  177.9140  136.5710 C   0  0  0  0  0  2  0  0  0  0  0  0
  182.4540  180.6530  138.7200 C   0  0  0  0  0  1  0  0  0  0  0  0
  182.4270  179.5670  139.7830 C   0  0  0  0  0  2  0  0  0  0  0  0
  1 17  1  6  0  0  0
  1  3  1  0  0  0  0
  3  2  1  1  0  0  0
  3 14  1  0  0  0  0
  4 13  2  0  0  0  0
  5 11  1  0  0  0  0
  5 10  1  0  0  0  0
  6 14  2  0  0  0  0
  6  8  1  0  0  0  0
  7 12  1  0  0  0  0
  7 10  1  0  0  0  0
  8 13  1  0  0  0  0
  8  5  2  0  0  0  0
  9 11  2  0  0  0  0
 13  7  1  0  0  0  0
 14  9  1  0  0  0  0
 15  1  1  0  0  0  0
 16 15  1  0  0  0  0
 18 28  1  6  0  0  0
 18 17  1  0  0  0  0
 19 18  1  0  0  0  0
 20 23  1  0  0  0  0
 20 19  1  0  0  0  0
 21 19  2  0  0  0  0
 23 22  2  0  0  0  0
 24 25  1  0  0  0  0
 24 23  1  0  0  0  0
 26 24  2  0  0  0  0
 27 28  1  0  0  0  0
M  END
>  <MODEL>
9

>  <REMARK>
 VINA RESULT:      -7.6      3.432      8.590
  Name = 
  9 active torsions:
  status: ('A' for Active; 'I' for Inactive)
    1  A    between atoms: C_1  and  C_2
    2  A    between atoms: C_1  and  C_17
    3  A    between atoms: C_1  and  C_26
    4  A    between atoms: N_3  and  C_11
    5  A    between atoms: C_6  and  C_11
    6  A    between atoms: C_16  and  C_27
    7  A    between atoms: C_17  and  C_27
    8  A    between atoms: C_20  and  C_25
    9  A    between atoms: C_20  and  C_27
                            x       y       z     vdW  Elec       q    Type
                         _______ _______ _______ _____ _____    ______ ____

>  <TORSDO>
F 9

$$$$
