=
 OpenBabel10262422473D

 37 44  0  0  1  0  0  0  0  0999 V2000
  183.6100  177.8930  141.6740 O   0  0  0  0  0  0  0  0  0  0  0  0
  189.1030  178.3510  141.5050 C   0  0  0  0  0  3  0  0  0  0  0  0
  186.4170  178.1210  137.9850 N   0  0  0  0  0  0  0  0  0  0  0  0
  182.7910  178.0400  137.1810 C   0  0  0  0  0  2  0  0  0  0  0  0
  188.4360  177.6390  139.2390 C   0  0  0  0  0  0  0  0  0  0  0  0
  185.0100  178.3720  138.3110 C   0  0  1  0  0  3  0  0  0  0  0  0
  187.1410  177.9680  139.2010 C   0  0  0  0  0  0  0  0  0  0  0  0
  184.0600  177.3540  137.6470 C   0  0  1  0  0  0  0  0  0  0  0  0
  189.1990  177.4980  137.9620 C   0  0  0  0  0  2  0  0  0  0  0  0
  186.2480  178.2200  140.3250 C   0  0  0  0  0  0  0  0  0  0  0  0
  185.6420  179.3090  142.3430 O   0  0  0  0  0  1  0  0  0  0  0  0
  186.9250  177.1530  135.7800 C   0  0  0  0  0  2  0  0  0  0  0  0
  188.7830  178.8730  136.8330 S   0  0  0  0  0  0  0  0  0  0  0  0
  186.6120  178.7750  141.5060 C   0  0  0  0  0  0  0  0  0  0  0  0
  182.7160  177.0270  138.3120 C   0  0  1  0  0  3  0  0  0  0  0  0
  187.0250  178.3790  136.6750 C   0  0  2  0  0  3  0  0  0  0  0  0
  184.9260  178.3080  139.7740 N   0  0  0  0  0  0  0  0  0  0  0  0
  189.0880  177.2380  140.5150 C   0  0  0  0  0  2  0  0  0  0  0  0
  184.6240  176.2970  136.6780 C   0  0  2  0  0  3  0  0  0  0  0  0
  188.0110  178.9800  141.9430 C   0  0  0  0  0  3  0  0  0  0  0  0
  182.5400  177.6900  139.6040 N   0  0  0  0  0  0  0  0  0  0  0  0
  183.6880  177.9760  140.4190 C   0  0  0  0  0  0  0  0  0  0  0  0
  185.2460  176.9850  135.1120 S   0  0  0  0  0  0  0  0  0  0  0  0
  182.6110  175.0700  135.9090 C   0  0  0  0  0  3  0  0  0  0  0  0
  183.8610  175.0030  136.5350 C   0  0  0  0  0  0  0  0  0  0  0  0
  184.3540  173.7460  136.9600 C   0  0  0  0  0  0  0  0  0  0  0  0
  185.6790  173.5900  137.6270 C   0  0  0  0  0  1  0  0  0  0  0  0
  182.3370  172.6790  136.1360 C   0  0  0  0  0  3  0  0  0  0  0  0
  183.5840  172.5960  136.7580 C   0  0  0  0  0  3  0  0  0  0  0  0
  181.8510  173.9160  135.7110 C   0  0  0  0  0  3  0  0  0  0  0  0
  181.1720  177.7840  140.1200 C   0  0  1  0  0  3  0  0  0  0  0  0
  179.1370  179.2060  140.1090 C   0  0  0  0  0  2  0  0  0  0  0  0
  179.9540  180.9450  141.5020 O   0  0  0  0  0  1  0  0  0  0  0  0
  180.6500  179.2120  140.0420 C   0  0  1  0  0  3  0  0  0  0  0  0
  179.9450  179.5610  141.3390 C   0  0  2  0  0  3  0  0  0  0  0  0
  180.2390  176.8290  139.3850 C   0  0  0  0  0  2  0  0  0  0  0  0
  179.9820  175.5930  140.2250 C   0  0  0  0  0  1  0  0  0  0  0  0
  2 20  2  0  0  0  0
  3  7  1  0  0  0  0
  5 18  1  0  0  0  0
  6  3  1  1  0  0  0
  6 17  1  0  0  0  0
  7  5  2  0  0  0  0
  7 10  1  0  0  0  0
  8  4  1  6  0  0  0
  8  6  1  0  0  0  0
  8 15  1  0  0  0  0
  9  5  1  0  0  0  0
 10 14  2  0  0  0  0
 13  9  1  0  0  0  0
 14 20  1  0  0  0  0
 14 11  1  0  0  0  0
 15  4  1  6  0  0  0
 15 21  1  0  0  0  0
 16 12  1  6  0  0  0
 16 13  1  0  0  0  0
 16  3  1  0  0  0  0
 17 10  1  0  0  0  0
 17 22  1  0  0  0  0
 18  2  1  0  0  0  0
 19 25  1  6  0  0  0
 19  8  1  0  0  0  0
 21 31  1  0  0  0  0
 21 22  1  0  0  0  0
 22  1  2  0  0  0  0
 23 12  1  0  0  0  0
 23 19  1  0  0  0  0
 24 25  1  0  0  0  0
 25 26  2  0  0  0  0
 26 27  1  0  0  0  0
 28 29  2  0  0  0  0
 29 26  1  0  0  0  0
 30 24  2  0  0  0  0
 30 28  1  0  0  0  0
 31 36  1  6  0  0  0
 32 35  1  0  0  0  0
 34 32  1  0  0  0  0
 34 31  1  1  0  0  0
 34 35  1  0  0  0  0
 35 33  1  6  0  0  0
 36 37  1  0  0  0  0
M  END
>  <MODEL>
1

>  <REMARK>
 VINA RESULT:      -6.2      0.000      0.000
  Name = 
  4 active torsions:
  status: ('A' for Active; 'I' for Inactive)
    1  A    between atoms: C_6  and  C_31
    2  A    between atoms: C_11  and  C_26
    3  A    between atoms: C_17  and  C_26
    4  A    between atoms: C_26  and  N_33
                            x       y       z     vdW  Elec       q    Type
                         _______ _______ _______ _____ _____    ______ ____

>  <TORSDO>
F 4

$$$$
=
 OpenBabel10262422473D

 37 44  0  0  1  0  0  0  0  0999 V2000
  181.7790  178.7920  142.8780 O   0  0  0  0  0  0  0  0  0  0  0  0
  186.5500  177.5420  145.3450 C   0  0  0  0  0  3  0  0  0  0  0  0
  186.0490  178.6000  141.0690 N   0  0  0  0  0  0  0  0  0  0  0  0
  183.4110  179.7480  138.7190 C   0  0  0  0  0  2  0  0  0  0  0  0
  186.9990  177.3620  142.9260 C   0  0  0  0  0  0  0  0  0  0  0  0
  184.7600  179.2320  140.7750 C   0  0  1  0  0  3  0  0  0  0  0  0
  186.0040  178.0790  142.3940 C   0  0  0  0  0  0  0  0  0  0  0  0
  184.0930  178.6500  139.5110 C   0  0  1  0  0  0  0  0  0  0  0  0
  188.2560  177.1530  142.1480 C   0  0  0  0  0  2  0  0  0  0  0  0
  184.7370  178.4520  143.0110 C   0  0  0  0  0  0  0  0  0  0  0  0
  183.4300  179.4120  144.7410 O   0  0  0  0  0  1  0  0  0  0  0  0
  187.3960  177.8070  139.1670 C   0  0  0  0  0  2  0  0  0  0  0  0
  188.7680  178.7200  141.3590 S   0  0  0  0  0  0  0  0  0  0  0  0
  184.5560  178.7130  144.3280 C   0  0  0  0  0  0  0  0  0  0  0  0
  182.5630  178.6740  139.3810 C   0  0  1  0  0  3  0  0  0  0  0  0
  187.2770  178.8190  140.2970 C   0  0  2  0  0  3  0  0  0  0  0  0
  183.9310  179.0130  141.9650 N   0  0  0  0  0  0  0  0  0  0  0  0
  186.8110  176.6220  144.2040 C   0  0  0  0  0  2  0  0  0  0  0  0
  184.8380  177.6000  138.6640 C   0  0  2  0  0  3  0  0  0  0  0  0
  185.5450  178.4180  145.3890 C   0  0  0  0  0  3  0  0  0  0  0  0
  181.8970  179.1910  140.5760 N   0  0  0  0  0  0  0  0  0  0  0  0
  182.5000  179.0030  141.8670 C   0  0  0  0  0  0  0  0  0  0  0  0
  186.2970  178.2530  137.7930 S   0  0  0  0  0  0  0  0  0  0  0  0
  184.2720  176.5640  136.4830 C   0  0  0  0  0  3  0  0  0  0  0  0
  184.0070  176.6360  137.8560 C   0  0  0  0  0  0  0  0  0  0  0  0
  183.0160  175.7910  138.4130 C   0  0  0  0  0  0  0  0  0  0  0  0
  182.6810  175.8010  139.8650 C   0  0  0  0  0  1  0  0  0  0  0  0
  182.5870  174.8500  136.2170 C   0  0  0  0  0  3  0  0  0  0  0  0
  182.3150  174.9070  137.5850 C   0  0  0  0  0  3  0  0  0  0  0  0
  183.5660  175.6780  135.6670 C   0  0  0  0  0  3  0  0  0  0  0  0
  180.5110  179.6390  140.4200 C   0  0  1  0  0  3  0  0  0  0  0  0
  179.3440  180.7420  138.5260 C   0  0  0  0  0  2  0  0  0  0  0  0
  179.1850  182.9140  139.4680 O   0  0  0  0  0  1  0  0  0  0  0  0
  180.4300  180.9000  139.5690 C   0  0  1  0  0  3  0  0  0  0  0  0
  179.0800  181.5580  139.7730 C   0  0  2  0  0  3  0  0  0  0  0  0
  179.6380  178.5370  139.8320 C   0  0  0  0  0  2  0  0  0  0  0  0
  179.3010  177.5090  140.8940 C   0  0  0  0  0  1  0  0  0  0  0  0
  2 20  2  0  0  0  0
  3  7  1  0  0  0  0
  5 18  1  0  0  0  0
  6  3  1  1  0  0  0
  6 17  1  0  0  0  0
  7  5  2  0  0  0  0
  7 10  1  0  0  0  0
  8  4  1  6  0  0  0
  8  6  1  0  0  0  0
  9  5  1  0  0  0  0
 10 14  2  0  0  0  0
 13  9  1  0  0  0  0
 14 11  1  0  0  0  0
 14 20  1  0  0  0  0
 15  4  1  6  0  0  0
 15  8  1  0  0  0  0
 15 21  1  0  0  0  0
 16 12  1  6  0  0  0
 16  3  1  0  0  0  0
 16 13  1  0  0  0  0
 17 10  1  0  0  0  0
 18  2  1  0  0  0  0
 19 25  1  6  0  0  0
 19  8  1  0  0  0  0
 21 22  1  0  0  0  0
 22 17  1  0  0  0  0
 22  1  2  0  0  0  0
 23 19  1  0  0  0  0
 23 12  1  0  0  0  0
 24 25  1  0  0  0  0
 25 26  2  0  0  0  0
 26 27  1  0  0  0  0
 28 29  2  0  0  0  0
 29 26  1  0  0  0  0
 30 28  1  0  0  0  0
 30 24  2  0  0  0  0
 31 36  1  6  0  0  0
 31 21  1  0  0  0  0
 32 34  1  0  0  0  0
 32 35  1  0  0  0  0
 34 35  1  0  0  0  0
 34 31  1  1  0  0  0
 35 33  1  6  0  0  0
 36 37  1  0  0  0  0
M  END
>  <MODEL>
2

>  <REMARK>
 VINA RESULT:      -6.2      2.229      3.039
  Name = 
  4 active torsions:
  status: ('A' for Active; 'I' for Inactive)
    1  A    between atoms: C_6  and  C_31
    2  A    between atoms: C_11  and  C_26
    3  A    between atoms: C_17  and  C_26
    4  A    between atoms: C_26  and  N_33
                            x       y       z     vdW  Elec       q    Type
                         _______ _______ _______ _____ _____    ______ ____

>  <TORSDO>
F 4

$$$$
=
 OpenBabel10262422473D

 37 44  0  0  1  0  0  0  0  0999 V2000
  183.4770  178.2930  141.2960 O   0  0  0  0  0  0  0  0  0  0  0  0
  188.9890  178.2250  141.1840 C   0  0  0  0  0  3  0  0  0  0  0  0
  186.3270  177.9730  137.6480 N   0  0  0  0  0  0  0  0  0  0  0  0
  182.7180  178.1670  136.7920 C   0  0  0  0  0  2  0  0  0  0  0  0
  188.2810  177.4050  138.9680 C   0  0  0  0  0  0  0  0  0  0  0  0
  184.9480  178.3790  137.9300 C   0  0  1  0  0  3  0  0  0  0  0  0
  187.0230  177.8490  138.8840 C   0  0  0  0  0  0  0  0  0  0  0  0
  183.9120  177.4040  137.3300 C   0  0  1  0  0  0  0  0  0  0  0  0
  189.0390  177.0950  137.7190 C   0  0  0  0  0  2  0  0  0  0  0  0
  186.1460  178.2680  139.9700 C   0  0  0  0  0  0  0  0  0  0  0  0
  185.6260  179.5610  141.8890 O   0  0  0  0  0  1  0  0  0  0  0  0
  186.7640  176.7950  135.5310 C   0  0  0  0  0  2  0  0  0  0  0  0
  188.7640  178.4110  136.4820 S   0  0  0  0  0  0  0  0  0  0  0  0
  186.5490  178.8760  141.1110 C   0  0  0  0  0  0  0  0  0  0  0  0
  182.5370  177.2550  137.9950 C   0  0  1  0  0  3  0  0  0  0  0  0
  186.9690  178.0710  136.3320 C   0  0  2  0  0  3  0  0  0  0  0  0
  184.8430  178.4350  139.3920 N   0  0  0  0  0  0  0  0  0  0  0  0
  188.8800  177.0450  140.2820 C   0  0  0  0  0  2  0  0  0  0  0  0
  184.3840  176.2270  136.4540 C   0  0  2  0  0  3  0  0  0  0  0  0
  187.9580  178.9840  141.5550 C   0  0  0  0  0  3  0  0  0  0  0  0
  182.4120  178.0300  139.2300 N   0  0  0  0  0  0  0  0  0  0  0  0
  183.5740  178.2710  140.0400 C   0  0  0  0  0  0  0  0  0  0  0  0
  185.0820  176.7320  134.8500 S   0  0  0  0  0  0  0  0  0  0  0  0
  182.3140  175.1110  135.6690 C   0  0  0  0  0  3  0  0  0  0  0  0
  183.5050  175.0030  136.3960 C   0  0  0  0  0  0  0  0  0  0  0  0
  183.8360  173.7660  136.9990 C   0  0  0  0  0  0  0  0  0  0  0  0
  185.0890  173.5680  137.7820 C   0  0  0  0  0  1  0  0  0  0  0  0
  181.7820  172.8000  136.1420 C   0  0  0  0  0  3  0  0  0  0  0  0
  182.9690  172.6770  136.8670 C   0  0  0  0  0  3  0  0  0  0  0  0
  181.4550  174.0170  135.5430 C   0  0  0  0  0  3  0  0  0  0  0  0
  181.0540  178.2900  139.7140 C   0  0  1  0  0  3  0  0  0  0  0  0
  179.5430  177.9220  141.6490 C   0  0  0  0  0  2  0  0  0  0  0  0
  179.0790  175.6280  141.2600 O   0  0  0  0  0  1  0  0  0  0  0  0
  180.6710  177.3290  140.8310 C   0  0  1  0  0  3  0  0  0  0  0  0
  179.2480  176.8530  140.6180 C   0  0  2  0  0  3  0  0  0  0  0  0
  180.9010  179.7360  140.1720 C   0  0  0  0  0  2  0  0  0  0  0  0
  180.9250  180.6720  138.9790 C   0  0  0  0  0  1  0  0  0  0  0  0
  2 20  2  0  0  0  0
  3  7  1  0  0  0  0
  5 18  1  0  0  0  0
  6  3  1  1  0  0  0
  6 17  1  0  0  0  0
  7  5  2  0  0  0  0
  7 10  1  0  0  0  0
  8  4  1  6  0  0  0
  8  6  1  0  0  0  0
  8 15  1  0  0  0  0
  9  5  1  0  0  0  0
 10 14  2  0  0  0  0
 13  9  1  0  0  0  0
 14 20  1  0  0  0  0
 14 11  1  0  0  0  0
 15  4  1  6  0  0  0
 15 21  1  0  0  0  0
 16 12  1  1  0  0  0
 16 13  1  0  0  0  0
 16  3  1  0  0  0  0
 17 10  1  0  0  0  0
 17 22  1  0  0  0  0
 18  2  1  0  0  0  0
 19 25  1  6  0  0  0
 19  8  1  0  0  0  0
 21 31  1  0  0  0  0
 21 22  1  0  0  0  0
 22  1  2  0  0  0  0
 23 12  1  0  0  0  0
 23 19  1  0  0  0  0
 24 25  1  0  0  0  0
 25 26  2  0  0  0  0
 26 27  1  0  0  0  0
 28 29  2  0  0  0  0
 29 26  1  0  0  0  0
 30 24  2  0  0  0  0
 30 28  1  0  0  0  0
 31 36  1  1  0  0  0
 34 31  1  6  0  0  0
 34 32  1  0  0  0  0
 35 34  1  0  0  0  0
 35 33  1  1  0  0  0
 35 32  1  0  0  0  0
 37 36  1  0  0  0  0
M  END
>  <MODEL>
3

>  <REMARK>
 VINA RESULT:      -5.7      1.070      1.561
  Name = 
  4 active torsions:
  status: ('A' for Active; 'I' for Inactive)
    1  A    between atoms: C_6  and  C_31
    2  A    between atoms: C_11  and  C_26
    3  A    between atoms: C_17  and  C_26
    4  A    between atoms: C_26  and  N_33
                            x       y       z     vdW  Elec       q    Type
                         _______ _______ _______ _____ _____    ______ ____

>  <TORSDO>
F 4

$$$$
=
 OpenBabel10262422473D

 37 44  0  0  1  0  0  0  0  0999 V2000
  182.3680  178.5400  143.4030 O   0  0  0  0  0  0  0  0  0  0  0  0
  187.4590  177.3650  145.1660 C   0  0  0  0  0  3  0  0  0  0  0  0
  186.3500  178.4830  141.0210 N   0  0  0  0  0  0  0  0  0  0  0  0
  183.3890  179.6070  139.0790 C   0  0  0  0  0  2  0  0  0  0  0  0
  187.5740  177.2380  142.7040 C   0  0  0  0  0  0  0  0  0  0  0  0
  185.0190  179.0880  140.9200 C   0  0  1  0  0  3  0  0  0  0  0  0
  186.5000  177.9390  142.3280 C   0  0  0  0  0  0  0  0  0  0  0  0
  184.1970  178.5120  139.7480 C   0  0  1  0  0  0  0  0  0  0  0  0
  188.7160  177.0730  141.7570 C   0  0  0  0  0  2  0  0  0  0  0  0
  185.3220  178.2700  143.1220 C   0  0  0  0  0  0  0  0  0  0  0  0
  184.2460  179.1690  145.0340 O   0  0  0  0  0  1  0  0  0  0  0  0
  187.4390  177.7560  138.9360 C   0  0  0  0  0  2  0  0  0  0  0  0
  189.0790  178.6650  140.9370 S   0  0  0  0  0  0  0  0  0  0  0  0
  185.3180  178.5050  144.4550 C   0  0  0  0  0  0  0  0  0  0  0  0
  182.6640  178.5010  139.8300 C   0  0  1  0  0  3  0  0  0  0  0  0
  187.4550  178.7450  140.0910 C   0  0  2  0  0  3  0  0  0  0  0  0
  184.3680  178.8290  142.2080 N   0  0  0  0  0  0  0  0  0  0  0  0
  187.5800  176.4710  143.9810 C   0  0  0  0  0  2  0  0  0  0  0  0
  184.8410  177.4950  138.7860 C   0  0  2  0  0  3  0  0  0  0  0  0
  186.4510  178.2150  145.3640 C   0  0  0  0  0  3  0  0  0  0  0  0
  182.1580  178.9810  141.1160 N   0  0  0  0  0  0  0  0  0  0  0  0
  182.9370  178.7860  142.3070 C   0  0  0  0  0  0  0  0  0  0  0  0
  186.1520  178.1980  137.7350 S   0  0  0  0  0  0  0  0  0  0  0  0
  183.0590  175.7740  138.8810 C   0  0  0  0  0  3  0  0  0  0  0  0
  183.9270  176.5250  138.0800 C   0  0  0  0  0  0  0  0  0  0  0  0
  183.8800  176.3660  136.6740 C   0  0  0  0  0  0  0  0  0  0  0  0
  184.7660  177.1340  135.7530 C   0  0  0  0  0  1  0  0  0  0  0  0
  182.1210  174.7140  136.9210 C   0  0  0  0  0  3  0  0  0  0  0  0
  182.9770  175.4590  136.1100 C   0  0  0  0  0  3  0  0  0  0  0  0
  182.1610  174.8720  138.3070 C   0  0  0  0  0  3  0  0  0  0  0  0
  180.7540  179.3980  141.1610 C   0  0  1  0  0  3  0  0  0  0  0  0
  179.0050  180.5080  142.5300 C   0  0  0  0  0  2  0  0  0  0  0  0
  178.9820  178.9640  144.3320 O   0  0  0  0  0  1  0  0  0  0  0  0
  180.3380  179.7900  142.5720 C   0  0  1  0  0  3  0  0  0  0  0  0
  179.0660  179.0530  142.9440 C   0  0  2  0  0  3  0  0  0  0  0  0
  180.4870  180.5390  140.1860 C   0  0  0  0  0  2  0  0  0  0  0  0
  179.5860  180.0690  139.0590 C   0  0  0  0  0  1  0  0  0  0  0  0
  2 20  2  0  0  0  0
  3  7  1  0  0  0  0
  5 18  1  0  0  0  0
  6  3  1  1  0  0  0
  6 17  1  0  0  0  0
  7  5  2  0  0  0  0
  7 10  1  0  0  0  0
  8  4  1  6  0  0  0
  8 15  1  0  0  0  0
  8  6  1  0  0  0  0
  9  5  1  0  0  0  0
 10 14  2  0  0  0  0
 13  9  1  0  0  0  0
 14 11  1  0  0  0  0
 14 20  1  0  0  0  0
 15  4  1  6  0  0  0
 15 21  1  0  0  0  0
 16 12  1  6  0  0  0
 16 13  1  0  0  0  0
 16  3  1  0  0  0  0
 17 22  1  0  0  0  0
 17 10  1  0  0  0  0
 18  2  1  0  0  0  0
 19 25  1  6  0  0  0
 19  8  1  0  0  0  0
 21 31  1  0  0  0  0
 21 22  1  0  0  0  0
 22  1  2  0  0  0  0
 23 19  1  0  0  0  0
 23 12  1  0  0  0  0
 25 24  2  0  0  0  0
 26 25  1  0  0  0  0
 27 26  1  0  0  0  0
 28 30  2  0  0  0  0
 29 26  2  0  0  0  0
 29 28  1  0  0  0  0
 30 24  1  0  0  0  0
 31 36  1  6  0  0  0
 32 34  1  0  0  0  0
 32 35  1  0  0  0  0
 34 31  1  6  0  0  0
 34 35  1  0  0  0  0
 35 33  1  1  0  0  0
 37 36  1  0  0  0  0
M  END
>  <MODEL>
4

>  <REMARK>
 VINA RESULT:      -5.3      2.138      3.084
  Name = 
  4 active torsions:
  status: ('A' for Active; 'I' for Inactive)
    1  A    between atoms: C_6  and  C_31
    2  A    between atoms: C_11  and  C_26
    3  A    between atoms: C_17  and  C_26
    4  A    between atoms: C_26  and  N_33
                            x       y       z     vdW  Elec       q    Type
                         _______ _______ _______ _____ _____    ______ ____

>  <TORSDO>
F 4

$$$$
=
 OpenBabel10262422473D

 37 44  0  0  1  0  0  0  0  0999 V2000
  187.4720  173.3770  137.1810 O   0  0  0  0  0  0  0  0  0  0  0  0
  183.0340  170.3470  135.9440 C   0  0  0  0  0  3  0  0  0  0  0  0
  183.2360  174.7750  135.9000 N   0  0  0  0  0  0  0  0  0  0  0  0
  185.7130  177.5090  136.3350 C   0  0  0  0  0  2  0  0  0  0  0  0
  182.1820  172.6310  136.3170 C   0  0  0  0  0  0  0  0  0  0  0  0
  184.6060  175.2940  135.9090 C   0  0  1  0  0  3  0  0  0  0  0  0
  183.2800  173.3780  136.1690 C   0  0  0  0  0  0  0  0  0  0  0  0
  184.7920  176.4520  136.9110 C   0  0  1  0  0  0  0  0  0  0  0  0
  180.8370  173.2500  136.1170 C   0  0  0  0  0  2  0  0  0  0  0  0
  184.6720  172.9510  136.2520 C   0  0  0  0  0  0  0  0  0  0  0  0
  186.4990  171.5690  135.6420 O   0  0  0  0  0  1  0  0  0  0  0  0
  181.4100  176.3580  136.3710 C   0  0  0  0  0  2  0  0  0  0  0  0
  180.8560  174.3120  134.6310 S   0  0  0  0  0  0  0  0  0  0  0  0
  185.1420  171.7380  135.8760 C   0  0  0  0  0  0  0  0  0  0  0  0
  186.1720  176.6990  137.5370 C   0  0  1  0  0  3  0  0  0  0  0  0
  182.0840  175.4810  135.3270 C   0  0  2  0  0  3  0  0  0  0  0  0
  185.4600  174.1500  136.2500 N   0  0  0  0  0  0  0  0  0  0  0  0
  182.2640  171.2430  136.8490 C   0  0  0  0  0  2  0  0  0  0  0  0
  183.5770  176.9980  137.6870 C   0  0  2  0  0  3  0  0  0  0  0  0
  184.2930  170.5660  135.5620 C   0  0  0  0  0  3  0  0  0  0  0  0
  187.1630  175.6950  137.1510 N   0  0  0  0  0  0  0  0  0  0  0  0
  186.7410  174.3530  136.8610 C   0  0  0  0  0  0  0  0  0  0  0  0
  182.3680  177.8750  136.6460 S   0  0  0  0  0  0  0  0  0  0  0  0
  184.8470  178.6090  139.0800 C   0  0  0  0  0  3  0  0  0  0  0  0
  183.8350  177.6430  139.0250 C   0  0  0  0  0  0  0  0  0  0  0  0
  183.0940  177.3530  140.1960 C   0  0  0  0  0  0  0  0  0  0  0  0
  181.9960  176.3450  140.2180 C   0  0  0  0  0  1  0  0  0  0  0  0
  184.4050  178.9820  141.4270 C   0  0  0  0  0  3  0  0  0  0  0  0
  183.3890  178.0250  141.3870 C   0  0  0  0  0  3  0  0  0  0  0  0
  185.1330  179.2740  140.2730 C   0  0  0  0  0  3  0  0  0  0  0  0
  188.5720  176.0480  137.3420 C   0  0  1  0  0  3  0  0  0  0  0  0
  190.7770  176.4090  136.2590 C   0  0  0  0  0  2  0  0  0  0  0  0
  190.6590  174.6310  134.6920 O   0  0  0  0  0  1  0  0  0  0  0  0
  189.3210  176.0700  136.0160 C   0  0  1  0  0  3  0  0  0  0  0  0
  190.3670  174.9730  136.0120 C   0  0  2  0  0  3  0  0  0  0  0  0
  188.7130  177.3840  138.0620 C   0  0  0  0  0  2  0  0  0  0  0  0
  189.2160  177.1690  139.4760 C   0  0  0  0  0  1  0  0  0  0  0  0
  2 18  1  0  0  0  0
  3  7  1  0  0  0  0
  5 18  1  0  0  0  0
  6  3  1  1  0  0  0
  6 17  1  0  0  0  0
  6  8  1  0  0  0  0
  7 10  1  0  0  0  0
  7  5  2  0  0  0  0
  8  4  1  6  0  0  0
  8 15  1  0  0  0  0
  8 19  1  0  0  0  0
  9  5  1  0  0  0  0
 11 14  1  0  0  0  0
 12 23  1  0  0  0  0
 13 16  1  0  0  0  0
 13  9  1  0  0  0  0
 14 10  2  0  0  0  0
 15  4  1  6  0  0  0
 16  3  1  0  0  0  0
 16 12  1  1  0  0  0
 17 10  1  0  0  0  0
 17 22  1  0  0  0  0
 19 25  1  1  0  0  0
 20 14  1  0  0  0  0
 20  2  2  0  0  0  0
 21 31  1  0  0  0  0
 21 15  1  0  0  0  0
 22 21  1  0  0  0  0
 22  1  2  0  0  0  0
 23 19  1  0  0  0  0
 24 30  1  0  0  0  0
 25 24  2  0  0  0  0
 25 26  1  0  0  0  0
 26 27  1  0  0  0  0
 26 29  2  0  0  0  0
 29 28  1  0  0  0  0
 30 28  2  0  0  0  0
 31 36  1  6  0  0  0
 34 32  1  0  0  0  0
 34 31  1  1  0  0  0
 35 33  1  6  0  0  0
 35 34  1  0  0  0  0
 35 32  1  0  0  0  0
 36 37  1  0  0  0  0
M  END
>  <MODEL>
5

>  <REMARK>
 VINA RESULT:      -5.0      3.500      7.896
  Name = 
  4 active torsions:
  status: ('A' for Active; 'I' for Inactive)
    1  A    between atoms: C_6  and  C_31
    2  A    between atoms: C_11  and  C_26
    3  A    between atoms: C_17  and  C_26
    4  A    between atoms: C_26  and  N_33
                            x       y       z     vdW  Elec       q    Type
                         _______ _______ _______ _____ _____    ______ ____

>  <TORSDO>
F 4

$$$$
=
 OpenBabel10262422473D

 37 44  0  0  1  0  0  0  0  0999 V2000
  185.8070  175.3320  137.3290 O   0  0  0  0  0  0  0  0  0  0  0  0
  180.8280  173.1020  136.5310 C   0  0  0  0  0  3  0  0  0  0  0  0
  181.6170  177.1690  138.1090 N   0  0  0  0  0  0  0  0  0  0  0  0
  184.4670  179.4700  138.7280 C   0  0  0  0  0  2  0  0  0  0  0  0
  180.4440  175.0490  137.9960 C   0  0  0  0  0  0  0  0  0  0  0  0
  182.9890  177.6270  137.8740 C   0  0  1  0  0  3  0  0  0  0  0  0
  181.5440  175.7810  137.7980 C   0  0  0  0  0  0  0  0  0  0  0  0
  183.6160  178.2800  139.1230 C   0  0  1  0  0  0  0  0  0  0  0  0
  179.1980  175.7090  138.4890 C   0  0  0  0  0  2  0  0  0  0  0  0
  182.8270  175.3440  137.2610 C   0  0  0  0  0  0  0  0  0  0  0  0
  184.1900  174.3080  135.6200 O   0  0  0  0  0  1  0  0  0  0  0  0
  180.2430  178.4440  139.7050 C   0  0  0  0  0  2  0  0  0  0  0  0
  178.9310  177.2810  137.5970 S   0  0  0  0  0  0  0  0  0  0  0  0
  182.9960  174.3820  136.3230 C   0  0  0  0  0  0  0  0  0  0  0  0
  185.1380  178.2400  139.3170 C   0  0  1  0  0  3  0  0  0  0  0  0
  180.4580  178.0580  138.2500 C   0  0  2  0  0  3  0  0  0  0  0  0
  183.7380  176.4340  137.4610 N   0  0  0  0  0  0  0  0  0  0  0  0
  180.4850  173.5640  137.9040 C   0  0  0  0  0  2  0  0  0  0  0  0
  182.7650  178.4770  140.3940 C   0  0  2  0  0  3  0  0  0  0  0  0
  181.9390  173.4450  135.8790 C   0  0  0  0  0  3  0  0  0  0  0  0
  185.8260  177.4680  138.2820 N   0  0  0  0  0  0  0  0  0  0  0  0
  185.1570  176.3600  137.6570 C   0  0  0  0  0  0  0  0  0  0  0  0
  181.4400  179.7120  140.2120 S   0  0  0  0  0  0  0  0  0  0  0  0
  184.8740  178.3350  141.6910 C   0  0  0  0  0  3  0  0  0  0  0  0
  183.4870  178.5250  141.7170 C   0  0  0  0  0  0  0  0  0  0  0  0
  182.8490  178.7830  142.9540 C   0  0  0  0  0  0  0  0  0  0  0  0
  181.3790  179.0040  143.0650 C   0  0  0  0  0  1  0  0  0  0  0  0
  184.9900  178.6390  144.0860 C   0  0  0  0  0  3  0  0  0  0  0  0
  183.6090  178.8350  144.1270 C   0  0  0  0  0  3  0  0  0  0  0  0
  185.6230  178.3900  142.8680 C   0  0  0  0  0  3  0  0  0  0  0  0
  187.2640  177.7000  138.1300 C   0  0  1  0  0  3  0  0  0  0  0  0
  189.0670  178.6320  136.6990 C   0  0  0  0  0  2  0  0  0  0  0  0
  188.2340  177.8850  134.6070 O   0  0  0  0  0  1  0  0  0  0  0  0
  187.5730  178.4130  136.8210 C   0  0  1  0  0  3  0  0  0  0  0  0
  188.4050  177.5040  135.9370 C   0  0  2  0  0  3  0  0  0  0  0  0
  187.8260  178.4800  139.3130 C   0  0  0  0  0  2  0  0  0  0  0  0
  188.6910  177.5800  140.1740 C   0  0  0  0  0  1  0  0  0  0  0  0
  1 22  2  0  0  0  0
  2 18  1  0  0  0  0
  3 16  1  0  0  0  0
  5  9  1  0  0  0  0
  6 17  1  1  0  0  0
  6  3  1  0  0  0  0
  6  8  1  0  0  0  0
  7  5  2  0  0  0  0
  7  3  1  0  0  0  0
  8  4  1  6  0  0  0
  8 15  1  0  0  0  0
  8 19  1  0  0  0  0
 10 17  1  0  0  0  0
 10  7  1  0  0  0  0
 11 14  1  0  0  0  0
 12 23  1  0  0  0  0
 13 16  1  0  0  0  0
 13  9  1  0  0  0  0
 14 10  2  0  0  0  0
 15  4  1  6  0  0  0
 16 12  1  1  0  0  0
 17 22  1  0  0  0  0
 18  5  1  0  0  0  0
 19 25  1  1  0  0  0
 20 14  1  0  0  0  0
 20  2  2  0  0  0  0
 21 15  1  0  0  0  0
 22 21  1  0  0  0  0
 23 19  1  0  0  0  0
 24 25  2  0  0  0  0
 24 30  1  0  0  0  0
 25 26  1  0  0  0  0
 26 27  1  0  0  0  0
 26 29  2  0  0  0  0
 28 29  1  0  0  0  0
 30 28  2  0  0  0  0
 31 21  1  0  0  0  0
 31 36  1  1  0  0  0
 32 34  1  0  0  0  0
 34 31  1  1  0  0  0
 35 33  1  6  0  0  0
 35 32  1  0  0  0  0
 35 34  1  0  0  0  0
 36 37  1  0  0  0  0
M  END
>  <MODEL>
6

>  <REMARK>
 VINA RESULT:      -5.0      3.041      7.676
  Name = 
  4 active torsions:
  status: ('A' for Active; 'I' for Inactive)
    1  A    between atoms: C_6  and  C_31
    2  A    between atoms: C_11  and  C_26
    3  A    between atoms: C_17  and  C_26
    4  A    between atoms: C_26  and  N_33
                            x       y       z     vdW  Elec       q    Type
                         _______ _______ _______ _____ _____    ______ ____

>  <TORSDO>
F 4

$$$$
=
 OpenBabel10262422473D

 37 44  0  0  1  0  0  0  0  0999 V2000
  187.9230  173.8140  136.8470 O   0  0  0  0  0  0  0  0  0  0  0  0
  183.9100  170.1660  135.8480 C   0  0  0  0  0  3  0  0  0  0  0  0
  183.4790  174.5780  135.7470 N   0  0  0  0  0  0  0  0  0  0  0  0
  185.5600  177.6410  136.0380 C   0  0  0  0  0  2  0  0  0  0  0  0
  182.7590  172.3140  136.2360 C   0  0  0  0  0  0  0  0  0  0  0  0
  184.7610  175.2850  135.6880 C   0  0  1  0  0  3  0  0  0  0  0  0
  183.7330  173.2050  136.0290 C   0  0  0  0  0  0  0  0  0  0  0  0
  184.8240  176.4750  136.6680 C   0  0  1  0  0  0  0  0  0  0  0  0
  181.3330  172.7330  136.0910 C   0  0  0  0  0  2  0  0  0  0  0  0
  185.1730  172.9810  136.0530 C   0  0  0  0  0  0  0  0  0  0  0  0
  187.1500  171.8610  135.3740 O   0  0  0  0  0  1  0  0  0  0  0  0
  181.4700  175.8940  136.2850 C   0  0  0  0  0  2  0  0  0  0  0  0
  181.1350  173.7610  134.5940 S   0  0  0  0  0  0  0  0  0  0  0  0
  185.7940  171.8400  135.6680 C   0  0  0  0  0  0  0  0  0  0  0  0
  186.1810  176.9250  137.2270 C   0  0  1  0  0  3  0  0  0  0  0  0
  182.2150  175.1040  135.2200 C   0  0  2  0  0  3  0  0  0  0  0  0
  185.7820  174.2790  136.0010 N   0  0  0  0  0  0  0  0  0  0  0  0
  183.0610  170.9610  136.7780 C   0  0  0  0  0  2  0  0  0  0  0  0
  183.5790  176.8560  137.4930 C   0  0  2  0  0  3  0  0  0  0  0  0
  185.1070  170.5550  135.4070 C   0  0  0  0  0  3  0  0  0  0  0  0
  187.2870  176.0650  136.8060 N   0  0  0  0  0  0  0  0  0  0  0  0
  187.0480  174.6710  136.5510 C   0  0  0  0  0  0  0  0  0  0  0  0
  182.2140  177.5360  136.4990 S   0  0  0  0  0  0  0  0  0  0  0  0
  184.6810  178.6440  138.8120 C   0  0  0  0  0  3  0  0  0  0  0  0
  183.8020  177.5550  138.8110 C   0  0  0  0  0  0  0  0  0  0  0  0
  183.1510  177.1920  140.0150 C   0  0  0  0  0  0  0  0  0  0  0  0
  182.1950  176.0510  140.0950 C   0  0  0  0  0  1  0  0  0  0  0  0
  184.2840  179.0000  141.1700 C   0  0  0  0  0  3  0  0  0  0  0  0
  183.4010  177.9190  141.1830 C   0  0  0  0  0  3  0  0  0  0  0  0
  184.9230  179.3630  139.9840 C   0  0  0  0  0  3  0  0  0  0  0  0
  188.6380  176.6160  136.9280 C   0  0  1  0  0  3  0  0  0  0  0  0
  190.6540  176.8490  138.3590 C   0  0  0  0  0  2  0  0  0  0  0  0
  189.5410  177.2590  140.4150 O   0  0  0  0  0  1  0  0  0  0  0  0
  189.2550  176.2750  138.2780 C   0  0  1  0  0  3  0  0  0  0  0  0
  189.5080  177.5530  139.0530 C   0  0  2  0  0  3  0  0  0  0  0  0
  189.5340  176.1370  135.7920 C   0  0  0  0  0  2  0  0  0  0  0  0
  189.4370  177.0840  134.6100 C   0  0  0  0  0  1  0  0  0  0  0  0
  2 18  1  0  0  0  0
  3  7  1  0  0  0  0
  5 18  1  0  0  0  0
  6  3  1  1  0  0  0
  6 17  1  0  0  0  0
  6  8  1  0  0  0  0
  7 10  1  0  0  0  0
  7  5  2  0  0  0  0
  8  4  1  6  0  0  0
  8 15  1  0  0  0  0
  8 19  1  0  0  0  0
  9  5  1  0  0  0  0
 11 14  1  0  0  0  0
 12 23  1  0  0  0  0
 13 16  1  0  0  0  0
 13  9  1  0  0  0  0
 14 10  2  0  0  0  0
 15  4  1  6  0  0  0
 16  3  1  0  0  0  0
 16 12  1  1  0  0  0
 17 10  1  0  0  0  0
 17 22  1  0  0  0  0
 19 25  1  1  0  0  0
 20 14  1  0  0  0  0
 20  2  2  0  0  0  0
 21 31  1  0  0  0  0
 21 15  1  0  0  0  0
 22 21  1  0  0  0  0
 22  1  2  0  0  0  0
 23 19  1  0  0  0  0
 24 30  1  0  0  0  0
 25 24  2  0  0  0  0
 25 26  1  0  0  0  0
 26 27  1  0  0  0  0
 26 29  2  0  0  0  0
 28 29  1  0  0  0  0
 30 28  2  0  0  0  0
 31 36  1  6  0  0  0
 32 35  1  0  0  0  0
 34 31  1  6  0  0  0
 34 32  1  0  0  0  0
 34 35  1  0  0  0  0
 35 33  1  1  0  0  0
 37 36  1  0  0  0  0
M  END
>  <MODEL>
7

>  <REMARK>
 VINA RESULT:      -4.9      3.256      7.635
  Name = 
  4 active torsions:
  status: ('A' for Active; 'I' for Inactive)
    1  A    between atoms: C_6  and  C_31
    2  A    between atoms: C_11  and  C_26
    3  A    between atoms: C_17  and  C_26
    4  A    between atoms: C_26  and  N_33
                            x       y       z     vdW  Elec       q    Type
                         _______ _______ _______ _____ _____    ______ ____

>  <TORSDO>
F 4

$$$$
=
 OpenBabel10262422473D

 37 44  0  0  1  0  0  0  0  0999 V2000
  185.8860  178.1200  141.6680 O   0  0  0  0  0  0  0  0  0  0  0  0
  190.6630  177.0010  139.1510 C   0  0  0  0  0  3  0  0  0  0  0  0
  186.7890  177.7530  137.1310 N   0  0  0  0  0  0  0  0  0  0  0  0
  183.3080  178.7570  137.9500 C   0  0  0  0  0  2  0  0  0  0  0  0
  188.9230  176.6430  137.4400 C   0  0  0  0  0  0  0  0  0  0  0  0
  185.7910  178.3760  138.0040 C   0  0  1  0  0  3  0  0  0  0  0  0
  187.8880  177.3300  137.9320 C   0  0  0  0  0  0  0  0  0  0  0  0
  184.4030  177.7120  137.8810 C   0  0  1  0  0  0  0  0  0  0  0  0
  188.9940  176.3650  135.9740 C   0  0  0  0  0  2  0  0  0  0  0  0
  187.6700  177.7590  139.3080 C   0  0  0  0  0  0  0  0  0  0  0  0
  188.3170  178.8560  141.3080 O   0  0  0  0  0  1  0  0  0  0  0  0
  186.0130  176.8120  134.9930 C   0  0  0  0  0  2  0  0  0  0  0  0
  188.5440  177.8650  135.0330 S   0  0  0  0  0  0  0  0  0  0  0  0
  188.6430  178.1170  140.1790 C   0  0  0  0  0  0  0  0  0  0  0  0
  183.4390  177.7430  139.0750 C   0  0  1  0  0  3  0  0  0  0  0  0
  186.8260  177.9030  135.6710 C   0  0  2  0  0  3  0  0  0  0  0  0
  186.3240  178.2530  139.3650 N   0  0  0  0  0  0  0  0  0  0  0  0
  189.9150  175.9990  138.3440 C   0  0  0  0  0  2  0  0  0  0  0  0
  184.1770  176.5960  136.8420 C   0  0  2  0  0  3  0  0  0  0  0  0
  190.0900  177.8880  139.9650 C   0  0  0  0  0  3  0  0  0  0  0  0
  184.0270  178.3520  140.2680 N   0  0  0  0  0  0  0  0  0  0  0  0
  185.4420  178.2510  140.4970 C   0  0  0  0  0  0  0  0  0  0  0  0
  184.2370  177.1690  135.1150 S   0  0  0  0  0  0  0  0  0  0  0  0
  181.7700  176.0230  137.0160 C   0  0  0  0  0  3  0  0  0  0  0  0
  183.0950  175.5850  137.1290 C   0  0  0  0  0  0  0  0  0  0  0  0
  183.3480  174.2330  137.4630 C   0  0  0  0  0  0  0  0  0  0  0  0
  184.7290  173.6860  137.5930 C   0  0  0  0  0  1  0  0  0  0  0  0
  180.9610  173.8140  137.5720 C   0  0  0  0  0  3  0  0  0  0  0  0
  182.2760  173.3610  137.6830 C   0  0  0  0  0  3  0  0  0  0  0  0
  180.7080  175.1450  137.2380 C   0  0  0  0  0  3  0  0  0  0  0  0
  183.0980  178.8020  141.3080 C   0  0  1  0  0  3  0  0  0  0  0  0
  180.7370  178.8980  142.0690 C   0  0  0  0  0  2  0  0  0  0  0  0
  179.7440  179.3920  139.9710 O   0  0  0  0  0  1  0  0  0  0  0  0
  181.6630  178.4230  140.9690 C   0  0  1  0  0  3  0  0  0  0  0  0
  180.8410  179.6830  140.7790 C   0  0  2  0  0  3  0  0  0  0  0  0
  183.4910  178.2530  142.6740 C   0  0  0  0  0  2  0  0  0  0  0  0
  183.6510  179.3850  143.6710 C   0  0  0  0  0  1  0  0  0  0  0  0
  2 20  2  0  0  0  0
  3  7  1  0  0  0  0
  5  7  2  0  0  0  0
  5 18  1  0  0  0  0
  6  3  1  6  0  0  0
  6 17  1  0  0  0  0
  7 10  1  0  0  0  0
  8  4  1  6  0  0  0
  8  6  1  0  0  0  0
  8 15  1  0  0  0  0
  9  5  1  0  0  0  0
 10 17  1  0  0  0  0
 10 14  2  0  0  0  0
 12 23  1  0  0  0  0
 13 16  1  0  0  0  0
 13  9  1  0  0  0  0
 14 11  1  0  0  0  0
 15  4  1  6  0  0  0
 15 21  1  0  0  0  0
 16 12  1  6  0  0  0
 16  3  1  0  0  0  0
 17 22  1  0  0  0  0
 18  2  1  0  0  0  0
 19 25  1  1  0  0  0
 19  8  1  0  0  0  0
 20 14  1  0  0  0  0
 21 22  1  0  0  0  0
 21 31  1  0  0  0  0
 22  1  2  0  0  0  0
 23 19  1  0  0  0  0
 24 25  2  0  0  0  0
 24 30  1  0  0  0  0
 25 26  1  0  0  0  0
 26 27  1  0  0  0  0
 26 29  2  0  0  0  0
 28 29  1  0  0  0  0
 30 28  2  0  0  0  0
 31 36  1  1  0  0  0
 34 31  1  1  0  0  0
 34 32  1  0  0  0  0
 35 33  1  6  0  0  0
 35 34  1  0  0  0  0
 35 32  1  0  0  0  0
 36 37  1  0  0  0  0
M  END
>  <MODEL>
8

>  <REMARK>
 VINA RESULT:      -4.9      1.569      2.254
  Name = 
  4 active torsions:
  status: ('A' for Active; 'I' for Inactive)
    1  A    between atoms: C_6  and  C_31
    2  A    between atoms: C_11  and  C_26
    3  A    between atoms: C_17  and  C_26
    4  A    between atoms: C_26  and  N_33
                            x       y       z     vdW  Elec       q    Type
                         _______ _______ _______ _____ _____    ______ ____

>  <TORSDO>
F 4

$$$$
=
 OpenBabel10262422473D

 37 44  0  0  1  0  0  0  0  0999 V2000
  182.5190  178.2260  141.4680 O   0  0  0  0  0  0  0  0  0  0  0  0
  186.5910  177.4780  145.1090 C   0  0  0  0  0  3  0  0  0  0  0  0
  187.1090  178.3580  140.7950 N   0  0  0  0  0  0  0  0  0  0  0  0
  185.0710  179.1970  137.8040 C   0  0  0  0  0  2  0  0  0  0  0  0
  187.6510  177.2660  142.8910 C   0  0  0  0  0  0  0  0  0  0  0  0
  185.8910  178.8640  140.1550 C   0  0  1  0  0  3  0  0  0  0  0  0
  186.7710  177.8750  142.0910 C   0  0  0  0  0  0  0  0  0  0  0  0
  185.6130  178.1880  138.7970 C   0  0  1  0  0  0  0  0  0  0  0  0
  189.0770  177.1450  142.4630 C   0  0  0  0  0  2  0  0  0  0  0  0
  185.3640  178.1530  142.3530 C   0  0  0  0  0  0  0  0  0  0  0  0
  183.5910  179.0460  143.6490 O   0  0  0  0  0  1  0  0  0  0  0  0
  188.9510  177.6300  139.3330 C   0  0  0  0  0  2  0  0  0  0  0  0
  189.6480  178.7260  141.7480 S   0  0  0  0  0  0  0  0  0  0  0  0
  184.8350  178.4370  143.5670 C   0  0  0  0  0  0  0  0  0  0  0  0
  184.1690  178.0730  138.2880 C   0  0  1  0  0  3  0  0  0  0  0  0
  188.4720  178.6610  140.3430 C   0  0  2  0  0  3  0  0  0  0  0  0
  184.8080  178.6090  141.1110 N   0  0  0  0  0  0  0  0  0  0  0  0
  187.2040  176.5500  144.1180 C   0  0  0  0  0  2  0  0  0  0  0  0
  186.6280  177.1830  138.2180 C   0  0  2  0  0  3  0  0  0  0  0  0
  185.5430  178.2620  144.8550 C   0  0  0  0  0  3  0  0  0  0  0  0
  183.1830  178.5650  139.2510 N   0  0  0  0  0  0  0  0  0  0  0  0
  183.4530  178.4700  140.6590 C   0  0  0  0  0  0  0  0  0  0  0  0
  188.2050  177.9360  137.7060 S   0  0  0  0  0  0  0  0  0  0  0  0
  185.7690  174.8880  137.8400 C   0  0  0  0  0  3  0  0  0  0  0  0
  186.1060  176.1250  137.2790 C   0  0  0  0  0  0  0  0  0  0  0  0
  185.9090  176.3300  135.8920 C   0  0  0  0  0  0  0  0  0  0  0  0
  186.2350  177.6210  135.2200 C   0  0  0  0  0  1  0  0  0  0  0  0
  185.0650  174.0650  135.6780 C   0  0  0  0  0  3  0  0  0  0  0  0
  185.3920  175.2950  135.1050 C   0  0  0  0  0  3  0  0  0  0  0  0
  185.2530  173.8620  137.0460 C   0  0  0  0  0  3  0  0  0  0  0  0
  181.8520  178.8840  138.7300 C   0  0  1  0  0  3  0  0  0  0  0  0
  180.2440  180.7220  138.2810 C   0  0  0  0  0  2  0  0  0  0  0  0
  179.8490  181.3590  140.5330 O   0  0  0  0  0  1  0  0  0  0  0  0
  181.4280  180.2930  139.1230 C   0  0  1  0  0  3  0  0  0  0  0  0
  180.0280  180.2530  139.7040 C   0  0  2  0  0  3  0  0  0  0  0  0
  181.7950  178.7080  137.2170 C   0  0  0  0  0  2  0  0  0  0  0  0
  180.7530  177.6690  136.8480 C   0  0  0  0  0  1  0  0  0  0  0  0
  3  7  1  0  0  0  0
  5 18  1  0  0  0  0
  6  3  1  1  0  0  0
  6 17  1  0  0  0  0
  7 10  1  0  0  0  0
  7  5  2  0  0  0  0
  8  4  1  6  0  0  0
  8  6  1  0  0  0  0
  9  5  1  0  0  0  0
 10 14  2  0  0  0  0
 13  9  1  0  0  0  0
 14 11  1  0  0  0  0
 14 20  1  0  0  0  0
 15  4  1  6  0  0  0
 15  8  1  0  0  0  0
 15 21  1  0  0  0  0
 16 12  1  6  0  0  0
 16  3  1  0  0  0  0
 16 13  1  0  0  0  0
 17 10  1  0  0  0  0
 18  2  1  0  0  0  0
 19 25  1  6  0  0  0
 19  8  1  0  0  0  0
 20  2  2  0  0  0  0
 21 22  1  0  0  0  0
 22 17  1  0  0  0  0
 22  1  2  0  0  0  0
 23 19  1  0  0  0  0
 23 12  1  0  0  0  0
 25 24  1  0  0  0  0
 26 25  2  0  0  0  0
 27 26  1  0  0  0  0
 28 30  1  0  0  0  0
 29 28  2  0  0  0  0
 29 26  1  0  0  0  0
 30 24  2  0  0  0  0
 31 36  1  6  0  0  0
 31 21  1  0  0  0  0
 32 34  1  0  0  0  0
 32 35  1  0  0  0  0
 34 31  1  6  0  0  0
 34 35  1  0  0  0  0
 35 33  1  1  0  0  0
 37 36  1  0  0  0  0
M  END
>  <MODEL>
9

>  <REMARK>
 VINA RESULT:      -4.8      1.942      3.122
  Name = 
  4 active torsions:
  status: ('A' for Active; 'I' for Inactive)
    1  A    between atoms: C_6  and  C_31
    2  A    between atoms: C_11  and  C_26
    3  A    between atoms: C_17  and  C_26
    4  A    between atoms: C_26  and  N_33
                            x       y       z     vdW  Elec       q    Type
                         _______ _______ _______ _____ _____    ______ ____

>  <TORSDO>
F 4

$$$$
