=
 OpenBabel10262422373D

 43 48  0  0  1  0  0  0  0  0999 V2000
  186.5760  178.1950  146.3070 C   0  0  0  0  0  0  0  0  0  0  0  0
  183.2370  178.6370  142.4770 C   0  0  0  0  0  0  0  0  0  0  0  0
  185.4210  178.2560  141.2940 C   0  0  0  0  0  3  0  0  0  0  0  0
  184.5720  178.6090  144.9600 C   0  0  0  0  0  0  0  0  0  0  0  0
  187.3130  177.8890  145.2410 C   0  0  0  0  0  3  0  0  0  0  0  0
  187.1800  178.1310  147.6640 C   0  0  0  0  0  1  0  0  0  0  0  0
  185.2820  178.2810  143.7820 C   0  0  0  0  0  0  0  0  0  0  0  0
  185.1660  178.5830  146.1560 C   0  0  0  0  0  3  0  0  0  0  0  0
  186.7610  177.9500  143.8420 C   0  0  0  0  0  3  0  0  0  0  0  0
  184.8760  178.1120  140.0860 C   0  0  0  0  0  0  0  0  0  0  0  0
  184.6180  178.3130  142.5350 C   0  0  0  0  0  0  0  0  0  0  0  0
  182.5750  179.0030  143.6600 C   0  0  0  0  0  3  0  0  0  0  0  0
  182.5670  178.6280  141.3040 C   0  0  1  0  0  3  0  0  0  0  0  0
  183.1580  177.6430  139.9210 S   0  0  0  0  0  0  0  0  0  0  0  0
  183.2320  178.9840  144.8860 C   0  0  0  0  0  3  0  0  0  0  0  0
  185.7140  178.2200  138.8490 C   0  0  1  0  0  3  0  0  0  0  0  0
  185.4090  179.3990  138.1680 O   0  0  0  0  0  1  0  0  0  0  0  0
  187.2050  178.1800  139.1610 C   0  0  0  0  0  2  0  0  0  0  0  0
  188.0910  178.0080  136.6240 O   0  0  0  0  0  0  0  0  0  0  0  0
  188.1070  177.2570  137.9260 S   0  0  0  0  0  0  0  0  0  0  0  0
  187.4390  175.9220  137.7450 O   0  0  0  0  0  0  0  0  0  0  0  0
  189.7560  177.0220  138.4400 N   0  0  0  0  0  0  0  0  0  0  0  0
  190.1340  177.2670  139.8070 C   0  0  0  0  0  0  0  0  0  0  0  0
  191.3340  177.5250  140.0950 O   0  0  0  0  0  0  0  0  0  0  0  0
  191.6870  175.6200  137.9010 C   0  0  0  0  0  2  0  0  0  0  0  0
  190.7870  176.7530  137.4350 C   0  0  0  0  0  3  0  0  0  0  0  0
  190.6190  175.3500  136.8700 C   0  0  0  0  0  2  0  0  0  0  0  0
  189.1370  177.1570  140.9150 C   0  0  0  0  0  2  0  0  0  0  0  0
  189.8260  177.1980  142.2370 C   0  0  0  0  0  0  0  0  0  0  0  0
  190.7590  178.4670  144.0800 C   0  0  0  0  0  3  0  0  0  0  0  0
  190.9260  176.0510  144.0680 C   0  0  0  0  0  3  0  0  0  0  0  0
  191.1790  177.2790  144.6860 C   0  0  0  0  0  3  0  0  0  0  0  0
  190.2520  176.0110  142.8430 C   0  0  0  0  0  3  0  0  0  0  0  0
  190.0830  178.4280  142.8560 C   0  0  0  0  0  3  0  0  0  0  0  0
  181.1970  179.2240  141.1640 C   0  0  0  0  0  2  0  0  0  0  0  0
  179.0610  179.5940  138.1490 C   0  0  0  0  0  2  0  0  0  0  0  0
  179.5160  180.9900  137.7300 C   0  0  1  0  0  3  0  0  0  0  0  0
  181.2920  180.8380  139.4730 C   0  0  0  0  0  2  0  0  0  0  0  0
  179.4490  179.3470  139.6050 C   0  0  0  0  0  2  0  0  0  0  0  0
  180.8990  179.4580  139.7600 N   0  0  0  0  0  0  0  0  0  0  0  0
  181.0070  181.1660  138.0090 C   0  0  0  0  0  2  0  0  0  0  0  0
  180.4930  180.8670  135.6140 C   0  0  0  0  0  1  0  0  0  0  0  0
  179.2590  181.1840  136.3150 N   0  0  0  0  0  2  0  0  0  0  0  0
  1  6  1  0  0  0  0
  2 11  2  0  0  0  0
  2 12  1  0  0  0  0
  3 11  1  0  0  0  0
  4  8  2  0  0  0  0
  5  1  2  0  0  0  0
  7  9  2  0  0  0  0
  7  4  1  0  0  0  0
  8  1  1  0  0  0  0
  9  5  1  0  0  0  0
 10  3  2  0  0  0  0
 11  7  1  0  0  0  0
 12 15  2  0  0  0  0
 13 35  1  1  0  0  0
 13  2  1  0  0  0  0
 14 10  1  0  0  0  0
 14 13  1  0  0  0  0
 15  4  1  0  0  0  0
 16 17  1  1  0  0  0
 16 18  1  0  0  0  0
 16 10  1  0  0  0  0
 19 20  2  0  0  0  0
 20 22  1  0  0  0  0
 20 18  1  0  0  0  0
 21 20  2  0  0  0  0
 22 23  1  0  0  0  0
 23 24  2  0  0  0  0
 23 28  1  0  0  0  0
 26 25  1  0  0  0  0
 26 22  1  0  0  0  0
 27 26  1  0  0  0  0
 27 25  1  0  0  0  0
 28 29  1  0  0  0  0
 29 33  2  0  0  0  0
 29 34  1  0  0  0  0
 30 32  1  0  0  0  0
 31 32  2  0  0  0  0
 33 31  1  0  0  0  0
 34 30  2  0  0  0  0
 36 39  1  0  0  0  0
 37 43  1  6  0  0  0
 37 41  1  0  0  0  0
 37 36  1  0  0  0  0
 38 40  1  0  0  0  0
 39 40  1  0  0  0  0
 40 35  1  0  0  0  0
 41 38  1  0  0  0  0
 42 43  1  0  0  0  0
M  END
>  <MODEL>
1

>  <REMARK>
 VINA RESULT:      -9.2      0.000      0.000
  Name = 
  10 active torsions:
  status: ('A' for Active; 'I' for Inactive)
    1  A    between atoms: C_1  and  C_34
    2  A    between atoms: C_1  and  N_35
    3  A    between atoms: C_2  and  C_6
    4  A    between atoms: C_2  and  C_27
    5  A    between atoms: N_4  and  S_12
    6  A    between atoms: N_4  and  C_15
    7  A    between atoms: C_6  and  S_12
    8  A    between atoms: C_11  and  C_14
    9  A    between atoms: C_14  and  C_22
   10  A    between atoms: C_19  and  N_37
                            x       y       z     vdW  Elec       q    Type
                         _______ _______ _______ _____ _____    ______ ____

>  <TORSDO>
F 10

$$$$
=
 OpenBabel10262422373D

 43 48  0  0  1  0  0  0  0  0999 V2000
  185.1720  178.5100  145.3350 C   0  0  0  0  0  0  0  0  0  0  0  0
  182.2560  178.6180  141.1510 C   0  0  0  0  0  0  0  0  0  0  0  0
  184.5640  178.2350  140.2340 C   0  0  0  0  0  3  0  0  0  0  0  0
  183.3160  178.7800  143.7590 C   0  0  0  0  0  0  0  0  0  0  0  0
  186.0270  178.1630  144.3740 C   0  0  0  0  0  3  0  0  0  0  0  0
  185.6270  178.5450  146.7490 C   0  0  0  0  0  1  0  0  0  0  0  0
  184.1560  178.4040  142.6860 C   0  0  0  0  0  0  0  0  0  0  0  0
  183.7770  178.8430  145.0110 C   0  0  0  0  0  3  0  0  0  0  0  0
  185.6280  178.1230  142.9230 C   0  0  0  0  0  3  0  0  0  0  0  0
  184.1560  178.0030  138.9850 C   0  0  0  0  0  0  0  0  0  0  0  0
  183.6310  178.3410  141.3760 C   0  0  0  0  0  0  0  0  0  0  0  0
  181.4620  179.0330  142.2320 C   0  0  0  0  0  3  0  0  0  0  0  0
  181.7170  178.5190  139.9170 C   0  0  1  0  0  3  0  0  0  0  0  0
  182.4780  177.4720  138.6680 S   0  0  0  0  0  0  0  0  0  0  0  0
  181.9830  179.1080  143.5200 C   0  0  0  0  0  3  0  0  0  0  0  0
  185.1200  178.0620  137.8400 C   0  0  1  0  0  3  0  0  0  0  0  0
  185.9620  179.1650  137.9840 O   0  0  0  0  0  1  0  0  0  0  0  0
  185.9540  176.7920  137.7260 C   0  0  0  0  0  2  0  0  0  0  0  0
  186.7630  177.9920  135.4560 O   0  0  0  0  0  0  0  0  0  0  0  0
  186.6960  176.6400  136.1080 S   0  0  0  0  0  0  0  0  0  0  0  0
  185.8420  175.7220  135.2770 O   0  0  0  0  0  0  0  0  0  0  0  0
  188.3030  175.9800  136.2460 N   0  0  0  0  0  0  0  0  0  0  0  0
  189.4150  176.8340  136.5710 C   0  0  0  0  0  0  0  0  0  0  0  0
  190.5870  176.4940  136.2560 O   0  0  0  0  0  0  0  0  0  0  0  0
  189.3570  173.8770  136.9190 C   0  0  0  0  0  2  0  0  0  0  0  0
  188.5420  174.5900  135.8510 C   0  0  0  0  0  3  0  0  0  0  0  0
  187.8690  173.6400  136.8310 C   0  0  0  0  0  2  0  0  0  0  0  0
  189.2170  178.1020  137.3380 C   0  0  0  0  0  2  0  0  0  0  0  0
  189.4120  177.8600  138.7960 C   0  0  0  0  0  0  0  0  0  0  0  0
  190.6320  176.8010  140.6050 C   0  0  0  0  0  3  0  0  0  0  0  0
  188.6800  178.1510  141.0890 C   0  0  0  0  0  3  0  0  0  0  0  0
  189.7370  177.3500  141.5300 C   0  0  0  0  0  3  0  0  0  0  0  0
  188.5160  178.4030  139.7240 C   0  0  0  0  0  3  0  0  0  0  0  0
  190.4690  177.0550  139.2390 C   0  0  0  0  0  3  0  0  0  0  0  0
  180.3560  179.0620  139.5950 C   0  0  0  0  0  2  0  0  0  0  0  0
  181.4460  182.2740  138.0840 C   0  0  0  0  0  2  0  0  0  0  0  0
  180.0650  182.8430  137.7630 C   0  0  1  0  0  3  0  0  0  0  0  0
  179.0830  180.9470  139.0490 C   0  0  0  0  0  2  0  0  0  0  0  0
  181.3350  180.7700  138.3190 C   0  0  0  0  0  2  0  0  0  0  0  0
  180.4240  180.5050  139.4320 N   0  0  0  0  0  0  0  0  0  0  0  0
  179.0690  182.4620  138.8560 C   0  0  0  0  0  2  0  0  0  0  0  0
  181.0200  184.5840  136.5380 C   0  0  0  0  0  1  0  0  0  0  0  0
  180.1440  184.2890  137.6590 N   0  0  0  0  0  2  0  0  0  0  0  0
  1  6  1  0  0  0  0
  2 11  2  0  0  0  0
  2 12  1  0  0  0  0
  3 11  1  0  0  0  0
  4  8  2  0  0  0  0
  5  1  2  0  0  0  0
  7  9  2  0  0  0  0
  7  4  1  0  0  0  0
  8  1  1  0  0  0  0
  9  5  1  0  0  0  0
 10  3  2  0  0  0  0
 11  7  1  0  0  0  0
 12 15  2  0  0  0  0
 13 35  1  1  0  0  0
 13  2  1  0  0  0  0
 14 10  1  0  0  0  0
 14 13  1  0  0  0  0
 15  4  1  0  0  0  0
 16 17  1  1  0  0  0
 16 10  1  0  0  0  0
 18 16  1  0  0  0  0
 19 20  2  0  0  0  0
 20 22  1  0  0  0  0
 20 18  1  0  0  0  0
 21 20  2  0  0  0  0
 22 23  1  0  0  0  0
 23 28  1  0  0  0  0
 24 23  2  0  0  0  0
 26 22  1  0  0  0  0
 26 27  1  0  0  0  0
 26 25  1  0  0  0  0
 27 25  1  0  0  0  0
 28 29  1  0  0  0  0
 29 34  2  0  0  0  0
 29 33  1  0  0  0  0
 30 32  2  0  0  0  0
 31 32  1  0  0  0  0
 33 31  2  0  0  0  0
 34 30  1  0  0  0  0
 36 39  1  0  0  0  0
 37 43  1  1  0  0  0
 37 36  1  0  0  0  0
 37 41  1  0  0  0  0
 38 40  1  0  0  0  0
 39 40  1  0  0  0  0
 40 35  1  0  0  0  0
 41 38  1  0  0  0  0
 42 43  1  0  0  0  0
M  END
>  <MODEL>
2

>  <REMARK>
 VINA RESULT:      -8.6      1.816      2.660
  Name = 
  10 active torsions:
  status: ('A' for Active; 'I' for Inactive)
    1  A    between atoms: C_1  and  C_34
    2  A    between atoms: C_1  and  N_35
    3  A    between atoms: C_2  and  C_6
    4  A    between atoms: C_2  and  C_27
    5  A    between atoms: N_4  and  S_12
    6  A    between atoms: N_4  and  C_15
    7  A    between atoms: C_6  and  S_12
    8  A    between atoms: C_11  and  C_14
    9  A    between atoms: C_14  and  C_22
   10  A    between atoms: C_19  and  N_37
                            x       y       z     vdW  Elec       q    Type
                         _______ _______ _______ _____ _____    ______ ____

>  <TORSDO>
F 10

$$$$
=
 OpenBabel10262422373D

 43 48  0  0  1  0  0  0  0  0999 V2000
  187.8570  177.9260  147.6360 C   0  0  0  0  0  0  0  0  0  0  0  0
  187.9870  177.8210  142.5380 C   0  0  0  0  0  0  0  0  0  0  0  0
  185.5350  178.0230  143.0460 C   0  0  0  0  0  3  0  0  0  0  0  0
  188.5540  177.7040  145.2980 C   0  0  0  0  0  0  0  0  0  0  0  0
  186.5920  178.1780  147.3060 C   0  0  0  0  0  3  0  0  0  0  0  0
  188.2600  177.9220  149.0670 C   0  0  0  0  0  1  0  0  0  0  0  0
  187.2360  177.9820  144.8660 C   0  0  0  0  0  0  0  0  0  0  0  0
  188.8640  177.6650  146.5960 C   0  0  0  0  0  3  0  0  0  0  0  0
  186.1220  178.1820  145.8770 C   0  0  0  0  0  3  0  0  0  0  0  0
  185.1700  178.2270  141.7800 C   0  0  0  0  0  0  0  0  0  0  0  0
  186.9470  178.0230  143.4840 C   0  0  0  0  0  0  0  0  0  0  0  0
  189.2740  177.5010  143.0010 C   0  0  0  0  0  3  0  0  0  0  0  0
  187.7490  177.9020  141.2110 C   0  0  1  0  0  3  0  0  0  0  0  0
  186.3520  178.8470  140.5890 S   0  0  0  0  0  0  0  0  0  0  0  0
  189.5550  177.4480  144.3630 C   0  0  0  0  0  3  0  0  0  0  0  0
  183.7420  178.0610  141.3570 C   0  0  1  0  0  3  0  0  0  0  0  0
  182.9060  178.7770  142.2140 O   0  0  0  0  0  1  0  0  0  0  0  0
  183.5140  178.5170  139.9200 C   0  0  0  0  0  2  0  0  0  0  0  0
  180.9040  179.0790  139.5670 O   0  0  0  0  0  0  0  0  0  0  0  0
  181.9150  177.9950  139.3160 S   0  0  0  0  0  0  0  0  0  0  0  0
  181.5100  176.7490  140.0540 O   0  0  0  0  0  0  0  0  0  0  0  0
  182.0000  177.6640  137.6080 N   0  0  0  0  0  0  0  0  0  0  0  0
  183.1470  176.9950  137.0510 C   0  0  0  0  0  0  0  0  0  0  0  0
  183.4290  177.1310  135.8310 O   0  0  0  0  0  0  0  0  0  0  0  0
  180.4720  177.1660  135.7620 C   0  0  0  0  0  2  0  0  0  0  0  0
  180.9850  178.2320  136.7170 C   0  0  0  0  0  3  0  0  0  0  0  0
  179.6390  177.5630  136.9560 C   0  0  0  0  0  2  0  0  0  0  0  0
  183.9850  176.0790  137.8850 C   0  0  0  0  0  2  0  0  0  0  0  0
  183.6890  174.6580  137.5470 C   0  0  0  0  0  0  0  0  0  0  0  0
  182.0950  172.9220  136.9780 C   0  0  0  0  0  3  0  0  0  0  0  0
  184.4350  172.3680  137.2650 C   0  0  0  0  0  3  0  0  0  0  0  0
  183.1250  171.9750  136.9780 C   0  0  0  0  0  3  0  0  0  0  0  0
  184.7170  173.7070  137.5510 C   0  0  0  0  0  3  0  0  0  0  0  0
  182.3770  174.2620  137.2630 C   0  0  0  0  0  3  0  0  0  0  0  0
  188.7430  177.4290  140.1920 C   0  0  0  0  0  2  0  0  0  0  0  0
  188.7240  178.8540  136.7630 C   0  0  0  0  0  2  0  0  0  0  0  0
  188.6100  177.5450  135.9840 C   0  0  1  0  0  3  0  0  0  0  0  0
  188.2390  176.3860  138.1600 C   0  0  0  0  0  2  0  0  0  0  0  0
  189.1900  178.5610  138.1870 C   0  0  0  0  0  2  0  0  0  0  0  0
  188.2360  177.6740  138.8520 N   0  0  0  0  0  0  0  0  0  0  0  0
  187.7180  176.5580  136.7350 C   0  0  0  0  0  2  0  0  0  0  0  0
  186.7130  177.2390  134.6610 C   0  0  0  0  0  1  0  0  0  0  0  0
  188.0510  177.8040  134.6700 N   0  0  0  0  0  2  0  0  0  0  0  0
  1  6  1  0  0  0  0
  2 12  2  0  0  0  0
  2 11  1  0  0  0  0
  3 11  1  0  0  0  0
  4  8  1  0  0  0  0
  5  1  1  0  0  0  0
  7  4  1  0  0  0  0
  7  9  1  0  0  0  0
  8  1  2  0  0  0  0
  9  5  2  0  0  0  0
 10  3  2  0  0  0  0
 11  7  2  0  0  0  0
 12 15  1  0  0  0  0
 13 35  1  6  0  0  0
 13  2  1  0  0  0  0
 14 13  1  0  0  0  0
 14 10  1  0  0  0  0
 15  4  2  0  0  0  0
 16 10  1  0  0  0  0
 16 17  1  1  0  0  0
 18 16  1  0  0  0  0
 20 19  2  0  0  0  0
 20 18  1  0  0  0  0
 20 21  2  0  0  0  0
 22 20  1  0  0  0  0
 23 22  1  0  0  0  0
 23 28  1  0  0  0  0
 24 23  2  0  0  0  0
 25 26  1  0  0  0  0
 25 27  1  0  0  0  0
 26 27  1  0  0  0  0
 26 22  1  0  0  0  0
 29 33  1  0  0  0  0
 29 28  1  0  0  0  0
 30 34  1  0  0  0  0
 31 33  2  0  0  0  0
 32 30  2  0  0  0  0
 32 31  1  0  0  0  0
 34 29  2  0  0  0  0
 36 39  1  0  0  0  0
 37 43  1  6  0  0  0
 37 41  1  0  0  0  0
 37 36  1  0  0  0  0
 38 40  1  0  0  0  0
 39 40  1  0  0  0  0
 40 35  1  0  0  0  0
 41 38  1  0  0  0  0
 42 43  1  0  0  0  0
M  END
>  <MODEL>
3

>  <REMARK>
 VINA RESULT:      -8.5      3.267      7.380
  Name = 
  10 active torsions:
  status: ('A' for Active; 'I' for Inactive)
    1  A    between atoms: C_1  and  C_34
    2  A    between atoms: C_1  and  N_35
    3  A    between atoms: C_2  and  C_6
    4  A    between atoms: C_2  and  C_27
    5  A    between atoms: N_4  and  S_12
    6  A    between atoms: N_4  and  C_15
    7  A    between atoms: C_6  and  S_12
    8  A    between atoms: C_11  and  C_14
    9  A    between atoms: C_14  and  C_22
   10  A    between atoms: C_19  and  N_37
                            x       y       z     vdW  Elec       q    Type
                         _______ _______ _______ _____ _____    ______ ____

>  <TORSDO>
F 10

$$$$
=
 OpenBabel10262422373D

 43 48  0  0  1  0  0  0  0  0999 V2000
  187.8560  177.9250  147.6120 C   0  0  0  0  0  0  0  0  0  0  0  0
  187.9360  177.8330  142.5120 C   0  0  0  0  0  0  0  0  0  0  0  0
  185.4980  178.1240  143.0430 C   0  0  0  0  0  3  0  0  0  0  0  0
  188.5230  177.6860  145.2660 C   0  0  0  0  0  0  0  0  0  0  0  0
  186.5970  178.2260  147.2940 C   0  0  0  0  0  3  0  0  0  0  0  0
  188.2710  177.9020  149.0390 C   0  0  0  0  0  1  0  0  0  0  0  0
  187.2120  178.0140  144.8480 C   0  0  0  0  0  0  0  0  0  0  0  0
  188.8430  177.6310  146.5610 C   0  0  0  0  0  3  0  0  0  0  0  0
  186.1150  178.2510  145.8690 C   0  0  0  0  0  3  0  0  0  0  0  0
  185.1290  178.3460  141.7810 C   0  0  0  0  0  0  0  0  0  0  0  0
  186.9130  178.0700  143.4680 C   0  0  0  0  0  0  0  0  0  0  0  0
  189.2140  177.4650  142.9630 C   0  0  0  0  0  3  0  0  0  0  0  0
  187.6890  177.9270  141.1880 C   0  0  1  0  0  3  0  0  0  0  0  0
  186.3220  178.9260  140.5810 S   0  0  0  0  0  0  0  0  0  0  0  0
  189.5050  177.3970  144.3220 C   0  0  0  0  0  3  0  0  0  0  0  0
  183.6930  178.2340  141.3700 C   0  0  1  0  0  3  0  0  0  0  0  0
  182.8660  178.6480  142.4150 O   0  0  0  0  0  1  0  0  0  0  0  0
  183.3880  179.0520  140.1210 C   0  0  0  0  0  2  0  0  0  0  0  0
  181.6520  177.0270  139.7540 O   0  0  0  0  0  0  0  0  0  0  0  0
  181.9720  178.4040  139.2450 S   0  0  0  0  0  0  0  0  0  0  0  0
  182.3090  178.3340  137.7810 O   0  0  0  0  0  0  0  0  0  0  0  0
  180.5950  179.4460  139.4800 N   0  0  0  0  0  0  0  0  0  0  0  0
  180.7110  180.8650  139.2700 C   0  0  0  0  0  0  0  0  0  0  0  0
  179.9050  181.6560  139.8310 O   0  0  0  0  0  0  0  0  0  0  0  0
  179.7240  177.8380  141.1070 C   0  0  0  0  0  2  0  0  0  0  0  0
  179.3730  178.8940  140.0700 C   0  0  0  0  0  3  0  0  0  0  0  0
  179.3110  179.2180  141.5560 C   0  0  0  0  0  2  0  0  0  0  0  0
  181.7370  181.4260  138.3380 C   0  0  0  0  0  2  0  0  0  0  0  0
  181.0910  182.3170  137.3330 C   0  0  0  0  0  0  0  0  0  0  0  0
  180.6460  184.5420  136.4760 C   0  0  0  0  0  3  0  0  0  0  0  0
  179.6300  182.6130  135.4200 C   0  0  0  0  0  3  0  0  0  0  0  0
  179.8220  183.9960  135.4860 C   0  0  0  0  0  3  0  0  0  0  0  0
  180.2620  181.7750  136.3440 C   0  0  0  0  0  3  0  0  0  0  0  0
  181.2790  183.7030  137.4000 C   0  0  0  0  0  3  0  0  0  0  0  0
  188.6560  177.4220  140.1580 C   0  0  0  0  0  2  0  0  0  0  0  0
  188.6920  178.8560  136.7330 C   0  0  0  0  0  2  0  0  0  0  0  0
  188.4910  177.5580  135.9520 C   0  0  1  0  0  3  0  0  0  0  0  0
  188.0700  176.4180  138.1280 C   0  0  0  0  0  2  0  0  0  0  0  0
  189.1530  178.5310  138.1520 C   0  0  0  0  0  2  0  0  0  0  0  0
  188.1520  177.7020  138.8240 N   0  0  0  0  0  0  0  0  0  0  0  0
  187.5470  176.6270  136.7090 C   0  0  0  0  0  2  0  0  0  0  0  0
  186.4970  177.6910  134.7480 C   0  0  0  0  0  1  0  0  0  0  0  0
  187.9370  177.8560  134.6440 N   0  0  0  0  0  2  0  0  0  0  0  0
  1  6  1  0  0  0  0
  2 12  2  0  0  0  0
  2 11  1  0  0  0  0
  3 11  1  0  0  0  0
  4  8  1  0  0  0  0
  5  1  1  0  0  0  0
  7  4  1  0  0  0  0
  7  9  1  0  0  0  0
  8  1  2  0  0  0  0
  9  5  2  0  0  0  0
 10  3  2  0  0  0  0
 11  7  2  0  0  0  0
 12 15  1  0  0  0  0
 13 35  1  6  0  0  0
 13  2  1  0  0  0  0
 14 13  1  0  0  0  0
 14 10  1  0  0  0  0
 15  4  2  0  0  0  0
 16 10  1  0  0  0  0
 16 17  1  1  0  0  0
 18 16  1  0  0  0  0
 20 22  1  0  0  0  0
 20 19  2  0  0  0  0
 20 18  1  0  0  0  0
 21 20  2  0  0  0  0
 22 26  1  0  0  0  0
 23 22  1  0  0  0  0
 23 24  2  0  0  0  0
 25 27  1  0  0  0  0
 26 25  1  0  0  0  0
 26 27  1  0  0  0  0
 28 23  1  0  0  0  0
 29 34  1  0  0  0  0
 29 28  1  0  0  0  0
 30 34  2  0  0  0  0
 31 32  2  0  0  0  0
 31 33  1  0  0  0  0
 32 30  1  0  0  0  0
 33 29  2  0  0  0  0
 36 39  1  0  0  0  0
 37 43  1  6  0  0  0
 37 41  1  0  0  0  0
 37 36  1  0  0  0  0
 38 40  1  0  0  0  0
 39 40  1  0  0  0  0
 40 35  1  0  0  0  0
 41 38  1  0  0  0  0
 43 42  1  0  0  0  0
M  END
>  <MODEL>
4

>  <REMARK>
 VINA RESULT:      -8.3      2.611      8.474
  Name = 
  10 active torsions:
  status: ('A' for Active; 'I' for Inactive)
    1  A    between atoms: C_1  and  C_34
    2  A    between atoms: C_1  and  N_35
    3  A    between atoms: C_2  and  C_6
    4  A    between atoms: C_2  and  C_27
    5  A    between atoms: N_4  and  S_12
    6  A    between atoms: N_4  and  C_15
    7  A    between atoms: C_6  and  S_12
    8  A    between atoms: C_11  and  C_14
    9  A    between atoms: C_14  and  C_22
   10  A    between atoms: C_19  and  N_37
                            x       y       z     vdW  Elec       q    Type
                         _______ _______ _______ _____ _____    ______ ____

>  <TORSDO>
F 10

$$$$
=
 OpenBabel10262422373D

 43 48  0  0  1  0  0  0  0  0999 V2000
  191.7340  176.1160  147.3000 C   0  0  0  0  0  0  0  0  0  0  0  0
  187.5420  177.8980  145.0050 C   0  0  0  0  0  0  0  0  0  0  0  0
  189.1740  177.6510  143.1100 C   0  0  0  0  0  3  0  0  0  0  0  0
  189.5270  177.0690  146.8280 C   0  0  0  0  0  0  0  0  0  0  0  0
  192.0560  176.0460  146.0090 C   0  0  0  0  0  3  0  0  0  0  0  0
  192.6920  175.6280  148.3260 C   0  0  0  0  0  1  0  0  0  0  0  0
  189.7850  177.0090  145.4380 C   0  0  0  0  0  0  0  0  0  0  0  0
  190.4340  176.6610  147.7180 C   0  0  0  0  0  3  0  0  0  0  0  0
  191.1340  176.5370  144.9260 C   0  0  0  0  0  3  0  0  0  0  0  0
  188.2780  177.8950  142.1520 C   0  0  0  0  0  0  0  0  0  0  0  0
  188.7980  177.4420  144.5250 C   0  0  0  0  0  0  0  0  0  0  0  0
  187.3370  177.9870  146.3910 C   0  0  0  0  0  3  0  0  0  0  0  0
  186.5640  178.2730  144.1530 C   0  0  1  0  0  3  0  0  0  0  0  0
  186.5340  177.6520  142.4650 S   0  0  0  0  0  0  0  0  0  0  0  0
  188.3140  177.5730  147.2910 C   0  0  0  0  0  3  0  0  0  0  0  0
  188.7160  178.2570  140.7660 C   0  0  1  0  0  3  0  0  0  0  0  0
  190.0960  178.0930  140.6460 O   0  0  0  0  0  1  0  0  0  0  0  0
  188.0070  177.4250  139.7050 C   0  0  0  0  0  2  0  0  0  0  0  0
  189.0110  179.3650  138.1310 O   0  0  0  0  0  0  0  0  0  0  0  0
  188.0010  178.2520  138.1210 S   0  0  0  0  0  0  0  0  0  0  0  0
  186.6290  178.8190  137.8850 O   0  0  0  0  0  0  0  0  0  0  0  0
  188.3940  177.1220  136.8550 N   0  0  0  0  0  0  0  0  0  0  0  0
  189.7670  176.7940  136.5710 C   0  0  0  0  0  0  0  0  0  0  0  0
  190.0900  176.3520  135.4360 O   0  0  0  0  0  0  0  0  0  0  0  0
  187.4130  175.1400  135.8070 C   0  0  0  0  0  2  0  0  0  0  0  0
  187.3330  176.6500  135.9620 C   0  0  0  0  0  3  0  0  0  0  0  0
  186.3720  175.7440  136.7170 C   0  0  0  0  0  2  0  0  0  0  0  0
  190.8210  176.9060  137.6260 C   0  0  0  0  0  2  0  0  0  0  0  0
  191.9150  175.9270  137.3690 C   0  0  0  0  0  0  0  0  0  0  0  0
  194.2060  175.4570  136.7310 C   0  0  0  0  0  3  0  0  0  0  0  0
  192.6790  173.6330  137.1850 C   0  0  0  0  0  3  0  0  0  0  0  0
  193.9520  174.0850  136.8230 C   0  0  0  0  0  3  0  0  0  0  0  0
  191.6620  174.5530  137.4560 C   0  0  0  0  0  3  0  0  0  0  0  0
  193.1890  176.3780  137.0030 C   0  0  0  0  0  3  0  0  0  0  0  0
  185.3420  179.0100  144.6150 C   0  0  0  0  0  2  0  0  0  0  0  0
  181.7180  178.5170  143.9690 C   0  0  0  0  0  2  0  0  0  0  0  0
  181.6830  179.0260  142.5300 C   0  0  1  0  0  3  0  0  0  0  0  0
  184.1730  179.1080  142.5900 C   0  0  0  0  0  2  0  0  0  0  0  0
  182.9960  179.0010  144.6500 C   0  0  0  0  0  2  0  0  0  0  0  0
  184.1660  178.5060  143.9230 N   0  0  0  0  0  0  0  0  0  0  0  0
  182.9610  178.6280  141.7960 C   0  0  0  0  0  2  0  0  0  0  0  0
  180.0520  179.4900  140.9270 C   0  0  0  0  0  1  0  0  0  0  0  0
  180.5320  178.4690  141.8420 N   0  0  0  0  0  2  0  0  0  0  0  0
  1  8  1  0  0  0  0
  1  6  1  0  0  0  0
  2 12  1  0  0  0  0
  3 11  1  0  0  0  0
  4 15  1  0  0  0  0
  4  8  2  0  0  0  0
  5  1  2  0  0  0  0
  7  4  1  0  0  0  0
  9  7  2  0  0  0  0
  9  5  1  0  0  0  0
 10 14  1  0  0  0  0
 10  3  2  0  0  0  0
 11  2  2  0  0  0  0
 11  7  1  0  0  0  0
 12 15  2  0  0  0  0
 13 35  1  1  0  0  0
 13  2  1  0  0  0  0
 14 13  1  0  0  0  0
 16 17  1  1  0  0  0
 16 10  1  0  0  0  0
 18 16  1  0  0  0  0
 20 19  2  0  0  0  0
 20 18  1  0  0  0  0
 21 20  2  0  0  0  0
 22 20  1  0  0  0  0
 23 22  1  0  0  0  0
 23 28  1  0  0  0  0
 24 23  2  0  0  0  0
 25 26  1  0  0  0  0
 25 27  1  0  0  0  0
 26 27  1  0  0  0  0
 26 22  1  0  0  0  0
 29 33  1  0  0  0  0
 29 28  1  0  0  0  0
 30 32  2  0  0  0  0
 30 34  1  0  0  0  0
 31 33  2  0  0  0  0
 32 31  1  0  0  0  0
 34 29  2  0  0  0  0
 36 39  1  0  0  0  0
 37 43  1  6  0  0  0
 37 36  1  0  0  0  0
 38 40  1  0  0  0  0
 40 35  1  0  0  0  0
 40 39  1  0  0  0  0
 41 37  1  0  0  0  0
 41 38  1  0  0  0  0
 42 43  1  0  0  0  0
M  END
>  <MODEL>
5

>  <REMARK>
 VINA RESULT:      -8.3      2.210      5.216
  Name = 
  10 active torsions:
  status: ('A' for Active; 'I' for Inactive)
    1  A    between atoms: C_1  and  C_34
    2  A    between atoms: C_1  and  N_35
    3  A    between atoms: C_2  and  C_6
    4  A    between atoms: C_2  and  C_27
    5  A    between atoms: N_4  and  S_12
    6  A    between atoms: N_4  and  C_15
    7  A    between atoms: C_6  and  S_12
    8  A    between atoms: C_11  and  C_14
    9  A    between atoms: C_14  and  C_22
   10  A    between atoms: C_19  and  N_37
                            x       y       z     vdW  Elec       q    Type
                         _______ _______ _______ _____ _____    ______ ____

>  <TORSDO>
F 10

$$$$
=
 OpenBabel10262422373D

 43 48  0  0  1  0  0  0  0  0999 V2000
  194.3320  173.9790  136.9070 C   0  0  0  0  0  0  0  0  0  0  0  0
  189.3500  175.0240  137.2440 C   0  0  0  0  0  0  0  0  0  0  0  0
  190.3680  176.5010  139.0040 C   0  0  0  0  0  3  0  0  0  0  0  0
  191.8930  173.9490  136.6700 C   0  0  0  0  0  0  0  0  0  0  0  0
  194.3040  174.9960  137.7670 C   0  0  0  0  0  3  0  0  0  0  0  0
  195.6360  173.4020  136.4880 C   0  0  0  0  0  1  0  0  0  0  0  0
  191.7810  175.0410  137.5620 C   0  0  0  0  0  0  0  0  0  0  0  0
  193.0830  173.4310  136.3560 C   0  0  0  0  0  3  0  0  0  0  0  0
  193.0140  175.6110  138.2380 C   0  0  0  0  0  3  0  0  0  0  0  0
  189.2430  177.1720  139.2580 C   0  0  0  0  0  0  0  0  0  0  0  0
  190.5060  175.5680  137.8650 C   0  0  0  0  0  0  0  0  0  0  0  0
  189.4940  173.9110  136.3990 C   0  0  0  0  0  3  0  0  0  0  0  0
  188.1240  175.5390  137.4790 C   0  0  1  0  0  3  0  0  0  0  0  0
  187.9380  177.2390  138.0370 S   0  0  0  0  0  0  0  0  0  0  0  0
  190.7490  173.3840  136.1120 C   0  0  0  0  0  3  0  0  0  0  0  0
  189.0990  177.9810  140.5100 C   0  0  1  0  0  3  0  0  0  0  0  0
  188.1610  178.9950  140.3150 O   0  0  0  0  0  1  0  0  0  0  0  0
  188.6870  177.1240  141.7020 C   0  0  0  0  0  2  0  0  0  0  0  0
  191.3160  177.4130  142.2060 O   0  0  0  0  0  0  0  0  0  0  0  0
  190.0880  176.7300  142.7380 S   0  0  0  0  0  0  0  0  0  0  0  0
  190.2910  175.2400  142.7170 O   0  0  0  0  0  0  0  0  0  0  0  0
  189.7900  177.2580  144.3720 N   0  0  0  0  0  0  0  0  0  0  0  0
  188.4470  177.5120  144.8220 C   0  0  0  0  0  0  0  0  0  0  0  0
  188.2430  178.2800  145.8010 O   0  0  0  0  0  0  0  0  0  0  0  0
  190.7310  177.0440  146.6210 C   0  0  0  0  0  2  0  0  0  0  0  0
  190.9260  177.6160  145.2250 C   0  0  0  0  0  3  0  0  0  0  0  0
  191.6750  176.3650  145.6600 C   0  0  0  0  0  2  0  0  0  0  0  0
  187.2780  176.8280  144.1890 C   0  0  0  0  0  2  0  0  0  0  0  0
  186.0750  177.7070  144.2410 C   0  0  0  0  0  0  0  0  0  0  0  0
  184.3080  178.7760  145.5110 C   0  0  0  0  0  3  0  0  0  0  0  0
  184.3910  179.0310  143.1040 C   0  0  0  0  0  3  0  0  0  0  0  0
  183.7760  179.3030  144.3300 C   0  0  0  0  0  3  0  0  0  0  0  0
  185.5380  178.2320  143.0600 C   0  0  0  0  0  3  0  0  0  0  0  0
  185.4560  177.9780  145.4670 C   0  0  0  0  0  3  0  0  0  0  0  0
  186.8690  174.8300  137.0660 C   0  0  0  0  0  2  0  0  0  0  0  0
  184.3420  177.1200  135.5950 C   0  0  0  0  0  2  0  0  0  0  0  0
  183.0900  176.4530  136.1600 C   0  0  1  0  0  3  0  0  0  0  0  0
  184.5850  175.0150  137.5410 C   0  0  0  0  0  2  0  0  0  0  0  0
  185.5170  176.1470  135.6730 C   0  0  0  0  0  2  0  0  0  0  0  0
  185.7510  175.7590  137.0650 N   0  0  0  0  0  0  0  0  0  0  0  0
  183.3600  175.9260  137.5680 C   0  0  0  0  0  2  0  0  0  0  0  0
  182.2630  178.3010  137.3210 C   0  0  0  0  0  1  0  0  0  0  0  0
  182.0010  177.4130  136.2010 N   0  0  0  0  0  2  0  0  0  0  0  0
  1  5  1  0  0  0  0
  2 13  1  0  0  0  0
  2 11  1  0  0  0  0
  3 10  2  0  0  0  0
  4  7  1  0  0  0  0
  5  9  2  0  0  0  0
  6  1  1  0  0  0  0
  7 11  2  0  0  0  0
  7  9  1  0  0  0  0
  8  4  1  0  0  0  0
  8  1  2  0  0  0  0
 10 16  1  0  0  0  0
 11  3  1  0  0  0  0
 12  2  2  0  0  0  0
 13 35  1  6  0  0  0
 13 14  1  0  0  0  0
 14 10  1  0  0  0  0
 15 12  1  0  0  0  0
 15  4  2  0  0  0  0
 16 17  1  6  0  0  0
 16 18  1  0  0  0  0
 18 20  1  0  0  0  0
 19 20  2  0  0  0  0
 20 22  1  0  0  0  0
 21 20  2  0  0  0  0
 22 23  1  0  0  0  0
 22 26  1  0  0  0  0
 23 24  2  0  0  0  0
 26 27  1  0  0  0  0
 26 25  1  0  0  0  0
 27 25  1  0  0  0  0
 28 29  1  0  0  0  0
 28 23  1  0  0  0  0
 29 34  1  0  0  0  0
 31 32  2  0  0  0  0
 32 30  1  0  0  0  0
 33 31  1  0  0  0  0
 33 29  2  0  0  0  0
 34 30  2  0  0  0  0
 36 39  1  0  0  0  0
 36 37  1  0  0  0  0
 37 43  1  1  0  0  0
 37 41  1  0  0  0  0
 38 41  1  0  0  0  0
 39 40  1  0  0  0  0
 40 35  1  0  0  0  0
 40 38  1  0  0  0  0
 43 42  1  0  0  0  0
M  END
>  <MODEL>
6

>  <REMARK>
 VINA RESULT:      -8.3      2.892      7.834
  Name = 
  10 active torsions:
  status: ('A' for Active; 'I' for Inactive)
    1  A    between atoms: C_1  and  C_34
    2  A    between atoms: C_1  and  N_35
    3  A    between atoms: C_2  and  C_6
    4  A    between atoms: C_2  and  C_27
    5  A    between atoms: N_4  and  S_12
    6  A    between atoms: N_4  and  C_15
    7  A    between atoms: C_6  and  S_12
    8  A    between atoms: C_11  and  C_14
    9  A    between atoms: C_14  and  C_22
   10  A    between atoms: C_19  and  N_37
                            x       y       z     vdW  Elec       q    Type
                         _______ _______ _______ _____ _____    ______ ____

>  <TORSDO>
F 10

$$$$
=
 OpenBabel10262422373D

 43 48  0  0  1  0  0  0  0  0999 V2000
  185.8710  178.1980  145.2200 C   0  0  0  0  0  0  0  0  0  0  0  0
  189.0340  177.4020  141.2980 C   0  0  0  0  0  0  0  0  0  0  0  0
  186.9170  178.1690  140.1830 C   0  0  0  0  0  3  0  0  0  0  0  0
  187.7630  177.5330  143.8110 C   0  0  0  0  0  0  0  0  0  0  0  0
  185.1730  178.6600  144.1840 C   0  0  0  0  0  3  0  0  0  0  0  0
  185.3080  178.2990  146.5920 C   0  0  0  0  0  1  0  0  0  0  0  0
  187.0930  178.0180  142.6630 C   0  0  0  0  0  0  0  0  0  0  0  0
  187.2010  177.6020  145.0210 C   0  0  0  0  0  3  0  0  0  0  0  0
  185.6850  178.5730  142.7710 C   0  0  0  0  0  3  0  0  0  0  0  0
  187.4580  178.2760  138.9680 C   0  0  0  0  0  0  0  0  0  0  0  0
  187.7220  177.9360  141.4010 C   0  0  0  0  0  0  0  0  0  0  0  0
  189.6500  176.8880  142.4510 C   0  0  0  0  0  3  0  0  0  0  0  0
  189.6770  177.3560  140.1120 C   0  0  1  0  0  3  0  0  0  0  0  0
  189.2250  178.4780  138.7810 S   0  0  0  0  0  0  0  0  0  0  0  0
  189.0250  176.9580  143.6920 C   0  0  0  0  0  3  0  0  0  0  0  0
  186.5920  178.3530  137.7480 C   0  0  1  0  0  3  0  0  0  0  0  0
  187.3860  178.4970  136.6100 O   0  0  0  0  0  1  0  0  0  0  0  0
  185.7020  177.1250  137.5980 C   0  0  0  0  0  2  0  0  0  0  0  0
  183.4920  177.8770  136.2550 O   0  0  0  0  0  0  0  0  0  0  0  0
  183.9700  177.5640  137.6450 S   0  0  0  0  0  0  0  0  0  0  0  0
  183.8100  178.7780  138.5180 O   0  0  0  0  0  0  0  0  0  0  0  0
  183.0360  176.2460  138.2980 N   0  0  0  0  0  0  0  0  0  0  0  0
  182.0150  176.4930  139.2810 C   0  0  0  0  0  0  0  0  0  0  0  0
  181.6480  175.5710  140.0590 O   0  0  0  0  0  0  0  0  0  0  0  0
  182.2370  174.1200  137.3850 C   0  0  0  0  0  2  0  0  0  0  0  0
  183.4210  174.8690  137.9770 C   0  0  0  0  0  3  0  0  0  0  0  0
  183.3280  174.6310  136.4770 C   0  0  0  0  0  2  0  0  0  0  0  0
  181.3240  177.8170  139.3600 C   0  0  0  0  0  2  0  0  0  0  0  0
  181.0790  178.1880  140.7820 C   0  0  0  0  0  0  0  0  0  0  0  0
  179.5480  178.5190  142.6330 C   0  0  0  0  0  3  0  0  0  0  0  0
  181.9050  179.0030  142.9110 C   0  0  0  0  0  3  0  0  0  0  0  0
  180.6100  178.9500  143.4350 C   0  0  0  0  0  3  0  0  0  0  0  0
  182.1380  178.6250  141.5860 C   0  0  0  0  0  3  0  0  0  0  0  0
  179.7820  178.1390  141.3080 C   0  0  0  0  0  3  0  0  0  0  0  0
  190.9340  176.5600  139.9160 C   0  0  0  0  0  2  0  0  0  0  0  0
  193.1760  176.3780  136.9610 C   0  0  0  0  0  2  0  0  0  0  0  0
  192.5560  175.1520  136.2940 C   0  0  1  0  0  3  0  0  0  0  0  0
  190.7180  175.2770  137.9720 C   0  0  0  0  0  2  0  0  0  0  0  0
  192.7390  176.4380  138.4230 C   0  0  0  0  0  2  0  0  0  0  0  0
  191.2800  176.5170  138.5050 N   0  0  0  0  0  0  0  0  0  0  0  0
  191.0410  175.1540  136.4850 C   0  0  0  0  0  2  0  0  0  0  0  0
  194.3020  174.9520  134.7590 C   0  0  0  0  0  1  0  0  0  0  0  0
  192.8690  175.1580  134.8760 N   0  0  0  0  0  2  0  0  0  0  0  0
  1  6  1  0  0  0  0
  2 11  2  0  0  0  0
  2 12  1  0  0  0  0
  3 11  1  0  0  0  0
  4  8  2  0  0  0  0
  5  1  2  0  0  0  0
  7  9  2  0  0  0  0
  7  4  1  0  0  0  0
  8  1  1  0  0  0  0
  9  5  1  0  0  0  0
 10  3  2  0  0  0  0
 11  7  1  0  0  0  0
 12 15  2  0  0  0  0
 13 35  1  1  0  0  0
 13  2  1  0  0  0  0
 14 10  1  0  0  0  0
 14 13  1  0  0  0  0
 15  4  1  0  0  0  0
 16 17  1  6  0  0  0
 16 10  1  0  0  0  0
 18 20  1  0  0  0  0
 18 16  1  0  0  0  0
 19 20  2  0  0  0  0
 20 22  1  0  0  0  0
 20 21  2  0  0  0  0
 22 23  1  0  0  0  0
 23 28  1  0  0  0  0
 23 24  2  0  0  0  0
 25 26  1  0  0  0  0
 26 22  1  0  0  0  0
 27 25  1  0  0  0  0
 27 26  1  0  0  0  0
 28 29  1  0  0  0  0
 29 34  2  0  0  0  0
 29 33  1  0  0  0  0
 30 32  2  0  0  0  0
 31 32  1  0  0  0  0
 33 31  2  0  0  0  0
 34 30  1  0  0  0  0
 36 39  1  0  0  0  0
 37 43  1  6  0  0  0
 37 41  1  0  0  0  0
 37 36  1  0  0  0  0
 38 40  1  0  0  0  0
 39 40  1  0  0  0  0
 40 35  1  0  0  0  0
 41 38  1  0  0  0  0
 42 43  1  0  0  0  0
M  END
>  <MODEL>
7

>  <REMARK>
 VINA RESULT:      -8.1      2.406      8.315
  Name = 
  10 active torsions:
  status: ('A' for Active; 'I' for Inactive)
    1  A    between atoms: C_1  and  C_34
    2  A    between atoms: C_1  and  N_35
    3  A    between atoms: C_2  and  C_6
    4  A    between atoms: C_2  and  C_27
    5  A    between atoms: N_4  and  S_12
    6  A    between atoms: N_4  and  C_15
    7  A    between atoms: C_6  and  S_12
    8  A    between atoms: C_11  and  C_14
    9  A    between atoms: C_14  and  C_22
   10  A    between atoms: C_19  and  N_37
                            x       y       z     vdW  Elec       q    Type
                         _______ _______ _______ _____ _____    ______ ____

>  <TORSDO>
F 10

$$$$
=
 OpenBabel10262422373D

 43 48  0  0  1  0  0  0  0  0999 V2000
  190.9120  177.8330  142.8780 C   0  0  0  0  0  0  0  0  0  0  0  0
  189.6510  177.1790  137.9790 C   0  0  0  0  0  0  0  0  0  0  0  0
  187.4720  177.8220  139.0530 C   0  0  0  0  0  3  0  0  0  0  0  0
  190.9200  177.2610  140.4960 C   0  0  0  0  0  0  0  0  0  0  0  0
  189.6470  178.2480  142.8450 C   0  0  0  0  0  3  0  0  0  0  0  0
  191.6810  177.9140  144.1480 C   0  0  0  0  0  1  0  0  0  0  0  0
  189.5810  177.6990  140.3740 C   0  0  0  0  0  0  0  0  0  0  0  0
  191.5600  177.3080  141.6670 C   0  0  0  0  0  3  0  0  0  0  0  0
  188.8140  178.1780  141.5930 C   0  0  0  0  0  3  0  0  0  0  0  0
  186.8080  177.9480  137.9030 C   0  0  0  0  0  0  0  0  0  0  0  0
  188.9380  177.6410  139.1170 C   0  0  0  0  0  0  0  0  0  0  0  0
  190.9640  176.7080  138.1450 C   0  0  0  0  0  3  0  0  0  0  0  0
  189.0770  177.1590  136.7570 C   0  0  1  0  0  3  0  0  0  0  0  0
  187.6940  178.2450  136.3780 S   0  0  0  0  0  0  0  0  0  0  0  0
  191.5920  176.7530  139.3860 C   0  0  0  0  0  3  0  0  0  0  0  0
  185.3110  177.9690  137.8800 C   0  0  1  0  0  3  0  0  0  0  0  0
  184.8380  177.0730  136.9210 O   0  0  0  0  0  1  0  0  0  0  0  0
  184.7120  177.6270  139.2400 C   0  0  0  0  0  2  0  0  0  0  0  0
  184.0220  180.2300  139.3050 O   0  0  0  0  0  0  0  0  0  0  0  0
  184.4170  179.0980  140.2110 S   0  0  0  0  0  0  0  0  0  0  0  0
  185.6860  179.4520  140.9360 O   0  0  0  0  0  0  0  0  0  0  0  0
  183.1440  178.8060  141.3650 N   0  0  0  0  0  0  0  0  0  0  0  0
  183.4150  178.8630  142.7780 C   0  0  0  0  0  0  0  0  0  0  0  0
  182.6680  178.2530  143.5900 O   0  0  0  0  0  0  0  0  0  0  0  0
  180.7230  178.9850  141.6770 C   0  0  0  0  0  2  0  0  0  0  0  0
  181.8450  178.3240  140.8910 C   0  0  0  0  0  3  0  0  0  0  0  0
  181.0460  179.4690  140.2850 C   0  0  0  0  0  2  0  0  0  0  0  0
  184.5370  179.6920  143.3160 C   0  0  0  0  0  2  0  0  0  0  0  0
  185.3070  178.9210  144.3340 C   0  0  0  0  0  0  0  0  0  0  0  0
  186.0230  178.6030  146.6280 C   0  0  0  0  0  3  0  0  0  0  0  0
  186.8410  177.1280  144.8910 C   0  0  0  0  0  3  0  0  0  0  0  0
  186.8050  177.5130  146.2340 C   0  0  0  0  0  3  0  0  0  0  0  0
  186.0940  177.8320  143.9420 C   0  0  0  0  0  3  0  0  0  0  0  0
  185.2750  179.3070  145.6790 C   0  0  0  0  0  3  0  0  0  0  0  0
  189.6920  176.4310  135.5990 C   0  0  0  0  0  2  0  0  0  0  0  0
  189.1590  172.8930  134.6030 C   0  0  0  0  0  2  0  0  0  0  0  0
  188.3870  172.4340  135.8390 C   0  0  1  0  0  3  0  0  0  0  0  0
  188.2960  174.8180  136.5600 C   0  0  0  0  0  2  0  0  0  0  0  0
  189.8920  174.1960  134.9150 C   0  0  0  0  0  2  0  0  0  0  0  0
  188.9300  175.2270  135.3070 N   0  0  0  0  0  0  0  0  0  0  0  0
  187.4730  173.5510  136.3370 C   0  0  0  0  0  2  0  0  0  0  0  0
  186.1990  171.6750  135.5540 C   0  0  0  0  0  1  0  0  0  0  0  0
  187.5920  171.2640  135.5110 N   0  0  0  0  0  2  0  0  0  0  0  0
  1  6  1  0  0  0  0
  2 12  2  0  0  0  0
  2 11  1  0  0  0  0
  3 11  1  0  0  0  0
  4  8  1  0  0  0  0
  5  1  1  0  0  0  0
  7  4  1  0  0  0  0
  7  9  1  0  0  0  0
  8  1  2  0  0  0  0
  9  5  2  0  0  0  0
 10  3  2  0  0  0  0
 11  7  2  0  0  0  0
 12 15  1  0  0  0  0
 13 35  1  6  0  0  0
 13  2  1  0  0  0  0
 14 13  1  0  0  0  0
 14 10  1  0  0  0  0
 15  4  2  0  0  0  0
 16 17  1  6  0  0  0
 16 10  1  0  0  0  0
 16 18  1  0  0  0  0
 18 20  1  0  0  0  0
 19 20  2  0  0  0  0
 20 21  2  0  0  0  0
 20 22  1  0  0  0  0
 22 23  1  0  0  0  0
 23 28  1  0  0  0  0
 23 24  2  0  0  0  0
 26 22  1  0  0  0  0
 26 25  1  0  0  0  0
 27 26  1  0  0  0  0
 27 25  1  0  0  0  0
 28 29  1  0  0  0  0
 29 34  1  0  0  0  0
 31 32  2  0  0  0  0
 32 30  1  0  0  0  0
 33 29  2  0  0  0  0
 33 31  1  0  0  0  0
 34 30  2  0  0  0  0
 36 39  1  0  0  0  0
 36 37  1  0  0  0  0
 37 43  1  6  0  0  0
 37 41  1  0  0  0  0
 39 40  1  0  0  0  0
 40 35  1  0  0  0  0
 40 38  1  0  0  0  0
 41 38  1  0  0  0  0
 43 42  1  0  0  0  0
M  END
>  <MODEL>
8

>  <REMARK>
 VINA RESULT:      -8.1      2.441      7.872
  Name = 
  10 active torsions:
  status: ('A' for Active; 'I' for Inactive)
    1  A    between atoms: C_1  and  C_34
    2  A    between atoms: C_1  and  N_35
    3  A    between atoms: C_2  and  C_6
    4  A    between atoms: C_2  and  C_27
    5  A    between atoms: N_4  and  S_12
    6  A    between atoms: N_4  and  C_15
    7  A    between atoms: C_6  and  S_12
    8  A    between atoms: C_11  and  C_14
    9  A    between atoms: C_14  and  C_22
   10  A    between atoms: C_19  and  N_37
                            x       y       z     vdW  Elec       q    Type
                         _______ _______ _______ _____ _____    ______ ____

>  <TORSDO>
F 10

$$$$
=
 OpenBabel10262422373D

 43 48  0  0  1  0  0  0  0  0999 V2000
  190.7000  177.0570  138.7780 C   0  0  0  0  0  0  0  0  0  0  0  0
  185.7160  177.6910  137.8970 C   0  0  0  0  0  0  0  0  0  0  0  0
  185.9590  178.3320  140.3140 C   0  0  0  0  0  3  0  0  0  0  0  0
  188.4590  177.0440  137.7890 C   0  0  0  0  0  0  0  0  0  0  0  0
  190.2730  177.6190  139.9080 C   0  0  0  0  0  3  0  0  0  0  0  0
  192.1450  176.7530  138.6060 C   0  0  0  0  0  1  0  0  0  0  0  0
  187.9310  177.6580  138.9490 C   0  0  0  0  0  0  0  0  0  0  0  0
  189.7570  176.7460  137.6940 C   0  0  0  0  0  3  0  0  0  0  0  0
  188.8210  177.9370  140.1450 C   0  0  0  0  0  3  0  0  0  0  0  0
  184.7140  178.7960  140.4370 C   0  0  0  0  0  0  0  0  0  0  0  0
  186.5530  177.9650  139.0110 C   0  0  0  0  0  0  0  0  0  0  0  0
  186.2640  177.0380  136.7810 C   0  0  0  0  0  3  0  0  0  0  0  0
  184.4060  178.0180  137.9110 C   0  0  1  0  0  3  0  0  0  0  0  0
  183.8000  179.3210  138.9920 S   0  0  0  0  0  0  0  0  0  0  0  0
  187.6180  176.7240  136.7250 C   0  0  0  0  0  3  0  0  0  0  0  0
  184.1030  179.0030  141.7890 C   0  0  1  0  0  3  0  0  0  0  0  0
  182.7510  178.6600  141.7570 O   0  0  0  0  0  1  0  0  0  0  0  0
  184.8110  178.1930  142.8690 C   0  0  0  0  0  2  0  0  0  0  0  0
  183.3430  178.8000  145.0430 O   0  0  0  0  0  0  0  0  0  0  0  0
  184.7140  178.9990  144.4600 S   0  0  0  0  0  0  0  0  0  0  0  0
  184.9700  180.4680  144.2660 O   0  0  0  0  0  0  0  0  0  0  0  0
  185.9070  178.3340  145.5420 N   0  0  0  0  0  0  0  0  0  0  0  0
  187.0200  177.5810  145.0250 C   0  0  0  0  0  0  0  0  0  0  0  0
  187.6210  176.7540  145.7620 O   0  0  0  0  0  0  0  0  0  0  0  0
  186.9890  178.5870  147.7220 C   0  0  0  0  0  2  0  0  0  0  0  0
  185.6730  178.3890  146.9870 C   0  0  0  0  0  3  0  0  0  0  0  0
  186.0560  179.7570  147.5320 C   0  0  0  0  0  2  0  0  0  0  0  0
  187.5250  177.8060  143.6360 C   0  0  0  0  0  2  0  0  0  0  0  0
  188.9570  177.4030  143.5350 C   0  0  0  0  0  0  0  0  0  0  0  0
  191.3110  177.9780  143.6050 C   0  0  0  0  0  3  0  0  0  0  0  0
  190.6350  175.7120  143.0820 C   0  0  0  0  0  3  0  0  0  0  0  0
  191.6440  176.6590  143.2810 C   0  0  0  0  0  3  0  0  0  0  0  0
  189.2930  176.0840  143.2070 C   0  0  0  0  0  3  0  0  0  0  0  0
  189.9690  178.3500  143.7310 C   0  0  0  0  0  3  0  0  0  0  0  0
  183.4440  177.5030  136.8820 C   0  0  0  0  0  2  0  0  0  0  0  0
  180.3190  175.5130  137.1350 C   0  0  0  0  0  2  0  0  0  0  0  0
  180.7520  174.5710  138.2570 C   0  0  1  0  0  3  0  0  0  0  0  0
  182.7920  175.9760  138.5300 C   0  0  0  0  0  2  0  0  0  0  0  0
  181.5520  176.1660  136.5150 C   0  0  0  0  0  2  0  0  0  0  0  0
  182.2840  176.9190  137.5340 N   0  0  0  0  0  0  0  0  0  0  0  0
  181.6280  175.3140  139.2630 C   0  0  0  0  0  2  0  0  0  0  0  0
  179.5690  174.6080  140.2680 C   0  0  0  0  0  1  0  0  0  0  0  0
  179.5800  174.0420  138.9300 N   0  0  0  0  0  2  0  0  0  0  0  0
  1  5  1  0  0  0  0
  2 13  1  0  0  0  0
  2 11  1  0  0  0  0
  3 10  2  0  0  0  0
  4  7  1  0  0  0  0
  5  9  2  0  0  0  0
  6  1  1  0  0  0  0
  7 11  2  0  0  0  0
  7  9  1  0  0  0  0
  8  4  1  0  0  0  0
  8  1  2  0  0  0  0
 10 16  1  0  0  0  0
 11  3  1  0  0  0  0
 12  2  2  0  0  0  0
 13 35  1  6  0  0  0
 13 14  1  0  0  0  0
 14 10  1  0  0  0  0
 15 12  1  0  0  0  0
 15  4  2  0  0  0  0
 16 17  1  6  0  0  0
 16 18  1  0  0  0  0
 18 20  1  0  0  0  0
 20 19  2  0  0  0  0
 20 22  1  0  0  0  0
 21 20  2  0  0  0  0
 22 26  1  0  0  0  0
 23 22  1  0  0  0  0
 23 24  2  0  0  0  0
 26 27  1  0  0  0  0
 26 25  1  0  0  0  0
 27 25  1  0  0  0  0
 28 23  1  0  0  0  0
 29 28  1  0  0  0  0
 29 34  1  0  0  0  0
 30 34  2  0  0  0  0
 31 33  1  0  0  0  0
 31 32  2  0  0  0  0
 32 30  1  0  0  0  0
 33 29  2  0  0  0  0
 35 40  1  0  0  0  0
 36 37  1  0  0  0  0
 37 43  1  1  0  0  0
 37 41  1  0  0  0  0
 38 41  1  0  0  0  0
 39 36  1  0  0  0  0
 39 40  1  0  0  0  0
 40 38  1  0  0  0  0
 43 42  1  0  0  0  0
M  END
>  <MODEL>
9

>  <REMARK>
 VINA RESULT:      -7.9      3.326      6.484
  Name = 
  10 active torsions:
  status: ('A' for Active; 'I' for Inactive)
    1  A    between atoms: C_1  and  C_34
    2  A    between atoms: C_1  and  N_35
    3  A    between atoms: C_2  and  C_6
    4  A    between atoms: C_2  and  C_27
    5  A    between atoms: N_4  and  S_12
    6  A    between atoms: N_4  and  C_15
    7  A    between atoms: C_6  and  S_12
    8  A    between atoms: C_11  and  C_14
    9  A    between atoms: C_14  and  C_22
   10  A    between atoms: C_19  and  N_37
                            x       y       z     vdW  Elec       q    Type
                         _______ _______ _______ _____ _____    ______ ____

>  <TORSDO>
F 10

$$$$
