=
 OpenBabel10262419273D

 31 34  0  0  1  0  0  0  0  0999 V2000
  188.6600  178.0460  141.2270 C   0  0  0  0  0  0  0  0  0  0  0  0
  186.7980  177.5910  144.5640 C   0  0  2  0  0  3  0  0  0  0  0  0
  187.9610  177.5220  145.5520 C   0  0  0  0  0  0  0  0  0  0  0  0
  190.1620  176.6530  146.1350 C   0  0  0  0  0  3  0  0  0  0  0  0
  187.1260  177.9340  143.1160 C   0  0  0  0  0  0  0  0  0  0  0  0
  187.6150  178.4460  140.3910 C   0  0  0  0  0  3  0  0  0  0  0  0
  189.1260  176.8170  145.2150 C   0  0  0  0  0  3  0  0  0  0  0  0
  184.4140  178.2600  144.1700 C   0  0  1  0  0  3  0  0  0  0  0  0
  189.9410  177.9040  140.7160 O   0  0  0  0  0  1  0  0  0  0  0  0
  186.5490  178.6670  147.3370 C   0  0  0  0  0  2  0  0  0  0  0  0
  190.0360  177.1690  147.4240 C   0  0  0  0  0  3  0  0  0  0  0  0
  184.7500  178.5090  142.7690 N   0  0  0  0  0  2  0  0  0  0  0  0
  185.6440  178.4830  145.0590 C   0  0  1  0  0  3  0  0  0  0  0  0
  188.4140  177.7860  142.5780 C   0  0  0  0  0  3  0  0  0  0  0  0
  188.7560  178.3220  149.1000 O   0  0  0  0  0  1  0  0  0  0  0  0
  186.0740  178.3230  142.2560 C   0  0  0  0  0  0  0  0  0  0  0  0
  186.3250  178.5850  140.9070 C   0  0  0  0  0  3  0  0  0  0  0  0
  185.3510  178.2050  146.5230 C   0  0  0  0  0  2  0  0  0  0  0  0
  187.8120  177.9840  146.8860 C   0  0  0  0  0  0  0  0  0  0  0  0
  188.8660  177.8300  147.8030 C   0  0  0  0  0  0  0  0  0  0  0  0
  183.2210  179.1240  144.5740 C   0  0  0  0  0  2  0  0  0  0  0  0
  182.1740  179.2020  143.4700 C   0  0  0  0  0  2  0  0  0  0  0  0
  180.8720  178.5650  143.9260 C   0  0  0  0  0  2  0  0  0  0  0  0
  179.7820  178.7810  142.8890 C   0  0  0  0  0  2  0  0  0  0  0  0
  180.0150  180.0740  142.1270 C   0  0  0  0  0  2  0  0  0  0  0  0
  179.7230  180.9950  139.6140 S   0  0  0  0  0  0  0  0  0  0  0  0
  180.1040  179.7960  140.6670 C   0  0  0  0  0  0  0  0  0  0  0  0
  182.0600  178.2820  139.9610 C   0  0  0  0  0  0  0  0  0  0  0  0
  182.9240  179.1980  139.9650 O   0  0  0  0  0  0  0  0  0  0  0  0
  182.5570  176.6130  139.5660 S   0  0  0  0  0  1  0  0  0  0  0  0
  180.6820  178.5530  140.2410 N   0  0  0  0  0  2  0  0  0  0  0  0
  1 14  1  0  0  0  0
  2  5  1  6  0  0  0
  2 13  1  0  0  0  0
  2  3  1  0  0  0  0
  3 19  1  0  0  0  0
  4 11  2  0  0  0  0
  6 17  1  0  0  0  0
  6  1  2  0  0  0  0
  7  3  2  0  0  0  0
  7  4  1  0  0  0  0
  8 21  1  1  0  0  0
  8 13  1  0  0  0  0
  9  1  1  0  0  0  0
 11 20  1  0  0  0  0
 12  8  1  0  0  0  0
 13 18  1  1  0  0  0
 14  5  2  0  0  0  0
 16 12  1  0  0  0  0
 16  5  1  0  0  0  0
 17 16  2  0  0  0  0
 18 10  1  0  0  0  0
 19 10  1  0  0  0  0
 19 20  2  0  0  0  0
 20 15  1  0  0  0  0
 22 23  1  0  0  0  0
 22 21  1  0  0  0  0
 24 23  1  0  0  0  0
 25 24  1  0  0  0  0
 26 27  2  0  0  0  0
 27 25  1  0  0  0  0
 28 29  2  0  0  0  0
 28 31  1  0  0  0  0
 30 28  1  0  0  0  0
 31 27  1  0  0  0  0
M  END
>  <MODEL>
1

>  <REMARK>
 VINA RESULT:      -9.2      0.000      0.000
  Name = 
  7 active torsions:
  status: ('A' for Active; 'I' for Inactive)
    1  A    between atoms: C_3  and  C_19
    2  A    between atoms: C_3  and  C_22
    3  A    between atoms: C_7  and  C_9
    4  A    between atoms: C_7  and  C_22
    5  A    between atoms: C_9  and  C_23
    6  A    between atoms: C_15  and  C_23
    7  A    between atoms: C_19  and  N_24
                            x       y       z     vdW  Elec       q    Type
                         _______ _______ _______ _____ _____    ______ ____

>  <TORSDO>
F 7

$$$$
=
 OpenBabel10262419273D

 31 34  0  0  1  0  0  0  0  0999 V2000
  190.4670  177.0950  146.3130 C   0  0  0  0  0  0  0  0  0  0  0  0
  187.6920  177.3220  143.6570 C   0  0  2  0  0  3  0  0  0  0  0  0
  186.5400  177.9050  144.4720 C   0  0  0  0  0  0  0  0  0  0  0  0
  185.2150  177.9070  146.5170 C   0  0  0  0  0  3  0  0  0  0  0  0
  189.0540  177.2270  144.3330 C   0  0  0  0  0  0  0  0  0  0  0  0
  191.5910  176.8940  145.5090 C   0  0  0  0  0  3  0  0  0  0  0  0
  186.3180  177.4650  145.7860 C   0  0  0  0  0  3  0  0  0  0  0  0
  188.8060  177.1550  141.4170 C   0  0  1  0  0  3  0  0  0  0  0  0
  190.6000  177.1350  147.6930 O   0  0  0  0  0  1  0  0  0  0  0  0
  185.6950  179.1680  142.4270 C   0  0  0  0  0  2  0  0  0  0  0  0
  184.2950  178.7760  145.9330 C   0  0  0  0  0  3  0  0  0  0  0  0
  190.0870  176.9940  142.1030 N   0  0  0  0  0  2  0  0  0  0  0  0
  187.8460  177.9860  142.2760 C   0  0  1  0  0  3  0  0  0  0  0  0
  189.2080  177.2540  145.7280 C   0  0  0  0  0  3  0  0  0  0  0  0
  183.5230  180.0430  144.0430 O   0  0  0  0  0  1  0  0  0  0  0  0
  190.1960  177.0050  143.5310 C   0  0  0  0  0  0  0  0  0  0  0  0
  191.4540  176.8500  144.1200 C   0  0  0  0  0  3  0  0  0  0  0  0
  186.4880  178.1550  141.6160 C   0  0  0  0  0  2  0  0  0  0  0  0
  185.5630  178.7350  143.8620 C   0  0  0  0  0  0  0  0  0  0  0  0
  184.4630  179.1890  144.6110 C   0  0  0  0  0  0  0  0  0  0  0  0
  189.0380  177.7530  140.0300 C   0  0  0  0  0  2  0  0  0  0  0  0
  190.4350  177.4490  139.5050 C   0  0  0  0  0  2  0  0  0  0  0  0
  190.3950  176.2780  138.5380 C   0  0  0  0  0  2  0  0  0  0  0  0
  191.5330  176.3780  137.5340 C   0  0  0  0  0  2  0  0  0  0  0  0
  192.8770  176.2490  138.2310 C   0  0  0  0  0  2  0  0  0  0  0  0
  192.8500  173.9920  136.7650 S   0  0  0  0  0  0  0  0  0  0  0  0
  193.6510  175.1230  137.6410 C   0  0  0  0  0  0  0  0  0  0  0  0
  195.9500  174.2430  138.3880 C   0  0  0  0  0  0  0  0  0  0  0  0
  195.4930  173.3130  139.1030 O   0  0  0  0  0  0  0  0  0  0  0  0
  197.7180  174.4360  138.2320 S   0  0  0  0  0  1  0  0  0  0  0  0
  195.0840  175.1650  137.7160 N   0  0  0  0  0  2  0  0  0  0  0  0
  1  9  1  0  0  0  0
  2  5  1  1  0  0  0
  2  3  1  0  0  0  0
  3  7  1  0  0  0  0
  5 14  2  0  0  0  0
  6  1  2  0  0  0  0
  7  4  2  0  0  0  0
  8 21  1  6  0  0  0
  8 12  1  0  0  0  0
  8 13  1  0  0  0  0
 10 19  1  0  0  0  0
 11  4  1  0  0  0  0
 12 16  1  0  0  0  0
 13 18  1  6  0  0  0
 13  2  1  0  0  0  0
 14  1  1  0  0  0  0
 15 20  1  0  0  0  0
 16 17  2  0  0  0  0
 16  5  1  0  0  0  0
 17  6  1  0  0  0  0
 18 10  1  0  0  0  0
 19  3  2  0  0  0  0
 19 20  1  0  0  0  0
 20 11  2  0  0  0  0
 22 21  1  0  0  0  0
 23 22  1  0  0  0  0
 24 25  1  0  0  0  0
 24 23  1  0  0  0  0
 26 27  2  0  0  0  0
 27 31  1  0  0  0  0
 27 25  1  0  0  0  0
 28 29  2  0  0  0  0
 30 28  1  0  0  0  0
 31 28  1  0  0  0  0
M  END
>  <MODEL>
2

>  <REMARK>
 VINA RESULT:      -9.1      5.184      8.890
  Name = 
  7 active torsions:
  status: ('A' for Active; 'I' for Inactive)
    1  A    between atoms: C_3  and  C_19
    2  A    between atoms: C_3  and  C_22
    3  A    between atoms: C_7  and  C_9
    4  A    between atoms: C_7  and  C_22
    5  A    between atoms: C_9  and  C_23
    6  A    between atoms: C_15  and  C_23
    7  A    between atoms: C_19  and  N_24
                            x       y       z     vdW  Elec       q    Type
                         _______ _______ _______ _____ _____    ______ ____

>  <TORSDO>
F 7

$$$$
=
 OpenBabel10262419273D

 31 34  0  0  1  0  0  0  0  0999 V2000
  189.1840  177.7580  140.3460 C   0  0  0  0  0  0  0  0  0  0  0  0
  188.2400  177.1280  144.0230 C   0  0  2  0  0  3  0  0  0  0  0  0
  189.6050  176.8310  144.6390 C   0  0  0  0  0  0  0  0  0  0  0  0
  191.7520  175.6850  144.5160 C   0  0  0  0  0  3  0  0  0  0  0  0
  188.2100  177.5940  142.5720 C   0  0  0  0  0  0  0  0  0  0  0  0
  188.0140  178.3520  139.8680 C   0  0  0  0  0  3  0  0  0  0  0  0
  190.5380  176.0530  143.9360 C   0  0  0  0  0  3  0  0  0  0  0  0
  185.9440  178.0750  144.3620 C   0  0  1  0  0  3  0  0  0  0  0  0
  190.2530  177.5430  139.4880 O   0  0  0  0  0  1  0  0  0  0  0  0
  188.8810  177.9100  146.8310 C   0  0  0  0  0  2  0  0  0  0  0  0
  192.0430  176.0640  145.8250 C   0  0  0  0  0  3  0  0  0  0  0  0
  185.9220  178.4420  142.9470 N   0  0  0  0  0  2  0  0  0  0  0  0
  187.3840  178.0720  144.8880 C   0  0  1  0  0  3  0  0  0  0  0  0
  189.2770  177.3760  141.6860 C   0  0  0  0  0  3  0  0  0  0  0  0
  191.4160  177.1490  147.8760 O   0  0  0  0  0  1  0  0  0  0  0  0
  187.0250  178.1800  142.0730 C   0  0  0  0  0  0  0  0  0  0  0  0
  186.9380  178.5630  140.7320 C   0  0  0  0  0  3  0  0  0  0  0  0
  187.4600  177.6650  146.3490 C   0  0  0  0  0  2  0  0  0  0  0  0
  189.8790  177.1560  145.9940 C   0  0  0  0  0  0  0  0  0  0  0  0
  191.1120  176.7950  146.5650 C   0  0  0  0  0  0  0  0  0  0  0  0
  185.0230  179.0060  145.1490 C   0  0  0  0  0  2  0  0  0  0  0  0
  183.5760  178.5280  145.1270 C   0  0  0  0  0  2  0  0  0  0  0  0
  182.8350  179.1360  143.9480 C   0  0  0  0  0  2  0  0  0  0  0  0
  181.3600  178.7720  144.0030 C   0  0  0  0  0  2  0  0  0  0  0  0
  180.5900  179.4830  142.9020 C   0  0  0  0  0  2  0  0  0  0  0  0
  179.6700  177.5110  141.3190 S   0  0  0  0  0  0  0  0  0  0  0  0
  180.7200  178.7330  141.6240 C   0  0  0  0  0  0  0  0  0  0  0  0
  182.8810  178.6230  140.2320 C   0  0  0  0  0  0  0  0  0  0  0  0
  183.3460  177.6110  140.8180 O   0  0  0  0  0  0  0  0  0  0  0  0
  183.8000  179.3520  138.8850 S   0  0  0  0  0  1  0  0  0  0  0  0
  181.6430  179.2190  140.6370 N   0  0  0  0  0  2  0  0  0  0  0  0
  1 14  1  0  0  0  0
  2  5  1  6  0  0  0
  2  3  1  0  0  0  0
  2 13  1  0  0  0  0
  3 19  1  0  0  0  0
  4 11  2  0  0  0  0
  6  1  2  0  0  0  0
  6 17  1  0  0  0  0
  7  4  1  0  0  0  0
  7  3  2  0  0  0  0
  8 13  1  0  0  0  0
  8 21  1  1  0  0  0
  9  1  1  0  0  0  0
 11 20  1  0  0  0  0
 12  8  1  0  0  0  0
 13 18  1  1  0  0  0
 14  5  2  0  0  0  0
 16  5  1  0  0  0  0
 16 12  1  0  0  0  0
 17 16  2  0  0  0  0
 18 10  1  0  0  0  0
 19 20  2  0  0  0  0
 19 10  1  0  0  0  0
 20 15  1  0  0  0  0
 22 21  1  0  0  0  0
 23 24  1  0  0  0  0
 23 22  1  0  0  0  0
 25 24  1  0  0  0  0
 26 27  2  0  0  0  0
 27 25  1  0  0  0  0
 28 31  1  0  0  0  0
 28 29  2  0  0  0  0
 30 28  1  0  0  0  0
 31 27  1  0  0  0  0
M  END
>  <MODEL>
3

>  <REMARK>
 VINA RESULT:      -9.1      1.524      2.007
  Name = 
  7 active torsions:
  status: ('A' for Active; 'I' for Inactive)
    1  A    between atoms: C_3  and  C_19
    2  A    between atoms: C_3  and  C_22
    3  A    between atoms: C_7  and  C_9
    4  A    between atoms: C_7  and  C_22
    5  A    between atoms: C_9  and  C_23
    6  A    between atoms: C_15  and  C_23
    7  A    between atoms: C_19  and  N_24
                            x       y       z     vdW  Elec       q    Type
                         _______ _______ _______ _____ _____    ______ ____

>  <TORSDO>
F 7

$$$$
=
 OpenBabel10262419273D

 31 34  0  0  1  0  0  0  0  0999 V2000
  190.4330  177.1270  146.0500 C   0  0  0  0  0  0  0  0  0  0  0  0
  187.6810  177.4800  143.3830 C   0  0  2  0  0  3  0  0  0  0  0  0
  186.5090  177.9830  144.2230 C   0  0  0  0  0  0  0  0  0  0  0  0
  185.1640  177.8190  146.2480 C   0  0  0  0  0  3  0  0  0  0  0  0
  189.0380  177.3660  144.0670 C   0  0  0  0  0  0  0  0  0  0  0  0
  191.5690  177.0030  145.2470 C   0  0  0  0  0  3  0  0  0  0  0  0
  186.2820  177.4500  145.5010 C   0  0  0  0  0  3  0  0  0  0  0  0
  188.8220  177.4890  141.1510 C   0  0  1  0  0  3  0  0  0  0  0  0
  190.5510  177.0750  147.4310 O   0  0  0  0  0  1  0  0  0  0  0  0
  185.6600  179.3660  142.2590 C   0  0  0  0  0  2  0  0  0  0  0  0
  184.2320  178.7080  145.7140 C   0  0  0  0  0  3  0  0  0  0  0  0
  190.0980  177.3060  141.8390 N   0  0  0  0  0  2  0  0  0  0  0  0
  187.8350  178.2400  142.0520 C   0  0  1  0  0  3  0  0  0  0  0  0
  189.1770  177.3000  145.4630 C   0  0  0  0  0  3  0  0  0  0  0  0
  183.4540  180.0860  143.9060 O   0  0  0  0  0  1  0  0  0  0  0  0
  190.1920  177.2220  143.2650 C   0  0  0  0  0  0  0  0  0  0  0  0
  191.4470  177.0520  143.8570 C   0  0  0  0  0  3  0  0  0  0  0  0
  186.4810  178.4270  141.3900 C   0  0  0  0  0  2  0  0  0  0  0  0
  185.5210  178.8340  143.6590 C   0  0  0  0  0  0  0  0  0  0  0  0
  184.4050  179.2140  144.4250 C   0  0  0  0  0  0  0  0  0  0  0  0
  189.0550  178.1850  139.8100 C   0  0  0  0  0  2  0  0  0  0  0  0
  188.5720  177.3400  138.6380 C   0  0  0  0  0  2  0  0  0  0  0  0
  188.4320  178.1950  137.3900 C   0  0  0  0  0  2  0  0  0  0  0  0
  186.9750  178.2830  136.9660 C   0  0  0  0  0  2  0  0  0  0  0  0
  186.1210  177.3200  137.7740 C   0  0  0  0  0  2  0  0  0  0  0  0
  184.2480  177.1010  135.8540 S   0  0  0  0  0  0  0  0  0  0  0  0
  184.6900  177.4630  137.3910 C   0  0  0  0  0  0  0  0  0  0  0  0
  183.5540  178.9710  139.1390 C   0  0  0  0  0  0  0  0  0  0  0  0
  184.3430  179.9400  138.9870 O   0  0  0  0  0  0  0  0  0  0  0  0
  182.2010  179.1180  140.2950 S   0  0  0  0  0  1  0  0  0  0  0  0
  183.7310  177.7430  138.4220 N   0  0  0  0  0  2  0  0  0  0  0  0
  1  9  1  0  0  0  0
  2  5  1  1  0  0  0
  2  3  1  0  0  0  0
  3  7  1  0  0  0  0
  5 14  2  0  0  0  0
  6  1  2  0  0  0  0
  7  4  2  0  0  0  0
  8 21  1  6  0  0  0
  8 12  1  0  0  0  0
  8 13  1  0  0  0  0
 10 19  1  0  0  0  0
 11  4  1  0  0  0  0
 12 16  1  0  0  0  0
 13 18  1  6  0  0  0
 13  2  1  0  0  0  0
 14  1  1  0  0  0  0
 15 20  1  0  0  0  0
 16 17  2  0  0  0  0
 16  5  1  0  0  0  0
 17  6  1  0  0  0  0
 18 10  1  0  0  0  0
 19  3  2  0  0  0  0
 19 20  1  0  0  0  0
 20 11  2  0  0  0  0
 22 21  1  0  0  0  0
 23 22  1  0  0  0  0
 24 23  1  0  0  0  0
 24 25  1  0  0  0  0
 26 27  2  0  0  0  0
 27 25  1  0  0  0  0
 27 31  1  0  0  0  0
 28 30  1  0  0  0  0
 29 28  2  0  0  0  0
 31 28  1  0  0  0  0
M  END
>  <MODEL>
4

>  <REMARK>
 VINA RESULT:      -8.9      2.618      5.657
  Name = 
  7 active torsions:
  status: ('A' for Active; 'I' for Inactive)
    1  A    between atoms: C_3  and  C_19
    2  A    between atoms: C_3  and  C_22
    3  A    between atoms: C_7  and  C_9
    4  A    between atoms: C_7  and  C_22
    5  A    between atoms: C_9  and  C_23
    6  A    between atoms: C_15  and  C_23
    7  A    between atoms: C_19  and  N_24
                            x       y       z     vdW  Elec       q    Type
                         _______ _______ _______ _____ _____    ______ ____

>  <TORSDO>
F 7

$$$$
=
 OpenBabel10262419273D

 31 34  0  0  1  0  0  0  0  0999 V2000
  190.2290  177.1590  146.7120 C   0  0  0  0  0  0  0  0  0  0  0  0
  187.6100  177.3020  143.8960 C   0  0  2  0  0  3  0  0  0  0  0  0
  186.4290  177.9520  144.6130 C   0  0  0  0  0  0  0  0  0  0  0  0
  184.9940  178.0920  146.5780 C   0  0  0  0  0  3  0  0  0  0  0  0
  188.9300  177.2150  144.6520 C   0  0  0  0  0  0  0  0  0  0  0  0
  191.3890  176.8910  145.9840 C   0  0  0  0  0  3  0  0  0  0  0  0
  186.1240  177.5890  145.9340 C   0  0  0  0  0  3  0  0  0  0  0  0
  188.8410  176.9920  141.7340 C   0  0  1  0  0  3  0  0  0  0  0  0
  190.2860  177.2700  148.0930 O   0  0  0  0  0  1  0  0  0  0  0  0
  185.7290  179.1210  142.4610 C   0  0  0  0  0  2  0  0  0  0  0  0
  184.1290  178.9490  145.8990 C   0  0  0  0  0  3  0  0  0  0  0  0
  190.0780  176.8400  142.4990 N   0  0  0  0  0  2  0  0  0  0  0  0
  187.8550  177.8880  142.4930 C   0  0  1  0  0  3  0  0  0  0  0  0
  189.0080  177.3130  146.0500 C   0  0  0  0  0  3  0  0  0  0  0  0
  183.4930  180.1290  143.9050 O   0  0  0  0  0  1  0  0  0  0  0  0
  190.1090  176.9250  143.9280 C   0  0  0  0  0  0  0  0  0  0  0  0
  191.3280  176.7760  144.5940 C   0  0  0  0  0  3  0  0  0  0  0  0
  186.5400  178.0500  141.7500 C   0  0  0  0  0  2  0  0  0  0  0  0
  185.5070  178.7700  143.9070 C   0  0  0  0  0  0  0  0  0  0  0  0
  184.3800  179.2860  144.5680 C   0  0  0  0  0  0  0  0  0  0  0  0
  189.1630  177.5100  140.3330 C   0  0  0  0  0  2  0  0  0  0  0  0
  190.6580  177.4750  140.0420 C   0  0  0  0  0  2  0  0  0  0  0  0
  190.9410  176.6130  138.8230 C   0  0  0  0  0  2  0  0  0  0  0  0
  190.0390  177.0150  137.6670 C   0  0  0  0  0  2  0  0  0  0  0  0
  189.2580  175.8170  137.1540 C   0  0  0  0  0  2  0  0  0  0  0  0
  188.0080  176.1180  134.7890 S   0  0  0  0  0  0  0  0  0  0  0  0
  188.0460  176.2750  136.4210 C   0  0  0  0  0  0  0  0  0  0  0  0
  186.4790  178.0060  137.5020 C   0  0  0  0  0  0  0  0  0  0  0  0
  187.1880  179.0040  137.2080 O   0  0  0  0  0  0  0  0  0  0  0  0
  184.9330  178.2530  138.3600 S   0  0  0  0  0  1  0  0  0  0  0  0
  186.8960  176.6730  137.1830 N   0  0  0  0  0  2  0  0  0  0  0  0
  1  9  1  0  0  0  0
  2  3  1  1  0  0  0
  2  5  1  0  0  0  0
  3  7  1  0  0  0  0
  5 14  2  0  0  0  0
  6  1  2  0  0  0  0
  7  4  2  0  0  0  0
  8 21  1  6  0  0  0
  8 13  1  0  0  0  0
  8 12  1  0  0  0  0
 10 19  1  0  0  0  0
 11  4  1  0  0  0  0
 12 16  1  0  0  0  0
 13 18  1  6  0  0  0
 13  2  1  0  0  0  0
 14  1  1  0  0  0  0
 15 20  1  0  0  0  0
 16 17  2  0  0  0  0
 16  5  1  0  0  0  0
 17  6  1  0  0  0  0
 18 10  1  0  0  0  0
 19 20  1  0  0  0  0
 19  3  2  0  0  0  0
 20 11  2  0  0  0  0
 22 21  1  0  0  0  0
 23 22  1  0  0  0  0
 24 23  1  0  0  0  0
 25 24  1  0  0  0  0
 26 27  2  0  0  0  0
 27 25  1  0  0  0  0
 27 31  1  0  0  0  0
 28 30  1  0  0  0  0
 29 28  2  0  0  0  0
 31 28  1  0  0  0  0
M  END
>  <MODEL>
5

>  <REMARK>
 VINA RESULT:      -8.8      3.203      6.687
  Name = 
  7 active torsions:
  status: ('A' for Active; 'I' for Inactive)
    1  A    between atoms: C_3  and  C_19
    2  A    between atoms: C_3  and  C_22
    3  A    between atoms: C_7  and  C_9
    4  A    between atoms: C_7  and  C_22
    5  A    between atoms: C_9  and  C_23
    6  A    between atoms: C_15  and  C_23
    7  A    between atoms: C_19  and  N_24
                            x       y       z     vdW  Elec       q    Type
                         _______ _______ _______ _____ _____    ______ ____

>  <TORSDO>
F 7

$$$$
=
 OpenBabel10262419273D

 31 34  0  0  1  0  0  0  0  0999 V2000
  185.1890  178.3170  145.5100 C   0  0  0  0  0  0  0  0  0  0  0  0
  188.7600  177.9870  144.1140 C   0  0  2  0  0  3  0  0  0  0  0  0
  189.5140  177.4620  145.3340 C   0  0  0  0  0  0  0  0  0  0  0  0
  189.9680  177.5840  147.7250 C   0  0  0  0  0  3  0  0  0  0  0  0
  187.2440  178.1000  144.2200 C   0  0  0  0  0  0  0  0  0  0  0  0
  184.4540  178.4620  144.3320 C   0  0  0  0  0  3  0  0  0  0  0  0
  189.2270  177.9730  146.6090 C   0  0  0  0  0  3  0  0  0  0  0  0
  188.5750  178.0210  141.6150 C   0  0  1  0  0  3  0  0  0  0  0  0
  184.5440  178.3480  146.7380 O   0  0  0  0  0  1  0  0  0  0  0  0
  191.0590  176.1050  143.8300 C   0  0  0  0  0  2  0  0  0  0  0  0
  191.0340  176.6970  147.5790 C   0  0  0  0  0  3  0  0  0  0  0  0
  187.1310  178.2020  141.7570 N   0  0  0  0  0  2  0  0  0  0  0  0
  189.1340  177.2490  142.8150 C   0  0  1  0  0  3  0  0  0  0  0  0
  186.5740  178.1440  145.4530 C   0  0  0  0  0  3  0  0  0  0  0  0
  192.4520  175.3430  146.1910 O   0  0  0  0  0  1  0  0  0  0  0  0
  186.4910  178.2650  143.0360 C   0  0  0  0  0  0  0  0  0  0  0  0
  185.1050  178.4340  143.0970 C   0  0  0  0  0  3  0  0  0  0  0  0
  190.6390  177.0630  142.7270 C   0  0  0  0  0  2  0  0  0  0  0  0
  190.6430  176.6140  145.1830 C   0  0  0  0  0  0  0  0  0  0  0  0
  191.3740  176.2140  146.3150 C   0  0  0  0  0  0  0  0  0  0  0  0
  188.8800  177.3490  140.2770 C   0  0  0  0  0  2  0  0  0  0  0  0
  189.3080  178.3560  139.2170 C   0  0  0  0  0  2  0  0  0  0  0  0
  188.2930  178.4010  138.0870 C   0  0  0  0  0  2  0  0  0  0  0  0
  188.9960  178.3890  136.7390 C   0  0  0  0  0  2  0  0  0  0  0  0
  188.5050  177.2300  135.8880 C   0  0  0  0  0  2  0  0  0  0  0  0
  189.1550  174.7380  135.1070 S   0  0  0  0  0  0  0  0  0  0  0  0
  189.5110  176.1340  135.8910 C   0  0  0  0  0  0  0  0  0  0  0  0
  191.4200  175.8130  137.5860 C   0  0  0  0  0  0  0  0  0  0  0  0
  190.7790  175.0330  138.3380 O   0  0  0  0  0  0  0  0  0  0  0  0
  193.1120  176.2190  137.9870 S   0  0  0  0  0  1  0  0  0  0  0  0
  190.8150  176.4020  136.4290 N   0  0  0  0  0  2  0  0  0  0  0  0
  1  9  1  0  0  0  0
  2  5  1  1  0  0  0
  2  3  1  0  0  0  0
  3  7  1  0  0  0  0
  5 14  2  0  0  0  0
  6  1  2  0  0  0  0
  7  4  2  0  0  0  0
  8 21  1  6  0  0  0
  8 12  1  0  0  0  0
  8 13  1  0  0  0  0
 10 19  1  0  0  0  0
 11  4  1  0  0  0  0
 12 16  1  0  0  0  0
 13 18  1  6  0  0  0
 13  2  1  0  0  0  0
 14  1  1  0  0  0  0
 15 20  1  0  0  0  0
 16 17  2  0  0  0  0
 16  5  1  0  0  0  0
 17  6  1  0  0  0  0
 18 10  1  0  0  0  0
 19  3  2  0  0  0  0
 19 20  1  0  0  0  0
 20 11  2  0  0  0  0
 22 21  1  0  0  0  0
 23 22  1  0  0  0  0
 24 23  1  0  0  0  0
 25 27  1  0  0  0  0
 25 24  1  0  0  0  0
 26 27  2  0  0  0  0
 27 31  1  0  0  0  0
 28 30  1  0  0  0  0
 28 29  2  0  0  0  0
 31 28  1  0  0  0  0
M  END
>  <MODEL>
6

>  <REMARK>
 VINA RESULT:      -8.8      4.021      6.928
  Name = 
  7 active torsions:
  status: ('A' for Active; 'I' for Inactive)
    1  A    between atoms: C_3  and  C_19
    2  A    between atoms: C_3  and  C_22
    3  A    between atoms: C_7  and  C_9
    4  A    between atoms: C_7  and  C_22
    5  A    between atoms: C_9  and  C_23
    6  A    between atoms: C_15  and  C_23
    7  A    between atoms: C_19  and  N_24
                            x       y       z     vdW  Elec       q    Type
                         _______ _______ _______ _____ _____    ______ ____

>  <TORSDO>
F 7

$$$$
=
 OpenBabel10262419273D

 31 34  0  0  1  0  0  0  0  0999 V2000
  185.3880  178.2820  145.3010 C   0  0  0  0  0  0  0  0  0  0  0  0
  189.0140  177.8350  144.0930 C   0  0  2  0  0  3  0  0  0  0  0  0
  189.7030  177.3630  145.3710 C   0  0  0  0  0  0  0  0  0  0  0  0
  190.0480  177.5990  147.7720 C   0  0  0  0  0  3  0  0  0  0  0  0
  187.4970  177.9730  144.1220 C   0  0  0  0  0  0  0  0  0  0  0  0
  184.7110  178.3770  144.0840 C   0  0  0  0  0  3  0  0  0  0  0  0
  189.3660  177.9400  146.6040 C   0  0  0  0  0  3  0  0  0  0  0  0
  188.9450  177.7460  141.5880 C   0  0  1  0  0  3  0  0  0  0  0  0
  184.6880  178.3830  146.4950 O   0  0  0  0  0  1  0  0  0  0  0  0
  191.2940  175.9110  144.0100 C   0  0  0  0  0  2  0  0  0  0  0  0
  191.1060  176.6920  147.7200 C   0  0  0  0  0  3  0  0  0  0  0  0
  187.4990  177.9530  141.6540 N   0  0  0  0  0  2  0  0  0  0  0  0
  189.4360  177.0280  142.8500 C   0  0  1  0  0  3  0  0  0  0  0  0
  186.7720  178.0890  145.3180 C   0  0  0  0  0  3  0  0  0  0  0  0
  192.5650  175.2500  146.4680 O   0  0  0  0  0  1  0  0  0  0  0  0
  186.8020  178.0890  142.8960 C   0  0  0  0  0  0  0  0  0  0  0  0
  185.4180  178.2790  142.8850 C   0  0  0  0  0  3  0  0  0  0  0  0
  190.9410  176.8180  142.8420 C   0  0  0  0  0  2  0  0  0  0  0  0
  190.8240  176.4930  145.3160 C   0  0  0  0  0  0  0  0  0  0  0  0
  191.4960  176.1400  146.4990 C   0  0  0  0  0  0  0  0  0  0  0  0
  189.3010  177.0030  140.3010 C   0  0  0  0  0  2  0  0  0  0  0  0
  190.0930  177.8790  139.3380 C   0  0  0  0  0  2  0  0  0  0  0  0
  189.4000  177.9420  137.9870 C   0  0  0  0  0  2  0  0  0  0  0  0
  187.9850  177.3940  138.0890 C   0  0  0  0  0  2  0  0  0  0  0  0
  186.9660  178.4870  137.8120 C   0  0  0  0  0  2  0  0  0  0  0  0
  185.4620  177.1150  136.0510 S   0  0  0  0  0  0  0  0  0  0  0  0
  185.6450  177.8810  137.4900 C   0  0  0  0  0  0  0  0  0  0  0  0
  184.0930  178.9460  139.2440 C   0  0  0  0  0  0  0  0  0  0  0  0
  184.5480  180.1120  139.1090 O   0  0  0  0  0  0  0  0  0  0  0  0
  182.7560  178.6560  140.3910 S   0  0  0  0  0  1  0  0  0  0  0  0
  184.6420  177.8410  138.5160 N   0  0  0  0  0  2  0  0  0  0  0  0
  1 14  1  0  0  0  0
  1  9  1  0  0  0  0
  2  5  1  1  0  0  0
  2  3  1  0  0  0  0
  3  7  1  0  0  0  0
  5 14  2  0  0  0  0
  6  1  2  0  0  0  0
  7  4  2  0  0  0  0
  8 21  1  6  0  0  0
  8 12  1  0  0  0  0
  8 13  1  0  0  0  0
 10 19  1  0  0  0  0
 11  4  1  0  0  0  0
 12 16  1  0  0  0  0
 13 18  1  6  0  0  0
 13  2  1  0  0  0  0
 15 20  1  0  0  0  0
 16  5  1  0  0  0  0
 17 16  2  0  0  0  0
 17  6  1  0  0  0  0
 18 10  1  0  0  0  0
 19  3  2  0  0  0  0
 19 20  1  0  0  0  0
 20 11  2  0  0  0  0
 22 21  1  0  0  0  0
 23 24  1  0  0  0  0
 23 22  1  0  0  0  0
 25 24  1  0  0  0  0
 26 27  2  0  0  0  0
 27 25  1  0  0  0  0
 27 31  1  0  0  0  0
 28 30  1  0  0  0  0
 29 28  2  0  0  0  0
 31 28  1  0  0  0  0
M  END
>  <MODEL>
7

>  <REMARK>
 VINA RESULT:      -8.7      2.778      5.377
  Name = 
  7 active torsions:
  status: ('A' for Active; 'I' for Inactive)
    1  A    between atoms: C_3  and  C_19
    2  A    between atoms: C_3  and  C_22
    3  A    between atoms: C_7  and  C_9
    4  A    between atoms: C_7  and  C_22
    5  A    between atoms: C_9  and  C_23
    6  A    between atoms: C_15  and  C_23
    7  A    between atoms: C_19  and  N_24
                            x       y       z     vdW  Elec       q    Type
                         _______ _______ _______ _____ _____    ______ ____

>  <TORSDO>
F 7

$$$$
=
 OpenBabel10262419273D

 31 34  0  0  1  0  0  0  0  0999 V2000
  180.5130  178.5190  143.6100 C   0  0  0  0  0  0  0  0  0  0  0  0
  184.2450  179.0250  142.8190 C   0  0  2  0  0  3  0  0  0  0  0  0
  184.8920  178.6120  144.1390 C   0  0  0  0  0  0  0  0  0  0  0  0
  184.9250  178.7090  146.5740 C   0  0  0  0  0  3  0  0  0  0  0  0
  182.7440  178.8080  142.6750 C   0  0  0  0  0  0  0  0  0  0  0  0
  179.9600  178.5630  142.3290 C   0  0  0  0  0  3  0  0  0  0  0  0
  184.3030  178.9860  145.3570 C   0  0  0  0  0  3  0  0  0  0  0  0
  184.4550  179.1430  140.3240 C   0  0  1  0  0  3  0  0  0  0  0  0
  179.6910  178.3510  144.7150 O   0  0  0  0  0  1  0  0  0  0  0  0
  186.9130  177.6900  142.8920 C   0  0  0  0  0  2  0  0  0  0  0  0
  186.1670  178.0760  146.5940 C   0  0  0  0  0  3  0  0  0  0  0  0
  183.0030  179.0060  140.2280 N   0  0  0  0  0  2  0  0  0  0  0  0
  184.9710  178.4480  141.5890 C   0  0  1  0  0  3  0  0  0  0  0  0
  181.8940  178.6480  143.7810 C   0  0  0  0  0  3  0  0  0  0  0  0
  188.0470  177.1250  145.4390 O   0  0  0  0  0  1  0  0  0  0  0  0
  182.1700  178.8680  141.3850 C   0  0  0  0  0  0  0  0  0  0  0  0
  180.7890  178.7360  141.2190 C   0  0  0  0  0  3  0  0  0  0  0  0
  186.4750  178.5910  141.7480 C   0  0  0  0  0  2  0  0  0  0  0  0
  186.1880  178.0310  144.1650 C   0  0  0  0  0  0  0  0  0  0  0  0
  186.8000  177.7390  145.3960 C   0  0  0  0  0  0  0  0  0  0  0  0
  185.1070  178.6180  139.0460 C   0  0  0  0  0  2  0  0  0  0  0  0
  184.1110  177.8780  138.1610 C   0  0  0  0  0  2  0  0  0  0  0  0
  184.8350  177.1470  137.0430 C   0  0  0  0  0  2  0  0  0  0  0  0
  186.3100  177.5170  137.0340 C   0  0  0  0  0  2  0  0  0  0  0  0
  187.1760  176.2730  137.1330 C   0  0  0  0  0  2  0  0  0  0  0  0
  189.2660  177.3410  135.8140 S   0  0  0  0  0  0  0  0  0  0  0  0
  188.6150  176.6550  137.1540 C   0  0  0  0  0  0  0  0  0  0  0  0
  189.4170  177.5610  139.4240 C   0  0  0  0  0  0  0  0  0  0  0  0
  188.9300  178.7110  139.2690 O   0  0  0  0  0  0  0  0  0  0  0  0
  190.2650  177.1680  140.9460 S   0  0  0  0  0  1  0  0  0  0  0  0
  189.3280  176.5670  138.3960 N   0  0  0  0  0  2  0  0  0  0  0  0
  1 14  1  0  0  0  0
  1  9  1  0  0  0  0
  2  5  1  1  0  0  0
  2  3  1  0  0  0  0
  3 19  2  0  0  0  0
  3  7  1  0  0  0  0
  4 11  1  0  0  0  0
  5 14  2  0  0  0  0
  6  1  2  0  0  0  0
  7  4  2  0  0  0  0
  8 21  1  6  0  0  0
  8 13  1  0  0  0  0
 10 19  1  0  0  0  0
 12  8  1  0  0  0  0
 12 16  1  0  0  0  0
 13 18  1  1  0  0  0
 13  2  1  0  0  0  0
 16  5  1  0  0  0  0
 17 16  2  0  0  0  0
 17  6  1  0  0  0  0
 18 10  1  0  0  0  0
 19 20  1  0  0  0  0
 20 15  1  0  0  0  0
 20 11  2  0  0  0  0
 22 21  1  0  0  0  0
 23 22  1  0  0  0  0
 24 23  1  0  0  0  0
 24 25  1  0  0  0  0
 25 27  1  0  0  0  0
 26 27  2  0  0  0  0
 27 31  1  0  0  0  0
 28 30  1  0  0  0  0
 29 28  2  0  0  0  0
 31 28  1  0  0  0  0
M  END
>  <MODEL>
8

>  <REMARK>
 VINA RESULT:      -8.6      3.222      6.570
  Name = 
  7 active torsions:
  status: ('A' for Active; 'I' for Inactive)
    1  A    between atoms: C_3  and  C_19
    2  A    between atoms: C_3  and  C_22
    3  A    between atoms: C_7  and  C_9
    4  A    between atoms: C_7  and  C_22
    5  A    between atoms: C_9  and  C_23
    6  A    between atoms: C_15  and  C_23
    7  A    between atoms: C_19  and  N_24
                            x       y       z     vdW  Elec       q    Type
                         _______ _______ _______ _____ _____    ______ ____

>  <TORSDO>
F 7

$$$$
=
 OpenBabel10262419273D

 31 34  0  0  1  0  0  0  0  0999 V2000
  191.6310  176.2720  146.6530 C   0  0  0  0  0  0  0  0  0  0  0  0
  189.4300  177.8540  143.9210 C   0  0  2  0  0  3  0  0  0  0  0  0
  190.2450  177.5550  142.6650 C   0  0  0  0  0  0  0  0  0  0  0  0
  192.4040  177.4980  141.5350 C   0  0  0  0  0  3  0  0  0  0  0  0
  189.9030  177.2350  145.2300 C   0  0  0  0  0  0  0  0  0  0  0  0
  190.7410  176.2430  147.7280 C   0  0  0  0  0  3  0  0  0  0  0  0
  191.6430  177.6690  142.6920 C   0  0  0  0  0  3  0  0  0  0  0  0
  187.1540  178.1890  144.9170 C   0  0  1  0  0  3  0  0  0  0  0  0
  192.9290  175.8100  146.8130 O   0  0  0  0  0  1  0  0  0  0  0  0
  188.1070  177.3190  141.2990 C   0  0  0  0  0  2  0  0  0  0  0  0
  191.7730  177.2400  140.3190 C   0  0  0  0  0  3  0  0  0  0  0  0
  187.6640  177.6570  146.1790 N   0  0  0  0  0  2  0  0  0  0  0  0
  187.9240  177.5860  143.7360 C   0  0  1  0  0  3  0  0  0  0  0  0
  191.2160  176.7720  145.4150 C   0  0  0  0  0  3  0  0  0  0  0  0
  189.7720  176.9310  139.0250 O   0  0  0  0  0  1  0  0  0  0  0  0
  189.0180  177.2160  146.3310 C   0  0  0  0  0  0  0  0  0  0  0  0
  189.4370  176.7130  147.5660 C   0  0  0  0  0  3  0  0  0  0  0  0
  187.4490  178.1340  142.4020 C   0  0  0  0  0  2  0  0  0  0  0  0
  189.6070  177.3600  141.4110 C   0  0  0  0  0  0  0  0  0  0  0  0
  190.3810  177.1720  140.2530 C   0  0  0  0  0  0  0  0  0  0  0  0
  185.6470  177.9510  144.8300 C   0  0  0  0  0  2  0  0  0  0  0  0
  184.8580  179.2500  144.9470 C   0  0  0  0  0  2  0  0  0  0  0  0
  183.3670  178.9620  144.9940 C   0  0  0  0  0  2  0  0  0  0  0  0
  182.7720  179.0100  143.5950 C   0  0  0  0  0  2  0  0  0  0  0  0
  183.8150  178.6370  142.5550 C   0  0  0  0  0  2  0  0  0  0  0  0
  181.5930  178.8720  141.0530 S   0  0  0  0  0  0  0  0  0  0  0  0
  183.1660  178.4400  141.2310 C   0  0  0  0  0  0  0  0  0  0  0  0
  184.5920  178.8920  139.1370 C   0  0  0  0  0  0  0  0  0  0  0  0
  184.3600  180.1290  139.1020 O   0  0  0  0  0  0  0  0  0  0  0  0
  185.6770  178.1710  137.9160 S   0  0  0  0  0  1  0  0  0  0  0  0
  183.9840  178.0440  140.1200 N   0  0  0  0  0  2  0  0  0  0  0  0
  1  9  1  0  0  0  0
  1  6  1  0  0  0  0
  2  3  1  6  0  0  0
  2  5  1  0  0  0  0
  3  7  1  0  0  0  0
  4  7  2  0  0  0  0
  5 14  1  0  0  0  0
  5 16  2  0  0  0  0
  8 21  1  6  0  0  0
  8 12  1  0  0  0  0
 10 19  1  0  0  0  0
 10 18  1  0  0  0  0
 11  4  1  0  0  0  0
 12 16  1  0  0  0  0
 13 18  1  6  0  0  0
 13  2  1  0  0  0  0
 13  8  1  0  0  0  0
 14  1  2  0  0  0  0
 15 20  1  0  0  0  0
 16 17  1  0  0  0  0
 17  6  2  0  0  0  0
 19  3  2  0  0  0  0
 20 11  2  0  0  0  0
 20 19  1  0  0  0  0
 21 22  1  0  0  0  0
 22 23  1  0  0  0  0
 24 23  1  0  0  0  0
 25 24  1  0  0  0  0
 26 27  2  0  0  0  0
 27 25  1  0  0  0  0
 28 31  1  0  0  0  0
 29 28  2  0  0  0  0
 30 28  1  0  0  0  0
 31 27  1  0  0  0  0
M  END
>  <MODEL>
9

>  <REMARK>
 VINA RESULT:      -8.6      2.291      5.063
  Name = 
  7 active torsions:
  status: ('A' for Active; 'I' for Inactive)
    1  A    between atoms: C_3  and  C_19
    2  A    between atoms: C_3  and  C_22
    3  A    between atoms: C_7  and  C_9
    4  A    between atoms: C_7  and  C_22
    5  A    between atoms: C_9  and  C_23
    6  A    between atoms: C_15  and  C_23
    7  A    between atoms: C_19  and  N_24
                            x       y       z     vdW  Elec       q    Type
                         _______ _______ _______ _____ _____    ______ ____

>  <TORSDO>
F 7

$$$$
