=
 OpenBabel10252415053D

 34 38  0  0  1  0  0  0  0  0999 V2000
  186.5250  178.1450  145.8570 C   0  0  0  0  0  0  0  0  0  0  0  0
  185.2910  178.4470  143.7910 C   0  0  0  0  0  3  0  0  0  0  0  0
  187.7030  177.8850  143.7320 C   0  0  0  0  0  0  0  0  0  0  0  0
  189.0460  177.6160  141.6180 N   0  0  0  0  0  0  0  0  0  0  0  0
  184.1640  178.6780  145.9170 C   0  0  0  0  0  3  0  0  0  0  0  0
  182.8550  178.9870  143.8140 C   0  0  0  0  0  1  0  0  0  0  0  0
  186.8350  178.3480  141.5340 O   0  0  0  0  0  0  0  0  0  0  0  0
  186.5070  178.1690  144.4440 C   0  0  0  0  0  0  0  0  0  0  0  0
  185.3590  178.4010  146.5860 C   0  0  0  0  0  3  0  0  0  0  0  0
  188.8730  177.5540  144.4640 C   0  0  0  0  0  0  0  0  0  0  0  0
  187.6800  177.8800  146.5210 N   0  0  0  0  0  0  0  0  0  0  0  0
  184.1290  178.7020  144.5230 C   0  0  0  0  0  0  0  0  0  0  0  0
  189.9840  176.7690  142.3340 C   0  0  0  0  0  2  0  0  0  0  0  0
  190.2030  177.3050  143.7510 C   0  0  2  0  0  3  0  0  0  0  0  0
  187.7980  177.9560  142.2390 C   0  0  0  0  0  0  0  0  0  0  0  0
  188.8290  177.5980  145.8650 C   0  0  0  0  0  3  0  0  0  0  0  0
  192.1600  175.7910  146.6100 C   0  0  0  0  0  0  0  0  0  0  0  0
  192.6020  174.6370  146.0340 N   0  0  0  0  0  0  0  0  0  0  0  0
  191.1200  176.3900  144.5320 C   0  0  0  0  0  0  0  0  0  0  0  0
  192.3490  174.3680  144.7320 C   0  0  0  0  0  3  0  0  0  0  0  0
  191.3980  176.6880  145.8670 C   0  0  0  0  0  3  0  0  0  0  0  0
  191.5870  175.2260  143.9940 N   0  0  0  0  0  0  0  0  0  0  0  0
  192.4040  176.0390  148.0530 C   0  0  0  0  0  1  0  0  0  0  0  0
  189.3390  177.9780  140.2380 C   0  0  0  0  0  2  0  0  0  0  0  0
  190.6630  177.3570  139.8070 C   0  0  0  0  0  2  0  0  0  0  0  0
  190.5740  176.7490  138.4100 C   0  0  0  0  0  2  0  0  0  0  0  0
  189.5860  177.4970  137.5130 C   0  0  0  0  0  2  0  0  0  0  0  0
  186.7710  178.1250  137.4570 C   0  0  0  0  0  1  0  0  0  0  0  0
  188.6340  176.5690  136.9020 N   0  0  0  0  0  0  0  0  0  0  0  0
  187.3050  176.6980  137.5310 C   0  0  2  0  0  3  0  0  0  0  0  0
  186.8090  174.3250  136.9690 C   0  0  0  0  0  2  0  0  0  0  0  0
  188.2360  174.2000  136.4340 C   0  0  0  0  0  2  0  0  0  0  0  0
  189.1340  175.2140  137.1430 C   0  0  0  0  0  2  0  0  0  0  0  0
  186.3130  175.7640  136.8290 C   0  0  0  0  0  2  0  0  0  0  0  0
  1 11  1  0  0  0  0
  1  9  2  0  0  0  0
  2  8  2  0  0  0  0
  2 12  1  0  0  0  0
  3  8  1  0  0  0  0
  3 10  2  0  0  0  0
  4 15  1  0  0  0  0
  4 13  1  0  0  0  0
  5  9  1  0  0  0  0
  6 12  1  0  0  0  0
  7 15  2  0  0  0  0
  8  1  1  0  0  0  0
 10 16  1  0  0  0  0
 12  5  2  0  0  0  0
 13 14  1  0  0  0  0
 14 10  1  0  0  0  0
 14 19  1  1  0  0  0
 15  3  1  0  0  0  0
 16 11  2  0  0  0  0
 17 23  1  0  0  0  0
 18 17  1  0  0  0  0
 19 21  1  0  0  0  0
 20 18  2  0  0  0  0
 21 17  2  0  0  0  0
 22 19  2  0  0  0  0
 22 20  1  0  0  0  0
 24  4  1  0  0  0  0
 25 24  1  0  0  0  0
 26 25  1  0  0  0  0
 27 26  1  0  0  0  0
 29 33  1  0  0  0  0
 29 27  1  0  0  0  0
 29 30  1  0  0  0  0
 30 28  1  6  0  0  0
 32 31  1  0  0  0  0
 32 33  1  0  0  0  0
 34 31  1  0  0  0  0
 34 30  1  0  0  0  0
M  END
>  <MODEL>
1

>  <REMARK>
 VINA RESULT:      -9.7      0.000      0.000
  Name = 
  6 active torsions:
  status: ('A' for Active; 'I' for Inactive)
    1  A    between atoms: C_3  and  N_13
    2  A    between atoms: C_3  and  C_17
    3  A    between atoms: N_5  and  C_18
    4  A    between atoms: C_12  and  C_28
    5  A    between atoms: C_17  and  C_29
    6  A    between atoms: C_18  and  C_29
                            x       y       z     vdW  Elec       q    Type
                         _______ _______ _______ _____ _____    ______ ____

>  <TORSDO>
F 6

$$$$
=
 OpenBabel10252415053D

 34 38  0  0  1  0  0  0  0  0999 V2000
  186.2560  178.1600  145.7600 C   0  0  0  0  0  0  0  0  0  0  0  0
  185.0150  178.5150  143.7070 C   0  0  0  0  0  3  0  0  0  0  0  0
  187.4420  178.0250  143.6270 C   0  0  0  0  0  0  0  0  0  0  0  0
  188.7920  177.8840  141.5060 N   0  0  0  0  0  0  0  0  0  0  0  0
  183.8820  178.6230  145.8400 C   0  0  0  0  0  3  0  0  0  0  0  0
  182.5640  178.9850  143.7500 C   0  0  0  0  0  1  0  0  0  0  0  0
  186.5600  178.5570  141.4500 O   0  0  0  0  0  0  0  0  0  0  0  0
  186.2380  178.2440  144.3490 C   0  0  0  0  0  0  0  0  0  0  0  0
  185.0830  178.3520  146.4980 C   0  0  0  0  0  3  0  0  0  0  0  0
  188.6200  177.6960  144.3460 C   0  0  0  0  0  0  0  0  0  0  0  0
  187.4190  177.8990  146.4140 N   0  0  0  0  0  0  0  0  0  0  0  0
  183.8460  178.7060  144.4480 C   0  0  0  0  0  0  0  0  0  0  0  0
  189.7540  177.0340  142.1860 C   0  0  0  0  0  2  0  0  0  0  0  0
  189.9570  177.5150  143.6250 C   0  0  2  0  0  3  0  0  0  0  0  0
  187.5340  178.1620  142.1380 C   0  0  0  0  0  0  0  0  0  0  0  0
  188.5750  177.6780  145.7480 C   0  0  0  0  0  3  0  0  0  0  0  0
  191.9710  175.9480  146.4150 C   0  0  0  0  0  0  0  0  0  0  0  0
  192.4300  174.8230  145.7980 N   0  0  0  0  0  0  0  0  0  0  0  0
  190.8990  176.5930  144.3670 C   0  0  0  0  0  0  0  0  0  0  0  0
  192.1690  174.5910  144.4890 C   0  0  0  0  0  3  0  0  0  0  0  0
  191.1840  176.8530  145.7080 C   0  0  0  0  0  3  0  0  0  0  0  0
  191.3840  175.4570  143.7870 N   0  0  0  0  0  0  0  0  0  0  0  0
  192.2240  176.1540  147.8630 C   0  0  0  0  0  1  0  0  0  0  0  0
  189.0750  178.3130  140.1420 C   0  0  0  0  0  2  0  0  0  0  0  0
  188.6100  177.2490  139.1550 C   0  0  0  0  0  2  0  0  0  0  0  0
  189.6550  176.9830  138.0750 C   0  0  0  0  0  2  0  0  0  0  0  0
  190.9180  176.3280  138.6400 C   0  0  0  0  0  2  0  0  0  0  0  0
  193.5800  175.4610  137.9480 C   0  0  0  0  0  1  0  0  0  0  0  0
  191.1330  175.0130  138.0380 N   0  0  0  0  0  0  0  0  0  0  0  0
  192.3360  175.0210  137.1830 C   0  0  2  0  0  3  0  0  0  0  0  0
  191.3590  173.2040  135.7900 C   0  0  0  0  0  2  0  0  0  0  0  0
  190.0840  173.3090  136.6270 C   0  0  0  0  0  2  0  0  0  0  0  0
  189.9680  174.7220  137.2010 C   0  0  0  0  0  2  0  0  0  0  0  0
  192.5750  173.6160  136.6200 C   0  0  0  0  0  2  0  0  0  0  0  0
  1 11  1  0  0  0  0
  1  9  2  0  0  0  0
  2  8  2  0  0  0  0
  2 12  1  0  0  0  0
  3 10  2  0  0  0  0
  3  8  1  0  0  0  0
  4 15  1  0  0  0  0
  4 13  1  0  0  0  0
  5  9  1  0  0  0  0
  6 12  1  0  0  0  0
  7 15  2  0  0  0  0
  8  1  1  0  0  0  0
 10 16  1  0  0  0  0
 12  5  2  0  0  0  0
 13 14  1  0  0  0  0
 14 10  1  0  0  0  0
 14 19  1  1  0  0  0
 15  3  1  0  0  0  0
 16 11  2  0  0  0  0
 17 23  1  0  0  0  0
 18 17  1  0  0  0  0
 19 21  1  0  0  0  0
 20 18  2  0  0  0  0
 21 17  2  0  0  0  0
 22 19  2  0  0  0  0
 22 20  1  0  0  0  0
 24  4  1  0  0  0  0
 25 24  1  0  0  0  0
 26 27  1  0  0  0  0
 26 25  1  0  0  0  0
 29 27  1  0  0  0  0
 30 28  1  1  0  0  0
 30 29  1  0  0  0  0
 31 34  1  0  0  0  0
 31 32  1  0  0  0  0
 32 33  1  0  0  0  0
 33 29  1  0  0  0  0
 34 30  1  0  0  0  0
M  END
>  <MODEL>
2

>  <REMARK>
 VINA RESULT:      -9.6      1.382      2.282
  Name = 
  6 active torsions:
  status: ('A' for Active; 'I' for Inactive)
    1  A    between atoms: C_3  and  N_13
    2  A    between atoms: C_3  and  C_17
    3  A    between atoms: N_5  and  C_18
    4  A    between atoms: C_12  and  C_28
    5  A    between atoms: C_17  and  C_29
    6  A    between atoms: C_18  and  C_29
                            x       y       z     vdW  Elec       q    Type
                         _______ _______ _______ _____ _____    ______ ____

>  <TORSDO>
F 6

$$$$
=
 OpenBabel10252415053D

 34 38  0  0  1  0  0  0  0  0999 V2000
  188.5240  177.7120  143.7710 C   0  0  0  0  0  0  0  0  0  0  0  0
  187.2170  177.6800  145.8130 C   0  0  0  0  0  3  0  0  0  0  0  0
  186.1510  178.2840  143.6600 C   0  0  0  0  0  0  0  0  0  0  0  0
  183.7270  178.9200  143.4060 N   0  0  0  0  0  0  0  0  0  0  0  0
  189.5650  177.1070  145.8700 C   0  0  0  0  0  3  0  0  0  0  0  0
  188.2540  177.0510  147.9940 C   0  0  0  0  0  1  0  0  0  0  0  0
  184.6490  178.5760  145.5200 O   0  0  0  0  0  0  0  0  0  0  0  0
  187.2860  177.9030  144.4250 C   0  0  0  0  0  0  0  0  0  0  0  0
  189.6560  177.3190  144.4930 C   0  0  0  0  0  3  0  0  0  0  0  0
  186.2900  178.4290  142.2560 C   0  0  0  0  0  0  0  0  0  0  0  0
  188.6290  177.9180  142.4310 N   0  0  0  0  0  0  0  0  0  0  0  0
  188.3500  177.2870  146.5300 C   0  0  0  0  0  0  0  0  0  0  0  0
  183.7750  178.5070  142.0140 C   0  0  0  0  0  2  0  0  0  0  0  0
  185.1170  178.9010  141.3940 C   0  0  2  0  0  3  0  0  0  0  0  0
  184.8170  178.5770  144.2750 C   0  0  0  0  0  0  0  0  0  0  0  0
  187.5590  178.2720  141.6810 C   0  0  0  0  0  3  0  0  0  0  0  0
  184.1350  177.5150  138.0150 C   0  0  0  0  0  0  0  0  0  0  0  0
  185.2860  177.7140  137.3130 N   0  0  0  0  0  0  0  0  0  0  0  0
  185.2100  178.4100  139.9660 C   0  0  0  0  0  0  0  0  0  0  0  0
  186.3910  178.2140  137.9150 C   0  0  0  0  0  3  0  0  0  0  0  0
  184.0740  177.8720  139.3600 C   0  0  0  0  0  3  0  0  0  0  0  0
  186.3430  178.5880  139.2270 N   0  0  0  0  0  0  0  0  0  0  0  0
  182.9220  177.0150  137.3220 C   0  0  0  0  0  1  0  0  0  0  0  0
  182.5120  179.5450  143.9110 C   0  0  0  0  0  2  0  0  0  0  0  0
  181.3440  178.5720  143.8090 C   0  0  0  0  0  2  0  0  0  0  0  0
  180.0530  179.2770  143.4030 C   0  0  0  0  0  2  0  0  0  0  0  0
  179.3000  178.5210  142.3070 C   0  0  0  0  0  2  0  0  0  0  0  0
  180.4450  177.2420  139.9890 C   0  0  0  0  0  1  0  0  0  0  0  0
  179.3810  179.2350  141.0340 N   0  0  0  0  0  0  0  0  0  0  0  0
  180.5200  178.7450  140.2330 C   0  0  2  0  0  3  0  0  0  0  0  0
  180.6930  180.9650  139.1200 C   0  0  0  0  0  2  0  0  0  0  0  0
  179.5900  181.4670  140.0510 C   0  0  0  0  0  2  0  0  0  0  0  0
  179.6030  180.6490  141.3420 C   0  0  0  0  0  2  0  0  0  0  0  0
  180.5420  179.4630  138.8790 C   0  0  0  0  0  2  0  0  0  0  0  0
  1  8  1  0  0  0  0
  1  9  2  0  0  0  0
  2 12  1  0  0  0  0
  3 15  1  0  0  0  0
  3  8  1  0  0  0  0
  4 24  1  0  0  0  0
  4 15  1  0  0  0  0
  5 12  2  0  0  0  0
  8  2  2  0  0  0  0
  9  5  1  0  0  0  0
 10  3  2  0  0  0  0
 11  1  1  0  0  0  0
 12  6  1  0  0  0  0
 13  4  1  0  0  0  0
 14 19  1  6  0  0  0
 14 13  1  0  0  0  0
 14 10  1  0  0  0  0
 15  7  2  0  0  0  0
 16 10  1  0  0  0  0
 16 11  2  0  0  0  0
 17 21  1  0  0  0  0
 18 20  1  0  0  0  0
 18 17  2  0  0  0  0
 20 22  2  0  0  0  0
 21 19  2  0  0  0  0
 22 19  1  0  0  0  0
 23 17  1  0  0  0  0
 25 24  1  0  0  0  0
 26 25  1  0  0  0  0
 27 26  1  0  0  0  0
 29 33  1  0  0  0  0
 29 27  1  0  0  0  0
 30 28  1  6  0  0  0
 30 29  1  0  0  0  0
 31 32  1  0  0  0  0
 32 33  1  0  0  0  0
 34 31  1  0  0  0  0
 34 30  1  0  0  0  0
M  END
>  <MODEL>
3

>  <REMARK>
 VINA RESULT:      -9.4      3.493      8.069
  Name = 
  6 active torsions:
  status: ('A' for Active; 'I' for Inactive)
    1  A    between atoms: C_3  and  N_13
    2  A    between atoms: C_3  and  C_17
    3  A    between atoms: N_5  and  C_18
    4  A    between atoms: C_12  and  C_28
    5  A    between atoms: C_17  and  C_29
    6  A    between atoms: C_18  and  C_29
                            x       y       z     vdW  Elec       q    Type
                         _______ _______ _______ _____ _____    ______ ____

>  <TORSDO>
F 6

$$$$
=
 OpenBabel10252415053D

 34 38  0  0  1  0  0  0  0  0999 V2000
  186.0500  178.2280  145.4590 C   0  0  0  0  0  0  0  0  0  0  0  0
  184.8630  178.5710  143.3730 C   0  0  0  0  0  3  0  0  0  0  0  0
  187.3000  178.1290  143.3610 C   0  0  0  0  0  0  0  0  0  0  0  0
  188.7140  178.0270  141.2800 N   0  0  0  0  0  0  0  0  0  0  0  0
  183.6660  178.6440  145.4720 C   0  0  0  0  0  3  0  0  0  0  0  0
  182.4030  178.9920  143.3460 C   0  0  0  0  0  1  0  0  0  0  0  0
  186.4720  178.6560  141.1630 O   0  0  0  0  0  0  0  0  0  0  0  0
  186.0710  178.3200  144.0490 C   0  0  0  0  0  0  0  0  0  0  0  0
  184.8530  178.3930  146.1630 C   0  0  0  0  0  3  0  0  0  0  0  0
  188.4630  177.8190  144.1130 C   0  0  0  0  0  0  0  0  0  0  0  0
  187.1980  177.9870  146.1460 N   0  0  0  0  0  0  0  0  0  0  0  0
  183.6690  178.7340  144.0800 C   0  0  0  0  0  0  0  0  0  0  0  0
  189.6720  177.1910  141.9840 C   0  0  0  0  0  2  0  0  0  0  0  0
  189.8240  177.6680  143.4300 C   0  0  2  0  0  3  0  0  0  0  0  0
  187.4330  178.2760  141.8770 C   0  0  0  0  0  0  0  0  0  0  0  0
  188.3780  177.7920  145.5120 C   0  0  0  0  0  3  0  0  0  0  0  0
  191.7990  176.1350  146.2670 C   0  0  0  0  0  0  0  0  0  0  0  0
  192.2850  175.0150  145.6630 N   0  0  0  0  0  0  0  0  0  0  0  0
  190.7620  176.7610  144.1950 C   0  0  0  0  0  0  0  0  0  0  0  0
  192.0560  174.7760  144.3500 C   0  0  0  0  0  3  0  0  0  0  0  0
  191.0150  177.0280  145.5410 C   0  0  0  0  0  3  0  0  0  0  0  0
  191.2740  175.6300  143.6280 N   0  0  0  0  0  0  0  0  0  0  0  0
  192.0180  176.3490  147.7190 C   0  0  0  0  0  1  0  0  0  0  0  0
  189.0280  178.4690  139.9280 C   0  0  0  0  0  2  0  0  0  0  0  0
  189.4170  177.2730  139.0660 C   0  0  0  0  0  2  0  0  0  0  0  0
  189.5650  177.6580  137.5970 C   0  0  0  0  0  2  0  0  0  0  0  0
  188.3730  178.4720  137.0880 C   0  0  0  0  0  2  0  0  0  0  0  0
  187.9660  177.0810  134.5940 C   0  0  0  0  0  1  0  0  0  0  0  0
  187.2020  177.6170  136.9020 N   0  0  0  0  0  0  0  0  0  0  0  0
  186.8190  177.5590  135.4780 C   0  0  2  0  0  3  0  0  0  0  0  0
  184.4560  177.1260  136.1300 C   0  0  0  0  0  2  0  0  0  0  0  0
  184.8720  177.3100  137.5890 C   0  0  0  0  0  2  0  0  0  0  0  0
  186.1000  178.2180  137.6570 C   0  0  0  0  0  2  0  0  0  0  0  0
  185.6320  176.6050  135.3030 C   0  0  0  0  0  2  0  0  0  0  0  0
  1 11  1  0  0  0  0
  1  9  2  0  0  0  0
  2  8  2  0  0  0  0
  2 12  1  0  0  0  0
  3  8  1  0  0  0  0
  3 10  2  0  0  0  0
  4 15  1  0  0  0  0
  4 13  1  0  0  0  0
  5  9  1  0  0  0  0
  6 12  1  0  0  0  0
  7 15  2  0  0  0  0
  8  1  1  0  0  0  0
 10 16  1  0  0  0  0
 12  5  2  0  0  0  0
 13 14  1  0  0  0  0
 14 10  1  0  0  0  0
 14 19  1  1  0  0  0
 15  3  1  0  0  0  0
 16 11  2  0  0  0  0
 17 23  1  0  0  0  0
 18 17  1  0  0  0  0
 19 21  1  0  0  0  0
 20 18  2  0  0  0  0
 21 17  2  0  0  0  0
 22 19  2  0  0  0  0
 22 20  1  0  0  0  0
 24  4  1  0  0  0  0
 25 24  1  0  0  0  0
 26 25  1  0  0  0  0
 27 26  1  0  0  0  0
 29 27  1  0  0  0  0
 29 33  1  0  0  0  0
 30 28  1  6  0  0  0
 30 29  1  0  0  0  0
 31 32  1  0  0  0  0
 32 33  1  0  0  0  0
 34 30  1  0  0  0  0
 34 31  1  0  0  0  0
M  END
>  <MODEL>
4

>  <REMARK>
 VINA RESULT:      -9.3      1.235      1.662
  Name = 
  6 active torsions:
  status: ('A' for Active; 'I' for Inactive)
    1  A    between atoms: C_3  and  N_13
    2  A    between atoms: C_3  and  C_17
    3  A    between atoms: N_5  and  C_18
    4  A    between atoms: C_12  and  C_28
    5  A    between atoms: C_17  and  C_29
    6  A    between atoms: C_18  and  C_29
                            x       y       z     vdW  Elec       q    Type
                         _______ _______ _______ _____ _____    ______ ____

>  <TORSDO>
F 6

$$$$
=
 OpenBabel10252415053D

 34 38  0  0  1  0  0  0  0  0999 V2000
  187.5200  177.9650  138.5200 C   0  0  0  0  0  0  0  0  0  0  0  0
  188.6280  177.9930  140.6770 C   0  0  0  0  0  3  0  0  0  0  0  0
  186.2120  178.5130  140.5100 C   0  0  0  0  0  0  0  0  0  0  0  0
  184.7510  179.1210  142.4700 N   0  0  0  0  0  0  0  0  0  0  0  0
  189.8780  177.4400  138.6830 C   0  0  0  0  0  3  0  0  0  0  0  0
  191.0540  177.4480  140.8850 C   0  0  0  0  0  1  0  0  0  0  0  0
  187.0520  178.8570  142.7400 O   0  0  0  0  0  0  0  0  0  0  0  0
  187.4560  178.1680  139.9170 C   0  0  0  0  0  0  0  0  0  0  0  0
  188.7270  177.6060  137.9100 C   0  0  0  0  0  3  0  0  0  0  0  0
  185.0630  178.6110  139.6820 C   0  0  0  0  0  0  0  0  0  0  0  0
  186.4090  178.1250  137.7540 N   0  0  0  0  0  0  0  0  0  0  0  0
  189.8300  177.6340  140.0630 C   0  0  0  0  0  0  0  0  0  0  0  0
  183.5870  178.6600  141.7320 C   0  0  0  0  0  2  0  0  0  0  0  0
  183.7140  179.0430  140.2560 C   0  0  2  0  0  3  0  0  0  0  0  0
  186.0610  178.8160  141.9690 C   0  0  0  0  0  0  0  0  0  0  0  0
  185.2110  178.4440  138.2970 C   0  0  0  0  0  3  0  0  0  0  0  0
  181.0260  176.7090  138.9810 C   0  0  0  0  0  0  0  0  0  0  0  0
  180.2960  177.5590  138.2060 N   0  0  0  0  0  0  0  0  0  0  0  0
  182.5430  178.5050  139.4630 C   0  0  0  0  0  0  0  0  0  0  0  0
  180.6840  178.8440  138.0250 C   0  0  0  0  0  3  0  0  0  0  0  0
  182.1640  177.1730  139.6350 C   0  0  0  0  0  3  0  0  0  0  0  0
  181.7860  179.3210  138.6740 N   0  0  0  0  0  0  0  0  0  0  0  0
  180.5520  175.3210  139.2070 C   0  0  0  0  0  1  0  0  0  0  0  0
  184.5560  179.7530  143.7670 C   0  0  0  0  0  2  0  0  0  0  0  0
  184.3420  178.6900  144.8380 C   0  0  0  0  0  2  0  0  0  0  0  0
  185.4480  178.7160  145.8900 C   0  0  0  0  0  2  0  0  0  0  0  0
  186.3910  177.5160  145.7690 C   0  0  0  0  0  2  0  0  0  0  0  0
  188.7270  176.8190  144.2290 C   0  0  0  0  0  1  0  0  0  0  0  0
  187.7260  177.8550  146.2590 N   0  0  0  0  0  0  0  0  0  0  0  0
  188.7260  176.8950  145.7520 C   0  0  2  0  0  3  0  0  0  0  0  0
  190.1440  177.3130  147.7540 C   0  0  0  0  0  2  0  0  0  0  0  0
  189.0320  178.2090  148.2990 C   0  0  0  0  0  2  0  0  0  0  0  0
  187.6900  177.7610  147.7200 C   0  0  0  0  0  2  0  0  0  0  0  0
  190.1230  177.3110  146.2260 C   0  0  0  0  0  2  0  0  0  0  0  0
  1  8  1  0  0  0  0
  3 15  1  0  0  0  0
  4 24  1  0  0  0  0
  5 12  2  0  0  0  0
  8  3  1  0  0  0  0
  8  2  2  0  0  0  0
  9  1  2  0  0  0  0
  9  5  1  0  0  0  0
 10 14  1  0  0  0  0
 10  3  2  0  0  0  0
 11 16  2  0  0  0  0
 11  1  1  0  0  0  0
 12  2  1  0  0  0  0
 12  6  1  0  0  0  0
 13  4  1  0  0  0  0
 14 19  1  6  0  0  0
 14 13  1  0  0  0  0
 15  4  1  0  0  0  0
 15  7  2  0  0  0  0
 16 10  1  0  0  0  0
 17 23  1  0  0  0  0
 17 21  1  0  0  0  0
 18 17  2  0  0  0  0
 19 21  2  0  0  0  0
 20 18  1  0  0  0  0
 20 22  2  0  0  0  0
 22 19  1  0  0  0  0
 24 25  1  0  0  0  0
 25 26  1  0  0  0  0
 27 26  1  0  0  0  0
 27 29  1  0  0  0  0
 29 33  1  0  0  0  0
 30 28  1  6  0  0  0
 30 34  1  0  0  0  0
 30 29  1  0  0  0  0
 31 32  1  0  0  0  0
 33 32  1  0  0  0  0
 34 31  1  0  0  0  0
M  END
>  <MODEL>
5

>  <REMARK>
 VINA RESULT:      -9.2      3.352      9.279
  Name = 
  6 active torsions:
  status: ('A' for Active; 'I' for Inactive)
    1  A    between atoms: C_3  and  N_13
    2  A    between atoms: C_3  and  C_17
    3  A    between atoms: N_5  and  C_18
    4  A    between atoms: C_12  and  C_28
    5  A    between atoms: C_17  and  C_29
    6  A    between atoms: C_18  and  C_29
                            x       y       z     vdW  Elec       q    Type
                         _______ _______ _______ _____ _____    ______ ____

>  <TORSDO>
F 6

$$$$
=
 OpenBabel10252415053D

 34 38  0  0  1  0  0  0  0  0999 V2000
  189.7910  177.1310  141.3680 C   0  0  0  0  0  0  0  0  0  0  0  0
  188.3330  178.2580  139.7920 C   0  0  0  0  0  3  0  0  0  0  0  0
  187.5970  177.8930  142.1280 C   0  0  0  0  0  0  0  0  0  0  0  0
  185.3570  178.6000  143.0380 N   0  0  0  0  0  0  0  0  0  0  0  0
  190.5190  177.5010  139.0890 C   0  0  0  0  0  3  0  0  0  0  0  0
  189.0530  178.6650  137.4370 C   0  0  0  0  0  1  0  0  0  0  0  0
  185.8400  178.8190  140.7670 O   0  0  0  0  0  0  0  0  0  0  0  0
  188.5560  177.7600  141.0890 C   0  0  0  0  0  0  0  0  0  0  0  0
  190.7630  177.0020  140.3700 C   0  0  0  0  0  3  0  0  0  0  0  0
  187.9230  177.4190  143.4250 C   0  0  0  0  0  0  0  0  0  0  0  0
  190.0420  176.6390  142.6090 N   0  0  0  0  0  0  0  0  0  0  0  0
  189.3070  178.1270  138.7980 C   0  0  0  0  0  0  0  0  0  0  0  0
  185.9230  178.6360  144.3750 C   0  0  0  0  0  2  0  0  0  0  0  0
  186.9040  177.4770  144.5640 C   0  0  2  0  0  3  0  0  0  0  0  0
  186.2360  178.4810  141.9100 C   0  0  0  0  0  0  0  0  0  0  0  0
  189.1480  176.7620  143.6180 C   0  0  0  0  0  3  0  0  0  0  0  0
  189.5040  177.2750  147.3020 C   0  0  0  0  0  0  0  0  0  0  0  0
  188.8350  177.8620  148.3330 N   0  0  0  0  0  0  0  0  0  0  0  0
  187.5560  177.5470  145.9270 C   0  0  0  0  0  0  0  0  0  0  0  0
  187.5470  178.2550  148.1930 C   0  0  0  0  0  3  0  0  0  0  0  0
  188.8750  177.1160  146.0700 C   0  0  0  0  0  3  0  0  0  0  0  0
  186.9210  178.1250  146.9880 N   0  0  0  0  0  0  0  0  0  0  0  0
  190.9320  176.9020  147.4620 C   0  0  0  0  0  1  0  0  0  0  0  0
  183.9270  178.8270  142.8730 C   0  0  0  0  0  2  0  0  0  0  0  0
  183.2440  178.8540  144.2350 C   0  0  0  0  0  2  0  0  0  0  0  0
  181.7310  179.0100  144.1070 C   0  0  0  0  0  2  0  0  0  0  0  0
  181.1420  178.0910  143.0340 C   0  0  0  0  0  2  0  0  0  0  0  0
  181.2860  177.7640  140.1720 C   0  0  0  0  0  1  0  0  0  0  0  0
  180.2330  178.8310  142.1600 N   0  0  0  0  0  0  0  0  0  0  0  0
  180.8530  179.0640  140.8410 C   0  0  2  0  0  3  0  0  0  0  0  0
  179.4800  181.1210  140.5580 C   0  0  0  0  0  2  0  0  0  0  0  0
  178.9500  180.9070  141.9760 C   0  0  0  0  0  2  0  0  0  0  0  0
  179.9810  180.1270  142.7920 C   0  0  0  0  0  2  0  0  0  0  0  0
  179.8560  179.7820  139.9240 C   0  0  0  0  0  2  0  0  0  0  0  0
  1 11  1  0  0  0  0
  2  8  1  0  0  0  0
  3 10  2  0  0  0  0
  4 13  1  0  0  0  0
  5  9  2  0  0  0  0
  6 12  1  0  0  0  0
  7 15  2  0  0  0  0
  8  1  2  0  0  0  0
  8  3  1  0  0  0  0
  9  1  1  0  0  0  0
 10 16  1  0  0  0  0
 10 14  1  0  0  0  0
 11 16  2  0  0  0  0
 12  5  1  0  0  0  0
 12  2  2  0  0  0  0
 13 14  1  0  0  0  0
 14 19  1  1  0  0  0
 15  3  1  0  0  0  0
 15  4  1  0  0  0  0
 17 23  1  0  0  0  0
 17 18  1  0  0  0  0
 19 21  1  0  0  0  0
 19 22  2  0  0  0  0
 20 18  2  0  0  0  0
 21 17  2  0  0  0  0
 22 20  1  0  0  0  0
 24  4  1  0  0  0  0
 24 25  1  0  0  0  0
 26 25  1  0  0  0  0
 27 26  1  0  0  0  0
 29 33  1  0  0  0  0
 29 27  1  0  0  0  0
 30 28  1  6  0  0  0
 30 29  1  0  0  0  0
 31 32  1  0  0  0  0
 32 33  1  0  0  0  0
 34 31  1  0  0  0  0
 34 30  1  0  0  0  0
M  END
>  <MODEL>
6

>  <REMARK>
 VINA RESULT:      -9.1      2.726      6.918
  Name = 
  6 active torsions:
  status: ('A' for Active; 'I' for Inactive)
    1  A    between atoms: C_3  and  N_13
    2  A    between atoms: C_3  and  C_17
    3  A    between atoms: N_5  and  C_18
    4  A    between atoms: C_12  and  C_28
    5  A    between atoms: C_17  and  C_29
    6  A    between atoms: C_18  and  C_29
                            x       y       z     vdW  Elec       q    Type
                         _______ _______ _______ _____ _____    ______ ____

>  <TORSDO>
F 6

$$$$
=
 OpenBabel10252415053D

 34 38  0  0  1  0  0  0  0  0999 V2000
  183.0890  178.8760  144.3230 C   0  0  0  0  0  0  0  0  0  0  0  0
  183.0120  178.6340  141.9120 C   0  0  0  0  0  3  0  0  0  0  0  0
  185.1820  178.5500  143.1030 C   0  0  0  0  0  0  0  0  0  0  0  0
  187.4120  178.2490  141.9720 N   0  0  0  0  0  0  0  0  0  0  0  0
  180.9660  178.9420  143.1620 C   0  0  0  0  0  3  0  0  0  0  0  0
  180.8410  178.6860  140.6820 C   0  0  0  0  0  1  0  0  0  0  0  0
  185.4680  178.5160  140.7130 O   0  0  0  0  0  0  0  0  0  0  0  0
  183.7680  178.6940  143.0970 C   0  0  0  0  0  0  0  0  0  0  0  0
  181.6970  179.0020  144.3510 C   0  0  0  0  0  3  0  0  0  0  0  0
  185.8650  178.5610  144.3470 C   0  0  0  0  0  0  0  0  0  0  0  0
  183.7870  178.9390  145.4880 N   0  0  0  0  0  0  0  0  0  0  0  0
  181.6210  178.7590  141.9450 C   0  0  0  0  0  0  0  0  0  0  0  0
  187.9550  177.7120  143.2080 C   0  0  0  0  0  2  0  0  0  0  0  0
  187.3910  178.4770  144.4080 C   0  0  2  0  0  3  0  0  0  0  0  0
  185.9930  178.4240  141.8510 C   0  0  0  0  0  0  0  0  0  0  0  0
  185.1320  178.7960  145.5200 C   0  0  0  0  0  3  0  0  0  0  0  0
  189.6700  176.8830  146.9700 C   0  0  0  0  0  0  0  0  0  0  0  0
  188.9040  176.9880  148.0920 N   0  0  0  0  0  0  0  0  0  0  0  0
  187.8910  177.8800  145.7050 C   0  0  0  0  0  0  0  0  0  0  0  0
  187.6480  177.4900  148.0340 C   0  0  0  0  0  3  0  0  0  0  0  0
  189.1770  177.3410  145.7510 C   0  0  0  0  0  3  0  0  0  0  0  0
  187.1560  177.9600  146.8520 N   0  0  0  0  0  0  0  0  0  0  0  0
  191.0630  176.3790  147.0670 C   0  0  0  0  0  1  0  0  0  0  0  0
  188.3090  178.4600  140.8440 C   0  0  0  0  0  2  0  0  0  0  0  0
  189.3520  177.3500  140.7940 C   0  0  0  0  0  2  0  0  0  0  0  0
  189.9300  177.1790  139.3920 C   0  0  0  0  0  2  0  0  0  0  0  0
  189.4470  178.2660  138.4290 C   0  0  0  0  0  2  0  0  0  0  0  0
  186.7520  178.0110  137.4330 C   0  0  0  0  0  1  0  0  0  0  0  0
  189.2010  177.7090  137.1000 N   0  0  0  0  0  0  0  0  0  0  0  0
  187.8770  177.0580  137.0440 C   0  0  2  0  0  3  0  0  0  0  0  0
  188.7030  175.5290  135.2620 C   0  0  0  0  0  2  0  0  0  0  0  0
  190.0890  176.1510  135.4340 C   0  0  0  0  0  2  0  0  0  0  0  0
  190.2290  176.6960  136.8550 C   0  0  0  0  0  2  0  0  0  0  0  0
  187.6180  176.5430  135.6240 C   0  0  0  0  0  2  0  0  0  0  0  0
  1  9  1  0  0  0  0
  1 11  1  0  0  0  0
  2 12  2  0  0  0  0
  2  8  1  0  0  0  0
  3 10  2  0  0  0  0
  4 13  1  0  0  0  0
  5  9  2  0  0  0  0
  6 12  1  0  0  0  0
  7 15  2  0  0  0  0
  8  3  1  0  0  0  0
  8  1  2  0  0  0  0
 10 14  1  0  0  0  0
 10 16  1  0  0  0  0
 11 16  2  0  0  0  0
 12  5  1  0  0  0  0
 13 14  1  0  0  0  0
 14 19  1  1  0  0  0
 15  4  1  0  0  0  0
 15  3  1  0  0  0  0
 17 23  1  0  0  0  0
 17 18  1  0  0  0  0
 19 21  1  0  0  0  0
 19 22  2  0  0  0  0
 20 18  2  0  0  0  0
 21 17  2  0  0  0  0
 22 20  1  0  0  0  0
 24  4  1  0  0  0  0
 25 24  1  0  0  0  0
 26 25  1  0  0  0  0
 27 26  1  0  0  0  0
 29 27  1  0  0  0  0
 30 29  1  0  0  0  0
 30 28  1  6  0  0  0
 31 32  1  0  0  0  0
 31 34  1  0  0  0  0
 32 33  1  0  0  0  0
 33 29  1  0  0  0  0
 34 30  1  0  0  0  0
M  END
>  <MODEL>
7

>  <REMARK>
 VINA RESULT:      -9.1      1.907      3.142
  Name = 
  6 active torsions:
  status: ('A' for Active; 'I' for Inactive)
    1  A    between atoms: C_3  and  N_13
    2  A    between atoms: C_3  and  C_17
    3  A    between atoms: N_5  and  C_18
    4  A    between atoms: C_12  and  C_28
    5  A    between atoms: C_17  and  C_29
    6  A    between atoms: C_18  and  C_29
                            x       y       z     vdW  Elec       q    Type
                         _______ _______ _______ _____ _____    ______ ____

>  <TORSDO>
F 6

$$$$
=
 OpenBabel10252415053D

 34 38  0  0  1  0  0  0  0  0999 V2000
  185.9780  178.3010  145.3210 C   0  0  0  0  0  0  0  0  0  0  0  0
  184.8150  178.5920  143.2130 C   0  0  0  0  0  3  0  0  0  0  0  0
  187.2530  178.1600  143.2420 C   0  0  0  0  0  0  0  0  0  0  0  0
  188.6940  178.0180  141.1800 N   0  0  0  0  0  0  0  0  0  0  0  0
  183.5910  178.7070  145.2950 C   0  0  0  0  0  3  0  0  0  0  0  0
  182.3540  179.0010  143.1470 C   0  0  0  0  0  1  0  0  0  0  0  0
  186.4510  178.6340  141.0220 O   0  0  0  0  0  0  0  0  0  0  0  0
  186.0160  178.3610  143.9100 C   0  0  0  0  0  0  0  0  0  0  0  0
  184.7710  178.4770  146.0070 C   0  0  0  0  0  3  0  0  0  0  0  0
  188.4090  177.8720  144.0140 C   0  0  0  0  0  0  0  0  0  0  0  0
  187.1180  178.0800  146.0270 N   0  0  0  0  0  0  0  0  0  0  0  0
  183.6110  178.7660  143.9020 C   0  0  0  0  0  0  0  0  0  0  0  0
  189.6470  177.2030  141.9150 C   0  0  0  0  0  2  0  0  0  0  0  0
  189.7780  177.7130  143.3520 C   0  0  2  0  0  3  0  0  0  0  0  0
  187.4050  178.2750  141.7560 C   0  0  0  0  0  0  0  0  0  0  0  0
  188.3060  177.8770  145.4130 C   0  0  0  0  0  3  0  0  0  0  0  0
  191.6800  176.2150  146.2570 C   0  0  0  0  0  0  0  0  0  0  0  0
  192.2230  175.1140  145.6660 N   0  0  0  0  0  0  0  0  0  0  0  0
  190.7110  176.8270  144.1480 C   0  0  0  0  0  0  0  0  0  0  0  0
  192.0550  174.8800  144.3430 C   0  0  0  0  0  3  0  0  0  0  0  0
  190.9000  177.0910  145.5050 C   0  0  0  0  0  3  0  0  0  0  0  0
  191.2790  175.7160  143.5950 N   0  0  0  0  0  0  0  0  0  0  0  0
  191.8340  176.4230  147.7190 C   0  0  0  0  0  1  0  0  0  0  0  0
  189.0220  178.4300  139.8230 C   0  0  0  0  0  2  0  0  0  0  0  0
  188.3340  177.5140  138.8190 C   0  0  0  0  0  2  0  0  0  0  0  0
  189.3210  176.5530  138.1600 C   0  0  0  0  0  2  0  0  0  0  0  0
  188.7530  175.9230  136.8860 C   0  0  0  0  0  2  0  0  0  0  0  0
  190.1220  173.4010  136.5880 C   0  0  0  0  0  1  0  0  0  0  0  0
  188.0650  174.6690  137.1900 N   0  0  0  0  0  0  0  0  0  0  0  0
  188.6190  173.5620  136.3850 C   0  0  2  0  0  3  0  0  0  0  0  0
  186.4280  172.3850  136.4960 C   0  0  0  0  0  2  0  0  0  0  0  0
  185.8620  173.6030  137.2250 C   0  0  0  0  0  2  0  0  0  0  0  0
  186.6570  174.8470  136.8300 C   0  0  0  0  0  2  0  0  0  0  0  0
  187.9260  172.2500  136.7710 C   0  0  0  0  0  2  0  0  0  0  0  0
  1  9  1  0  0  0  0
  1 11  1  0  0  0  0
  2 12  2  0  0  0  0
  2  8  1  0  0  0  0
  3  8  1  0  0  0  0
  3 10  2  0  0  0  0
  4 15  1  0  0  0  0
  4 13  1  0  0  0  0
  5  9  2  0  0  0  0
  6 12  1  0  0  0  0
  7 15  2  0  0  0  0
  8  1  2  0  0  0  0
 10 16  1  0  0  0  0
 12  5  1  0  0  0  0
 13 14  1  0  0  0  0
 14 10  1  0  0  0  0
 14 19  1  1  0  0  0
 15  3  1  0  0  0  0
 16 11  2  0  0  0  0
 17 23  1  0  0  0  0
 18 17  1  0  0  0  0
 19 21  1  0  0  0  0
 20 18  2  0  0  0  0
 21 17  2  0  0  0  0
 22 19  2  0  0  0  0
 22 20  1  0  0  0  0
 24  4  1  0  0  0  0
 25 24  1  0  0  0  0
 26 25  1  0  0  0  0
 27 29  1  0  0  0  0
 27 26  1  0  0  0  0
 30 28  1  1  0  0  0
 30 34  1  0  0  0  0
 30 29  1  0  0  0  0
 31 34  1  0  0  0  0
 31 32  1  0  0  0  0
 33 29  1  0  0  0  0
 33 32  1  0  0  0  0
M  END
>  <MODEL>
8

>  <REMARK>
 VINA RESULT:      -9.0      1.043      1.784
  Name = 
  6 active torsions:
  status: ('A' for Active; 'I' for Inactive)
    1  A    between atoms: C_3  and  N_13
    2  A    between atoms: C_3  and  C_17
    3  A    between atoms: N_5  and  C_18
    4  A    between atoms: C_12  and  C_28
    5  A    between atoms: C_17  and  C_29
    6  A    between atoms: C_18  and  C_29
                            x       y       z     vdW  Elec       q    Type
                         _______ _______ _______ _____ _____    ______ ____

>  <TORSDO>
F 6

$$$$
=
 OpenBabel10252415053D

 34 38  0  0  1  0  0  0  0  0999 V2000
  190.8280  177.0390  144.9700 C   0  0  0  0  0  0  0  0  0  0  0  0
  188.6040  177.3990  145.8680 C   0  0  0  0  0  3  0  0  0  0  0  0
  189.0230  177.6520  143.4400 C   0  0  0  0  0  0  0  0  0  0  0  0
  187.2670  178.3050  141.7560 N   0  0  0  0  0  0  0  0  0  0  0  0
  190.4170  176.7760  147.3410 C   0  0  0  0  0  3  0  0  0  0  0  0
  188.1400  177.1260  148.3050 C   0  0  0  0  0  1  0  0  0  0  0  0
  186.7840  178.3040  144.0370 O   0  0  0  0  0  0  0  0  0  0  0  0
  189.4720  177.3760  144.7600 C   0  0  0  0  0  0  0  0  0  0  0  0
  191.2950  176.7440  146.2550 C   0  0  0  0  0  3  0  0  0  0  0  0
  189.9480  177.5480  142.3680 C   0  0  0  0  0  0  0  0  0  0  0  0
  191.6940  177.0080  143.9240 N   0  0  0  0  0  0  0  0  0  0  0  0
  189.0750  177.1030  147.1500 C   0  0  0  0  0  0  0  0  0  0  0  0
  188.0420  177.6560  140.7120 C   0  0  0  0  0  2  0  0  0  0  0  0
  189.5360  177.8980  140.9370 C   0  0  2  0  0  3  0  0  0  0  0  0
  187.6240  178.0850  143.1290 C   0  0  0  0  0  0  0  0  0  0  0  0
  191.2890  177.2580  142.6570 C   0  0  0  0  0  3  0  0  0  0  0  0
  190.4530  175.7930  137.9330 C   0  0  0  0  0  0  0  0  0  0  0  0
  191.7980  176.0030  137.8750 N   0  0  0  0  0  0  0  0  0  0  0  0
  190.3570  177.1660  139.8990 C   0  0  0  0  0  0  0  0  0  0  0  0
  192.4280  176.7440  138.8170 C   0  0  0  0  0  3  0  0  0  0  0  0
  189.7030  176.3840  138.9470 C   0  0  0  0  0  3  0  0  0  0  0  0
  191.7070  177.3460  139.8070 N   0  0  0  0  0  0  0  0  0  0  0  0
  189.7770  175.0220  136.8600 C   0  0  0  0  0  1  0  0  0  0  0  0
  186.0680  179.0430  141.3850 C   0  0  0  0  0  2  0  0  0  0  0  0
  185.6110  178.6290  139.9920 C   0  0  0  0  0  2  0  0  0  0  0  0
  184.1280  178.2720  139.9640 C   0  0  0  0  0  2  0  0  0  0  0  0
  183.5640  178.0260  141.3650 C   0  0  0  0  0  2  0  0  0  0  0  0
  182.8890  179.0920  143.9590 C   0  0  0  0  0  1  0  0  0  0  0  0
  182.3160  178.7620  141.5590 N   0  0  0  0  0  0  0  0  0  0  0  0
  181.8430  178.6300  142.9510 C   0  0  2  0  0  3  0  0  0  0  0  0
  179.4960  178.9500  142.1850 C   0  0  0  0  0  2  0  0  0  0  0  0
  180.0150  178.9640  140.7480 C   0  0  0  0  0  2  0  0  0  0  0  0
  181.3170  178.1670  140.6690 C   0  0  0  0  0  2  0  0  0  0  0  0
  180.5710  179.4630  143.1430 C   0  0  0  0  0  2  0  0  0  0  0  0
  1  9  2  0  0  0  0
  2 12  1  0  0  0  0
  3  8  1  0  0  0  0
  4 15  1  0  0  0  0
  8  1  1  0  0  0  0
  8  2  2  0  0  0  0
  9  5  1  0  0  0  0
 10 16  1  0  0  0  0
 10  3  2  0  0  0  0
 11  1  1  0  0  0  0
 12  5  2  0  0  0  0
 12  6  1  0  0  0  0
 13 14  1  0  0  0  0
 13  4  1  0  0  0  0
 14 19  1  6  0  0  0
 14 10  1  0  0  0  0
 15  3  1  0  0  0  0
 15  7  2  0  0  0  0
 16 11  2  0  0  0  0
 17 21  1  0  0  0  0
 18 17  2  0  0  0  0
 18 20  1  0  0  0  0
 20 22  2  0  0  0  0
 21 19  2  0  0  0  0
 22 19  1  0  0  0  0
 23 17  1  0  0  0  0
 24  4  1  0  0  0  0
 25 24  1  0  0  0  0
 26 25  1  0  0  0  0
 26 27  1  0  0  0  0
 27 29  1  0  0  0  0
 29 30  1  0  0  0  0
 30 34  1  0  0  0  0
 30 28  1  1  0  0  0
 31 34  1  0  0  0  0
 32 31  1  0  0  0  0
 33 32  1  0  0  0  0
 33 29  1  0  0  0  0
M  END
>  <MODEL>
9

>  <REMARK>
 VINA RESULT:      -9.0      2.387      6.442
  Name = 
  6 active torsions:
  status: ('A' for Active; 'I' for Inactive)
    1  A    between atoms: C_3  and  N_13
    2  A    between atoms: C_3  and  C_17
    3  A    between atoms: N_5  and  C_18
    4  A    between atoms: C_12  and  C_28
    5  A    between atoms: C_17  and  C_29
    6  A    between atoms: C_18  and  C_29
                            x       y       z     vdW  Elec       q    Type
                         _______ _______ _______ _____ _____    ______ ____

>  <TORSDO>
F 6

$$$$
