=
 OpenBabel10262421293D

 32 36  0  0  0  0  0  0  0  0999 V2000
  186.4190  178.2090  143.0270 C   0  0  0  0  0  0  0  0  0  0  0  0
  189.4980  176.9670  139.2330 S   0  0  0  0  0  0  0  0  0  0  0  0
  190.5890  176.6570  140.6850 C   0  0  0  0  0  2  0  0  0  0  0  0
  187.0880  177.6980  145.3890 C   0  0  0  0  0  0  0  0  0  0  0  0
  188.1170  177.3790  146.2710 C   0  0  0  0  0  0  0  0  0  0  0  0
  184.1020  178.7010  142.4090 C   0  0  0  0  0  0  0  0  0  0  0  0
  185.8230  178.6960  140.7110 C   0  0  0  0  0  3  0  0  0  0  0  0
  190.1970  176.9120  147.0100 C   0  0  0  0  0  0  0  0  0  0  0  0
  188.5700  178.4170  139.8580 C   0  0  0  0  0  2  0  0  0  0  0  0
  186.7970  178.3770  141.6690 C   0  0  0  0  0  0  0  0  0  0  0  0
  188.1380  178.2210  141.2830 C   0  0  0  0  0  0  0  0  0  0  0  0
  188.7650  177.7320  143.5830 C   0  0  0  0  0  0  0  0  0  0  0  0
  189.4650  176.8500  148.0760 N   0  0  0  0  0  0  0  0  0  0  0  0
  184.4830  178.8530  141.0670 C   0  0  0  0  0  0  0  0  0  0  0  0
  188.0650  177.1360  147.7430 C   0  0  0  0  0  2  0  0  0  0  0  0
  190.5280  177.7370  141.7590 C   0  0  0  0  0  2  0  0  0  0  0  0
  189.1130  177.9030  142.2330 C   0  0  0  0  0  0  0  0  0  0  0  0
  189.7670  177.4070  144.5220 C   0  0  0  0  0  3  0  0  0  0  0  0
  185.0650  178.3770  143.3660 C   0  0  0  0  0  3  0  0  0  0  0  0
  185.7960  177.8240  145.8900 O   0  0  0  0  0  1  0  0  0  0  0  0
  191.6650  176.6700  147.0170 C   0  0  0  0  0  1  0  0  0  0  0  0
  187.4000  177.8830  144.0040 C   0  0  0  0  0  0  0  0  0  0  0  0
  189.4050  177.2410  145.8490 C   0  0  0  0  0  0  0  0  0  0  0  0
  182.5900  178.8460  144.3550 C   0  0  0  0  0  1  0  0  0  0  0  0
  182.6800  178.8520  142.8410 C   0  0  0  0  0  2  0  0  0  0  0  0
  183.4950  179.2180  140.0060 C   0  0  0  0  0  2  0  0  0  0  0  0
  183.0660  178.0270  139.2910 N   0  0  0  0  0  2  0  0  0  0  0  0
  183.4740  178.1880  137.9070 C   0  0  0  0  0  2  0  0  0  0  0  0
  185.8100  177.4670  137.3060 C   0  0  0  0  0  0  0  0  0  0  0  0
  184.4410  177.1600  137.5640 N   0  0  0  0  0  2  0  0  0  0  0  0
  186.6950  176.4470  136.9840 O   0  0  0  0  0  0  0  0  0  0  0  0
  186.2240  178.6560  137.3670 O   0  0  0  0  0  1  0  0  0  0  0  0
  1 19  1  0  0  0  0
  1 22  1  0  0  0  0
  2  9  1  0  0  0  0
  2  3  1  0  0  0  0
  3 16  1  0  0  0  0
  4 20  1  0  0  0  0
  4  5  1  0  0  0  0
  5 15  1  0  0  0  0
  6 25  1  0  0  0  0
  6 19  2  0  0  0  0
  7 14  2  0  0  0  0
  7 10  1  0  0  0  0
  8 21  1  0  0  0  0
  8 13  2  0  0  0  0
  9 11  1  0  0  0  0
 10  1  2  0  0  0  0
 11 10  1  0  0  0  0
 11 17  2  0  0  0  0
 12 22  1  0  0  0  0
 12 18  2  0  0  0  0
 14  6  1  0  0  0  0
 15 13  1  0  0  0  0
 16 17  1  0  0  0  0
 17 12  1  0  0  0  0
 18 23  1  0  0  0  0
 22  4  2  0  0  0  0
 23  5  2  0  0  0  0
 23  8  1  0  0  0  0
 25 24  1  0  0  0  0
 26 14  1  0  0  0  0
 27 26  1  0  0  0  0
 28 27  1  0  0  0  0
 29 32  1  0  0  0  0
 29 30  1  0  0  0  0
 30 28  1  0  0  0  0
 31 29  2  0  0  0  0
M  END
>  <MODEL>
1

>  <REMARK>
 VINA RESULT:      -9.7      0.000      0.000
  Name = 
  5 active torsions:
  status: ('A' for Active; 'I' for Inactive)
    1  A    between atoms: N_2  and  C_12
    2  A    between atoms: N_2  and  C_24
    3  A    between atoms: C_8  and  C_23
    4  A    between atoms: N_10  and  C_24
    5  A    between atoms: C_12  and  C_21
                            x       y       z     vdW  Elec       q    Type
                         _______ _______ _______ _____ _____    ______ ____

>  <TORSDO>
F 5

$$$$
=
 OpenBabel10262421293D

 32 36  0  0  0  0  0  0  0  0999 V2000
  186.3120  178.2050  142.7670 C   0  0  0  0  0  0  0  0  0  0  0  0
  189.3840  176.9130  138.9850 S   0  0  0  0  0  0  0  0  0  0  0  0
  190.4820  176.6330  140.4380 C   0  0  0  0  0  2  0  0  0  0  0  0
  186.9910  177.7380  145.1350 C   0  0  0  0  0  0  0  0  0  0  0  0
  188.0250  177.4400  146.0190 C   0  0  0  0  0  0  0  0  0  0  0  0
  183.9900  178.6750  142.1480 C   0  0  0  0  0  0  0  0  0  0  0  0
  185.7060  178.6500  140.4450 C   0  0  0  0  0  3  0  0  0  0  0  0
  190.1100  176.9950  146.7580 C   0  0  0  0  0  0  0  0  0  0  0  0
  188.4510  178.3690  139.5880 C   0  0  0  0  0  2  0  0  0  0  0  0
  186.6850  178.3510  141.4050 C   0  0  0  0  0  0  0  0  0  0  0  0
  188.0250  178.1950  141.0170 C   0  0  0  0  0  0  0  0  0  0  0  0
  188.6620  177.7490  143.3240 C   0  0  0  0  0  0  0  0  0  0  0  0
  189.3810  176.9490  147.8280 N   0  0  0  0  0  0  0  0  0  0  0  0
  184.3660  178.8050  140.8020 C   0  0  0  0  0  0  0  0  0  0  0  0
  187.9790  177.2220  147.4950 C   0  0  0  0  0  2  0  0  0  0  0  0
  190.4190  177.7310  141.4930 C   0  0  0  0  0  2  0  0  0  0  0  0
  189.0050  177.8990  141.9690 C   0  0  0  0  0  0  0  0  0  0  0  0
  189.6680  177.4460  144.2640 C   0  0  0  0  0  3  0  0  0  0  0  0
  184.9580  178.3720  143.1080 C   0  0  0  0  0  3  0  0  0  0  0  0
  185.7000  177.8660  145.6380 O   0  0  0  0  0  1  0  0  0  0  0  0
  191.5790  176.7610  146.7650 C   0  0  0  0  0  1  0  0  0  0  0  0
  187.2980  177.9010  143.7470 C   0  0  0  0  0  0  0  0  0  0  0  0
  189.3120  177.3000  145.5950 C   0  0  0  0  0  0  0  0  0  0  0  0
  182.4900  178.9100  144.0950 C   0  0  0  0  0  1  0  0  0  0  0  0
  182.5690  178.8260  142.5830 C   0  0  0  0  0  2  0  0  0  0  0  0
  183.3720  179.1480  139.7390 C   0  0  0  0  0  2  0  0  0  0  0  0
  183.7460  180.3940  139.0880 N   0  0  0  0  0  2  0  0  0  0  0  0
  182.5140  181.0850  138.7520 C   0  0  0  0  0  2  0  0  0  0  0  0
  181.8530  183.3160  137.7920 C   0  0  0  0  0  0  0  0  0  0  0  0
  182.8100  182.4700  138.4260 N   0  0  0  0  0  2  0  0  0  0  0  0
  182.1840  184.6330  137.5030 O   0  0  0  0  0  1  0  0  0  0  0  0
  180.7100  182.8810  137.4910 O   0  0  0  0  0  0  0  0  0  0  0  0
  1 19  1  0  0  0  0
  1 22  1  0  0  0  0
  2  9  1  0  0  0  0
  2  3  1  0  0  0  0
  3 16  1  0  0  0  0
  4 20  1  0  0  0  0
  4  5  1  0  0  0  0
  5 15  1  0  0  0  0
  6 25  1  0  0  0  0
  6 19  2  0  0  0  0
  7 14  2  0  0  0  0
  7 10  1  0  0  0  0
  8 21  1  0  0  0  0
  8 13  2  0  0  0  0
  9 11  1  0  0  0  0
 10  1  2  0  0  0  0
 11 10  1  0  0  0  0
 11 17  2  0  0  0  0
 12 22  1  0  0  0  0
 12 18  2  0  0  0  0
 14  6  1  0  0  0  0
 15 13  1  0  0  0  0
 16 17  1  0  0  0  0
 17 12  1  0  0  0  0
 18 23  1  0  0  0  0
 22  4  2  0  0  0  0
 23  5  2  0  0  0  0
 23  8  1  0  0  0  0
 25 24  1  0  0  0  0
 26 14  1  0  0  0  0
 27 26  1  0  0  0  0
 28 27  1  0  0  0  0
 29 30  1  0  0  0  0
 30 28  1  0  0  0  0
 31 29  1  0  0  0  0
 32 29  2  0  0  0  0
M  END
>  <MODEL>
2

>  <REMARK>
 VINA RESULT:      -9.7      2.255      2.715
  Name = 
  5 active torsions:
  status: ('A' for Active; 'I' for Inactive)
    1  A    between atoms: N_2  and  C_12
    2  A    between atoms: N_2  and  C_24
    3  A    between atoms: C_8  and  C_23
    4  A    between atoms: N_10  and  C_24
    5  A    between atoms: C_12  and  C_21
                            x       y       z     vdW  Elec       q    Type
                         _______ _______ _______ _____ _____    ______ ____

>  <TORSDO>
F 5

$$$$
=
 OpenBabel10262421293D

 32 36  0  0  0  0  0  0  0  0999 V2000
  186.3890  178.2090  142.8370 C   0  0  0  0  0  0  0  0  0  0  0  0
  189.3000  176.9520  138.9170 S   0  0  0  0  0  0  0  0  0  0  0  0
  190.4500  176.6350  140.3220 C   0  0  0  0  0  2  0  0  0  0  0  0
  187.1540  177.6930  145.1690 C   0  0  0  0  0  0  0  0  0  0  0  0
  188.2180  177.3680  146.0070 C   0  0  0  0  0  0  0  0  0  0  0  0
  184.0510  178.7140  142.3170 C   0  0  0  0  0  0  0  0  0  0  0  0
  185.7000  178.7010  140.5480 C   0  0  0  0  0  3  0  0  0  0  0  0
  190.3240  176.8880  146.6570 C   0  0  0  0  0  0  0  0  0  0  0  0
  188.4070  178.4070  139.5810 C   0  0  0  0  0  2  0  0  0  0  0  0
  186.7120  178.3750  141.4650 C   0  0  0  0  0  0  0  0  0  0  0  0
  188.0340  178.2120  141.0230 C   0  0  0  0  0  0  0  0  0  0  0  0
  188.7540  177.7190  143.2940 C   0  0  0  0  0  0  0  0  0  0  0  0
  189.6360  176.8300  147.7530 N   0  0  0  0  0  0  0  0  0  0  0  0
  184.3770  178.8650  140.9590 C   0  0  0  0  0  0  0  0  0  0  0  0
  188.2250  177.1240  147.4790 C   0  0  0  0  0  2  0  0  0  0  0  0
  190.4390  177.7150  141.3970 C   0  0  0  0  0  2  0  0  0  0  0  0
  189.0470  177.8890  141.9310 C   0  0  0  0  0  0  0  0  0  0  0  0
  189.7920  177.3880  144.1900 C   0  0  0  0  0  3  0  0  0  0  0  0
  185.0520  178.3840  143.2330 C   0  0  0  0  0  3  0  0  0  0  0  0
  185.8850  177.8250  145.7230 O   0  0  0  0  0  1  0  0  0  0  0  0
  191.7890  176.6380  146.6030 C   0  0  0  0  0  1  0  0  0  0  0  0
  187.4090  177.8770  143.7720 C   0  0  0  0  0  0  0  0  0  0  0  0
  189.4850  177.2220  145.5310 C   0  0  0  0  0  0  0  0  0  0  0  0
  182.6210  178.8510  144.3240 C   0  0  0  0  0  1  0  0  0  0  0  0
  182.6490  178.8720  142.8080 C   0  0  0  0  0  2  0  0  0  0  0  0
  183.3470  179.2360  139.9410 C   0  0  0  0  0  2  0  0  0  0  0  0
  183.0350  178.0880  139.1040 N   0  0  0  0  0  2  0  0  0  0  0  0
  181.5920  178.0560  138.9440 C   0  0  0  0  0  2  0  0  0  0  0  0
  179.8700  177.6570  140.7350 C   0  0  0  0  0  0  0  0  0  0  0  0
  181.0070  177.2320  139.9870 N   0  0  0  0  0  2  0  0  0  0  0  0
  179.3480  176.8300  141.7210 O   0  0  0  0  0  1  0  0  0  0  0  0
  179.3350  178.7750  140.5110 O   0  0  0  0  0  0  0  0  0  0  0  0
  1 19  1  0  0  0  0
  1 22  1  0  0  0  0
  2  9  1  0  0  0  0
  2  3  1  0  0  0  0
  3 16  1  0  0  0  0
  4 20  1  0  0  0  0
  4  5  1  0  0  0  0
  5 15  1  0  0  0  0
  6 25  1  0  0  0  0
  6 19  2  0  0  0  0
  7 14  2  0  0  0  0
  7 10  1  0  0  0  0
  8 13  2  0  0  0  0
  9 11  1  0  0  0  0
 10  1  2  0  0  0  0
 11 10  1  0  0  0  0
 11 17  2  0  0  0  0
 12 22  1  0  0  0  0
 12 18  2  0  0  0  0
 14  6  1  0  0  0  0
 15 13  1  0  0  0  0
 16 17  1  0  0  0  0
 17 12  1  0  0  0  0
 18 23  1  0  0  0  0
 21  8  1  0  0  0  0
 22  4  2  0  0  0  0
 23  5  2  0  0  0  0
 23  8  1  0  0  0  0
 25 24  1  0  0  0  0
 26 14  1  0  0  0  0
 27 26  1  0  0  0  0
 28 27  1  0  0  0  0
 28 30  1  0  0  0  0
 29 31  1  0  0  0  0
 30 29  1  0  0  0  0
 32 29  2  0  0  0  0
M  END
>  <MODEL>
3

>  <REMARK>
 VINA RESULT:      -9.6      2.189      2.533
  Name = 
  5 active torsions:
  status: ('A' for Active; 'I' for Inactive)
    1  A    between atoms: N_2  and  C_12
    2  A    between atoms: N_2  and  C_24
    3  A    between atoms: C_8  and  C_23
    4  A    between atoms: N_10  and  C_24
    5  A    between atoms: C_12  and  C_21
                            x       y       z     vdW  Elec       q    Type
                         _______ _______ _______ _____ _____    ______ ____

>  <TORSDO>
F 5

$$$$
=
 OpenBabel10262421293D

 32 36  0  0  0  0  0  0  0  0999 V2000
  186.7980  178.0940  142.7080 C   0  0  0  0  0  0  0  0  0  0  0  0
  191.6540  177.8650  144.0440 S   0  0  0  0  0  0  0  0  0  0  0  0
  191.7910  177.7580  142.2090 C   0  0  0  0  0  2  0  0  0  0  0  0
  186.1860  178.3720  140.2920 C   0  0  0  0  0  0  0  0  0  0  0  0
  186.5930  178.2800  138.9630 C   0  0  0  0  0  0  0  0  0  0  0  0
  185.2110  178.5550  144.5130 C   0  0  0  0  0  0  0  0  0  0  0  0
  187.4500  177.8090  145.0420 C   0  0  0  0  0  3  0  0  0  0  0  0
  187.9260  177.8960  137.1840 C   0  0  0  0  0  0  0  0  0  0  0  0
  190.0960  176.9310  144.2850 C   0  0  0  0  0  2  0  0  0  0  0  0
  187.7720  177.7430  143.6780 C   0  0  0  0  0  0  0  0  0  0  0  0
  189.0540  177.3340  143.2790 C   0  0  0  0  0  0  0  0  0  0  0  0
  188.4370  177.6060  140.9410 C   0  0  0  0  0  0  0  0  0  0  0  0
  186.8060  178.2830  136.6590 N   0  0  0  0  0  0  0  0  0  0  0  0
  186.1840  178.2170  145.4670 C   0  0  0  0  0  0  0  0  0  0  0  0
  185.8290  178.5730  137.7140 C   0  0  0  0  0  3  0  0  0  0  0  0
  190.7730  176.8310  141.5570 C   0  0  0  0  0  2  0  0  0  0  0  0
  189.3820  177.2630  141.9220 C   0  0  0  0  0  0  0  0  0  0  0  0
  188.7930  177.5320  139.5790 C   0  0  0  0  0  3  0  0  0  0  0  0
  185.5280  178.4960  143.1550 C   0  0  0  0  0  2  0  0  0  0  0  0
  184.8880  178.7940  140.5640 O   0  0  0  0  0  1  0  0  0  0  0  0
  189.1180  177.5280  136.3740 C   0  0  0  0  0  1  0  0  0  0  0  0
  187.1190  178.0310  141.3220 C   0  0  0  0  0  0  0  0  0  0  0  0
  187.8480  177.8750  138.6250 C   0  0  0  0  0  0  0  0  0  0  0  0
  182.9190  179.0020  143.7120 C   0  0  0  0  0  1  0  0  0  0  0  0
  183.8440  179.0030  144.9150 C   0  0  0  0  0  2  0  0  0  0  0  0
  185.8910  178.2450  146.9330 C   0  0  0  0  0  2  0  0  0  0  0  0
  186.9200  178.9950  147.6340 N   0  0  0  0  0  2  0  0  0  0  0  0
  187.6190  178.0570  148.4960 C   0  0  0  0  0  2  0  0  0  0  0  0
  189.9040  177.2440  147.8200 C   0  0  0  0  0  0  0  0  0  0  0  0
  189.0530  178.2530  148.3610 N   0  0  0  0  0  2  0  0  0  0  0  0
  191.2670  177.4820  147.7110 O   0  0  0  0  0  1  0  0  0  0  0  0
  189.4310  176.1400  147.4420 O   0  0  0  0  0  0  0  0  0  0  0  0
  1 19  1  0  0  0  0
  1 10  1  0  0  0  0
  2  9  1  0  0  0  0
  3  2  1  0  0  0  0
  4 20  1  0  0  0  0
  4 22  1  0  0  0  0
  5  4  2  0  0  0  0
  6 25  1  0  0  0  0
  6 14  2  0  0  0  0
  7 14  1  0  0  0  0
  8 23  2  0  0  0  0
 10  7  2  0  0  0  0
 11 10  1  0  0  0  0
 11  9  1  0  0  0  0
 12 22  1  0  0  0  0
 12 17  1  0  0  0  0
 13  8  1  0  0  0  0
 13 15  2  0  0  0  0
 14 26  1  0  0  0  0
 15  5  1  0  0  0  0
 16 17  1  0  0  0  0
 16  3  1  0  0  0  0
 17 11  2  0  0  0  0
 18 12  2  0  0  0  0
 19  6  1  0  0  0  0
 21  8  1  0  0  0  0
 22  1  2  0  0  0  0
 23  5  1  0  0  0  0
 23 18  1  0  0  0  0
 24 25  1  0  0  0  0
 26 27  1  0  0  0  0
 27 28  1  0  0  0  0
 29 30  1  0  0  0  0
 30 28  1  0  0  0  0
 31 29  1  0  0  0  0
 32 29  2  0  0  0  0
M  END
>  <MODEL>
4

>  <REMARK>
 VINA RESULT:      -8.9      2.211      7.065
  Name = 
  5 active torsions:
  status: ('A' for Active; 'I' for Inactive)
    1  A    between atoms: N_2  and  C_12
    2  A    between atoms: N_2  and  C_24
    3  A    between atoms: C_8  and  C_23
    4  A    between atoms: N_10  and  C_24
    5  A    between atoms: C_12  and  C_21
                            x       y       z     vdW  Elec       q    Type
                         _______ _______ _______ _____ _____    ______ ____

>  <TORSDO>
F 5

$$$$
=
 OpenBabel10262421293D

 32 36  0  0  0  0  0  0  0  0999 V2000
  188.8570  177.7510  141.4040 C   0  0  0  0  0  0  0  0  0  0  0  0
  183.9140  178.2260  142.2750 S   0  0  0  0  0  0  0  0  0  0  0  0
  183.9410  178.1710  140.4330 C   0  0  0  0  0  2  0  0  0  0  0  0
  189.6670  177.2420  139.0850 C   0  0  0  0  0  0  0  0  0  0  0  0
  189.3810  177.2260  137.7230 C   0  0  0  0  0  0  0  0  0  0  0  0
  190.2650  177.4110  143.3770 C   0  0  0  0  0  0  0  0  0  0  0  0
  188.0150  178.2600  143.6370 C   0  0  0  0  0  3  0  0  0  0  0  0
  188.2210  177.4850  135.8050 C   0  0  0  0  0  0  0  0  0  0  0  0
  185.4760  179.1360  142.5720 C   0  0  0  0  0  2  0  0  0  0  0  0
  187.8140  178.2130  142.2490 C   0  0  0  0  0  0  0  0  0  0  0  0
  186.5860  178.6180  141.7030 C   0  0  0  0  0  0  0  0  0  0  0  0
  187.3960  178.1220  139.4620 C   0  0  0  0  0  0  0  0  0  0  0  0
  189.3680  177.0230  135.4180 N   0  0  0  0  0  0  0  0  0  0  0  0
  189.2240  177.8580  144.2070 C   0  0  0  0  0  0  0  0  0  0  0  0
  190.2390  176.8030  136.5770 C   0  0  0  0  0  3  0  0  0  0  0  0
  185.0420  179.0100  139.7960 C   0  0  0  0  0  2  0  0  0  0  0  0
  186.3800  178.5760  140.3210 C   0  0  0  0  0  0  0  0  0  0  0  0
  187.1620  178.0840  138.0720 C   0  0  0  0  0  3  0  0  0  0  0  0
  190.0690  177.3570  141.9960 C   0  0  0  0  0  2  0  0  0  0  0  0
  190.9210  176.8120  139.5080 O   0  0  0  0  0  1  0  0  0  0  0  0
  187.1170  177.8110  134.8630 C   0  0  0  0  0  1  0  0  0  0  0  0
  188.6600  177.6980  139.9950 C   0  0  0  0  0  0  0  0  0  0  0  0
  188.1740  177.6320  137.2400 C   0  0  0  0  0  0  0  0  0  0  0  0
  191.6580  175.4500  143.9300 C   0  0  0  0  0  1  0  0  0  0  0  0
  191.5760  176.9650  143.9370 C   0  0  0  0  0  2  0  0  0  0  0  0
  189.3880  177.9540  145.6900 C   0  0  0  0  0  2  0  0  0  0  0  0
  188.6010  176.9230  146.3470 N   0  0  0  0  0  2  0  0  0  0  0  0
  187.6700  177.5970  147.2350 C   0  0  0  0  0  2  0  0  0  0  0  0
  185.4890  178.7640  146.7640 C   0  0  0  0  0  0  0  0  0  0  0  0
  186.3560  177.6410  146.6150 N   0  0  0  0  0  2  0  0  0  0  0  0
  184.2450  178.7580  146.1500 O   0  0  0  0  0  0  0  0  0  0  0  0
  185.8420  179.7610  147.4480 O   0  0  0  0  0  1  0  0  0  0  0  0
  1 19  1  0  0  0  0
  1 10  1  0  0  0  0
  2  9  1  0  0  0  0
  3  2  1  0  0  0  0
  4 20  1  0  0  0  0
  4 22  1  0  0  0  0
  5  4  2  0  0  0  0
  6 25  1  0  0  0  0
  6 14  2  0  0  0  0
  7 14  1  0  0  0  0
  8 23  2  0  0  0  0
 10  7  2  0  0  0  0
 11 10  1  0  0  0  0
 11  9  1  0  0  0  0
 12 22  1  0  0  0  0
 12 17  1  0  0  0  0
 13  8  1  0  0  0  0
 13 15  2  0  0  0  0
 14 26  1  0  0  0  0
 15  5  1  0  0  0  0
 16 17  1  0  0  0  0
 16  3  1  0  0  0  0
 17 11  2  0  0  0  0
 18 12  2  0  0  0  0
 19  6  1  0  0  0  0
 21  8  1  0  0  0  0
 22  1  2  0  0  0  0
 23  5  1  0  0  0  0
 23 18  1  0  0  0  0
 24 25  1  0  0  0  0
 26 27  1  0  0  0  0
 27 28  1  0  0  0  0
 29 32  1  0  0  0  0
 30 29  1  0  0  0  0
 30 28  1  0  0  0  0
 31 29  2  0  0  0  0
M  END
>  <MODEL>
5

>  <REMARK>
 VINA RESULT:      -8.6      2.798      7.965
  Name = 
  5 active torsions:
  status: ('A' for Active; 'I' for Inactive)
    1  A    between atoms: N_2  and  C_12
    2  A    between atoms: N_2  and  C_24
    3  A    between atoms: C_8  and  C_23
    4  A    between atoms: N_10  and  C_24
    5  A    between atoms: C_12  and  C_21
                            x       y       z     vdW  Elec       q    Type
                         _______ _______ _______ _____ _____    ______ ____

>  <TORSDO>
F 5

$$$$
=
 OpenBabel10262421293D

 32 36  0  0  0  0  0  0  0  0999 V2000
  186.1710  178.3480  142.5480 C   0  0  0  0  0  0  0  0  0  0  0  0
  184.4710  177.5640  137.8670 S   0  0  0  0  0  0  0  0  0  0  0  0
  186.2830  177.3290  137.6250 C   0  0  0  0  0  2  0  0  0  0  0  0
  188.5630  177.8400  143.1030 C   0  0  0  0  0  0  0  0  0  0  0  0
  189.8510  177.6070  142.6270 C   0  0  0  0  0  0  0  0  0  0  0  0
  184.4590  178.6050  144.2800 C   0  0  0  0  0  0  0  0  0  0  0  0
  183.8560  178.8390  141.9500 C   0  0  0  0  0  3  0  0  0  0  0  0
  191.5460  177.3450  141.1620 C   0  0  0  0  0  0  0  0  0  0  0  0
  184.5050  178.8860  139.1340 C   0  0  0  0  0  2  0  0  0  0  0  0
  185.1820  178.5970  141.5600 C   0  0  0  0  0  0  0  0  0  0  0  0
  185.5260  178.5990  140.1990 C   0  0  0  0  0  0  0  0  0  0  0  0
  187.8430  178.1110  140.7610 C   0  0  0  0  0  0  0  0  0  0  0  0
  192.1020  177.1710  142.3190 N   0  0  0  0  0  0  0  0  0  0  0  0
  183.4860  178.8390  143.2950 C   0  0  0  0  0  0  0  0  0  0  0  0
  191.1030  177.3140  143.3850 C   0  0  0  0  0  2  0  0  0  0  0  0
  187.1500  178.3630  138.3340 C   0  0  0  0  0  2  0  0  0  0  0  0
  186.8450  178.3600  139.8040 C   0  0  0  0  0  0  0  0  0  0  0  0
  189.1650  177.8670  140.3380 C   0  0  0  0  0  3  0  0  0  0  0  0
  185.7800  178.3580  143.8980 C   0  0  0  0  0  3  0  0  0  0  0  0
  188.3430  177.8090  144.4770 O   0  0  0  0  0  1  0  0  0  0  0  0
  192.2960  177.2630  139.8800 C   0  0  0  0  0  1  0  0  0  0  0  0
  187.5170  178.1000  142.1600 C   0  0  0  0  0  0  0  0  0  0  0  0
  190.1360  177.6210  141.2960 C   0  0  0  0  0  0  0  0  0  0  0  0
  185.3800  178.5450  146.5690 C   0  0  0  0  0  1  0  0  0  0  0  0
  184.1150  178.5880  145.7330 C   0  0  0  0  0  2  0  0  0  0  0  0
  182.0630  179.1280  143.6510 C   0  0  0  0  0  2  0  0  0  0  0  0
  181.2420  179.1460  142.4510 N   0  0  0  0  0  2  0  0  0  0  0  0
  179.9290  179.6300  142.8390 C   0  0  0  0  0  2  0  0  0  0  0  0
  179.1740  180.9950  140.8630 C   0  0  0  0  0  0  0  0  0  0  0  0
  179.6750  180.9080  142.1960 N   0  0  0  0  0  2  0  0  0  0  0  0
  178.9460  182.2410  140.2950 O   0  0  0  0  0  1  0  0  0  0  0  0
  178.9380  179.9530  140.1960 O   0  0  0  0  0  0  0  0  0  0  0  0
  1 19  1  0  0  0  0
  2  9  1  0  0  0  0
  3  2  1  0  0  0  0
  3 16  1  0  0  0  0
  4 20  1  0  0  0  0
  5  4  1  0  0  0  0
  5 15  1  0  0  0  0
  6 25  1  0  0  0  0
  7 14  2  0  0  0  0
  8 23  1  0  0  0  0
  8 13  2  0  0  0  0
  9 11  1  0  0  0  0
 10  7  1  0  0  0  0
 10  1  2  0  0  0  0
 11 10  1  0  0  0  0
 12 22  1  0  0  0  0
 13 15  1  0  0  0  0
 14 26  1  0  0  0  0
 14  6  1  0  0  0  0
 16 17  1  0  0  0  0
 17 11  2  0  0  0  0
 17 12  1  0  0  0  0
 18 12  2  0  0  0  0
 18 23  1  0  0  0  0
 19  6  2  0  0  0  0
 21  8  1  0  0  0  0
 22  1  1  0  0  0  0
 22  4  2  0  0  0  0
 23  5  2  0  0  0  0
 25 24  1  0  0  0  0
 27 28  1  0  0  0  0
 27 26  1  0  0  0  0
 29 30  1  0  0  0  0
 30 28  1  0  0  0  0
 31 29  1  0  0  0  0
 32 29  2  0  0  0  0
M  END
>  <MODEL>
6

>  <REMARK>
 VINA RESULT:      -8.5      3.190      4.880
  Name = 
  5 active torsions:
  status: ('A' for Active; 'I' for Inactive)
    1  A    between atoms: N_2  and  C_12
    2  A    between atoms: N_2  and  C_24
    3  A    between atoms: C_8  and  C_23
    4  A    between atoms: N_10  and  C_24
    5  A    between atoms: C_12  and  C_21
                            x       y       z     vdW  Elec       q    Type
                         _______ _______ _______ _____ _____    ______ ____

>  <TORSDO>
F 5

$$$$
=
 OpenBabel10262421293D

 32 36  0  0  0  0  0  0  0  0999 V2000
  188.1410  177.8110  141.3320 C   0  0  0  0  0  0  0  0  0  0  0  0
  191.8700  175.6790  143.9710 S   0  0  0  0  0  0  0  0  0  0  0  0
  190.6870  176.1050  145.3190 C   0  0  0  0  0  2  0  0  0  0  0  0
  185.9640  178.3370  142.4590 C   0  0  0  0  0  0  0  0  0  0  0  0
  185.2830  178.5290  143.6590 C   0  0  0  0  0  0  0  0  0  0  0  0
  188.3490  177.6910  138.8950 C   0  0  0  0  0  0  0  0  0  0  0  0
  190.2850  177.2910  140.2880 C   0  0  0  0  0  2  0  0  0  0  0  0
  184.9200  178.6820  145.8800 C   0  0  0  0  0  0  0  0  0  0  0  0
  191.5890  177.1080  142.8600 C   0  0  0  0  0  2  0  0  0  0  0  0
  189.5220  177.5030  141.4460 C   0  0  0  0  0  0  0  0  0  0  0  0
  190.1240  177.4070  142.7110 C   0  0  0  0  0  0  0  0  0  0  0  0
  188.0010  177.9240  143.7830 C   0  0  0  0  0  0  0  0  0  0  0  0
  183.7610  178.9250  145.3550 N   0  0  0  0  0  0  0  0  0  0  0  0
  189.7110  177.3750  139.0190 C   0  0  0  0  0  0  0  0  0  0  0  0
  183.8460  178.8580  143.8920 C   0  0  0  0  0  3  0  0  0  0  0  0
  190.0650  177.4910  145.1930 C   0  0  0  0  0  2  0  0  0  0  0  0
  189.3700  177.6190  143.8690 C   0  0  0  0  0  0  0  0  0  0  0  0
  187.2610  178.1290  144.9660 C   0  0  0  0  0  3  0  0  0  0  0  0
  187.5830  177.8970  140.0450 C   0  0  0  0  0  3  0  0  0  0  0  0
  185.2580  178.4550  141.2660 O   0  0  0  0  0  1  0  0  0  0  0  0
  185.1630  178.6760  147.3480 C   0  0  0  0  0  1  0  0  0  0  0  0
  187.3600  178.0250  142.5020 C   0  0  0  0  0  0  0  0  0  0  0  0
  185.9120  178.4280  144.8620 C   0  0  0  0  0  0  0  0  0  0  0  0
  186.2350  178.2010  137.7270 C   0  0  0  0  0  1  0  0  0  0  0  0
  187.6850  177.7870  137.5610 C   0  0  0  0  0  2  0  0  0  0  0  0
  190.5800  177.1630  137.8200 C   0  0  0  0  0  2  0  0  0  0  0  0
  191.9130  176.7550  138.2350 N   0  0  0  0  0  2  0  0  0  0  0  0
  192.5300  176.0930  137.0990 C   0  0  0  0  0  2  0  0  0  0  0  0
  194.6890  174.8940  137.5880 C   0  0  0  0  0  0  0  0  0  0  0  0
  193.9730  176.0860  137.2680 N   0  0  0  0  0  2  0  0  0  0  0  0
  196.0680  174.9410  137.7370 O   0  0  0  0  0  1  0  0  0  0  0  0
  194.0820  173.8010  137.7370 O   0  0  0  0  0  0  0  0  0  0  0  0
  1 10  1  0  0  0  0
  1 22  1  0  0  0  0
  2  3  1  0  0  0  0
  4 22  2  0  0  0  0
  4  5  1  0  0  0  0
  5 15  2  0  0  0  0
  5 23  1  0  0  0  0
  6 14  2  0  0  0  0
  6 19  1  0  0  0  0
  7 10  1  0  0  0  0
  8 21  1  0  0  0  0
  9  2  1  0  0  0  0
 10 11  2  0  0  0  0
 11  9  1  0  0  0  0
 11 17  1  0  0  0  0
 12 17  2  0  0  0  0
 12 18  1  0  0  0  0
 13  8  2  0  0  0  0
 14  7  1  0  0  0  0
 15 13  1  0  0  0  0
 16  3  1  0  0  0  0
 17 16  1  0  0  0  0
 19  1  2  0  0  0  0
 20  4  1  0  0  0  0
 22 12  1  0  0  0  0
 23 18  2  0  0  0  0
 23  8  1  0  0  0  0
 25 24  1  0  0  0  0
 25  6  1  0  0  0  0
 26 27  1  0  0  0  0
 26 14  1  0  0  0  0
 28 30  1  0  0  0  0
 28 27  1  0  0  0  0
 29 32  2  0  0  0  0
 29 31  1  0  0  0  0
 30 29  1  0  0  0  0
M  END
>  <MODEL>
7

>  <REMARK>
 VINA RESULT:      -8.5      3.879      5.959
  Name = 
  5 active torsions:
  status: ('A' for Active; 'I' for Inactive)
    1  A    between atoms: N_2  and  C_12
    2  A    between atoms: N_2  and  C_24
    3  A    between atoms: C_8  and  C_23
    4  A    between atoms: N_10  and  C_24
    5  A    between atoms: C_12  and  C_21
                            x       y       z     vdW  Elec       q    Type
                         _______ _______ _______ _____ _____    ______ ____

>  <TORSDO>
F 5

$$$$
=
 OpenBabel10262421293D

 32 36  0  0  0  0  0  0  0  0999 V2000
  187.6300  178.0330  141.6720 C   0  0  0  0  0  0  0  0  0  0  0  0
  183.4810  179.7420  143.9690 S   0  0  0  0  0  0  0  0  0  0  0  0
  184.5480  179.3500  145.4200 C   0  0  0  0  0  2  0  0  0  0  0  0
  189.7140  177.6280  143.0080 C   0  0  0  0  0  0  0  0  0  0  0  0
  190.2780  177.4360  144.2660 C   0  0  0  0  0  0  0  0  0  0  0  0
  187.6700  178.2460  139.2330 C   0  0  0  0  0  0  0  0  0  0  0  0
  185.5720  178.4300  140.4220 C   0  0  0  0  0  2  0  0  0  0  0  0
  190.4180  177.2100  146.5070 C   0  0  0  0  0  0  0  0  0  0  0  0
  183.9950  178.3920  142.8430 C   0  0  0  0  0  2  0  0  0  0  0  0
  186.2240  178.2260  141.6480 C   0  0  0  0  0  0  0  0  0  0  0  0
  185.4870  178.2160  142.8420 C   0  0  0  0  0  0  0  0  0  0  0  0
  187.5210  177.8190  144.1190 C   0  0  0  0  0  0  0  0  0  0  0  0
  191.6410  177.0830  146.1020 N   0  0  0  0  0  0  0  0  0  0  0  0
  186.2810  178.4490  139.2210 C   0  0  0  0  0  0  0  0  0  0  0  0
  191.7050  177.2100  144.6420 C   0  0  0  0  0  3  0  0  0  0  0  0
  185.2920  178.0250  145.3120 C   0  0  0  0  0  2  0  0  0  0  0  0
  186.1310  178.0120  144.0670 C   0  0  0  0  0  0  0  0  0  0  0  0
  188.1480  177.6200  145.3660 C   0  0  0  0  0  3  0  0  0  0  0  0
  188.3260  178.0490  140.4500 C   0  0  0  0  0  3  0  0  0  0  0  0
  190.5480  177.6200  141.8950 O   0  0  0  0  0  1  0  0  0  0  0  0
  190.0230  177.1310  147.9390 C   0  0  0  0  0  1  0  0  0  0  0  0
  188.2990  177.8270  142.9110 C   0  0  0  0  0  0  0  0  0  0  0  0
  189.5210  177.4320  145.3980 C   0  0  0  0  0  0  0  0  0  0  0  0
  189.7770  177.5110  138.1790 C   0  0  0  0  0  1  0  0  0  0  0  0
  188.4760  178.2640  137.9760 C   0  0  0  0  0  2  0  0  0  0  0  0
  185.5280  178.6460  137.9440 C   0  0  0  0  0  2  0  0  0  0  0  0
  184.6440  177.5160  137.7050 N   0  0  0  0  0  2  0  0  0  0  0  0
  185.2250  176.7410  136.6220 C   0  0  0  0  0  2  0  0  0  0  0  0
  186.2340  174.5110  137.2090 C   0  0  0  0  0  0  0  0  0  0  0  0
  185.0990  175.3240  136.9190 N   0  0  0  0  0  2  0  0  0  0  0  0
  186.0600  173.1620  137.4880 O   0  0  0  0  0  1  0  0  0  0  0  0
  187.3930  175.0040  137.2130 O   0  0  0  0  0  0  0  0  0  0  0  0
  1 22  1  0  0  0  0
  2  3  1  0  0  0  0
  4  5  1  0  0  0  0
  5 15  2  0  0  0  0
  5 23  1  0  0  0  0
  6 19  1  0  0  0  0
  7 10  1  0  0  0  0
  8 21  1  0  0  0  0
  9  2  1  0  0  0  0
 10  1  1  0  0  0  0
 10 11  2  0  0  0  0
 11  9  1  0  0  0  0
 11 17  1  0  0  0  0
 12 18  1  0  0  0  0
 13  8  2  0  0  0  0
 14  6  2  0  0  0  0
 14  7  1  0  0  0  0
 15 13  1  0  0  0  0
 16  3  1  0  0  0  0
 17 12  2  0  0  0  0
 17 16  1  0  0  0  0
 18 23  2  0  0  0  0
 19  1  2  0  0  0  0
 20  4  1  0  0  0  0
 22  4  2  0  0  0  0
 22 12  1  0  0  0  0
 23  8  1  0  0  0  0
 25 24  1  0  0  0  0
 25  6  1  0  0  0  0
 26 14  1  0  0  0  0
 27 26  1  0  0  0  0
 28 30  1  0  0  0  0
 28 27  1  0  0  0  0
 29 32  2  0  0  0  0
 29 31  1  0  0  0  0
 30 29  1  0  0  0  0
M  END
>  <MODEL>
8

>  <REMARK>
 VINA RESULT:      -8.2      2.363      4.292
  Name = 
  5 active torsions:
  status: ('A' for Active; 'I' for Inactive)
    1  A    between atoms: N_2  and  C_12
    2  A    between atoms: N_2  and  C_24
    3  A    between atoms: C_8  and  C_23
    4  A    between atoms: N_10  and  C_24
    5  A    between atoms: C_12  and  C_21
                            x       y       z     vdW  Elec       q    Type
                         _______ _______ _______ _____ _____    ______ ____

>  <TORSDO>
F 5

$$$$
=
 OpenBabel10262421293D

 32 36  0  0  0  0  0  0  0  0999 V2000
  187.5480  177.9580  141.8450 C   0  0  0  0  0  0  0  0  0  0  0  0
  183.7970  179.7190  144.7160 S   0  0  0  0  0  0  0  0  0  0  0  0
  185.0210  179.2270  146.0040 C   0  0  0  0  0  2  0  0  0  0  0  0
  189.7650  177.4210  142.8880 C   0  0  0  0  0  0  0  0  0  0  0  0
  190.4750  177.1550  144.0560 C   0  0  0  0  0  0  0  0  0  0  0  0
  187.2890  178.2730  139.4320 C   0  0  0  0  0  0  0  0  0  0  0  0
  185.3670  178.4830  140.8850 C   0  0  0  0  0  2  0  0  0  0  0  0
  190.8870  176.8290  146.2500 C   0  0  0  0  0  0  0  0  0  0  0  0
  184.1080  178.4000  143.4840 C   0  0  0  0  0  2  0  0  0  0  0  0
  186.1600  178.2030  142.0080 C   0  0  0  0  0  0  0  0  0  0  0  0
  185.5800  178.1700  143.2860 C   0  0  0  0  0  0  0  0  0  0  0  0
  187.7400  177.6440  144.2760 C   0  0  0  0  0  0  0  0  0  0  0  0
  192.0430  176.6750  145.6880 N   0  0  0  0  0  0  0  0  0  0  0  0
  185.9190  178.5270  139.6040 C   0  0  0  0  0  0  0  0  0  0  0  0
  191.9270  176.8610  144.2380 C   0  0  0  0  0  3  0  0  0  0  0  0
  185.6900  177.8810  145.7510 C   0  0  0  0  0  2  0  0  0  0  0  0
  186.3630  177.8900  144.4100 C   0  0  0  0  0  0  0  0  0  0  0  0
  188.5100  177.3690  145.4250 C   0  0  0  0  0  3  0  0  0  0  0  0
  188.0840  178.0010  140.5470 C   0  0  0  0  0  3  0  0  0  0  0  0
  190.4510  177.4300  141.6780 O   0  0  0  0  0  1  0  0  0  0  0  0
  190.6730  176.7030  147.7170 C   0  0  0  0  0  1  0  0  0  0  0  0
  188.3590  177.6750  142.9800 C   0  0  0  0  0  0  0  0  0  0  0  0
  189.8670  177.1310  145.2740 C   0  0  0  0  0  0  0  0  0  0  0  0
  189.4390  178.2570  138.2200 C   0  0  0  0  0  1  0  0  0  0  0  0
  187.9300  178.3140  138.0830 C   0  0  0  0  0  2  0  0  0  0  0  0
  185.0200  178.8060  138.4420 C   0  0  0  0  0  2  0  0  0  0  0  0
  184.0590  179.8400  138.7900 N   0  0  0  0  0  2  0  0  0  0  0  0
  182.7350  179.2800  138.5840 C   0  0  0  0  0  2  0  0  0  0  0  0
  181.6130  178.2510  140.5890 C   0  0  0  0  0  0  0  0  0  0  0  0
  181.9650  179.3940  139.8110 N   0  0  0  0  0  2  0  0  0  0  0  0
  180.8780  178.4140  141.7550 O   0  0  0  0  0  1  0  0  0  0  0  0
  181.9620  177.0960  140.2280 O   0  0  0  0  0  0  0  0  0  0  0  0
  1 10  1  0  0  0  0
  1 22  1  0  0  0  0
  2  3  1  0  0  0  0
  4 22  2  0  0  0  0
  4  5  1  0  0  0  0
  5 15  2  0  0  0  0
  5 23  1  0  0  0  0
  6 14  2  0  0  0  0
  6 19  1  0  0  0  0
  7 10  1  0  0  0  0
  8 21  1  0  0  0  0
  9  2  1  0  0  0  0
 10 11  2  0  0  0  0
 11  9  1  0  0  0  0
 11 17  1  0  0  0  0
 12 17  2  0  0  0  0
 12 18  1  0  0  0  0
 13  8  2  0  0  0  0
 14  7  1  0  0  0  0
 15 13  1  0  0  0  0
 16  3  1  0  0  0  0
 17 16  1  0  0  0  0
 19  1  2  0  0  0  0
 20  4  1  0  0  0  0
 22 12  1  0  0  0  0
 23 18  2  0  0  0  0
 23  8  1  0  0  0  0
 25 24  1  0  0  0  0
 25  6  1  0  0  0  0
 26 27  1  0  0  0  0
 26 14  1  0  0  0  0
 28 27  1  0  0  0  0
 28 30  1  0  0  0  0
 29 31  1  0  0  0  0
 30 29  1  0  0  0  0
 32 29  2  0  0  0  0
M  END
>  <MODEL>
9

>  <REMARK>
 VINA RESULT:      -8.2      2.755      4.574
  Name = 
  5 active torsions:
  status: ('A' for Active; 'I' for Inactive)
    1  A    between atoms: N_2  and  C_12
    2  A    between atoms: N_2  and  C_24
    3  A    between atoms: C_8  and  C_23
    4  A    between atoms: N_10  and  C_24
    5  A    between atoms: C_12  and  C_21
                            x       y       z     vdW  Elec       q    Type
                         _______ _______ _______ _____ _____    ______ ____

>  <TORSDO>
F 5

$$$$
