=
 OpenBabel10262423003D

 37 40  0  0  1  0  0  0  0  0999 V2000
  181.5340  179.4710  142.5720 C   0  0  0  0  0  2  0  0  0  0  0  0
  179.5010  175.9770  140.3400 C   0  0  0  0  0  3  0  0  0  0  0  0
  182.5460  179.0970  141.4820 C   0  0  2  0  0  3  0  0  0  0  0  0
  180.0290  177.2630  140.4960 C   0  0  0  0  0  0  0  0  0  0  0  0
  179.1690  178.4330  141.5520 S   0  0  0  0  0  0  0  0  0  0  0  0
  181.2180  177.6190  139.8340 C   0  0  0  0  0  0  0  0  0  0  0  0
  181.3320  175.3930  138.8720 C   0  0  0  0  0  3  0  0  0  0  0  0
  180.4760  178.3900  142.8270 C   0  0  2  0  0  3  0  0  0  0  0  0
  181.8700  176.6720  139.0350 C   0  0  0  0  0  3  0  0  0  0  0  0
  181.8510  178.9540  140.1140 C   0  0  2  0  0  3  0  0  0  0  0  0
  180.1430  175.0390  139.5270 C   0  0  0  0  0  0  0  0  0  0  0  0
  184.8430  178.0640  141.6400 C   0  0  0  0  0  2  0  0  0  0  0  0
  183.3630  177.8580  141.8930 C   0  0  1  0  0  3  0  0  0  0  0  0
  184.3300  178.0820  143.0640 C   0  0  2  0  0  3  0  0  0  0  0  0
  184.3870  179.5090  143.5950 C   0  0  0  0  0  2  0  0  0  0  0  0
  184.5430  179.4890  145.0040 O   0  0  0  0  0  0  0  0  0  0  0  0
  186.6350  178.2050  144.9170 C   0  0  0  0  0  3  0  0  0  0  0  0
  185.6330  178.8690  145.6130 C   0  0  0  0  0  0  0  0  0  0  0  0
  185.9400  178.8070  147.2730 S   0  0  0  0  0  0  0  0  0  0  0  0
  188.2220  177.4930  148.2620 C   0  0  0  0  0  1  0  0  0  0  0  0
  188.7080  176.9730  145.3240 O   0  0  0  0  0  1  0  0  0  0  0  0
  187.3650  177.9280  147.1250 C   0  0  0  0  0  0  0  0  0  0  0  0
  187.6030  177.6800  145.7810 C   0  0  0  0  0  0  0  0  0  0  0  0
  179.5810  173.7670  139.3890 O   0  0  0  0  0  0  0  0  0  0  0  0
  179.7310  172.9840  138.2120 C   0  0  0  0  0  1  0  0  0  0  0  0
  179.9020  178.5290  144.1630 N   0  0  0  0  0  2  0  0  0  0  0  0
  179.5750  177.2960  144.6270 O   0  0  0  0  0  1  0  0  0  0  0  0
  182.4540  179.7050  138.9190 C   0  0  1  0  0  3  0  0  0  0  0  0
  181.9570  181.1200  138.8930 C   0  0  0  0  0  0  0  0  0  0  0  0
  182.7550  182.0600  138.6350 O   0  0  0  0  0  0  0  0  0  0  0  0
  180.6230  181.4210  139.1750 O   0  0  0  0  0  0  0  0  0  0  0  0
  179.8400  182.2590  138.3380 C   0  0  0  0  0  1  0  0  0  0  0  0
  183.9770  179.6720  138.8730 C   0  0  0  0  0  2  0  0  0  0  0  0
  184.4560  178.5030  138.0390 C   0  0  0  0  0  2  0  0  0  0  0  0
  185.9150  178.2360  138.3380 C   0  0  0  0  0  2  0  0  0  0  0  0
  187.6540  178.8020  136.6750 C   0  0  0  0  0  1  0  0  0  0  0  0
  186.6130  177.7780  137.0750 C   0  0  0  0  0  2  0  0  0  0  0  0
  1  8  1  0  0  0  0
  2  4  1  0  0  0  0
  3 13  1  0  0  0  0
  3  1  1  1  0  0  0
  4  5  1  0  0  0  0
  5  8  1  0  0  0  0
  6 10  1  0  0  0  0
  6  4  2  0  0  0  0
  7  9  2  0  0  0  0
  7 11  1  0  0  0  0
  8 26  1  1  0  0  0
  9  6  1  0  0  0  0
 10 28  1  6  0  0  0
 10  3  1  0  0  0  0
 11  2  2  0  0  0  0
 12 14  1  0  0  0  0
 13 12  1  6  0  0  0
 13 14  1  0  0  0  0
 14 15  1  6  0  0  0
 15 16  1  0  0  0  0
 16 18  1  0  0  0  0
 17 18  2  0  0  0  0
 17 23  1  0  0  0  0
 18 19  1  0  0  0  0
 21 23  1  0  0  0  0
 22 19  1  0  0  0  0
 22 20  1  0  0  0  0
 23 22  2  0  0  0  0
 24 11  1  0  0  0  0
 25 24  1  0  0  0  0
 26 27  1  0  0  0  0
 28 33  1  1  0  0  0
 29 28  1  0  0  0  0
 29 31  1  0  0  0  0
 30 29  2  0  0  0  0
 32 31  1  0  0  0  0
 34 35  1  0  0  0  0
 34 33  1  0  0  0  0
 36 37  1  0  0  0  0
 37 35  1  0  0  0  0
M  END
>  <MODEL>
1

>  <REMARK>
 VINA RESULT:      -6.1      0.000      0.000
  Name = 
  13 active torsions:
  status: ('A' for Active; 'I' for Inactive)
    1  A    between atoms: C_1  and  O_12
    2  A    between atoms: C_1  and  C_36
    3  A    between atoms: O_3  and  C_32
    4  A    between atoms: C_6  and  O_31
    5  A    between atoms: C_10  and  C_14
    6  A    between atoms: C_17  and  C_26
    7  A    between atoms: C_17  and  C_33
    8  A    between atoms: N_22  and  C_24
    9  A    between atoms: C_26  and  C_34
   10  A    between atoms: C_27  and  C_37
   11  A    between atoms: C_29  and  C_36
   12  A    between atoms: O_31  and  C_37
   13  A    between atoms: C_33  and  C_36
                            x       y       z     vdW  Elec       q    Type
                         _______ _______ _______ _____ _____    ______ ____

>  <TORSDO>
F 13

$$$$
=
 OpenBabel10262423003D

 37 40  0  0  1  0  0  0  0  0999 V2000
  181.9060  179.2360  137.1960 C   0  0  0  0  0  2  0  0  0  0  0  0
  180.7540  175.2200  135.2300 C   0  0  0  0  0  3  0  0  0  0  0  0
  182.7530  178.2050  137.9510 C   0  0  2  0  0  3  0  0  0  0  0  0
  181.5980  176.2800  135.5780 C   0  0  0  0  0  0  0  0  0  0  0  0
  181.3170  177.8920  134.8380 S   0  0  0  0  0  0  0  0  0  0  0  0
  182.6420  176.0750  136.4980 C   0  0  0  0  0  0  0  0  0  0  0  0
  181.9790  173.7490  136.7080 C   0  0  0  0  0  3  0  0  0  0  0  0
  180.7410  178.6210  136.4110 C   0  0  2  0  0  3  0  0  0  0  0  0
  182.8150  174.8070  137.0680 C   0  0  0  0  0  3  0  0  0  0  0  0
  183.4560  177.2480  136.9700 C   0  0  2  0  0  3  0  0  0  0  0  0
  180.9410  173.9520  135.7860 C   0  0  0  0  0  0  0  0  0  0  0  0
  182.7830  176.6290  139.9230 C   0  0  0  0  0  2  0  0  0  0  0  0
  181.9140  177.4860  139.0230 C   0  0  1  0  0  3  0  0  0  0  0  0
  182.2030  177.9170  140.4680 C   0  0  2  0  0  3  0  0  0  0  0  0
  183.3230  178.9380  140.6280 C   0  0  0  0  0  2  0  0  0  0  0  0
  184.4780  178.3030  141.1490 O   0  0  0  0  0  0  0  0  0  0  0  0
  183.9100  178.7770  143.4910 C   0  0  0  0  0  3  0  0  0  0  0  0
  184.7920  178.3510  142.5070 C   0  0  0  0  0  0  0  0  0  0  0  0
  186.2670  177.9090  143.2010 S   0  0  0  0  0  0  0  0  0  0  0  0
  186.6580  178.0920  145.9800 C   0  0  0  0  0  1  0  0  0  0  0  0
  183.8060  179.0940  145.9140 O   0  0  0  0  0  1  0  0  0  0  0  0
  185.7980  178.2570  144.7760 C   0  0  0  0  0  0  0  0  0  0  0  0
  184.4900  178.7200  144.7640 C   0  0  0  0  0  0  0  0  0  0  0  0
  180.0830  172.9150  135.4070 O   0  0  0  0  0  0  0  0  0  0  0  0
  179.6000  171.9440  136.3270 C   0  0  0  0  0  1  0  0  0  0  0  0
  179.6940  179.6110  136.1710 N   0  0  0  0  0  2  0  0  0  0  0  0
  180.2500  180.8490  136.2000 O   0  0  0  0  0  1  0  0  0  0  0  0
  184.9660  177.0270  137.1380 C   0  0  1  0  0  3  0  0  0  0  0  0
  185.5920  176.7070  135.8130 C   0  0  0  0  0  0  0  0  0  0  0  0
  185.4020  177.4710  134.8290 O   0  0  0  0  0  0  0  0  0  0  0  0
  186.3670  175.5580  135.6400 O   0  0  0  0  0  0  0  0  0  0  0  0
  186.4080  174.5180  136.6040 C   0  0  0  0  0  1  0  0  0  0  0  0
  185.6900  178.1900  137.8050 C   0  0  0  0  0  2  0  0  0  0  0  0
  187.1660  177.8840  137.9470 C   0  0  0  0  0  2  0  0  0  0  0  0
  187.5780  178.0520  139.3930 C   0  0  0  0  0  2  0  0  0  0  0  0
  189.4000  177.6660  141.0190 C   0  0  0  0  0  1  0  0  0  0  0  0
  189.0320  177.6620  139.5500 C   0  0  0  0  0  2  0  0  0  0  0  0
  2  4  2  0  0  0  0
  2 11  1  0  0  0  0
  3  1  1  6  0  0  0
  3 13  1  0  0  0  0
  4  6  1  0  0  0  0
  5  4  1  0  0  0  0
  5  8  1  0  0  0  0
  6 10  1  0  0  0  0
  6  9  2  0  0  0  0
  7  9  1  0  0  0  0
  8 26  1  6  0  0  0
  8  1  1  0  0  0  0
 10 28  1  1  0  0  0
 10  3  1  0  0  0  0
 11  7  2  0  0  0  0
 12 14  1  0  0  0  0
 13 12  1  1  0  0  0
 13 14  1  0  0  0  0
 14 15  1  6  0  0  0
 15 16  1  0  0  0  0
 16 18  1  0  0  0  0
 17 23  1  0  0  0  0
 18 19  1  0  0  0  0
 18 17  2  0  0  0  0
 19 22  1  0  0  0  0
 22 20  1  0  0  0  0
 23 22  2  0  0  0  0
 23 21  1  0  0  0  0
 24 11  1  0  0  0  0
 24 25  1  0  0  0  0
 26 27  1  0  0  0  0
 28 33  1  6  0  0  0
 29 28  1  0  0  0  0
 30 29  2  0  0  0  0
 31 29  1  0  0  0  0
 31 32  1  0  0  0  0
 33 34  1  0  0  0  0
 34 35  1  0  0  0  0
 35 37  1  0  0  0  0
 37 36  1  0  0  0  0
M  END
>  <MODEL>
2

>  <REMARK>
 VINA RESULT:      -6.1      3.396      4.975
  Name = 
  13 active torsions:
  status: ('A' for Active; 'I' for Inactive)
    1  A    between atoms: C_1  and  O_12
    2  A    between atoms: C_1  and  C_36
    3  A    between atoms: O_3  and  C_32
    4  A    between atoms: C_6  and  O_31
    5  A    between atoms: C_10  and  C_14
    6  A    between atoms: C_17  and  C_26
    7  A    between atoms: C_17  and  C_33
    8  A    between atoms: N_22  and  C_24
    9  A    between atoms: C_26  and  C_34
   10  A    between atoms: C_27  and  C_37
   11  A    between atoms: C_29  and  C_36
   12  A    between atoms: O_31  and  C_37
   13  A    between atoms: C_33  and  C_36
                            x       y       z     vdW  Elec       q    Type
                         _______ _______ _______ _____ _____    ______ ____

>  <TORSDO>
F 13

$$$$
=
 OpenBabel10262423003D

 37 40  0  0  1  0  0  0  0  0999 V2000
  183.7140  178.0020  141.2860 C   0  0  0  0  0  2  0  0  0  0  0  0
  182.0430  181.1760  138.3780 C   0  0  0  0  0  3  0  0  0  0  0  0
  182.2010  177.9610  141.5320 C   0  0  2  0  0  3  0  0  0  0  0  0
  182.2390  179.8910  138.8970 C   0  0  0  0  0  0  0  0  0  0  0  0
  183.8620  179.1360  138.7550 S   0  0  0  0  0  0  0  0  0  0  0  0
  181.1760  179.2180  139.5240 C   0  0  0  0  0  0  0  0  0  0  0  0
  179.7360  181.1260  139.1010 C   0  0  0  0  0  3  0  0  0  0  0  0
  184.1840  179.2620  140.5490 C   0  0  2  0  0  3  0  0  0  0  0  0
  179.9300  179.8490  139.6330 C   0  0  0  0  0  3  0  0  0  0  0  0
  181.4290  177.8980  140.2000 C   0  0  2  0  0  3  0  0  0  0  0  0
  180.7950  181.7970  138.4700 C   0  0  0  0  0  0  0  0  0  0  0  0
  181.2600  178.6080  143.7830 C   0  0  0  0  0  2  0  0  0  0  0  0
  181.7620  179.1190  142.4470 C   0  0  1  0  0  3  0  0  0  0  0  0
  182.6070  179.2950  143.7170 C   0  0  2  0  0  3  0  0  0  0  0  0
  183.7040  178.2570  143.9150 C   0  0  0  0  0  2  0  0  0  0  0  0
  184.9560  178.9060  144.0610 O   0  0  0  0  0  0  0  0  0  0  0  0
  187.0590  177.8050  144.6940 C   0  0  0  0  0  3  0  0  0  0  0  0
  185.8920  178.4890  145.0070 C   0  0  0  0  0  0  0  0  0  0  0  0
  185.7910  178.7310  146.6760 S   0  0  0  0  0  0  0  0  0  0  0  0
  187.8180  177.7940  148.3870 C   0  0  0  0  0  1  0  0  0  0  0  0
  189.0210  176.8350  145.7850 O   0  0  0  0  0  1  0  0  0  0  0  0
  187.2440  177.9610  147.0230 C   0  0  0  0  0  0  0  0  0  0  0  0
  187.8100  177.5130  145.8380 C   0  0  0  0  0  0  0  0  0  0  0  0
  180.6350  183.0760  137.9320 O   0  0  0  0  0  0  0  0  0  0  0  0
  180.7760  183.3490  136.5440 C   0  0  0  0  0  1  0  0  0  0  0  0
  185.6000  179.5160  140.8050 N   0  0  0  0  0  2  0  0  0  0  0  0
  186.3390  178.7350  139.9780 O   0  0  0  0  0  1  0  0  0  0  0  0
  180.3540  176.8140  140.0420 C   0  0  1  0  0  3  0  0  0  0  0  0
  179.4810  176.7710  141.2610 C   0  0  0  0  0  0  0  0  0  0  0  0
  178.9320  177.8260  141.6770 O   0  0  0  0  0  0  0  0  0  0  0  0
  179.2810  175.5800  141.9630 O   0  0  0  0  0  0  0  0  0  0  0  0
  179.4020  174.3060  141.3480 C   0  0  0  0  0  1  0  0  0  0  0  0
  179.5090  176.9610  138.7830 C   0  0  0  0  0  2  0  0  0  0  0  0
  180.0330  176.0590  137.6850 C   0  0  0  0  0  2  0  0  0  0  0  0
  180.8570  176.8760  136.7140 C   0  0  0  0  0  2  0  0  0  0  0  0
  180.9380  179.0530  135.5460 C   0  0  0  0  0  1  0  0  0  0  0  0
  180.0290  178.0340  136.2000 C   0  0  0  0  0  2  0  0  0  0  0  0
  2 11  2  0  0  0  0
  2  4  1  0  0  0  0
  3  1  1  6  0  0  0
  3 13  1  0  0  0  0
  4  6  2  0  0  0  0
  5  4  1  0  0  0  0
  5  8  1  0  0  0  0
  6  9  1  0  0  0  0
  6 10  1  0  0  0  0
  7  9  2  0  0  0  0
  8 26  1  6  0  0  0
  8  1  1  0  0  0  0
 10 28  1  1  0  0  0
 10  3  1  0  0  0  0
 11  7  1  0  0  0  0
 13 14  1  0  0  0  0
 13 12  1  1  0  0  0
 14 12  1  0  0  0  0
 14 15  1  6  0  0  0
 15 16  1  0  0  0  0
 16 18  1  0  0  0  0
 17 18  2  0  0  0  0
 17 23  1  0  0  0  0
 18 19  1  0  0  0  0
 19 22  1  0  0  0  0
 21 23  1  0  0  0  0
 22 20  1  0  0  0  0
 23 22  2  0  0  0  0
 24 11  1  0  0  0  0
 25 24  1  0  0  0  0
 27 26  1  0  0  0  0
 28 33  1  6  0  0  0
 28 29  1  0  0  0  0
 29 30  2  0  0  0  0
 29 31  1  0  0  0  0
 32 31  1  0  0  0  0
 34 33  1  0  0  0  0
 35 34  1  0  0  0  0
 36 37  1  0  0  0  0
 37 35  1  0  0  0  0
M  END
>  <MODEL>
3

>  <REMARK>
 VINA RESULT:      -5.8      2.368      5.032
  Name = 
  13 active torsions:
  status: ('A' for Active; 'I' for Inactive)
    1  A    between atoms: C_1  and  O_12
    2  A    between atoms: C_1  and  C_36
    3  A    between atoms: O_3  and  C_32
    4  A    between atoms: C_6  and  O_31
    5  A    between atoms: C_10  and  C_14
    6  A    between atoms: C_17  and  C_26
    7  A    between atoms: C_17  and  C_33
    8  A    between atoms: N_22  and  C_24
    9  A    between atoms: C_26  and  C_34
   10  A    between atoms: C_27  and  C_37
   11  A    between atoms: C_29  and  C_36
   12  A    between atoms: O_31  and  C_37
   13  A    between atoms: C_33  and  C_36
                            x       y       z     vdW  Elec       q    Type
                         _______ _______ _______ _____ _____    ______ ____

>  <TORSDO>
F 13

$$$$
=
 OpenBabel10262423003D

 37 40  0  0  1  0  0  0  0  0999 V2000
  183.0790  177.6050  137.6720 C   0  0  0  0  0  2  0  0  0  0  0  0
  185.6300  178.5360  141.4060 C   0  0  0  0  0  3  0  0  0  0  0  0
  182.0420  177.7690  138.7890 C   0  0  2  0  0  3  0  0  0  0  0  0
  184.6950  178.7920  140.3970 C   0  0  0  0  0  0  0  0  0  0  0  0
  185.2700  178.9640  138.7040 S   0  0  0  0  0  0  0  0  0  0  0  0
  183.3300  178.9050  140.7170 C   0  0  0  0  0  0  0  0  0  0  0  0
  183.8580  178.5020  143.0510 C   0  0  0  0  0  3  0  0  0  0  0  0
  184.5080  177.3870  138.1840 C   0  0  2  0  0  3  0  0  0  0  0  0
  182.9200  178.7450  142.0460 C   0  0  0  0  0  3  0  0  0  0  0  0
  182.3190  179.0420  139.6120 C   0  0  2  0  0  3  0  0  0  0  0  0
  185.2210  178.3960  142.7350 C   0  0  0  0  0  0  0  0  0  0  0  0
  180.5650  176.3310  140.2460 C   0  0  0  0  0  2  0  0  0  0  0  0
  181.9470  176.4910  139.6420 C   0  0  1  0  0  3  0  0  0  0  0  0
  180.9780  175.4270  139.1050 C   0  0  2  0  0  3  0  0  0  0  0  0
  180.2080  175.8240  137.8520 C   0  0  0  0  0  2  0  0  0  0  0  0
  180.1090  174.7110  136.9790 O   0  0  0  0  0  0  0  0  0  0  0  0
  182.3970  174.3480  136.1640 C   0  0  0  0  0  3  0  0  0  0  0  0
  181.2040  173.8920  136.7080 C   0  0  0  0  0  0  0  0  0  0  0  0
  181.2910  172.2280  136.9850 S   0  0  0  0  0  0  0  0  0  0  0  0
  183.6230  170.7880  136.3550 C   0  0  0  0  0  1  0  0  0  0  0  0
  184.5910  173.5130  135.4760 O   0  0  0  0  0  1  0  0  0  0  0  0
  182.8610  172.0650  136.4100 C   0  0  0  0  0  0  0  0  0  0  0  0
  183.3210  173.3090  136.0010 C   0  0  0  0  0  0  0  0  0  0  0  0
  186.1850  178.1490  143.7160 O   0  0  0  0  0  0  0  0  0  0  0  0
  187.4090  177.4820  143.4400 C   0  0  0  0  0  1  0  0  0  0  0  0
  185.3280  176.7230  137.1740 N   0  0  0  0  0  2  0  0  0  0  0  0
  184.8310  177.0200  135.9460 O   0  0  0  0  0  1  0  0  0  0  0  0
  181.1540  180.0130  139.8480 C   0  0  1  0  0  3  0  0  0  0  0  0
  181.1440  181.0760  138.7900 C   0  0  0  0  0  0  0  0  0  0  0  0
  182.0560  181.1050  137.9210 O   0  0  0  0  0  0  0  0  0  0  0  0
  180.1510  182.0580  138.7630 O   0  0  0  0  0  0  0  0  0  0  0  0
  180.2070  183.1710  137.8840 C   0  0  0  0  0  1  0  0  0  0  0  0
  179.7930  179.3350  139.9390 C   0  0  0  0  0  2  0  0  0  0  0  0
  178.9320  180.0110  140.9860 C   0  0  0  0  0  2  0  0  0  0  0  0
  179.6170  179.9250  142.3320 C   0  0  0  0  0  2  0  0  0  0  0  0
  179.9910  178.4840  144.3060 C   0  0  0  0  0  1  0  0  0  0  0  0
  179.4600  178.5260  142.8880 C   0  0  0  0  0  2  0  0  0  0  0  0
  1  8  1  0  0  0  0
  2 11  1  0  0  0  0
  3  1  1  6  0  0  0
  3 10  1  0  0  0  0
  3 13  1  0  0  0  0
  4  6  1  0  0  0  0
  4  2  2  0  0  0  0
  5  4  1  0  0  0  0
  6  9  2  0  0  0  0
  8 26  1  6  0  0  0
  8  5  1  0  0  0  0
  9  7  1  0  0  0  0
 10 28  1  1  0  0  0
 10  6  1  0  0  0  0
 11  7  2  0  0  0  0
 11 24  1  0  0  0  0
 13 12  1  1  0  0  0
 14 15  1  6  0  0  0
 14 13  1  0  0  0  0
 14 12  1  0  0  0  0
 16 15  1  0  0  0  0
 17 18  2  0  0  0  0
 18 16  1  0  0  0  0
 18 19  1  0  0  0  0
 20 22  1  0  0  0  0
 21 23  1  0  0  0  0
 22 19  1  0  0  0  0
 23 17  1  0  0  0  0
 23 22  2  0  0  0  0
 25 24  1  0  0  0  0
 27 26  1  0  0  0  0
 28 33  1  6  0  0  0
 29 28  1  0  0  0  0
 30 29  2  0  0  0  0
 31 29  1  0  0  0  0
 32 31  1  0  0  0  0
 33 34  1  0  0  0  0
 34 35  1  0  0  0  0
 35 37  1  0  0  0  0
 37 36  1  0  0  0  0
M  END
>  <MODEL>
4

>  <REMARK>
 VINA RESULT:      -5.7      3.271      7.840
  Name = 
  13 active torsions:
  status: ('A' for Active; 'I' for Inactive)
    1  A    between atoms: C_1  and  O_12
    2  A    between atoms: C_1  and  C_36
    3  A    between atoms: O_3  and  C_32
    4  A    between atoms: C_6  and  O_31
    5  A    between atoms: C_10  and  C_14
    6  A    between atoms: C_17  and  C_26
    7  A    between atoms: C_17  and  C_33
    8  A    between atoms: N_22  and  C_24
    9  A    between atoms: C_26  and  C_34
   10  A    between atoms: C_27  and  C_37
   11  A    between atoms: C_29  and  C_36
   12  A    between atoms: O_31  and  C_37
   13  A    between atoms: C_33  and  C_36
                            x       y       z     vdW  Elec       q    Type
                         _______ _______ _______ _____ _____    ______ ____

>  <TORSDO>
F 13

$$$$
=
 OpenBabel10262423003D

 37 40  0  0  1  0  0  0  0  0999 V2000
  183.8040  177.5900  140.5590 C   0  0  0  0  0  2  0  0  0  0  0  0
  181.5430  180.8220  138.1580 C   0  0  0  0  0  3  0  0  0  0  0  0
  182.6380  177.9760  141.4770 C   0  0  2  0  0  3  0  0  0  0  0  0
  181.7240  179.5840  138.7840 C   0  0  0  0  0  0  0  0  0  0  0  0
  182.8840  178.4130  138.0710 S   0  0  0  0  0  0  0  0  0  0  0  0
  181.0080  179.2770  139.9550 C   0  0  0  0  0  0  0  0  0  0  0  0
  179.9410  181.4550  139.8560 C   0  0  0  0  0  3  0  0  0  0  0  0
  184.0730  178.6080  139.4440 C   0  0  2  0  0  3  0  0  0  0  0  0
  180.1280  180.2250  140.4910 C   0  0  0  0  0  3  0  0  0  0  0  0
  181.3100  178.0040  140.6960 C   0  0  2  0  0  3  0  0  0  0  0  0
  180.6500  181.7600  138.6840 C   0  0  0  0  0  0  0  0  0  0  0  0
  182.7430  179.1270  143.7210 C   0  0  0  0  0  2  0  0  0  0  0  0
  182.9410  179.2870  142.2270 C   0  0  1  0  0  3  0  0  0  0  0  0
  184.1500  179.2250  143.1720 C   0  0  2  0  0  3  0  0  0  0  0  0
  184.8210  177.8620  143.2780 C   0  0  0  0  0  2  0  0  0  0  0  0
  186.2280  178.0140  143.1900 O   0  0  0  0  0  0  0  0  0  0  0  0
  186.6300  177.8910  145.6100 C   0  0  0  0  0  3  0  0  0  0  0  0
  187.0580  177.8100  144.2920 C   0  0  0  0  0  0  0  0  0  0  0  0
  188.7040  177.4310  144.2380 S   0  0  0  0  0  0  0  0  0  0  0  0
  190.1700  177.0620  146.6100 C   0  0  0  0  0  1  0  0  0  0  0  0
  187.4960  177.6620  147.8860 O   0  0  0  0  0  1  0  0  0  0  0  0
  188.8930  177.3660  145.9060 C   0  0  0  0  0  0  0  0  0  0  0  0
  187.6740  177.6400  146.5090 C   0  0  0  0  0  0  0  0  0  0  0  0
  180.4890  182.9830  138.0270 O   0  0  0  0  0  0  0  0  0  0  0  0
  181.1780  183.3060  136.8260 C   0  0  0  0  0  1  0  0  0  0  0  0
  185.4470  178.4970  138.9590 N   0  0  0  0  0  2  0  0  0  0  0  0
  186.2860  178.9710  139.9150 O   0  0  0  0  0  1  0  0  0  0  0  0
  180.1160  177.2370  141.2810 C   0  0  1  0  0  3  0  0  0  0  0  0
  179.6920  177.8540  142.5810 C   0  0  0  0  0  0  0  0  0  0  0  0
  179.9590  177.2740  143.6670 O   0  0  0  0  0  0  0  0  0  0  0  0
  178.9790  179.0540  142.6110 O   0  0  0  0  0  0  0  0  0  0  0  0
  178.9330  179.8810  143.7640 C   0  0  0  0  0  1  0  0  0  0  0  0
  178.9310  177.1210  140.3310 C   0  0  0  0  0  2  0  0  0  0  0  0
  179.3260  176.3680  139.0790 C   0  0  0  0  0  2  0  0  0  0  0  0
  179.9050  175.0230  139.4620 C   0  0  0  0  0  2  0  0  0  0  0  0
  181.8260  174.7400  137.9320 C   0  0  0  0  0  1  0  0  0  0  0  0
  180.4010  174.3160  138.2190 C   0  0  0  0  0  2  0  0  0  0  0  0
  2 11  2  0  0  0  0
  2  4  1  0  0  0  0
  3  1  1  6  0  0  0
  3 13  1  0  0  0  0
  4  6  2  0  0  0  0
  5  4  1  0  0  0  0
  5  8  1  0  0  0  0
  6  9  1  0  0  0  0
  6 10  1  0  0  0  0
  7  9  2  0  0  0  0
  8 26  1  6  0  0  0
  8  1  1  0  0  0  0
 10 28  1  1  0  0  0
 10  3  1  0  0  0  0
 11  7  1  0  0  0  0
 13 14  1  0  0  0  0
 13 12  1  1  0  0  0
 14 15  1  6  0  0  0
 14 12  1  0  0  0  0
 16 15  1  0  0  0  0
 16 18  1  0  0  0  0
 17 23  1  0  0  0  0
 18 17  2  0  0  0  0
 19 18  1  0  0  0  0
 19 22  1  0  0  0  0
 22 23  2  0  0  0  0
 22 20  1  0  0  0  0
 23 21  1  0  0  0  0
 24 11  1  0  0  0  0
 25 24  1  0  0  0  0
 26 27  1  0  0  0  0
 28 33  1  6  0  0  0
 28 29  1  0  0  0  0
 29 31  1  0  0  0  0
 29 30  2  0  0  0  0
 31 32  1  0  0  0  0
 34 35  1  0  0  0  0
 34 33  1  0  0  0  0
 36 37  1  0  0  0  0
 37 35  1  0  0  0  0
M  END
>  <MODEL>
5

>  <REMARK>
 VINA RESULT:      -5.5      2.508      5.165
  Name = 
  13 active torsions:
  status: ('A' for Active; 'I' for Inactive)
    1  A    between atoms: C_1  and  O_12
    2  A    between atoms: C_1  and  C_36
    3  A    between atoms: O_3  and  C_32
    4  A    between atoms: C_6  and  O_31
    5  A    between atoms: C_10  and  C_14
    6  A    between atoms: C_17  and  C_26
    7  A    between atoms: C_17  and  C_33
    8  A    between atoms: N_22  and  C_24
    9  A    between atoms: C_26  and  C_34
   10  A    between atoms: C_27  and  C_37
   11  A    between atoms: C_29  and  C_36
   12  A    between atoms: O_31  and  C_37
   13  A    between atoms: C_33  and  C_36
                            x       y       z     vdW  Elec       q    Type
                         _______ _______ _______ _____ _____    ______ ____

>  <TORSDO>
F 13

$$$$
=
 OpenBabel10262423003D

 37 40  0  0  1  0  0  0  0  0999 V2000
  183.6410  177.5290  140.3190 C   0  0  0  0  0  2  0  0  0  0  0  0
  181.7540  178.9990  136.3690 C   0  0  0  0  0  3  0  0  0  0  0  0
  182.1330  177.3810  140.5580 C   0  0  2  0  0  3  0  0  0  0  0  0
  182.0800  178.0730  137.3660 C   0  0  0  0  0  0  0  0  0  0  0  0
  183.7900  177.5580  137.5460 S   0  0  0  0  0  0  0  0  0  0  0  0
  181.0750  177.5680  138.2110 C   0  0  0  0  0  0  0  0  0  0  0  0
  179.4330  178.9250  137.0470 C   0  0  0  0  0  3  0  0  0  0  0  0
  183.9900  178.4380  139.1340 C   0  0  2  0  0  3  0  0  0  0  0  0
  179.7560  178.0110  138.0520 C   0  0  0  0  0  3  0  0  0  0  0  0
  181.4540  176.6820  139.3660 C   0  0  2  0  0  3  0  0  0  0  0  0
  180.4340  179.4250  136.2000 C   0  0  0  0  0  0  0  0  0  0  0  0
  180.6540  178.6320  142.1760 C   0  0  0  0  0  2  0  0  0  0  0  0
  181.5000  178.7360  140.9230 C   0  0  1  0  0  3  0  0  0  0  0  0
  181.9880  179.3430  142.2460 C   0  0  2  0  0  3  0  0  0  0  0  0
  182.9700  178.4820  143.0300 C   0  0  0  0  0  2  0  0  0  0  0  0
  183.8540  179.3130  143.7650 O   0  0  0  0  0  0  0  0  0  0  0  0
  185.2170  178.8280  145.7490 C   0  0  0  0  0  3  0  0  0  0  0  0
  184.9980  178.8040  144.3790 C   0  0  0  0  0  0  0  0  0  0  0  0
  186.3050  178.0770  143.5940 S   0  0  0  0  0  0  0  0  0  0  0  0
  188.5070  177.1210  145.0590 C   0  0  0  0  0  1  0  0  0  0  0  0
  186.8930  178.1520  147.3980 O   0  0  0  0  0  1  0  0  0  0  0  0
  187.1740  177.7800  145.0010 C   0  0  0  0  0  0  0  0  0  0  0  0
  186.4460  178.2490  146.0860 C   0  0  0  0  0  0  0  0  0  0  0  0
  180.1450  180.3450  135.1870 O   0  0  0  0  0  0  0  0  0  0  0  0
  179.9160  181.7240  135.4450 C   0  0  0  0  0  1  0  0  0  0  0  0
  185.3440  178.9680  139.2670 N   0  0  0  0  0  2  0  0  0  0  0  0
  185.4500  179.6010  140.4620 O   0  0  0  0  0  1  0  0  0  0  0  0
  180.5350  175.4880  139.6600 C   0  0  1  0  0  3  0  0  0  0  0  0
  179.5280  175.8560  140.7090 C   0  0  0  0  0  0  0  0  0  0  0  0
  178.9320  176.9640  140.6440 O   0  0  0  0  0  0  0  0  0  0  0  0
  179.2550  175.0010  141.7790 O   0  0  0  0  0  0  0  0  0  0  0  0
  179.6310  173.6320  141.7720 C   0  0  0  0  0  1  0  0  0  0  0  0
  179.8400  174.9240  138.4270 C   0  0  0  0  0  2  0  0  0  0  0  0
  180.4290  173.5790  138.0550 C   0  0  0  0  0  2  0  0  0  0  0  0
  180.7670  173.5680  136.5800 C   0  0  0  0  0  2  0  0  0  0  0  0
  181.8660  175.1240  135.0060 C   0  0  0  0  0  1  0  0  0  0  0  0
  181.9950  174.4180  136.3390 C   0  0  0  0  0  2  0  0  0  0  0  0
  2  4  1  0  0  0  0
  3  1  1  6  0  0  0
  3 13  1  0  0  0  0
  4  5  1  0  0  0  0
  4  6  2  0  0  0  0
  5  8  1  0  0  0  0
  6 10  1  0  0  0  0
  7  9  2  0  0  0  0
  8 26  1  1  0  0  0
  8  1  1  0  0  0  0
  9  6  1  0  0  0  0
 10 28  1  1  0  0  0
 10  3  1  0  0  0  0
 11  2  2  0  0  0  0
 11  7  1  0  0  0  0
 12 14  1  0  0  0  0
 13 12  1  1  0  0  0
 13 14  1  0  0  0  0
 14 15  1  1  0  0  0
 15 16  1  0  0  0  0
 16 18  1  0  0  0  0
 17 23  1  0  0  0  0
 18 17  2  0  0  0  0
 19 18  1  0  0  0  0
 19 22  1  0  0  0  0
 22 20  1  0  0  0  0
 22 23  2  0  0  0  0
 23 21  1  0  0  0  0
 24 25  1  0  0  0  0
 24 11  1  0  0  0  0
 26 27  1  0  0  0  0
 28 33  1  6  0  0  0
 28 29  1  0  0  0  0
 29 31  1  0  0  0  0
 30 29  2  0  0  0  0
 32 31  1  0  0  0  0
 34 33  1  0  0  0  0
 35 34  1  0  0  0  0
 36 37  1  0  0  0  0
 37 35  1  0  0  0  0
M  END
>  <MODEL>
6

>  <REMARK>
 VINA RESULT:      -4.9      2.726      5.156
  Name = 
  13 active torsions:
  status: ('A' for Active; 'I' for Inactive)
    1  A    between atoms: C_1  and  O_12
    2  A    between atoms: C_1  and  C_36
    3  A    between atoms: O_3  and  C_32
    4  A    between atoms: C_6  and  O_31
    5  A    between atoms: C_10  and  C_14
    6  A    between atoms: C_17  and  C_26
    7  A    between atoms: C_17  and  C_33
    8  A    between atoms: N_22  and  C_24
    9  A    between atoms: C_26  and  C_34
   10  A    between atoms: C_27  and  C_37
   11  A    between atoms: C_29  and  C_36
   12  A    between atoms: O_31  and  C_37
   13  A    between atoms: C_33  and  C_36
                            x       y       z     vdW  Elec       q    Type
                         _______ _______ _______ _____ _____    ______ ____

>  <TORSDO>
F 13

$$$$
=
 OpenBabel10262423003D

 37 40  0  0  1  0  0  0  0  0999 V2000
  188.7430  177.0240  139.1500 C   0  0  0  0  0  2  0  0  0  0  0  0
  192.6050  175.9930  136.8400 C   0  0  0  0  0  3  0  0  0  0  0  0
  188.2640  176.8350  137.7060 C   0  0  2  0  0  3  0  0  0  0  0  0
  191.3320  175.7650  137.3720 C   0  0  0  0  0  0  0  0  0  0  0  0
  191.1470  175.6330  139.1530 S   0  0  0  0  0  0  0  0  0  0  0  0
  190.2230  175.6490  136.5150 C   0  0  0  0  0  0  0  0  0  0  0  0
  191.6810  175.9920  134.6050 C   0  0  0  0  0  3  0  0  0  0  0  0
  190.2580  177.2250  139.2750 C   0  0  2  0  0  3  0  0  0  0  0  0
  190.4050  175.7780  135.1330 C   0  0  0  0  0  3  0  0  0  0  0  0
  188.8410  175.5420  137.1010 C   0  0  2  0  0  3  0  0  0  0  0  0
  192.7890  176.1020  135.4590 C   0  0  0  0  0  0  0  0  0  0  0  0
  187.7830  178.0680  135.5560 C   0  0  0  0  0  2  0  0  0  0  0  0
  188.5490  178.0930  136.8650 C   0  0  1  0  0  3  0  0  0  0  0  0
  187.3400  179.0160  136.6510 C   0  0  2  0  0  3  0  0  0  0  0  0
  186.0290  178.5140  137.2420 C   0  0  0  0  0  2  0  0  0  0  0  0
  185.8800  179.0080  138.5630 O   0  0  0  0  0  0  0  0  0  0  0  0
  184.6380  178.9730  140.6820 C   0  0  0  0  0  3  0  0  0  0  0  0
  184.7310  178.7610  139.3130 C   0  0  0  0  0  0  0  0  0  0  0  0
  183.2650  178.1710  138.7160 S   0  0  0  0  0  0  0  0  0  0  0  0
  181.0780  177.7560  140.4350 C   0  0  0  0  0  1  0  0  0  0  0  0
  183.0280  178.7690  142.5120 O   0  0  0  0  0  1  0  0  0  0  0  0
  182.4870  178.1790  140.2050 C   0  0  0  0  0  0  0  0  0  0  0  0
  183.3690  178.6410  141.1710 C   0  0  0  0  0  0  0  0  0  0  0  0
  194.0770  176.3210  134.9630 O   0  0  0  0  0  0  0  0  0  0  0  0
  195.2420  175.8160  135.6020 C   0  0  0  0  0  1  0  0  0  0  0  0
  190.5910  177.9100  140.5220 N   0  0  0  0  0  2  0  0  0  0  0  0
  189.7390  177.4910  141.4910 O   0  0  0  0  0  1  0  0  0  0  0  0
  187.8680  174.5690  136.4200 C   0  0  1  0  0  3  0  0  0  0  0  0
  188.4000  173.1690  136.4950 C   0  0  0  0  0  0  0  0  0  0  0  0
  188.7990  172.7070  137.5970 O   0  0  0  0  0  0  0  0  0  0  0  0
  188.4870  172.3680  135.3540 O   0  0  0  0  0  0  0  0  0  0  0  0
  187.8380  171.1090  135.2590 C   0  0  0  0  0  1  0  0  0  0  0  0
  186.4480  174.6320  136.9670 C   0  0  0  0  0  2  0  0  0  0  0  0
  185.4460  174.7120  135.8340 C   0  0  0  0  0  2  0  0  0  0  0  0
  184.2200  173.9000  136.1890 C   0  0  0  0  0  2  0  0  0  0  0  0
  183.5950  171.6480  136.9940 C   0  0  0  0  0  1  0  0  0  0  0  0
  184.6180  172.7590  137.1000 C   0  0  0  0  0  2  0  0  0  0  0  0
  1  8  1  0  0  0  0
  2  4  1  0  0  0  0
  3  1  1  1  0  0  0
  4  5  1  0  0  0  0
  5  8  1  0  0  0  0
  6 10  1  0  0  0  0
  6  4  2  0  0  0  0
  7  9  2  0  0  0  0
  7 11  1  0  0  0  0
  8 26  1  1  0  0  0
  9  6  1  0  0  0  0
 10 28  1  6  0  0  0
 10  3  1  0  0  0  0
 11  2  2  0  0  0  0
 12 14  1  0  0  0  0
 13 12  1  6  0  0  0
 13  3  1  0  0  0  0
 14 13  1  0  0  0  0
 14 15  1  1  0  0  0
 15 16  1  0  0  0  0
 16 18  1  0  0  0  0
 17 23  1  0  0  0  0
 18 17  2  0  0  0  0
 19 18  1  0  0  0  0
 19 22  1  0  0  0  0
 22 20  1  0  0  0  0
 22 23  2  0  0  0  0
 23 21  1  0  0  0  0
 24 11  1  0  0  0  0
 24 25  1  0  0  0  0
 26 27  1  0  0  0  0
 28 29  1  0  0  0  0
 28 33  1  1  0  0  0
 29 30  2  0  0  0  0
 31 29  1  0  0  0  0
 32 31  1  0  0  0  0
 34 35  1  0  0  0  0
 34 33  1  0  0  0  0
 35 37  1  0  0  0  0
 36 37  1  0  0  0  0
M  END
>  <MODEL>
7

>  <REMARK>
 VINA RESULT:      -4.9      5.326      9.702
  Name = 
  13 active torsions:
  status: ('A' for Active; 'I' for Inactive)
    1  A    between atoms: C_1  and  O_12
    2  A    between atoms: C_1  and  C_36
    3  A    between atoms: O_3  and  C_32
    4  A    between atoms: C_6  and  O_31
    5  A    between atoms: C_10  and  C_14
    6  A    between atoms: C_17  and  C_26
    7  A    between atoms: C_17  and  C_33
    8  A    between atoms: N_22  and  C_24
    9  A    between atoms: C_26  and  C_34
   10  A    between atoms: C_27  and  C_37
   11  A    between atoms: C_29  and  C_36
   12  A    between atoms: O_31  and  C_37
   13  A    between atoms: C_33  and  C_36
                            x       y       z     vdW  Elec       q    Type
                         _______ _______ _______ _____ _____    ______ ____

>  <TORSDO>
F 13

$$$$
=
 OpenBabel10262423003D

 37 40  0  0  1  0  0  0  0  0999 V2000
  191.7400  176.8850  137.6330 C   0  0  0  0  0  2  0  0  0  0  0  0
  192.0870  176.6700  142.2320 C   0  0  0  0  0  3  0  0  0  0  0  0
  190.2880  176.7330  138.1010 C   0  0  2  0  0  3  0  0  0  0  0  0
  191.7130  177.2170  141.0010 C   0  0  0  0  0  0  0  0  0  0  0  0
  192.9880  177.8620  139.9130 S   0  0  0  0  0  0  0  0  0  0  0  0
  190.3560  177.2490  140.6290 C   0  0  0  0  0  0  0  0  0  0  0  0
  189.7710  176.1840  142.7310 C   0  0  0  0  0  3  0  0  0  0  0  0
  192.7740  176.5110  138.7020 C   0  0  2  0  0  3  0  0  0  0  0  0
  189.3940  176.7170  141.4960 C   0  0  0  0  0  3  0  0  0  0  0  0
  189.9760  177.7110  139.2500 C   0  0  2  0  0  3  0  0  0  0  0  0
  191.1230  176.1570  143.1050 C   0  0  0  0  0  0  0  0  0  0  0  0
  188.6010  174.8630  137.9250 C   0  0  0  0  0  2  0  0  0  0  0  0
  189.9700  175.2640  138.4370 C   0  0  1  0  0  3  0  0  0  0  0  0
  189.8330  174.3380  137.2200 C   0  0  2  0  0  3  0  0  0  0  0  0
  189.9610  175.0240  135.8660 C   0  0  0  0  0  2  0  0  0  0  0  0
  190.6510  174.1750  134.9630 O   0  0  0  0  0  0  0  0  0  0  0  0
  193.0150  174.8360  134.9060 C   0  0  0  0  0  3  0  0  0  0  0  0
  192.0100  173.9000  135.1080 C   0  0  0  0  0  0  0  0  0  0  0  0
  192.6810  172.4140  135.5480 S   0  0  0  0  0  0  0  0  0  0  0  0
  195.4670  172.1090  135.7790 C   0  0  0  0  0  1  0  0  0  0  0  0
  195.4530  175.0250  134.9830 O   0  0  0  0  0  1  0  0  0  0  0  0
  194.2730  172.9480  135.4870 C   0  0  0  0  0  0  0  0  0  0  0  0
  194.2850  174.2870  135.1220 C   0  0  0  0  0  0  0  0  0  0  0  0
  191.5350  175.6270  144.3300 O   0  0  0  0  0  0  0  0  0  0  0  0
  191.6790  176.4210  145.5010 C   0  0  0  0  0  1  0  0  0  0  0  0
  194.0520  176.1570  138.0890 N   0  0  0  0  0  2  0  0  0  0  0  0
  194.7590  175.3970  138.9630 O   0  0  0  0  0  1  0  0  0  0  0  0
  188.7210  178.5870  139.1280 C   0  0  1  0  0  3  0  0  0  0  0  0
  188.3960  178.8260  137.6830 C   0  0  0  0  0  0  0  0  0  0  0  0
  188.9730  179.7540  137.0560 O   0  0  0  0  0  0  0  0  0  0  0  0
  187.4410  178.0520  137.0210 O   0  0  0  0  0  0  0  0  0  0  0  0
  187.3540  178.0010  135.6050 C   0  0  0  0  0  1  0  0  0  0  0  0
  187.5080  178.0340  139.8650 C   0  0  0  0  0  2  0  0  0  0  0  0
  187.1330  178.9380  141.0210 C   0  0  0  0  0  2  0  0  0  0  0  0
  185.6260  178.9990  141.1430 C   0  0  0  0  0  2  0  0  0  0  0  0
  186.3610  178.1310  143.3380 C   0  0  0  0  0  1  0  0  0  0  0  0
  185.1910  178.2490  142.3840 C   0  0  0  0  0  2  0  0  0  0  0  0
  1  8  1  0  0  0  0
  2 11  1  0  0  0  0
  3  1  1  1  0  0  0
  3 13  1  0  0  0  0
  3 10  1  0  0  0  0
  4  2  2  0  0  0  0
  5  4  1  0  0  0  0
  6  4  1  0  0  0  0
  6  9  2  0  0  0  0
  7 11  2  0  0  0  0
  8 26  1  6  0  0  0
  8  5  1  0  0  0  0
  9  7  1  0  0  0  0
 10 28  1  1  0  0  0
 10  6  1  0  0  0  0
 11 24  1  0  0  0  0
 13 12  1  6  0  0  0
 14 15  1  6  0  0  0
 14 12  1  0  0  0  0
 14 13  1  0  0  0  0
 16 18  1  0  0  0  0
 16 15  1  0  0  0  0
 17 18  2  0  0  0  0
 17 23  1  0  0  0  0
 18 19  1  0  0  0  0
 21 23  1  0  0  0  0
 22 19  1  0  0  0  0
 22 20  1  0  0  0  0
 23 22  2  0  0  0  0
 24 25  1  0  0  0  0
 26 27  1  0  0  0  0
 28 33  1  6  0  0  0
 29 28  1  0  0  0  0
 30 29  2  0  0  0  0
 31 29  1  0  0  0  0
 32 31  1  0  0  0  0
 33 34  1  0  0  0  0
 34 35  1  0  0  0  0
 35 37  1  0  0  0  0
 37 36  1  0  0  0  0
M  END
>  <MODEL>
8

>  <REMARK>
 VINA RESULT:      -4.6      6.837     10.878
  Name = 
  13 active torsions:
  status: ('A' for Active; 'I' for Inactive)
    1  A    between atoms: C_1  and  O_12
    2  A    between atoms: C_1  and  C_36
    3  A    between atoms: O_3  and  C_32
    4  A    between atoms: C_6  and  O_31
    5  A    between atoms: C_10  and  C_14
    6  A    between atoms: C_17  and  C_26
    7  A    between atoms: C_17  and  C_33
    8  A    between atoms: N_22  and  C_24
    9  A    between atoms: C_26  and  C_34
   10  A    between atoms: C_27  and  C_37
   11  A    between atoms: C_29  and  C_36
   12  A    between atoms: O_31  and  C_37
   13  A    between atoms: C_33  and  C_36
                            x       y       z     vdW  Elec       q    Type
                         _______ _______ _______ _____ _____    ______ ____

>  <TORSDO>
F 13

$$$$
=
 OpenBabel10262423003D

 37 40  0  0  1  0  0  0  0  0999 V2000
  188.5730  178.4110  138.7530 C   0  0  0  0  0  2  0  0  0  0  0  0
  187.0040  174.7360  136.4400 C   0  0  0  0  0  3  0  0  0  0  0  0
  189.7170  177.3950  138.8640 C   0  0  2  0  0  3  0  0  0  0  0  0
  187.8440  175.8240  136.6970 C   0  0  0  0  0  0  0  0  0  0  0  0
  187.1870  177.4870  136.5310 S   0  0  0  0  0  0  0  0  0  0  0  0
  189.1790  175.6050  137.0840 C   0  0  0  0  0  0  0  0  0  0  0  0
  188.8090  173.2100  136.9520 C   0  0  0  0  0  3  0  0  0  0  0  0
  187.2360  177.7900  138.3320 C   0  0  2  0  0  3  0  0  0  0  0  0
  189.6480  174.2930  137.2220 C   0  0  0  0  0  3  0  0  0  0  0  0
  190.0340  176.7730  137.4910 C   0  0  2  0  0  3  0  0  0  0  0  0
  187.4790  173.4270  136.5600 C   0  0  0  0  0  0  0  0  0  0  0  0
  190.5130  176.3390  141.0130 C   0  0  0  0  0  2  0  0  0  0  0  0
  189.4220  176.3560  139.9600 C   0  0  1  0  0  3  0  0  0  0  0  0
  189.1680  176.9430  141.3560 C   0  0  2  0  0  3  0  0  0  0  0  0
  189.3150  178.4550  141.4600 C   0  0  0  0  0  2  0  0  0  0  0  0
  190.2170  178.7780  142.5050 O   0  0  0  0  0  0  0  0  0  0  0  0
  188.8970  178.2280  144.5020 C   0  0  0  0  0  3  0  0  0  0  0  0
  190.0850  178.2350  143.7820 C   0  0  0  0  0  0  0  0  0  0  0  0
  191.3110  177.4960  144.6780 S   0  0  0  0  0  0  0  0  0  0  0  0
  190.7930  176.4680  147.2450 C   0  0  0  0  0  1  0  0  0  0  0  0
  188.0080  177.4880  146.6570 O   0  0  0  0  0  1  0  0  0  0  0  0
  190.3380  177.1560  146.0050 C   0  0  0  0  0  0  0  0  0  0  0  0
  189.0540  177.6180  145.7520 C   0  0  0  0  0  0  0  0  0  0  0  0
  186.6120  172.3660  136.2870 O   0  0  0  0  0  0  0  0  0  0  0  0
  185.4240  172.5210  135.5210 C   0  0  0  0  0  1  0  0  0  0  0  0
  186.1180  178.6320  138.7470 N   0  0  0  0  0  2  0  0  0  0  0  0
  186.0960  178.6930  140.1030 O   0  0  0  0  0  1  0  0  0  0  0  0
  191.4970  176.7620  137.0260 C   0  0  1  0  0  3  0  0  0  0  0  0
  192.3860  176.2690  138.1290 C   0  0  0  0  0  0  0  0  0  0  0  0
  192.4750  175.0330  138.3570 O   0  0  0  0  0  0  0  0  0  0  0  0
  193.1030  177.1590  138.9310 O   0  0  0  0  0  0  0  0  0  0  0  0
  194.1150  176.7270  139.8280 C   0  0  0  0  0  1  0  0  0  0  0  0
  191.7350  175.9650  135.7500 C   0  0  0  0  0  2  0  0  0  0  0  0
  193.1970  176.0140  135.3590 C   0  0  0  0  0  2  0  0  0  0  0  0
  193.6670  174.6220  134.9950 C   0  0  0  0  0  2  0  0  0  0  0  0
  192.8720  172.4590  135.8890 C   0  0  0  0  0  1  0  0  0  0  0  0
  192.4960  173.6650  135.0540 C   0  0  0  0  0  2  0  0  0  0  0  0
  2 11  2  0  0  0  0
  2  4  1  0  0  0  0
  3  1  1  6  0  0  0
  3 13  1  0  0  0  0
  4  6  2  0  0  0  0
  5  4  1  0  0  0  0
  5  8  1  0  0  0  0
  6  9  1  0  0  0  0
  6 10  1  0  0  0  0
  7  9  2  0  0  0  0
  8 26  1  6  0  0  0
  8  1  1  0  0  0  0
 10 28  1  1  0  0  0
 10  3  1  0  0  0  0
 11  7  1  0  0  0  0
 12 14  1  0  0  0  0
 13 12  1  1  0  0  0
 13 14  1  0  0  0  0
 14 15  1  6  0  0  0
 15 16  1  0  0  0  0
 16 18  1  0  0  0  0
 17 23  1  0  0  0  0
 18 17  2  0  0  0  0
 18 19  1  0  0  0  0
 19 22  1  0  0  0  0
 22 20  1  0  0  0  0
 23 22  2  0  0  0  0
 23 21  1  0  0  0  0
 24 11  1  0  0  0  0
 25 24  1  0  0  0  0
 26 27  1  0  0  0  0
 28 33  1  6  0  0  0
 28 29  1  0  0  0  0
 29 30  2  0  0  0  0
 29 31  1  0  0  0  0
 31 32  1  0  0  0  0
 34 33  1  0  0  0  0
 35 37  1  0  0  0  0
 35 34  1  0  0  0  0
 37 36  1  0  0  0  0
M  END
>  <MODEL>
9

>  <REMARK>
 VINA RESULT:      -4.5      5.707      8.134
  Name = 
  13 active torsions:
  status: ('A' for Active; 'I' for Inactive)
    1  A    between atoms: C_1  and  O_12
    2  A    between atoms: C_1  and  C_36
    3  A    between atoms: O_3  and  C_32
    4  A    between atoms: C_6  and  O_31
    5  A    between atoms: C_10  and  C_14
    6  A    between atoms: C_17  and  C_26
    7  A    between atoms: C_17  and  C_33
    8  A    between atoms: N_22  and  C_24
    9  A    between atoms: C_26  and  C_34
   10  A    between atoms: C_27  and  C_37
   11  A    between atoms: C_29  and  C_36
   12  A    between atoms: O_31  and  C_37
   13  A    between atoms: C_33  and  C_36
                            x       y       z     vdW  Elec       q    Type
                         _______ _______ _______ _____ _____    ______ ____

>  <TORSDO>
F 13

$$$$
