=
 OpenBabel10262419503D

 25 28  0  0  1  0  0  0  0  0999 V2000
  187.1430  177.9580  145.6440 C   0  0  0  0  0  0  0  0  0  0  0  0
  188.3960  177.1900  145.3610 C   0  0  1  0  0  3  0  0  0  0  0  0
  187.5650  178.1590  148.0280 C   0  0  0  0  0  3  0  0  0  0  0  0
  186.0590  178.1800  144.9220 C   0  0  0  0  0  0  0  0  0  0  0  0
  183.5680  178.7970  143.8750 C   0  0  0  0  0  3  0  0  0  0  0  0
  188.9270  177.6190  147.7880 C   0  0  0  0  0  3  0  0  0  0  0  0
  185.0710  178.7090  145.7460 C   0  0  0  0  0  0  0  0  0  0  0  0
  183.8130  179.0310  145.2390 C   0  0  0  0  0  3  0  0  0  0  0  0
  190.7390  176.8210  146.3210 C   0  0  0  0  0  0  0  0  0  0  0  0
  191.6250  176.3600  147.4280 C   0  0  0  0  0  1  0  0  0  0  0  0
  189.1010  177.6320  144.1060 C   0  0  0  0  0  3  0  0  0  0  0  0
  184.5670  178.2430  143.0490 C   0  0  0  0  0  3  0  0  0  0  0  0
  186.7620  178.3320  146.9810 C   0  0  0  0  0  0  0  0  0  0  0  0
  185.4240  178.8220  146.9920 N   0  0  0  0  0  0  0  0  0  0  0  0
  191.2430  176.9410  145.0870 C   0  0  0  0  0  3  0  0  0  0  0  0
  185.8300  177.9220  143.5710 C   0  0  0  0  0  3  0  0  0  0  0  0
  190.4200  177.4550  143.9670 C   0  0  0  0  0  0  0  0  0  0  0  0
  189.3360  177.2160  146.5630 C   0  0  0  0  0  0  0  0  0  0  0  0
  191.0750  177.8060  142.6770 C   0  0  0  0  0  2  0  0  0  0  0  0
  190.7010  176.8410  141.6580 N   0  0  0  0  0  2  0  0  0  0  0  0
  190.2760  177.6030  140.4970 C   0  0  0  0  0  2  0  0  0  0  0  0
  188.7610  177.6630  140.4460 C   0  0  0  0  0  2  0  0  0  0  0  0
  188.3550  178.6890  139.5910 O   0  0  0  0  0  0  0  0  0  0  0  0
  189.1390  178.5250  138.4500 C   0  0  0  0  0  2  0  0  0  0  0  0
  188.9690  179.6220  137.6080 O   0  0  0  0  0  1  0  0  0  0  0  0
  1 13  1  0  0  0  0
  2 11  1  6  0  0  0
  2  1  1  0  0  0  0
  2 18  1  0  0  0  0
  4  1  2  0  0  0  0
  4  7  1  0  0  0  0
  5  8  2  0  0  0  0
  6  3  1  0  0  0  0
  7 14  2  0  0  0  0
  8  7  1  0  0  0  0
  9 18  1  0  0  0  0
  9 10  1  0  0  0  0
 12 16  2  0  0  0  0
 12  5  1  0  0  0  0
 13 14  1  0  0  0  0
 13  3  2  0  0  0  0
 15  9  2  0  0  0  0
 16  4  1  0  0  0  0
 17 11  2  0  0  0  0
 17 15  1  0  0  0  0
 18  6  2  0  0  0  0
 19 17  1  0  0  0  0
 20 19  1  0  0  0  0
 21 20  1  0  0  0  0
 22 21  1  0  0  0  0
 23 22  1  0  0  0  0
 24 23  1  0  0  0  0
 25 24  1  0  0  0  0
M  END
>  <MODEL>
1

>  <REMARK>
 VINA RESULT:     -10.4      0.000      0.000
  Name = 
  6 active torsions:
  status: ('A' for Active; 'I' for Inactive)
    1  A    between atoms: O_2  and  C_7
    2  A    between atoms: O_2  and  C_25
    3  A    between atoms: C_6  and  N_15
    4  A    between atoms: C_6  and  C_23
    5  A    between atoms: N_15  and  C_21
    6  A    between atoms: C_21  and  C_25
                            x       y       z     vdW  Elec       q    Type
                         _______ _______ _______ _____ _____    ______ ____

>  <TORSDO>
F 6

$$$$
=
 OpenBabel10262419503D

 25 28  0  0  1  0  0  0  0  0999 V2000
  187.2970  177.9340  145.6990 C   0  0  0  0  0  0  0  0  0  0  0  0
  188.5670  177.1770  145.4690 C   0  0  1  0  0  3  0  0  0  0  0  0
  187.6160  178.1390  148.0980 C   0  0  0  0  0  3  0  0  0  0  0  0
  186.2430  178.1470  144.9320 C   0  0  0  0  0  0  0  0  0  0  0  0
  183.7920  178.7440  143.7810 C   0  0  0  0  0  3  0  0  0  0  0  0
  188.9920  177.6100  147.9160 C   0  0  0  0  0  3  0  0  0  0  0  0
  185.2160  178.6680  145.7140 C   0  0  0  0  0  0  0  0  0  0  0  0
  183.9780  178.9800  145.1550 C   0  0  0  0  0  3  0  0  0  0  0  0
  190.8710  176.8270  146.5270 C   0  0  0  0  0  0  0  0  0  0  0  0
  191.7130  176.3730  147.6700 C   0  0  0  0  0  1  0  0  0  0  0  0
  189.3200  177.6240  144.2460 C   0  0  0  0  0  3  0  0  0  0  0  0
  184.8300  178.1980  142.9990 C   0  0  0  0  0  3  0  0  0  0  0  0
  186.8560  178.3050  147.0190 C   0  0  0  0  0  0  0  0  0  0  0  0
  185.5150  178.7840  146.9730 N   0  0  0  0  0  0  0  0  0  0  0  0
  191.4240  176.9510  145.3150 C   0  0  0  0  0  3  0  0  0  0  0  0
  186.0730  177.8880  143.5730 C   0  0  0  0  0  3  0  0  0  0  0  0
  190.6460  177.4570  144.1610 C   0  0  0  0  0  0  0  0  0  0  0  0
  189.4550  177.2100  146.7100 C   0  0  0  0  0  0  0  0  0  0  0  0
  191.3510  177.8140  142.9010 C   0  0  0  0  0  2  0  0  0  0  0  0
  190.8670  176.9800  141.8150 N   0  0  0  0  0  2  0  0  0  0  0  0
  191.5340  177.4360  140.6080 C   0  0  0  0  0  2  0  0  0  0  0  0
  190.6150  177.2610  139.4140 C   0  0  0  0  0  2  0  0  0  0  0  0
  190.4060  175.9020  139.1710 O   0  0  0  0  0  0  0  0  0  0  0  0
  190.9950  175.6740  137.9280 C   0  0  0  0  0  2  0  0  0  0  0  0
  191.4550  174.3600  137.8660 O   0  0  0  0  0  1  0  0  0  0  0  0
  1 13  1  0  0  0  0
  2 11  1  6  0  0  0
  2  1  1  0  0  0  0
  2 18  1  0  0  0  0
  4  1  2  0  0  0  0
  4  7  1  0  0  0  0
  5  8  2  0  0  0  0
  6  3  1  0  0  0  0
  7 14  2  0  0  0  0
  8  7  1  0  0  0  0
  9 18  1  0  0  0  0
  9 10  1  0  0  0  0
 12 16  2  0  0  0  0
 12  5  1  0  0  0  0
 13  3  2  0  0  0  0
 14 13  1  0  0  0  0
 15  9  2  0  0  0  0
 16  4  1  0  0  0  0
 17 11  2  0  0  0  0
 17 15  1  0  0  0  0
 18  6  2  0  0  0  0
 19 17  1  0  0  0  0
 20 19  1  0  0  0  0
 21 20  1  0  0  0  0
 22 21  1  0  0  0  0
 23 22  1  0  0  0  0
 24 23  1  0  0  0  0
 25 24  1  0  0  0  0
M  END
>  <MODEL>
2

>  <REMARK>
 VINA RESULT:     -10.1      1.528      1.615
  Name = 
  6 active torsions:
  status: ('A' for Active; 'I' for Inactive)
    1  A    between atoms: O_2  and  C_7
    2  A    between atoms: O_2  and  C_25
    3  A    between atoms: C_6  and  N_15
    4  A    between atoms: C_6  and  C_23
    5  A    between atoms: N_15  and  C_21
    6  A    between atoms: C_21  and  C_25
                            x       y       z     vdW  Elec       q    Type
                         _______ _______ _______ _____ _____    ______ ____

>  <TORSDO>
F 6

$$$$
=
 OpenBabel10262419503D

 25 28  0  0  1  0  0  0  0  0999 V2000
  185.7190  178.1910  144.6760 C   0  0  0  0  0  0  0  0  0  0  0  0
  187.0070  177.4290  144.6910 C   0  0  1  0  0  3  0  0  0  0  0  0
  185.6920  178.5880  147.0720 C   0  0  0  0  0  3  0  0  0  0  0  0
  184.7870  178.3340  143.7510 C   0  0  0  0  0  0  0  0  0  0  0  0
  182.5280  178.8160  142.2170 C   0  0  0  0  0  3  0  0  0  0  0  0
  187.0780  178.0590  147.1310 C   0  0  0  0  0  3  0  0  0  0  0  0
  183.6600  178.9060  144.3340 C   0  0  0  0  0  0  0  0  0  0  0  0
  182.5160  179.1610  143.5800 C   0  0  0  0  0  3  0  0  0  0  0  0
  189.1340  177.1850  146.0930 C   0  0  0  0  0  0  0  0  0  0  0  0
  189.8020  176.8300  147.3770 C   0  0  0  0  0  1  0  0  0  0  0  0
  187.9290  177.7850  143.5560 C   0  0  0  0  0  3  0  0  0  0  0  0
  183.6660  178.2190  141.6370 C   0  0  0  0  0  3  0  0  0  0  0  0
  185.0950  178.6620  145.8850 C   0  0  0  0  0  0  0  0  0  0  0  0
  183.7760  179.1240  145.6100 N   0  0  0  0  0  0  0  0  0  0  0  0
  189.8560  177.2170  144.9670 C   0  0  0  0  0  3  0  0  0  0  0  0
  184.8130  177.9660  142.4070 C   0  0  0  0  0  3  0  0  0  0  0  0
  189.2530  177.6240  143.6760 C   0  0  0  0  0  0  0  0  0  0  0  0
  187.7080  177.5690  146.0400 C   0  0  0  0  0  0  0  0  0  0  0  0
  190.1330  177.8860  142.5050 C   0  0  0  0  0  2  0  0  0  0  0  0
  190.1550  176.7200  141.6380 N   0  0  0  0  0  2  0  0  0  0  0  0
  190.8090  177.1280  140.4070 C   0  0  0  0  0  2  0  0  0  0  0  0
  189.9780  176.6950  139.2140 C   0  0  0  0  0  2  0  0  0  0  0  0
  190.0180  177.6790  138.2250 O   0  0  0  0  0  0  0  0  0  0  0  0
  189.1300  178.6580  138.6700 C   0  0  0  0  0  2  0  0  0  0  0  0
  188.3690  179.1160  137.5960 O   0  0  0  0  0  1  0  0  0  0  0  0
  1  2  1  0  0  0  0
  1 13  1  0  0  0  0
  2 11  1  6  0  0  0
  2 18  1  0  0  0  0
  3  6  1  0  0  0  0
  4  7  1  0  0  0  0
  4  1  2  0  0  0  0
  5  8  2  0  0  0  0
  7 14  2  0  0  0  0
  8  7  1  0  0  0  0
  9 10  1  0  0  0  0
 11 17  2  0  0  0  0
 12  5  1  0  0  0  0
 12 16  2  0  0  0  0
 13  3  2  0  0  0  0
 14 13  1  0  0  0  0
 15  9  2  0  0  0  0
 16  4  1  0  0  0  0
 17 15  1  0  0  0  0
 18  9  1  0  0  0  0
 18  6  2  0  0  0  0
 19 17  1  0  0  0  0
 20 19  1  0  0  0  0
 21 20  1  0  0  0  0
 22 21  1  0  0  0  0
 23 24  1  0  0  0  0
 23 22  1  0  0  0  0
 25 24  1  0  0  0  0
M  END
>  <MODEL>
3

>  <REMARK>
 VINA RESULT:      -9.6      1.136      1.673
  Name = 
  6 active torsions:
  status: ('A' for Active; 'I' for Inactive)
    1  A    between atoms: O_2  and  C_7
    2  A    between atoms: O_2  and  C_25
    3  A    between atoms: C_6  and  N_15
    4  A    between atoms: C_6  and  C_23
    5  A    between atoms: N_15  and  C_21
    6  A    between atoms: C_21  and  C_25
                            x       y       z     vdW  Elec       q    Type
                         _______ _______ _______ _____ _____    ______ ____

>  <TORSDO>
F 6

$$$$
=
 OpenBabel10262419503D

 25 28  0  0  1  0  0  0  0  0999 V2000
  187.3360  177.9570  142.5240 C   0  0  0  0  0  0  0  0  0  0  0  0
  186.5480  177.6430  143.7580 C   0  0  1  0  0  3  0  0  0  0  0  0
  185.5480  179.2090  141.4580 C   0  0  0  0  0  3  0  0  0  0  0  0
  188.4730  177.4770  142.0550 C   0  0  0  0  0  0  0  0  0  0  0  0
  190.7070  176.7010  140.6080 C   0  0  0  0  0  3  0  0  0  0  0  0
  184.7980  179.1440  142.7380 C   0  0  0  0  0  3  0  0  0  0  0  0
  188.6270  177.8940  140.7360 C   0  0  0  0  0  0  0  0  0  0  0  0
  189.7440  177.5200  139.9920 C   0  0  0  0  0  3  0  0  0  0  0  0
  184.5750  178.5420  145.1170 C   0  0  0  0  0  0  0  0  0  0  0  0
  183.1320  178.8990  145.2190 C   0  0  0  0  0  1  0  0  0  0  0  0
  187.3420  177.7790  145.0290 C   0  0  0  0  0  3  0  0  0  0  0  0
  190.5370  176.2660  141.9380 C   0  0  0  0  0  3  0  0  0  0  0  0
  186.7590  178.6600  141.4080 C   0  0  0  0  0  0  0  0  0  0  0  0
  187.6340  178.6020  140.2850 N   0  0  0  0  0  0  0  0  0  0  0  0
  185.2800  178.3410  146.2360 C   0  0  0  0  0  3  0  0  0  0  0  0
  189.4060  176.6490  142.6770 C   0  0  0  0  0  3  0  0  0  0  0  0
  186.7310  178.0460  146.1900 C   0  0  0  0  0  0  0  0  0  0  0  0
  185.2670  178.4700  143.8130 C   0  0  0  0  0  0  0  0  0  0  0  0
  187.5260  178.0740  147.4470 C   0  0  0  0  0  2  0  0  0  0  0  0
  188.3840  176.9030  147.5120 N   0  0  0  0  0  2  0  0  0  0  0  0
  189.7480  177.3900  147.6120 C   0  0  0  0  0  2  0  0  0  0  0  0
  190.5360  176.9700  146.3850 C   0  0  0  0  0  2  0  0  0  0  0  0
  191.9010  176.9610  146.6770 O   0  0  0  0  0  0  0  0  0  0  0  0
  192.0860  175.8150  147.4500 C   0  0  0  0  0  2  0  0  0  0  0  0
  192.9800  176.0910  148.4820 O   0  0  0  0  0  1  0  0  0  0  0  0
  1  2  1  0  0  0  0
  2 18  1  0  0  0  0
  2 11  1  1  0  0  0
  3  6  1  0  0  0  0
  4  1  2  0  0  0  0
  4 16  1  0  0  0  0
  5 12  1  0  0  0  0
  6 18  2  0  0  0  0
  7  4  1  0  0  0  0
  8  5  2  0  0  0  0
  8  7  1  0  0  0  0
  9 10  1  0  0  0  0
  9 15  2  0  0  0  0
 11 17  2  0  0  0  0
 12 16  2  0  0  0  0
 13  3  2  0  0  0  0
 13  1  1  0  0  0  0
 14  7  2  0  0  0  0
 14 13  1  0  0  0  0
 17 15  1  0  0  0  0
 17 19  1  0  0  0  0
 18  9  1  0  0  0  0
 19 20  1  0  0  0  0
 20 21  1  0  0  0  0
 22 23  1  0  0  0  0
 22 21  1  0  0  0  0
 23 24  1  0  0  0  0
 24 25  1  0  0  0  0
M  END
>  <MODEL>
4

>  <REMARK>
 VINA RESULT:      -9.4      3.039      6.687
  Name = 
  6 active torsions:
  status: ('A' for Active; 'I' for Inactive)
    1  A    between atoms: O_2  and  C_7
    2  A    between atoms: O_2  and  C_25
    3  A    between atoms: C_6  and  N_15
    4  A    between atoms: C_6  and  C_23
    5  A    between atoms: N_15  and  C_21
    6  A    between atoms: C_21  and  C_25
                            x       y       z     vdW  Elec       q    Type
                         _______ _______ _______ _____ _____    ______ ____

>  <TORSDO>
F 6

$$$$
=
 OpenBabel10262419503D

 25 28  0  0  1  0  0  0  0  0999 V2000
  185.8820  178.2140  144.8640 C   0  0  0  0  0  0  0  0  0  0  0  0
  187.2150  177.5370  144.9230 C   0  0  1  0  0  3  0  0  0  0  0  0
  185.7250  178.5590  147.2630 C   0  0  0  0  0  3  0  0  0  0  0  0
  184.9830  178.3150  143.9010 C   0  0  0  0  0  0  0  0  0  0  0  0
  182.7670  178.6810  142.2770 C   0  0  0  0  0  3  0  0  0  0  0  0
  187.1390  178.1190  147.3750 C   0  0  0  0  0  3  0  0  0  0  0  0
  183.7980  178.8010  144.4430 C   0  0  0  0  0  0  0  0  0  0  0  0
  182.6730  178.9980  143.6440 C   0  0  0  0  0  3  0  0  0  0  0  0
  189.2910  177.4010  146.4140 C   0  0  0  0  0  0  0  0  0  0  0  0
  189.9240  177.0640  147.7200 C   0  0  0  0  0  1  0  0  0  0  0  0
  188.1610  177.9740  143.8370 C   0  0  0  0  0  3  0  0  0  0  0  0
  183.9650  178.1710  141.7380 C   0  0  0  0  0  3  0  0  0  0  0  0
  185.1770  178.6180  146.0520 C   0  0  0  0  0  0  0  0  0  0  0  0
  183.8430  179.0000  145.7270 N   0  0  0  0  0  0  0  0  0  0  0  0
  190.0580  177.5030  145.3220 C   0  0  0  0  0  3  0  0  0  0  0  0
  185.0920  177.9770  142.5530 C   0  0  0  0  0  3  0  0  0  0  0  0
  189.4860  177.8960  144.0130 C   0  0  0  0  0  0  0  0  0  0  0  0
  187.8470  177.6930  146.3040 C   0  0  0  0  0  0  0  0  0  0  0  0
  190.3960  178.2380  142.8880 C   0  0  0  0  0  2  0  0  0  0  0  0
  191.0470  177.0340  142.4000 N   0  0  0  0  0  2  0  0  0  0  0  0
  190.3110  176.6090  141.2220 C   0  0  0  0  0  2  0  0  0  0  0  0
  190.6690  177.4950  140.0440 C   0  0  0  0  0  2  0  0  0  0  0  0
  190.1620  176.9450  138.8650 O   0  0  0  0  0  0  0  0  0  0  0  0
  191.1810  176.1140  138.4000 C   0  0  0  0  0  2  0  0  0  0  0  0
  192.4020  176.7800  138.4950 O   0  0  0  0  0  1  0  0  0  0  0  0
  1  2  1  0  0  0  0
  1 13  1  0  0  0  0
  2 11  1  6  0  0  0
  2 18  1  0  0  0  0
  3  6  1  0  0  0  0
  4  7  1  0  0  0  0
  4  1  2  0  0  0  0
  5  8  2  0  0  0  0
  7 14  2  0  0  0  0
  8  7  1  0  0  0  0
  9 10  1  0  0  0  0
 11 17  2  0  0  0  0
 12  5  1  0  0  0  0
 12 16  2  0  0  0  0
 13  3  2  0  0  0  0
 14 13  1  0  0  0  0
 15  9  2  0  0  0  0
 16  4  1  0  0  0  0
 17 15  1  0  0  0  0
 18  9  1  0  0  0  0
 18  6  2  0  0  0  0
 19 17  1  0  0  0  0
 20 19  1  0  0  0  0
 21 20  1  0  0  0  0
 22 21  1  0  0  0  0
 23 22  1  0  0  0  0
 24 25  1  0  0  0  0
 24 23  1  0  0  0  0
M  END
>  <MODEL>
5

>  <REMARK>
 VINA RESULT:      -9.1      1.526      1.920
  Name = 
  6 active torsions:
  status: ('A' for Active; 'I' for Inactive)
    1  A    between atoms: O_2  and  C_7
    2  A    between atoms: O_2  and  C_25
    3  A    between atoms: C_6  and  N_15
    4  A    between atoms: C_6  and  C_23
    5  A    between atoms: N_15  and  C_21
    6  A    between atoms: C_21  and  C_25
                            x       y       z     vdW  Elec       q    Type
                         _______ _______ _______ _____ _____    ______ ____

>  <TORSDO>
F 6

$$$$
=
 OpenBabel10262419503D

 25 28  0  0  1  0  0  0  0  0999 V2000
  189.4670  177.4100  143.8290 C   0  0  0  0  0  0  0  0  0  0  0  0
  188.7440  178.0920  144.9490 C   0  0  1  0  0  3  0  0  0  0  0  0
  191.2850  176.6040  145.2250 C   0  0  0  0  0  3  0  0  0  0  0  0
  189.3300  177.4770  142.5170 C   0  0  0  0  0  0  0  0  0  0  0  0
  189.5270  177.3830  139.7540 C   0  0  0  0  0  3  0  0  0  0  0  0
  190.5100  177.0460  146.4130 C   0  0  0  0  0  3  0  0  0  0  0  0
  190.4290  176.8690  141.9190 C   0  0  0  0  0  0  0  0  0  0  0  0
  190.5460  176.8070  140.5320 C   0  0  0  0  0  3  0  0  0  0  0  0
  188.5040  177.9830  147.4940 C   0  0  0  0  0  0  0  0  0  0  0  0
  189.1060  178.0750  148.8540 C   0  0  0  0  0  1  0  0  0  0  0  0
  187.2530  177.8940  144.9110 C   0  0  0  0  0  3  0  0  0  0  0  0
  188.4250  178.0130  140.3660 C   0  0  0  0  0  3  0  0  0  0  0  0
  190.7410  176.7680  144.0210 C   0  0  0  0  0  0  0  0  0  0  0  0
  191.3150  176.4280  142.7620 N   0  0  0  0  0  0  0  0  0  0  0  0
  187.1790  178.1100  147.3550 C   0  0  0  0  0  3  0  0  0  0  0  0
  188.3180  178.0710  141.7640 C   0  0  0  0  0  3  0  0  0  0  0  0
  186.5260  177.9640  146.0330 C   0  0  0  0  0  0  0  0  0  0  0  0
  189.3240  177.6850  146.3010 C   0  0  0  0  0  0  0  0  0  0  0  0
  185.0440  177.8660  145.9540 C   0  0  0  0  0  2  0  0  0  0  0  0
  184.4850  179.1580  145.5960 N   0  0  0  0  0  2  0  0  0  0  0  0
  183.5900  178.9300  144.4750 C   0  0  0  0  0  2  0  0  0  0  0  0
  184.3100  179.2240  143.1730 C   0  0  0  0  0  2  0  0  0  0  0  0
  184.4390  178.0520  142.4260 O   0  0  0  0  0  0  0  0  0  0  0  0
  184.4640  178.4830  141.1010 C   0  0  0  0  0  2  0  0  0  0  0  0
  185.2720  179.6130  140.9950 O   0  0  0  0  0  1  0  0  0  0  0  0
  1 13  1  0  0  0  0
  1  2  1  0  0  0  0
  2 11  1  1  0  0  0
  2 18  1  0  0  0  0
  3  6  1  0  0  0  0
  4  1  2  0  0  0  0
  5 12  1  0  0  0  0
  5  8  2  0  0  0  0
  7  4  1  0  0  0  0
  7 14  2  0  0  0  0
  8  7  1  0  0  0  0
  9 10  1  0  0  0  0
 11 17  2  0  0  0  0
 12 16  2  0  0  0  0
 13  3  2  0  0  0  0
 14 13  1  0  0  0  0
 15  9  2  0  0  0  0
 16  4  1  0  0  0  0
 17 15  1  0  0  0  0
 18  6  2  0  0  0  0
 18  9  1  0  0  0  0
 19 17  1  0  0  0  0
 20 19  1  0  0  0  0
 21 20  1  0  0  0  0
 22 21  1  0  0  0  0
 23 22  1  0  0  0  0
 24 23  1  0  0  0  0
 25 24  1  0  0  0  0
M  END
>  <MODEL>
6

>  <REMARK>
 VINA RESULT:      -8.9      1.593      5.250
  Name = 
  6 active torsions:
  status: ('A' for Active; 'I' for Inactive)
    1  A    between atoms: O_2  and  C_7
    2  A    between atoms: O_2  and  C_25
    3  A    between atoms: C_6  and  N_15
    4  A    between atoms: C_6  and  C_23
    5  A    between atoms: N_15  and  C_21
    6  A    between atoms: C_21  and  C_25
                            x       y       z     vdW  Elec       q    Type
                         _______ _______ _______ _____ _____    ______ ____

>  <TORSDO>
F 6

$$$$
=
 OpenBabel10262419503D

 25 28  0  0  1  0  0  0  0  0999 V2000
  187.7480  177.8910  142.1380 C   0  0  0  0  0  0  0  0  0  0  0  0
  187.5960  177.3620  143.5300 C   0  0  1  0  0  3  0  0  0  0  0  0
  185.5880  179.0000  142.1070 C   0  0  0  0  0  3  0  0  0  0  0  0
  188.6040  177.6080  141.1720 C   0  0  0  0  0  0  0  0  0  0  0  0
  190.0460  177.2670  138.8290 C   0  0  0  0  0  3  0  0  0  0  0  0
  185.4710  178.7170  143.5610 C   0  0  0  0  0  3  0  0  0  0  0  0
  188.1420  178.1660  139.9850 C   0  0  0  0  0  0  0  0  0  0  0  0
  188.8530  178.0110  138.7960 C   0  0  0  0  0  3  0  0  0  0  0  0
  186.3420  177.8660  145.7030 C   0  0  0  0  0  0  0  0  0  0  0  0
  185.0620  178.0240  146.4490 C   0  0  0  0  0  1  0  0  0  0  0  0
  188.8480  177.4760  144.3560 C   0  0  0  0  0  3  0  0  0  0  0  0
  190.4990  176.6880  140.0320 C   0  0  0  0  0  3  0  0  0  0  0  0
  186.6950  178.6180  141.4780 C   0  0  0  0  0  0  0  0  0  0  0  0
  187.0020  178.7810  140.0960 N   0  0  0  0  0  0  0  0  0  0  0  0
  187.4740  177.6510  146.3830 C   0  0  0  0  0  3  0  0  0  0  0  0
  189.7730  176.8500  141.2230 C   0  0  0  0  0  3  0  0  0  0  0  0
  188.7800  177.5500  145.6920 C   0  0  0  0  0  0  0  0  0  0  0  0
  186.4060  178.0090  144.2330 C   0  0  0  0  0  0  0  0  0  0  0  0
  190.0360  177.5600  146.4900 C   0  0  0  0  0  2  0  0  0  0  0  0
  191.1770  177.3690  145.6120 N   0  0  0  0  0  2  0  0  0  0  0  0
  191.9020  176.2150  146.1150 C   0  0  0  0  0  2  0  0  0  0  0  0
  191.7260  176.1100  147.6180 C   0  0  0  0  0  2  0  0  0  0  0  0
  192.9740  176.0210  148.2370 O   0  0  0  0  0  0  0  0  0  0  0  0
  192.8820  176.8770  149.3340 C   0  0  0  0  0  2  0  0  0  0  0  0
  194.1560  177.1140  149.8460 O   0  0  0  0  0  1  0  0  0  0  0  0
  1  2  1  0  0  0  0
  2 18  1  0  0  0  0
  2 11  1  1  0  0  0
  3  6  1  0  0  0  0
  4 16  1  0  0  0  0
  4  1  2  0  0  0  0
  5 12  1  0  0  0  0
  6 18  2  0  0  0  0
  7 14  2  0  0  0  0
  7  4  1  0  0  0  0
  8  5  2  0  0  0  0
  8  7  1  0  0  0  0
  9 15  2  0  0  0  0
  9 10  1  0  0  0  0
 11 17  2  0  0  0  0
 12 16  2  0  0  0  0
 13  3  2  0  0  0  0
 13  1  1  0  0  0  0
 14 13  1  0  0  0  0
 17 15  1  0  0  0  0
 17 19  1  0  0  0  0
 18  9  1  0  0  0  0
 20 21  1  0  0  0  0
 20 19  1  0  0  0  0
 21 22  1  0  0  0  0
 22 23  1  0  0  0  0
 23 24  1  0  0  0  0
 24 25  1  0  0  0  0
M  END
>  <MODEL>
7

>  <REMARK>
 VINA RESULT:      -8.6      3.642      6.617
  Name = 
  6 active torsions:
  status: ('A' for Active; 'I' for Inactive)
    1  A    between atoms: O_2  and  C_7
    2  A    between atoms: O_2  and  C_25
    3  A    between atoms: C_6  and  N_15
    4  A    between atoms: C_6  and  C_23
    5  A    between atoms: N_15  and  C_21
    6  A    between atoms: C_21  and  C_25
                            x       y       z     vdW  Elec       q    Type
                         _______ _______ _______ _____ _____    ______ ____

>  <TORSDO>
F 6

$$$$
=
 OpenBabel10262419503D

 25 28  0  0  0  0  0  0  0  0999 V2000
  186.9000  177.8450  144.2780 C   0  0  0  0  0  0  0  0  0  0  0  0
  187.8470  177.1360  143.3610 C   0  0  0  0  0  0  0  0  0  0  0  0
  188.2920  177.5770  146.2510 C   0  0  0  0  0  3  0  0  0  0  0  0
  185.6390  178.2130  144.1360 C   0  0  0  0  0  0  0  0  0  0  0  0
  183.0050  179.0430  144.3730 C   0  0  0  0  0  3  0  0  0  0  0  0
  189.3760  177.0820  145.3640 C   0  0  0  0  0  3  0  0  0  0  0  0
  185.1360  178.5810  145.3800 C   0  0  0  0  0  0  0  0  0  0  0  0
  183.8160  179.0060  145.5210 C   0  0  0  0  0  3  0  0  0  0  0  0
  190.3330  176.5670  143.1530 C   0  0  0  0  0  0  0  0  0  0  0  0
  191.5530  175.8920  143.6800 C   0  0  0  0  0  1  0  0  0  0  0  0
  188.0020  177.8060  142.0220 C   0  0  0  0  0  2  0  0  0  0  0  0
  183.5150  178.6510  143.1190 C   0  0  0  0  0  3  0  0  0  0  0  0
  187.1450  177.9560  145.6920 C   0  0  0  0  0  0  0  0  0  0  0  0
  185.9840  178.4470  146.3560 N   0  0  0  0  0  0  0  0  0  0  0  0
  190.2850  176.9200  141.8630 C   0  0  0  0  0  3  0  0  0  0  0  0
  184.8460  178.2240  142.9890 C   0  0  0  0  0  3  0  0  0  0  0  0
  189.1220  177.6480  141.3060 C   0  0  0  0  0  0  0  0  0  0  0  0
  189.2000  176.9200  144.0330 C   0  0  0  0  0  0  0  0  0  0  0  0
  189.2090  178.2370  139.9420 C   0  0  0  0  0  2  0  0  0  0  0  0
  187.8740  178.4020  139.3930 N   0  0  0  0  0  2  0  0  0  0  0  0
  187.9580  178.0660  137.9830 C   0  0  0  0  0  2  0  0  0  0  0  0
  189.3890  178.2130  137.5020 C   0  0  0  0  0  2  0  0  0  0  0  0
  189.4920  177.7870  136.1770 O   0  0  0  0  0  0  0  0  0  0  0  0
  189.6200  176.4010  136.2640 C   0  0  0  0  0  2  0  0  0  0  0  0
  190.9710  176.0620  136.3130 O   0  0  0  0  0  1  0  0  0  0  0  0
  1 13  1  0  0  0  0
  2 18  1  0  0  0  0
  2  1  2  0  0  0  0
  4  1  1  0  0  0  0
  4  7  1  0  0  0  0
  5  8  1  0  0  0  0
  6  3  2  0  0  0  0
  7  8  2  0  0  0  0
  7 14  1  0  0  0  0
  9 10  1  0  0  0  0
  9 18  2  0  0  0  0
 11  2  1  0  0  0  0
 12  5  2  0  0  0  0
 13  3  1  0  0  0  0
 13 14  2  0  0  0  0
 15  9  1  0  0  0  0
 16 12  1  0  0  0  0
 16  4  2  0  0  0  0
 17 15  2  0  0  0  0
 17 11  1  0  0  0  0
 18  6  1  0  0  0  0
 19 17  1  0  0  0  0
 20 19  1  0  0  0  0
 21 20  1  0  0  0  0
 22 21  1  0  0  0  0
 23 24  1  0  0  0  0
 23 22  1  0  0  0  0
 24 25  1  0  0  0  0
M  END
>  <MODEL>
8

>  <REMARK>
 VINA RESULT:      -8.5      1.704      2.609
  Name = 
  6 active torsions:
  status: ('A' for Active; 'I' for Inactive)
    1  A    between atoms: O_2  and  C_7
    2  A    between atoms: O_2  and  C_25
    3  A    between atoms: C_6  and  N_15
    4  A    between atoms: C_6  and  C_23
    5  A    between atoms: N_15  and  C_21
    6  A    between atoms: C_21  and  C_25
                            x       y       z     vdW  Elec       q    Type
                         _______ _______ _______ _____ _____    ______ ____

>  <TORSDO>
F 6

$$$$
=
 OpenBabel10262419503D

 25 28  0  0  0  0  0  0  0  0999 V2000
  187.0330  177.7480  144.3650 C   0  0  0  0  0  0  0  0  0  0  0  0
  187.9920  176.9840  143.5080 C   0  0  0  0  0  0  0  0  0  0  0  0
  188.3670  177.5520  146.3860 C   0  0  0  0  0  3  0  0  0  0  0  0
  185.7820  178.1270  144.1710 C   0  0  0  0  0  0  0  0  0  0  0  0
  183.1550  179.0040  144.2970 C   0  0  0  0  0  3  0  0  0  0  0  0
  189.4660  177.0010  145.5540 C   0  0  0  0  0  3  0  0  0  0  0  0
  185.2510  178.5590  145.3830 C   0  0  0  0  0  0  0  0  0  0  0  0
  183.9350  179.0090  145.4670 C   0  0  0  0  0  3  0  0  0  0  0  0
  190.4750  176.3700  143.3950 C   0  0  0  0  0  0  0  0  0  0  0  0
  191.6690  175.7030  143.9860 C   0  0  0  0  0  1  0  0  0  0  0  0
  188.1940  177.5880  142.1450 C   0  0  0  0  0  2  0  0  0  0  0  0
  183.6930  178.5470  143.0770 C   0  0  0  0  0  3  0  0  0  0  0  0
  187.2420  177.9210  145.7790 C   0  0  0  0  0  0  0  0  0  0  0  0
  186.0700  178.4580  146.3870 N   0  0  0  0  0  0  0  0  0  0  0  0
  190.4670  176.6630  142.0900 C   0  0  0  0  0  3  0  0  0  0  0  0
  185.0210  178.0950  143.0040 C   0  0  0  0  0  3  0  0  0  0  0  0
  189.3300  177.3800  141.4680 C   0  0  0  0  0  0  0  0  0  0  0  0
  189.3230  176.7800  144.2270 C   0  0  0  0  0  0  0  0  0  0  0  0
  189.4630  177.9040  140.0810 C   0  0  0  0  0  2  0  0  0  0  0  0
  190.6870  177.4000  139.4820 N   0  0  0  0  0  2  0  0  0  0  0  0
  190.3800  177.1000  138.0940 C   0  0  0  0  0  2  0  0  0  0  0  0
  188.9180  177.3930  137.8150 C   0  0  0  0  0  2  0  0  0  0  0  0
  188.7960  178.1020  136.6190 O   0  0  0  0  0  0  0  0  0  0  0  0
  187.4210  178.1960  136.4070 C   0  0  0  0  0  2  0  0  0  0  0  0
  187.1650  178.2440  135.0380 O   0  0  0  0  0  1  0  0  0  0  0  0
  1 13  1  0  0  0  0
  2 18  1  0  0  0  0
  2  1  2  0  0  0  0
  4  1  1  0  0  0  0
  4  7  1  0  0  0  0
  5  8  1  0  0  0  0
  6  3  2  0  0  0  0
  7  8  2  0  0  0  0
  7 14  1  0  0  0  0
  9 10  1  0  0  0  0
  9 18  2  0  0  0  0
 11  2  1  0  0  0  0
 12  5  2  0  0  0  0
 13  3  1  0  0  0  0
 13 14  2  0  0  0  0
 15  9  1  0  0  0  0
 16 12  1  0  0  0  0
 16  4  2  0  0  0  0
 17 15  2  0  0  0  0
 17 11  1  0  0  0  0
 18  6  1  0  0  0  0
 19 17  1  0  0  0  0
 20 19  1  0  0  0  0
 21 20  1  0  0  0  0
 22 21  1  0  0  0  0
 23 22  1  0  0  0  0
 24 23  1  0  0  0  0
 25 24  1  0  0  0  0
M  END
>  <MODEL>
9

>  <REMARK>
 VINA RESULT:      -8.4      1.469      2.236
  Name = 
  6 active torsions:
  status: ('A' for Active; 'I' for Inactive)
    1  A    between atoms: O_2  and  C_7
    2  A    between atoms: O_2  and  C_25
    3  A    between atoms: C_6  and  N_15
    4  A    between atoms: C_6  and  C_23
    5  A    between atoms: N_15  and  C_21
    6  A    between atoms: C_21  and  C_25
                            x       y       z     vdW  Elec       q    Type
                         _______ _______ _______ _____ _____    ______ ____

>  <TORSDO>
F 6

$$$$
