=
 OpenBabel10262419493D

 25 28  0  0  0  0  0  0  0  0999 V2000
  187.1580  177.8820  145.6500 C   0  0  0  0  0  0  0  0  0  0  0  0
  188.4320  177.4330  145.3090 C   0  0  0  0  0  0  0  0  0  0  0  0
  187.7150  177.9260  147.9500 C   0  0  0  0  0  3  0  0  0  0  0  0
  186.0680  178.1580  144.8580 C   0  0  0  0  0  0  0  0  0  0  0  0
  183.5860  178.8660  143.8590 C   0  0  0  0  0  3  0  0  0  0  0  0
  188.9720  177.4880  147.6530 N   0  0  0  0  0  0  0  0  0  0  0  0
  185.0680  178.5680  145.7160 C   0  0  0  0  0  0  0  0  0  0  0  0
  183.8090  178.9310  145.2470 C   0  0  0  0  0  3  0  0  0  0  0  0
  190.6600  176.7790  146.0350 N   0  0  0  0  0  0  0  0  0  0  0  0
  191.6590  176.5550  147.0660 C   0  0  0  0  0  1  0  0  0  0  0  0
  188.8210  177.1720  143.9530 N   0  0  0  0  0  0  0  0  0  0  0  0
  184.6120  178.4460  142.9830 C   0  0  0  0  0  3  0  0  0  0  0  0
  186.8340  178.1140  146.9380 N   0  0  0  0  0  0  0  0  0  0  0  0
  185.5530  178.5380  147.0160 C   0  0  0  0  0  3  0  0  0  0  0  0
  190.9880  176.5390  144.6890 N   0  0  0  0  0  2  0  0  0  0  0  0
  185.8760  178.0840  143.4800 C   0  0  0  0  0  3  0  0  0  0  0  0
  190.0180  176.7530  143.6530 C   0  0  0  0  0  0  0  0  0  0  0  0
  189.3440  177.2400  146.3590 C   0  0  0  0  0  0  0  0  0  0  0  0
  190.3950  176.4920  142.2590 C   0  0  0  0  0  3  0  0  0  0  0  0
  189.9120  177.2060  141.2480 C   0  0  0  0  0  3  0  0  0  0  0  0
  190.3100  176.9110  139.8400 C   0  0  0  0  0  2  0  0  0  0  0  0
  189.1120  176.9580  138.9000 C   0  0  0  0  0  2  0  0  0  0  0  0
  188.4690  178.3040  138.9120 C   0  0  0  0  0  0  0  0  0  0  0  0
  187.2140  178.4670  139.4820 O   0  0  0  0  0  1  0  0  0  0  0  0
  189.0550  179.2880  138.3910 O   0  0  0  0  0  0  0  0  0  0  0  0
  1 13  1  0  0  0  0
  2  1  1  0  0  0  0
  2 18  2  0  0  0  0
  4  1  2  0  0  0  0
  4  7  1  0  0  0  0
  5  8  2  0  0  0  0
  6  3  2  0  0  0  0
  7 14  2  0  0  0  0
  8  7  1  0  0  0  0
  9 18  1  0  0  0  0
  9 10  1  0  0  0  0
 11  2  1  0  0  0  0
 12 16  2  0  0  0  0
 12  5  1  0  0  0  0
 13 14  1  0  0  0  0
 13  3  1  0  0  0  0
 15  9  1  0  0  0  0
 16  4  1  0  0  0  0
 17 11  2  0  0  0  0
 17 15  1  0  0  0  0
 18  6  1  0  0  0  0
 19 17  1  0  0  0  0
 20 19  2  0  0  0  0
 21 20  1  0  0  0  0
 22 23  1  0  0  0  0
 22 21  1  0  0  0  0
 23 24  1  0  0  0  0
 25 23  2  0  0  0  0
M  END
>  <MODEL>
1

>  <REMARK>
 VINA RESULT:     -10.0      0.000      0.000
  Name = 
  4 active torsions:
  status: ('A' for Active; 'I' for Inactive)
    1  A    between atoms: C_2  and  C_25
    2  A    between atoms: C_6  and  C_23
    3  A    between atoms: C_15  and  C_21
    4  A    between atoms: C_21  and  C_25
                            x       y       z     vdW  Elec       q    Type
                         _______ _______ _______ _____ _____    ______ ____

>  <TORSDO>
F 4

$$$$
=
 OpenBabel10262419493D

 25 28  0  0  0  0  0  0  0  0999 V2000
  187.1510  177.8920  145.6160 C   0  0  0  0  0  0  0  0  0  0  0  0
  188.4330  177.4540  145.2900 C   0  0  0  0  0  0  0  0  0  0  0  0
  187.6720  177.9140  147.9250 C   0  0  0  0  0  3  0  0  0  0  0  0
  186.0730  178.1720  144.8100 C   0  0  0  0  0  0  0  0  0  0  0  0
  183.6030  178.8770  143.7790 C   0  0  0  0  0  3  0  0  0  0  0  0
  188.9350  177.4860  147.6430 N   0  0  0  0  0  0  0  0  0  0  0  0
  185.0570  178.5660  145.6560 C   0  0  0  0  0  0  0  0  0  0  0  0
  183.8040  178.9270  145.1710 C   0  0  0  0  0  3  0  0  0  0  0  0
  190.6540  176.8050  146.0450 N   0  0  0  0  0  0  0  0  0  0  0  0
  191.6370  176.5740  147.0880 C   0  0  0  0  0  1  0  0  0  0  0  0
  188.8450  177.2110  143.9380 N   0  0  0  0  0  0  0  0  0  0  0  0
  184.6450  178.4730  142.9150 C   0  0  0  0  0  3  0  0  0  0  0  0
  186.8060  178.1080  146.9020 N   0  0  0  0  0  0  0  0  0  0  0  0
  185.5210  178.5240  146.9640 C   0  0  0  0  0  3  0  0  0  0  0  0
  191.0040  176.5820  144.7020 N   0  0  0  0  0  2  0  0  0  0  0  0
  185.9030  178.1120  143.4280 C   0  0  0  0  0  3  0  0  0  0  0  0
  190.0500  176.8020  143.6530 C   0  0  0  0  0  0  0  0  0  0  0  0
  189.3290  177.2540  146.3530 C   0  0  0  0  0  0  0  0  0  0  0  0
  190.4500  176.5590  142.2620 C   0  0  0  0  0  3  0  0  0  0  0  0
  191.1400  177.4480  141.5560 C   0  0  0  0  0  3  0  0  0  0  0  0
  191.5280  177.1730  140.1420 C   0  0  0  0  0  2  0  0  0  0  0  0
  190.3660  177.4200  139.1870 C   0  0  0  0  0  2  0  0  0  0  0  0
  189.9970  176.1750  138.4530 C   0  0  0  0  0  0  0  0  0  0  0  0
  188.7680  176.0860  137.8130 O   0  0  0  0  0  0  0  0  0  0  0  0
  190.7910  175.1990  138.4260 O   0  0  0  0  0  1  0  0  0  0  0  0
  1 13  1  0  0  0  0
  2  1  1  0  0  0  0
  2 18  2  0  0  0  0
  4  1  2  0  0  0  0
  4  7  1  0  0  0  0
  5  8  2  0  0  0  0
  6  3  2  0  0  0  0
  7 14  2  0  0  0  0
  8  7  1  0  0  0  0
  9 18  1  0  0  0  0
  9 10  1  0  0  0  0
 11  2  1  0  0  0  0
 12 16  2  0  0  0  0
 12  5  1  0  0  0  0
 13 14  1  0  0  0  0
 13  3  1  0  0  0  0
 15  9  1  0  0  0  0
 16  4  1  0  0  0  0
 17 11  2  0  0  0  0
 17 15  1  0  0  0  0
 18  6  1  0  0  0  0
 19 17  1  0  0  0  0
 20 19  2  0  0  0  0
 21 20  1  0  0  0  0
 22 21  1  0  0  0  0
 23 22  1  0  0  0  0
 24 23  2  0  0  0  0
 25 23  1  0  0  0  0
M  END
>  <MODEL>
2

>  <REMARK>
 VINA RESULT:      -9.5      1.201      1.310
  Name = 
  4 active torsions:
  status: ('A' for Active; 'I' for Inactive)
    1  A    between atoms: C_2  and  C_25
    2  A    between atoms: C_6  and  C_23
    3  A    between atoms: C_15  and  C_21
    4  A    between atoms: C_21  and  C_25
                            x       y       z     vdW  Elec       q    Type
                         _______ _______ _______ _____ _____    ______ ____

>  <TORSDO>
F 4

$$$$
=
 OpenBabel10262419493D

 25 28  0  0  0  0  0  0  0  0999 V2000
  189.2440  177.5410  143.7830 C   0  0  0  0  0  0  0  0  0  0  0  0
  188.6060  177.8650  142.5880 C   0  0  0  0  0  0  0  0  0  0  0  0
  191.2840  177.1160  142.6590 C   0  0  0  0  0  3  0  0  0  0  0  0
  188.7640  177.5140  145.0710 C   0  0  0  0  0  0  0  0  0  0  0  0
  188.4320  177.2660  147.8080 C   0  0  0  0  0  3  0  0  0  0  0  0
  190.6910  177.4270  141.4700 N   0  0  0  0  0  0  0  0  0  0  0  0
  189.8230  177.1230  145.8640 C   0  0  0  0  0  0  0  0  0  0  0  0
  189.6900  176.9890  147.2440 C   0  0  0  0  0  3  0  0  0  0  0  0
  188.7420  178.1260  140.1730 N   0  0  0  0  0  0  0  0  0  0  0  0
  189.4700  178.0800  138.9170 C   0  0  0  0  0  1  0  0  0  0  0  0
  187.2270  178.2530  142.5300 N   0  0  0  0  0  0  0  0  0  0  0  0
  187.3490  177.6660  146.9940 C   0  0  0  0  0  3  0  0  0  0  0  0
  190.5440  177.1800  143.7920 N   0  0  0  0  0  0  0  0  0  0  0  0
  190.9340  176.9150  145.0580 C   0  0  0  0  0  3  0  0  0  0  0  0
  187.3870  178.5000  140.1740 N   0  0  0  0  0  2  0  0  0  0  0  0
  187.5070  177.7950  145.6030 C   0  0  0  0  0  3  0  0  0  0  0  0
  186.6460  178.5540  141.4020 C   0  0  0  0  0  0  0  0  0  0  0  0
  189.3750  177.7980  141.4150 C   0  0  0  0  0  0  0  0  0  0  0  0
  185.2340  178.9470  141.3660 C   0  0  0  0  0  3  0  0  0  0  0  0
  184.2910  178.2680  142.0100 C   0  0  0  0  0  3  0  0  0  0  0  0
  182.8610  178.6920  141.9490 C   0  0  0  0  0  2  0  0  0  0  0  0
  182.3110  179.0000  143.3360 C   0  0  0  0  0  2  0  0  0  0  0  0
  180.8340  179.2080  143.2970 C   0  0  0  0  0  0  0  0  0  0  0  0
  180.3180  180.4390  142.9160 O   0  0  0  0  0  0  0  0  0  0  0  0
  180.0570  178.2750  143.6250 O   0  0  0  0  0  1  0  0  0  0  0  0
  1 13  1  0  0  0  0
  1  4  2  0  0  0  0
  2  1  1  0  0  0  0
  3 13  1  0  0  0  0
  4 16  1  0  0  0  0
  4  7  1  0  0  0  0
  6  3  2  0  0  0  0
  7  8  1  0  0  0  0
  8  5  2  0  0  0  0
  9 15  1  0  0  0  0
  9 18  1  0  0  0  0
 10  9  1  0  0  0  0
 11  2  1  0  0  0  0
 12  5  1  0  0  0  0
 13 14  1  0  0  0  0
 14  7  2  0  0  0  0
 15 17  1  0  0  0  0
 16 12  2  0  0  0  0
 17 11  2  0  0  0  0
 18  6  1  0  0  0  0
 18  2  2  0  0  0  0
 19 17  1  0  0  0  0
 19 20  2  0  0  0  0
 21 20  1  0  0  0  0
 21 22  1  0  0  0  0
 23 22  1  0  0  0  0
 23 25  1  0  0  0  0
 24 23  2  0  0  0  0
M  END
>  <MODEL>
3

>  <REMARK>
 VINA RESULT:      -9.2      3.159      6.189
  Name = 
  4 active torsions:
  status: ('A' for Active; 'I' for Inactive)
    1  A    between atoms: C_2  and  C_25
    2  A    between atoms: C_6  and  C_23
    3  A    between atoms: C_15  and  C_21
    4  A    between atoms: C_21  and  C_25
                            x       y       z     vdW  Elec       q    Type
                         _______ _______ _______ _____ _____    ______ ____

>  <TORSDO>
F 4

$$$$
=
 OpenBabel10262419493D

 25 28  0  0  0  0  0  0  0  0999 V2000
  188.0650  177.7180  144.2050 C   0  0  0  0  0  0  0  0  0  0  0  0
  187.8170  177.9550  142.8550 C   0  0  0  0  0  0  0  0  0  0  0  0
  185.8200  178.2030  144.7740 C   0  0  0  0  0  3  0  0  0  0  0  0
  189.2240  177.3460  144.8460 C   0  0  0  0  0  0  0  0  0  0  0  0
  191.1600  176.6260  146.6880 C   0  0  0  0  0  3  0  0  0  0  0  0
  185.5400  178.4430  143.4610 N   0  0  0  0  0  0  0  0  0  0  0  0
  188.9040  177.2520  146.1850 C   0  0  0  0  0  0  0  0  0  0  0  0
  189.8540  176.8920  147.1380 C   0  0  0  0  0  3  0  0  0  0  0  0
  186.2280  178.5760  141.1200 N   0  0  0  0  0  0  0  0  0  0  0  0
  184.9010  178.9650  140.6760 C   0  0  0  0  0  1  0  0  0  0  0  0
  188.8330  177.8330  141.8500 N   0  0  0  0  0  0  0  0  0  0  0  0
  191.4850  176.7230  145.3170 C   0  0  0  0  0  3  0  0  0  0  0  0
  187.0800  177.8440  145.1170 N   0  0  0  0  0  0  0  0  0  0  0  0
  187.5620  177.5650  146.3490 C   0  0  0  0  0  3  0  0  0  0  0  0
  187.2610  178.4420  140.1770 N   0  0  0  0  0  2  0  0  0  0  0  0
  190.5090  177.0880  144.3730 C   0  0  0  0  0  3  0  0  0  0  0  0
  188.5810  178.0590  140.5910 C   0  0  0  0  0  0  0  0  0  0  0  0
  186.5100  178.3270  142.5020 C   0  0  0  0  0  0  0  0  0  0  0  0
  189.6360  177.9290  139.5800 C   0  0  0  0  0  3  0  0  0  0  0  0
  189.6160  176.9790  138.6510 C   0  0  0  0  0  3  0  0  0  0  0  0
  190.7070  176.8700  137.6390 C   0  0  0  0  0  2  0  0  0  0  0  0
  191.7850  175.8900  138.0850 C   0  0  0  0  0  2  0  0  0  0  0  0
  193.1180  176.5560  138.1680 C   0  0  0  0  0  0  0  0  0  0  0  0
  193.5580  177.0780  139.3770 O   0  0  0  0  0  1  0  0  0  0  0  0
  193.8370  176.6600  137.1400 O   0  0  0  0  0  0  0  0  0  0  0  0
  1  4  2  0  0  0  0
  1 13  1  0  0  0  0
  2  1  1  0  0  0  0
  3 13  1  0  0  0  0
  4  7  1  0  0  0  0
  5  8  2  0  0  0  0
  6  3  2  0  0  0  0
  7 14  2  0  0  0  0
  7  8  1  0  0  0  0
  9 18  1  0  0  0  0
 10  9  1  0  0  0  0
 11  2  1  0  0  0  0
 12  5  1  0  0  0  0
 13 14  1  0  0  0  0
 15 17  1  0  0  0  0
 15  9  1  0  0  0  0
 16  4  1  0  0  0  0
 16 12  2  0  0  0  0
 17 11  2  0  0  0  0
 18  2  2  0  0  0  0
 18  6  1  0  0  0  0
 19 17  1  0  0  0  0
 20 19  2  0  0  0  0
 21 22  1  0  0  0  0
 21 20  1  0  0  0  0
 22 23  1  0  0  0  0
 23 24  1  0  0  0  0
 25 23  2  0  0  0  0
M  END
>  <MODEL>
4

>  <REMARK>
 VINA RESULT:      -9.0      2.525      5.028
  Name = 
  4 active torsions:
  status: ('A' for Active; 'I' for Inactive)
    1  A    between atoms: C_2  and  C_25
    2  A    between atoms: C_6  and  C_23
    3  A    between atoms: C_15  and  C_21
    4  A    between atoms: C_21  and  C_25
                            x       y       z     vdW  Elec       q    Type
                         _______ _______ _______ _____ _____    ______ ____

>  <TORSDO>
F 4

$$$$
=
 OpenBabel10262419493D

 25 28  0  0  0  0  0  0  0  0999 V2000
  186.6440  178.1160  143.9310 C   0  0  0  0  0  0  0  0  0  0  0  0
  186.7000  178.2770  142.5490 C   0  0  0  0  0  0  0  0  0  0  0  0
  184.3330  178.6280  143.9660 C   0  0  0  0  0  3  0  0  0  0  0  0
  187.6290  177.7830  144.8310 C   0  0  0  0  0  0  0  0  0  0  0  0
  189.1070  177.1720  147.0900 C   0  0  0  0  0  3  0  0  0  0  0  0
  184.3510  178.7940  142.6130 N   0  0  0  0  0  0  0  0  0  0  0  0
  187.0230  177.7640  146.0700 C   0  0  0  0  0  0  0  0  0  0  0  0
  187.7370  177.4600  147.2260 C   0  0  0  0  0  3  0  0  0  0  0  0
  185.5360  178.7970  140.4760 N   0  0  0  0  0  0  0  0  0  0  0  0
  184.3430  179.1580  139.7310 C   0  0  0  0  0  1  0  0  0  0  0  0
  187.9100  178.1010  141.8000 N   0  0  0  0  0  0  0  0  0  0  0  0
  189.7260  177.1930  145.8200 C   0  0  0  0  0  3  0  0  0  0  0  0
  185.4840  178.2920  144.5970 N   0  0  0  0  0  0  0  0  0  0  0  0
  185.6800  178.0830  145.9170 C   0  0  0  0  0  3  0  0  0  0  0  0
  186.7500  178.6120  139.7920 N   0  0  0  0  0  2  0  0  0  0  0  0
  188.9840  177.5020  144.6660 C   0  0  0  0  0  3  0  0  0  0  0  0
  187.9430  178.2560  140.5050 C   0  0  0  0  0  0  0  0  0  0  0  0
  185.5060  178.6260  141.8970 C   0  0  0  0  0  0  0  0  0  0  0  0
  189.1930  178.0710  139.7590 C   0  0  0  0  0  3  0  0  0  0  0  0
  189.2680  177.2990  138.6800 C   0  0  0  0  0  3  0  0  0  0  0  0
  190.5560  177.1280  137.9460 C   0  0  0  0  0  2  0  0  0  0  0  0
  191.5290  176.2500  138.7240 C   0  0  0  0  0  2  0  0  0  0  0  0
  192.9280  176.7490  138.5930 C   0  0  0  0  0  0  0  0  0  0  0  0
  193.5500  176.7530  137.3520 O   0  0  0  0  0  0  0  0  0  0  0  0
  193.5520  177.1510  139.6090 O   0  0  0  0  0  1  0  0  0  0  0  0
  1 13  1  0  0  0  0
  1  4  2  0  0  0  0
  2  1  1  0  0  0  0
  3 13  1  0  0  0  0
  4  7  1  0  0  0  0
  5  8  2  0  0  0  0
  6  3  2  0  0  0  0
  7  8  1  0  0  0  0
  9 18  1  0  0  0  0
 10  9  1  0  0  0  0
 11  2  1  0  0  0  0
 12  5  1  0  0  0  0
 13 14  1  0  0  0  0
 14  7  2  0  0  0  0
 15  9  1  0  0  0  0
 15 17  1  0  0  0  0
 16  4  1  0  0  0  0
 16 12  2  0  0  0  0
 17 11  2  0  0  0  0
 18  2  2  0  0  0  0
 18  6  1  0  0  0  0
 19 17  1  0  0  0  0
 20 19  2  0  0  0  0
 21 20  1  0  0  0  0
 21 22  1  0  0  0  0
 23 22  1  0  0  0  0
 23 25  1  0  0  0  0
 24 23  2  0  0  0  0
M  END
>  <MODEL>
5

>  <REMARK>
 VINA RESULT:      -8.8      2.728      4.995
  Name = 
  4 active torsions:
  status: ('A' for Active; 'I' for Inactive)
    1  A    between atoms: C_2  and  C_25
    2  A    between atoms: C_6  and  C_23
    3  A    between atoms: C_15  and  C_21
    4  A    between atoms: C_21  and  C_25
                            x       y       z     vdW  Elec       q    Type
                         _______ _______ _______ _____ _____    ______ ____

>  <TORSDO>
F 4

$$$$
=
 OpenBabel10262419493D

 25 28  0  0  0  0  0  0  0  0999 V2000
  187.7750  177.7960  145.7010 C   0  0  0  0  0  0  0  0  0  0  0  0
  186.8880  178.1310  144.6800 C   0  0  0  0  0  0  0  0  0  0  0  0
  186.1460  178.2530  147.3570 C   0  0  0  0  0  3  0  0  0  0  0  0
  189.0810  177.3730  145.6430 C   0  0  0  0  0  0  0  0  0  0  0  0
  191.6520  176.5120  146.2030 C   0  0  0  0  0  3  0  0  0  0  0  0
  185.2520  178.5880  146.3840 N   0  0  0  0  0  0  0  0  0  0  0  0
  189.4790  177.1850  146.9510 C   0  0  0  0  0  0  0  0  0  0  0  0
  190.7640  176.7530  147.2670 C   0  0  0  0  0  3  0  0  0  0  0  0
  184.6670  178.8830  144.0300 N   0  0  0  0  0  0  0  0  0  0  0  0
  183.3150  179.3110  144.3440 C   0  0  0  0  0  1  0  0  0  0  0  0
  187.2510  178.0750  143.2930 N   0  0  0  0  0  0  0  0  0  0  0  0
  191.2420  176.7050  144.8650 C   0  0  0  0  0  3  0  0  0  0  0  0
  187.3920  177.8630  146.9920 N   0  0  0  0  0  0  0  0  0  0  0  0
  188.4170  177.4940  147.7910 C   0  0  0  0  0  3  0  0  0  0  0  0
  185.0760  178.8110  142.6870 N   0  0  0  0  0  2  0  0  0  0  0  0
  189.9390  177.1420  144.5690 C   0  0  0  0  0  3  0  0  0  0  0  0
  186.4070  178.3920  142.3510 C   0  0  0  0  0  0  0  0  0  0  0  0
  185.5980  178.5340  145.0600 C   0  0  0  0  0  0  0  0  0  0  0  0
  186.7990  178.3280  140.9390 C   0  0  0  0  0  3  0  0  0  0  0  0
  188.0680  178.2230  140.5590 C   0  0  0  0  0  3  0  0  0  0  0  0
  188.4350  178.1660  139.1140 C   0  0  0  0  0  2  0  0  0  0  0  0
  189.9450  178.2350  138.9180 C   0  0  0  0  0  2  0  0  0  0  0  0
  190.6390  177.1680  139.6960 C   0  0  0  0  0  0  0  0  0  0  0  0
  191.3930  177.5030  140.8120 O   0  0  0  0  0  1  0  0  0  0  0  0
  190.5550  175.9670  139.3320 O   0  0  0  0  0  0  0  0  0  0  0  0
  1 13  1  0  0  0  0
  2 18  2  0  0  0  0
  2  1  1  0  0  0  0
  4  1  2  0  0  0  0
  4  7  1  0  0  0  0
  5  8  2  0  0  0  0
  6  3  2  0  0  0  0
  7  8  1  0  0  0  0
  7 14  2  0  0  0  0
  9 10  1  0  0  0  0
  9 18  1  0  0  0  0
 11  2  1  0  0  0  0
 12  5  1  0  0  0  0
 13  3  1  0  0  0  0
 13 14  1  0  0  0  0
 15  9  1  0  0  0  0
 16 12  2  0  0  0  0
 16  4  1  0  0  0  0
 17 15  1  0  0  0  0
 17 11  2  0  0  0  0
 18  6  1  0  0  0  0
 19 17  1  0  0  0  0
 20 19  2  0  0  0  0
 21 20  1  0  0  0  0
 22 21  1  0  0  0  0
 22 23  1  0  0  0  0
 23 24  1  0  0  0  0
 25 23  2  0  0  0  0
M  END
>  <MODEL>
6

>  <REMARK>
 VINA RESULT:      -8.8      1.932      4.702
  Name = 
  4 active torsions:
  status: ('A' for Active; 'I' for Inactive)
    1  A    between atoms: C_2  and  C_25
    2  A    between atoms: C_6  and  C_23
    3  A    between atoms: C_15  and  C_21
    4  A    between atoms: C_21  and  C_25
                            x       y       z     vdW  Elec       q    Type
                         _______ _______ _______ _____ _____    ______ ____

>  <TORSDO>
F 4

$$$$
=
 OpenBabel10262419493D

 25 28  0  0  0  0  0  0  0  0999 V2000
  187.9600  177.5980  145.5360 C   0  0  0  0  0  0  0  0  0  0  0  0
  187.2550  177.9280  144.3810 C   0  0  0  0  0  0  0  0  0  0  0  0
  186.0410  177.9240  146.8830 C   0  0  0  0  0  3  0  0  0  0  0  0
  189.2760  177.2350  145.7030 C   0  0  0  0  0  0  0  0  0  0  0  0
  191.7440  176.4690  146.6950 C   0  0  0  0  0  3  0  0  0  0  0  0
  185.3200  178.2530  145.7730 N   0  0  0  0  0  0  0  0  0  0  0  0
  189.4410  177.0200  147.0560 C   0  0  0  0  0  0  0  0  0  0  0  0
  190.6690  176.6340  147.5880 C   0  0  0  0  0  3  0  0  0  0  0  0
  185.1510  178.6040  143.3610 N   0  0  0  0  0  0  0  0  0  0  0  0
  183.7450  178.9600  143.4370 C   0  0  0  0  0  1  0  0  0  0  0  0
  187.8620  177.9370  143.0810 N   0  0  0  0  0  0  0  0  0  0  0  0
  191.5720  176.6910  145.3100 C   0  0  0  0  0  3  0  0  0  0  0  0
  187.3500  177.6020  146.7380 N   0  0  0  0  0  0  0  0  0  0  0  0
  188.2330  177.2510  147.6980 C   0  0  0  0  0  3  0  0  0  0  0  0
  185.7970  178.5970  142.1120 N   0  0  0  0  0  2  0  0  0  0  0  0
  190.3220  177.0800  144.7960 C   0  0  0  0  0  3  0  0  0  0  0  0
  187.1860  178.2490  142.0110 C   0  0  0  0  0  0  0  0  0  0  0  0
  185.8990  178.2610  144.5330 C   0  0  0  0  0  0  0  0  0  0  0  0
  187.8270  178.2530  140.6920 C   0  0  0  0  0  3  0  0  0  0  0  0
  189.0010  177.6700  140.4720 C   0  0  0  0  0  3  0  0  0  0  0  0
  189.6310  177.6960  139.1190 C   0  0  0  0  0  2  0  0  0  0  0  0
  188.6060  177.4360  138.0220 C   0  0  0  0  0  2  0  0  0  0  0  0
  188.4060  178.6450  137.1720 C   0  0  0  0  0  0  0  0  0  0  0  0
  187.5150  178.6050  136.1090 O   0  0  0  0  0  0  0  0  0  0  0  0
  189.0560  179.6970  137.4090 O   0  0  0  0  0  1  0  0  0  0  0  0
  1  4  2  0  0  0  0
  1 13  1  0  0  0  0
  2 18  2  0  0  0  0
  2  1  1  0  0  0  0
  4  7  1  0  0  0  0
  5  8  2  0  0  0  0
  6  3  2  0  0  0  0
  7  8  1  0  0  0  0
  7 14  2  0  0  0  0
  9 10  1  0  0  0  0
  9 18  1  0  0  0  0
 11  2  1  0  0  0  0
 12  5  1  0  0  0  0
 13  3  1  0  0  0  0
 13 14  1  0  0  0  0
 15  9  1  0  0  0  0
 16 12  2  0  0  0  0
 16  4  1  0  0  0  0
 17 15  1  0  0  0  0
 17 11  2  0  0  0  0
 18  6  1  0  0  0  0
 19 17  1  0  0  0  0
 20 19  2  0  0  0  0
 21 20  1  0  0  0  0
 22 21  1  0  0  0  0
 23 25  1  0  0  0  0
 23 22  1  0  0  0  0
 24 23  2  0  0  0  0
M  END
>  <MODEL>
7

>  <REMARK>
 VINA RESULT:      -8.8      1.688      4.523
  Name = 
  4 active torsions:
  status: ('A' for Active; 'I' for Inactive)
    1  A    between atoms: C_2  and  C_25
    2  A    between atoms: C_6  and  C_23
    3  A    between atoms: C_15  and  C_21
    4  A    between atoms: C_21  and  C_25
                            x       y       z     vdW  Elec       q    Type
                         _______ _______ _______ _____ _____    ______ ____

>  <TORSDO>
F 4

$$$$
=
 OpenBabel10262419493D

 25 28  0  0  0  0  0  0  0  0999 V2000
  185.8080  178.5430  142.1380 C   0  0  0  0  0  0  0  0  0  0  0  0
  187.0420  178.2650  141.5540 C   0  0  0  0  0  0  0  0  0  0  0  0
  184.8290  178.9750  140.0260 C   0  0  0  0  0  3  0  0  0  0  0  0
  185.4250  178.5350  143.4580 C   0  0  0  0  0  0  0  0  0  0  0  0
  184.0540  178.7010  145.8570 C   0  0  0  0  0  3  0  0  0  0  0  0
  186.0220  178.7100  139.4210 N   0  0  0  0  0  0  0  0  0  0  0  0
  184.0910  178.8860  143.4700 C   0  0  0  0  0  0  0  0  0  0  0  0
  183.3720  178.9790  144.6580 C   0  0  0  0  0  3  0  0  0  0  0  0
  188.3800  178.0790  139.5300 N   0  0  0  0  0  0  0  0  0  0  0  0
  188.5430  178.1560  138.0880 C   0  0  0  0  0  1  0  0  0  0  0  0
  188.1950  177.8980  142.3230 N   0  0  0  0  0  0  0  0  0  0  0  0
  185.4200  178.3410  145.8420 C   0  0  0  0  0  3  0  0  0  0  0  0
  184.7490  178.8850  141.3760 N   0  0  0  0  0  0  0  0  0  0  0  0
  183.6730  179.1040  142.1640 C   0  0  0  0  0  3  0  0  0  0  0  0
  189.4780  177.7240  140.3320 N   0  0  0  0  0  2  0  0  0  0  0  0
  186.1260  178.2550  144.6300 C   0  0  0  0  0  3  0  0  0  0  0  0
  189.3420  177.6420  141.7590 C   0  0  0  0  0  0  0  0  0  0  0  0
  187.1230  178.3590  140.1550 C   0  0  0  0  0  0  0  0  0  0  0  0
  190.5090  177.2690  142.5660 C   0  0  0  0  0  3  0  0  0  0  0  0
  190.3960  176.6250  143.7230 C   0  0  0  0  0  3  0  0  0  0  0  0
  191.6030  176.2650  144.5230 C   0  0  0  0  0  2  0  0  0  0  0  0
  191.7220  177.1270  145.7730 C   0  0  0  0  0  2  0  0  0  0  0  0
  191.3190  176.3690  146.9930 C   0  0  0  0  0  0  0  0  0  0  0  0
  192.2410  175.5600  147.6420 O   0  0  0  0  0  1  0  0  0  0  0  0
  190.1390  176.4470  147.4230 O   0  0  0  0  0  0  0  0  0  0  0  0
  1  4  2  0  0  0  0
  2  1  1  0  0  0  0
  2 11  1  0  0  0  0
  3 13  1  0  0  0  0
  4  7  1  0  0  0  0
  4 16  1  0  0  0  0
  6  3  2  0  0  0  0
  6 18  1  0  0  0  0
  7  8  1  0  0  0  0
  8  5  2  0  0  0  0
  9 18  1  0  0  0  0
  9 15  1  0  0  0  0
 10  9  1  0  0  0  0
 12  5  1  0  0  0  0
 13  1  1  0  0  0  0
 13 14  1  0  0  0  0
 14  7  2  0  0  0  0
 15 17  1  0  0  0  0
 16 12  2  0  0  0  0
 17 11  2  0  0  0  0
 17 19  1  0  0  0  0
 18  2  2  0  0  0  0
 19 20  2  0  0  0  0
 20 21  1  0  0  0  0
 21 22  1  0  0  0  0
 22 23  1  0  0  0  0
 23 25  2  0  0  0  0
 23 24  1  0  0  0  0
M  END
>  <MODEL>
8

>  <REMARK>
 VINA RESULT:      -8.8      3.479      5.797
  Name = 
  4 active torsions:
  status: ('A' for Active; 'I' for Inactive)
    1  A    between atoms: C_2  and  C_25
    2  A    between atoms: C_6  and  C_23
    3  A    between atoms: C_15  and  C_21
    4  A    between atoms: C_21  and  C_25
                            x       y       z     vdW  Elec       q    Type
                         _______ _______ _______ _____ _____    ______ ____

>  <TORSDO>
F 4

$$$$
=
 OpenBabel10262419493D

 25 28  0  0  0  0  0  0  0  0999 V2000
  189.5600  177.4720  143.8110 C   0  0  0  0  0  0  0  0  0  0  0  0
  188.5370  177.6900  144.7320 C   0  0  0  0  0  0  0  0  0  0  0  0
  191.1080  177.0030  145.5390 C   0  0  0  0  0  3  0  0  0  0  0  0
  189.5500  177.5350  142.4380 C   0  0  0  0  0  0  0  0  0  0  0  0
  190.1860  177.4950  139.7440 C   0  0  0  0  0  3  0  0  0  0  0  0
  190.1320  177.2090  146.4680 N   0  0  0  0  0  0  0  0  0  0  0  0
  190.8340  177.2290  142.0340 C   0  0  0  0  0  0  0  0  0  0  0  0
  191.1870  177.1990  140.6880 C   0  0  0  0  0  3  0  0  0  0  0  0
  187.8270  177.7670  147.0580 N   0  0  0  0  0  0  0  0  0  0  0  0
  188.0840  177.6390  148.4830 C   0  0  0  0  0  1  0  0  0  0  0  0
  187.2050  178.0460  144.3370 N   0  0  0  0  0  0  0  0  0  0  0  0
  188.8730  177.8100  140.1600 C   0  0  0  0  0  3  0  0  0  0  0  0
  190.7990  177.1400  144.2270 N   0  0  0  0  0  0  0  0  0  0  0  0
  191.6100  176.9820  143.1580 C   0  0  0  0  0  3  0  0  0  0  0  0
  186.5390  178.1130  146.6150 N   0  0  0  0  0  2  0  0  0  0  0  0
  188.5400  177.8330  141.5260 C   0  0  0  0  0  3  0  0  0  0  0  0
  186.2610  178.2460  145.2130 C   0  0  0  0  0  0  0  0  0  0  0  0
  188.8600  177.5480  146.0910 C   0  0  0  0  0  0  0  0  0  0  0  0
  184.9050  178.6100  144.7870 C   0  0  0  0  0  3  0  0  0  0  0  0
  184.5120  178.5200  143.5210 C   0  0  0  0  0  3  0  0  0  0  0  0
  183.1270  178.9030  143.1180 C   0  0  0  0  0  2  0  0  0  0  0  0
  182.1210  178.6040  144.2230 C   0  0  0  0  0  2  0  0  0  0  0  0
  180.7200  178.7550  143.7330 C   0  0  0  0  0  0  0  0  0  0  0  0
  179.7140  177.9510  144.2510 O   0  0  0  0  0  1  0  0  0  0  0  0
  180.4520  179.5990  142.8390 O   0  0  0  0  0  0  0  0  0  0  0  0
  1 13  1  0  0  0  0
  1  2  1  0  0  0  0
  2 18  2  0  0  0  0
  3  6  2  0  0  0  0
  4  1  2  0  0  0  0
  5 12  1  0  0  0  0
  5  8  2  0  0  0  0
  7  4  1  0  0  0  0
  7 14  2  0  0  0  0
  8  7  1  0  0  0  0
  9 10  1  0  0  0  0
 11  2  1  0  0  0  0
 11 17  2  0  0  0  0
 12 16  2  0  0  0  0
 13  3  1  0  0  0  0
 14 13  1  0  0  0  0
 15  9  1  0  0  0  0
 16  4  1  0  0  0  0
 17 15  1  0  0  0  0
 18  6  1  0  0  0  0
 18  9  1  0  0  0  0
 19 17  1  0  0  0  0
 20 19  2  0  0  0  0
 21 20  1  0  0  0  0
 21 22  1  0  0  0  0
 23 22  1  0  0  0  0
 23 24  1  0  0  0  0
 25 23  2  0  0  0  0
M  END
>  <MODEL>
9

>  <REMARK>
 VINA RESULT:      -8.7      2.692      6.028
  Name = 
  4 active torsions:
  status: ('A' for Active; 'I' for Inactive)
    1  A    between atoms: C_2  and  C_25
    2  A    between atoms: C_6  and  C_23
    3  A    between atoms: C_15  and  C_21
    4  A    between atoms: C_21  and  C_25
                            x       y       z     vdW  Elec       q    Type
                         _______ _______ _______ _____ _____    ______ ____

>  <TORSDO>
F 4

$$$$
