=
 OpenBabel10262419173D

 34 37  0  0  1  0  0  0  0  0999 V2000
  182.1090  174.5530  137.6700 C   0  0  0  0  0  2  0  0  0  0  0  0
  184.4780  174.5190  134.5940 C   0  0  0  0  0  1  0  0  0  0  0  0
  188.9780  179.8650  137.2120 N   0  0  0  0  0  2  0  0  0  0  0  0
  183.7910  176.4160  136.1040 C   0  0  1  0  0  3  0  0  0  0  0  0
  185.4050  176.9650  138.0510 C   0  0  1  0  0  3  0  0  0  0  0  0
  186.0500  177.3710  135.6520 C   0  0  0  0  0  3  0  0  0  0  0  0
  189.5950  178.3420  138.8830 N   0  0  0  0  0  2  0  0  0  0  0  0
  183.3960  175.0340  135.5370 C   0  0  2  0  0  0  0  0  0  0  0  0
  187.1360  178.0260  136.0590 C   0  0  0  0  0  3  0  0  0  0  0  0
  186.8800  177.1350  138.4080 C   0  0  0  0  0  2  0  0  0  0  0  0
  182.7620  176.9280  137.1370 C   0  0  2  0  0  3  0  0  0  0  0  0
  183.1690  174.0370  136.6960 C   0  0  2  0  0  3  0  0  0  0  0  0
  182.2160  175.1780  134.8000 O   0  0  0  0  0  1  0  0  0  0  0  0
  184.6160  178.2440  138.3630 C   0  0  0  0  0  2  0  0  0  0  0  0
  183.2320  178.2800  137.6930 C   0  0  2  0  0  3  0  0  0  0  0  0
  187.5830  177.9700  137.4260 N   0  0  0  0  0  0  0  0  0  0  0  0
  185.2590  176.5040  136.5890 C   0  0  2  0  0  3  0  0  0  0  0  0
  182.5290  175.8970  138.2510 C   0  0  0  0  0  2  0  0  0  0  0  0
  188.7240  178.7530  137.8210 C   0  0  0  0  0  0  0  0  0  0  0  0
  181.1150  179.6490  138.1260 C   0  0  0  0  0  0  0  0  0  0  0  0
  180.4470  180.0400  139.1800 O   0  0  0  0  0  0  0  0  0  0  0  0
  182.2070  178.9410  138.5590 C   0  0  0  0  0  0  0  0  0  0  0  0
  181.0800  179.5860  140.2420 C   0  0  0  0  0  3  0  0  0  0  0  0
  182.1880  178.8860  139.9050 N   0  0  0  0  0  0  0  0  0  0  0  0
  180.7420  179.9630  136.7170 C   0  0  0  0  0  2  0  0  0  0  0  0
  180.6590  181.4640  136.5300 C   0  0  0  0  0  1  0  0  0  0  0  0
  182.8030  172.6610  136.2280 C   0  0  0  0  0  0  0  0  0  0  0  0
  181.5260  172.3920  135.7500 O   0  0  0  0  0  0  0  0  0  0  0  0
  183.6630  171.7440  136.2600 O   0  0  0  0  0  1  0  0  0  0  0  0
  189.6340  177.0000  139.4520 C   0  0  0  0  0  3  0  0  0  0  0  0
  190.7010  176.1450  138.7610 C   0  0  0  0  0  2  0  0  0  0  0  0
  190.1240  175.3080  137.6290 C   0  0  0  0  0  1  0  0  0  0  0  0
  189.8620  177.0850  140.9540 C   0  0  0  0  0  2  0  0  0  0  0  0
  188.7070  177.8070  141.6230 C   0  0  0  0  0  1  0  0  0  0  0  0
  1 18  1  0  0  0  0
  2  8  1  0  0  0  0
  3 19  2  0  0  0  0
  4 17  1  0  0  0  0
  4 11  1  0  0  0  0
  5 14  1  0  0  0  0
  5 10  1  0  0  0  0
  6  9  2  0  0  0  0
  6 17  1  0  0  0  0
  7 30  1  0  0  0  0
  8  4  1  0  0  0  0
  8 12  1  0  0  0  0
  9 16  1  0  0  0  0
 11 15  1  0  0  0  0
 11 18  1  0  0  0  0
 12  1  1  0  0  0  0
 13  8  1  0  0  0  0
 15 14  1  0  0  0  0
 15 22  1  0  0  0  0
 16 19  1  0  0  0  0
 16 10  1  0  0  0  0
 17  5  1  0  0  0  0
 19  7  1  0  0  0  0
 20 22  2  0  0  0  0
 20 21  1  0  0  0  0
 21 23  1  0  0  0  0
 22 24  1  0  0  0  0
 24 23  2  0  0  0  0
 25 20  1  0  0  0  0
 26 25  1  0  0  0  0
 27 29  1  0  0  0  0
 27 12  1  0  0  0  0
 28 27  2  0  0  0  0
 30 33  1  0  0  0  0
 31 30  1  0  0  0  0
 32 31  1  0  0  0  0
 33 34  1  0  0  0  0
M  END
>  <MODEL>
1

>  <REMARK>
 VINA RESULT:      -5.4      0.000      0.000
  Name = 
  6 active torsions:
  status: ('A' for Active; 'I' for Inactive)
    1  A    between atoms: C_6  and  C_24
    2  A    between atoms: C_7  and  C_23
    3  A    between atoms: C_11  and  C_20
    4  A    between atoms: C_12  and  C_28
    5  A    between atoms: N_13  and  C_20
    6  A    between atoms: C_14  and  C_20
                            x       y       z     vdW  Elec       q    Type
                         _______ _______ _______ _____ _____    ______ ____

>  <TORSDO>
F 6

$$$$
=
 OpenBabel10262419173D

 34 37  0  0  1  0  0  0  0  0999 V2000
  185.2610  173.7550  137.0420 C   0  0  0  0  0  2  0  0  0  0  0  0
  186.0570  177.5010  136.3970 C   0  0  0  0  0  1  0  0  0  0  0  0
  180.5670  180.0660  140.7500 N   0  0  0  0  0  2  0  0  0  0  0  0
  183.8570  176.3500  136.8260 C   0  0  1  0  0  3  0  0  0  0  0  0
  183.0200  176.3670  139.2760 C   0  0  1  0  0  3  0  0  0  0  0  0
  183.1480  178.4800  137.9130 C   0  0  0  0  0  3  0  0  0  0  0  0
  181.7530  179.1560  142.5550 N   0  0  0  0  0  2  0  0  0  0  0  0
  185.2990  176.1810  136.2990 C   0  0  2  0  0  0  0  0  0  0  0  0
  182.4890  179.1320  138.8700 C   0  0  0  0  0  3  0  0  0  0  0  0
  182.8690  177.2510  140.5110 C   0  0  0  0  0  2  0  0  0  0  0  0
  183.0870  175.0110  136.8300 C   0  0  2  0  0  3  0  0  0  0  0  0
  186.0250  175.0790  137.1030 C   0  0  2  0  0  3  0  0  0  0  0  0
  185.2380  175.8190  134.9490 O   0  0  0  0  0  1  0  0  0  0  0  0
  181.6610  175.8120  138.8290 C   0  0  0  0  0  2  0  0  0  0  0  0
  181.6810  175.2370  137.4030 C   0  0  2  0  0  3  0  0  0  0  0  0
  182.2930  178.5590  140.1750 N   0  0  0  0  0  0  0  0  0  0  0  0
  183.7590  177.1300  138.1590 C   0  0  2  0  0  3  0  0  0  0  0  0
  183.8550  173.9270  137.6000 C   0  0  0  0  0  2  0  0  0  0  0  0
  181.5150  179.2820  141.1470 C   0  0  0  0  0  0  0  0  0  0  0  0
  180.2450  173.5590  136.1100 C   0  0  0  0  0  0  0  0  0  0  0  0
  179.5680  172.4790  136.4010 O   0  0  0  0  0  0  0  0  0  0  0  0
  180.7990  174.0350  137.2710 C   0  0  0  0  0  0  0  0  0  0  0  0
  179.6960  172.2680  137.6950 C   0  0  0  0  0  3  0  0  0  0  0  0
  180.4630  173.2140  138.2850 N   0  0  0  0  0  0  0  0  0  0  0  0
  180.3510  174.1560  134.7480 C   0  0  0  0  0  2  0  0  0  0  0  0
  179.3340  175.2680  134.5940 C   0  0  0  0  0  1  0  0  0  0  0  0
  187.4440  174.8670  136.6670 C   0  0  0  0  0  0  0  0  0  0  0  0
  187.7500  173.9380  135.6800 O   0  0  0  0  0  0  0  0  0  0  0  0
  188.3640  175.5460  137.1920 O   0  0  0  0  0  1  0  0  0  0  0  0
  182.9510  178.5730  143.1460 C   0  0  0  0  0  3  0  0  0  0  0  0
  184.2030  179.3420  142.7130 C   0  0  0  0  0  2  0  0  0  0  0  0
  185.3320  178.4150  142.2900 C   0  0  0  0  0  1  0  0  0  0  0  0
  182.8100  178.5270  144.6600 C   0  0  0  0  0  2  0  0  0  0  0  0
  184.1080  178.9470  145.3240 C   0  0  0  0  0  1  0  0  0  0  0  0
  1 12  1  0  0  0  0
  1 18  1  0  0  0  0
  3 19  2  0  0  0  0
  4 11  1  0  0  0  0
  4 17  1  0  0  0  0
  5 10  1  0  0  0  0
  6 17  1  0  0  0  0
  6  9  2  0  0  0  0
  7 30  1  0  0  0  0
  8  2  1  0  0  0  0
  8  4  1  0  0  0  0
  8 12  1  0  0  0  0
  9 16  1  0  0  0  0
 11 15  1  0  0  0  0
 11 18  1  0  0  0  0
 13  8  1  0  0  0  0
 14  5  1  0  0  0  0
 15 14  1  0  0  0  0
 16 10  1  0  0  0  0
 16 19  1  0  0  0  0
 17  5  1  0  0  0  0
 19  7  1  0  0  0  0
 20 21  1  0  0  0  0
 20 22  2  0  0  0  0
 21 23  1  0  0  0  0
 22 15  1  0  0  0  0
 22 24  1  0  0  0  0
 23 24  2  0  0  0  0
 25 20  1  0  0  0  0
 26 25  1  0  0  0  0
 27 12  1  0  0  0  0
 27 29  1  0  0  0  0
 28 27  2  0  0  0  0
 30 33  1  0  0  0  0
 31 30  1  0  0  0  0
 32 31  1  0  0  0  0
 33 34  1  0  0  0  0
M  END
>  <MODEL>
2

>  <REMARK>
 VINA RESULT:      -4.9      3.350      5.767
  Name = 
  6 active torsions:
  status: ('A' for Active; 'I' for Inactive)
    1  A    between atoms: C_6  and  C_24
    2  A    between atoms: C_7  and  C_23
    3  A    between atoms: C_11  and  C_20
    4  A    between atoms: C_12  and  C_28
    5  A    between atoms: N_13  and  C_20
    6  A    between atoms: C_14  and  C_20
                            x       y       z     vdW  Elec       q    Type
                         _______ _______ _______ _____ _____    ______ ____

>  <TORSDO>
F 6

$$$$
=
 OpenBabel10262419173D

 34 37  0  0  1  0  0  0  0  0999 V2000
  186.3800  177.8110  143.5880 C   0  0  0  0  0  2  0  0  0  0  0  0
  183.0830  179.7820  144.1580 C   0  0  0  0  0  1  0  0  0  0  0  0
  180.0840  177.8950  137.5910 N   0  0  0  0  0  2  0  0  0  0  0  0
  184.3580  179.3120  142.0350 C   0  0  1  0  0  3  0  0  0  0  0  0
  183.5620  177.2720  140.6550 C   0  0  1  0  0  3  0  0  0  0  0  0
  182.1390  179.3350  140.8970 C   0  0  0  0  0  3  0  0  0  0  0  0
  180.0120  175.6990  138.4050 N   0  0  0  0  0  2  0  0  0  0  0  0
  184.4540  179.4630  143.5700 C   0  0  2  0  0  0  0  0  0  0  0  0
  181.3020  178.8590  139.9760 C   0  0  0  0  0  3  0  0  0  0  0  0
  182.3180  176.5540  140.1390 C   0  0  0  0  0  2  0  0  0  0  0  0
  185.7100  178.8960  141.4140 C   0  0  2  0  0  3  0  0  0  0  0  0
  185.0190  178.1640  144.1890 C   0  0  2  0  0  3  0  0  0  0  0  0
  185.3060  180.5340  143.8580 O   0  0  0  0  0  1  0  0  0  0  0  0
  184.4790  177.6830  139.4950 C   0  0  0  0  0  2  0  0  0  0  0  0
  185.5390  178.7210  139.8980 C   0  0  2  0  0  3  0  0  0  0  0  0
  181.3610  177.4900  139.5360 N   0  0  0  0  0  0  0  0  0  0  0  0
  183.1610  178.4550  141.5570 C   0  0  2  0  0  3  0  0  0  0  0  0
  186.2640  177.6280  142.0800 C   0  0  0  0  0  2  0  0  0  0  0  0
  180.4760  177.0530  138.4900 C   0  0  0  0  0  0  0  0  0  0  0  0
  186.9920  178.1480  137.8710 C   0  0  0  0  0  0  0  0  0  0  0  0
  188.2740  178.0860  137.6210 O   0  0  0  0  0  0  0  0  0  0  0  0
  186.8370  178.5030  139.1880 C   0  0  0  0  0  0  0  0  0  0  0  0
  188.9110  178.4010  138.7300 C   0  0  0  0  0  3  0  0  0  0  0  0
  188.0530  178.6750  139.7400 N   0  0  0  0  0  0  0  0  0  0  0  0
  185.9150  177.8520  136.8840 C   0  0  0  0  0  2  0  0  0  0  0  0
  186.1290  176.4750  136.2890 C   0  0  0  0  0  1  0  0  0  0  0  0
  185.1230  178.2200  145.6840 C   0  0  0  0  0  0  0  0  0  0  0  0
  186.2980  177.8480  146.3270 O   0  0  0  0  0  0  0  0  0  0  0  0
  184.1400  178.6170  146.3610 O   0  0  0  0  0  1  0  0  0  0  0  0
  180.1040  174.7210  139.4830 C   0  0  0  0  0  3  0  0  0  0  0  0
  178.9950  174.9430  140.5160 C   0  0  0  0  0  2  0  0  0  0  0  0
  178.9830  173.8640  141.5890 C   0  0  0  0  0  1  0  0  0  0  0  0
  180.0660  173.3140  138.9060 C   0  0  0  0  0  2  0  0  0  0  0  0
  179.3540  173.3110  137.5660 C   0  0  0  0  0  1  0  0  0  0  0  0
  1 12  1  0  0  0  0
  3 19  2  0  0  0  0
  4  8  1  0  0  0  0
  5 17  1  0  0  0  0
  6 17  1  0  0  0  0
  7 19  1  0  0  0  0
  7 30  1  0  0  0  0
  8 13  1  0  0  0  0
  8  2  1  0  0  0  0
  8 12  1  0  0  0  0
  9  6  2  0  0  0  0
 10  5  1  0  0  0  0
 11  4  1  0  0  0  0
 11 18  1  0  0  0  0
 12 27  1  0  0  0  0
 14 15  1  0  0  0  0
 14  5  1  0  0  0  0
 15 11  1  0  0  0  0
 16  9  1  0  0  0  0
 16 10  1  0  0  0  0
 17  4  1  0  0  0  0
 18  1  1  0  0  0  0
 19 16  1  0  0  0  0
 20 22  2  0  0  0  0
 21 20  1  0  0  0  0
 21 23  1  0  0  0  0
 22 24  1  0  0  0  0
 22 15  1  0  0  0  0
 23 24  2  0  0  0  0
 25 20  1  0  0  0  0
 26 25  1  0  0  0  0
 27 28  2  0  0  0  0
 27 29  1  0  0  0  0
 30 31  1  0  0  0  0
 31 32  1  0  0  0  0
 33 30  1  0  0  0  0
 34 33  1  0  0  0  0
M  END
>  <MODEL>
3

>  <REMARK>
 VINA RESULT:      -4.9      3.940      8.430
  Name = 
  6 active torsions:
  status: ('A' for Active; 'I' for Inactive)
    1  A    between atoms: C_6  and  C_24
    2  A    between atoms: C_7  and  C_23
    3  A    between atoms: C_11  and  C_20
    4  A    between atoms: C_12  and  C_28
    5  A    between atoms: N_13  and  C_20
    6  A    between atoms: C_14  and  C_20
                            x       y       z     vdW  Elec       q    Type
                         _______ _______ _______ _____ _____    ______ ____

>  <TORSDO>
F 6

$$$$
=
 OpenBabel10262419173D

 34 37  0  0  1  0  0  0  0  0999 V2000
  179.5510  176.7360  138.1480 C   0  0  0  0  0  2  0  0  0  0  0  0
  182.8340  174.8970  137.1920 C   0  0  0  0  0  1  0  0  0  0  0  0
  187.2960  179.6600  140.8090 N   0  0  0  0  0  2  0  0  0  0  0  0
  182.3840  177.3490  137.5580 C   0  0  1  0  0  3  0  0  0  0  0  0
  182.9210  178.2660  139.9190 C   0  0  1  0  0  3  0  0  0  0  0  0
  184.7410  177.4890  138.3630 C   0  0  0  0  0  3  0  0  0  0  0  0
  186.3220  178.8640  142.7860 N   0  0  0  0  0  2  0  0  0  0  0  0
  181.7680  175.9870  137.1680 C   0  0  2  0  0  0  0  0  0  0  0  0
  185.6570  177.9850  139.1930 C   0  0  0  0  0  3  0  0  0  0  0  0
  183.9540  178.2250  141.0420 C   0  0  0  0  0  2  0  0  0  0  0  0
  181.3150  178.4620  137.6370 C   0  0  2  0  0  3  0  0  0  0  0  0
  180.6150  175.6370  138.1360 C   0  0  2  0  0  3  0  0  0  0  0  0
  181.2770  176.0810  135.8610 O   0  0  0  0  0  1  0  0  0  0  0  0
  182.7070  179.7030  139.4240 C   0  0  0  0  0  2  0  0  0  0  0  0
  181.9810  179.7750  138.0700 C   0  0  2  0  0  3  0  0  0  0  0  0
  185.3200  178.3970  140.5300 N   0  0  0  0  0  0  0  0  0  0  0  0
  183.3160  177.2910  138.7940 C   0  0  2  0  0  3  0  0  0  0  0  0
  180.1640  178.0650  138.5720 C   0  0  0  0  0  2  0  0  0  0  0  0
  186.3370  178.9890  141.3580 C   0  0  0  0  0  0  0  0  0  0  0  0
  180.5160  181.4800  136.8470 C   0  0  0  0  0  0  0  0  0  0  0  0
  179.7400  182.4740  137.1940 O   0  0  0  0  0  0  0  0  0  0  0  0
  181.0580  180.9500  137.9910 C   0  0  0  0  0  0  0  0  0  0  0  0
  179.7750  182.5640  138.5070 C   0  0  0  0  0  3  0  0  0  0  0  0
  180.5840  181.6270  139.0540 N   0  0  0  0  0  0  0  0  0  0  0  0
  180.7680  181.0460  135.4430 C   0  0  0  0  0  2  0  0  0  0  0  0
  179.5660  180.2900  134.9150 C   0  0  0  0  0  1  0  0  0  0  0  0
  179.9750  174.3150  137.8380 C   0  0  0  0  0  0  0  0  0  0  0  0
  179.0420  174.1930  136.8150 O   0  0  0  0  0  0  0  0  0  0  0  0
  180.2950  173.3030  138.5150 O   0  0  0  0  0  1  0  0  0  0  0  0
  185.5100  177.9060  143.5270 C   0  0  0  0  0  3  0  0  0  0  0  0
  186.3920  176.9770  144.3660 C   0  0  0  0  0  2  0  0  0  0  0  0
  187.8340  177.4550  144.4310 C   0  0  0  0  0  1  0  0  0  0  0  0
  184.4920  178.6470  144.3820 C   0  0  0  0  0  2  0  0  0  0  0  0
  185.0950  179.0040  145.7280 C   0  0  0  0  0  1  0  0  0  0  0  0
  1 18  1  0  0  0  0
  3 19  2  0  0  0  0
  4 11  1  0  0  0  0
  4 17  1  0  0  0  0
  5 10  1  0  0  0  0
  6 17  1  0  0  0  0
  6  9  2  0  0  0  0
  7 30  1  0  0  0  0
  8  2  1  0  0  0  0
  8  4  1  0  0  0  0
  8 12  1  0  0  0  0
  9 16  1  0  0  0  0
 11 15  1  0  0  0  0
 11 18  1  0  0  0  0
 12  1  1  0  0  0  0
 13  8  1  0  0  0  0
 14  5  1  0  0  0  0
 15 14  1  0  0  0  0
 16 10  1  0  0  0  0
 16 19  1  0  0  0  0
 17  5  1  0  0  0  0
 19  7  1  0  0  0  0
 20 21  1  0  0  0  0
 20 22  2  0  0  0  0
 21 23  1  0  0  0  0
 22 15  1  0  0  0  0
 22 24  1  0  0  0  0
 23 24  2  0  0  0  0
 25 20  1  0  0  0  0
 26 25  1  0  0  0  0
 27 12  1  0  0  0  0
 27 29  1  0  0  0  0
 28 27  2  0  0  0  0
 30 31  1  0  0  0  0
 30 33  1  0  0  0  0
 31 32  1  0  0  0  0
 33 34  1  0  0  0  0
M  END
>  <MODEL>
4

>  <REMARK>
 VINA RESULT:      -4.8      2.815      3.903
  Name = 
  6 active torsions:
  status: ('A' for Active; 'I' for Inactive)
    1  A    between atoms: C_6  and  C_24
    2  A    between atoms: C_7  and  C_23
    3  A    between atoms: C_11  and  C_20
    4  A    between atoms: C_12  and  C_28
    5  A    between atoms: N_13  and  C_20
    6  A    between atoms: C_14  and  C_20
                            x       y       z     vdW  Elec       q    Type
                         _______ _______ _______ _____ _____    ______ ____

>  <TORSDO>
F 6

$$$$
=
 OpenBabel10262419173D

 34 37  0  0  1  0  0  0  0  0999 V2000
  187.2520  178.2580  138.8090 C   0  0  0  0  0  2  0  0  0  0  0  0
  184.8480  177.0200  136.0220 C   0  0  0  0  0  1  0  0  0  0  0  0
  178.9310  180.7720  138.5880 N   0  0  0  0  0  2  0  0  0  0  0  0
  184.3950  177.5870  138.4350 C   0  0  1  0  0  3  0  0  0  0  0  0
  183.5300  179.9810  138.9010 C   0  0  1  0  0  3  0  0  0  0  0  0
  182.1290  178.2910  137.6690 C   0  0  0  0  0  3  0  0  0  0  0  0
  180.0910  182.7270  138.0200 N   0  0  0  0  0  2  0  0  0  0  0  0
  185.4600  177.1250  137.4150 C   0  0  2  0  0  0  0  0  0  0  0  0
  181.0830  179.1140  137.7400 C   0  0  0  0  0  3  0  0  0  0  0  0
  182.5600  181.0500  138.4040 C   0  0  0  0  0  2  0  0  0  0  0  0
  185.0000  177.7950  139.8410 C   0  0  2  0  0  3  0  0  0  0  0  0
  186.6460  178.1160  137.4120 C   0  0  2  0  0  3  0  0  0  0  0  0
  185.9070  175.8530  137.7860 O   0  0  0  0  0  1  0  0  0  0  0  0
  183.2300  179.6040  140.3580 C   0  0  0  0  0  2  0  0  0  0  0  0
  183.9050  178.2930  140.7950 C   0  0  2  0  0  3  0  0  0  0  0  0
  181.2310  180.4910  138.1280 N   0  0  0  0  0  0  0  0  0  0  0  0
  183.5240  178.7700  137.9490 C   0  0  2  0  0  3  0  0  0  0  0  0
  186.2020  178.7500  139.7970 C   0  0  0  0  0  2  0  0  0  0  0  0
  180.0560  181.3130  138.2530 C   0  0  0  0  0  0  0  0  0  0  0  0
  183.6120  178.7740  143.2910 C   0  0  0  0  0  0  0  0  0  0  0  0
  184.3410  178.6350  144.3680 O   0  0  0  0  0  0  0  0  0  0  0  0
  184.3550  178.3430  142.2220 C   0  0  0  0  0  0  0  0  0  0  0  0
  185.4970  178.1210  144.0000 C   0  0  0  0  0  3  0  0  0  0  0  0
  185.5530  177.9160  142.6640 N   0  0  0  0  0  0  0  0  0  0  0  0
  182.2310  179.3350  143.2650 C   0  0  0  0  0  2  0  0  0  0  0  0
  181.3270  178.5170  144.1620 C   0  0  0  0  0  1  0  0  0  0  0  0
  187.7170  177.7510  136.4280 C   0  0  0  0  0  0  0  0  0  0  0  0
  188.8030  176.9770  136.8190 O   0  0  0  0  0  1  0  0  0  0  0  0
  187.6260  178.1410  135.2360 O   0  0  0  0  0  0  0  0  0  0  0  0
  181.1770  183.4320  137.3490 C   0  0  0  0  0  3  0  0  0  0  0  0
  181.0850  183.2560  135.8300 C   0  0  0  0  0  2  0  0  0  0  0  0
  180.7710  184.5620  135.1170 C   0  0  0  0  0  1  0  0  0  0  0  0
  181.1650  184.8990  137.7520 C   0  0  0  0  0  2  0  0  0  0  0  0
  179.8160  185.2750  138.3360 C   0  0  0  0  0  1  0  0  0  0  0  0
  1 18  1  0  0  0  0
  2  8  1  0  0  0  0
  4 11  1  0  0  0  0
  5 14  1  0  0  0  0
  6  9  2  0  0  0  0
  6 17  1  0  0  0  0
  7 19  1  0  0  0  0
  8 13  1  0  0  0  0
  8  4  1  0  0  0  0
  9 16  1  0  0  0  0
 10  5  1  0  0  0  0
 11 15  1  0  0  0  0
 12  8  1  0  0  0  0
 12  1  1  0  0  0  0
 14 15  1  0  0  0  0
 15 22  1  0  0  0  0
 16 19  1  0  0  0  0
 16 10  1  0  0  0  0
 17  4  1  0  0  0  0
 17  5  1  0  0  0  0
 18 11  1  0  0  0  0
 19  3  2  0  0  0  0
 20 21  1  0  0  0  0
 22 24  1  0  0  0  0
 22 20  2  0  0  0  0
 23 21  1  0  0  0  0
 24 23  2  0  0  0  0
 25 20  1  0  0  0  0
 25 26  1  0  0  0  0
 27 28  1  0  0  0  0
 27 12  1  0  0  0  0
 29 27  2  0  0  0  0
 30 33  1  0  0  0  0
 30  7  1  0  0  0  0
 31 30  1  0  0  0  0
 32 31  1  0  0  0  0
 33 34  1  0  0  0  0
M  END
>  <MODEL>
5

>  <REMARK>
 VINA RESULT:      -4.6      3.414      7.329
  Name = 
  6 active torsions:
  status: ('A' for Active; 'I' for Inactive)
    1  A    between atoms: C_6  and  C_24
    2  A    between atoms: C_7  and  C_23
    3  A    between atoms: C_11  and  C_20
    4  A    between atoms: C_12  and  C_28
    5  A    between atoms: N_13  and  C_20
    6  A    between atoms: C_14  and  C_20
                            x       y       z     vdW  Elec       q    Type
                         _______ _______ _______ _____ _____    ______ ____

>  <TORSDO>
F 6

$$$$
=
 OpenBabel10262419173D

 34 37  0  0  1  0  0  0  0  0999 V2000
  193.3650  173.0590  136.3980 C   0  0  0  0  0  2  0  0  0  0  0  0
  194.0160  176.8870  136.3680 C   0  0  0  0  0  1  0  0  0  0  0  0
  187.4440  178.6630  139.4220 N   0  0  0  0  0  2  0  0  0  0  0  0
  191.8700  175.5940  136.1020 C   0  0  1  0  0  3  0  0  0  0  0  0
  190.4540  175.2810  138.2460 C   0  0  1  0  0  3  0  0  0  0  0  0
  190.7570  177.5450  137.1870 C   0  0  0  0  0  3  0  0  0  0  0  0
  188.2100  177.6000  141.3650 N   0  0  0  0  0  2  0  0  0  0  0  0
  193.4060  175.5550  135.9450 C   0  0  2  0  0  0  0  0  0  0  0  0
  189.8350  178.0470  138.0070 C   0  0  0  0  0  3  0  0  0  0  0  0
  189.9360  176.0040  139.4870 C   0  0  0  0  0  2  0  0  0  0  0  0
  191.2240  174.2300  135.7710 C   0  0  2  0  0  3  0  0  0  0  0  0
  193.9900  174.3990  136.7890 C   0  0  2  0  0  3  0  0  0  0  0  0
  193.7090  175.3540  134.5940 O   0  0  0  0  0  1  0  0  0  0  0  0
  189.2920  174.7210  137.4130 C   0  0  0  0  0  2  0  0  0  0  0  0
  189.7070  174.3210  135.9880 C   0  0  2  0  0  3  0  0  0  0  0  0
  189.3650  177.3150  139.1530 N   0  0  0  0  0  0  0  0  0  0  0  0
  191.3870  176.2050  137.4400 C   0  0  2  0  0  3  0  0  0  0  0  0
  191.8560  173.0980  136.5950 C   0  0  0  0  0  2  0  0  0  0  0  0
  188.3190  177.8810  139.9630 C   0  0  0  0  0  0  0  0  0  0  0  0
  187.6210  172.9030  135.5600 C   0  0  0  0  0  0  0  0  0  0  0  0
  187.3700  171.7370  135.0220 O   0  0  0  0  0  0  0  0  0  0  0  0
  188.9770  173.1050  135.5120 C   0  0  0  0  0  0  0  0  0  0  0  0
  188.5200  171.2240  134.6340 C   0  0  0  0  0  3  0  0  0  0  0  0
  189.5570  172.0460  134.9150 N   0  0  0  0  0  0  0  0  0  0  0  0
  186.5920  173.8120  136.1410 C   0  0  0  0  0  2  0  0  0  0  0  0
  185.9640  173.1660  137.3590 C   0  0  0  0  0  1  0  0  0  0  0  0
  195.4840  174.3060  136.7080 C   0  0  0  0  0  0  0  0  0  0  0  0
  196.0970  173.6380  135.6550 O   0  0  0  0  0  0  0  0  0  0  0  0
  196.1900  174.8470  137.5990 O   0  0  0  0  0  1  0  0  0  0  0  0
  189.2640  177.0060  142.1780 C   0  0  0  0  0  3  0  0  0  0  0  0
  190.3210  178.0510  142.5500 C   0  0  0  0  0  2  0  0  0  0  0  0
  191.6840  177.4260  142.8070 C   0  0  0  0  0  1  0  0  0  0  0  0
  188.6580  176.3500  143.4090 C   0  0  0  0  0  2  0  0  0  0  0  0
  188.3150  177.3990  144.4510 C   0  0  0  0  0  1  0  0  0  0  0  0
  1 18  1  0  0  0  0
  1 12  1  0  0  0  0
  3 19  2  0  0  0  0
  4 17  1  0  0  0  0
  5 10  1  0  0  0  0
  6 17  1  0  0  0  0
  6  9  2  0  0  0  0
  7 30  1  0  0  0  0
  8  4  1  0  0  0  0
  8  2  1  0  0  0  0
  8 12  1  0  0  0  0
  9 16  1  0  0  0  0
 11 15  1  0  0  0  0
 11  4  1  0  0  0  0
 11 18  1  0  0  0  0
 13  8  1  0  0  0  0
 14  5  1  0  0  0  0
 15 14  1  0  0  0  0
 16 10  1  0  0  0  0
 16 19  1  0  0  0  0
 17  5  1  0  0  0  0
 19  7  1  0  0  0  0
 20 25  1  0  0  0  0
 21 20  1  0  0  0  0
 22 20  2  0  0  0  0
 22 15  1  0  0  0  0
 23 24  2  0  0  0  0
 23 21  1  0  0  0  0
 24 22  1  0  0  0  0
 25 26  1  0  0  0  0
 27 12  1  0  0  0  0
 27 29  1  0  0  0  0
 28 27  2  0  0  0  0
 30 31  1  0  0  0  0
 30 33  1  0  0  0  0
 31 32  1  0  0  0  0
 33 34  1  0  0  0  0
M  END
>  <MODEL>
6

>  <REMARK>
 VINA RESULT:      -4.6      4.844      8.499
  Name = 
  6 active torsions:
  status: ('A' for Active; 'I' for Inactive)
    1  A    between atoms: C_6  and  C_24
    2  A    between atoms: C_7  and  C_23
    3  A    between atoms: C_11  and  C_20
    4  A    between atoms: C_12  and  C_28
    5  A    between atoms: N_13  and  C_20
    6  A    between atoms: C_14  and  C_20
                            x       y       z     vdW  Elec       q    Type
                         _______ _______ _______ _____ _____    ______ ____

>  <TORSDO>
F 6

$$$$
=
 OpenBabel10262419173D

 34 37  0  0  1  0  0  0  0  0999 V2000
  180.3300  174.9040  138.6320 C   0  0  0  0  0  2  0  0  0  0  0  0
  181.5480  173.6160  135.1770 C   0  0  0  0  0  1  0  0  0  0  0  0
  187.1120  178.5530  134.5950 N   0  0  0  0  0  2  0  0  0  0  0  0
  181.5640  175.9400  136.1510 C   0  0  1  0  0  3  0  0  0  0  0  0
  183.7700  176.6860  137.2820 C   0  0  1  0  0  3  0  0  0  0  0  0
  183.6250  176.3100  134.7970 C   0  0  0  0  0  3  0  0  0  0  0  0
  188.1050  177.4470  136.4070 N   0  0  0  0  0  2  0  0  0  0  0  0
  180.8840  174.5530  136.1810 C   0  0  2  0  0  0  0  0  0  0  0  0
  184.8390  176.8410  134.6510 C   0  0  0  0  0  3  0  0  0  0  0  0
  185.2880  176.6730  137.1300 C   0  0  0  0  0  2  0  0  0  0  0  0
  180.9800  176.8880  137.2220 C   0  0  2  0  0  3  0  0  0  0  0  0
  180.9630  173.9610  137.6070 C   0  0  2  0  0  3  0  0  0  0  0  0
  179.5450  174.7070  135.8060 O   0  0  0  0  0  1  0  0  0  0  0  0
  183.2420  178.1230  137.3920 C   0  0  0  0  0  2  0  0  0  0  0  0
  181.7240  178.2300  137.1700 C   0  0  2  0  0  3  0  0  0  0  0  0
  185.7020  177.0720  135.7790 N   0  0  0  0  0  0  0  0  0  0  0  0
  183.1110  175.8850  136.1420 C   0  0  2  0  0  3  0  0  0  0  0  0
  181.0340  176.2540  138.6190 C   0  0  0  0  0  2  0  0  0  0  0  0
  186.9740  177.7110  135.5660 C   0  0  0  0  0  0  0  0  0  0  0  0
  180.2000  180.2290  137.6470 C   0  0  0  0  0  0  0  0  0  0  0  0
  179.8700  180.9300  138.7010 O   0  0  0  0  0  0  0  0  0  0  0  0
  181.1020  179.2740  138.0430 C   0  0  0  0  0  0  0  0  0  0  0  0
  180.5260  180.4330  139.7290 C   0  0  0  0  0  3  0  0  0  0  0  0
  181.3090  179.3900  139.3680 N   0  0  0  0  0  0  0  0  0  0  0  0
  179.6870  180.4710  136.2680 C   0  0  0  0  0  2  0  0  0  0  0  0
  180.3300  181.7160  135.6930 C   0  0  0  0  0  1  0  0  0  0  0  0
  180.3420  172.6010  137.7160 C   0  0  0  0  0  0  0  0  0  0  0  0
  178.9610  172.4500  137.7130 O   0  0  0  0  0  0  0  0  0  0  0  0
  181.0810  171.5860  137.8020 O   0  0  0  0  0  1  0  0  0  0  0  0
  188.2090  176.3230  137.3300 C   0  0  0  0  0  3  0  0  0  0  0  0
  188.7240  175.0720  136.6100 C   0  0  0  0  0  2  0  0  0  0  0  0
  187.7050  173.9430  136.6170 C   0  0  0  0  0  1  0  0  0  0  0  0
  189.0950  176.7030  138.5070 C   0  0  0  0  0  2  0  0  0  0  0  0
  189.1380  178.2110  138.6690 C   0  0  0  0  0  1  0  0  0  0  0  0
  2  8  1  0  0  0  0
  3 19  2  0  0  0  0
  4  8  1  0  0  0  0
  4 11  1  0  0  0  0
  5 14  1  0  0  0  0
  6 17  1  0  0  0  0
  7 30  1  0  0  0  0
  8 12  1  0  0  0  0
  9  6  2  0  0  0  0
  9 16  1  0  0  0  0
 10  5  1  0  0  0  0
 11 18  1  0  0  0  0
 12 27  1  0  0  0  0
 12  1  1  0  0  0  0
 13  8  1  0  0  0  0
 15 11  1  0  0  0  0
 15 14  1  0  0  0  0
 15 22  1  0  0  0  0
 16 10  1  0  0  0  0
 17  4  1  0  0  0  0
 17  5  1  0  0  0  0
 18  1  1  0  0  0  0
 19 16  1  0  0  0  0
 19  7  1  0  0  0  0
 20 22  2  0  0  0  0
 20 21  1  0  0  0  0
 21 23  1  0  0  0  0
 22 24  1  0  0  0  0
 24 23  2  0  0  0  0
 25 20  1  0  0  0  0
 26 25  1  0  0  0  0
 27 29  1  0  0  0  0
 28 27  2  0  0  0  0
 30 33  1  0  0  0  0
 31 32  1  0  0  0  0
 31 30  1  0  0  0  0
 33 34  1  0  0  0  0
M  END
>  <MODEL>
7

>  <REMARK>
 VINA RESULT:      -4.6      1.762      2.404
  Name = 
  6 active torsions:
  status: ('A' for Active; 'I' for Inactive)
    1  A    between atoms: C_6  and  C_24
    2  A    between atoms: C_7  and  C_23
    3  A    between atoms: C_11  and  C_20
    4  A    between atoms: C_12  and  C_28
    5  A    between atoms: N_13  and  C_20
    6  A    between atoms: C_14  and  C_20
                            x       y       z     vdW  Elec       q    Type
                         _______ _______ _______ _____ _____    ______ ____

>  <TORSDO>
F 6

$$$$
=
 OpenBabel10262419173D

 34 37  0  0  1  0  0  0  0  0999 V2000
  180.3280  180.6410  140.4130 C   0  0  0  0  0  2  0  0  0  0  0  0
  181.6950  180.6880  136.7790 C   0  0  0  0  0  1  0  0  0  0  0  0
  184.8100  173.9200  137.1940 N   0  0  0  0  0  2  0  0  0  0  0  0
  182.6310  179.6220  138.8610 C   0  0  1  0  0  3  0  0  0  0  0  0
  182.0630  177.1210  139.2150 C   0  0  1  0  0  3  0  0  0  0  0  0
  183.5670  177.8780  137.3440 C   0  0  0  0  0  3  0  0  0  0  0  0
  182.6310  173.0740  137.3620 N   0  0  0  0  0  2  0  0  0  0  0  0
  181.7330  180.7470  138.3020 C   0  0  2  0  0  0  0  0  0  0  0  0
  183.8780  176.6080  137.0870 C   0  0  0  0  0  3  0  0  0  0  0  0
  181.9580  175.7770  138.5000 C   0  0  0  0  0  2  0  0  0  0  0  0
  182.6190  179.5910  140.4060 C   0  0  2  0  0  3  0  0  0  0  0  0
  180.3060  180.6160  138.8840 C   0  0  2  0  0  3  0  0  0  0  0  0
  182.2830  181.9790  138.6720 O   0  0  0  0  0  1  0  0  0  0  0  0
  183.0600  177.0460  140.3800 C   0  0  0  0  0  2  0  0  0  0  0  0
  183.4930  178.4280  140.8970 C   0  0  2  0  0  3  0  0  0  0  0  0
  183.1320  175.5180  137.6570 N   0  0  0  0  0  0  0  0  0  0  0  0
  182.3930  178.2390  138.2070 C   0  0  2  0  0  3  0  0  0  0  0  0
  181.1860  179.5040  140.9510 C   0  0  0  0  0  2  0  0  0  0  0  0
  183.5570  174.1680  137.3970 C   0  0  0  0  0  0  0  0  0  0  0  0
  184.8820  178.2550  143.0390 C   0  0  0  0  0  0  0  0  0  0  0  0
  184.6490  178.3620  144.3210 O   0  0  0  0  0  0  0  0  0  0  0  0
  183.6920  178.4360  142.3800 C   0  0  0  0  0  0  0  0  0  0  0  0
  183.3650  178.6140  144.4720 C   0  0  0  0  0  3  0  0  0  0  0  0
  182.7230  178.6740  143.2830 N   0  0  0  0  0  0  0  0  0  0  0  0
  186.2130  177.9600  142.4360 C   0  0  0  0  0  2  0  0  0  0  0  0
  187.1990  177.5920  143.5250 C   0  0  0  0  0  1  0  0  0  0  0  0
  179.3620  181.6620  138.3720 C   0  0  0  0  0  0  0  0  0  0  0  0
  178.9370  181.6460  137.0490 O   0  0  0  0  0  0  0  0  0  0  0  0
  178.9430  182.5560  139.1510 O   0  0  0  0  0  1  0  0  0  0  0  0
  181.1830  173.2150  137.2630 C   0  0  0  0  0  3  0  0  0  0  0  0
  180.7620  173.5200  135.8220 C   0  0  0  0  0  2  0  0  0  0  0  0
  180.0210  174.8430  135.7060 C   0  0  0  0  0  1  0  0  0  0  0  0
  180.5060  171.9620  137.7980 C   0  0  0  0  0  2  0  0  0  0  0  0
  179.5150  171.4230  136.7820 C   0  0  0  0  0  1  0  0  0  0  0  0
  1 18  1  0  0  0  0
  2  8  1  0  0  0  0
  3 19  2  0  0  0  0
  4 11  1  0  0  0  0
  5 14  1  0  0  0  0
  6 17  1  0  0  0  0
  7 19  1  0  0  0  0
  8 13  1  0  0  0  0
  8  4  1  0  0  0  0
  8 12  1  0  0  0  0
  9  6  2  0  0  0  0
  9 16  1  0  0  0  0
 10  5  1  0  0  0  0
 11 15  1  0  0  0  0
 11 18  1  0  0  0  0
 12  1  1  0  0  0  0
 14 15  1  0  0  0  0
 15 22  1  0  0  0  0
 16 10  1  0  0  0  0
 17  4  1  0  0  0  0
 17  5  1  0  0  0  0
 19 16  1  0  0  0  0
 20 21  1  0  0  0  0
 21 23  1  0  0  0  0
 22 20  2  0  0  0  0
 22 24  1  0  0  0  0
 24 23  2  0  0  0  0
 25 20  1  0  0  0  0
 25 26  1  0  0  0  0
 27 12  1  0  0  0  0
 27 29  1  0  0  0  0
 28 27  2  0  0  0  0
 30  7  1  0  0  0  0
 30 33  1  0  0  0  0
 31 30  1  0  0  0  0
 32 31  1  0  0  0  0
 34 33  1  0  0  0  0
M  END
>  <MODEL>
8

>  <REMARK>
 VINA RESULT:      -4.6      4.265      7.381
  Name = 
  6 active torsions:
  status: ('A' for Active; 'I' for Inactive)
    1  A    between atoms: C_6  and  C_24
    2  A    between atoms: C_7  and  C_23
    3  A    between atoms: C_11  and  C_20
    4  A    between atoms: C_12  and  C_28
    5  A    between atoms: N_13  and  C_20
    6  A    between atoms: C_14  and  C_20
                            x       y       z     vdW  Elec       q    Type
                         _______ _______ _______ _____ _____    ______ ____

>  <TORSDO>
F 6

$$$$
=
 OpenBabel10262419173D

 34 37  0  0  1  0  0  0  0  0999 V2000
  190.0130  176.1460  142.7160 C   0  0  0  0  0  2  0  0  0  0  0  0
  187.3090  178.8330  141.9780 C   0  0  0  0  0  1  0  0  0  0  0  0
  187.3620  177.7620  134.5940 N   0  0  0  0  0  2  0  0  0  0  0  0
  189.2920  178.0950  140.6100 C   0  0  1  0  0  3  0  0  0  0  0  0
  188.8230  176.3110  138.7930 C   0  0  1  0  0  3  0  0  0  0  0  0
  187.9060  178.6490  138.6120 C   0  0  0  0  0  3  0  0  0  0  0  0
  186.4730  175.6380  135.0290 N   0  0  0  0  0  2  0  0  0  0  0  0
  188.6970  178.2050  142.0310 C   0  0  2  0  0  0  0  0  0  0  0  0
  187.5110  178.3920  137.3650 C   0  0  0  0  0  3  0  0  0  0  0  0
  187.8390  175.9110  137.6960 C   0  0  0  0  0  2  0  0  0  0  0  0
  190.6600  177.3760  140.6140 C   0  0  2  0  0  3  0  0  0  0  0  0
  188.6330  176.8050  142.6830 C   0  0  2  0  0  3  0  0  0  0  0  0
  189.5190  179.0430  142.7920 O   0  0  0  0  0  1  0  0  0  0  0  0
  190.2340  176.5040  138.2210 C   0  0  0  0  0  2  0  0  0  0  0  0
  191.1750  177.2600  139.1730 C   0  0  2  0  0  3  0  0  0  0  0  0
  187.4840  177.0510  136.8430 N   0  0  0  0  0  0  0  0  0  0  0  0
  188.3030  177.5470  139.5520 C   0  0  2  0  0  3  0  0  0  0  0  0
  190.5700  176.0080  141.3060 C   0  0  0  0  0  2  0  0  0  0  0  0
  187.1120  176.8440  135.4690 C   0  0  0  0  0  0  0  0  0  0  0  0
  193.0720  175.8690  138.1660 C   0  0  0  0  0  0  0  0  0  0  0  0
  194.3440  175.6920  138.4150 O   0  0  0  0  0  0  0  0  0  0  0  0
  192.5790  176.7470  139.0970 C   0  0  0  0  0  0  0  0  0  0  0  0
  194.6510  176.4390  139.4550 C   0  0  0  0  0  3  0  0  0  0  0  0
  193.5790  177.1240  139.9160 N   0  0  0  0  0  0  0  0  0  0  0  0
  192.3170  175.1950  137.0710 C   0  0  0  0  0  2  0  0  0  0  0  0
  192.9630  173.8640  136.7450 C   0  0  0  0  0  1  0  0  0  0  0  0
  188.0440  176.8220  144.0620 C   0  0  0  0  0  0  0  0  0  0  0  0
  188.8600  176.9580  145.1780 O   0  0  0  0  0  1  0  0  0  0  0  0
  186.7990  176.7220  144.2070 O   0  0  0  0  0  0  0  0  0  0  0  0
  185.8540  174.6570  135.9130 C   0  0  0  0  0  3  0  0  0  0  0  0
  184.3610  174.9490  136.0910 C   0  0  0  0  0  2  0  0  0  0  0  0
  184.0510  175.5560  137.4510 C   0  0  0  0  0  1  0  0  0  0  0  0
  186.0960  173.2540  135.3750 C   0  0  0  0  0  2  0  0  0  0  0  0
  186.1430  172.2530  136.5150 C   0  0  0  0  0  1  0  0  0  0  0  0
  2  8  1  0  0  0  0
  3 19  2  0  0  0  0
  4 11  1  0  0  0  0
  4  8  1  0  0  0  0
  5 17  1  0  0  0  0
  6 17  1  0  0  0  0
  7 19  1  0  0  0  0
  7 30  1  0  0  0  0
  8 12  1  0  0  0  0
  8 13  1  0  0  0  0
  9  6  2  0  0  0  0
 10  5  1  0  0  0  0
 11 18  1  0  0  0  0
 12  1  1  0  0  0  0
 12 27  1  0  0  0  0
 14  5  1  0  0  0  0
 14 15  1  0  0  0  0
 15 11  1  0  0  0  0
 16  9  1  0  0  0  0
 16 10  1  0  0  0  0
 17  4  1  0  0  0  0
 18  1  1  0  0  0  0
 19 16  1  0  0  0  0
 20 21  1  0  0  0  0
 20 22  2  0  0  0  0
 21 23  1  0  0  0  0
 22 15  1  0  0  0  0
 22 24  1  0  0  0  0
 23 24  2  0  0  0  0
 25 20  1  0  0  0  0
 26 25  1  0  0  0  0
 27 29  2  0  0  0  0
 27 28  1  0  0  0  0
 30 31  1  0  0  0  0
 31 32  1  0  0  0  0
 33 30  1  0  0  0  0
 33 34  1  0  0  0  0
M  END
>  <MODEL>
9

>  <REMARK>
 VINA RESULT:      -4.4      4.486      8.837
  Name = 
  6 active torsions:
  status: ('A' for Active; 'I' for Inactive)
    1  A    between atoms: C_6  and  C_24
    2  A    between atoms: C_7  and  C_23
    3  A    between atoms: C_11  and  C_20
    4  A    between atoms: C_12  and  C_28
    5  A    between atoms: N_13  and  C_20
    6  A    between atoms: C_14  and  C_20
                            x       y       z     vdW  Elec       q    Type
                         _______ _______ _______ _____ _____    ______ ____

>  <TORSDO>
F 6

$$$$
