=
 OpenBabel10262420133D

 27 30  0  0  1  0  0  0  0  0999 V2000
  187.4980  177.6010  142.2400 C   0  0  2  0  0  3  0  0  0  0  0  0
  187.3380  177.1500  143.6740 C   0  0  0  0  0  2  0  0  0  0  0  0
  189.4550  178.2390  143.4800 N   0  0  1  0  0  0  0  0  0  0  0  0
  190.8500  177.9910  143.4980 N   0  0  0  0  0  2  0  0  0  0  0  0
  188.8550  178.2920  142.1250 C   0  0  1  0  0  3  0  0  0  0  0  0
  188.7470  177.1920  144.2160 C   0  0  1  0  0  3  0  0  0  0  0  0
  190.6830  176.8770  141.3640 N   0  0  0  0  0  0  0  0  0  0  0  0
  189.6610  177.6020  141.0420 C   0  0  0  0  0  0  0  0  0  0  0  0
  191.1450  176.8890  142.6810 N   0  0  0  0  0  2  0  0  0  0  0  0
  189.7910  177.3760  147.9130 C   0  0  0  0  0  3  0  0  0  0  0  0
  188.6360  177.9320  148.4650 C   0  0  0  0  0  3  0  0  0  0  0  0
  187.6070  177.9560  146.2790 C   0  0  0  0  0  3  0  0  0  0  0  0
  188.7570  177.3910  145.7100 C   0  0  0  0  0  0  0  0  0  0  0  0
  187.5440  178.2220  147.6480 C   0  0  0  0  0  3  0  0  0  0  0  0
  189.8680  177.1020  146.5360 C   0  0  0  0  0  0  0  0  0  0  0  0
  192.0480  175.9510  146.7900 C   0  0  0  0  0  1  0  0  0  0  0  0
  191.0280  176.5420  145.9920 O   0  0  0  0  0  0  0  0  0  0  0  0
  189.2560  177.6900  139.6280 C   0  0  0  0  0  0  0  0  0  0  0  0
  189.2710  176.6600  138.9000 O   0  0  0  0  0  0  0  0  0  0  0  0
  188.8630  178.9360  139.0610 N   0  0  0  0  0  1  0  0  0  0  0  0
  186.3520  178.3770  141.7330 N   0  0  0  0  0  2  0  0  0  0  0  0
  182.5530  178.8350  143.6500 C   0  0  0  0  0  2  0  0  0  0  0  0
  185.1060  178.2800  142.5100 C   0  0  1  0  0  3  0  0  0  0  0  0
  184.9650  179.3180  143.6030 C   0  0  0  0  0  3  0  0  0  0  0  0
  183.7670  179.5690  144.1440 C   0  0  0  0  0  3  0  0  0  0  0  0
  182.5990  178.7680  142.1240 C   0  0  0  0  0  2  0  0  0  0  0  0
  183.8520  178.0140  141.6460 C   0  0  0  0  0  2  0  0  0  0  0  0
  1 21  1  1  0  0  0
  1  2  1  0  0  0  0
  2  6  1  0  0  0  0
  3  4  1  6  0  0  0
  3  6  1  0  0  0  0
  5  8  1  6  0  0  0
  5  1  1  0  0  0  0
  5  3  1  0  0  0  0
  6 13  1  1  0  0  0
  7  9  1  0  0  0  0
  8  7  2  0  0  0  0
  9  4  1  0  0  0  0
 10 11  1  0  0  0  0
 12 14  1  0  0  0  0
 13 12  2  0  0  0  0
 13 15  1  0  0  0  0
 14 11  2  0  0  0  0
 15 10  2  0  0  0  0
 17 15  1  0  0  0  0
 17 16  1  0  0  0  0
 18  8  1  0  0  0  0
 19 18  2  0  0  0  0
 20 18  1  0  0  0  0
 22 25  1  0  0  0  0
 23 21  1  6  0  0  0
 23 24  1  0  0  0  0
 24 25  2  0  0  0  0
 26 22  1  0  0  0  0
 27 26  1  0  0  0  0
 27 23  1  0  0  0  0
M  END
>  <MODEL>
1

>  <REMARK>
 VINA RESULT:      -9.6      0.000      0.000
  Name = 
  5 active torsions:
  status: ('A' for Active; 'I' for Inactive)
    1  A    between atoms: C_1  and  N_15
    2  A    between atoms: C_9  and  N_15
    3  A    between atoms: C_10  and  C_24
    4  A    between atoms: C_14  and  C_19
    5  A    between atoms: C_17  and  O_21
                            x       y       z     vdW  Elec       q    Type
                         _______ _______ _______ _____ _____    ______ ____

>  <TORSDO>
F 5

$$$$
=
 OpenBabel10262420133D

 27 30  0  0  1  0  0  0  0  0999 V2000
  186.9900  178.1440  141.8800 C   0  0  2  0  0  3  0  0  0  0  0  0
  186.7760  177.6230  143.2830 C   0  0  0  0  0  2  0  0  0  0  0  0
  189.0480  178.3370  143.1060 N   0  0  1  0  0  0  0  0  0  0  0  0
  190.3780  177.8490  143.0670 N   0  0  0  0  0  2  0  0  0  0  0  0
  188.4460  178.5960  141.7760 C   0  0  1  0  0  3  0  0  0  0  0  0
  188.1790  177.3780  143.7850 C   0  0  1  0  0  3  0  0  0  0  0  0
  189.9840  176.9450  140.8650 N   0  0  0  0  0  0  0  0  0  0  0  0
  189.1000  177.8580  140.6240 C   0  0  0  0  0  0  0  0  0  0  0  0
  190.4620  176.7770  142.1650 N   0  0  0  0  0  2  0  0  0  0  0  0
  189.3510  177.2290  147.4450 C   0  0  0  0  0  3  0  0  0  0  0  0
  188.2420  177.7890  148.0800 C   0  0  0  0  0  3  0  0  0  0  0  0
  187.1440  178.0270  145.9410 C   0  0  0  0  0  3  0  0  0  0  0  0
  188.2470  177.4600  145.2890 C   0  0  0  0  0  0  0  0  0  0  0  0
  187.1380  178.1880  147.3280 C   0  0  0  0  0  3  0  0  0  0  0  0
  189.3700  177.0600  146.0500 C   0  0  0  0  0  0  0  0  0  0  0  0
  191.7660  176.4280  146.0390 C   0  0  0  0  0  1  0  0  0  0  0  0
  190.4850  176.4940  145.4230 O   0  0  0  0  0  0  0  0  0  0  0  0
  188.6950  178.1210  139.2320 C   0  0  0  0  0  0  0  0  0  0  0  0
  189.0000  179.2120  138.6790 O   0  0  0  0  0  0  0  0  0  0  0  0
  187.9380  177.1600  138.5020 N   0  0  0  0  0  1  0  0  0  0  0  0
  185.9900  179.1440  141.4630 N   0  0  0  0  0  2  0  0  0  0  0  0
  182.1640  178.3920  139.7030 C   0  0  0  0  0  2  0  0  0  0  0  0
  184.7770  178.6210  140.8160 C   0  0  1  0  0  3  0  0  0  0  0  0
  183.5640  178.5510  141.7180 C   0  0  0  0  0  3  0  0  0  0  0  0
  182.3380  178.4330  141.1940 C   0  0  0  0  0  3  0  0  0  0  0  0
  183.0660  179.4470  139.0660 C   0  0  0  0  0  2  0  0  0  0  0  0
  184.5450  179.1710  139.3900 C   0  0  0  0  0  2  0  0  0  0  0  0
  1 21  1  1  0  0  0
  1  2  1  0  0  0  0
  2  6  1  0  0  0  0
  3  4  1  6  0  0  0
  3  6  1  0  0  0  0
  5  8  1  6  0  0  0
  5  1  1  0  0  0  0
  5  3  1  0  0  0  0
  6 13  1  1  0  0  0
  7  9  1  0  0  0  0
  8  7  2  0  0  0  0
  9  4  1  0  0  0  0
 10 11  1  0  0  0  0
 12 14  1  0  0  0  0
 13 12  2  0  0  0  0
 13 15  1  0  0  0  0
 14 11  2  0  0  0  0
 15 10  2  0  0  0  0
 17 16  1  0  0  0  0
 17 15  1  0  0  0  0
 18  8  1  0  0  0  0
 19 18  2  0  0  0  0
 20 18  1  0  0  0  0
 22 25  1  0  0  0  0
 23 21  1  1  0  0  0
 23 24  1  0  0  0  0
 25 24  2  0  0  0  0
 26 27  1  0  0  0  0
 26 22  1  0  0  0  0
 27 23  1  0  0  0  0
M  END
>  <MODEL>
2

>  <REMARK>
 VINA RESULT:      -8.8      1.319      1.671
  Name = 
  5 active torsions:
  status: ('A' for Active; 'I' for Inactive)
    1  A    between atoms: C_1  and  N_15
    2  A    between atoms: C_9  and  N_15
    3  A    between atoms: C_10  and  C_24
    4  A    between atoms: C_14  and  C_19
    5  A    between atoms: C_17  and  O_21
                            x       y       z     vdW  Elec       q    Type
                         _______ _______ _______ _____ _____    ______ ____

>  <TORSDO>
F 5

$$$$
=
 OpenBabel10262420133D

 27 30  0  0  1  0  0  0  0  0999 V2000
  187.4150  177.8270  142.1030 C   0  0  2  0  0  3  0  0  0  0  0  0
  187.3840  177.3500  143.5370 C   0  0  0  0  0  2  0  0  0  0  0  0
  189.5750  178.1930  143.0930 N   0  0  1  0  0  0  0  0  0  0  0  0
  190.9210  177.7850  142.9260 N   0  0  0  0  0  2  0  0  0  0  0  0
  188.8200  178.3600  141.8270 C   0  0  1  0  0  3  0  0  0  0  0  0
  188.8460  177.2110  143.8940 C   0  0  1  0  0  3  0  0  0  0  0  0
  190.3560  176.7700  140.8110 N   0  0  0  0  0  0  0  0  0  0  0  0
  189.3950  177.6180  140.6370 C   0  0  0  0  0  0  0  0  0  0  0  0
  190.9790  176.6840  142.0570 N   0  0  0  0  0  2  0  0  0  0  0  0
  188.3790  177.8780  147.6520 C   0  0  0  0  0  3  0  0  0  0  0  0
  189.6210  177.4590  148.1310 C   0  0  0  0  0  3  0  0  0  0  0  0
  190.3080  176.9340  145.8750 C   0  0  0  0  0  3  0  0  0  0  0  0
  189.0670  177.3580  145.3770 C   0  0  0  0  0  0  0  0  0  0  0  0
  190.5860  176.9870  147.2420 C   0  0  0  0  0  3  0  0  0  0  0  0
  188.0860  177.8310  146.2790 C   0  0  0  0  0  0  0  0  0  0  0  0
  185.8330  178.7880  146.6620 C   0  0  0  0  0  1  0  0  0  0  0  0
  186.8390  178.2560  145.8080 O   0  0  0  0  0  0  0  0  0  0  0  0
  188.8280  177.7990  139.2880 C   0  0  0  0  0  0  0  0  0  0  0  0
  188.3460  176.8140  138.6670 O   0  0  0  0  0  0  0  0  0  0  0  0
  188.8370  179.0790  138.6630 N   0  0  0  0  0  1  0  0  0  0  0  0
  186.3150  178.7470  141.7630 N   0  0  0  0  0  2  0  0  0  0  0  0
  182.3520  178.7660  143.3780 C   0  0  0  0  0  2  0  0  0  0  0  0
  185.0350  178.5130  142.4500 C   0  0  1  0  0  3  0  0  0  0  0  0
  184.6800  179.5550  143.4880 C   0  0  0  0  0  3  0  0  0  0  0  0
  183.4210  179.6650  143.9300 C   0  0  0  0  0  3  0  0  0  0  0  0
  182.5240  178.6610  141.8630 C   0  0  0  0  0  2  0  0  0  0  0  0
  183.8950  178.0620  141.5080 C   0  0  0  0  0  2  0  0  0  0  0  0
  1 21  1  1  0  0  0
  1  2  1  0  0  0  0
  2  6  1  0  0  0  0
  3  4  1  6  0  0  0
  3  6  1  0  0  0  0
  5  8  1  6  0  0  0
  5  1  1  0  0  0  0
  5  3  1  0  0  0  0
  6 13  1  1  0  0  0
  7  9  1  0  0  0  0
  8  7  2  0  0  0  0
  9  4  1  0  0  0  0
 10 11  1  0  0  0  0
 12 14  1  0  0  0  0
 13 12  2  0  0  0  0
 13 15  1  0  0  0  0
 14 11  2  0  0  0  0
 15 10  2  0  0  0  0
 17 15  1  0  0  0  0
 17 16  1  0  0  0  0
 18  8  1  0  0  0  0
 19 18  2  0  0  0  0
 20 18  1  0  0  0  0
 22 25  1  0  0  0  0
 23 21  1  6  0  0  0
 23 24  1  0  0  0  0
 24 25  2  0  0  0  0
 26 22  1  0  0  0  0
 27 26  1  0  0  0  0
 27 23  1  0  0  0  0
M  END
>  <MODEL>
3

>  <REMARK>
 VINA RESULT:      -8.7      1.083      1.909
  Name = 
  5 active torsions:
  status: ('A' for Active; 'I' for Inactive)
    1  A    between atoms: C_1  and  N_15
    2  A    between atoms: C_9  and  N_15
    3  A    between atoms: C_10  and  C_24
    4  A    between atoms: C_14  and  C_19
    5  A    between atoms: C_17  and  O_21
                            x       y       z     vdW  Elec       q    Type
                         _______ _______ _______ _____ _____    ______ ____

>  <TORSDO>
F 5

$$$$
=
 OpenBabel10262420133D

 27 30  0  0  1  0  0  0  0  0999 V2000
  187.1740  178.0210  142.0000 C   0  0  2  0  0  3  0  0  0  0  0  0
  186.9320  177.6130  143.4350 C   0  0  0  0  0  2  0  0  0  0  0  0
  189.2540  178.1260  143.2020 N   0  0  1  0  0  0  0  0  0  0  0  0
  190.5380  177.5300  143.1890 N   0  0  0  0  0  2  0  0  0  0  0  0
  188.6610  178.3440  141.8600 C   0  0  1  0  0  3  0  0  0  0  0  0
  188.3160  177.2880  143.9470 C   0  0  1  0  0  3  0  0  0  0  0  0
  190.0510  176.5160  141.0540 N   0  0  0  0  0  0  0  0  0  0  0  0
  189.2420  177.4810  140.7570 C   0  0  0  0  0  0  0  0  0  0  0  0
  190.5260  176.3970  142.3600 N   0  0  0  0  0  2  0  0  0  0  0  0
  187.5220  178.0370  147.6350 C   0  0  0  0  0  3  0  0  0  0  0  0
  188.7120  177.6170  148.2310 C   0  0  0  0  0  3  0  0  0  0  0  0
  189.5920  177.0400  146.0560 C   0  0  0  0  0  3  0  0  0  0  0  0
  188.4060  177.4640  145.4410 C   0  0  0  0  0  0  0  0  0  0  0  0
  189.7480  177.1190  147.4410 C   0  0  0  0  0  3  0  0  0  0  0  0
  187.3520  177.9640  146.2420 C   0  0  0  0  0  0  0  0  0  0  0  0
  184.9440  178.5290  146.3840 C   0  0  0  0  0  1  0  0  0  0  0  0
  186.1570  178.3890  145.6530 O   0  0  0  0  0  0  0  0  0  0  0  0
  188.8460  177.6830  139.3520 C   0  0  0  0  0  0  0  0  0  0  0  0
  188.4700  176.7030  138.6530 O   0  0  0  0  0  0  0  0  0  0  0  0
  188.9000  178.9780  138.7610 N   0  0  0  0  0  1  0  0  0  0  0  0
  186.2550  179.0700  141.5210 N   0  0  0  0  0  2  0  0  0  0  0  0
  182.3020  178.5140  139.9830 C   0  0  0  0  0  2  0  0  0  0  0  0
  184.9800  178.6070  140.9540 C   0  0  1  0  0  3  0  0  0  0  0  0
  183.8140  178.6380  141.9180 C   0  0  0  0  0  3  0  0  0  0  0  0
  182.5570  178.5840  141.4610 C   0  0  0  0  0  3  0  0  0  0  0  0
  183.2330  179.4920  139.2690 C   0  0  0  0  0  2  0  0  0  0  0  0
  184.7060  179.1320  139.5250 C   0  0  0  0  0  2  0  0  0  0  0  0
  1 21  1  1  0  0  0
  1  2  1  0  0  0  0
  2  6  1  0  0  0  0
  3  4  1  6  0  0  0
  3  6  1  0  0  0  0
  5  8  1  6  0  0  0
  5  1  1  0  0  0  0
  5  3  1  0  0  0  0
  6 13  1  1  0  0  0
  7  9  1  0  0  0  0
  8  7  2  0  0  0  0
  9  4  1  0  0  0  0
 10 11  1  0  0  0  0
 12 14  1  0  0  0  0
 13 12  2  0  0  0  0
 13 15  1  0  0  0  0
 14 11  2  0  0  0  0
 15 10  2  0  0  0  0
 17 15  1  0  0  0  0
 17 16  1  0  0  0  0
 18  8  1  0  0  0  0
 19 18  2  0  0  0  0
 20 18  1  0  0  0  0
 22 25  1  0  0  0  0
 23 21  1  1  0  0  0
 23 24  1  0  0  0  0
 25 24  2  0  0  0  0
 26 27  1  0  0  0  0
 26 22  1  0  0  0  0
 27 23  1  0  0  0  0
M  END
>  <MODEL>
4

>  <REMARK>
 VINA RESULT:      -8.4      1.529      2.431
  Name = 
  5 active torsions:
  status: ('A' for Active; 'I' for Inactive)
    1  A    between atoms: C_1  and  N_15
    2  A    between atoms: C_9  and  N_15
    3  A    between atoms: C_10  and  C_24
    4  A    between atoms: C_14  and  C_19
    5  A    between atoms: C_17  and  O_21
                            x       y       z     vdW  Elec       q    Type
                         _______ _______ _______ _____ _____    ______ ____

>  <TORSDO>
F 5

$$$$
=
 OpenBabel10262420133D

 27 30  0  0  1  0  0  0  0  0999 V2000
  187.9010  177.5810  142.2690 C   0  0  2  0  0  3  0  0  0  0  0  0
  189.0250  176.7250  141.7310 C   0  0  0  0  0  2  0  0  0  0  0  0
  188.7270  178.5650  140.2370 N   0  0  1  0  0  0  0  0  0  0  0  0
  188.2750  178.8900  138.9340 N   0  0  0  0  0  2  0  0  0  0  0  0
  187.7160  178.7520  141.3060 C   0  0  1  0  0  3  0  0  0  0  0  0
  189.1450  177.1650  140.2910 C   0  0  1  0  0  3  0  0  0  0  0  0
  186.0020  178.4410  139.6070 N   0  0  0  0  0  0  0  0  0  0  0  0
  186.2770  178.7640  140.8290 C   0  0  0  0  0  0  0  0  0  0  0  0
  187.0410  178.2670  138.6920 N   0  0  0  0  0  2  0  0  0  0  0  0
  192.1390  176.1570  138.0980 C   0  0  0  0  0  3  0  0  0  0  0  0
  193.1860  176.6750  138.8610 C   0  0  0  0  0  3  0  0  0  0  0  0
  191.5970  177.4490  140.5080 C   0  0  0  0  0  3  0  0  0  0  0  0
  190.5340  176.9280  139.7560 C   0  0  0  0  0  0  0  0  0  0  0  0
  192.9150  177.3210  140.0660 C   0  0  0  0  0  3  0  0  0  0  0  0
  190.8080  176.2780  138.5300 C   0  0  0  0  0  0  0  0  0  0  0  0
  189.3850  176.2990  136.5020 C   0  0  0  0  0  1  0  0  0  0  0  0
  189.7650  175.7530  137.7600 O   0  0  0  0  0  0  0  0  0  0  0  0
  185.1760  179.0750  141.7590 C   0  0  0  0  0  0  0  0  0  0  0  0
  185.3290  179.9540  142.6490 O   0  0  0  0  0  0  0  0  0  0  0  0
  183.9380  178.3750  141.6780 N   0  0  0  0  0  1  0  0  0  0  0  0
  188.0680  177.9520  143.6860 N   0  0  0  0  0  2  0  0  0  0  0  0
  191.3640  176.8110  146.1650 C   0  0  0  0  0  2  0  0  0  0  0  0
  189.1830  177.3090  144.3990 C   0  0  1  0  0  3  0  0  0  0  0  0
  190.5380  177.9280  144.1350 C   0  0  0  0  0  3  0  0  0  0  0  0
  191.5640  177.6840  144.9600 C   0  0  0  0  0  3  0  0  0  0  0  0
  190.0400  177.1800  146.8330 C   0  0  0  0  0  2  0  0  0  0  0  0
  188.8600  176.9580  145.8700 C   0  0  0  0  0  2  0  0  0  0  0  0
  1 21  1  1  0  0  0
  2  1  1  0  0  0  0
  3  4  1  6  0  0  0
  3  6  1  0  0  0  0
  3  5  1  0  0  0  0
  5  8  1  6  0  0  0
  5  1  1  0  0  0  0
  6 13  1  1  0  0  0
  6  2  1  0  0  0  0
  7  8  2  0  0  0  0
  8 18  1  0  0  0  0
  9  4  1  0  0  0  0
  9  7  1  0  0  0  0
 10 15  2  0  0  0  0
 10 11  1  0  0  0  0
 11 14  2  0  0  0  0
 13 12  2  0  0  0  0
 14 12  1  0  0  0  0
 15 13  1  0  0  0  0
 16 17  1  0  0  0  0
 17 15  1  0  0  0  0
 18 19  2  0  0  0  0
 20 18  1  0  0  0  0
 22 26  1  0  0  0  0
 23 21  1  1  0  0  0
 23 27  1  0  0  0  0
 24 23  1  0  0  0  0
 24 25  2  0  0  0  0
 25 22  1  0  0  0  0
 27 26  1  0  0  0  0
M  END
>  <MODEL>
5

>  <REMARK>
 VINA RESULT:      -8.3      2.346      6.707
  Name = 
  5 active torsions:
  status: ('A' for Active; 'I' for Inactive)
    1  A    between atoms: C_1  and  N_15
    2  A    between atoms: C_9  and  N_15
    3  A    between atoms: C_10  and  C_24
    4  A    between atoms: C_14  and  C_19
    5  A    between atoms: C_17  and  O_21
                            x       y       z     vdW  Elec       q    Type
                         _______ _______ _______ _____ _____    ______ ____

>  <TORSDO>
F 5

$$$$
=
 OpenBabel10262420133D

 27 30  0  0  1  0  0  0  0  0999 V2000
  188.0480  178.0420  141.9640 C   0  0  2  0  0  3  0  0  0  0  0  0
  189.2620  178.1270  142.8600 C   0  0  0  0  0  2  0  0  0  0  0  0
  187.4970  177.1170  144.1130 N   0  0  1  0  0  0  0  0  0  0  0  0
  186.6120  177.3520  145.1940 N   0  0  0  0  0  2  0  0  0  0  0  0
  186.9240  177.3980  142.7740 C   0  0  1  0  0  3  0  0  0  0  0  0
  188.6890  177.9530  144.2470 C   0  0  1  0  0  3  0  0  0  0  0  0
  185.3990  178.9540  143.8580 N   0  0  0  0  0  0  0  0  0  0  0  0
  185.7300  178.3320  142.7730 C   0  0  0  0  0  0  0  0  0  0  0  0
  186.0250  178.6200  145.0590 N   0  0  0  0  0  2  0  0  0  0  0  0
  190.5780  176.8380  147.4060 C   0  0  0  0  0  3  0  0  0  0  0  0
  191.6730  176.2000  146.8240 C   0  0  0  0  0  3  0  0  0  0  0  0
  190.8180  176.7440  144.6310 C   0  0  0  0  0  3  0  0  0  0  0  0
  189.7140  177.3940  145.2010 C   0  0  0  0  0  0  0  0  0  0  0  0
  191.7930  176.1530  145.4350 C   0  0  0  0  0  3  0  0  0  0  0  0
  189.5880  177.4380  146.6090 C   0  0  0  0  0  0  0  0  0  0  0  0
  188.3640  178.2340  148.6100 C   0  0  0  0  0  1  0  0  0  0  0  0
  188.4950  178.0780  147.2020 O   0  0  0  0  0  0  0  0  0  0  0  0
  184.9770  178.5930  141.5330 C   0  0  0  0  0  0  0  0  0  0  0  0
  185.2200  179.6250  140.8510 O   0  0  0  0  0  0  0  0  0  0  0  0
  183.9560  177.6990  141.1020 N   0  0  0  0  0  1  0  0  0  0  0  0
  188.3210  177.4140  140.6580 N   0  0  0  0  0  2  0  0  0  0  0  0
  187.7830  179.1390  136.7800 C   0  0  0  0  0  2  0  0  0  0  0  0
  188.0370  178.2340  139.4700 C   0  0  1  0  0  3  0  0  0  0  0  0
  189.2620  178.6440  138.6830 C   0  0  0  0  0  3  0  0  0  0  0  0
  189.1400  179.0790  137.4230 C   0  0  0  0  0  3  0  0  0  0  0  0
  187.0110  177.8680  137.1280 C   0  0  0  0  0  2  0  0  0  0  0  0
  186.8230  177.7400  138.6490 C   0  0  0  0  0  2  0  0  0  0  0  0
  1 21  1  6  0  0  0
  1  5  1  0  0  0  0
  1  2  1  0  0  0  0
  2  6  1  0  0  0  0
  3  6  1  0  0  0  0
  3  4  1  1  0  0  0
  5  8  1  1  0  0  0
  5  3  1  0  0  0  0
  6 13  1  1  0  0  0
  7  9  1  0  0  0  0
  8  7  2  0  0  0  0
  9  4  1  0  0  0  0
 11 10  1  0  0  0  0
 12 13  2  0  0  0  0
 12 14  1  0  0  0  0
 13 15  1  0  0  0  0
 14 11  2  0  0  0  0
 15 17  1  0  0  0  0
 15 10  2  0  0  0  0
 17 16  1  0  0  0  0
 18  8  1  0  0  0  0
 19 18  2  0  0  0  0
 20 18  1  0  0  0  0
 22 26  1  0  0  0  0
 22 25  1  0  0  0  0
 23 21  1  1  0  0  0
 24 23  1  0  0  0  0
 25 24  2  0  0  0  0
 26 27  1  0  0  0  0
 27 23  1  0  0  0  0
M  END
>  <MODEL>
6

>  <REMARK>
 VINA RESULT:      -8.3      2.276      4.645
  Name = 
  5 active torsions:
  status: ('A' for Active; 'I' for Inactive)
    1  A    between atoms: C_1  and  N_15
    2  A    between atoms: C_9  and  N_15
    3  A    between atoms: C_10  and  C_24
    4  A    between atoms: C_14  and  C_19
    5  A    between atoms: C_17  and  O_21
                            x       y       z     vdW  Elec       q    Type
                         _______ _______ _______ _____ _____    ______ ____

>  <TORSDO>
F 5

$$$$
=
 OpenBabel10262420133D

 27 30  0  0  1  0  0  0  0  0999 V2000
  188.4680  177.7220  141.4560 C   0  0  2  0  0  3  0  0  0  0  0  0
  187.3700  177.5350  142.4780 C   0  0  0  0  0  2  0  0  0  0  0  0
  189.3640  178.1410  143.6460 N   0  0  1  0  0  0  0  0  0  0  0  0
  190.3490  177.6270  144.5260 N   0  0  0  0  0  2  0  0  0  0  0  0
  189.7390  178.1050  142.2120 C   0  0  1  0  0  3  0  0  0  0  0  0
  188.1230  177.3790  143.7780 C   0  0  1  0  0  3  0  0  0  0  0  0
  191.2300  176.2580  142.7440 N   0  0  0  0  0  0  0  0  0  0  0  0
  190.8300  177.1130  141.8610 C   0  0  0  0  0  0  0  0  0  0  0  0
  190.7910  176.3770  144.0640 N   0  0  0  0  0  2  0  0  0  0  0  0
  186.7970  178.0230  147.3310 C   0  0  0  0  0  3  0  0  0  0  0  0
  185.6430  178.7480  147.0330 C   0  0  0  0  0  3  0  0  0  0  0  0
  186.1220  178.5320  144.6740 C   0  0  0  0  0  3  0  0  0  0  0  0
  187.2810  177.7960  144.9570 C   0  0  0  0  0  0  0  0  0  0  0  0
  185.3050  179.0020  145.7040 C   0  0  0  0  0  3  0  0  0  0  0  0
  187.6280  177.5420  146.3040 C   0  0  0  0  0  0  0  0  0  0  0  0
  189.6200  177.1270  147.7180 C   0  0  0  0  0  1  0  0  0  0  0  0
  188.7820  176.8130  146.6120 O   0  0  0  0  0  0  0  0  0  0  0  0
  191.3960  177.0640  140.5010 C   0  0  0  0  0  0  0  0  0  0  0  0
  192.2960  177.8780  140.1600 O   0  0  0  0  0  0  0  0  0  0  0  0
  190.9220  176.1140  139.5500 N   0  0  0  0  0  1  0  0  0  0  0  0
  188.0970  178.6240  140.3500 N   0  0  0  0  0  2  0  0  0  0  0  0
  187.5210  177.5920  136.2380 C   0  0  0  0  0  2  0  0  0  0  0  0
  187.9950  178.0110  139.0170 C   0  0  1  0  0  3  0  0  0  0  0  0
  186.5820  177.8780  138.4930 C   0  0  0  0  0  3  0  0  0  0  0  0
  186.3620  177.6700  137.1890 C   0  0  0  0  0  3  0  0  0  0  0  0
  188.5230  178.6930  136.5820 C   0  0  0  0  0  2  0  0  0  0  0  0
  189.0570  178.5200  138.0140 C   0  0  0  0  0  2  0  0  0  0  0  0
  1 21  1  6  0  0  0
  1  5  1  0  0  0  0
  1  2  1  0  0  0  0
  2  6  1  0  0  0  0
  3  6  1  0  0  0  0
  3  4  1  1  0  0  0
  5  8  1  1  0  0  0
  5  3  1  0  0  0  0
  6 13  1  1  0  0  0
  7  9  1  0  0  0  0
  8  7  2  0  0  0  0
  9  4  1  0  0  0  0
 11 10  1  0  0  0  0
 12 13  2  0  0  0  0
 12 14  1  0  0  0  0
 13 15  1  0  0  0  0
 14 11  2  0  0  0  0
 15 17  1  0  0  0  0
 15 10  2  0  0  0  0
 17 16  1  0  0  0  0
 18  8  1  0  0  0  0
 19 18  2  0  0  0  0
 20 18  1  0  0  0  0
 22 26  1  0  0  0  0
 22 25  1  0  0  0  0
 23 21  1  1  0  0  0
 24 23  1  0  0  0  0
 25 24  2  0  0  0  0
 26 27  1  0  0  0  0
 27 23  1  0  0  0  0
M  END
>  <MODEL>
7

>  <REMARK>
 VINA RESULT:      -7.9      1.999      3.868
  Name = 
  5 active torsions:
  status: ('A' for Active; 'I' for Inactive)
    1  A    between atoms: C_1  and  N_15
    2  A    between atoms: C_9  and  N_15
    3  A    between atoms: C_10  and  C_24
    4  A    between atoms: C_14  and  C_19
    5  A    between atoms: C_17  and  O_21
                            x       y       z     vdW  Elec       q    Type
                         _______ _______ _______ _____ _____    ______ ____

>  <TORSDO>
F 5

$$$$
=
 OpenBabel10262420133D

 27 30  0  0  1  0  0  0  0  0999 V2000
  186.3000  177.2390  144.0910 C   0  0  2  0  0  3  0  0  0  0  0  0
  187.5090  176.5830  143.4640 C   0  0  0  0  0  2  0  0  0  0  0  0
  187.3200  178.7860  142.5600 N   0  0  1  0  0  0  0  0  0  0  0  0
  187.0120  179.4870  141.3680 N   0  0  0  0  0  2  0  0  0  0  0  0
  186.1850  178.6450  143.5040 C   0  0  1  0  0  3  0  0  0  0  0  0
  187.7800  177.4340  142.2460 C   0  0  1  0  0  3  0  0  0  0  0  0
  184.6930  178.8570  141.5940 N   0  0  0  0  0  0  0  0  0  0  0  0
  184.8120  178.8000  142.8800 C   0  0  0  0  0  0  0  0  0  0  0  0
  185.8370  178.9650  140.8020 N   0  0  0  0  0  2  0  0  0  0  0  0
  191.0470  177.2690  140.2240 C   0  0  0  0  0  3  0  0  0  0  0  0
  191.9790  177.3710  141.2570 C   0  0  0  0  0  3  0  0  0  0  0  0
  190.1790  177.4770  142.8650 C   0  0  0  0  0  3  0  0  0  0  0  0
  189.2290  177.3680  141.8390 C   0  0  0  0  0  0  0  0  0  0  0  0
  191.5450  177.4750  142.5780 C   0  0  0  0  0  3  0  0  0  0  0  0
  189.6690  177.2680  140.4980 C   0  0  0  0  0  0  0  0  0  0  0  0
  188.7240  178.0520  138.3450 C   0  0  0  0  0  1  0  0  0  0  0  0
  188.7410  177.1620  139.4560 O   0  0  0  0  0  0  0  0  0  0  0  0
  183.6000  178.8180  143.7190 C   0  0  0  0  0  0  0  0  0  0  0  0
  182.4780  178.5400  143.2150 O   0  0  0  0  0  0  0  0  0  0  0  0
  183.6760  179.1690  145.0970 N   0  0  0  0  0  1  0  0  0  0  0  0
  186.2870  177.1690  145.5630 N   0  0  0  0  0  2  0  0  0  0  0  0
  189.6020  178.2070  148.0610 C   0  0  0  0  0  2  0  0  0  0  0  0
  187.4460  177.7570  146.2520 C   0  0  1  0  0  3  0  0  0  0  0  0
  187.1730  178.2010  147.6730 C   0  0  0  0  0  3  0  0  0  0  0  0
  188.1870  178.4230  148.5180 C   0  0  0  0  0  3  0  0  0  0  0  0
  189.6730  176.9120  147.2530 C   0  0  0  0  0  2  0  0  0  0  0  0
  188.7670  176.9910  146.0120 C   0  0  0  0  0  2  0  0  0  0  0  0
  1 21  1  1  0  0  0
  2  1  1  0  0  0  0
  3  4  1  6  0  0  0
  3  5  1  0  0  0  0
  5  8  1  6  0  0  0
  5  1  1  0  0  0  0
  6 13  1  1  0  0  0
  6  3  1  0  0  0  0
  6  2  1  0  0  0  0
  7  8  2  0  0  0  0
  8 18  1  0  0  0  0
  9  4  1  0  0  0  0
  9  7  1  0  0  0  0
 10 15  2  0  0  0  0
 10 11  1  0  0  0  0
 11 14  2  0  0  0  0
 13 12  2  0  0  0  0
 14 12  1  0  0  0  0
 15 13  1  0  0  0  0
 16 17  1  0  0  0  0
 17 15  1  0  0  0  0
 18 20  1  0  0  0  0
 19 18  2  0  0  0  0
 22 25  1  0  0  0  0
 23 21  1  1  0  0  0
 23 24  1  0  0  0  0
 24 25  2  0  0  0  0
 26 22  1  0  0  0  0
 27 23  1  0  0  0  0
 27 26  1  0  0  0  0
M  END
>  <MODEL>
8

>  <REMARK>
 VINA RESULT:      -7.9      2.273      6.075
  Name = 
  5 active torsions:
  status: ('A' for Active; 'I' for Inactive)
    1  A    between atoms: C_1  and  N_15
    2  A    between atoms: C_9  and  N_15
    3  A    between atoms: C_10  and  C_24
    4  A    between atoms: C_14  and  C_19
    5  A    between atoms: C_17  and  O_21
                            x       y       z     vdW  Elec       q    Type
                         _______ _______ _______ _____ _____    ______ ____

>  <TORSDO>
F 5

$$$$
=
 OpenBabel10262420133D

 27 30  0  0  1  0  0  0  0  0999 V2000
  187.9610  177.6590  143.5660 C   0  0  2  0  0  3  0  0  0  0  0  0
  188.1810  178.0680  142.1270 C   0  0  0  0  0  2  0  0  0  0  0  0
  189.8520  176.4570  142.6950 N   0  0  1  0  0  0  0  0  0  0  0  0
  191.2420  176.3180  142.9280 N   0  0  0  0  0  2  0  0  0  0  0  0
  189.0350  176.6330  143.9210 C   0  0  1  0  0  3  0  0  0  0  0  0
  189.5960  177.6210  141.8470 C   0  0  1  0  0  3  0  0  0  0  0  0
  191.0200  177.5350  145.0000 N   0  0  0  0  0  0  0  0  0  0  0  0
  189.7990  177.1300  145.1320 C   0  0  0  0  0  0  0  0  0  0  0  0
  191.6830  177.3370  143.7880 N   0  0  0  0  0  2  0  0  0  0  0  0
  191.1720  176.9680  138.4000 C   0  0  0  0  0  3  0  0  0  0  0  0
  190.0210  176.7420  137.6440 C   0  0  0  0  0  3  0  0  0  0  0  0
  188.6640  177.1200  139.6070 C   0  0  0  0  0  3  0  0  0  0  0  0
  189.8100  177.3560  140.3790 C   0  0  0  0  0  0  0  0  0  0  0  0
  188.7670  176.8180  138.2480 C   0  0  0  0  0  3  0  0  0  0  0  0
  191.0830  177.2730  139.7690 C   0  0  0  0  0  0  0  0  0  0  0  0
  193.5500  177.4080  139.9640 C   0  0  0  0  0  1  0  0  0  0  0  0
  192.2430  177.5010  140.5180 O   0  0  0  0  0  0  0  0  0  0  0  0
  189.1470  177.2220  146.4510 C   0  0  0  0  0  0  0  0  0  0  0  0
  189.4150  176.3790  147.3490 O   0  0  0  0  0  0  0  0  0  0  0  0
  188.1950  178.2470  146.7200 N   0  0  0  0  0  1  0  0  0  0  0  0
  186.5760  177.2470  143.8570 N   0  0  0  0  0  2  0  0  0  0  0  0
  183.0660  179.6930  143.7950 C   0  0  0  0  0  2  0  0  0  0  0  0
  185.5520  178.3010  143.7770 C   0  0  1  0  0  3  0  0  0  0  0  0
  184.5800  178.1460  142.6280 C   0  0  0  0  0  3  0  0  0  0  0  0
  183.4170  178.8090  142.6330 C   0  0  0  0  0  3  0  0  0  0  0  0
  183.4360  178.9800  145.0940 C   0  0  0  0  0  2  0  0  0  0  0  0
  184.9460  178.6850  145.1460 C   0  0  0  0  0  2  0  0  0  0  0  0
  1 21  1  6  0  0  0
  1  5  1  0  0  0  0
  2  1  1  0  0  0  0
  3  4  1  1  0  0  0
  3  5  1  0  0  0  0
  4  9  1  0  0  0  0
  5  8  1  1  0  0  0
  6 13  1  6  0  0  0
  6  2  1  0  0  0  0
  6  3  1  0  0  0  0
  7  8  2  0  0  0  0
  8 18  1  0  0  0  0
  9  7  1  0  0  0  0
 10 15  1  0  0  0  0
 11 14  1  0  0  0  0
 11 10  2  0  0  0  0
 12 13  1  0  0  0  0
 14 12  2  0  0  0  0
 15 13  2  0  0  0  0
 15 17  1  0  0  0  0
 16 17  1  0  0  0  0
 18 20  1  0  0  0  0
 18 19  2  0  0  0  0
 22 26  1  0  0  0  0
 23 21  1  1  0  0  0
 23 27  1  0  0  0  0
 24 25  2  0  0  0  0
 24 23  1  0  0  0  0
 25 22  1  0  0  0  0
 26 27  1  0  0  0  0
M  END
>  <MODEL>
9

>  <REMARK>
 VINA RESULT:      -7.7      1.798      5.392
  Name = 
  5 active torsions:
  status: ('A' for Active; 'I' for Inactive)
    1  A    between atoms: C_1  and  N_15
    2  A    between atoms: C_9  and  N_15
    3  A    between atoms: C_10  and  C_24
    4  A    between atoms: C_14  and  C_19
    5  A    between atoms: C_17  and  O_21
                            x       y       z     vdW  Elec       q    Type
                         _______ _______ _______ _____ _____    ______ ____

>  <TORSDO>
F 5

$$$$
