=
 OpenBabel10262420443D

 28 30  0  0  1  0  0  0  0  0999 V2000
  190.3930  176.9420  142.6310 C   0  0  2  0  0  3  0  0  0  0  0  0
  191.0140  178.3880  145.0240 C   0  0  0  0  0  2  0  0  0  0  0  0
  191.1590  174.9570  143.6930 O   0  0  0  0  0  0  0  0  0  0  0  0
  191.3100  178.9890  143.6770 C   0  0  0  0  0  3  0  0  0  0  0  0
  191.3760  176.8900  145.0570 C   0  0  2  0  0  3  0  0  0  0  0  0
  191.0150  178.3130  142.5580 C   0  0  0  0  0  3  0  0  0  0  0  0
  190.9940  176.1650  143.7800 C   0  0  0  0  0  0  0  0  0  0  0  0
  190.5880  176.2710  141.4180 O   0  0  0  0  0  0  0  0  0  0  0  0
  190.1060  177.1440  140.4350 C   0  0  2  0  0  3  0  0  0  0  0  0
  188.0340  177.2640  138.3670 N   0  0  0  0  0  2  0  0  0  0  0  0
  188.6400  177.4840  140.7210 C   0  0  0  0  0  2  0  0  0  0  0  0
  191.1000  175.6850  138.8400 O   0  0  0  0  0  0  0  0  0  0  0  0
  190.2500  176.5320  139.0640 C   0  0  0  0  0  0  0  0  0  0  0  0
  189.4210  177.0780  137.9390 C   0  0  0  0  0  2  0  0  0  0  0  0
  188.0090  178.1720  139.5140 C   0  0  0  0  0  2  0  0  0  0  0  0
  190.8330  176.2320  146.2500 N   0  0  0  0  0  2  0  0  0  0  0  0
  190.1250  177.1950  147.0920 C   0  0  0  0  0  2  0  0  0  0  0  0
  188.3140  176.1420  148.2300 F   0  0  0  0  0  0  0  0  0  0  0  0
  188.6320  176.8980  147.1130 C   0  0  1  0  0  3  0  0  0  0  0  0
  187.8190  178.1890  147.0880 C   0  0  0  0  0  2  0  0  0  0  0  0
  187.2980  177.7370  144.6310 C   0  0  0  0  0  2  0  0  0  0  0  0
  185.5680  178.6480  146.2760 C   0  0  0  0  0  3  0  0  0  0  0  0
  185.5820  178.8160  143.1940 C   0  0  0  0  0  0  0  0  0  0  0  0
  186.7960  178.1610  145.9970 C   0  0  0  0  0  0  0  0  0  0  0  0
  184.7240  179.3830  144.0440 C   0  0  0  0  0  3  0  0  0  0  0  0
  184.3880  178.7260  145.3470 C   0  0  0  0  0  2  0  0  0  0  0  0
  185.8350  179.4090  141.9980 F   0  0  0  0  0  0  0  0  0  0  0  0
  186.2520  177.5220  143.5410 C   0  0  0  0  0  2  0  0  0  0  0  0
  1  8  1  6  0  0  0
  1  7  1  0  0  0  0
  2  5  1  0  0  0  0
  3  7  2  0  0  0  0
  4  2  1  0  0  0  0
  5 16  1  1  0  0  0
  6  1  1  0  0  0  0
  6  4  2  0  0  0  0
  7  5  1  0  0  0  0
  9 11  1  0  0  0  0
  9  8  1  1  0  0  0
 10 15  1  0  0  0  0
 12 13  2  0  0  0  0
 13  9  1  0  0  0  0
 14 10  1  0  0  0  0
 14 13  1  0  0  0  0
 15 11  1  0  0  0  0
 16 17  1  0  0  0  0
 17 19  1  0  0  0  0
 19 18  1  1  0  0  0
 20 19  1  0  0  0  0
 21 24  1  0  0  0  0
 23 28  1  0  0  0  0
 23 25  2  0  0  0  0
 24 22  2  0  0  0  0
 24 20  1  0  0  0  0
 25 26  1  0  0  0  0
 26 22  1  0  0  0  0
 27 23  1  0  0  0  0
 28 21  1  0  0  0  0
M  END
>  <MODEL>
1

>  <REMARK>
 VINA RESULT:      -8.3      0.000      0.000
  Name = 
  7 active torsions:
  status: ('A' for Active; 'I' for Inactive)
    1  A    between atoms: C_1  and  O_2
    2  A    between atoms: O_2  and  C_3
    3  A    between atoms: N_5  and  C_20
    4  A    between atoms: N_5  and  C_21
    5  A    between atoms: C_10  and  C_13
    6  A    between atoms: C_10  and  C_25
    7  A    between atoms: C_20  and  C_25
                            x       y       z     vdW  Elec       q    Type
                         _______ _______ _______ _____ _____    ______ ____

>  <TORSDO>
F 7

$$$$
=
 OpenBabel10262420443D

 28 30  0  0  1  0  0  0  0  0999 V2000
  186.3370  178.2820  139.8990 C   0  0  2  0  0  3  0  0  0  0  0  0
  183.8310  178.4640  141.2730 C   0  0  0  0  0  2  0  0  0  0  0  0
  187.4320  178.8840  141.9220 O   0  0  0  0  0  0  0  0  0  0  0  0
  183.9620  178.9760  139.8640 C   0  0  0  0  0  3  0  0  0  0  0  0
  185.0640  178.8370  142.1180 C   0  0  2  0  0  3  0  0  0  0  0  0
  185.1350  178.8860  139.2210 C   0  0  0  0  0  3  0  0  0  0  0  0
  186.3670  178.6880  141.3540 C   0  0  0  0  0  0  0  0  0  0  0  0
  187.5040  178.6900  139.2410 O   0  0  0  0  0  0  0  0  0  0  0  0
  187.7350  177.7140  138.2650 C   0  0  2  0  0  3  0  0  0  0  0  0
  189.8190  176.8770  136.3840 N   0  0  0  0  0  2  0  0  0  0  0  0
  188.9440  176.8630  138.6620 C   0  0  0  0  0  2  0  0  0  0  0  0
  187.4960  179.4550  136.6600 O   0  0  0  0  0  0  0  0  0  0  0  0
  187.9580  178.3540  136.9170 C   0  0  0  0  0  0  0  0  0  0  0  0
  188.6420  177.5590  135.8440 C   0  0  0  0  0  2  0  0  0  0  0  0
  189.4020  176.0080  137.4840 C   0  0  0  0  0  2  0  0  0  0  0  0
  185.0840  178.1080  143.3910 N   0  0  0  0  0  2  0  0  0  0  0  0
  184.7880  179.0100  144.5040 C   0  0  0  0  0  2  0  0  0  0  0  0
  184.7590  178.4330  146.8180 F   0  0  0  0  0  0  0  0  0  0  0  0
  185.6010  178.6320  145.7350 C   0  0  1  0  0  3  0  0  0  0  0  0
  186.4400  177.3850  145.4710 C   0  0  0  0  0  2  0  0  0  0  0  0
  188.8950  177.6060  144.8110 C   0  0  0  0  0  2  0  0  0  0  0  0
  188.1050  177.5820  147.2400 C   0  0  0  0  0  3  0  0  0  0  0  0
  190.9080  176.9530  146.1120 C   0  0  0  0  0  0  0  0  0  0  0  0
  187.8560  177.5860  145.9130 C   0  0  0  0  0  0  0  0  0  0  0  0
  190.4850  176.8390  147.3720 C   0  0  0  0  0  3  0  0  0  0  0  0
  189.4370  177.7610  147.9150 C   0  0  0  0  0  2  0  0  0  0  0  0
  191.8940  176.1350  145.6570 F   0  0  0  0  0  0  0  0  0  0  0  0
  190.3200  177.9880  145.2030 C   0  0  0  0  0  2  0  0  0  0  0  0
  1  8  1  6  0  0  0
  1  7  1  0  0  0  0
  2  5  1  0  0  0  0
  4  2  1  0  0  0  0
  5 16  1  1  0  0  0
  6  4  2  0  0  0  0
  6  1  1  0  0  0  0
  7  3  2  0  0  0  0
  7  5  1  0  0  0  0
  9 11  1  0  0  0  0
  9  8  1  1  0  0  0
 10 15  1  0  0  0  0
 12 13  2  0  0  0  0
 13  9  1  0  0  0  0
 14 10  1  0  0  0  0
 14 13  1  0  0  0  0
 15 11  1  0  0  0  0
 16 17  1  0  0  0  0
 17 19  1  0  0  0  0
 19 18  1  1  0  0  0
 20 19  1  0  0  0  0
 20 24  1  0  0  0  0
 21 28  1  0  0  0  0
 21 24  1  0  0  0  0
 22 26  1  0  0  0  0
 23 25  2  0  0  0  0
 24 22  2  0  0  0  0
 25 26  1  0  0  0  0
 27 23  1  0  0  0  0
 28 23  1  0  0  0  0
M  END
>  <MODEL>
2

>  <REMARK>
 VINA RESULT:      -8.2      2.806      5.236
  Name = 
  7 active torsions:
  status: ('A' for Active; 'I' for Inactive)
    1  A    between atoms: C_1  and  O_2
    2  A    between atoms: O_2  and  C_3
    3  A    between atoms: N_5  and  C_20
    4  A    between atoms: N_5  and  C_21
    5  A    between atoms: C_10  and  C_13
    6  A    between atoms: C_10  and  C_25
    7  A    between atoms: C_20  and  C_25
                            x       y       z     vdW  Elec       q    Type
                         _______ _______ _______ _____ _____    ______ ____

>  <TORSDO>
F 7

$$$$
=
 OpenBabel10262420443D

 28 30  0  0  1  0  0  0  0  0999 V2000
  183.8000  178.4510  141.7430 C   0  0  2  0  0  3  0  0  0  0  0  0
  186.1520  178.0300  143.3230 C   0  0  0  0  0  2  0  0  0  0  0  0
  185.1650  179.4400  140.0670 O   0  0  0  0  0  0  0  0  0  0  0  0
  184.8710  178.4770  143.9740 C   0  0  0  0  0  3  0  0  0  0  0  0
  186.3870  178.7680  141.9910 C   0  0  2  0  0  3  0  0  0  0  0  0
  183.7700  178.6700  143.2340 C   0  0  0  0  0  3  0  0  0  0  0  0
  185.1160  178.9330  141.1780 C   0  0  0  0  0  0  0  0  0  0  0  0
  182.7240  179.1210  141.1470 O   0  0  0  0  0  0  0  0  0  0  0  0
  181.6190  178.2840  141.3420 C   0  0  2  0  0  3  0  0  0  0  0  0
  178.9310  177.8380  140.2660 N   0  0  0  0  0  2  0  0  0  0  0  0
  181.3380  177.4940  140.0610 C   0  0  0  0  0  2  0  0  0  0  0  0
  180.5280  180.1710  142.2970 O   0  0  0  0  0  0  0  0  0  0  0  0
  180.4080  179.0890  141.7430 C   0  0  0  0  0  0  0  0  0  0  0  0
  179.0470  178.4790  141.5760 C   0  0  0  0  0  2  0  0  0  0  0  0
  179.9720  176.8180  140.1410 C   0  0  0  0  0  2  0  0  0  0  0  0
  187.4630  178.1460  141.2130 N   0  0  0  0  0  2  0  0  0  0  0  0
  188.7660  178.6580  141.6360 C   0  0  0  0  0  2  0  0  0  0  0  0
  190.2450  176.8070  141.3700 F   0  0  0  0  0  0  0  0  0  0  0  0
  189.5800  177.5670  142.3190 C   0  0  1  0  0  3  0  0  0  0  0  0
  190.5670  178.1680  143.3160 C   0  0  0  0  0  2  0  0  0  0  0  0
  189.1150  177.8600  145.3910 C   0  0  0  0  0  2  0  0  0  0  0  0
  191.4740  176.9000  145.1880 C   0  0  0  0  0  3  0  0  0  0  0  0
  189.8380  177.4880  147.7390 C   0  0  0  0  0  0  0  0  0  0  0  0
  190.4100  177.5490  144.6690 C   0  0  0  0  0  0  0  0  0  0  0  0
  191.1050  177.0810  147.6510 C   0  0  0  0  0  3  0  0  0  0  0  0
  191.5540  176.2070  146.5210 C   0  0  0  0  0  2  0  0  0  0  0  0
  189.4450  178.2410  148.8000 F   0  0  0  0  0  0  0  0  0  0  0  0
  188.8420  177.1030  146.6890 C   0  0  0  0  0  2  0  0  0  0  0  0
  1  8  1  6  0  0  0
  1  6  1  0  0  0  0
  2  4  1  0  0  0  0
  3  7  2  0  0  0  0
  5 16  1  6  0  0  0
  5  2  1  0  0  0  0
  6  4  2  0  0  0  0
  7  1  1  0  0  0  0
  7  5  1  0  0  0  0
  9  8  1  6  0  0  0
  9 13  1  0  0  0  0
 10 14  1  0  0  0  0
 11 15  1  0  0  0  0
 11  9  1  0  0  0  0
 13 12  2  0  0  0  0
 14 13  1  0  0  0  0
 15 10  1  0  0  0  0
 16 17  1  0  0  0  0
 17 19  1  0  0  0  0
 19 18  1  6  0  0  0
 19 20  1  0  0  0  0
 20 24  1  0  0  0  0
 21 28  1  0  0  0  0
 22 26  1  0  0  0  0
 23 27  1  0  0  0  0
 24 22  2  0  0  0  0
 24 21  1  0  0  0  0
 25 23  2  0  0  0  0
 26 25  1  0  0  0  0
 28 23  1  0  0  0  0
M  END
>  <MODEL>
3

>  <REMARK>
 VINA RESULT:      -7.9      4.398      7.364
  Name = 
  7 active torsions:
  status: ('A' for Active; 'I' for Inactive)
    1  A    between atoms: C_1  and  O_2
    2  A    between atoms: O_2  and  C_3
    3  A    between atoms: N_5  and  C_20
    4  A    between atoms: N_5  and  C_21
    5  A    between atoms: C_10  and  C_13
    6  A    between atoms: C_10  and  C_25
    7  A    between atoms: C_20  and  C_25
                            x       y       z     vdW  Elec       q    Type
                         _______ _______ _______ _____ _____    ______ ____

>  <TORSDO>
F 7

$$$$
=
 OpenBabel10262420443D

 28 30  0  0  1  0  0  0  0  0999 V2000
  185.4650  178.4470  139.9780 C   0  0  2  0  0  3  0  0  0  0  0  0
  183.0260  178.3760  141.4770 C   0  0  0  0  0  2  0  0  0  0  0  0
  186.5900  179.1790  141.9410 O   0  0  0  0  0  0  0  0  0  0  0  0
  183.0310  178.8870  140.0620 C   0  0  0  0  0  3  0  0  0  0  0  0
  184.2530  178.8840  142.2570 C   0  0  2  0  0  3  0  0  0  0  0  0
  184.1730  178.9150  139.3600 C   0  0  0  0  0  3  0  0  0  0  0  0
  185.5250  178.8670  141.4290 C   0  0  0  0  0  0  0  0  0  0  0  0
  186.5480  178.9710  139.2610 O   0  0  0  0  0  0  0  0  0  0  0  0
  187.3190  177.8600  138.8990 C   0  0  2  0  0  3  0  0  0  0  0  0
  189.7650  177.2170  137.4210 N   0  0  0  0  0  2  0  0  0  0  0  0
  188.7260  177.9940  139.4870 C   0  0  0  0  0  2  0  0  0  0  0  0
  186.5020  178.1820  136.6870 O   0  0  0  0  0  0  0  0  0  0  0  0
  187.3840  177.7250  137.3980 C   0  0  0  0  0  0  0  0  0  0  0  0
  188.4820  176.9010  136.7940 C   0  0  0  0  0  2  0  0  0  0  0  0
  189.6660  176.9700  138.8590 C   0  0  0  0  0  2  0  0  0  0  0  0
  184.4140  178.1730  143.5300 N   0  0  0  0  0  2  0  0  0  0  0  0
  184.4630  179.1180  144.6450 C   0  0  0  0  0  2  0  0  0  0  0  0
  185.6780  179.6070  146.6370 F   0  0  0  0  0  0  0  0  0  0  0  0
  185.7810  178.9950  145.3980 C   0  0  1  0  0  3  0  0  0  0  0  0
  186.1830  177.5320  145.5540 C   0  0  0  0  0  2  0  0  0  0  0  0
  188.6880  177.9500  145.8070 C   0  0  0  0  0  2  0  0  0  0  0  0
  187.6850  176.6540  143.8470 C   0  0  0  0  0  3  0  0  0  0  0  0
  190.4190  178.0750  144.0300 C   0  0  0  0  0  0  0  0  0  0  0  0
  187.5650  177.2940  145.0300 C   0  0  0  0  0  0  0  0  0  0  0  0
  189.8680  177.4880  142.9670 C   0  0  0  0  0  3  0  0  0  0  0  0
  188.9590  176.3080  143.1260 C   0  0  0  0  0  2  0  0  0  0  0  0
  191.2770  179.1140  143.8550 F   0  0  0  0  0  0  0  0  0  0  0  0
  190.1160  177.5830  145.4120 C   0  0  0  0  0  2  0  0  0  0  0  0
  1  8  1  6  0  0  0
  1  7  1  0  0  0  0
  2  5  1  0  0  0  0
  4  2  1  0  0  0  0
  5 16  1  1  0  0  0
  6  1  1  0  0  0  0
  6  4  2  0  0  0  0
  7  3  2  0  0  0  0
  7  5  1  0  0  0  0
  9  8  1  6  0  0  0
  9 11  1  0  0  0  0
 10 15  1  0  0  0  0
 12 13  2  0  0  0  0
 13  9  1  0  0  0  0
 14 13  1  0  0  0  0
 14 10  1  0  0  0  0
 15 11  1  0  0  0  0
 16 17  1  0  0  0  0
 17 19  1  0  0  0  0
 19 20  1  0  0  0  0
 19 18  1  1  0  0  0
 22 24  2  0  0  0  0
 23 28  1  0  0  0  0
 24 20  1  0  0  0  0
 24 21  1  0  0  0  0
 25 26  1  0  0  0  0
 25 23  2  0  0  0  0
 26 22  1  0  0  0  0
 27 23  1  0  0  0  0
 28 21  1  0  0  0  0
M  END
>  <MODEL>
4

>  <REMARK>
 VINA RESULT:      -7.8      3.052      5.304
  Name = 
  7 active torsions:
  status: ('A' for Active; 'I' for Inactive)
    1  A    between atoms: C_1  and  O_2
    2  A    between atoms: O_2  and  C_3
    3  A    between atoms: N_5  and  C_20
    4  A    between atoms: N_5  and  C_21
    5  A    between atoms: C_10  and  C_13
    6  A    between atoms: C_10  and  C_25
    7  A    between atoms: C_20  and  C_25
                            x       y       z     vdW  Elec       q    Type
                         _______ _______ _______ _____ _____    ______ ____

>  <TORSDO>
F 7

$$$$
=
 OpenBabel10262420443D

 28 30  0  0  1  0  0  0  0  0999 V2000
  183.5570  178.3980  141.2460 C   0  0  2  0  0  3  0  0  0  0  0  0
  185.7940  178.2910  143.0310 C   0  0  0  0  0  2  0  0  0  0  0  0
  184.9330  179.5320  139.6730 O   0  0  0  0  0  0  0  0  0  0  0  0
  184.4150  178.5820  143.5590 C   0  0  0  0  0  3  0  0  0  0  0  0
  186.0530  179.0390  141.7090 C   0  0  2  0  0  3  0  0  0  0  0  0
  183.3690  178.6280  142.7230 C   0  0  0  0  0  3  0  0  0  0  0  0
  184.8480  179.0350  140.7860 C   0  0  0  0  0  0  0  0  0  0  0  0
  182.4640  178.9220  140.5450 O   0  0  0  0  0  0  0  0  0  0  0  0
  181.4400  177.9800  140.7070 C   0  0  2  0  0  3  0  0  0  0  0  0
  179.3890  176.6080  139.1290 N   0  0  0  0  0  2  0  0  0  0  0  0
  181.7210  176.7560  139.8320 C   0  0  0  0  0  2  0  0  0  0  0  0
  179.9170  179.7890  140.4390 O   0  0  0  0  0  0  0  0  0  0  0  0
  180.1030  178.5850  140.3580 C   0  0  0  0  0  0  0  0  0  0  0  0
  178.9580  177.6690  140.0380 C   0  0  0  0  0  2  0  0  0  0  0  0
  180.4860  175.8650  139.7510 C   0  0  0  0  0  2  0  0  0  0  0  0
  187.2630  178.5480  141.0410 N   0  0  0  0  0  2  0  0  0  0  0  0
  188.3590  178.4090  142.0000 C   0  0  0  0  0  2  0  0  0  0  0  0
  190.4860  177.4220  141.5670 F   0  0  0  0  0  0  0  0  0  0  0  0
  189.1430  177.1290  141.7410 C   0  0  1  0  0  3  0  0  0  0  0  0
  188.9530  176.1350  142.8830 C   0  0  0  0  0  2  0  0  0  0  0  0
  191.0220  176.4470  144.3430 C   0  0  0  0  0  2  0  0  0  0  0  0
  188.6780  177.1410  145.0850 C   0  0  0  0  0  3  0  0  0  0  0  0
  191.1610  176.5500  146.8220 C   0  0  0  0  0  0  0  0  0  0  0  0
  189.5340  176.6620  144.1580 C   0  0  0  0  0  0  0  0  0  0  0  0
  189.9180  176.8140  147.2280 C   0  0  0  0  0  3  0  0  0  0  0  0
  189.0250  177.7150  146.4320 C   0  0  0  0  0  2  0  0  0  0  0  0
  191.9660  175.7670  147.5870 F   0  0  0  0  0  0  0  0  0  0  0  0
  191.6800  177.1270  145.5410 C   0  0  0  0  0  2  0  0  0  0  0  0
  1  8  1  6  0  0  0
  1  6  1  0  0  0  0
  2  4  1  0  0  0  0
  3  7  2  0  0  0  0
  5 16  1  6  0  0  0
  5  2  1  0  0  0  0
  6  4  2  0  0  0  0
  7  1  1  0  0  0  0
  7  5  1  0  0  0  0
  9  8  1  6  0  0  0
 10 15  1  0  0  0  0
 10 14  1  0  0  0  0
 11  9  1  0  0  0  0
 13 12  2  0  0  0  0
 13  9  1  0  0  0  0
 14 13  1  0  0  0  0
 15 11  1  0  0  0  0
 16 17  1  0  0  0  0
 19 18  1  1  0  0  0
 19 17  1  0  0  0  0
 19 20  1  0  0  0  0
 20 24  1  0  0  0  0
 21 28  1  0  0  0  0
 22 26  1  0  0  0  0
 23 25  2  0  0  0  0
 23 27  1  0  0  0  0
 24 21  1  0  0  0  0
 24 22  2  0  0  0  0
 26 25  1  0  0  0  0
 28 23  1  0  0  0  0
M  END
>  <MODEL>
5

>  <REMARK>
 VINA RESULT:      -7.7      4.622      7.370
  Name = 
  7 active torsions:
  status: ('A' for Active; 'I' for Inactive)
    1  A    between atoms: C_1  and  O_2
    2  A    between atoms: O_2  and  C_3
    3  A    between atoms: N_5  and  C_20
    4  A    between atoms: N_5  and  C_21
    5  A    between atoms: C_10  and  C_13
    6  A    between atoms: C_10  and  C_25
    7  A    between atoms: C_20  and  C_25
                            x       y       z     vdW  Elec       q    Type
                         _______ _______ _______ _____ _____    ______ ____

>  <TORSDO>
F 7

$$$$
=
 OpenBabel10262420443D

 28 30  0  0  1  0  0  0  0  0999 V2000
  185.0920  178.5830  142.1000 C   0  0  2  0  0  3  0  0  0  0  0  0
  186.8000  177.2680  143.9870 C   0  0  0  0  0  2  0  0  0  0  0  0
  186.9990  179.0010  140.7430 O   0  0  0  0  0  0  0  0  0  0  0  0
  185.6870  178.1620  144.4650 C   0  0  0  0  0  3  0  0  0  0  0  0
  187.5230  177.8820  142.7720 C   0  0  2  0  0  3  0  0  0  0  0  0
  184.8860  178.7730  143.5810 C   0  0  0  0  0  3  0  0  0  0  0  0
  186.5700  178.5340  141.7870 C   0  0  0  0  0  0  0  0  0  0  0  0
  184.4680  179.6230  141.4010 O   0  0  0  0  0  0  0  0  0  0  0  0
  183.5250  178.9960  140.5770 C   0  0  2  0  0  3  0  0  0  0  0  0
  183.3690  176.8690  138.5690 N   0  0  0  0  0  2  0  0  0  0  0  0
  183.4480  177.5060  140.9230 C   0  0  0  0  0  2  0  0  0  0  0  0
  184.5530  180.1370  138.7590 O   0  0  0  0  0  0  0  0  0  0  0  0
  183.8820  179.1840  139.1240 C   0  0  0  0  0  0  0  0  0  0  0  0
  183.2850  178.2550  138.1080 C   0  0  0  0  0  2  0  0  0  0  0  0
  182.6710  176.7510  139.8490 C   0  0  0  0  0  2  0  0  0  0  0  0
  188.4070  176.9070  142.1240 N   0  0  0  0  0  2  0  0  0  0  0  0
  189.5540  177.5780  141.5140 C   0  0  0  0  0  2  0  0  0  0  0  0
  191.9200  177.2940  141.4250 F   0  0  0  0  0  0  0  0  0  0  0  0
  190.8320  177.2680  142.2820 C   0  0  1  0  0  3  0  0  0  0  0  0
  191.0280  178.2530  143.4310 C   0  0  0  0  0  2  0  0  0  0  0  0
  189.5100  178.0960  145.4750 C   0  0  0  0  0  2  0  0  0  0  0  0
  191.6770  176.7630  145.2470 C   0  0  0  0  0  3  0  0  0  0  0  0
  190.1190  177.4970  147.8080 C   0  0  0  0  0  0  0  0  0  0  0  0
  190.7460  177.6060  144.7500 C   0  0  0  0  0  0  0  0  0  0  0  0
  191.3010  176.8870  147.7120 C   0  0  0  0  0  3  0  0  0  0  0  0
  191.6160  176.0040  146.5440 C   0  0  0  0  0  2  0  0  0  0  0  0
  189.8400  178.2550  148.9010 F   0  0  0  0  0  0  0  0  0  0  0  0
  189.0910  177.3360  146.7310 C   0  0  0  0  0  2  0  0  0  0  0  0
  1  8  1  6  0  0  0
  1  6  1  0  0  0  0
  2  4  1  0  0  0  0
  3  7  2  0  0  0  0
  5 16  1  6  0  0  0
  5  2  1  0  0  0  0
  6  4  2  0  0  0  0
  7  1  1  0  0  0  0
  7  5  1  0  0  0  0
  9 11  1  0  0  0  0
  9  8  1  1  0  0  0
 10 15  1  0  0  0  0
 12 13  2  0  0  0  0
 13  9  1  0  0  0  0
 14 10  1  0  0  0  0
 14 13  1  0  0  0  0
 15 11  1  0  0  0  0
 17 16  1  0  0  0  0
 17 19  1  0  0  0  0
 19 18  1  6  0  0  0
 19 20  1  0  0  0  0
 20 24  1  0  0  0  0
 21 28  1  0  0  0  0
 22 26  1  0  0  0  0
 23 27  1  0  0  0  0
 24 22  2  0  0  0  0
 24 21  1  0  0  0  0
 25 23  2  0  0  0  0
 26 25  1  0  0  0  0
 28 23  1  0  0  0  0
M  END
>  <MODEL>
6

>  <REMARK>
 VINA RESULT:      -7.6      3.402      6.046
  Name = 
  7 active torsions:
  status: ('A' for Active; 'I' for Inactive)
    1  A    between atoms: C_1  and  O_2
    2  A    between atoms: O_2  and  C_3
    3  A    between atoms: N_5  and  C_20
    4  A    between atoms: N_5  and  C_21
    5  A    between atoms: C_10  and  C_13
    6  A    between atoms: C_10  and  C_25
    7  A    between atoms: C_20  and  C_25
                            x       y       z     vdW  Elec       q    Type
                         _______ _______ _______ _____ _____    ______ ____

>  <TORSDO>
F 7

$$$$
=
 OpenBabel10262420443D

 28 30  0  0  1  0  0  0  0  0999 V2000
  189.3400  178.4130  138.2320 C   0  0  2  0  0  3  0  0  0  0  0  0
  191.1730  176.3760  139.0660 C   0  0  0  0  0  2  0  0  0  0  0  0
  188.4210  178.4120  140.4240 O   0  0  0  0  0  0  0  0  0  0  0  0
  190.5350  176.3100  137.7050 C   0  0  0  0  0  3  0  0  0  0  0  0
  190.1550  176.8140  140.1380 C   0  0  2  0  0  3  0  0  0  0  0  0
  189.6810  177.2670  137.3140 C   0  0  0  0  0  3  0  0  0  0  0  0
  189.2330  177.9190  139.6560 C   0  0  0  0  0  0  0  0  0  0  0  0
  188.1430  179.0080  137.8170 O   0  0  0  0  0  0  0  0  0  0  0  0
  187.3460  177.9500  137.3610 C   0  0  2  0  0  3  0  0  0  0  0  0
  184.9030  177.4930  135.8110 N   0  0  0  0  0  2  0  0  0  0  0  0
  187.2980  177.9630  135.8310 C   0  0  0  0  0  2  0  0  0  0  0  0
  185.7500  178.6270  138.9910 O   0  0  0  0  0  0  0  0  0  0  0  0
  185.9550  178.0480  137.9360 C   0  0  0  0  0  0  0  0  0  0  0  0
  184.8410  177.3040  137.2600 C   0  0  0  0  0  2  0  0  0  0  0  0
  186.2030  177.0280  135.3260 C   0  0  0  0  0  2  0  0  0  0  0  0
  190.8180  177.1580  141.4000 N   0  0  0  0  0  2  0  0  0  0  0  0
  190.4220  176.2300  142.4580 C   0  0  0  0  0  2  0  0  0  0  0  0
  189.6140  178.3060  143.3090 F   0  0  0  0  0  0  0  0  0  0  0  0
  189.5630  176.9340  143.5000 C   0  0  1  0  0  3  0  0  0  0  0  0
  188.1210  176.4370  143.4410 C   0  0  0  0  0  2  0  0  0  0  0  0
  187.2360  177.6060  145.5290 C   0  0  0  0  0  2  0  0  0  0  0  0
  186.2720  178.0050  143.1970 C   0  0  0  0  0  3  0  0  0  0  0  0
  184.9590  178.5080  145.9450 C   0  0  0  0  0  0  0  0  0  0  0  0
  187.1800  177.4440  144.0240 C   0  0  0  0  0  0  0  0  0  0  0  0
  184.4070  178.6270  144.7370 C   0  0  0  0  0  3  0  0  0  0  0  0
  185.2300  179.0310  143.5530 C   0  0  0  0  0  2  0  0  0  0  0  0
  184.1810  178.1860  147.0120 F   0  0  0  0  0  0  0  0  0  0  0  0
  186.4250  178.7470  146.1380 C   0  0  0  0  0  2  0  0  0  0  0  0
  1  8  1  6  0  0  0
  1  7  1  0  0  0  0
  2  5  1  0  0  0  0
  4  2  1  0  0  0  0
  5 16  1  1  0  0  0
  6  4  2  0  0  0  0
  6  1  1  0  0  0  0
  7  5  1  0  0  0  0
  7  3  2  0  0  0  0
  9  8  1  1  0  0  0
  9 13  1  0  0  0  0
 10 14  1  0  0  0  0
 11  9  1  0  0  0  0
 13 12  2  0  0  0  0
 14 13  1  0  0  0  0
 15 10  1  0  0  0  0
 15 11  1  0  0  0  0
 16 17  1  0  0  0  0
 17 19  1  0  0  0  0
 19 18  1  6  0  0  0
 20 19  1  0  0  0  0
 20 24  1  0  0  0  0
 21 28  1  0  0  0  0
 22 26  1  0  0  0  0
 22 24  2  0  0  0  0
 23 28  1  0  0  0  0
 23 27  1  0  0  0  0
 24 21  1  0  0  0  0
 25 23  2  0  0  0  0
 26 25  1  0  0  0  0
M  END
>  <MODEL>
7

>  <REMARK>
 VINA RESULT:      -7.6      2.737      4.547
  Name = 
  7 active torsions:
  status: ('A' for Active; 'I' for Inactive)
    1  A    between atoms: C_1  and  O_2
    2  A    between atoms: O_2  and  C_3
    3  A    between atoms: N_5  and  C_20
    4  A    between atoms: N_5  and  C_21
    5  A    between atoms: C_10  and  C_13
    6  A    between atoms: C_10  and  C_25
    7  A    between atoms: C_20  and  C_25
                            x       y       z     vdW  Elec       q    Type
                         _______ _______ _______ _____ _____    ______ ____

>  <TORSDO>
F 7

$$$$
=
 OpenBabel10262420443D

 28 30  0  0  1  0  0  0  0  0999 V2000
  189.1150  176.2970  137.3380 C   0  0  2  0  0  3  0  0  0  0  0  0
  189.3850  178.3270  139.3400 C   0  0  0  0  0  2  0  0  0  0  0  0
  190.8670  175.0900  138.3970 O   0  0  0  0  0  0  0  0  0  0  0  0
  189.1470  178.7060  137.9040 C   0  0  0  0  0  3  0  0  0  0  0  0
  190.3930  177.1670  139.4500 C   0  0  2  0  0  3  0  0  0  0  0  0
  189.0160  177.7550  136.9680 C   0  0  0  0  0  3  0  0  0  0  0  0
  190.1830  176.1030  138.3880 C   0  0  0  0  0  0  0  0  0  0  0  0
  189.3940  175.5390  136.1940 O   0  0  0  0  0  0  0  0  0  0  0  0
  188.2670  174.7310  136.0060 C   0  0  2  0  0  3  0  0  0  0  0  0
  186.6060  172.8240  137.4850 N   0  0  0  0  0  2  0  0  0  0  0  0
  187.1650  175.1460  136.9850 C   0  0  0  0  0  2  0  0  0  0  0  0
  189.7600  172.8780  136.0120 O   0  0  0  0  0  0  0  0  0  0  0  0
  188.6200  173.2770  136.1920 C   0  0  0  0  0  0  0  0  0  0  0  0
  187.5190  172.2960  136.4700 C   0  0  0  0  0  2  0  0  0  0  0  0
  186.0580  174.0960  137.0160 C   0  0  0  0  0  2  0  0  0  0  0  0
  190.4160  176.6010  140.8030 N   0  0  0  0  0  2  0  0  0  0  0  0
  189.2450  177.0370  141.5630 C   0  0  0  0  0  2  0  0  0  0  0  0
  189.9560  175.1960  142.9010 F   0  0  0  0  0  0  0  0  0  0  0  0
  189.2030  176.3590  142.9260 C   0  0  1  0  0  3  0  0  0  0  0  0
  189.7030  177.3000  144.0180 C   0  0  0  0  0  2  0  0  0  0  0  0
  187.3530  177.6740  144.9380 C   0  0  0  0  0  2  0  0  0  0  0  0
  189.3460  177.0660  146.4160 C   0  0  0  0  0  3  0  0  0  0  0  0
  186.6870  178.4160  147.2140 C   0  0  0  0  0  0  0  0  0  0  0  0
  188.7920  177.2810  145.2040 C   0  0  0  0  0  0  0  0  0  0  0  0
  187.7580  178.1950  147.9780 C   0  0  0  0  0  3  0  0  0  0  0  0
  188.6370  177.0060  147.7420 C   0  0  0  0  0  2  0  0  0  0  0  0
  185.8790  179.4760  147.4790 F   0  0  0  0  0  0  0  0  0  0  0  0
  186.3580  177.4920  146.0820 C   0  0  0  0  0  2  0  0  0  0  0  0
  1  8  1  6  0  0  0
  1  7  1  0  0  0  0
  2  5  1  0  0  0  0
  4  2  1  0  0  0  0
  5 16  1  1  0  0  0
  6  1  1  0  0  0  0
  6  4  2  0  0  0  0
  7  3  2  0  0  0  0
  7  5  1  0  0  0  0
  9 13  1  0  0  0  0
  9  8  1  1  0  0  0
  9 11  1  0  0  0  0
 11 15  1  0  0  0  0
 12 13  2  0  0  0  0
 13 14  1  0  0  0  0
 14 10  1  0  0  0  0
 15 10  1  0  0  0  0
 16 17  1  0  0  0  0
 17 19  1  0  0  0  0
 19 18  1  6  0  0  0
 19 20  1  0  0  0  0
 20 24  1  0  0  0  0
 21 24  1  0  0  0  0
 21 28  1  0  0  0  0
 22 26  1  0  0  0  0
 23 27  1  0  0  0  0
 23 25  2  0  0  0  0
 24 22  2  0  0  0  0
 26 25  1  0  0  0  0
 28 23  1  0  0  0  0
M  END
>  <MODEL>
8

>  <REMARK>
 VINA RESULT:      -7.6      2.814      4.929
  Name = 
  7 active torsions:
  status: ('A' for Active; 'I' for Inactive)
    1  A    between atoms: C_1  and  O_2
    2  A    between atoms: O_2  and  C_3
    3  A    between atoms: N_5  and  C_20
    4  A    between atoms: N_5  and  C_21
    5  A    between atoms: C_10  and  C_13
    6  A    between atoms: C_10  and  C_25
    7  A    between atoms: C_20  and  C_25
                            x       y       z     vdW  Elec       q    Type
                         _______ _______ _______ _____ _____    ______ ____

>  <TORSDO>
F 7

$$$$
=
 OpenBabel10262420443D

 28 30  0  0  1  0  0  0  0  0999 V2000
  190.5160  176.7770  138.2380 C   0  0  2  0  0  3  0  0  0  0  0  0
  187.8990  177.7940  138.8060 C   0  0  0  0  0  2  0  0  0  0  0  0
  191.1650  177.3530  140.4510 O   0  0  0  0  0  0  0  0  0  0  0  0
  188.5390  178.0510  137.4690 C   0  0  0  0  0  3  0  0  0  0  0  0
  188.9200  177.9490  139.9500 C   0  0  2  0  0  3  0  0  0  0  0  0
  189.7620  177.5700  137.2030 C   0  0  0  0  0  3  0  0  0  0  0  0
  190.2780  177.3620  139.6110 C   0  0  0  0  0  0  0  0  0  0  0  0
  191.8810  176.7720  137.9260 O   0  0  0  0  0  0  0  0  0  0  0  0
  192.0150  175.8440  136.8860 C   0  0  2  0  0  3  0  0  0  0  0  0
  193.4400  173.3590  136.2720 N   0  0  0  0  0  2  0  0  0  0  0  0
  191.5570  174.4640  137.3630 C   0  0  0  0  0  2  0  0  0  0  0  0
  194.1900  176.7480  136.5410 O   0  0  0  0  0  0  0  0  0  0  0  0
  193.4440  175.7910  136.4040 C   0  0  0  0  0  0  0  0  0  0  0  0
  193.9000  174.5900  135.6280 C   0  0  0  0  0  2  0  0  0  0  0  0
  191.9800  173.3890  136.3660 C   0  0  0  0  0  2  0  0  0  0  0  0
  188.3930  177.4270  141.2160 N   0  0  0  0  0  2  0  0  0  0  0  0
  187.4760  178.3890  141.8270 C   0  0  0  0  0  2  0  0  0  0  0  0
  185.5770  177.4940  142.9560 F   0  0  0  0  0  0  0  0  0  0  0  0
  186.9070  177.8400  143.1280 C   0  0  1  0  0  3  0  0  0  0  0  0
  187.7170  176.6410  143.6130 C   0  0  0  0  0  2  0  0  0  0  0  0
  190.1990  176.8890  144.1520 C   0  0  0  0  0  2  0  0  0  0  0  0
  188.3500  177.4060  145.8380 C   0  0  0  0  0  3  0  0  0  0  0  0
  191.3190  176.7450  146.3650 C   0  0  0  0  0  0  0  0  0  0  0  0
  188.7610  177.0590  144.6000 C   0  0  0  0  0  0  0  0  0  0  0  0
  190.3430  176.9150  147.2590 C   0  0  0  0  0  3  0  0  0  0  0  0
  189.2090  177.8540  146.9890 C   0  0  0  0  0  2  0  0  0  0  0  0
  192.3610  175.9220  146.6550 F   0  0  0  0  0  0  0  0  0  0  0  0
  191.2830  177.4700  145.0550 C   0  0  0  0  0  2  0  0  0  0  0  0
  1  8  1  6  0  0  0
  1  7  1  0  0  0  0
  2  5  1  0  0  0  0
  4  2  1  0  0  0  0
  5 16  1  1  0  0  0
  6  4  2  0  0  0  0
  6  1  1  0  0  0  0
  7  5  1  0  0  0  0
  7  3  2  0  0  0  0
  9 11  1  0  0  0  0
  9  8  1  1  0  0  0
 10 15  1  0  0  0  0
 13 12  2  0  0  0  0
 13  9  1  0  0  0  0
 14 10  1  0  0  0  0
 14 13  1  0  0  0  0
 15 11  1  0  0  0  0
 16 17  1  0  0  0  0
 17 19  1  0  0  0  0
 19 18  1  6  0  0  0
 19 20  1  0  0  0  0
 20 24  1  0  0  0  0
 21 24  1  0  0  0  0
 21 28  1  0  0  0  0
 22 26  1  0  0  0  0
 23 27  1  0  0  0  0
 23 25  2  0  0  0  0
 24 22  2  0  0  0  0
 26 25  1  0  0  0  0
 28 23  1  0  0  0  0
M  END
>  <MODEL>
9

>  <REMARK>
 VINA RESULT:      -7.6      2.723      5.447
  Name = 
  7 active torsions:
  status: ('A' for Active; 'I' for Inactive)
    1  A    between atoms: C_1  and  O_2
    2  A    between atoms: O_2  and  C_3
    3  A    between atoms: N_5  and  C_20
    4  A    between atoms: N_5  and  C_21
    5  A    between atoms: C_10  and  C_13
    6  A    between atoms: C_10  and  C_25
    7  A    between atoms: C_20  and  C_25
                            x       y       z     vdW  Elec       q    Type
                         _______ _______ _______ _____ _____    ______ ____

>  <TORSDO>
F 7

$$$$
