=
 OpenBabel10262421223D

 32 38  0  0  1  0  0  0  0  0999 V2000
  189.6250  177.8020  136.9240 C   0  0  1  0  0  3  0  0  0  0  0  0
  188.7020  177.3740  141.8100 C   0  0  0  0  0  0  0  0  0  0  0  0
  183.9850  178.6310  142.3080 C   0  0  0  0  0  2  0  0  0  0  0  0
  184.1800  178.9740  143.7710 C   0  0  0  0  0  2  0  0  0  0  0  0
  189.7400  177.3550  139.7690 C   0  0  0  0  0  0  0  0  0  0  0  0
  187.6700  178.5240  139.9670 N   0  0  0  0  0  0  0  0  0  0  0  0
  188.8590  178.6320  137.8960 C   0  0  0  0  0  2  0  0  0  0  0  0
  185.2710  179.1400  141.5010 C   0  0  0  0  0  2  0  0  0  0  0  0
  187.6250  178.1530  141.3180 C   0  0  0  0  0  0  0  0  0  0  0  0
  186.5290  178.5060  142.1150 C   0  0  0  0  0  0  0  0  0  0  0  0
  187.6790  177.4100  144.0120 C   0  0  0  0  0  0  0  0  0  0  0  0
  190.7040  176.7950  137.4330 C   0  0  1  0  0  3  0  0  0  0  0  0
  188.7170  178.1290  139.2450 C   0  0  0  0  0  0  0  0  0  0  0  0
  190.9360  176.9070  139.0050 C   0  0  0  0  0  2  0  0  0  0  0  0
  189.3330  176.2940  136.9750 C   0  0  2  0  0  3  0  0  0  0  0  0
  185.3880  178.2680  144.3030 C   0  0  0  0  0  2  0  0  0  0  0  0
  186.6050  178.1580  143.4780 C   0  0  0  0  0  0  0  0  0  0  0  0
  189.7330  176.9940  141.0460 N   0  0  0  0  0  0  0  0  0  0  0  0
  188.7310  176.9990  143.1720 C   0  0  0  0  0  0  0  0  0  0  0  0
  189.9230  176.3960  143.7750 C   0  0  0  0  0  3  0  0  0  0  0  0
  190.9860  177.0460  144.0910 N   0  0  0  0  0  2  0  0  0  0  0  0
  189.1380  176.0010  135.4010 C   0  0  0  0  0  2  0  0  0  0  0  0
  189.1130  174.5500  134.9550 C   0  0  0  0  0  0  0  0  0  0  0  0
  187.9820  173.8160  134.9770 O   0  0  0  0  0  1  0  0  0  0  0  0
  190.2030  173.9960  134.6610 O   0  0  0  0  0  0  0  0  0  0  0  0
  187.3470  176.7520  145.3600 C   0  0  0  0  0  2  0  0  0  0  0  0
  188.3060  177.2490  148.1270 C   0  0  0  0  0  0  0  0  0  0  0  0
  189.3340  176.7600  147.3440 C   0  0  0  0  0  0  0  0  0  0  0  0
  189.0690  178.6270  148.1850 C   0  0  0  0  0  2  0  0  0  0  0  0
  187.6010  178.6280  148.4250 C   0  0  0  0  0  2  0  0  0  0  0  0
  190.5440  176.3860  147.2590 O   0  0  0  0  0  0  0  0  0  0  0  0
  187.9830  176.9930  146.7230 N   0  0  0  0  0  0  0  0  0  0  0  0
  1 15  1  0  0  0  0
  1 12  1  0  0  0  0
  1  7  1  1  0  0  0
  2 19  1  0  0  0  0
  3  4  1  0  0  0  0
  4 16  1  0  0  0  0
  5 18  1  0  0  0  0
  6  9  2  0  0  0  0
  7 13  1  0  0  0  0
  8 10  1  0  0  0  0
  8  3  1  0  0  0  0
  9  2  1  0  0  0  0
  9 10  1  0  0  0  0
 10 17  2  0  0  0  0
 11 26  1  0  0  0  0
 12 14  1  1  0  0  0
 13  5  2  0  0  0  0
 13  6  1  0  0  0  0
 14  5  1  0  0  0  0
 15 22  1  6  0  0  0
 15 12  1  0  0  0  0
 17 11  1  0  0  0  0
 17 16  1  0  0  0  0
 18  2  2  0  0  0  0
 19 20  1  0  0  0  0
 19 11  2  0  0  0  0
 20 21  2  0  0  0  0
 23 24  1  0  0  0  0
 23 22  1  0  0  0  0
 25 23  2  0  0  0  0
 26 32  1  0  0  0  0
 27 29  1  0  0  0  0
 27 30  1  0  0  0  0
 28 27  1  0  0  0  0
 29 30  1  0  0  0  0
 31 28  2  0  0  0  0
 32 28  1  0  0  0  0
 32 27  1  0  0  0  0
M  END
>  <MODEL>
1

>  <REMARK>
 VINA RESULT:      -9.0      0.000      0.000
  Name = 
  5 active torsions:
  status: ('A' for Active; 'I' for Inactive)
    1  A    between atoms: C_1  and  C_10
    2  A    between atoms: C_6  and  C_31
    3  A    between atoms: C_10  and  C_24
    4  A    between atoms: C_16  and  C_27
    5  A    between atoms: C_27  and  N_32
                            x       y       z     vdW  Elec       q    Type
                         _______ _______ _______ _____ _____    ______ ____

>  <TORSDO>
F 5

$$$$
=
 OpenBabel10262421223D

 32 38  0  0  1  0  0  0  0  0999 V2000
  188.2820  177.9200  136.0040 C   0  0  1  0  0  3  0  0  0  0  0  0
  188.8310  177.4880  140.9450 C   0  0  0  0  0  0  0  0  0  0  0  0
  184.3630  178.3490  142.7810 C   0  0  0  0  0  2  0  0  0  0  0  0
  184.9380  178.7290  144.1320 C   0  0  0  0  0  2  0  0  0  0  0  0
  189.2420  177.5260  138.6920 C   0  0  0  0  0  0  0  0  0  0  0  0
  187.2220  178.5190  139.4850 N   0  0  0  0  0  0  0  0  0  0  0  0
  187.7580  178.6960  137.1620 C   0  0  0  0  0  2  0  0  0  0  0  0
  185.3180  178.9530  141.6460 C   0  0  0  0  0  2  0  0  0  0  0  0
  187.5970  178.1660  140.7890 C   0  0  0  0  0  0  0  0  0  0  0  0
  186.7470  178.4370  141.8690 C   0  0  0  0  0  0  0  0  0  0  0  0
  188.4800  177.4700  143.3480 C   0  0  0  0  0  0  0  0  0  0  0  0
  189.5430  177.0150  136.1740 C   0  0  1  0  0  3  0  0  0  0  0  0
  188.0500  178.2030  138.4900 C   0  0  0  0  0  0  0  0  0  0  0  0
  190.2040  177.1700  137.6150 C   0  0  0  0  0  2  0  0  0  0  0  0
  188.1460  176.3930  136.1210 C   0  0  2  0  0  3  0  0  0  0  0  0
  186.3030  178.1350  144.2900 C   0  0  0  0  0  2  0  0  0  0  0  0
  187.2390  178.1160  143.1500 C   0  0  0  0  0  0  0  0  0  0  0  0
  189.6300  177.1850  139.9150 N   0  0  0  0  0  0  0  0  0  0  0  0
  189.2790  177.1370  142.2390 C   0  0  0  0  0  0  0  0  0  0  0  0
  190.6410  176.6460  142.4700 C   0  0  0  0  0  3  0  0  0  0  0  0
  191.6860  177.3920  142.5080 N   0  0  0  0  0  2  0  0  0  0  0  0
  187.5360  176.0620  134.6650 C   0  0  0  0  0  2  0  0  0  0  0  0
  186.3370  175.1320  134.6030 C   0  0  0  0  0  0  0  0  0  0  0  0
  185.0720  175.5980  134.5940 O   0  0  0  0  0  0  0  0  0  0  0  0
  186.5380  173.8920  134.6680 O   0  0  0  0  0  1  0  0  0  0  0  0
  188.6030  176.8060  144.7280 C   0  0  0  0  0  2  0  0  0  0  0  0
  190.8060  177.3600  146.6420 C   0  0  0  0  0  0  0  0  0  0  0  0
  189.5890  177.3800  147.2940 C   0  0  0  0  0  0  0  0  0  0  0  0
  191.1600  176.0480  147.4410 C   0  0  0  0  0  2  0  0  0  0  0  0
  191.8710  176.3020  146.1580 C   0  0  0  0  0  2  0  0  0  0  0  0
  188.9430  177.5560  148.3720 O   0  0  0  0  0  0  0  0  0  0  0  0
  189.6290  177.0650  145.8230 N   0  0  0  0  0  0  0  0  0  0  0  0
  1 15  1  0  0  0  0
  1 12  1  0  0  0  0
  1  7  1  1  0  0  0
  2 19  1  0  0  0  0
  3  4  1  0  0  0  0
  4 16  1  0  0  0  0
  5 18  1  0  0  0  0
  6  9  2  0  0  0  0
  7 13  1  0  0  0  0
  8 10  1  0  0  0  0
  8  3  1  0  0  0  0
  9  2  1  0  0  0  0
  9 10  1  0  0  0  0
 10 17  2  0  0  0  0
 11 26  1  0  0  0  0
 12 14  1  1  0  0  0
 13  5  2  0  0  0  0
 13  6  1  0  0  0  0
 14  5  1  0  0  0  0
 15 22  1  6  0  0  0
 15 12  1  0  0  0  0
 17 11  1  0  0  0  0
 17 16  1  0  0  0  0
 18  2  2  0  0  0  0
 19 20  1  0  0  0  0
 19 11  2  0  0  0  0
 20 21  2  0  0  0  0
 23 22  1  0  0  0  0
 23 25  1  0  0  0  0
 24 23  2  0  0  0  0
 26 32  1  0  0  0  0
 27 28  1  0  0  0  0
 27 29  1  0  0  0  0
 28 31  2  0  0  0  0
 30 27  1  0  0  0  0
 30 29  1  0  0  0  0
 32 27  1  0  0  0  0
 32 28  1  0  0  0  0
M  END
>  <MODEL>
2

>  <REMARK>
 VINA RESULT:      -9.0      1.501      1.971
  Name = 
  5 active torsions:
  status: ('A' for Active; 'I' for Inactive)
    1  A    between atoms: C_1  and  C_10
    2  A    between atoms: C_6  and  C_31
    3  A    between atoms: C_10  and  C_24
    4  A    between atoms: C_16  and  C_27
    5  A    between atoms: C_27  and  N_32
                            x       y       z     vdW  Elec       q    Type
                         _______ _______ _______ _____ _____    ______ ____

>  <TORSDO>
F 5

$$$$
=
 OpenBabel10262421223D

 32 38  0  0  1  0  0  0  0  0999 V2000
  184.1010  178.9090  138.2830 C   0  0  1  0  0  3  0  0  0  0  0  0
  187.0790  178.0040  142.1830 C   0  0  0  0  0  0  0  0  0  0  0  0
  184.1480  178.3530  146.1030 C   0  0  0  0  0  2  0  0  0  0  0  0
  185.3240  178.6290  147.0190 C   0  0  0  0  0  2  0  0  0  0  0  0
  186.2930  178.3050  140.0540 C   0  0  0  0  0  0  0  0  0  0  0  0
  184.9450  179.0660  141.8690 N   0  0  0  0  0  0  0  0  0  0  0  0
  184.2300  179.5220  139.6340 C   0  0  0  0  0  2  0  0  0  0  0  0
  184.3920  179.1370  144.7290 C   0  0  0  0  0  2  0  0  0  0  0  0
  185.9300  178.6060  142.7540 C   0  0  0  0  0  0  0  0  0  0  0  0
  185.7420  178.7020  144.1380 C   0  0  0  0  0  0  0  0  0  0  0  0
  187.9920  177.7090  144.4150 C   0  0  0  0  0  0  0  0  0  0  0  0
  185.2820  178.0830  137.6830 C   0  0  1  0  0  3  0  0  0  0  0  0
  185.1570  178.9150  140.5630 C   0  0  0  0  0  0  0  0  0  0  0  0
  186.5800  178.1320  138.6050 C   0  0  0  0  0  2  0  0  0  0  0  0
  184.0550  177.3730  138.2590 C   0  0  2  0  0  3  0  0  0  0  0  0
  186.5860  178.1190  146.3960 C   0  0  0  0  0  2  0  0  0  0  0  0
  186.8160  178.2850  144.9480 C   0  0  0  0  0  0  0  0  0  0  0  0
  187.2490  177.8660  140.8630 N   0  0  0  0  0  0  0  0  0  0  0  0
  188.1230  177.5510  143.0230 C   0  0  0  0  0  0  0  0  0  0  0  0
  189.4180  177.1350  142.4760 C   0  0  0  0  0  3  0  0  0  0  0  0
  190.4110  177.9260  142.2770 N   0  0  0  0  0  2  0  0  0  0  0  0
  182.7950  177.1540  137.2770 C   0  0  0  0  0  2  0  0  0  0  0  0
  181.4420  177.6580  137.7490 C   0  0  0  0  0  0  0  0  0  0  0  0
  180.7590  178.6050  137.0750 O   0  0  0  0  0  0  0  0  0  0  0  0
  181.0060  177.2510  138.8560 O   0  0  0  0  0  1  0  0  0  0  0  0
  188.8010  176.9160  145.4510 C   0  0  0  0  0  2  0  0  0  0  0  0
  191.7610  176.6660  145.3940 C   0  0  0  0  0  0  0  0  0  0  0  0
  191.3250  176.9000  146.6830 C   0  0  0  0  0  0  0  0  0  0  0  0
  192.1820  175.2170  145.8490 C   0  0  0  0  0  2  0  0  0  0  0  0
  191.9210  175.4500  144.4030 C   0  0  0  0  0  2  0  0  0  0  0  0
  191.6140  177.0910  147.9050 O   0  0  0  0  0  0  0  0  0  0  0  0
  190.3130  176.7740  145.5770 N   0  0  0  0  0  0  0  0  0  0  0  0
  1  7  1  1  0  0  0
  2  9  1  0  0  0  0
  2 19  1  0  0  0  0
  3  4  1  0  0  0  0
  5 13  2  0  0  0  0
  5 18  1  0  0  0  0
  6  9  2  0  0  0  0
  7 13  1  0  0  0  0
  8  3  1  0  0  0  0
  9 10  1  0  0  0  0
 10  8  1  0  0  0  0
 10 17  2  0  0  0  0
 11 17  1  0  0  0  0
 11 26  1  0  0  0  0
 12 15  1  0  0  0  0
 12  1  1  0  0  0  0
 12 14  1  1  0  0  0
 13  6  1  0  0  0  0
 14  5  1  0  0  0  0
 15 22  1  6  0  0  0
 15  1  1  0  0  0  0
 16  4  1  0  0  0  0
 17 16  1  0  0  0  0
 18  2  2  0  0  0  0
 19 11  2  0  0  0  0
 20 19  1  0  0  0  0
 21 20  2  0  0  0  0
 22 23  1  0  0  0  0
 23 25  1  0  0  0  0
 24 23  2  0  0  0  0
 26 32  1  0  0  0  0
 27 32  1  0  0  0  0
 27 29  1  0  0  0  0
 27 28  1  0  0  0  0
 28 31  2  0  0  0  0
 30 27  1  0  0  0  0
 30 29  1  0  0  0  0
 32 28  1  0  0  0  0
M  END
>  <MODEL>
3

>  <REMARK>
 VINA RESULT:      -8.0      3.438      4.592
  Name = 
  5 active torsions:
  status: ('A' for Active; 'I' for Inactive)
    1  A    between atoms: C_1  and  C_10
    2  A    between atoms: C_6  and  C_31
    3  A    between atoms: C_10  and  C_24
    4  A    between atoms: C_16  and  C_27
    5  A    between atoms: C_27  and  N_32
                            x       y       z     vdW  Elec       q    Type
                         _______ _______ _______ _____ _____    ______ ____

>  <TORSDO>
F 5

$$$$
=
 OpenBabel10262421223D

 32 38  0  0  1  0  0  0  0  0999 V2000
  182.1710  178.6290  140.5380 C   0  0  1  0  0  3  0  0  0  0  0  0
  187.1240  178.3100  140.0270 C   0  0  0  0  0  0  0  0  0  0  0  0
  188.7280  176.6750  144.3670 C   0  0  0  0  0  2  0  0  0  0  0  0
  190.1160  177.2320  144.1190 C   0  0  0  0  0  2  0  0  0  0  0  0
  184.9000  178.6570  139.6120 C   0  0  0  0  0  0  0  0  0  0  0  0
  185.5990  178.4380  141.8820 N   0  0  0  0  0  0  0  0  0  0  0  0
  183.3140  178.9730  141.4290 C   0  0  0  0  0  2  0  0  0  0  0  0
  187.6600  177.7340  143.8170 C   0  0  0  0  0  2  0  0  0  0  0  0
  186.9150  178.2660  141.4280 C   0  0  0  0  0  0  0  0  0  0  0  0
  187.9510  178.0130  142.3350 C   0  0  0  0  0  0  0  0  0  0  0  0
  189.5040  178.0020  140.4080 C   0  0  0  0  0  0  0  0  0  0  0  0
  182.3910  178.4910  138.9990 C   0  0  1  0  0  3  0  0  0  0  0  0
  184.6460  178.6380  140.9750 C   0  0  0  0  0  0  0  0  0  0  0  0
  183.8700  178.8940  138.5650 C   0  0  0  0  0  2  0  0  0  0  0  0
  182.2470  177.2450  139.8750 C   0  0  2  0  0  3  0  0  0  0  0  0
  190.3370  177.4140  142.6500 C   0  0  0  0  0  2  0  0  0  0  0  0
  189.2500  177.9300  141.7960 C   0  0  0  0  0  0  0  0  0  0  0  0
  186.1340  178.5060  139.1490 N   0  0  0  0  0  0  0  0  0  0  0  0
  188.4340  178.1770  139.5110 C   0  0  0  0  0  0  0  0  0  0  0  0
  188.7290  178.4430  138.0990 C   0  0  0  0  0  3  0  0  0  0  0  0
  188.9930  179.6040  137.6180 N   0  0  0  0  0  2  0  0  0  0  0  0
  180.7540  176.7160  140.1740 C   0  0  0  0  0  2  0  0  0  0  0  0
  180.4140  175.2970  139.7520 C   0  0  0  0  0  0  0  0  0  0  0  0
  179.7810  174.4390  140.5780 O   0  0  0  0  0  1  0  0  0  0  0  0
  180.8330  174.8880  138.6390 O   0  0  0  0  0  0  0  0  0  0  0  0
  190.8740  177.4310  140.0120 C   0  0  0  0  0  2  0  0  0  0  0  0
  191.3860  176.1320  137.3900 C   0  0  0  0  0  0  0  0  0  0  0  0
  192.5800  176.4370  138.0150 C   0  0  0  0  0  0  0  0  0  0  0  0
  191.7160  174.6060  137.6080 C   0  0  0  0  0  2  0  0  0  0  0  0
  190.2920  174.9960  137.4210 C   0  0  0  0  0  2  0  0  0  0  0  0
  193.8480  176.4430  137.9780 O   0  0  0  0  0  0  0  0  0  0  0  0
  191.2840  176.7460  138.7150 N   0  0  0  0  0  0  0  0  0  0  0  0
  1  7  1  1  0  0  0
  2  9  1  0  0  0  0
  4  3  1  0  0  0  0
  5 13  1  0  0  0  0
  8  3  1  0  0  0  0
  9  6  1  0  0  0  0
  9 10  2  0  0  0  0
 10  8  1  0  0  0  0
 11 17  2  0  0  0  0
 12 14  1  1  0  0  0
 12 15  1  0  0  0  0
 12  1  1  0  0  0  0
 13  7  1  0  0  0  0
 13  6  2  0  0  0  0
 14  5  1  0  0  0  0
 15 22  1  6  0  0  0
 15  1  1  0  0  0  0
 16  4  1  0  0  0  0
 17 10  1  0  0  0  0
 17 16  1  0  0  0  0
 18  5  2  0  0  0  0
 18  2  1  0  0  0  0
 19  2  2  0  0  0  0
 19 11  1  0  0  0  0
 20 19  1  0  0  0  0
 21 20  2  0  0  0  0
 23 22  1  0  0  0  0
 23 24  1  0  0  0  0
 25 23  2  0  0  0  0
 26 11  1  0  0  0  0
 27 30  1  0  0  0  0
 27 29  1  0  0  0  0
 27 28  1  0  0  0  0
 27 32  1  0  0  0  0
 28 32  1  0  0  0  0
 30 29  1  0  0  0  0
 31 28  2  0  0  0  0
 32 26  1  0  0  0  0
M  END
>  <MODEL>
4

>  <REMARK>
 VINA RESULT:      -7.8      3.347      7.360
  Name = 
  5 active torsions:
  status: ('A' for Active; 'I' for Inactive)
    1  A    between atoms: C_1  and  C_10
    2  A    between atoms: C_6  and  C_31
    3  A    between atoms: C_10  and  C_24
    4  A    between atoms: C_16  and  C_27
    5  A    between atoms: C_27  and  N_32
                            x       y       z     vdW  Elec       q    Type
                         _______ _______ _______ _____ _____    ______ ____

>  <TORSDO>
F 5

$$$$
=
 OpenBabel10262421223D

 32 38  0  0  1  0  0  0  0  0999 V2000
  190.3710  178.1390  144.9380 C   0  0  1  0  0  3  0  0  0  0  0  0
  189.4810  177.3770  140.0870 C   0  0  0  0  0  0  0  0  0  0  0  0
  193.6930  175.5980  138.3060 C   0  0  0  0  0  2  0  0  0  0  0  0
  193.3360  176.0280  136.8970 C   0  0  0  0  0  2  0  0  0  0  0  0
  189.2370  177.9230  142.2970 C   0  0  0  0  0  0  0  0  0  0  0  0
  191.4480  177.6390  141.4460 N   0  0  0  0  0  0  0  0  0  0  0  0
  191.1690  178.3770  143.7020 C   0  0  0  0  0  2  0  0  0  0  0  0
  193.2220  176.7500  139.3130 C   0  0  0  0  0  2  0  0  0  0  0  0
  190.8940  177.3500  140.1910 C   0  0  0  0  0  0  0  0  0  0  0  0
  191.7200  177.0040  139.1140 C   0  0  0  0  0  0  0  0  0  0  0  0
  189.6780  176.8550  137.7230 C   0  0  0  0  0  0  0  0  0  0  0  0
  188.8200  177.9840  144.8500 C   0  0  1  0  0  3  0  0  0  0  0  0
  190.6150  177.9240  142.4450 C   0  0  0  0  0  0  0  0  0  0  0  0
  188.2710  178.2530  143.3790 C   0  0  0  0  0  2  0  0  0  0  0  0
  189.7110  176.7540  145.0370 C   0  0  2  0  0  3  0  0  0  0  0  0
  191.8530  176.1920  136.7750 C   0  0  0  0  0  2  0  0  0  0  0  0
  191.0830  176.8050  137.8730 C   0  0  0  0  0  0  0  0  0  0  0  0
  188.6810  177.6620  141.1210 N   0  0  0  0  0  0  0  0  0  0  0  0
  188.8650  177.1280  138.8390 C   0  0  0  0  0  0  0  0  0  0  0  0
  187.4340  177.3680  138.6310 C   0  0  0  0  0  3  0  0  0  0  0  0
  186.9440  178.4410  138.1230 N   0  0  0  0  0  2  0  0  0  0  0  0
  190.1280  176.3610  146.5450 C   0  0  0  0  0  2  0  0  0  0  0  0
  191.6100  176.2770  146.8630 C   0  0  0  0  0  0  0  0  0  0  0  0
  192.4290  175.4170  146.2230 O   0  0  0  0  0  0  0  0  0  0  0  0
  192.0560  176.9560  147.8230 O   0  0  0  0  0  1  0  0  0  0  0  0
  189.1810  176.1650  136.4440 C   0  0  0  0  0  2  0  0  0  0  0  0
  186.9710  174.2450  135.9400 C   0  0  0  0  0  0  0  0  0  0  0  0
  187.9780  173.6360  136.6640 C   0  0  0  0  0  0  0  0  0  0  0  0
  186.0540  174.1410  137.2180 C   0  0  0  0  0  2  0  0  0  0  0  0
  185.7250  175.1760  136.2010 C   0  0  0  0  0  2  0  0  0  0  0  0
  188.4300  172.5870  137.2180 O   0  0  0  0  0  0  0  0  0  0  0  0
  188.1130  175.0890  136.2940 N   0  0  0  0  0  0  0  0  0  0  0  0
  1  7  1  6  0  0  0
  1 15  1  0  0  0  0
  2  9  1  0  0  0  0
  2 18  1  0  0  0  0
  3  8  1  0  0  0  0
  4  3  1  0  0  0  0
  5 13  1  0  0  0  0
  5 14  1  0  0  0  0
  6 13  2  0  0  0  0
  9  6  1  0  0  0  0
 10  8  1  0  0  0  0
 10  9  2  0  0  0  0
 11 17  2  0  0  0  0
 11 19  1  0  0  0  0
 12 14  1  6  0  0  0
 12  1  1  0  0  0  0
 12 15  1  0  0  0  0
 13  7  1  0  0  0  0
 15 22  1  1  0  0  0
 16  4  1  0  0  0  0
 16 17  1  0  0  0  0
 17 10  1  0  0  0  0
 18  5  2  0  0  0  0
 19  2  2  0  0  0  0
 20 19  1  0  0  0  0
 21 20  2  0  0  0  0
 22 23  1  0  0  0  0
 23 25  1  0  0  0  0
 24 23  2  0  0  0  0
 26 11  1  0  0  0  0
 27 30  1  0  0  0  0
 27 32  1  0  0  0  0
 27 28  1  0  0  0  0
 27 29  1  0  0  0  0
 28 31  2  0  0  0  0
 30 29  1  0  0  0  0
 32 26  1  0  0  0  0
 32 28  1  0  0  0  0
M  END
>  <MODEL>
5

>  <REMARK>
 VINA RESULT:      -7.8      2.445      8.867
  Name = 
  5 active torsions:
  status: ('A' for Active; 'I' for Inactive)
    1  A    between atoms: C_1  and  C_10
    2  A    between atoms: C_6  and  C_31
    3  A    between atoms: C_10  and  C_24
    4  A    between atoms: C_16  and  C_27
    5  A    between atoms: C_27  and  N_32
                            x       y       z     vdW  Elec       q    Type
                         _______ _______ _______ _____ _____    ______ ____

>  <TORSDO>
F 5

$$$$
=
 OpenBabel10262421223D

 32 38  0  0  1  0  0  0  0  0999 V2000
  191.1640  177.7380  145.1710 C   0  0  1  0  0  3  0  0  0  0  0  0
  186.6940  178.1790  142.9980 C   0  0  0  0  0  0  0  0  0  0  0  0
  187.5560  177.5110  138.2140 C   0  0  0  0  0  2  0  0  0  0  0  0
  186.2880  178.2490  137.8320 C   0  0  0  0  0  2  0  0  0  0  0  0
  188.3700  178.0820  144.5540 C   0  0  0  0  0  0  0  0  0  0  0  0
  188.9780  178.3290  142.2610 N   0  0  0  0  0  0  0  0  0  0  0  0
  190.6970  178.3990  143.9210 C   0  0  0  0  0  2  0  0  0  0  0  0
  188.2290  178.2810  139.4460 C   0  0  0  0  0  2  0  0  0  0  0  0
  187.6150  178.3130  141.9300 C   0  0  0  0  0  0  0  0  0  0  0  0
  187.2100  178.3780  140.5910 C   0  0  0  0  0  0  0  0  0  0  0  0
  184.8710  178.3350  141.4000 C   0  0  0  0  0  0  0  0  0  0  0  0
  190.1480  177.4080  146.3090 C   0  0  1  0  0  3  0  0  0  0  0  0
  189.3100  178.2270  143.5460 C   0  0  0  0  0  0  0  0  0  0  0  0
  188.6940  177.9830  146.0030 C   0  0  0  0  0  2  0  0  0  0  0  0
  190.6590  176.3020  145.3840 C   0  0  2  0  0  3  0  0  0  0  0  0
  185.3290  178.2420  138.9810 C   0  0  0  0  0  2  0  0  0  0  0  0
  185.8220  178.4330  140.3580 C   0  0  0  0  0  0  0  0  0  0  0  0
  187.0730  178.0720  144.2760 N   0  0  0  0  0  0  0  0  0  0  0  0
  185.3060  178.1910  142.7300 C   0  0  0  0  0  0  0  0  0  0  0  0
  184.3200  178.2870  143.8110 C   0  0  0  0  0  3  0  0  0  0  0  0
  183.9210  179.3890  144.3370 N   0  0  0  0  0  2  0  0  0  0  0  0
  192.0460  175.5810  145.7830 C   0  0  0  0  0  2  0  0  0  0  0  0
  192.3660  175.4470  147.2610 C   0  0  0  0  0  0  0  0  0  0  0  0
  193.5400  175.8650  147.7770 O   0  0  0  0  0  0  0  0  0  0  0  0
  191.5510  174.8330  147.9960 O   0  0  0  0  0  1  0  0  0  0  0  0
  183.4690  177.9490  140.9060 C   0  0  0  0  0  2  0  0  0  0  0  0
  180.9890  179.3730  141.7070 C   0  0  0  0  0  0  0  0  0  0  0  0
  180.9660  179.0980  140.3540 C   0  0  0  0  0  0  0  0  0  0  0  0
  179.8150  178.3370  141.8890 C   0  0  0  0  0  2  0  0  0  0  0  0
  180.6710  178.6410  143.0670 C   0  0  0  0  0  2  0  0  0  0  0  0
  180.3650  179.1960  139.2400 O   0  0  0  0  0  0  0  0  0  0  0  0
  182.1380  178.6380  141.1790 N   0  0  0  0  0  0  0  0  0  0  0  0
  1  7  1  6  0  0  0
  1 15  1  0  0  0  0
  1 12  1  0  0  0  0
  2 18  2  0  0  0  0
  3  8  1  0  0  0  0
  4  3  1  0  0  0  0
  4 16  1  0  0  0  0
  5 14  1  0  0  0  0
  6 13  1  0  0  0  0
  8 10  1  0  0  0  0
  9  6  2  0  0  0  0
  9  2  1  0  0  0  0
 10  9  1  0  0  0  0
 11 19  2  0  0  0  0
 12 14  1  6  0  0  0
 13  7  1  0  0  0  0
 13  5  2  0  0  0  0
 15 22  1  1  0  0  0
 15 12  1  0  0  0  0
 16 17  1  0  0  0  0
 17 10  2  0  0  0  0
 17 11  1  0  0  0  0
 18  5  1  0  0  0  0
 19  2  1  0  0  0  0
 19 20  1  0  0  0  0
 20 21  2  0  0  0  0
 22 23  1  0  0  0  0
 23 24  2  0  0  0  0
 23 25  1  0  0  0  0
 26 32  1  0  0  0  0
 26 11  1  0  0  0  0
 27 29  1  0  0  0  0
 27 30  1  0  0  0  0
 28 32  1  0  0  0  0
 28 27  1  0  0  0  0
 29 30  1  0  0  0  0
 31 28  2  0  0  0  0
 32 27  1  0  0  0  0
M  END
>  <MODEL>
6

>  <REMARK>
 VINA RESULT:      -7.7      3.506      7.912
  Name = 
  5 active torsions:
  status: ('A' for Active; 'I' for Inactive)
    1  A    between atoms: C_1  and  C_10
    2  A    between atoms: C_6  and  C_31
    3  A    between atoms: C_10  and  C_24
    4  A    between atoms: C_16  and  C_27
    5  A    between atoms: C_27  and  N_32
                            x       y       z     vdW  Elec       q    Type
                         _______ _______ _______ _____ _____    ______ ____

>  <TORSDO>
F 5

$$$$
=
 OpenBabel10262421223D

 32 38  0  0  1  0  0  0  0  0999 V2000
  182.0410  178.8150  138.9880 C   0  0  1  0  0  3  0  0  0  0  0  0
  185.9980  178.1190  141.9480 C   0  0  0  0  0  0  0  0  0  0  0  0
  184.1800  178.1870  146.5050 C   0  0  0  0  0  2  0  0  0  0  0  0
  185.5310  178.5500  147.0910 C   0  0  0  0  0  2  0  0  0  0  0  0
  184.6600  178.3760  140.1080 C   0  0  0  0  0  0  0  0  0  0  0  0
  183.7810  179.0050  142.2340 N   0  0  0  0  0  0  0  0  0  0  0  0
  182.4720  179.4230  140.2780 C   0  0  0  0  0  2  0  0  0  0  0  0
  183.9940  179.0020  145.1400 C   0  0  0  0  0  2  0  0  0  0  0  0
  184.9960  178.6190  142.8170 C   0  0  0  0  0  0  0  0  0  0  0  0
  185.1710  178.6860  144.2040 C   0  0  0  0  0  0  0  0  0  0  0  0
  187.4840  177.8790  143.8540 C   0  0  0  0  0  0  0  0  0  0  0  0
  183.0820  178.0950  138.0760 C   0  0  1  0  0  3  0  0  0  0  0  0
  183.6540  178.8850  140.9140 C   0  0  0  0  0  0  0  0  0  0  0  0
  184.5690  178.2410  138.6290 C   0  0  0  0  0  2  0  0  0  0  0  0
  182.1080  177.2810  138.9300 C   0  0  2  0  0  3  0  0  0  0  0  0
  186.6200  178.1520  146.1450 C   0  0  0  0  0  2  0  0  0  0  0  0
  186.4490  178.3510  144.6930 C   0  0  0  0  0  0  0  0  0  0  0  0
  185.8250  178.0090  140.6260 N   0  0  0  0  0  0  0  0  0  0  0  0
  187.2570  177.7460  142.4720 C   0  0  0  0  0  0  0  0  0  0  0  0
  188.3910  177.4440  141.5940 C   0  0  0  0  0  3  0  0  0  0  0  0
  189.1510  178.3300  141.0560 N   0  0  0  0  0  2  0  0  0  0  0  0
  180.6550  176.9680  138.3040 C   0  0  0  0  0  2  0  0  0  0  0  0
  180.2930  175.5130  138.0650 C   0  0  0  0  0  0  0  0  0  0  0  0
  181.1360  174.6600  137.4480 O   0  0  0  0  0  0  0  0  0  0  0  0
  179.1320  175.1300  138.3580 O   0  0  0  0  0  1  0  0  0  0  0  0
  188.5960  177.1440  144.6180 C   0  0  0  0  0  2  0  0  0  0  0  0
  191.4860  177.8270  144.6440 C   0  0  0  0  0  0  0  0  0  0  0  0
  191.3100  176.5050  144.2850 C   0  0  0  0  0  0  0  0  0  0  0  0
  191.9790  178.1130  143.1740 C   0  0  0  0  0  2  0  0  0  0  0  0
  191.4450  179.2520  143.9690 C   0  0  0  0  0  2  0  0  0  0  0  0
  191.8310  175.3920  143.9700 O   0  0  0  0  0  0  0  0  0  0  0  0
  190.1020  177.3610  144.5540 N   0  0  0  0  0  0  0  0  0  0  0  0
  1  7  1  1  0  0  0
  2 19  2  0  0  0  0
  2  9  1  0  0  0  0
  3  4  1  0  0  0  0
  5 18  2  0  0  0  0
  5 13  1  0  0  0  0
  6  9  1  0  0  0  0
  7 13  1  0  0  0  0
  8  3  1  0  0  0  0
  9 10  2  0  0  0  0
 10 17  1  0  0  0  0
 10  8  1  0  0  0  0
 11 26  1  0  0  0  0
 11 17  2  0  0  0  0
 12 14  1  1  0  0  0
 12 15  1  0  0  0  0
 12  1  1  0  0  0  0
 13  6  2  0  0  0  0
 14  5  1  0  0  0  0
 15 22  1  6  0  0  0
 15  1  1  0  0  0  0
 16  4  1  0  0  0  0
 17 16  1  0  0  0  0
 18  2  1  0  0  0  0
 19 11  1  0  0  0  0
 20 19  1  0  0  0  0
 21 20  2  0  0  0  0
 23 22  1  0  0  0  0
 23 25  1  0  0  0  0
 24 23  2  0  0  0  0
 28 32  1  0  0  0  0
 28 27  1  0  0  0  0
 29 30  1  0  0  0  0
 29 27  1  0  0  0  0
 30 27  1  0  0  0  0
 31 28  2  0  0  0  0
 32 26  1  0  0  0  0
 32 27  1  0  0  0  0
M  END
>  <MODEL>
7

>  <REMARK>
 VINA RESULT:      -7.7      3.597      5.463
  Name = 
  5 active torsions:
  status: ('A' for Active; 'I' for Inactive)
    1  A    between atoms: C_1  and  C_10
    2  A    between atoms: C_6  and  C_31
    3  A    between atoms: C_10  and  C_24
    4  A    between atoms: C_16  and  C_27
    5  A    between atoms: C_27  and  N_32
                            x       y       z     vdW  Elec       q    Type
                         _______ _______ _______ _____ _____    ______ ____

>  <TORSDO>
F 5

$$$$
=
 OpenBabel10262421223D

 32 38  0  0  1  0  0  0  0  0999 V2000
  180.8920  179.7730  137.7180 C   0  0  1  0  0  3  0  0  0  0  0  0
  185.0220  178.8790  140.3730 C   0  0  0  0  0  0  0  0  0  0  0  0
  188.6260  178.6700  137.0500 C   0  0  0  0  0  2  0  0  0  0  0  0
  189.5040  177.8570  137.9810 C   0  0  0  0  0  2  0  0  0  0  0  0
  182.8480  179.2830  139.7770 C   0  0  0  0  0  0  0  0  0  0  0  0
  184.3800  178.6280  138.0690 N   0  0  0  0  0  0  0  0  0  0  0  0
  182.0710  178.8870  137.5070 C   0  0  0  0  0  2  0  0  0  0  0  0
  187.1200  178.1480  137.2030 C   0  0  0  0  0  2  0  0  0  0  0  0
  185.3880  178.5640  139.0410 C   0  0  0  0  0  0  0  0  0  0  0  0
  186.7040  178.2490  138.6790 C   0  0  0  0  0  0  0  0  0  0  0  0
  187.2990  178.4080  141.0760 C   0  0  0  0  0  0  0  0  0  0  0  0
  180.5500  180.2920  139.1500 C   0  0  1  0  0  3  0  0  0  0  0  0
  183.1540  178.9690  138.4620 C   0  0  0  0  0  0  0  0  0  0  0  0
  181.4910  179.6510  140.2630 C   0  0  0  0  0  2  0  0  0  0  0  0
  181.2200  181.2170  138.1320 C   0  0  2  0  0  3  0  0  0  0  0  0
  189.0690  178.0620  139.3990 C   0  0  0  0  0  2  0  0  0  0  0  0
  187.6340  178.1330  139.7310 C   0  0  0  0  0  0  0  0  0  0  0  0
  183.7770  179.2240  140.7230 N   0  0  0  0  0  0  0  0  0  0  0  0
  185.9870  178.7990  141.4030 C   0  0  0  0  0  0  0  0  0  0  0  0
  185.6070  178.8900  142.8160 C   0  0  0  0  0  3  0  0  0  0  0  0
  185.3090  177.8830  143.5550 N   0  0  0  0  0  2  0  0  0  0  0  0
  180.2610  182.0170  137.1110 C   0  0  0  0  0  2  0  0  0  0  0  0
  180.8040  183.2930  136.4940 C   0  0  0  0  0  0  0  0  0  0  0  0
  180.7900  183.5050  135.1620 O   0  0  0  0  0  0  0  0  0  0  0  0
  181.3760  184.1240  137.2450 O   0  0  0  0  0  1  0  0  0  0  0  0
  188.5230  178.6770  141.9630 C   0  0  0  0  0  2  0  0  0  0  0  0
  189.3030  176.9560  144.2550 C   0  0  0  0  0  0  0  0  0  0  0  0
  190.4240  177.3590  143.5560 C   0  0  0  0  0  0  0  0  0  0  0  0
  189.7860  177.8560  145.4560 C   0  0  0  0  0  2  0  0  0  0  0  0
  188.3390  177.5190  145.3690 C   0  0  0  0  0  2  0  0  0  0  0  0
  191.6850  177.3150  143.4160 O   0  0  0  0  0  0  0  0  0  0  0  0
  189.0690  177.8440  143.1150 N   0  0  0  0  0  0  0  0  0  0  0  0
  1  7  1  1  0  0  0
  1 15  1  0  0  0  0
  1 12  1  0  0  0  0
  2 18  2  0  0  0  0
  2 19  1  0  0  0  0
  3  8  1  0  0  0  0
  3  4  1  0  0  0  0
  4 16  1  0  0  0  0
  5 14  1  0  0  0  0
  5 18  1  0  0  0  0
  6 13  1  0  0  0  0
  6  9  2  0  0  0  0
  7 13  1  0  0  0  0
  8 10  1  0  0  0  0
  9  2  1  0  0  0  0
 10  9  1  0  0  0  0
 10 17  2  0  0  0  0
 11 19  2  0  0  0  0
 11 26  1  0  0  0  0
 12 14  1  1  0  0  0
 13  5  2  0  0  0  0
 15 22  1  6  0  0  0
 15 12  1  0  0  0  0
 16 17  1  0  0  0  0
 17 11  1  0  0  0  0
 19 20  1  0  0  0  0
 20 21  2  0  0  0  0
 23 22  1  0  0  0  0
 23 25  1  0  0  0  0
 24 23  2  0  0  0  0
 26 32  1  0  0  0  0
 27 30  1  0  0  0  0
 27 29  1  0  0  0  0
 28 27  1  0  0  0  0
 30 29  1  0  0  0  0
 31 28  2  0  0  0  0
 32 28  1  0  0  0  0
 32 27  1  0  0  0  0
M  END
>  <MODEL>
8

>  <REMARK>
 VINA RESULT:      -7.7      4.561      7.033
  Name = 
  5 active torsions:
  status: ('A' for Active; 'I' for Inactive)
    1  A    between atoms: C_1  and  C_10
    2  A    between atoms: C_6  and  C_31
    3  A    between atoms: C_10  and  C_24
    4  A    between atoms: C_16  and  C_27
    5  A    between atoms: C_27  and  N_32
                            x       y       z     vdW  Elec       q    Type
                         _______ _______ _______ _____ _____    ______ ____

>  <TORSDO>
F 5

$$$$
=
 OpenBabel10262421223D

 32 38  0  0  1  0  0  0  0  0999 V2000
  191.2350  176.3780  141.2570 C   0  0  1  0  0  3  0  0  0  0  0  0
  186.6170  177.9480  142.3100 C   0  0  0  0  0  0  0  0  0  0  0  0
  186.5740  178.5350  147.1810 C   0  0  0  0  0  2  0  0  0  0  0  0
  185.0640  178.4060  147.2320 C   0  0  0  0  0  2  0  0  0  0  0  0
  188.4880  177.2450  141.1920 C   0  0  0  0  0  0  0  0  0  0  0  0
  188.4050  176.9310  143.5560 N   0  0  0  0  0  0  0  0  0  0  0  0
  190.2680  176.0520  142.3420 C   0  0  0  0  0  2  0  0  0  0  0  0
  187.1290  177.4740  146.1170 C   0  0  0  0  0  2  0  0  0  0  0  0
  187.1340  177.5240  143.5590 C   0  0  0  0  0  0  0  0  0  0  0  0
  186.4470  177.7220  144.7630 C   0  0  0  0  0  0  0  0  0  0  0  0
  184.5830  178.6590  143.4310 C   0  0  0  0  0  0  0  0  0  0  0  0
  190.7310  177.0140  139.9240 C   0  0  1  0  0  3  0  0  0  0  0  0
  189.0300  176.8000  142.3870 C   0  0  0  0  0  0  0  0  0  0  0  0
  189.1420  177.1040  139.8630 C   0  0  0  0  0  2  0  0  0  0  0  0
  191.4290  177.8760  140.9770 C   0  0  2  0  0  3  0  0  0  0  0  0
  184.4800  178.7250  145.8920 C   0  0  0  0  0  2  0  0  0  0  0  0
  185.1470  178.2540  144.6630 C   0  0  0  0  0  0  0  0  0  0  0  0
  187.2840  177.8030  141.1590 N   0  0  0  0  0  0  0  0  0  0  0  0
  185.3260  178.5210  142.2440 C   0  0  0  0  0  0  0  0  0  0  0  0
  184.6600  178.7620  140.9610 C   0  0  0  0  0  3  0  0  0  0  0  0
  184.9180  179.7510  140.1830 N   0  0  0  0  0  2  0  0  0  0  0  0
  193.0400  177.9390  140.9360 C   0  0  0  0  0  2  0  0  0  0  0  0
  193.7470  177.1270  139.8650 C   0  0  0  0  0  0  0  0  0  0  0  0
  193.3350  177.1270  138.5810 O   0  0  0  0  0  0  0  0  0  0  0  0
  194.6740  176.3530  140.2160 O   0  0  0  0  0  1  0  0  0  0  0  0
  183.3930  179.6160  143.5960 C   0  0  0  0  0  2  0  0  0  0  0  0
  180.4870  179.3680  143.0340 C   0  0  0  0  0  0  0  0  0  0  0  0
  181.2200  179.0900  141.8970 C   0  0  0  0  0  0  0  0  0  0  0  0
  180.0640  177.8490  143.0760 C   0  0  0  0  0  2  0  0  0  0  0  0
  180.0100  178.6280  144.3430 C   0  0  0  0  0  2  0  0  0  0  0  0
  181.2290  178.7890  140.6640 O   0  0  0  0  0  0  0  0  0  0  0  0
  181.9420  179.4160  143.1750 N   0  0  0  0  0  0  0  0  0  0  0  0
  1  7  1  1  0  0  0
  2  9  1  0  0  0  0
  3  4  1  0  0  0  0
  5 13  1  0  0  0  0
  6  9  1  0  0  0  0
  7 13  1  0  0  0  0
  8  3  1  0  0  0  0
  9 10  2  0  0  0  0
 10  8  1  0  0  0  0
 11 26  1  0  0  0  0
 11 17  2  0  0  0  0
 12 14  1  1  0  0  0
 12 15  1  0  0  0  0
 12  1  1  0  0  0  0
 13  6  2  0  0  0  0
 14  5  1  0  0  0  0
 15 22  1  6  0  0  0
 15  1  1  0  0  0  0
 16  4  1  0  0  0  0
 17 10  1  0  0  0  0
 17 16  1  0  0  0  0
 18  5  2  0  0  0  0
 18  2  1  0  0  0  0
 19  2  2  0  0  0  0
 19 11  1  0  0  0  0
 20 19  1  0  0  0  0
 21 20  2  0  0  0  0
 23 25  1  0  0  0  0
 23 22  1  0  0  0  0
 24 23  2  0  0  0  0
 27 29  1  0  0  0  0
 27 32  1  0  0  0  0
 27 30  1  0  0  0  0
 28 27  1  0  0  0  0
 28 32  1  0  0  0  0
 29 30  1  0  0  0  0
 31 28  2  0  0  0  0
 32 26  1  0  0  0  0
M  END
>  <MODEL>
9

>  <REMARK>
 VINA RESULT:      -7.5      3.380      5.994
  Name = 
  5 active torsions:
  status: ('A' for Active; 'I' for Inactive)
    1  A    between atoms: C_1  and  C_10
    2  A    between atoms: C_6  and  C_31
    3  A    between atoms: C_10  and  C_24
    4  A    between atoms: C_16  and  C_27
    5  A    between atoms: C_27  and  N_32
                            x       y       z     vdW  Elec       q    Type
                         _______ _______ _______ _____ _____    ______ ____

>  <TORSDO>
F 5

$$$$
