=
 OpenBabel10262421093D

 32 37  0  0  1  0  0  0  0  0999 V2000
  186.4030  178.3890  139.8840 C   0  0  0  0  0  0  0  0  0  0  0  0
  187.4760  178.3290  142.1770 C   0  0  2  0  0  3  0  0  0  0  0  0
  186.5220  178.3010  138.4880 C   0  0  0  0  0  3  0  0  0  0  0  0
  187.5160  178.0860  140.6900 C   0  0  0  0  0  0  0  0  0  0  0  0
  188.1280  177.1480  142.8900 C   0  0  2  0  0  3  0  0  0  0  0  0
  184.4780  178.7550  146.1470 C   0  0  0  0  0  3  0  0  0  0  0  0
  186.0770  178.7360  142.7040 C   0  0  1  0  0  3  0  0  0  0  0  0
  186.5820  177.5680  146.3050 C   0  0  0  0  0  3  0  0  0  0  0  0
  186.7930  177.7520  144.9350 C   0  0  0  0  0  0  0  0  0  0  0  0
  188.6770  177.5330  140.1110 C   0  0  0  0  0  0  0  0  0  0  0  0
  187.9880  177.2510  144.3360 N   0  0  0  0  0  2  0  0  0  0  0  0
  189.7610  176.8970  140.9510 C   0  0  0  0  0  2  0  0  0  0  0  0
  188.7640  177.4220  138.7200 C   0  0  0  0  0  3  0  0  0  0  0  0
  185.0050  178.1920  141.8750 N   0  0  0  0  0  2  0  0  0  0  0  0
  185.1100  178.8090  140.5520 C   0  0  2  0  0  3  0  0  0  0  0  0
  185.8450  178.4510  144.1640 C   0  0  0  0  0  0  0  0  0  0  0  0
  189.6080  177.0740  142.4730 C   0  0  1  0  0  3  0  0  0  0  0  0
  187.7020  177.8310  137.9090 C   0  0  0  0  0  3  0  0  0  0  0  0
  185.4240  178.0650  146.9100 C   0  0  0  0  0  3  0  0  0  0  0  0
  184.6910  178.9520  144.7800 C   0  0  0  0  0  3  0  0  0  0  0  0
  182.1640  179.1340  138.1550 C   0  0  0  0  0  0  0  0  0  0  0  0
  181.5820  180.0670  137.3630 F   0  0  0  0  0  0  0  0  0  0  0  0
  183.8870  178.4800  139.7380 C   0  0  0  0  0  0  0  0  0  0  0  0
  181.6280  177.8460  138.2070 C   0  0  0  0  0  3  0  0  0  0  0  0
  183.3410  177.1880  139.7780 C   0  0  0  0  0  3  0  0  0  0  0  0
  183.2940  179.4570  138.9180 C   0  0  0  0  0  0  0  0  0  0  0  0
  183.8350  180.7750  138.8550 N   0  0  0  0  0  1  0  0  0  0  0  0
  182.2150  176.8640  139.0190 C   0  0  0  0  0  0  0  0  0  0  0  0
  180.4470  175.2680  139.6860 C   0  0  0  0  0  1  0  0  0  0  0  0
  181.7010  175.5660  139.0890 O   0  0  0  0  0  0  0  0  0  0  0  0
  190.4120  178.2930  142.9180 C   0  0  0  0  0  2  0  0  0  0  0  0
  191.6300  177.8930  143.4680 O   0  0  0  0  0  1  0  0  0  0  0  0
  1 15  1  0  0  0  0
  1  4  1  0  0  0  0
  2  4  1  6  0  0  0
  2  7  1  0  0  0  0
  2  5  1  0  0  0  0
  3  1  2  0  0  0  0
  5 11  1  1  0  0  0
  6 19  1  0  0  0  0
  7 14  1  6  0  0  0
  7 16  1  0  0  0  0
  8 19  2  0  0  0  0
  9  8  1  0  0  0  0
 10  4  2  0  0  0  0
 10 12  1  0  0  0  0
 11  9  1  0  0  0  0
 12 17  1  0  0  0  0
 13 10  1  0  0  0  0
 15 23  1  6  0  0  0
 15 14  1  0  0  0  0
 16 20  1  0  0  0  0
 16  9  2  0  0  0  0
 17  5  1  0  0  0  0
 17 31  1  6  0  0  0
 18  3  1  0  0  0  0
 18 13  2  0  0  0  0
 20  6  2  0  0  0  0
 21 24  2  0  0  0  0
 21 26  1  0  0  0  0
 22 21  1  0  0  0  0
 23 25  1  0  0  0  0
 24 28  1  0  0  0  0
 26 23  2  0  0  0  0
 27 26  1  0  0  0  0
 28 30  1  0  0  0  0
 28 25  2  0  0  0  0
 30 29  1  0  0  0  0
 31 32  1  0  0  0  0
M  END
>  <MODEL>
1

>  <REMARK>
 VINA RESULT:      -9.0      0.000      0.000
  Name = 
  3 active torsions:
  status: ('A' for Active; 'I' for Inactive)
    1  A    between atoms: C_13  and  C_29
    2  A    between atoms: O_15  and  C_26
    3  A    between atoms: C_16  and  C_27
                            x       y       z     vdW  Elec       q    Type
                         _______ _______ _______ _____ _____    ______ ____

>  <TORSDO>
F 3

$$$$
=
 OpenBabel10262421093D

 32 37  0  0  1  0  0  0  0  0999 V2000
  188.6670  178.0440  141.2830 C   0  0  0  0  0  0  0  0  0  0  0  0
  186.4020  178.6740  142.2250 C   0  0  2  0  0  3  0  0  0  0  0  0
  189.9980  177.6510  141.4900 C   0  0  0  0  0  3  0  0  0  0  0  0
  187.7870  178.0990  142.3800 C   0  0  0  0  0  0  0  0  0  0  0  0
  185.4140  177.7960  142.9890 C   0  0  2  0  0  3  0  0  0  0  0  0
  182.7160  179.5810  138.9820 C   0  0  0  0  0  3  0  0  0  0  0  0
  186.0190  178.9890  140.7580 C   0  0  1  0  0  3  0  0  0  0  0  0
  182.2330  178.7760  141.2130 C   0  0  0  0  0  3  0  0  0  0  0  0
  183.6020  178.6630  141.4740 C   0  0  0  0  0  0  0  0  0  0  0  0
  188.1920  177.5970  143.6350 C   0  0  0  0  0  0  0  0  0  0  0  0
  184.0370  178.2130  142.7560 N   0  0  0  0  0  2  0  0  0  0  0  0
  187.2000  177.3360  144.7450 C   0  0  0  0  0  2  0  0  0  0  0  0
  189.5140  177.1790  143.8120 C   0  0  0  0  0  3  0  0  0  0  0  0
  186.7180  178.1190  139.8150 N   0  0  0  0  0  2  0  0  0  0  0  0
  188.1470  178.4200  139.9100 C   0  0  2  0  0  3  0  0  0  0  0  0
  184.5390  179.0220  140.4860 C   0  0  0  0  0  0  0  0  0  0  0  0
  185.7680  177.8380  144.4860 C   0  0  1  0  0  3  0  0  0  0  0  0
  190.4220  177.2320  142.7520 C   0  0  0  0  0  3  0  0  0  0  0  0
  181.7900  179.2300  139.9680 C   0  0  0  0  0  3  0  0  0  0  0  0
  184.0850  179.4830  139.2430 C   0  0  0  0  0  3  0  0  0  0  0  0
  189.5280  177.6190  136.4490 C   0  0  0  0  0  0  0  0  0  0  0  0
  189.4760  178.1040  135.1850 F   0  0  0  0  0  0  0  0  0  0  0  0
  188.8870  177.7400  138.7890 C   0  0  0  0  0  0  0  0  0  0  0  0
  190.2890  176.4790  136.7170 C   0  0  0  0  0  3  0  0  0  0  0  0
  189.6580  176.5950  139.0470 C   0  0  0  0  0  3  0  0  0  0  0  0
  188.8250  178.2540  137.4820 C   0  0  0  0  0  0  0  0  0  0  0  0
  188.0530  179.4190  137.1980 N   0  0  0  0  0  1  0  0  0  0  0  0
  190.3590  175.9610  138.0190 C   0  0  0  0  0  0  0  0  0  0  0  0
  192.2430  174.4290  137.5490 C   0  0  0  0  0  1  0  0  0  0  0  0
  191.1140  174.8240  138.3170 O   0  0  0  0  0  0  0  0  0  0  0  0
  185.6090  179.2300  145.0940 C   0  0  0  0  0  2  0  0  0  0  0  0
  185.1830  179.1300  146.4190 O   0  0  0  0  0  1  0  0  0  0  0  0
  1  3  2  0  0  0  0
  1  4  1  0  0  0  0
  2  4  1  6  0  0  0
  2  5  1  0  0  0  0
  3 18  1  0  0  0  0
  4 10  2  0  0  0  0
  5 11  1  1  0  0  0
  5 17  1  0  0  0  0
  6 20  2  0  0  0  0
  6 19  1  0  0  0  0
  7 14  1  6  0  0  0
  7  2  1  0  0  0  0
  8  9  1  0  0  0  0
  9 11  1  0  0  0  0
 10 13  1  0  0  0  0
 10 12  1  0  0  0  0
 14 15  1  0  0  0  0
 15 23  1  6  0  0  0
 15  1  1  0  0  0  0
 16  7  1  0  0  0  0
 16  9  2  0  0  0  0
 17 12  1  0  0  0  0
 17 31  1  6  0  0  0
 18 13  2  0  0  0  0
 19  8  2  0  0  0  0
 20 16  1  0  0  0  0
 21 24  2  0  0  0  0
 21 26  1  0  0  0  0
 22 21  1  0  0  0  0
 23 25  1  0  0  0  0
 24 28  1  0  0  0  0
 26 23  2  0  0  0  0
 27 26  1  0  0  0  0
 28 30  1  0  0  0  0
 28 25  2  0  0  0  0
 29 30  1  0  0  0  0
 31 32  1  0  0  0  0
M  END
>  <MODEL>
2

>  <REMARK>
 VINA RESULT:      -8.7      2.990      5.973
  Name = 
  3 active torsions:
  status: ('A' for Active; 'I' for Inactive)
    1  A    between atoms: C_13  and  C_29
    2  A    between atoms: O_15  and  C_26
    3  A    between atoms: C_16  and  C_27
                            x       y       z     vdW  Elec       q    Type
                         _______ _______ _______ _____ _____    ______ ____

>  <TORSDO>
F 3

$$$$
=
 OpenBabel10262421093D

 32 37  0  0  1  0  0  0  0  0999 V2000
  187.0930  177.4740  144.3280 C   0  0  0  0  0  0  0  0  0  0  0  0
  189.5460  176.9950  143.9150 C   0  0  2  0  0  3  0  0  0  0  0  0
  186.0340  177.6830  145.2240 C   0  0  0  0  0  3  0  0  0  0  0  0
  188.4080  177.3840  144.8230 C   0  0  0  0  0  0  0  0  0  0  0  0
  190.7510  177.8780  144.2260 C   0  0  2  0  0  3  0  0  0  0  0  0
  191.1270  176.9260  139.1790 C   0  0  0  0  0  3  0  0  0  0  0  0
  189.1490  176.9110  142.4210 C   0  0  1  0  0  3  0  0  0  0  0  0
  192.6380  177.4970  140.9820 C   0  0  0  0  0  3  0  0  0  0  0  0
  191.5830  177.4190  141.8970 C   0  0  0  0  0  0  0  0  0  0  0  0
  188.6720  177.6760  146.1780 C   0  0  0  0  0  0  0  0  0  0  0  0
  191.8370  177.6540  143.2820 N   0  0  0  0  0  2  0  0  0  0  0  0
  190.0770  177.9090  146.6820 C   0  0  0  0  0  2  0  0  0  0  0  0
  187.6050  177.9150  147.0490 C   0  0  0  0  0  3  0  0  0  0  0  0
  188.0390  177.8050  142.1020 N   0  0  0  0  0  2  0  0  0  0  0  0
  186.8640  177.3340  142.8370 C   0  0  2  0  0  3  0  0  0  0  0  0
  190.2900  177.0820  141.4540 C   0  0  0  0  0  0  0  0  0  0  0  0
  191.2020  177.6100  145.6740 C   0  0  1  0  0  3  0  0  0  0  0  0
  186.2890  177.8910  146.5810 C   0  0  0  0  0  3  0  0  0  0  0  0
  192.4090  177.2550  139.6250 C   0  0  0  0  0  3  0  0  0  0  0  0
  190.0730  176.8330  140.0920 C   0  0  0  0  0  3  0  0  0  0  0  0
  184.4440  179.2710  140.6190 C   0  0  0  0  0  0  0  0  0  0  0  0
  184.3950  179.8060  139.3740 F   0  0  0  0  0  0  0  0  0  0  0  0
  185.6360  178.0590  142.3550 C   0  0  0  0  0  0  0  0  0  0  0  0
  183.3350  179.3830  141.4590 C   0  0  0  0  0  3  0  0  0  0  0  0
  184.5140  178.1760  143.1890 C   0  0  0  0  0  3  0  0  0  0  0  0
  185.5980  178.6090  141.0600 C   0  0  0  0  0  0  0  0  0  0  0  0
  186.7240  178.4970  140.1920 N   0  0  0  0  0  1  0  0  0  0  0  0
  183.3630  178.8350  142.7510 C   0  0  0  0  0  0  0  0  0  0  0  0
  180.9520  179.2050  143.1540 C   0  0  0  0  0  1  0  0  0  0  0  0
  182.2680  178.9300  143.6130 O   0  0  0  0  0  0  0  0  0  0  0  0
  191.6960  176.1810  145.8860 C   0  0  0  0  0  2  0  0  0  0  0  0
  192.4200  176.0940  147.0750 O   0  0  0  0  0  1  0  0  0  0  0  0
  1  4  2  0  0  0  0
  1  3  1  0  0  0  0
  2  5  1  0  0  0  0
  2  4  1  1  0  0  0
  3 18  2  0  0  0  0
  4 10  1  0  0  0  0
  5 11  1  6  0  0  0
  5 17  1  0  0  0  0
  6 19  2  0  0  0  0
  6 20  1  0  0  0  0
  7 16  1  6  0  0  0
  7  2  1  0  0  0  0
  8  9  2  0  0  0  0
  9 11  1  0  0  0  0
 10 12  1  0  0  0  0
 10 13  2  0  0  0  0
 14  7  1  0  0  0  0
 14 15  1  0  0  0  0
 15 23  1  6  0  0  0
 15  1  1  0  0  0  0
 16  9  1  0  0  0  0
 17 31  1  6  0  0  0
 17 12  1  0  0  0  0
 18 13  1  0  0  0  0
 19  8  1  0  0  0  0
 20 16  2  0  0  0  0
 21 26  2  0  0  0  0
 21 24  1  0  0  0  0
 22 21  1  0  0  0  0
 23 25  2  0  0  0  0
 24 28  2  0  0  0  0
 26 23  1  0  0  0  0
 27 26  1  0  0  0  0
 28 25  1  0  0  0  0
 28 30  1  0  0  0  0
 29 30  1  0  0  0  0
 31 32  1  0  0  0  0
M  END
>  <MODEL>
3

>  <REMARK>
 VINA RESULT:      -8.7      2.607      5.491
  Name = 
  3 active torsions:
  status: ('A' for Active; 'I' for Inactive)
    1  A    between atoms: C_13  and  C_29
    2  A    between atoms: O_15  and  C_26
    3  A    between atoms: C_16  and  C_27
                            x       y       z     vdW  Elec       q    Type
                         _______ _______ _______ _____ _____    ______ ____

>  <TORSDO>
F 3

$$$$
=
 OpenBabel10262421093D

 32 37  0  0  1  0  0  0  0  0999 V2000
  189.8310  177.6530  142.9700 C   0  0  0  0  0  0  0  0  0  0  0  0
  188.2370  178.1420  144.8770 C   0  0  2  0  0  3  0  0  0  0  0  0
  191.1030  177.2610  142.5250 C   0  0  0  0  0  3  0  0  0  0  0  0
  189.5280  177.5760  144.3420 C   0  0  0  0  0  0  0  0  0  0  0  0
  187.6580  177.1720  145.9030 C   0  0  2  0  0  3  0  0  0  0  0  0
  183.5320  179.3380  143.7120 C   0  0  0  0  0  3  0  0  0  0  0  0
  187.2580  178.6080  143.7720 C   0  0  1  0  0  3  0  0  0  0  0  0
  184.0560  178.2890  145.8300 C   0  0  0  0  0  3  0  0  0  0  0  0
  185.3950  178.1700  145.4440 C   0  0  0  0  0  0  0  0  0  0  0  0
  190.4280  176.9480  145.2290 C   0  0  0  0  0  0  0  0  0  0  0  0
  186.3360  177.5910  146.3480 N   0  0  0  0  0  2  0  0  0  0  0  0
  190.0190  176.5520  146.6300 C   0  0  0  0  0  2  0  0  0  0  0  0
  191.6770  176.5320  144.7590 C   0  0  0  0  0  3  0  0  0  0  0  0
  187.4380  177.8560  142.5330 N   0  0  0  0  0  2  0  0  0  0  0  0
  188.7730  178.1660  142.0160 C   0  0  2  0  0  3  0  0  0  0  0  0
  185.8110  178.6470  144.1870 C   0  0  0  0  0  0  0  0  0  0  0  0
  188.6380  177.0580  147.0850 C   0  0  1  0  0  3  0  0  0  0  0  0
  192.0260  176.7140  143.4180 C   0  0  0  0  0  3  0  0  0  0  0  0
  183.1250  178.8680  144.9630 C   0  0  0  0  0  3  0  0  0  0  0  0
  184.8720  179.2330  143.3280 C   0  0  0  0  0  3  0  0  0  0  0  0
  188.0830  177.3770  138.3520 C   0  0  0  0  0  0  0  0  0  0  0  0
  187.1380  177.6150  137.4090 F   0  0  0  0  0  0  0  0  0  0  0  0
  188.9170  177.6220  140.6200 C   0  0  0  0  0  0  0  0  0  0  0  0
  189.2130  176.6270  138.0180 C   0  0  0  0  0  3  0  0  0  0  0  0
  190.0500  176.8710  140.2710 C   0  0  0  0  0  3  0  0  0  0  0  0
  187.9300  177.8780  139.6510 C   0  0  0  0  0  0  0  0  0  0  0  0
  186.7740  178.6450  139.9810 N   0  0  0  0  0  1  0  0  0  0  0  0
  190.2050  176.3700  138.9770 C   0  0  0  0  0  0  0  0  0  0  0  0
  192.4660  176.1790  137.9940 C   0  0  0  0  0  1  0  0  0  0  0  0
  191.3460  175.6250  138.6710 O   0  0  0  0  0  0  0  0  0  0  0  0
  188.8110  178.3730  147.8410 C   0  0  0  0  0  2  0  0  0  0  0  0
  188.3090  178.2520  149.1370 O   0  0  0  0  0  1  0  0  0  0  0  0
  1  4  1  0  0  0  0
  2  4  1  6  0  0  0
  2  5  1  0  0  0  0
  3  1  2  0  0  0  0
  3 18  1  0  0  0  0
  4 10  2  0  0  0  0
  5 11  1  1  0  0  0
  5 17  1  0  0  0  0
  6 19  1  0  0  0  0
  7 14  1  6  0  0  0
  7 16  1  0  0  0  0
  7  2  1  0  0  0  0
  9  8  1  0  0  0  0
  9 11  1  0  0  0  0
 10 12  1  0  0  0  0
 12 17  1  0  0  0  0
 13 10  1  0  0  0  0
 15 23  1  6  0  0  0
 15 14  1  0  0  0  0
 15  1  1  0  0  0  0
 16  9  2  0  0  0  0
 17 31  1  6  0  0  0
 18 13  2  0  0  0  0
 19  8  2  0  0  0  0
 20  6  2  0  0  0  0
 20 16  1  0  0  0  0
 21 26  1  0  0  0  0
 22 21  1  0  0  0  0
 24 21  2  0  0  0  0
 24 28  1  0  0  0  0
 25 23  1  0  0  0  0
 26 27  1  0  0  0  0
 26 23  2  0  0  0  0
 28 25  2  0  0  0  0
 29 30  1  0  0  0  0
 30 28  1  0  0  0  0
 31 32  1  0  0  0  0
M  END
>  <MODEL>
4

>  <REMARK>
 VINA RESULT:      -8.5      3.589      5.468
  Name = 
  3 active torsions:
  status: ('A' for Active; 'I' for Inactive)
    1  A    between atoms: C_13  and  C_29
    2  A    between atoms: O_15  and  C_26
    3  A    between atoms: C_16  and  C_27
                            x       y       z     vdW  Elec       q    Type
                         _______ _______ _______ _____ _____    ______ ____

>  <TORSDO>
F 3

$$$$
=
 OpenBabel10262421093D

 32 37  0  0  1  0  0  0  0  0999 V2000
  186.6620  178.4930  141.2500 C   0  0  0  0  0  0  0  0  0  0  0  0
  188.5800  178.0340  142.8400 C   0  0  2  0  0  3  0  0  0  0  0  0
  186.1820  178.6280  139.9380 C   0  0  0  0  0  3  0  0  0  0  0  0
  187.9760  178.0330  141.4590 C   0  0  0  0  0  0  0  0  0  0  0  0
  189.3560  176.7360  143.0420 C   0  0  2  0  0  3  0  0  0  0  0  0
  187.5540  177.8940  147.7250 C   0  0  0  0  0  3  0  0  0  0  0  0
  187.5710  178.3880  143.9600 C   0  0  1  0  0  3  0  0  0  0  0  0
  189.4130  176.6410  146.8120 C   0  0  0  0  0  3  0  0  0  0  0  0
  189.0530  177.0370  145.5210 C   0  0  0  0  0  0  0  0  0  0  0  0
  188.7350  177.5500  140.3720 C   0  0  0  0  0  0  0  0  0  0  0  0
  189.8390  176.6080  144.4100 N   0  0  0  0  0  2  0  0  0  0  0  0
  190.0050  176.7570  140.5790 C   0  0  0  0  0  2  0  0  0  0  0  0
  188.2260  177.6620  139.0750 C   0  0  0  0  0  3  0  0  0  0  0  0
  186.2050  178.0140  143.6000 N   0  0  0  0  0  2  0  0  0  0  0  0
  185.8080  178.8340  142.4530 C   0  0  2  0  0  3  0  0  0  0  0  0
  187.9400  177.8780  145.3270 C   0  0  0  0  0  0  0  0  0  0  0  0
  190.5160  176.6890  142.0300 C   0  0  1  0  0  3  0  0  0  0  0  0
  186.9660  178.2260  138.8550 C   0  0  0  0  0  3  0  0  0  0  0  0
  188.6620  177.0650  147.9120 C   0  0  0  0  0  3  0  0  0  0  0  0
  187.1980  178.3040  146.4370 C   0  0  0  0  0  3  0  0  0  0  0  0
  182.0250  178.9950  142.8850 C   0  0  0  0  0  0  0  0  0  0  0  0
  181.1110  179.4360  143.7830 F   0  0  0  0  0  0  0  0  0  0  0  0
  184.3330  178.6740  142.1990 C   0  0  0  0  0  0  0  0  0  0  0  0
  181.5900  178.3950  141.7010 C   0  0  0  0  0  3  0  0  0  0  0  0
  183.8840  178.0760  141.0120 C   0  0  0  0  0  3  0  0  0  0  0  0
  183.3950  179.1380  143.1390 C   0  0  0  0  0  0  0  0  0  0  0  0
  183.8280  179.7550  144.3500 N   0  0  0  0  0  1  0  0  0  0  0  0
  182.5190  177.9320  140.7560 C   0  0  0  0  0  0  0  0  0  0  0  0
  182.3940  175.9730  139.2530 C   0  0  0  0  0  1  0  0  0  0  0  0
  182.1130  177.3300  139.5620 O   0  0  0  0  0  0  0  0  0  0  0  0
  191.5410  177.7990  142.2520 C   0  0  0  0  0  2  0  0  0  0  0  0
  192.4080  177.8780  141.1620 O   0  0  0  0  0  1  0  0  0  0  0  0
  1  4  1  0  0  0  0
  1 15  1  0  0  0  0
  2  4  1  6  0  0  0
  2  5  1  0  0  0  0
  2  7  1  0  0  0  0
  3  1  2  0  0  0  0
  5 11  1  1  0  0  0
  6 19  1  0  0  0  0
  7 14  1  6  0  0  0
  7 16  1  0  0  0  0
  8 19  2  0  0  0  0
  9  8  1  0  0  0  0
 10 12  1  0  0  0  0
 10  4  2  0  0  0  0
 11  9  1  0  0  0  0
 12 17  1  0  0  0  0
 13 10  1  0  0  0  0
 15 23  1  6  0  0  0
 15 14  1  0  0  0  0
 16  9  2  0  0  0  0
 16 20  1  0  0  0  0
 17 31  1  1  0  0  0
 17  5  1  0  0  0  0
 18 13  2  0  0  0  0
 18  3  1  0  0  0  0
 20  6  2  0  0  0  0
 21 26  1  0  0  0  0
 21 22  1  0  0  0  0
 23 26  2  0  0  0  0
 24 21  2  0  0  0  0
 25 23  1  0  0  0  0
 26 27  1  0  0  0  0
 28 25  2  0  0  0  0
 28 24  1  0  0  0  0
 29 30  1  0  0  0  0
 30 28  1  0  0  0  0
 32 31  1  0  0  0  0
M  END
>  <MODEL>
5

>  <REMARK>
 VINA RESULT:      -8.1      2.169      2.734
  Name = 
  3 active torsions:
  status: ('A' for Active; 'I' for Inactive)
    1  A    between atoms: C_13  and  C_29
    2  A    between atoms: O_15  and  C_26
    3  A    between atoms: C_16  and  C_27
                            x       y       z     vdW  Elec       q    Type
                         _______ _______ _______ _____ _____    ______ ____

>  <TORSDO>
F 3

$$$$
=
 OpenBabel10262421093D

 32 37  0  0  1  0  0  0  0  0999 V2000
  189.1250  177.8300  139.7290 C   0  0  0  0  0  0  0  0  0  0  0  0
  188.6380  178.2530  142.1780 C   0  0  2  0  0  3  0  0  0  0  0  0
  190.0400  177.5110  138.7130 C   0  0  0  0  0  3  0  0  0  0  0  0
  189.5370  177.7600  141.0730 C   0  0  0  0  0  0  0  0  0  0  0  0
  188.6990  177.2680  143.3420 C   0  0  2  0  0  3  0  0  0  0  0  0
  183.8970  179.1220  143.4790 C   0  0  0  0  0  3  0  0  0  0  0  0
  187.2150  178.6330  141.7000 C   0  0  1  0  0  3  0  0  0  0  0  0
  185.4560  178.1500  145.0550 C   0  0  0  0  0  3  0  0  0  0  0  0
  186.4410  178.1100  144.0630 C   0  0  0  0  0  0  0  0  0  0  0  0
  190.7940  177.2080  141.3980 C   0  0  0  0  0  0  0  0  0  0  0  0
  187.7380  177.6090  144.3830 N   0  0  0  0  0  2  0  0  0  0  0  0
  191.1490  176.8150  142.8130 C   0  0  0  0  0  2  0  0  0  0  0  0
  191.6790  176.8650  140.3710 C   0  0  0  0  0  3  0  0  0  0  0  0
  186.8160  177.8710  140.5200 N   0  0  0  0  0  2  0  0  0  0  0  0
  187.7050  178.2560  139.4210 C   0  0  2  0  0  3  0  0  0  0  0  0
  186.1570  178.5880  142.7700 C   0  0  0  0  0  0  0  0  0  0  0  0
  190.1370  177.2400  143.8930 C   0  0  1  0  0  3  0  0  0  0  0  0
  191.3150  177.0420  139.0340 C   0  0  0  0  0  3  0  0  0  0  0  0
  184.1850  178.6510  144.7630 C   0  0  0  0  0  3  0  0  0  0  0  0
  184.8820  179.0960  142.4880 C   0  0  0  0  0  3  0  0  0  0  0  0
  186.7750  177.9170  135.7410 C   0  0  0  0  0  0  0  0  0  0  0  0
  186.8330  178.6400  134.5950 F   0  0  0  0  0  0  0  0  0  0  0  0
  187.1840  177.6950  138.1250 C   0  0  0  0  0  0  0  0  0  0  0  0
  186.2360  176.6290  135.7130 C   0  0  0  0  0  3  0  0  0  0  0  0
  186.6430  176.4010  138.0840 C   0  0  0  0  0  3  0  0  0  0  0  0
  187.2510  178.4550  136.9430 C   0  0  0  0  0  0  0  0  0  0  0  0
  187.8030  179.7710  136.9590 N   0  0  0  0  0  1  0  0  0  0  0  0
  186.1680  175.8620  136.8870 C   0  0  0  0  0  0  0  0  0  0  0  0
  186.4040  173.4240  137.2290 C   0  0  0  0  0  1  0  0  0  0  0  0
  185.6360  174.5700  136.8890 O   0  0  0  0  0  0  0  0  0  0  0  0
  190.5710  178.5780  144.4870 C   0  0  0  0  0  2  0  0  0  0  0  0
  191.8290  178.9340  144.0020 O   0  0  0  0  0  1  0  0  0  0  0  0
  1  4  1  0  0  0  0
  2  4  1  6  0  0  0
  2  5  1  0  0  0  0
  3 18  1  0  0  0  0
  3  1  2  0  0  0  0
  4 10  2  0  0  0  0
  5 17  1  0  0  0  0
  5 11  1  1  0  0  0
  6 19  1  0  0  0  0
  7 14  1  6  0  0  0
  7  2  1  0  0  0  0
  7 16  1  0  0  0  0
  9 11  1  0  0  0  0
  9  8  1  0  0  0  0
 10 12  1  0  0  0  0
 12 17  1  0  0  0  0
 13 10  1  0  0  0  0
 15 23  1  6  0  0  0
 15  1  1  0  0  0  0
 15 14  1  0  0  0  0
 16  9  2  0  0  0  0
 17 31  1  6  0  0  0
 18 13  2  0  0  0  0
 19  8  2  0  0  0  0
 20 16  1  0  0  0  0
 20  6  2  0  0  0  0
 21 26  1  0  0  0  0
 22 21  1  0  0  0  0
 24 21  2  0  0  0  0
 24 28  1  0  0  0  0
 25 23  1  0  0  0  0
 26 27  1  0  0  0  0
 26 23  2  0  0  0  0
 28 30  1  0  0  0  0
 28 25  2  0  0  0  0
 30 29  1  0  0  0  0
 32 31  1  0  0  0  0
M  END
>  <MODEL>
6

>  <REMARK>
 VINA RESULT:      -8.1      2.870      3.376
  Name = 
  3 active torsions:
  status: ('A' for Active; 'I' for Inactive)
    1  A    between atoms: C_13  and  C_29
    2  A    between atoms: O_15  and  C_26
    3  A    between atoms: C_16  and  C_27
                            x       y       z     vdW  Elec       q    Type
                         _______ _______ _______ _____ _____    ______ ____

>  <TORSDO>
F 3

$$$$
=
 OpenBabel10262421093D

 32 37  0  0  1  0  0  0  0  0999 V2000
  187.5510  178.4940  140.9720 C   0  0  0  0  0  0  0  0  0  0  0  0
  188.4270  177.9210  138.6660 C   0  0  2  0  0  3  0  0  0  0  0  0
  186.5080  178.9500  141.7930 C   0  0  0  0  0  3  0  0  0  0  0  0
  187.2980  178.2500  139.6090 C   0  0  0  0  0  0  0  0  0  0  0  0
  187.9810  176.7990  137.7320 C   0  0  2  0  0  3  0  0  0  0  0  0
  193.0350  176.0260  138.3440 C   0  0  0  0  0  3  0  0  0  0  0  0
  189.7850  177.6980  139.3740 C   0  0  1  0  0  3  0  0  0  0  0  0
  191.3630  175.5100  136.6710 C   0  0  0  0  0  3  0  0  0  0  0  0
  190.4070  176.2240  137.4000 C   0  0  0  0  0  0  0  0  0  0  0  0
  185.9770  178.2950  139.1180 C   0  0  0  0  0  0  0  0  0  0  0  0
  189.0770  176.3330  136.8940 N   0  0  0  0  0  2  0  0  0  0  0  0
  185.6120  177.7340  137.7630 C   0  0  0  0  0  2  0  0  0  0  0  0
  184.9450  178.7190  139.9610 C   0  0  0  0  0  3  0  0  0  0  0  0
  189.6130  177.2080  140.7390 N   0  0  0  0  0  2  0  0  0  0  0  0
  188.9480  178.2620  141.5090 C   0  0  2  0  0  3  0  0  0  0  0  0
  190.7680  176.8550  138.6060 C   0  0  0  0  0  0  0  0  0  0  0  0
  186.7990  177.3020  136.8830 C   0  0  1  0  0  3  0  0  0  0  0  0
  185.2140  179.0740  141.2860 C   0  0  0  0  0  3  0  0  0  0  0  0
  192.6740  175.4070  137.1450 C   0  0  0  0  0  3  0  0  0  0  0  0
  192.0860  176.7530  139.0680 C   0  0  0  0  0  3  0  0  0  0  0  0
  190.2000  177.5370  145.0350 C   0  0  0  0  0  0  0  0  0  0  0  0
  191.3700  177.4690  145.7160 F   0  0  0  0  0  0  0  0  0  0  0  0
  188.9720  177.9150  142.9730 C   0  0  0  0  0  0  0  0  0  0  0  0
  188.9990  177.2960  145.7060 C   0  0  0  0  0  3  0  0  0  0  0  0
  187.7720  177.6730  143.6590 C   0  0  0  0  0  3  0  0  0  0  0  0
  190.1930  177.8490  143.6690 C   0  0  0  0  0  0  0  0  0  0  0  0
  191.4250  178.0970  142.9950 N   0  0  0  0  0  1  0  0  0  0  0  0
  187.7760  177.3630  145.0200 C   0  0  0  0  0  0  0  0  0  0  0  0
  185.7290  178.1760  146.1430 C   0  0  0  0  0  1  0  0  0  0  0  0
  186.5600  177.1280  145.6660 O   0  0  0  0  0  0  0  0  0  0  0  0
  187.1820  178.4540  135.9570 C   0  0  0  0  0  2  0  0  0  0  0  0
  186.8020  178.1650  134.6460 O   0  0  0  0  0  1  0  0  0  0  0  0
  1 15  1  0  0  0  0
  1  3  1  0  0  0  0
  2  7  1  0  0  0  0
  2  4  1  1  0  0  0
  4  1  2  0  0  0  0
  5 11  1  6  0  0  0
  5  2  1  0  0  0  0
  6 20  1  0  0  0  0
  7 16  1  6  0  0  0
  7 14  1  0  0  0  0
  8 19  1  0  0  0  0
  8  9  2  0  0  0  0
  9 16  1  0  0  0  0
 10  4  1  0  0  0  0
 10 13  2  0  0  0  0
 11  9  1  0  0  0  0
 12 10  1  0  0  0  0
 13 18  1  0  0  0  0
 14 15  1  0  0  0  0
 15 23  1  1  0  0  0
 16 20  2  0  0  0  0
 17 31  1  1  0  0  0
 17  5  1  0  0  0  0
 17 12  1  0  0  0  0
 18  3  2  0  0  0  0
 19  6  2  0  0  0  0
 21 24  1  0  0  0  0
 21 22  1  0  0  0  0
 23 25  2  0  0  0  0
 23 26  1  0  0  0  0
 25 28  1  0  0  0  0
 26 21  2  0  0  0  0
 27 26  1  0  0  0  0
 28 30  1  0  0  0  0
 28 24  2  0  0  0  0
 30 29  1  0  0  0  0
 32 31  1  0  0  0  0
M  END
>  <MODEL>
7

>  <REMARK>
 VINA RESULT:      -8.0      3.751      7.762
  Name = 
  3 active torsions:
  status: ('A' for Active; 'I' for Inactive)
    1  A    between atoms: C_13  and  C_29
    2  A    between atoms: O_15  and  C_26
    3  A    between atoms: C_16  and  C_27
                            x       y       z     vdW  Elec       q    Type
                         _______ _______ _______ _____ _____    ______ ____

>  <TORSDO>
F 3

$$$$
=
 OpenBabel10262421093D

 32 37  0  0  1  0  0  0  0  0999 V2000
  189.5530  176.9630  143.5290 C   0  0  0  0  0  0  0  0  0  0  0  0
  187.9240  177.4070  141.6410 C   0  0  2  0  0  3  0  0  0  0  0  0
  190.8530  176.6590  143.9610 C   0  0  0  0  0  3  0  0  0  0  0  0
  189.3260  177.2420  142.1680 C   0  0  0  0  0  0  0  0  0  0  0  0
  187.8970  178.5820  140.6670 C   0  0  2  0  0  3  0  0  0  0  0  0
  183.2390  178.6280  142.8640 C   0  0  0  0  0  3  0  0  0  0  0  0
  186.8420  177.4340  142.7480 C   0  0  1  0  0  3  0  0  0  0  0  0
  184.2110  179.3780  140.7770 C   0  0  0  0  0  3  0  0  0  0  0  0
  185.4350  178.8060  141.1370 C   0  0  0  0  0  0  0  0  0  0  0  0
  190.4180  177.3850  141.2860 C   0  0  0  0  0  0  0  0  0  0  0  0
  186.5390  178.8880  140.2360 N   0  0  0  0  0  2  0  0  0  0  0  0
  190.2570  177.9930  139.9120 C   0  0  0  0  0  2  0  0  0  0  0  0
  191.7100  177.1110  141.7440 C   0  0  0  0  0  3  0  0  0  0  0  0
  187.3700  177.9430  144.0120 N   0  0  0  0  0  2  0  0  0  0  0  0
  188.3790  176.9940  144.4860 C   0  0  2  0  0  3  0  0  0  0  0  0
  185.5630  178.1300  142.3650 C   0  0  0  0  0  0  0  0  0  0  0  0
  188.8050  178.2530  139.4680 C   0  0  1  0  0  3  0  0  0  0  0  0
  191.9250  176.7210  143.0680 C   0  0  0  0  0  3  0  0  0  0  0  0
  183.1160  179.2930  141.6410 C   0  0  0  0  0  3  0  0  0  0  0  0
  184.4570  178.0430  143.2210 C   0  0  0  0  0  3  0  0  0  0  0  0
  188.2070  178.1770  148.1050 C   0  0  0  0  0  0  0  0  0  0  0  0
  187.3080  178.7050  148.9720 F   0  0  0  0  0  0  0  0  0  0  0  0
  188.7730  177.3320  145.8980 C   0  0  0  0  0  0  0  0  0  0  0  0
  189.5130  177.9320  148.5330 C   0  0  0  0  0  3  0  0  0  0  0  0
  190.0820  177.0880  146.3420 C   0  0  0  0  0  3  0  0  0  0  0  0
  187.8300  177.8780  146.7890 C   0  0  0  0  0  0  0  0  0  0  0  0
  186.4930  178.1290  146.3620 N   0  0  0  0  0  1  0  0  0  0  0  0
  190.4590  177.3850  147.6530 C   0  0  0  0  0  0  0  0  0  0  0  0
  192.4310  175.8980  147.7860 C   0  0  0  0  0  1  0  0  0  0  0  0
  191.7720  177.1280  148.0550 O   0  0  0  0  0  0  0  0  0  0  0  0
  188.3090  177.0580  138.6580 C   0  0  0  0  0  2  0  0  0  0  0  0
  189.3870  176.3840  138.0840 O   0  0  0  0  0  1  0  0  0  0  0  0
  1  3  1  0  0  0  0
  1 15  1  0  0  0  0
  2  4  1  1  0  0  0
  2  7  1  0  0  0  0
  4  1  2  0  0  0  0
  5 11  1  6  0  0  0
  5  2  1  0  0  0  0
  6 20  1  0  0  0  0
  7 16  1  6  0  0  0
  7 14  1  0  0  0  0
  8  9  2  0  0  0  0
  8 19  1  0  0  0  0
  9 16  1  0  0  0  0
 10 13  2  0  0  0  0
 10  4  1  0  0  0  0
 11  9  1  0  0  0  0
 12 10  1  0  0  0  0
 13 18  1  0  0  0  0
 14 15  1  0  0  0  0
 15 23  1  1  0  0  0
 16 20  2  0  0  0  0
 17 31  1  1  0  0  0
 17 12  1  0  0  0  0
 17  5  1  0  0  0  0
 18  3  2  0  0  0  0
 19  6  2  0  0  0  0
 21 24  1  0  0  0  0
 21 22  1  0  0  0  0
 23 25  2  0  0  0  0
 23 26  1  0  0  0  0
 25 28  1  0  0  0  0
 26 21  2  0  0  0  0
 27 26  1  0  0  0  0
 28 30  1  0  0  0  0
 28 24  2  0  0  0  0
 29 30  1  0  0  0  0
 32 31  1  0  0  0  0
M  END
>  <MODEL>
8

>  <REMARK>
 VINA RESULT:      -7.9      3.519      7.344
  Name = 
  3 active torsions:
  status: ('A' for Active; 'I' for Inactive)
    1  A    between atoms: C_13  and  C_29
    2  A    between atoms: O_15  and  C_26
    3  A    between atoms: C_16  and  C_27
                            x       y       z     vdW  Elec       q    Type
                         _______ _______ _______ _____ _____    ______ ____

>  <TORSDO>
F 3

$$$$
=
 OpenBabel10262421093D

 32 37  0  0  1  0  0  0  0  0999 V2000
  187.3960  178.2510  140.3180 C   0  0  0  0  0  0  0  0  0  0  0  0
  185.2640  178.9930  141.4670 C   0  0  2  0  0  3  0  0  0  0  0  0
  188.7330  177.8330  140.3980 C   0  0  0  0  0  3  0  0  0  0  0  0
  186.6450  178.3890  141.5000 C   0  0  0  0  0  0  0  0  0  0  0  0
  184.3490  178.1850  142.3830 C   0  0  2  0  0  3  0  0  0  0  0  0
  181.2590  179.8240  138.6040 C   0  0  0  0  0  3  0  0  0  0  0  0
  184.7270  179.2380  140.0360 C   0  0  1  0  0  3  0  0  0  0  0  0
  181.0110  179.1550  140.9160 C   0  0  0  0  0  3  0  0  0  0  0  0
  182.3980  179.0190  141.0300 C   0  0  0  0  0  0  0  0  0  0  0  0
  187.1770  177.9450  142.7290 C   0  0  0  0  0  0  0  0  0  0  0  0
  182.9640  178.6260  142.2810 N   0  0  0  0  0  2  0  0  0  0  0  0
  186.3100  177.7710  143.9550 C   0  0  0  0  0  2  0  0  0  0  0  0
  188.5010  177.5000  142.7830 C   0  0  0  0  0  3  0  0  0  0  0  0
  185.2970  178.3000  139.0720 N   0  0  0  0  0  2  0  0  0  0  0  0
  186.7340  178.5660  138.9920 C   0  0  2  0  0  3  0  0  0  0  0  0
  183.2260  179.2970  139.9260 C   0  0  0  0  0  0  0  0  0  0  0  0
  184.8690  178.2980  143.8280 C   0  0  1  0  0  3  0  0  0  0  0  0
  189.2860  177.4710  141.6280 C   0  0  0  0  0  3  0  0  0  0  0  0
  180.4420  179.5520  139.7040 C   0  0  0  0  0  3  0  0  0  0  0  0
  182.6470  179.7030  138.7170 C   0  0  0  0  0  3  0  0  0  0  0  0
  188.8550  177.6840  135.9500 C   0  0  0  0  0  0  0  0  0  0  0  0
  189.7910  178.2510  135.1500 F   0  0  0  0  0  0  0  0  0  0  0  0
  187.3290  177.8060  137.8360 C   0  0  0  0  0  0  0  0  0  0  0  0
  188.4480  176.3710  135.7060 C   0  0  0  0  0  3  0  0  0  0  0  0
  186.9300  176.4850  137.5830 C   0  0  0  0  0  3  0  0  0  0  0  0
  188.3000  178.4060  137.0150 C   0  0  0  0  0  0  0  0  0  0  0  0
  188.7260  179.7460  137.2570 N   0  0  0  0  0  1  0  0  0  0  0  0
  187.4820  175.7630  136.5230 C   0  0  0  0  0  0  0  0  0  0  0  0
  186.2190  173.7520  137.2140 C   0  0  0  0  0  1  0  0  0  0  0  0
  187.0560  174.4500  136.3030 O   0  0  0  0  0  0  0  0  0  0  0  0
  184.8080  179.7240  144.3700 C   0  0  0  0  0  2  0  0  0  0  0  0
  185.2260  179.7520  145.7010 O   0  0  0  0  0  1  0  0  0  0  0  0
  1  3  2  0  0  0  0
  1  4  1  0  0  0  0
  2  4  1  6  0  0  0
  2  5  1  0  0  0  0
  3 18  1  0  0  0  0
  4 10  2  0  0  0  0
  5 11  1  1  0  0  0
  5 17  1  0  0  0  0
  6 20  2  0  0  0  0
  6 19  1  0  0  0  0
  7 14  1  6  0  0  0
  7  2  1  0  0  0  0
  8  9  1  0  0  0  0
  9 11  1  0  0  0  0
 10 13  1  0  0  0  0
 10 12  1  0  0  0  0
 15 23  1  6  0  0  0
 15 14  1  0  0  0  0
 15  1  1  0  0  0  0
 16  7  1  0  0  0  0
 16  9  2  0  0  0  0
 17 12  1  0  0  0  0
 17 31  1  6  0  0  0
 18 13  2  0  0  0  0
 19  8  2  0  0  0  0
 20 16  1  0  0  0  0
 21 26  1  0  0  0  0
 22 21  1  0  0  0  0
 24 21  2  0  0  0  0
 24 28  1  0  0  0  0
 25 23  1  0  0  0  0
 26 27  1  0  0  0  0
 26 23  2  0  0  0  0
 28 25  2  0  0  0  0
 30 28  1  0  0  0  0
 30 29  1  0  0  0  0
 31 32  1  0  0  0  0
M  END
>  <MODEL>
9

>  <REMARK>
 VINA RESULT:      -7.9      2.951      5.485
  Name = 
  3 active torsions:
  status: ('A' for Active; 'I' for Inactive)
    1  A    between atoms: C_13  and  C_29
    2  A    between atoms: O_15  and  C_26
    3  A    between atoms: C_16  and  C_27
                            x       y       z     vdW  Elec       q    Type
                         _______ _______ _______ _____ _____    ______ ____

>  <TORSDO>
F 3

$$$$
