=
 OpenBabel10262419583D

 25 29  0  0  1  0  0  0  0  0999 V2000
  190.9780  176.4780  142.3810 C   0  0  1  0  0  3  0  0  0  0  0  0
  191.0240  177.3600  141.2280 N   0  0  0  0  0  0  0  0  0  0  0  0
  188.5530  177.6840  143.1660 C   0  0  1  0  0  3  0  0  0  0  0  0
  191.0370  177.3390  143.6840 C   0  0  2  0  0  3  0  0  0  0  0  0
  191.6720  176.7250  139.0170 C   0  0  0  0  0  0  0  0  0  0  0  0
  188.8580  176.8350  141.9000 C   0  0  2  0  0  3  0  0  0  0  0  0
  187.5650  177.2290  145.2880 O   0  0  0  0  0  1  0  0  0  0  0  0
  189.9310  177.1860  144.7570 C   0  0  2  0  0  0  0  0  0  0  0  0
  189.2610  177.3260  139.4400 C   0  0  1  0  0  3  0  0  0  0  0  0
  189.1970  178.6170  138.6360 C   0  0  0  0  0  1  0  0  0  0  0  0
  192.0260  177.1590  140.2260 C   0  0  0  0  0  3  0  0  0  0  0  0
  189.7490  175.8030  142.2770 O   0  0  0  0  0  0  0  0  0  0  0  0
  188.5070  176.7580  144.3680 C   0  0  2  0  0  3  0  0  0  0  0  0
  190.2340  176.3130  138.8110 C   0  0  1  0  0  3  0  0  0  0  0  0
  189.8560  178.2950  143.7180 C   0  0  2  0  0  3  0  0  0  0  0  0
  189.8820  175.9930  137.3640 C   0  0  0  0  0  1  0  0  0  0  0  0
  189.6360  177.6740  140.8940 C   0  0  2  0  0  3  0  0  0  0  0  0
  190.1860  177.8320  146.1100 C   0  0  0  0  0  2  0  0  0  0  0  0
  190.6280  176.7800  147.1070 C   0  0  0  0  0  1  0  0  0  0  0  0
  192.7170  176.5200  137.9630 C   0  0  0  0  0  2  0  0  0  0  0  0
  193.4660  175.2140  138.1760 C   0  0  0  0  0  2  0  0  0  0  0  0
  195.6790  174.4290  139.0710 C   0  0  0  0  0  0  0  0  0  0  0  0
  195.2440  173.1080  139.0570 O   0  0  0  0  0  0  0  0  0  0  0  0
  196.8430  174.6970  139.4660 O   0  0  0  0  0  1  0  0  0  0  0  0
  194.8180  175.4800  138.6400 N   0  0  0  0  0  2  0  0  0  0  0  0
  1 12  1  1  0  0  0
  1  4  1  0  0  0  0
  2  1  1  0  0  0  0
  3 15  1  0  0  0  0
  3 13  1  0  0  0  0
  4 15  1  0  0  0  0
  4  8  1  0  0  0  0
  5 11  2  0  0  0  0
  6 12  1  0  0  0  0
  6  3  1  0  0  0  0
  8 18  1  0  0  0  0
  9 17  1  0  0  0  0
 10  9  1  0  0  0  0
 11  2  1  0  0  0  0
 13  8  1  0  0  0  0
 13  7  1  0  0  0  0
 14  5  1  0  0  0  0
 14  9  1  0  0  0  0
 15  8  1  0  0  0  0
 16 14  1  0  0  0  0
 17  2  1  0  0  0  0
 17  6  1  0  0  0  0
 18 19  1  0  0  0  0
 20 21  1  0  0  0  0
 20  5  1  0  0  0  0
 21 25  1  0  0  0  0
 22 24  1  0  0  0  0
 23 22  2  0  0  0  0
 25 22  1  0  0  0  0
M  END
>  <MODEL>
1

>  <REMARK>
 VINA RESULT:      -7.8      0.000      0.000
  Name = 
  4 active torsions:
  status: ('A' for Active; 'I' for Inactive)
    1  A    between atoms: C_6  and  C_15
    2  A    between atoms: C_8  and  C_11
    3  A    between atoms: C_15  and  C_25
    4  A    between atoms: N_21  and  C_25
                            x       y       z     vdW  Elec       q    Type
                         _______ _______ _______ _____ _____    ______ ____

>  <TORSDO>
F 4

$$$$
=
 OpenBabel10262419583D

 25 29  0  0  1  0  0  0  0  0999 V2000
  188.9620  176.7720  141.5560 C   0  0  1  0  0  3  0  0  0  0  0  0
  189.2550  177.8410  142.4930 N   0  0  0  0  0  0  0  0  0  0  0  0
  191.2530  177.4870  140.0760 C   0  0  1  0  0  3  0  0  0  0  0  0
  188.6960  177.3880  140.1450 C   0  0  2  0  0  3  0  0  0  0  0  0
  189.0580  177.7000  144.8710 C   0  0  0  0  0  0  0  0  0  0  0  0
  191.1600  176.9230  141.5220 C   0  0  2  0  0  3  0  0  0  0  0  0
  191.7000  176.5360  137.9360 O   0  0  0  0  0  1  0  0  0  0  0  0
  189.5170  176.9030  138.9260 C   0  0  2  0  0  0  0  0  0  0  0  0
  191.3590  177.8910  143.8620 C   0  0  1  0  0  3  0  0  0  0  0  0
  191.7190  179.2830  144.3610 C   0  0  0  0  0  1  0  0  0  0  0  0
  188.4860  177.9560  143.6950 C   0  0  0  0  0  3  0  0  0  0  0  0
  190.1170  175.9690  141.5460 O   0  0  0  0  0  0  0  0  0  0  0  0
  190.9460  176.3640  139.1010 C   0  0  2  0  0  3  0  0  0  0  0  0
  190.4610  177.1440  144.8640 C   0  0  1  0  0  3  0  0  0  0  0  0
  189.9220  178.1580  139.6840 C   0  0  2  0  0  3  0  0  0  0  0  0
  191.0950  177.0400  146.2460 C   0  0  0  0  0  1  0  0  0  0  0  0
  190.7050  178.0220  142.4730 C   0  0  2  0  0  3  0  0  0  0  0  0
  189.0280  177.3270  137.5500 C   0  0  0  0  0  2  0  0  0  0  0  0
  188.2240  176.2060  136.9210 C   0  0  0  0  0  1  0  0  0  0  0  0
  188.2580  177.8260  146.1320 C   0  0  0  0  0  2  0  0  0  0  0  0
  186.9130  177.1270  146.0040 C   0  0  0  0  0  2  0  0  0  0  0  0
  184.9100  178.5170  145.3970 C   0  0  0  0  0  0  0  0  0  0  0  0
  185.0090  178.1240  144.0670 O   0  0  0  0  0  0  0  0  0  0  0  0
  183.9910  179.3010  145.7480 O   0  0  0  0  0  1  0  0  0  0  0  0
  185.8380  178.0360  146.3660 N   0  0  0  0  0  2  0  0  0  0  0  0
  1 12  1  6  0  0  0
  1  2  1  0  0  0  0
  2 11  1  0  0  0  0
  3  6  1  0  0  0  0
  4  1  1  0  0  0  0
  5 20  1  0  0  0  0
  6 12  1  0  0  0  0
  6 17  1  0  0  0  0
  7 13  1  0  0  0  0
  8 13  1  0  0  0  0
  8 15  1  0  0  0  0
  8  4  1  0  0  0  0
  9 10  1  0  0  0  0
  9 14  1  0  0  0  0
 11  5  2  0  0  0  0
 13  3  1  0  0  0  0
 14  5  1  0  0  0  0
 14 16  1  0  0  0  0
 15  3  1  0  0  0  0
 15  4  1  0  0  0  0
 17  2  1  0  0  0  0
 17  9  1  0  0  0  0
 18  8  1  0  0  0  0
 19 18  1  0  0  0  0
 21 20  1  0  0  0  0
 21 25  1  0  0  0  0
 22 24  1  0  0  0  0
 22 25  1  0  0  0  0
 23 22  2  0  0  0  0
M  END
>  <MODEL>
2

>  <REMARK>
 VINA RESULT:      -7.7      2.678      7.854
  Name = 
  4 active torsions:
  status: ('A' for Active; 'I' for Inactive)
    1  A    between atoms: C_6  and  C_15
    2  A    between atoms: C_8  and  C_11
    3  A    between atoms: C_15  and  C_25
    4  A    between atoms: N_21  and  C_25
                            x       y       z     vdW  Elec       q    Type
                         _______ _______ _______ _____ _____    ______ ____

>  <TORSDO>
F 4

$$$$
=
 OpenBabel10262419583D

 25 29  0  0  1  0  0  0  0  0999 V2000
  187.4720  176.9130  143.5010 C   0  0  1  0  0  3  0  0  0  0  0  0
  186.7840  178.1550  143.1970 N   0  0  0  0  0  0  0  0  0  0  0  0
  188.4450  178.0730  145.8800 C   0  0  1  0  0  3  0  0  0  0  0  0
  189.0110  177.1800  143.5480 C   0  0  2  0  0  3  0  0  0  0  0  0
  184.5780  178.3390  142.2980 C   0  0  0  0  0  0  0  0  0  0  0  0
  186.9780  177.7460  145.4800 C   0  0  2  0  0  3  0  0  0  0  0  0
  190.0960  176.9840  147.2110 O   0  0  0  0  0  1  0  0  0  0  0  0
  189.8210  176.7920  144.8100 C   0  0  2  0  0  0  0  0  0  0  0  0
  184.9780  179.0870  144.6700 C   0  0  1  0  0  3  0  0  0  0  0  0
  184.7630  180.5830  144.4840 C   0  0  0  0  0  1  0  0  0  0  0  0
  185.8860  178.2090  142.0830 C   0  0  0  0  0  3  0  0  0  0  0  0
  186.9880  176.5270  144.7640 O   0  0  0  0  0  0  0  0  0  0  0  0
  189.1580  176.7710  146.1970 C   0  0  2  0  0  3  0  0  0  0  0  0
  184.0870  178.2630  143.7230 C   0  0  1  0  0  3  0  0  0  0  0  0
  189.3170  178.2150  144.6170 C   0  0  2  0  0  3  0  0  0  0  0  0
  182.6080  178.5880  143.8890 C   0  0  0  0  0  1  0  0  0  0  0  0
  186.4770  178.7810  144.4810 C   0  0  2  0  0  3  0  0  0  0  0  0
  191.3370  176.8140  144.6930 C   0  0  0  0  0  2  0  0  0  0  0  0
  191.8270  175.5010  144.1170 C   0  0  0  0  0  1  0  0  0  0  0  0
  183.6350  178.4030  141.1340 C   0  0  0  0  0  2  0  0  0  0  0  0
  184.2310  179.2020  139.9860 C   0  0  0  0  0  2  0  0  0  0  0  0
  185.5240  178.1060  138.1300 C   0  0  0  0  0  0  0  0  0  0  0  0
  186.7190  178.6080  138.6330 O   0  0  0  0  0  1  0  0  0  0  0  0
  185.5340  177.3950  137.0920 O   0  0  0  0  0  0  0  0  0  0  0  0
  184.2880  178.3880  138.7830 N   0  0  0  0  0  2  0  0  0  0  0  0
  1  4  1  0  0  0  0
  1 12  1  1  0  0  0
  2  1  1  0  0  0  0
  2 17  1  0  0  0  0
  3 13  1  0  0  0  0
  4 15  1  0  0  0  0
  4  8  1  0  0  0  0
  5 14  1  0  0  0  0
  6  3  1  0  0  0  0
  8 13  1  0  0  0  0
 10  9  1  0  0  0  0
 11  5  2  0  0  0  0
 11  2  1  0  0  0  0
 12  6  1  0  0  0  0
 13  7  1  0  0  0  0
 14 16  1  0  0  0  0
 14  9  1  0  0  0  0
 15  8  1  0  0  0  0
 15  3  1  0  0  0  0
 17  9  1  0  0  0  0
 17  6  1  0  0  0  0
 18  8  1  0  0  0  0
 19 18  1  0  0  0  0
 20  5  1  0  0  0  0
 21 20  1  0  0  0  0
 22 23  1  0  0  0  0
 22 25  1  0  0  0  0
 24 22  2  0  0  0  0
 25 21  1  0  0  0  0
M  END
>  <MODEL>
3

>  <REMARK>
 VINA RESULT:      -7.0      4.951      6.919
  Name = 
  4 active torsions:
  status: ('A' for Active; 'I' for Inactive)
    1  A    between atoms: C_6  and  C_15
    2  A    between atoms: C_8  and  C_11
    3  A    between atoms: C_15  and  C_25
    4  A    between atoms: N_21  and  C_25
                            x       y       z     vdW  Elec       q    Type
                         _______ _______ _______ _____ _____    ______ ____

>  <TORSDO>
F 4

$$$$
=
 OpenBabel10262419583D

 25 29  0  0  1  0  0  0  0  0999 V2000
  190.9760  176.4900  142.3620 C   0  0  1  0  0  3  0  0  0  0  0  0
  190.9770  177.3770  141.2130 N   0  0  0  0  0  0  0  0  0  0  0  0
  188.5780  177.6860  143.2420 C   0  0  1  0  0  3  0  0  0  0  0  0
  191.0800  177.3430  143.6670 C   0  0  2  0  0  3  0  0  0  0  0  0
  191.5460  176.7570  138.9770 C   0  0  0  0  0  0  0  0  0  0  0  0
  188.8380  176.8440  141.9600 C   0  0  2  0  0  3  0  0  0  0  0  0
  187.6690  177.2160  145.3950 O   0  0  0  0  0  1  0  0  0  0  0  0
  190.0140  177.1820  144.7790 C   0  0  2  0  0  0  0  0  0  0  0  0
  189.1510  177.3510  139.4910 C   0  0  1  0  0  3  0  0  0  0  0  0
  189.0550  178.6450  138.6960 C   0  0  0  0  0  1  0  0  0  0  0  0
  191.9430  177.1850  140.1750 C   0  0  0  0  0  3  0  0  0  0  0  0
  189.7440  175.8120  142.2990 O   0  0  0  0  0  0  0  0  0  0  0  0
  188.5780  176.7520  144.4390 C   0  0  2  0  0  3  0  0  0  0  0  0
  190.1030  176.3430  138.8200 C   0  0  1  0  0  3  0  0  0  0  0  0
  189.8990  178.2960  143.7490 C   0  0  2  0  0  3  0  0  0  0  0  0
  189.6980  176.0300  137.3850 C   0  0  0  0  0  1  0  0  0  0  0  0
  189.5770  177.6900  140.9320 C   0  0  2  0  0  3  0  0  0  0  0  0
  190.3170  177.8200  146.1250 C   0  0  0  0  0  2  0  0  0  0  0  0
  190.7510  176.7560  147.1130 C   0  0  0  0  0  1  0  0  0  0  0  0
  192.5530  176.5610  137.8840 C   0  0  0  0  0  2  0  0  0  0  0  0
  193.3350  175.2710  138.0800 C   0  0  0  0  0  2  0  0  0  0  0  0
  193.6150  173.1120  136.8250 C   0  0  0  0  0  0  0  0  0  0  0  0
  194.9180  172.9820  137.2920 O   0  0  0  0  0  1  0  0  0  0  0  0
  193.1340  172.2320  136.0650 O   0  0  0  0  0  0  0  0  0  0  0  0
  192.8190  174.2330  137.2030 N   0  0  0  0  0  2  0  0  0  0  0  0
  1 12  1  1  0  0  0
  1  4  1  0  0  0  0
  2  1  1  0  0  0  0
  3 15  1  0  0  0  0
  3 13  1  0  0  0  0
  4 15  1  0  0  0  0
  4  8  1  0  0  0  0
  5 11  2  0  0  0  0
  6 12  1  0  0  0  0
  6  3  1  0  0  0  0
  8 18  1  0  0  0  0
  9 17  1  0  0  0  0
 10  9  1  0  0  0  0
 11  2  1  0  0  0  0
 13  8  1  0  0  0  0
 13  7  1  0  0  0  0
 14  5  1  0  0  0  0
 14  9  1  0  0  0  0
 15  8  1  0  0  0  0
 16 14  1  0  0  0  0
 17  2  1  0  0  0  0
 17  6  1  0  0  0  0
 18 19  1  0  0  0  0
 20 21  1  0  0  0  0
 20  5  1  0  0  0  0
 22 25  1  0  0  0  0
 22 23  1  0  0  0  0
 24 22  2  0  0  0  0
 25 21  1  0  0  0  0
M  END
>  <MODEL>
4

>  <REMARK>
 VINA RESULT:      -6.8      1.124      1.464
  Name = 
  4 active torsions:
  status: ('A' for Active; 'I' for Inactive)
    1  A    between atoms: C_6  and  C_15
    2  A    between atoms: C_8  and  C_11
    3  A    between atoms: C_15  and  C_25
    4  A    between atoms: N_21  and  C_25
                            x       y       z     vdW  Elec       q    Type
                         _______ _______ _______ _____ _____    ______ ____

>  <TORSDO>
F 4

$$$$
=
 OpenBabel10262419583D

 25 29  0  0  1  0  0  0  0  0999 V2000
  187.4590  176.9220  143.5130 C   0  0  1  0  0  3  0  0  0  0  0  0
  186.7650  178.1640  143.2240 N   0  0  0  0  0  0  0  0  0  0  0  0
  188.4360  178.0620  145.9000 C   0  0  1  0  0  3  0  0  0  0  0  0
  188.9970  177.1950  143.5570 C   0  0  2  0  0  3  0  0  0  0  0  0
  184.5540  178.3480  142.3360 C   0  0  0  0  0  0  0  0  0  0  0  0
  186.9690  177.7330  145.5030 C   0  0  2  0  0  3  0  0  0  0  0  0
  190.0980  176.9670  147.2140 O   0  0  0  0  0  1  0  0  0  0  0  0
  189.8130  176.7980  144.8110 C   0  0  2  0  0  0  0  0  0  0  0  0
  184.9610  179.0740  144.7140 C   0  0  1  0  0  3  0  0  0  0  0  0
  184.7380  180.5710  144.5440 C   0  0  0  0  0  1  0  0  0  0  0  0
  185.8630  178.2260  142.1150 C   0  0  0  0  0  3  0  0  0  0  0  0
  186.9810  176.5210  144.7740 O   0  0  0  0  0  0  0  0  0  0  0  0
  189.1570  176.7600  146.2010 C   0  0  2  0  0  3  0  0  0  0  0  0
  184.0700  178.2560  143.7620 C   0  0  1  0  0  3  0  0  0  0  0  0
  189.3030  178.2210  144.6360 C   0  0  2  0  0  3  0  0  0  0  0  0
  182.5900  178.5730  143.9380 C   0  0  0  0  0  1  0  0  0  0  0  0
  186.4600  178.7760  144.5160 C   0  0  2  0  0  3  0  0  0  0  0  0
  191.3290  176.8280  144.6890 C   0  0  0  0  0  2  0  0  0  0  0  0
  191.8180  175.5450  144.0460 C   0  0  0  0  0  1  0  0  0  0  0  0
  183.6070  178.4210  141.1770 C   0  0  0  0  0  2  0  0  0  0  0  0
  184.3080  178.9180  139.9220 C   0  0  0  0  0  2  0  0  0  0  0  0
  182.4810  180.1510  138.7140 C   0  0  0  0  0  0  0  0  0  0  0  0
  181.8440  178.9540  138.4050 O   0  0  0  0  0  1  0  0  0  0  0  0
  181.9800  181.2400  138.3330 O   0  0  0  0  0  0  0  0  0  0  0  0
  183.6950  180.1540  139.4610 N   0  0  0  0  0  2  0  0  0  0  0  0
  1  4  1  0  0  0  0
  1 12  1  1  0  0  0
  2  1  1  0  0  0  0
  2 17  1  0  0  0  0
  3 13  1  0  0  0  0
  4 15  1  0  0  0  0
  4  8  1  0  0  0  0
  5 14  1  0  0  0  0
  6  3  1  0  0  0  0
  8 13  1  0  0  0  0
 10  9  1  0  0  0  0
 11  5  2  0  0  0  0
 11  2  1  0  0  0  0
 12  6  1  0  0  0  0
 13  7  1  0  0  0  0
 14 16  1  0  0  0  0
 14  9  1  0  0  0  0
 15  8  1  0  0  0  0
 15  3  1  0  0  0  0
 17  9  1  0  0  0  0
 17  6  1  0  0  0  0
 18  8  1  0  0  0  0
 19 18  1  0  0  0  0
 20  5  1  0  0  0  0
 21 20  1  0  0  0  0
 22 25  1  0  0  0  0
 23 22  1  0  0  0  0
 24 22  2  0  0  0  0
 25 21  1  0  0  0  0
M  END
>  <MODEL>
5

>  <REMARK>
 VINA RESULT:      -6.6      5.065      7.876
  Name = 
  4 active torsions:
  status: ('A' for Active; 'I' for Inactive)
    1  A    between atoms: C_6  and  C_15
    2  A    between atoms: C_8  and  C_11
    3  A    between atoms: C_15  and  C_25
    4  A    between atoms: N_21  and  C_25
                            x       y       z     vdW  Elec       q    Type
                         _______ _______ _______ _____ _____    ______ ____

>  <TORSDO>
F 4

$$$$
=
 OpenBabel10262419583D

 25 29  0  0  1  0  0  0  0  0999 V2000
  186.8440  177.3500  144.8130 C   0  0  1  0  0  3  0  0  0  0  0  0
  188.1480  177.9870  144.7880 N   0  0  0  0  0  0  0  0  0  0  0  0
  186.1980  178.6500  142.3950 C   0  0  1  0  0  3  0  0  0  0  0  0
  185.7390  178.4500  144.9060 C   0  0  2  0  0  3  0  0  0  0  0  0
  190.2200  176.9400  145.3560 C   0  0  0  0  0  0  0  0  0  0  0  0
  187.2870  177.5720  142.6660 C   0  0  2  0  0  3  0  0  0  0  0  0
  183.9850  178.6060  141.5100 O   0  0  0  0  0  1  0  0  0  0  0  0
  184.6060  178.4950  143.8520 C   0  0  2  0  0  0  0  0  0  0  0  0
  189.8110  177.5770  142.9520 C   0  0  1  0  0  3  0  0  0  0  0  0
  190.8480  178.6830  142.8220 C   0  0  0  0  0  1  0  0  0  0  0  0
  189.1370  177.6080  145.7510 C   0  0  0  0  0  3  0  0  0  0  0  0
  186.7570  176.6490  143.5960 O   0  0  0  0  0  0  0  0  0  0  0  0
  184.8380  177.9770  142.4230 C   0  0  2  0  0  3  0  0  0  0  0  0
  190.2740  176.4740  143.9210 C   0  0  1  0  0  3  0  0  0  0  0  0
  185.8380  179.3770  143.7060 C   0  0  2  0  0  3  0  0  0  0  0  0
  191.6130  175.8700  143.5140 C   0  0  0  0  0  1  0  0  0  0  0  0
  188.4720  178.2090  143.3800 C   0  0  2  0  0  3  0  0  0  0  0  0
  183.4190  179.3980  144.1490 C   0  0  0  0  0  2  0  0  0  0  0  0
  182.1720  178.5600  144.3450 C   0  0  0  0  0  1  0  0  0  0  0  0
  191.2610  176.5480  146.3600 C   0  0  0  0  0  2  0  0  0  0  0  0
  190.8400  176.9330  147.7690 C   0  0  0  0  0  2  0  0  0  0  0  0
  192.9840  176.6130  149.0400 C   0  0  0  0  0  0  0  0  0  0  0  0
  192.9080  175.2360  148.8710 O   0  0  0  0  0  0  0  0  0  0  0  0
  193.9530  177.1110  149.6700 O   0  0  0  0  0  1  0  0  0  0  0  0
  191.9750  177.4660  148.5050 N   0  0  0  0  0  2  0  0  0  0  0  0
  1 12  1  6  0  0  0
  1  4  1  0  0  0  0
  2  1  1  0  0  0  0
  2 11  1  0  0  0  0
  3 13  1  0  0  0  0
  3  6  1  0  0  0  0
  3 15  1  0  0  0  0
  5 11  2  0  0  0  0
  5 20  1  0  0  0  0
  6 17  1  0  0  0  0
  6 12  1  0  0  0  0
  7 13  1  0  0  0  0
  8 18  1  0  0  0  0
  8  4  1  0  0  0  0
  9 17  1  0  0  0  0
  9 14  1  0  0  0  0
 10  9  1  0  0  0  0
 13  8  1  0  0  0  0
 14  5  1  0  0  0  0
 15  8  1  0  0  0  0
 15  4  1  0  0  0  0
 16 14  1  0  0  0  0
 17  2  1  0  0  0  0
 18 19  1  0  0  0  0
 20 21  1  0  0  0  0
 21 25  1  0  0  0  0
 22 24  1  0  0  0  0
 23 22  2  0  0  0  0
 25 22  1  0  0  0  0
M  END
>  <MODEL>
6

>  <REMARK>
 VINA RESULT:      -6.6      4.771      6.745
  Name = 
  4 active torsions:
  status: ('A' for Active; 'I' for Inactive)
    1  A    between atoms: C_6  and  C_15
    2  A    between atoms: C_8  and  C_11
    3  A    between atoms: C_15  and  C_25
    4  A    between atoms: N_21  and  C_25
                            x       y       z     vdW  Elec       q    Type
                         _______ _______ _______ _____ _____    ______ ____

>  <TORSDO>
F 4

$$$$
=
 OpenBabel10262419583D

 25 29  0  0  1  0  0  0  0  0999 V2000
  188.5260  178.3270  142.9380 C   0  0  1  0  0  3  0  0  0  0  0  0
  188.3680  177.4950  141.7580 N   0  0  0  0  0  0  0  0  0  0  0  0
  190.9220  176.9640  143.5350 C   0  0  1  0  0  3  0  0  0  0  0  0
  188.4950  177.4200  144.2100 C   0  0  2  0  0  3  0  0  0  0  0  0
  187.6310  178.2500  139.6140 C   0  0  0  0  0  0  0  0  0  0  0  0
  190.5940  177.8780  142.3200 C   0  0  2  0  0  3  0  0  0  0  0  0
  192.0520  177.2840  145.6100 O   0  0  0  0  0  1  0  0  0  0  0  0
  189.6660  177.4720  145.2210 C   0  0  2  0  0  0  0  0  0  0  0  0
  190.0250  177.5050  139.8730 C   0  0  1  0  0  3  0  0  0  0  0  0
  189.9730  176.2460  139.0200 C   0  0  0  0  0  1  0  0  0  0  0  0
  187.3220  177.7880  140.8250 C   0  0  0  0  0  3  0  0  0  0  0  0
  189.7840  178.9400  142.7860 O   0  0  0  0  0  0  0  0  0  0  0  0
  191.0870  177.8390  144.7650 C   0  0  2  0  0  3  0  0  0  0  0  0
  189.0750  178.5930  139.3380 C   0  0  1  0  0  3  0  0  0  0  0  0
  189.6210  176.4020  144.1400 C   0  0  2  0  0  3  0  0  0  0  0  0
  189.3630  178.9510  137.8850 C   0  0  0  0  0  1  0  0  0  0  0  0
  189.7150  177.1220  141.3330 C   0  0  2  0  0  3  0  0  0  0  0  0
  189.4530  176.7880  146.5630 C   0  0  0  0  0  2  0  0  0  0  0  0
  189.0300  177.8100  147.5990 C   0  0  0  0  0  1  0  0  0  0  0  0
  186.5400  178.5510  138.6310 C   0  0  0  0  0  2  0  0  0  0  0  0
  185.1840  178.6120  139.3150 C   0  0  0  0  0  2  0  0  0  0  0  0
  183.1570  180.0490  138.9330 C   0  0  0  0  0  0  0  0  0  0  0  0
  182.3270  178.9360  138.9880 O   0  0  0  0  0  1  0  0  0  0  0  0
  182.6600  181.1890  138.7420 O   0  0  0  0  0  0  0  0  0  0  0  0
  184.5670  179.9100  139.0920 N   0  0  0  0  0  2  0  0  0  0  0  0
  1 12  1  6  0  0  0
  1  4  1  0  0  0  0
  2  1  1  0  0  0  0
  3 15  1  0  0  0  0
  3 13  1  0  0  0  0
  4  8  1  0  0  0  0
  5 11  2  0  0  0  0
  6 12  1  0  0  0  0
  6  3  1  0  0  0  0
  8 18  1  0  0  0  0
  9 17  1  0  0  0  0
 10  9  1  0  0  0  0
 11  2  1  0  0  0  0
 13  8  1  0  0  0  0
 13  7  1  0  0  0  0
 14  5  1  0  0  0  0
 14  9  1  0  0  0  0
 15  4  1  0  0  0  0
 15  8  1  0  0  0  0
 16 14  1  0  0  0  0
 17  2  1  0  0  0  0
 17  6  1  0  0  0  0
 18 19  1  0  0  0  0
 20 21  1  0  0  0  0
 20  5  1  0  0  0  0
 22 23  1  0  0  0  0
 22 25  1  0  0  0  0
 24 22  2  0  0  0  0
 25 21  1  0  0  0  0
M  END
>  <MODEL>
7

>  <REMARK>
 VINA RESULT:      -6.6      3.609      6.420
  Name = 
  4 active torsions:
  status: ('A' for Active; 'I' for Inactive)
    1  A    between atoms: C_6  and  C_15
    2  A    between atoms: C_8  and  C_11
    3  A    between atoms: C_15  and  C_25
    4  A    between atoms: N_21  and  C_25
                            x       y       z     vdW  Elec       q    Type
                         _______ _______ _______ _____ _____    ______ ____

>  <TORSDO>
F 4

$$$$
=
 OpenBabel10262419583D

 25 29  0  0  1  0  0  0  0  0999 V2000
  188.9560  177.7620  142.1800 C   0  0  1  0  0  3  0  0  0  0  0  0
  187.6550  177.2490  142.5680 N   0  0  0  0  0  0  0  0  0  0  0  0
  187.9650  178.2120  139.5790 C   0  0  1  0  0  3  0  0  0  0  0  0
  189.5510  176.8510  141.0580 C   0  0  2  0  0  3  0  0  0  0  0  0
  186.5440  177.6980  144.6360 C   0  0  0  0  0  0  0  0  0  0  0  0
  187.5420  178.8840  140.9160 C   0  0  2  0  0  3  0  0  0  0  0  0
  189.4100  178.8240  137.7840 O   0  0  0  0  0  1  0  0  0  0  0  0
  189.9950  177.4770  139.7130 C   0  0  2  0  0  0  0  0  0  0  0  0
  185.5810  178.6630  142.5150 C   0  0  1  0  0  3  0  0  0  0  0  0
  184.2980  177.8460  142.4470 C   0  0  0  0  0  1  0  0  0  0  0  0
  187.3990  176.9460  143.9440 C   0  0  0  0  0  3  0  0  0  0  0  0
  188.7080  179.0600  141.6970 O   0  0  0  0  0  0  0  0  0  0  0  0
  189.3260  178.7530  139.1780 C   0  0  2  0  0  3  0  0  0  0  0  0
  186.0010  178.9400  143.9710 C   0  0  1  0  0  3  0  0  0  0  0  0
  188.6180  176.8450  139.8580 C   0  0  2  0  0  3  0  0  0  0  0  0
  184.9080  179.6430  144.7650 C   0  0  0  0  0  1  0  0  0  0  0  0
  186.6750  177.9240  141.7200 C   0  0  2  0  0  3  0  0  0  0  0  0
  190.8140  176.6000  138.7790 C   0  0  0  0  0  2  0  0  0  0  0  0
  192.2920  176.8680  138.9870 C   0  0  0  0  0  1  0  0  0  0  0  0
  186.2670  177.3800  146.0740 C   0  0  0  0  0  2  0  0  0  0  0  0
  187.2460  178.0910  146.9940 C   0  0  0  0  0  2  0  0  0  0  0  0
  189.5780  177.1580  146.9170 C   0  0  0  0  0  0  0  0  0  0  0  0
  189.9300  178.0530  145.9140 O   0  0  0  0  0  0  0  0  0  0  0  0
  190.4310  176.3390  147.3480 O   0  0  0  0  0  1  0  0  0  0  0  0
  188.2610  177.1610  147.4620 N   0  0  0  0  0  2  0  0  0  0  0  0
  1 12  1  6  0  0  0
  1  2  1  0  0  0  0
  2 11  1  0  0  0  0
  3 15  1  0  0  0  0
  3  6  1  0  0  0  0
  4  1  1  0  0  0  0
  5 20  1  0  0  0  0
  6 12  1  0  0  0  0
  6 17  1  0  0  0  0
  7 13  1  0  0  0  0
  8 15  1  0  0  0  0
  8  4  1  0  0  0  0
  9 14  1  0  0  0  0
 10  9  1  0  0  0  0
 11  5  2  0  0  0  0
 13  3  1  0  0  0  0
 13  8  1  0  0  0  0
 14  5  1  0  0  0  0
 14 16  1  0  0  0  0
 15  4  1  0  0  0  0
 17  9  1  0  0  0  0
 17  2  1  0  0  0  0
 18 19  1  0  0  0  0
 18  8  1  0  0  0  0
 20 21  1  0  0  0  0
 21 25  1  0  0  0  0
 22 24  1  0  0  0  0
 22 25  1  0  0  0  0
 23 22  2  0  0  0  0
M  END
>  <MODEL>
8

>  <REMARK>
 VINA RESULT:      -6.5      3.472      7.220
  Name = 
  4 active torsions:
  status: ('A' for Active; 'I' for Inactive)
    1  A    between atoms: C_6  and  C_15
    2  A    between atoms: C_8  and  C_11
    3  A    between atoms: C_15  and  C_25
    4  A    between atoms: N_21  and  C_25
                            x       y       z     vdW  Elec       q    Type
                         _______ _______ _______ _____ _____    ______ ____

>  <TORSDO>
F 4

$$$$
=
 OpenBabel10262419583D

 25 29  0  0  1  0  0  0  0  0999 V2000
  187.9210  177.3120  139.0120 C   0  0  1  0  0  3  0  0  0  0  0  0
  188.7920  177.9620  139.9740 N   0  0  0  0  0  0  0  0  0  0  0  0
  190.0730  177.1930  137.1930 C   0  0  1  0  0  3  0  0  0  0  0  0
  187.7930  178.2190  137.7450 C   0  0  2  0  0  3  0  0  0  0  0  0
  188.8570  177.5090  142.3190 C   0  0  0  0  0  0  0  0  0  0  0  0
  189.9140  176.4840  138.5680 C   0  0  2  0  0  3  0  0  0  0  0  0
  189.7510  176.5320  134.9250 O   0  0  0  0  0  1  0  0  0  0  0  0
  188.1320  177.6430  136.3490 C   0  0  2  0  0  0  0  0  0  0  0  0
  190.8360  176.8410  140.9080 C   0  0  1  0  0  3  0  0  0  0  0  0
  191.8600  177.8230  141.4610 C   0  0  0  0  0  1  0  0  0  0  0  0
  188.3240  178.1910  141.3070 C   0  0  0  0  0  3  0  0  0  0  0  0
  188.5600  176.0980  138.7000 O   0  0  0  0  0  0  0  0  0  0  0  0
  189.1590  176.5100  136.1910 C   0  0  2  0  0  3  0  0  0  0  0  0
  189.8300  176.4030  141.9880 C   0  0  1  0  0  3  0  0  0  0  0  0
  189.1660  178.4380  137.1330 C   0  0  2  0  0  3  0  0  0  0  0  0
  190.5140  175.7920  143.2040 C   0  0  0  0  0  1  0  0  0  0  0  0
  190.1460  177.4870  139.6910 C   0  0  2  0  0  3  0  0  0  0  0  0
  187.7250  178.4720  135.1410 C   0  0  0  0  0  2  0  0  0  0  0  0
  186.4040  177.9690  134.5940 C   0  0  0  0  0  1  0  0  0  0  0  0
  188.3750  177.7510  143.7170 C   0  0  0  0  0  2  0  0  0  0  0  0
  186.8660  177.5870  143.8160 C   0  0  0  0  0  2  0  0  0  0  0  0
  185.4310  178.8250  145.4660 C   0  0  0  0  0  0  0  0  0  0  0  0
  184.8590  179.5740  144.4440 O   0  0  0  0  0  0  0  0  0  0  0  0
  185.0700  179.0160  146.6560 O   0  0  0  0  0  1  0  0  0  0  0  0
  186.4210  177.8410  145.1770 N   0  0  0  0  0  2  0  0  0  0  0  0
  1 12  1  6  0  0  0
  1  2  1  0  0  0  0
  2 11  1  0  0  0  0
  3  6  1  0  0  0  0
  4  1  1  0  0  0  0
  5 20  1  0  0  0  0
  6 12  1  0  0  0  0
  6 17  1  0  0  0  0
  7 13  1  0  0  0  0
  8 15  1  0  0  0  0
  8  4  1  0  0  0  0
  9 10  1  0  0  0  0
  9 14  1  0  0  0  0
 11  5  2  0  0  0  0
 13  8  1  0  0  0  0
 13  3  1  0  0  0  0
 14  5  1  0  0  0  0
 14 16  1  0  0  0  0
 15  3  1  0  0  0  0
 15  4  1  0  0  0  0
 17  2  1  0  0  0  0
 17  9  1  0  0  0  0
 18  8  1  0  0  0  0
 19 18  1  0  0  0  0
 20 21  1  0  0  0  0
 21 25  1  0  0  0  0
 22 24  1  0  0  0  0
 23 22  2  0  0  0  0
 25 22  1  0  0  0  0
M  END
>  <MODEL>
9

>  <REMARK>
 VINA RESULT:      -6.2      3.499      8.122
  Name = 
  4 active torsions:
  status: ('A' for Active; 'I' for Inactive)
    1  A    between atoms: C_6  and  C_15
    2  A    between atoms: C_8  and  C_11
    3  A    between atoms: C_15  and  C_25
    4  A    between atoms: N_21  and  C_25
                            x       y       z     vdW  Elec       q    Type
                         _______ _______ _______ _____ _____    ______ ____

>  <TORSDO>
F 4

$$$$
