=
 OpenBabel10262422503D

 37 41  0  0  1  0  0  0  0  0999 V2000
  185.0540  178.2590  142.4880 C   0  0  0  0  0  0  0  0  0  0  0  0
  182.7770  178.9000  143.1710 C   0  0  0  0  0  2  0  0  0  0  0  0
  184.7640  178.2720  141.0130 C   0  0  2  0  0  3  0  0  0  0  0  0
  184.1820  178.4630  143.4180 C   0  0  0  0  0  0  0  0  0  0  0  0
  185.7540  179.0050  140.3390 O   0  0  0  0  0  0  0  0  0  0  0  0
  184.8210  178.4130  144.6680 N   0  0  0  0  0  2  0  0  0  0  0  0
  182.3080  178.5010  141.7620 C   0  0  2  0  0  3  0  0  0  0  0  0
  187.4360  178.8770  142.6140 C   0  0  0  0  0  2  0  0  0  0  0  0
  186.1580  178.1610  144.5390 O   0  0  0  0  0  0  0  0  0  0  0  0
  186.3510  177.9430  143.1450 C   0  0  1  0  0  3  0  0  0  0  0  0
  183.3770  178.8670  140.6940 C   0  0  2  0  0  3  0  0  0  0  0  0
  186.8470  178.1340  140.2130 C   0  0  2  0  0  3  0  0  0  0  0  0
  187.9520  178.4680  141.2270 C   0  0  0  0  0  2  0  0  0  0  0  0
  182.8420  176.9640  139.0560 C   0  0  0  0  0  2  0  0  0  0  0  0
  181.4110  176.4820  139.2440 C   0  0  0  0  0  2  0  0  0  0  0  0
  180.3060  178.0420  137.5520 C   0  0  2  0  0  3  0  0  0  0  0  0
  180.6500  176.5920  137.9250 C   0  0  2  0  0  3  0  0  0  0  0  0
  181.4520  178.8650  137.4100 O   0  0  0  0  0  0  0  0  0  0  0  0
  181.8550  179.3290  138.6780 C   0  0  1  0  0  3  0  0  0  0  0  0
  179.1570  178.6650  138.3540 C   0  0  0  0  0  1  0  0  0  0  0  0
  182.9990  178.4800  139.2500 C   0  0  1  0  0  3  0  0  0  0  0  0
  181.0930  181.6500  138.2060 C   0  0  0  0  0  1  0  0  0  0  0  0
  182.2810  180.7850  138.5760 C   0  0  0  0  0  2  0  0  0  0  0  0
  179.3280  174.8430  138.8220 C   0  0  0  0  0  2  0  0  0  0  0  0
  179.4580  175.7830  137.9590 N   0  0  0  0  0  0  0  0  0  0  0  0
  188.7620  178.2870  138.6170 C   0  0  0  0  0  3  0  0  0  0  0  0
  187.3850  178.1500  138.8190 C   0  0  0  0  0  0  0  0  0  0  0  0
  186.5250  178.0630  137.7130 C   0  0  0  0  0  3  0  0  0  0  0  0
  186.2170  177.9910  135.3500 F   0  0  0  0  0  0  0  0  0  0  0  0
  188.4250  178.2300  136.2190 C   0  0  0  0  0  3  0  0  0  0  0  0
  187.0460  178.0990  136.4170 C   0  0  0  0  0  0  0  0  0  0  0  0
  189.2820  178.3250  137.3190 C   0  0  0  0  0  3  0  0  0  0  0  0
  180.9850  179.2090  141.4870 C   0  0  0  0  0  2  0  0  0  0  0  0
  179.8520  178.5660  142.2240 C   0  0  0  0  0  0  0  0  0  0  0  0
  179.6560  177.3660  142.1060 O   0  0  0  0  0  0  0  0  0  0  0  0
  178.9690  179.3790  143.1160 C   0  0  0  0  0  2  0  0  0  0  0  0
  179.1800  178.9870  144.5650 C   0  0  0  0  0  1  0  0  0  0  0  0
  1 10  1  0  0  0  0
  1  4  2  0  0  0  0
  2  4  1  0  0  0  0
  3  5  1  6  0  0  0
  3  1  1  0  0  0  0
  4  6  1  0  0  0  0
  7 33  1  6  0  0  0
  7  2  1  0  0  0  0
  9  6  1  0  0  0  0
 10  8  1  6  0  0  0
 10  9  1  0  0  0  0
 11 21  1  6  0  0  0
 11  3  1  0  0  0  0
 11  7  1  0  0  0  0
 12 27  1  6  0  0  0
 12  5  1  0  0  0  0
 12 13  1  0  0  0  0
 13  8  1  0  0  0  0
 14 15  1  0  0  0  0
 16 17  1  0  0  0  0
 16 20  1  1  0  0  0
 17 25  1  1  0  0  0
 17 15  1  0  0  0  0
 18 16  1  0  0  0  0
 18 19  1  0  0  0  0
 19 23  1  6  0  0  0
 19 21  1  0  0  0  0
 21 14  1  1  0  0  0
 22 23  1  0  0  0  0
 25 24  2  0  0  0  0
 26 27  1  0  0  0  0
 28 27  2  0  0  0  0
 29 31  1  0  0  0  0
 30 31  2  0  0  0  0
 30 32  1  0  0  0  0
 31 28  1  0  0  0  0
 32 26  2  0  0  0  0
 33 34  1  0  0  0  0
 34 36  1  0  0  0  0
 35 34  2  0  0  0  0
 36 37  1  0  0  0  0
M  END
>  <MODEL>
1

>  <REMARK>
 VINA RESULT:      -6.8      0.000      0.000
  Name = 
  7 active torsions:
  status: ('A' for Active; 'I' for Inactive)
    1  A    between atoms: C_3  and  C_21
    2  A    between atoms: C_6  and  C_31
    3  A    between atoms: C_17  and  N_23
    4  A    between atoms: C_20  and  C_25
    5  A    between atoms: C_21  and  C_25
    6  A    between atoms: C_27  and  C_33
    7  A    between atoms: C_29  and  C_36
                            x       y       z     vdW  Elec       q    Type
                         _______ _______ _______ _____ _____    ______ ____

>  <TORSDO>
F 7

$$$$
=
 OpenBabel10262422503D

 37 41  0  0  1  0  0  0  0  0999 V2000
  190.9490  176.8650  139.5700 C   0  0  0  0  0  0  0  0  0  0  0  0
  191.7640  177.8740  141.6630 C   0  0  0  0  0  2  0  0  0  0  0  0
  189.5120  176.7890  140.0050 C   0  0  2  0  0  3  0  0  0  0  0  0
  191.9280  177.2690  140.3090 C   0  0  0  0  0  0  0  0  0  0  0  0
  188.6830  177.3150  139.0020 O   0  0  0  0  0  0  0  0  0  0  0  0
  193.1150  177.2410  139.5580 N   0  0  0  0  0  2  0  0  0  0  0  0
  190.4500  177.4220  142.3210 C   0  0  2  0  0  3  0  0  0  0  0  0
  190.8010  177.1540  137.1280 C   0  0  0  0  0  2  0  0  0  0  0  0
  192.8940  176.7950  138.2860 O   0  0  0  0  0  0  0  0  0  0  0  0
  191.5170  176.4300  138.2660 C   0  0  1  0  0  3  0  0  0  0  0  0
  189.2590  177.5410  141.3280 C   0  0  2  0  0  3  0  0  0  0  0  0
  188.5480  176.2920  138.0490 C   0  0  2  0  0  3  0  0  0  0  0  0
  189.4210  176.5560  136.8130 C   0  0  0  0  0  2  0  0  0  0  0  0
  188.0400  176.2110  143.1540 C   0  0  0  0  0  2  0  0  0  0  0  0
  187.9800  177.0100  144.4480 C   0  0  0  0  0  2  0  0  0  0  0  0
  185.7470  178.1730  144.0200 C   0  0  2  0  0  3  0  0  0  0  0  0
  186.5270  177.1730  144.8880 C   0  0  2  0  0  3  0  0  0  0  0  0
  185.7000  177.8020  142.6530 O   0  0  0  0  0  0  0  0  0  0  0  0
  186.8810  178.2260  142.0110 C   0  0  1  0  0  3  0  0  0  0  0  0
  186.0710  179.6490  144.2790 C   0  0  0  0  0  1  0  0  0  0  0  0
  187.9010  177.0850  141.8980 C   0  0  1  0  0  3  0  0  0  0  0  0
  185.0540  179.0230  140.5230 C   0  0  0  0  0  1  0  0  0  0  0  0
  186.5440  178.7690  140.6310 C   0  0  0  0  0  2  0  0  0  0  0  0
  187.5100  177.5470  147.0110 C   0  0  0  0  0  2  0  0  0  0  0  0
  186.4570  177.5490  146.2780 N   0  0  0  0  0  0  0  0  0  0  0  0
  186.6640  174.8400  137.2870 C   0  0  0  0  0  3  0  0  0  0  0  0
  187.1180  176.1100  137.6590 C   0  0  0  0  0  0  0  0  0  0  0  0
  186.2340  177.2010  137.6280 C   0  0  0  0  0  3  0  0  0  0  0  0
  184.0460  178.0630  137.2350 F   0  0  0  0  0  0  0  0  0  0  0  0
  184.4540  175.7400  136.8770 C   0  0  0  0  0  3  0  0  0  0  0  0
  184.9040  177.0130  137.2420 C   0  0  0  0  0  0  0  0  0  0  0  0
  185.3330  174.6550  136.8980 C   0  0  0  0  0  3  0  0  0  0  0  0
  190.2240  178.2810  143.5610 C   0  0  0  0  0  2  0  0  0  0  0  0
  191.3530  178.1520  144.5350 C   0  0  0  0  0  0  0  0  0  0  0  0
  192.0580  179.1200  144.7750 O   0  0  0  0  0  0  0  0  0  0  0  0
  191.6130  176.8540  145.2280 C   0  0  0  0  0  2  0  0  0  0  0  0
  191.1010  176.9070  146.6550 C   0  0  0  0  0  1  0  0  0  0  0  0
  1  3  1  0  0  0  0
  1  4  2  0  0  0  0
  2  7  1  0  0  0  0
  3  5  1  6  0  0  0
  3 11  1  0  0  0  0
  4  2  1  0  0  0  0
  6  4  1  0  0  0  0
  7 33  1  1  0  0  0
  9  6  1  0  0  0  0
 10  8  1  6  0  0  0
 10  9  1  0  0  0  0
 10  1  1  0  0  0  0
 11 21  1  1  0  0  0
 11  7  1  0  0  0  0
 12 27  1  6  0  0  0
 12  5  1  0  0  0  0
 13  8  1  0  0  0  0
 13 12  1  0  0  0  0
 14 15  1  0  0  0  0
 15 17  1  0  0  0  0
 16 20  1  6  0  0  0
 16 17  1  0  0  0  0
 17 25  1  1  0  0  0
 18 16  1  0  0  0  0
 19 23  1  6  0  0  0
 19 18  1  0  0  0  0
 21 19  1  0  0  0  0
 21 14  1  1  0  0  0
 22 23  1  0  0  0  0
 25 24  2  0  0  0  0
 26 27  1  0  0  0  0
 28 27  2  0  0  0  0
 29 31  1  0  0  0  0
 30 32  1  0  0  0  0
 30 31  2  0  0  0  0
 31 28  1  0  0  0  0
 32 26  2  0  0  0  0
 33 34  1  0  0  0  0
 34 35  2  0  0  0  0
 34 36  1  0  0  0  0
 36 37  1  0  0  0  0
M  END
>  <MODEL>
2

>  <REMARK>
 VINA RESULT:      -6.2      4.062      7.802
  Name = 
  7 active torsions:
  status: ('A' for Active; 'I' for Inactive)
    1  A    between atoms: C_3  and  C_21
    2  A    between atoms: C_6  and  C_31
    3  A    between atoms: C_17  and  N_23
    4  A    between atoms: C_20  and  C_25
    5  A    between atoms: C_21  and  C_25
    6  A    between atoms: C_27  and  C_33
    7  A    between atoms: C_29  and  C_36
                            x       y       z     vdW  Elec       q    Type
                         _______ _______ _______ _____ _____    ______ ____

>  <TORSDO>
F 7

$$$$
=
 OpenBabel10262422503D

 37 41  0  0  1  0  0  0  0  0999 V2000
  187.1450  178.2540  139.4490 C   0  0  0  0  0  0  0  0  0  0  0  0
  186.2690  177.6330  137.2330 C   0  0  0  0  0  2  0  0  0  0  0  0
  185.7960  178.3540  140.1060 C   0  0  2  0  0  3  0  0  0  0  0  0
  187.3440  178.0110  138.1960 C   0  0  0  0  0  0  0  0  0  0  0  0
  185.8040  177.6420  141.3160 O   0  0  0  0  0  0  0  0  0  0  0  0
  188.7260  177.9540  137.9520 N   0  0  0  0  0  2  0  0  0  0  0  0
  184.8960  178.1430  137.7000 C   0  0  2  0  0  3  0  0  0  0  0  0
  188.6340  177.5610  141.2850 C   0  0  0  0  0  2  0  0  0  0  0  0
  189.4470  178.1760  139.0910 O   0  0  0  0  0  0  0  0  0  0  0  0
  188.4720  178.4870  140.0810 C   0  0  1  0  0  3  0  0  0  0  0  0
  184.6640  177.8220  139.2040 C   0  0  2  0  0  3  0  0  0  0  0  0
  186.4260  178.4880  142.2480 C   0  0  2  0  0  3  0  0  0  0  0  0
  187.8730  178.0520  142.5250 C   0  0  0  0  0  2  0  0  0  0  0  0
  183.1290  179.8380  139.6170 C   0  0  0  0  0  2  0  0  0  0  0  0
  182.4030  180.2290  138.3380 C   0  0  0  0  0  2  0  0  0  0  0  0
  180.3290  178.7770  138.6730 C   0  0  2  0  0  3  0  0  0  0  0  0
  180.8940  180.2020  138.5710 C   0  0  2  0  0  3  0  0  0  0  0  0
  180.9000  178.0280  139.7330 O   0  0  0  0  0  0  0  0  0  0  0  0
  182.1220  177.4710  139.3080 C   0  0  1  0  0  3  0  0  0  0  0  0
  180.2130  178.0270  137.3410 C   0  0  0  0  0  1  0  0  0  0  0  0
  183.3170  178.3200  139.7650 C   0  0  1  0  0  3  0  0  0  0  0  0
  181.0220  175.2460  139.4730 C   0  0  0  0  0  1  0  0  0  0  0  0
  182.2490  176.0530  139.8440 C   0  0  0  0  0  2  0  0  0  0  0  0
  180.8090  181.8770  136.8970 C   0  0  0  0  0  2  0  0  0  0  0  0
  180.2090  180.9440  137.5430 N   0  0  0  0  0  0  0  0  0  0  0  0
  186.2990  178.3950  144.7410 C   0  0  0  0  0  3  0  0  0  0  0  0
  185.6410  178.5540  143.5170 C   0  0  0  0  0  0  0  0  0  0  0  0
  184.2490  178.7410  143.4960 C   0  0  0  0  0  3  0  0  0  0  0  0
  182.1900  178.9850  144.6730 F   0  0  0  0  0  0  0  0  0  0  0  0
  184.1940  178.6280  145.9150 C   0  0  0  0  0  3  0  0  0  0  0  0
  183.5300  178.7820  144.6940 C   0  0  0  0  0  0  0  0  0  0  0  0
  185.5780  178.4330  145.9380 C   0  0  0  0  0  3  0  0  0  0  0  0
  183.8290  177.4940  136.8250 C   0  0  0  0  0  2  0  0  0  0  0  0
  184.2610  176.1480  136.3330 C   0  0  0  0  0  0  0  0  0  0  0  0
  184.8030  176.0480  135.2430 O   0  0  0  0  0  0  0  0  0  0  0  0
  184.0490  174.9300  137.1720 C   0  0  0  0  0  2  0  0  0  0  0  0
  185.3160  174.0980  137.2220 C   0  0  0  0  0  1  0  0  0  0  0  0
  1 10  1  0  0  0  0
  2  7  1  0  0  0  0
  2  4  1  0  0  0  0
  3  1  1  6  0  0  0
  3  5  1  0  0  0  0
  4  1  2  0  0  0  0
  5 12  1  0  0  0  0
  6  4  1  0  0  0  0
  6  9  1  0  0  0  0
  7 33  1  6  0  0  0
  7 11  1  0  0  0  0
  8 13  1  0  0  0  0
  9 10  1  0  0  0  0
 10  8  1  1  0  0  0
 11 21  1  1  0  0  0
 11  3  1  0  0  0  0
 12 13  1  0  0  0  0
 12 27  1  1  0  0  0
 15 17  1  0  0  0  0
 15 14  1  0  0  0  0
 16 20  1  6  0  0  0
 16 18  1  0  0  0  0
 17 25  1  6  0  0  0
 17 16  1  0  0  0  0
 19 18  1  0  0  0  0
 19 21  1  0  0  0  0
 19 23  1  1  0  0  0
 21 14  1  6  0  0  0
 22 23  1  0  0  0  0
 24 25  2  0  0  0  0
 26 32  1  0  0  0  0
 27 26  2  0  0  0  0
 28 27  1  0  0  0  0
 28 31  2  0  0  0  0
 29 31  1  0  0  0  0
 30 32  2  0  0  0  0
 31 30  1  0  0  0  0
 34 33  1  0  0  0  0
 34 36  1  0  0  0  0
 35 34  2  0  0  0  0
 36 37  1  0  0  0  0
M  END
>  <MODEL>
3

>  <REMARK>
 VINA RESULT:      -6.1      2.984      5.973
  Name = 
  7 active torsions:
  status: ('A' for Active; 'I' for Inactive)
    1  A    between atoms: C_3  and  C_21
    2  A    between atoms: C_6  and  C_31
    3  A    between atoms: C_17  and  N_23
    4  A    between atoms: C_20  and  C_25
    5  A    between atoms: C_21  and  C_25
    6  A    between atoms: C_27  and  C_33
    7  A    between atoms: C_29  and  C_36
                            x       y       z     vdW  Elec       q    Type
                         _______ _______ _______ _____ _____    ______ ____

>  <TORSDO>
F 7

$$$$
=
 OpenBabel10262422503D

 37 41  0  0  1  0  0  0  0  0999 V2000
  182.0900  178.5650  142.3890 C   0  0  0  0  0  0  0  0  0  0  0  0
  180.3080  178.7070  140.6960 C   0  0  0  0  0  2  0  0  0  0  0  0
  183.1130  177.9700  141.4610 C   0  0  2  0  0  3  0  0  0  0  0  0
  180.8630  178.8190  142.0770 C   0  0  0  0  0  0  0  0  0  0  0  0
  184.3230  178.6740  141.5710 O   0  0  0  0  0  0  0  0  0  0  0  0
  180.2190  179.4040  143.1790 N   0  0  0  0  0  2  0  0  0  0  0  0
  181.1200  177.7170  139.8460 C   0  0  2  0  0  3  0  0  0  0  0  0
  183.4450  179.8580  143.9900 C   0  0  0  0  0  2  0  0  0  0  0  0
  181.0630  179.5270  144.2470 O   0  0  0  0  0  0  0  0  0  0  0  0
  182.2690  178.8970  143.8280 C   0  0  1  0  0  3  0  0  0  0  0  0
  182.6460  177.9790  139.9910 C   0  0  2  0  0  3  0  0  0  0  0  0
  184.9430  178.1770  142.7280 C   0  0  2  0  0  3  0  0  0  0  0  0
  184.8080  179.1560  143.9050 C   0  0  0  0  0  2  0  0  0  0  0  0
  182.9370  175.6080  139.0510 C   0  0  0  0  0  2  0  0  0  0  0  0
  182.1150  175.4300  137.7820 C   0  0  0  0  0  2  0  0  0  0  0  0
  183.9150  176.1450  136.1160 C   0  0  2  0  0  3  0  0  0  0  0  0
  183.0250  175.0030  136.6330 C   0  0  2  0  0  3  0  0  0  0  0  0
  184.7710  176.6750  137.1140 O   0  0  0  0  0  0  0  0  0  0  0  0
  184.0650  177.6240  137.8800 C   0  0  1  0  0  3  0  0  0  0  0  0
  183.1940  177.1910  135.2570 C   0  0  0  0  0  1  0  0  0  0  0  0
  183.5410  177.0130  139.1870 C   0  0  1  0  0  3  0  0  0  0  0  0
  186.3950  178.4910  137.7780 C   0  0  0  0  0  1  0  0  0  0  0  0
  184.9690  178.8100  138.1790 C   0  0  0  0  0  2  0  0  0  0  0  0
  181.0480  174.0370  135.7530 C   0  0  0  0  0  2  0  0  0  0  0  0
  182.2500  174.4400  135.5550 N   0  0  0  0  0  0  0  0  0  0  0  0
  187.0730  177.0390  143.3670 C   0  0  0  0  0  3  0  0  0  0  0  0
  186.3790  177.8560  142.4690 C   0  0  0  0  0  0  0  0  0  0  0  0
  187.0480  178.3900  141.3560 C   0  0  0  0  0  3  0  0  0  0  0  0
  189.0350  178.5900  140.0530 F   0  0  0  0  0  0  0  0  0  0  0  0
  189.0850  177.2710  142.0380 C   0  0  0  0  0  3  0  0  0  0  0  0
  188.3970  178.0930  141.1400 C   0  0  0  0  0  0  0  0  0  0  0  0
  188.4240  176.7450  143.1520 C   0  0  0  0  0  3  0  0  0  0  0  0
  180.6690  177.8600  138.3960 C   0  0  0  0  0  2  0  0  0  0  0  0
  180.3580  179.2830  138.0520 C   0  0  0  0  0  0  0  0  0  0  0  0
  179.2060  179.6830  138.1180 O   0  0  0  0  0  0  0  0  0  0  0  0
  181.4480  180.2210  137.6450 C   0  0  0  0  0  2  0  0  0  0  0  0
  181.4110  181.4730  138.4980 C   0  0  0  0  0  1  0  0  0  0  0  0
  1 10  1  0  0  0  0
  2  4  1  0  0  0  0
  3  5  1  6  0  0  0
  3  1  1  0  0  0  0
  4  1  2  0  0  0  0
  4  6  1  0  0  0  0
  5 12  1  0  0  0  0
  6  9  1  0  0  0  0
  7 33  1  6  0  0  0
  7 11  1  0  0  0  0
  7  2  1  0  0  0  0
 10  8  1  6  0  0  0
 10  9  1  0  0  0  0
 11 21  1  6  0  0  0
 11  3  1  0  0  0  0
 12 27  1  6  0  0  0
 12 13  1  0  0  0  0
 13  8  1  0  0  0  0
 15 14  1  0  0  0  0
 16 20  1  1  0  0  0
 16 17  1  0  0  0  0
 16 18  1  0  0  0  0
 17 25  1  6  0  0  0
 17 15  1  0  0  0  0
 18 19  1  0  0  0  0
 19 23  1  1  0  0  0
 19 21  1  0  0  0  0
 21 14  1  6  0  0  0
 22 23  1  0  0  0  0
 25 24  2  0  0  0  0
 27 26  2  0  0  0  0
 28 27  1  0  0  0  0
 29 31  1  0  0  0  0
 30 32  2  0  0  0  0
 31 28  2  0  0  0  0
 31 30  1  0  0  0  0
 32 26  1  0  0  0  0
 34 35  2  0  0  0  0
 34 33  1  0  0  0  0
 36 34  1  0  0  0  0
 36 37  1  0  0  0  0
M  END
>  <MODEL>
4

>  <REMARK>
 VINA RESULT:      -5.8      2.280      4.191
  Name = 
  7 active torsions:
  status: ('A' for Active; 'I' for Inactive)
    1  A    between atoms: C_3  and  C_21
    2  A    between atoms: C_6  and  C_31
    3  A    between atoms: C_17  and  N_23
    4  A    between atoms: C_20  and  C_25
    5  A    between atoms: C_21  and  C_25
    6  A    between atoms: C_27  and  C_33
    7  A    between atoms: C_29  and  C_36
                            x       y       z     vdW  Elec       q    Type
                         _______ _______ _______ _____ _____    ______ ____

>  <TORSDO>
F 7

$$$$
=
 OpenBabel10262422503D

 37 41  0  0  1  0  0  0  0  0999 V2000
  187.5850  178.0940  139.8000 C   0  0  0  0  0  0  0  0  0  0  0  0
  189.5030  178.6460  141.2410 C   0  0  0  0  0  2  0  0  0  0  0  0
  186.6110  177.9120  140.9310 C   0  0  2  0  0  3  0  0  0  0  0  0
  188.8440  178.3430  139.9370 C   0  0  0  0  0  0  0  0  0  0  0  0
  185.4340  178.6300  140.6660 O   0  0  0  0  0  0  0  0  0  0  0  0
  189.4270  178.4880  138.6670 N   0  0  0  0  0  2  0  0  0  0  0  0
  188.7120  178.0510  142.4180 C   0  0  2  0  0  3  0  0  0  0  0  0
  186.1740  178.8930  137.9450 C   0  0  0  0  0  2  0  0  0  0  0  0
  188.5070  178.3190  137.6710 O   0  0  0  0  0  0  0  0  0  0  0  0
  187.3080  177.9520  138.3450 C   0  0  1  0  0  3  0  0  0  0  0  0
  187.1950  178.3640  142.2850 C   0  0  2  0  0  3  0  0  0  0  0  0
  184.6970  177.8310  139.7770 C   0  0  2  0  0  3  0  0  0  0  0  0
  184.7870  178.3600  138.3380 C   0  0  0  0  0  2  0  0  0  0  0  0
  187.0040  176.6370  144.1750 C   0  0  0  0  0  2  0  0  0  0  0  0
  187.7610  177.1070  145.4090 C   0  0  0  0  0  2  0  0  0  0  0  0
  185.8290  178.3330  146.5420 C   0  0  2  0  0  3  0  0  0  0  0  0
  186.8170  177.1580  146.6070 C   0  0  2  0  0  3  0  0  0  0  0  0
  184.9980  178.2960  145.3930 O   0  0  0  0  0  0  0  0  0  0  0  0
  185.6840  178.8630  144.3010 C   0  0  1  0  0  3  0  0  0  0  0  0
  186.4300  179.7070  146.8610 C   0  0  0  0  0  1  0  0  0  0  0  0
  186.3200  177.7830  143.4140 C   0  0  1  0  0  3  0  0  0  0  0  0
  183.3650  179.7520  144.1530 C   0  0  0  0  0  1  0  0  0  0  0  0
  184.7250  179.7160  143.4850 C   0  0  0  0  0  2  0  0  0  0  0  0
  188.8470  177.1700  147.8300 C   0  0  0  0  0  2  0  0  0  0  0  0
  187.5640  177.1950  147.8400 N   0  0  0  0  0  0  0  0  0  0  0  0
  182.5280  176.5950  139.8460 C   0  0  0  0  0  3  0  0  0  0  0  0
  183.2730  177.7210  140.2130 C   0  0  0  0  0  0  0  0  0  0  0  0
  182.6640  178.7450  140.9550 C   0  0  0  0  0  3  0  0  0  0  0  0
  180.7440  179.6100  142.0740 F   0  0  0  0  0  0  0  0  0  0  0  0
  180.5860  177.5010  140.9730 C   0  0  0  0  0  3  0  0  0  0  0  0
  181.3240  178.6310  141.3370 C   0  0  0  0  0  0  0  0  0  0  0  0
  181.1870  176.4840  140.2270 C   0  0  0  0  0  3  0  0  0  0  0  0
  189.2850  178.6240  143.7100 C   0  0  0  0  0  2  0  0  0  0  0  0
  190.7400  178.3050  143.8580 C   0  0  0  0  0  0  0  0  0  0  0  0
  191.5510  179.2130  143.9600 O   0  0  0  0  0  0  0  0  0  0  0  0
  191.2050  176.8850  143.8990 C   0  0  0  0  0  2  0  0  0  0  0  0
  191.5870  176.4970  145.3130 C   0  0  0  0  0  1  0  0  0  0  0  0
  1  4  2  0  0  0  0
  2  7  1  0  0  0  0
  3  1  1  6  0  0  0
  3 11  1  0  0  0  0
  4  2  1  0  0  0  0
  5  3  1  0  0  0  0
  6  4  1  0  0  0  0
  7 33  1  1  0  0  0
  8 13  1  0  0  0  0
  9 10  1  0  0  0  0
  9  6  1  0  0  0  0
 10  8  1  6  0  0  0
 10  1  1  0  0  0  0
 11  7  1  0  0  0  0
 11 21  1  1  0  0  0
 12 27  1  1  0  0  0
 12  5  1  0  0  0  0
 13 12  1  0  0  0  0
 14 15  1  0  0  0  0
 15 17  1  0  0  0  0
 16 17  1  0  0  0  0
 16 20  1  6  0  0  0
 17 25  1  1  0  0  0
 18 16  1  0  0  0  0
 19 23  1  6  0  0  0
 19 18  1  0  0  0  0
 21 14  1  1  0  0  0
 21 19  1  0  0  0  0
 23 22  1  0  0  0  0
 24 25  2  0  0  0  0
 26 27  2  0  0  0  0
 26 32  1  0  0  0  0
 27 28  1  0  0  0  0
 28 31  2  0  0  0  0
 30 31  1  0  0  0  0
 31 29  1  0  0  0  0
 32 30  2  0  0  0  0
 33 34  1  0  0  0  0
 34 36  1  0  0  0  0
 34 35  2  0  0  0  0
 36 37  1  0  0  0  0
M  END
>  <MODEL>
5

>  <REMARK>
 VINA RESULT:      -5.6      3.290      8.104
  Name = 
  7 active torsions:
  status: ('A' for Active; 'I' for Inactive)
    1  A    between atoms: C_3  and  C_21
    2  A    between atoms: C_6  and  C_31
    3  A    between atoms: C_17  and  N_23
    4  A    between atoms: C_20  and  C_25
    5  A    between atoms: C_21  and  C_25
    6  A    between atoms: C_27  and  C_33
    7  A    between atoms: C_29  and  C_36
                            x       y       z     vdW  Elec       q    Type
                         _______ _______ _______ _____ _____    ______ ____

>  <TORSDO>
F 7

$$$$
=
 OpenBabel10262422503D

 37 41  0  0  1  0  0  0  0  0999 V2000
  189.2200  177.2960  140.1110 C   0  0  0  0  0  0  0  0  0  0  0  0
  187.0970  178.5420  140.0460 C   0  0  0  0  0  2  0  0  0  0  0  0
  189.0650  176.6890  138.7440 C   0  0  2  0  0  3  0  0  0  0  0  0
  188.3410  178.0390  140.6970 C   0  0  0  0  0  0  0  0  0  0  0  0
  190.2480  176.8650  138.0080 O   0  0  0  0  0  0  0  0  0  0  0  0
  188.8460  178.4550  141.9410 N   0  0  0  0  0  2  0  0  0  0  0  0
  186.6700  177.6330  138.8820 C   0  0  2  0  0  3  0  0  0  0  0  0
  191.6600  177.5030  140.3790 C   0  0  0  0  0  2  0  0  0  0  0  0
  190.0970  177.9550  142.1680 O   0  0  0  0  0  0  0  0  0  0  0  0
  190.3520  177.1020  141.0570 C   0  0  1  0  0  3  0  0  0  0  0  0
  187.8800  177.2950  137.9650 C   0  0  2  0  0  3  0  0  0  0  0  0
  191.1230  175.8640  138.4580 C   0  0  2  0  0  3  0  0  0  0  0  0
  192.1860  176.4320  139.4110 C   0  0  0  0  0  2  0  0  0  0  0  0
  186.8830  175.0520  137.2170 C   0  0  0  0  0  2  0  0  0  0  0  0
  185.3620  175.1170  137.2070 C   0  0  0  0  0  2  0  0  0  0  0  0
  185.0750  175.8770  134.7860 C   0  0  2  0  0  3  0  0  0  0  0  0
  184.8370  174.7630  135.8190 C   0  0  2  0  0  3  0  0  0  0  0  0
  186.4460  176.1920  134.6150 O   0  0  0  0  0  0  0  0  0  0  0  0
  186.8490  177.0920  135.6220 C   0  0  1  0  0  3  0  0  0  0  0  0
  184.1430  177.0880  134.9130 C   0  0  0  0  0  1  0  0  0  0  0  0
  187.5470  176.3660  136.7800 C   0  0  1  0  0  3  0  0  0  0  0  0
  189.0840  177.5040  134.6100 C   0  0  0  0  0  1  0  0  0  0  0  0
  187.7740  178.1420  135.0250 C   0  0  0  0  0  2  0  0  0  0  0  0
  182.8580  174.2260  137.0050 C   0  0  0  0  0  2  0  0  0  0  0  0
  183.4390  174.4190  135.8770 N   0  0  0  0  0  0  0  0  0  0  0  0
  192.8670  175.7440  136.6740 C   0  0  0  0  0  3  0  0  0  0  0  0
  191.7660  175.1590  137.3080 C   0  0  0  0  0  0  0  0  0  0  0  0
  191.2590  173.9380  136.8350 C   0  0  0  0  0  3  0  0  0  0  0  0
  191.3870  172.1150  135.3050 F   0  0  0  0  0  0  0  0  0  0  0  0
  192.9670  173.8900  135.1190 C   0  0  0  0  0  3  0  0  0  0  0  0
  191.8630  173.3050  135.7450 C   0  0  0  0  0  0  0  0  0  0  0  0
  193.4690  175.1100  135.5820 C   0  0  0  0  0  3  0  0  0  0  0  0
  185.5690  178.3480  138.1050 C   0  0  0  0  0  2  0  0  0  0  0  0
  184.5210  178.9040  139.0170 C   0  0  0  0  0  0  0  0  0  0  0  0
  184.3900  180.1140  139.1210 O   0  0  0  0  0  0  0  0  0  0  0  0
  183.6240  177.9900  139.7880 C   0  0  0  0  0  2  0  0  0  0  0  0
  183.4680  178.4850  141.2130 C   0  0  0  0  0  1  0  0  0  0  0  0
  1  4  2  0  0  0  0
  1 10  1  0  0  0  0
  2  4  1  0  0  0  0
  3  5  1  6  0  0  0
  3  1  1  0  0  0  0
  4  6  1  0  0  0  0
  5 12  1  0  0  0  0
  6  9  1  0  0  0  0
  7 33  1  6  0  0  0
  7  2  1  0  0  0  0
 10  8  1  6  0  0  0
 10  9  1  0  0  0  0
 11 21  1  6  0  0  0
 11  3  1  0  0  0  0
 11  7  1  0  0  0  0
 12 27  1  6  0  0  0
 12 13  1  0  0  0  0
 13  8  1  0  0  0  0
 15 14  1  0  0  0  0
 16 20  1  1  0  0  0
 16 17  1  0  0  0  0
 17 25  1  1  0  0  0
 17 15  1  0  0  0  0
 18 16  1  0  0  0  0
 18 19  1  0  0  0  0
 19 23  1  6  0  0  0
 19 21  1  0  0  0  0
 21 14  1  1  0  0  0
 22 23  1  0  0  0  0
 25 24  2  0  0  0  0
 26 27  1  0  0  0  0
 28 27  2  0  0  0  0
 29 31  1  0  0  0  0
 30 32  1  0  0  0  0
 30 31  2  0  0  0  0
 31 28  1  0  0  0  0
 32 26  2  0  0  0  0
 33 34  1  0  0  0  0
 34 35  2  0  0  0  0
 34 36  1  0  0  0  0
 36 37  1  0  0  0  0
M  END
>  <MODEL>
6

>  <REMARK>
 VINA RESULT:      -5.5      3.704      5.736
  Name = 
  7 active torsions:
  status: ('A' for Active; 'I' for Inactive)
    1  A    between atoms: C_3  and  C_21
    2  A    between atoms: C_6  and  C_31
    3  A    between atoms: C_17  and  N_23
    4  A    between atoms: C_20  and  C_25
    5  A    between atoms: C_21  and  C_25
    6  A    between atoms: C_27  and  C_33
    7  A    between atoms: C_29  and  C_36
                            x       y       z     vdW  Elec       q    Type
                         _______ _______ _______ _____ _____    ______ ____

>  <TORSDO>
F 7

$$$$
=
 OpenBabel10262422503D

 37 41  0  0  1  0  0  0  0  0999 V2000
  184.7520  178.6170  139.9340 C   0  0  0  0  0  0  0  0  0  0  0  0
  185.1450  177.7260  137.6730 C   0  0  0  0  0  2  0  0  0  0  0  0
  183.2530  178.6170  139.8230 C   0  0  2  0  0  3  0  0  0  0  0  0
  185.5670  178.2980  138.9850 C   0  0  0  0  0  0  0  0  0  0  0  0
  182.6920  178.0090  140.9570 O   0  0  0  0  0  0  0  0  0  0  0  0
  186.8850  178.3770  139.4630 N   0  0  0  0  0  2  0  0  0  0  0  0
  183.6970  178.1150  137.3340 C   0  0  2  0  0  3  0  0  0  0  0  0
  185.1540  178.2430  142.3360 C   0  0  0  0  0  2  0  0  0  0  0  0
  186.9220  178.7690  140.7720 O   0  0  0  0  0  0  0  0  0  0  0  0
  185.5660  179.0460  141.1040 C   0  0  1  0  0  3  0  0  0  0  0  0
  182.7600  177.8910  138.5540 C   0  0  2  0  0  3  0  0  0  0  0  0
  182.7120  178.9910  141.9600 C   0  0  2  0  0  3  0  0  0  0  0  0
  183.8460  178.7430  142.9670 C   0  0  0  0  0  2  0  0  0  0  0  0
  181.1010  179.7740  138.0110 C   0  0  0  0  0  2  0  0  0  0  0  0
  181.1210  180.0930  136.5230 C   0  0  0  0  0  2  0  0  0  0  0  0
  179.2810  178.4740  135.8080 C   0  0  2  0  0  3  0  0  0  0  0  0
  179.7180  179.9420  135.9420 C   0  0  2  0  0  3  0  0  0  0  0  0
  179.2660  177.7840  137.0460 O   0  0  0  0  0  0  0  0  0  0  0  0
  180.5650  177.3290  137.3440 C   0  0  1  0  0  3  0  0  0  0  0  0
  179.9260  177.7080  134.6470 C   0  0  0  0  0  1  0  0  0  0  0  0
  181.2870  178.2790  138.3100 C   0  0  1  0  0  3  0  0  0  0  0  0
  180.0680  176.0060  139.3910 C   0  0  0  0  0  1  0  0  0  0  0  0
  180.4910  175.9310  137.9380 C   0  0  0  0  0  2  0  0  0  0  0  0
  179.5880  181.8970  134.6110 C   0  0  0  0  0  2  0  0  0  0  0  0
  179.6190  180.6160  134.6720 N   0  0  0  0  0  0  0  0  0  0  0  0
  180.5150  180.1140  142.3470 C   0  0  0  0  0  3  0  0  0  0  0  0
  181.3930  179.0700  142.6570 C   0  0  0  0  0  0  0  0  0  0  0  0
  181.0380  178.1320  143.6400 C   0  0  0  0  0  3  0  0  0  0  0  0
  179.4570  177.3160  145.2260 F   0  0  0  0  0  0  0  0  0  0  0  0
  178.9310  179.2770  143.9760 C   0  0  0  0  0  3  0  0  0  0  0  0
  179.8070  178.2350  144.2940 C   0  0  0  0  0  0  0  0  0  0  0  0
  179.2850  180.2170  143.0040 C   0  0  0  0  0  3  0  0  0  0  0  0
  183.2540  177.2830  136.1350 C   0  0  0  0  0  2  0  0  0  0  0  0
  184.0020  175.9890  136.0530 C   0  0  0  0  0  0  0  0  0  0  0  0
  185.0360  175.9290  135.4060 O   0  0  0  0  0  0  0  0  0  0  0  0
  183.5010  174.7770  136.7700 C   0  0  0  0  0  2  0  0  0  0  0  0
  184.6090  174.1640  137.6040 C   0  0  0  0  0  1  0  0  0  0  0  0
  1 10  1  0  0  0  0
  2  4  1  0  0  0  0
  3  1  1  1  0  0  0
  3  5  1  0  0  0  0
  4  6  1  0  0  0  0
  4  1  2  0  0  0  0
  5 12  1  0  0  0  0
  6  9  1  0  0  0  0
  7 33  1  6  0  0  0
  7  2  1  0  0  0  0
  7 11  1  0  0  0  0
  8 13  1  0  0  0  0
  9 10  1  0  0  0  0
 10  8  1  1  0  0  0
 11 21  1  6  0  0  0
 11  3  1  0  0  0  0
 12 27  1  1  0  0  0
 12 13  1  0  0  0  0
 15 14  1  0  0  0  0
 16 20  1  6  0  0  0
 16 17  1  0  0  0  0
 16 18  1  0  0  0  0
 17 25  1  6  0  0  0
 17 15  1  0  0  0  0
 18 19  1  0  0  0  0
 19 23  1  1  0  0  0
 19 21  1  0  0  0  0
 21 14  1  6  0  0  0
 23 22  1  0  0  0  0
 24 25  2  0  0  0  0
 26 27  2  0  0  0  0
 26 32  1  0  0  0  0
 27 28  1  0  0  0  0
 28 31  2  0  0  0  0
 30 31  1  0  0  0  0
 31 29  1  0  0  0  0
 32 30  2  0  0  0  0
 34 33  1  0  0  0  0
 34 36  1  0  0  0  0
 35 34  2  0  0  0  0
 36 37  1  0  0  0  0
M  END
>  <MODEL>
7

>  <REMARK>
 VINA RESULT:      -4.9      3.143      6.496
  Name = 
  7 active torsions:
  status: ('A' for Active; 'I' for Inactive)
    1  A    between atoms: C_3  and  C_21
    2  A    between atoms: C_6  and  C_31
    3  A    between atoms: C_17  and  N_23
    4  A    between atoms: C_20  and  C_25
    5  A    between atoms: C_21  and  C_25
    6  A    between atoms: C_27  and  C_33
    7  A    between atoms: C_29  and  C_36
                            x       y       z     vdW  Elec       q    Type
                         _______ _______ _______ _____ _____    ______ ____

>  <TORSDO>
F 7

$$$$
=
 OpenBabel10262422503D

 37 41  0  0  1  0  0  0  0  0999 V2000
  187.3540  177.8770  141.5690 C   0  0  0  0  0  0  0  0  0  0  0  0
  185.1840  178.6980  140.7440 C   0  0  0  0  0  2  0  0  0  0  0  0
  187.9030  177.5490  140.2080 C   0  0  2  0  0  3  0  0  0  0  0  0
  186.1590  178.3080  141.8030 C   0  0  0  0  0  0  0  0  0  0  0  0
  189.1920  178.0870  140.0730 O   0  0  0  0  0  0  0  0  0  0  0  0
  186.0160  178.5420  143.1810 N   0  0  0  0  0  2  0  0  0  0  0  0
  185.4900  177.9880  139.4150 C   0  0  2  0  0  3  0  0  0  0  0  0
  189.3580  178.4680  142.8740 C   0  0  0  0  0  2  0  0  0  0  0  0
  187.1620  178.2440  143.8630 O   0  0  0  0  0  0  0  0  0  0  0  0
  188.0370  177.7020  142.8790 C   0  0  1  0  0  3  0  0  0  0  0  0
  187.0040  178.0760  139.0710 C   0  0  2  0  0  3  0  0  0  0  0  0
  190.0460  177.1930  140.7380 C   0  0  2  0  0  3  0  0  0  0  0  0
  190.4720  177.7360  142.1100 C   0  0  0  0  0  2  0  0  0  0  0  0
  187.1150  175.8590  137.7810 C   0  0  0  0  0  2  0  0  0  0  0  0
  185.7520  175.5050  137.2060 C   0  0  0  0  0  2  0  0  0  0  0  0
  186.0330  176.6570  134.9440 C   0  0  2  0  0  3  0  0  0  0  0  0
  185.8590  175.3260  135.6930 C   0  0  2  0  0  3  0  0  0  0  0  0
  187.1960  177.3660  135.3360 O   0  0  0  0  0  0  0  0  0  0  0  0
  186.9230  178.1050  136.5040 C   0  0  1  0  0  3  0  0  0  0  0  0
  184.7630  177.5090  134.8300 C   0  0  0  0  0  1  0  0  0  0  0  0
  187.4060  177.3680  137.7610 C   0  0  1  0  0  3  0  0  0  0  0  0
  189.0340  179.3770  136.8440 C   0  0  0  0  0  1  0  0  0  0  0  0
  187.5850  179.4710  136.4090 C   0  0  0  0  0  2  0  0  0  0  0  0
  183.8610  174.0860  135.9870 C   0  0  0  0  0  2  0  0  0  0  0  0
  184.7170  174.6070  135.1860 N   0  0  0  0  0  0  0  0  0  0  0  0
  192.4880  177.3990  140.2550 C   0  0  0  0  0  3  0  0  0  0  0  0
  191.2410  176.8730  139.9010 C   0  0  0  0  0  0  0  0  0  0  0  0
  191.1240  176.0810  138.7470 C   0  0  0  0  0  3  0  0  0  0  0  0
  192.1400  175.0240  136.8670 F   0  0  0  0  0  0  0  0  0  0  0  0
  193.4960  176.3320  138.3300 C   0  0  0  0  0  3  0  0  0  0  0  0
  192.2510  175.8080  137.9670 C   0  0  0  0  0  0  0  0  0  0  0  0
  193.6140  177.1280  139.4720 C   0  0  0  0  0  3  0  0  0  0  0  0
  184.6370  178.6330  138.3280 C   0  0  0  0  0  2  0  0  0  0  0  0
  183.1870  178.2960  138.4900 C   0  0  0  0  0  0  0  0  0  0  0  0
  182.8340  177.1270  138.4840 O   0  0  0  0  0  0  0  0  0  0  0  0
  182.1730  179.3780  138.6760 C   0  0  0  0  0  2  0  0  0  0  0  0
  181.2910  179.0730  139.8710 C   0  0  0  0  0  1  0  0  0  0  0  0
  1  4  2  0  0  0  0
  1 10  1  0  0  0  0
  2  4  1  0  0  0  0
  3  5  1  6  0  0  0
  3  1  1  0  0  0  0
  4  6  1  0  0  0  0
  5 12  1  0  0  0  0
  6  9  1  0  0  0  0
  7 33  1  6  0  0  0
  7  2  1  0  0  0  0
 10  8  1  6  0  0  0
 10  9  1  0  0  0  0
 11 21  1  6  0  0  0
 11  7  1  0  0  0  0
 11  3  1  0  0  0  0
 12 27  1  6  0  0  0
 12 13  1  0  0  0  0
 13  8  1  0  0  0  0
 15 14  1  0  0  0  0
 16 20  1  1  0  0  0
 16 18  1  0  0  0  0
 16 17  1  0  0  0  0
 17 25  1  6  0  0  0
 17 15  1  0  0  0  0
 18 19  1  0  0  0  0
 19 23  1  6  0  0  0
 19 21  1  0  0  0  0
 21 14  1  1  0  0  0
 23 22  1  0  0  0  0
 25 24  2  0  0  0  0
 27 26  1  0  0  0  0
 28 27  2  0  0  0  0
 29 31  1  0  0  0  0
 30 32  1  0  0  0  0
 31 30  2  0  0  0  0
 31 28  1  0  0  0  0
 32 26  2  0  0  0  0
 33 34  1  0  0  0  0
 34 36  1  0  0  0  0
 35 34  2  0  0  0  0
 36 37  1  0  0  0  0
M  END
>  <MODEL>
8

>  <REMARK>
 VINA RESULT:      -4.4      2.984      4.853
  Name = 
  7 active torsions:
  status: ('A' for Active; 'I' for Inactive)
    1  A    between atoms: C_3  and  C_21
    2  A    between atoms: C_6  and  C_31
    3  A    between atoms: C_17  and  N_23
    4  A    between atoms: C_20  and  C_25
    5  A    between atoms: C_21  and  C_25
    6  A    between atoms: C_27  and  C_33
    7  A    between atoms: C_29  and  C_36
                            x       y       z     vdW  Elec       q    Type
                         _______ _______ _______ _____ _____    ______ ____

>  <TORSDO>
F 7

$$$$
=
 OpenBabel10262422503D

 37 41  0  0  1  0  0  0  0  0999 V2000
  184.8690  178.6210  141.8210 C   0  0  0  0  0  0  0  0  0  0  0  0
  185.1220  178.0550  144.2030 C   0  0  0  0  0  2  0  0  0  0  0  0
  186.3320  178.4980  141.4940 C   0  0  2  0  0  3  0  0  0  0  0  0
  184.3590  178.4970  143.0000 C   0  0  0  0  0  0  0  0  0  0  0  0
  186.4980  177.7060  140.3470 O   0  0  0  0  0  0  0  0  0  0  0  0
  182.9640  178.6370  142.9150 N   0  0  0  0  0  2  0  0  0  0  0  0
  186.6230  178.3480  144.0510 C   0  0  2  0  0  3  0  0  0  0  0  0
  183.7520  177.9940  139.7170 C   0  0  0  0  0  2  0  0  0  0  0  0
  182.5590  178.8670  141.6310 O   0  0  0  0  0  0  0  0  0  0  0  0
  183.7680  178.9760  140.8860 C   0  0  1  0  0  3  0  0  0  0  0  0
  187.1430  177.8920  142.6580 C   0  0  2  0  0  3  0  0  0  0  0  0
  186.2300  178.5560  139.2610 C   0  0  2  0  0  3  0  0  0  0  0  0
  184.8370  178.2910  138.6710 C   0  0  0  0  0  2  0  0  0  0  0  0
  189.2890  179.0020  143.5260 C   0  0  0  0  0  2  0  0  0  0  0  0
  189.9330  178.1490  144.6100 C   0  0  0  0  0  2  0  0  0  0  0  0
  191.4470  176.7630  143.0910 C   0  0  2  0  0  3  0  0  0  0  0  0
  191.3670  177.8080  144.2160 C   0  0  2  0  0  3  0  0  0  0  0  0
  190.8050  177.1820  141.8980 O   0  0  0  0  0  0  0  0  0  0  0  0
  189.4240  176.9180  141.9920 C   0  0  1  0  0  3  0  0  0  0  0  0
  191.1410  175.3230  143.5190 C   0  0  0  0  0  1  0  0  0  0  0  0
  188.6390  178.1700  142.4100 C   0  0  1  0  0  3  0  0  0  0  0  0
  190.0310  176.4060  139.6350 C   0  0  0  0  0  1  0  0  0  0  0  0
  188.9130  176.3980  140.6570 C   0  0  0  0  0  2  0  0  0  0  0  0
  191.5220  176.8770  146.3890 C   0  0  0  0  0  2  0  0  0  0  0  0
  192.1180  177.3690  145.3650 N   0  0  0  0  0  0  0  0  0  0  0  0
  188.4350  179.2200  138.2920 C   0  0  0  0  0  3  0  0  0  0  0  0
  187.2840  178.4280  138.2100 C   0  0  0  0  0  0  0  0  0  0  0  0
  187.1210  177.5500  137.1270 C   0  0  0  0  0  3  0  0  0  0  0  0
  187.9620  176.5950  135.1110 F   0  0  0  0  0  0  0  0  0  0  0  0
  189.2610  178.2490  136.2340 C   0  0  0  0  0  3  0  0  0  0  0  0
  188.1100  177.4590  136.1440 C   0  0  0  0  0  0  0  0  0  0  0  0
  189.4220  179.1300  137.3070 C   0  0  0  0  0  3  0  0  0  0  0  0
  187.3610  177.6330  145.1790 C   0  0  0  0  0  2  0  0  0  0  0  0
  186.9790  178.1750  146.5200 C   0  0  0  0  0  0  0  0  0  0  0  0
  186.2250  179.1340  146.5920 O   0  0  0  0  0  0  0  0  0  0  0  0
  187.4990  177.5430  147.7700 C   0  0  0  0  0  2  0  0  0  0  0  0
  188.6830  178.3260  148.3030 C   0  0  0  0  0  1  0  0  0  0  0  0
  1  4  2  0  0  0  0
  3  5  1  6  0  0  0
  3  1  1  0  0  0  0
  3 11  1  0  0  0  0
  4  2  1  0  0  0  0
  6  4  1  0  0  0  0
  7  2  1  0  0  0  0
  7 33  1  1  0  0  0
  9  6  1  0  0  0  0
 10  8  1  6  0  0  0
 10  9  1  0  0  0  0
 10  1  1  0  0  0  0
 11 21  1  6  0  0  0
 11  7  1  0  0  0  0
 12 27  1  6  0  0  0
 12  5  1  0  0  0  0
 13 12  1  0  0  0  0
 13  8  1  0  0  0  0
 14 15  1  0  0  0  0
 16 20  1  1  0  0  0
 16 17  1  0  0  0  0
 17 15  1  0  0  0  0
 17 25  1  1  0  0  0
 18 19  1  0  0  0  0
 18 16  1  0  0  0  0
 19 23  1  6  0  0  0
 19 21  1  0  0  0  0
 21 14  1  1  0  0  0
 22 23  1  0  0  0  0
 25 24  2  0  0  0  0
 27 26  1  0  0  0  0
 28 27  2  0  0  0  0
 29 31  1  0  0  0  0
 30 32  1  0  0  0  0
 31 30  2  0  0  0  0
 31 28  1  0  0  0  0
 32 26  2  0  0  0  0
 33 34  1  0  0  0  0
 34 35  2  0  0  0  0
 34 36  1  0  0  0  0
 36 37  1  0  0  0  0
M  END
>  <MODEL>
9

>  <REMARK>
 VINA RESULT:      -4.4      3.012      7.422
  Name = 
  7 active torsions:
  status: ('A' for Active; 'I' for Inactive)
    1  A    between atoms: C_3  and  C_21
    2  A    between atoms: C_6  and  C_31
    3  A    between atoms: C_17  and  N_23
    4  A    between atoms: C_20  and  C_25
    5  A    between atoms: C_21  and  C_25
    6  A    between atoms: C_27  and  C_33
    7  A    between atoms: C_29  and  C_36
                            x       y       z     vdW  Elec       q    Type
                         _______ _______ _______ _____ _____    ______ ____

>  <TORSDO>
F 7

$$$$
