=
 OpenBabel10262422143D

 43 47  0  0  1  0  0  0  0  0999 V2000
  190.8880  177.0260  147.2990 C   0  0  0  0  0  0  0  0  0  0  0  0
  187.0190  178.1080  144.1510 C   0  0  2  0  0  3  0  0  0  0  0  0
  188.0830  178.3910  141.7140 C   0  0  2  0  0  3  0  0  0  0  0  0
  188.6820  177.3790  146.3530 C   0  0  0  0  0  0  0  0  0  0  0  0
  191.4350  176.9620  146.0150 C   0  0  0  0  0  3  0  0  0  0  0  0
  191.6880  176.8840  148.3830 F   0  0  0  0  0  0  0  0  0  0  0  0
  189.2390  177.3490  145.0530 C   0  0  0  0  0  0  0  0  0  0  0  0
  189.5170  177.2360  147.4660 C   0  0  0  0  0  3  0  0  0  0  0  0
  190.6120  177.1140  144.8970 C   0  0  0  0  0  3  0  0  0  0  0  0
  189.0070  178.0050  142.7290 O   0  0  0  0  0  0  0  0  0  0  0  0
  188.3480  177.4170  143.8390 C   0  0  2  0  0  3  0  0  0  0  0  0
  186.3640  177.4270  145.3400 C   0  0  0  0  0  2  0  0  0  0  0  0
  186.1420  178.0330  142.9010 C   0  0  2  0  0  3  0  0  0  0  0  0
  186.8800  177.6420  141.7540 O   0  0  0  0  0  0  0  0  0  0  0  0
  187.2200  177.6630  146.5850 C   0  0  0  0  0  2  0  0  0  0  0  0
  188.7330  178.2650  140.3430 C   0  0  2  0  0  3  0  0  0  0  0  0
  187.8030  178.5930  139.3530 O   0  0  0  0  0  1  0  0  0  0  0  0
  189.2260  176.8350  140.1330 C   0  0  0  0  0  2  0  0  0  0  0  0
  190.7180  176.7460  139.8120 C   0  0  2  0  0  3  0  0  0  0  0  0
  191.4230  177.7460  140.4830 O   0  0  0  0  0  1  0  0  0  0  0  0
  191.0030  176.8200  138.3120 C   0  0  0  0  0  2  0  0  0  0  0  0
  191.4080  175.4740  137.7050 C   0  0  1  0  0  3  0  0  0  0  0  0
  189.9030  172.9210  135.9160 C   0  0  0  0  0  1  0  0  0  0  0  0
  190.3020  174.6420  137.5250 O   0  0  0  0  0  0  0  0  0  0  0  0
  192.0650  175.6260  136.3650 C   0  0  2  0  0  3  0  0  0  0  0  0
  191.5070  174.6490  135.5470 O   0  0  0  0  0  0  0  0  0  0  0  0
  190.2670  174.3740  136.1440 C   0  0  1  0  0  3  0  0  0  0  0  0
  194.4140  176.0670  135.5530 C   0  0  0  0  0  3  0  0  0  0  0  0
  193.5480  175.4540  136.4660 C   0  0  0  0  0  0  0  0  0  0  0  0
  196.0260  173.6230  138.6440 C   0  0  0  0  0  1  0  0  0  0  0  0
  196.2790  175.0830  136.6730 N   0  0  0  0  0  0  0  0  0  0  0  0
  195.4550  174.4750  137.5700 C   0  0  0  0  0  0  0  0  0  0  0  0
  195.7920  175.8670  135.6760 C   0  0  0  0  0  3  0  0  0  0  0  0
  194.0720  174.6490  137.4790 C   0  0  0  0  0  3  0  0  0  0  0  0
  185.4810  179.3140  142.6820 N   0  0  0  0  0  2  0  0  0  0  0  0
  184.0770  179.0570  142.3840 C   0  0  2  0  0  3  0  0  0  0  0  0
  181.9810  179.0040  143.7350 N   0  0  0  0  0  0  0  0  0  0  0  0
  183.2600  178.8550  143.6370 C   0  0  0  0  0  3  0  0  0  0  0  0
  180.9360  179.4740  142.4230 S   0  0  1  0  0  0  0  0  0  0  0  0
  179.8470  178.0600  142.2140 C   0  0  0  0  0  1  0  0  0  0  0  0
  180.0480  180.5420  143.0450 O   0  0  0  0  0  0  0  0  0  0  0  0
  183.9230  177.9370  141.4000 C   0  0  0  0  0  3  0  0  0  0  0  0
  183.5470  178.1380  140.2570 O   0  0  0  0  0  0  0  0  0  0  0  0
  1  8  1  0  0  0  0
  1  6  1  0  0  0  0
  2 12  1  1  0  0  0
  3 16  1  6  0  0  0
  3 14  1  0  0  0  0
  3 10  1  0  0  0  0
  4 15  1  0  0  0  0
  4  8  2  0  0  0  0
  5  1  2  0  0  0  0
  7  4  1  0  0  0  0
  9  7  2  0  0  0  0
  9  5  1  0  0  0  0
 11 10  1  6  0  0  0
 11  2  1  0  0  0  0
 11  7  1  0  0  0  0
 12 15  1  0  0  0  0
 13 35  1  6  0  0  0
 13  2  1  0  0  0  0
 14 13  1  0  0  0  0
 16 17  1  6  0  0  0
 18 16  1  0  0  0  0
 19 18  1  0  0  0  0
 19 20  1  1  0  0  0
 21 19  1  0  0  0  0
 22 21  1  6  0  0  0
 24 22  1  0  0  0  0
 25 29  1  1  0  0  0
 25 22  1  0  0  0  0
 26 27  1  0  0  0  0
 26 25  1  0  0  0  0
 27 23  1  1  0  0  0
 27 24  1  0  0  0  0
 28 33  2  0  0  0  0
 28 29  1  0  0  0  0
 29 34  2  0  0  0  0
 31 32  2  0  0  0  0
 32 30  1  0  0  0  0
 33 31  1  0  0  0  0
 34 32  1  0  0  0  0
 36 42  1  6  0  0  0
 36 35  1  0  0  0  0
 36 38  1  0  0  0  0
 38 37  2  0  0  0  0
 39 40  1  1  0  0  0
 39 41  2  0  0  0  0
 39 37  1  0  0  0  0
 43 42  2  0  0  0  0
M  END
>  <MODEL>
1

>  <REMARK>
 VINA RESULT:      -9.1      0.000      0.000
  Name = 
  11 active torsions:
  status: ('A' for Active; 'I' for Inactive)
    1  A    between atoms: N_1  and  C_34
    2  A    between atoms: N_1  and  CA_35
    3  A    between atoms: C_2  and  C_6
    4  A    between atoms: C_2  and  C_13
    5  A    between atoms: C_3  and  C_4
    6  A    between atoms: C_3  and  C_12
    7  A    between atoms: C_6  and  C_12
    8  A    between atoms: N_9  and  S_19
    9  A    between atoms: C_14  and  C_22
   10  A    between atoms: C_28  and  CA_35
   11  A    between atoms: C_32  and  CA_35
                            x       y       z     vdW  Elec       q    Type
                         _______ _______ _______ _____ _____    ______ ____

>  <TORSDO>
F 11

$$$$
=
 OpenBabel10262422143D

 43 47  0  0  1  0  0  0  0  0999 V2000
  191.0630  176.5100  146.9750 C   0  0  0  0  0  0  0  0  0  0  0  0
  189.5260  177.4070  142.1920 C   0  0  2  0  0  3  0  0  0  0  0  0
  186.9500  178.1110  142.3440 C   0  0  2  0  0  3  0  0  0  0  0  0
  191.0000  176.8790  144.5780 C   0  0  0  0  0  0  0  0  0  0  0  0
  189.7900  177.0720  147.1010 C   0  0  0  0  0  3  0  0  0  0  0  0
  191.7150  176.0600  148.0730 F   0  0  0  0  0  0  0  0  0  0  0  0
  189.6960  177.4160  144.6990 C   0  0  0  0  0  0  0  0  0  0  0  0
  191.6630  176.4140  145.7180 C   0  0  0  0  0  3  0  0  0  0  0  0
  189.1140  177.5310  145.9690 C   0  0  0  0  0  3  0  0  0  0  0  0
  187.5860  177.8930  143.6020 O   0  0  0  0  0  0  0  0  0  0  0  0
  188.9970  178.0020  143.4990 C   0  0  2  0  0  3  0  0  0  0  0  0
  191.0360  177.5630  142.1420 C   0  0  0  0  0  2  0  0  0  0  0  0
  188.8440  178.1330  141.0320 C   0  0  2  0  0  3  0  0  0  0  0  0
  187.7320  178.9020  141.4640 O   0  0  0  0  0  0  0  0  0  0  0  0
  191.6630  176.6990  143.2370 C   0  0  0  0  0  2  0  0  0  0  0  0
  185.5870  178.7530  142.5550 C   0  0  2  0  0  3  0  0  0  0  0  0
  185.2350  178.6720  143.9040 O   0  0  0  0  0  1  0  0  0  0  0  0
  184.5400  178.0360  141.7060 C   0  0  0  0  0  2  0  0  0  0  0  0
  184.4700  178.5440  140.2660 C   0  0  2  0  0  3  0  0  0  0  0  0
  184.9530  179.8510  140.1840 O   0  0  0  0  0  1  0  0  0  0  0  0
  183.0590  178.4710  139.6830 C   0  0  0  0  0  2  0  0  0  0  0  0
  182.5770  177.0390  139.4400 C   0  0  1  0  0  3  0  0  0  0  0  0
  179.6670  175.2140  139.8670 C   0  0  0  0  0  1  0  0  0  0  0  0
  181.4780  176.7270  140.2410 O   0  0  0  0  0  0  0  0  0  0  0  0
  182.1610  176.8090  138.0160 C   0  0  2  0  0  3  0  0  0  0  0  0
  180.9700  176.0930  138.0720 O   0  0  0  0  0  0  0  0  0  0  0  0
  180.4490  176.3990  139.3390 C   0  0  1  0  0  3  0  0  0  0  0  0
  183.6850  176.5010  136.0270 C   0  0  0  0  0  3  0  0  0  0  0  0
  183.2060  176.0480  137.2630 C   0  0  0  0  0  0  0  0  0  0  0  0
  185.1890  172.8610  137.6440 C   0  0  0  0  0  1  0  0  0  0  0  0
  185.1140  174.5930  135.8910 N   0  0  0  0  0  0  0  0  0  0  0  0
  184.6600  174.1330  137.0880 C   0  0  0  0  0  0  0  0  0  0  0  0
  184.6510  175.7510  135.3510 C   0  0  0  0  0  3  0  0  0  0  0  0
  183.6940  174.8530  137.7950 C   0  0  0  0  0  3  0  0  0  0  0  0
  188.4450  177.1720  140.0100 N   0  0  0  0  0  2  0  0  0  0  0  0
  188.0480  177.9120  138.8190 C   0  0  2  0  0  3  0  0  0  0  0  0
  187.9190  176.0920  137.1180 N   0  0  0  0  0  0  0  0  0  0  0  0
  187.3580  177.0280  137.8080 C   0  0  0  0  0  3  0  0  0  0  0  0
  189.6040  175.6610  137.2200 S   0  0  1  0  0  0  0  0  0  0  0  0
  189.6020  173.8750  137.0210 C   0  0  0  0  0  1  0  0  0  0  0  0
  190.1810  176.1840  135.9120 O   0  0  0  0  0  0  0  0  0  0  0  0
  189.2000  178.6740  138.2390 C   0  0  0  0  0  3  0  0  0  0  0  0
  189.0280  179.6680  137.5520 O   0  0  0  0  0  0  0  0  0  0  0  0
  1  5  1  0  0  0  0
  1  6  1  0  0  0  0
  2 12  1  6  0  0  0
  2 11  1  0  0  0  0
  3 16  1  1  0  0  0
  3 10  1  0  0  0  0
  4  7  2  0  0  0  0
  4  8  1  0  0  0  0
  7  9  1  0  0  0  0
  8  1  2  0  0  0  0
  9  5  2  0  0  0  0
 11 10  1  1  0  0  0
 11  7  1  0  0  0  0
 12 15  1  0  0  0  0
 13 35  1  6  0  0  0
 13 14  1  0  0  0  0
 13  2  1  0  0  0  0
 14  3  1  0  0  0  0
 15  4  1  0  0  0  0
 16 17  1  1  0  0  0
 18 16  1  0  0  0  0
 19 20  1  1  0  0  0
 19 18  1  0  0  0  0
 21 19  1  0  0  0  0
 22 21  1  6  0  0  0
 22 24  1  0  0  0  0
 25 29  1  6  0  0  0
 25 26  1  0  0  0  0
 25 22  1  0  0  0  0
 26 27  1  0  0  0  0
 27 23  1  1  0  0  0
 27 24  1  0  0  0  0
 28 29  1  0  0  0  0
 29 34  2  0  0  0  0
 31 32  2  0  0  0  0
 32 30  1  0  0  0  0
 32 34  1  0  0  0  0
 33 31  1  0  0  0  0
 33 28  2  0  0  0  0
 36 38  1  6  0  0  0
 36 35  1  0  0  0  0
 37 39  1  0  0  0  0
 37 38  2  0  0  0  0
 39 40  1  6  0  0  0
 41 39  2  0  0  0  0
 42 36  1  0  0  0  0
 43 42  2  0  0  0  0
M  END
>  <MODEL>
2

>  <REMARK>
 VINA RESULT:      -9.0      3.736      7.611
  Name = 
  11 active torsions:
  status: ('A' for Active; 'I' for Inactive)
    1  A    between atoms: N_1  and  C_34
    2  A    between atoms: N_1  and  CA_35
    3  A    between atoms: C_2  and  C_6
    4  A    between atoms: C_2  and  C_13
    5  A    between atoms: C_3  and  C_4
    6  A    between atoms: C_3  and  C_12
    7  A    between atoms: C_6  and  C_12
    8  A    between atoms: N_9  and  S_19
    9  A    between atoms: C_14  and  C_22
   10  A    between atoms: C_28  and  CA_35
   11  A    between atoms: C_32  and  CA_35
                            x       y       z     vdW  Elec       q    Type
                         _______ _______ _______ _____ _____    ______ ____

>  <TORSDO>
F 11

$$$$
=
 OpenBabel10262422143D

 43 47  0  0  1  0  0  0  0  0999 V2000
  191.2570  176.8750  147.4820 C   0  0  0  0  0  0  0  0  0  0  0  0
  187.4180  177.7870  144.2450 C   0  0  2  0  0  3  0  0  0  0  0  0
  188.4860  177.8080  141.7930 C   0  0  2  0  0  3  0  0  0  0  0  0
  189.0610  177.2110  146.5060 C   0  0  0  0  0  0  0  0  0  0  0  0
  191.7980  176.6740  146.2100 C   0  0  0  0  0  3  0  0  0  0  0  0
  192.0540  176.8070  148.5750 F   0  0  0  0  0  0  0  0  0  0  0  0
  189.6140  177.0420  145.2150 C   0  0  0  0  0  0  0  0  0  0  0  0
  189.8940  177.1430  147.6280 C   0  0  0  0  0  3  0  0  0  0  0  0
  190.9780  176.7480  145.0830 C   0  0  0  0  0  3  0  0  0  0  0  0
  189.3990  177.4880  142.8400 O   0  0  0  0  0  0  0  0  0  0  0  0
  188.7230  177.0260  143.9990 C   0  0  2  0  0  3  0  0  0  0  0  0
  186.7440  177.2410  145.4910 C   0  0  0  0  0  2  0  0  0  0  0  0
  186.5360  177.6260  143.0070 C   0  0  2  0  0  3  0  0  0  0  0  0
  187.2590  177.1060  141.9010 O   0  0  0  0  0  0  0  0  0  0  0  0
  187.6100  177.5630  146.7090 C   0  0  0  0  0  2  0  0  0  0  0  0
  189.1280  177.5340  140.4400 C   0  0  2  0  0  3  0  0  0  0  0  0
  190.5180  177.5350  140.5740 O   0  0  0  0  0  1  0  0  0  0  0  0
  188.7060  178.6080  139.4400 C   0  0  0  0  0  2  0  0  0  0  0  0
  189.3110  178.4170  138.0490 C   0  0  2  0  0  3  0  0  0  0  0  0
  189.0470  179.5260  137.2440 O   0  0  0  0  0  1  0  0  0  0  0  0
  188.8180  177.1430  137.3630 C   0  0  0  0  0  2  0  0  0  0  0  0
  189.9530  176.2210  136.9100 C   0  0  1  0  0  3  0  0  0  0  0  0
  193.3090  175.7580  137.6230 C   0  0  0  0  0  1  0  0  0  0  0  0
  191.2030  176.7890  137.1610 O   0  0  0  0  0  0  0  0  0  0  0  0
  189.9260  174.8930  137.6100 C   0  0  2  0  0  3  0  0  0  0  0  0
  191.2410  174.6180  137.9680 O   0  0  0  0  0  0  0  0  0  0  0  0
  191.8510  175.8810  138.0180 C   0  0  1  0  0  3  0  0  0  0  0  0
  190.1800  173.2010  135.7540 C   0  0  0  0  0  3  0  0  0  0  0  0
  189.3780  173.8230  136.7200 C   0  0  0  0  0  0  0  0  0  0  0  0
  186.0920  172.0670  136.1240 C   0  0  0  0  0  1  0  0  0  0  0  0
  188.3150  171.8730  135.0740 N   0  0  0  0  0  0  0  0  0  0  0  0
  187.5180  172.4680  136.0020 C   0  0  0  0  0  0  0  0  0  0  0  0
  189.6230  172.2170  134.9340 C   0  0  0  0  0  3  0  0  0  0  0  0
  188.0370  173.4570  136.8410 C   0  0  0  0  0  3  0  0  0  0  0  0
  185.9170  178.9020  142.6690 N   0  0  0  0  0  2  0  0  0  0  0  0
  184.5860  178.6350  142.1370 C   0  0  2  0  0  3  0  0  0  0  0  0
  183.7520  178.7610  139.7890 N   0  0  0  0  0  0  0  0  0  0  0  0
  184.3720  179.2880  140.7920 C   0  0  0  0  0  3  0  0  0  0  0  0
  183.0340  177.1740  139.7920 S   0  0  1  0  0  0  0  0  0  0  0  0
  181.2730  177.5010  139.6440 C   0  0  0  0  0  1  0  0  0  0  0  0
  183.4260  176.6080  138.4350 O   0  0  0  0  0  0  0  0  0  0  0  0
  183.5200  178.9830  143.1310 C   0  0  0  0  0  3  0  0  0  0  0  0
  182.3430  179.0350  142.8130 O   0  0  0  0  0  0  0  0  0  0  0  0
  1  8  1  0  0  0  0
  1  6  1  0  0  0  0
  2 12  1  1  0  0  0
  3 16  1  6  0  0  0
  3 14  1  0  0  0  0
  3 10  1  0  0  0  0
  4 15  1  0  0  0  0
  4  8  2  0  0  0  0
  5  1  2  0  0  0  0
  7  4  1  0  0  0  0
  9  7  2  0  0  0  0
  9  5  1  0  0  0  0
 11 10  1  6  0  0  0
 11  2  1  0  0  0  0
 11  7  1  0  0  0  0
 12 15  1  0  0  0  0
 13 35  1  6  0  0  0
 13  2  1  0  0  0  0
 14 13  1  0  0  0  0
 16 17  1  1  0  0  0
 18 16  1  0  0  0  0
 19 20  1  6  0  0  0
 19 18  1  0  0  0  0
 21 19  1  0  0  0  0
 22 24  1  0  0  0  0
 22 21  1  1  0  0  0
 22 25  1  0  0  0  0
 24 27  1  0  0  0  0
 25 29  1  6  0  0  0
 25 26  1  0  0  0  0
 26 27  1  0  0  0  0
 27 23  1  6  0  0  0
 28 29  1  0  0  0  0
 29 34  2  0  0  0  0
 31 32  2  0  0  0  0
 32 30  1  0  0  0  0
 32 34  1  0  0  0  0
 33 31  1  0  0  0  0
 33 28  2  0  0  0  0
 36 38  1  6  0  0  0
 36 35  1  0  0  0  0
 36 42  1  0  0  0  0
 37 39  1  0  0  0  0
 37 38  2  0  0  0  0
 39 40  1  6  0  0  0
 41 39  2  0  0  0  0
 43 42  2  0  0  0  0
M  END
>  <MODEL>
3

>  <REMARK>
 VINA RESULT:      -8.9      2.173      3.766
  Name = 
  11 active torsions:
  status: ('A' for Active; 'I' for Inactive)
    1  A    between atoms: N_1  and  C_34
    2  A    between atoms: N_1  and  CA_35
    3  A    between atoms: C_2  and  C_6
    4  A    between atoms: C_2  and  C_13
    5  A    between atoms: C_3  and  C_4
    6  A    between atoms: C_3  and  C_12
    7  A    between atoms: C_6  and  C_12
    8  A    between atoms: N_9  and  S_19
    9  A    between atoms: C_14  and  C_22
   10  A    between atoms: C_28  and  CA_35
   11  A    between atoms: C_32  and  CA_35
                            x       y       z     vdW  Elec       q    Type
                         _______ _______ _______ _____ _____    ______ ____

>  <TORSDO>
F 11

$$$$
=
 OpenBabel10262422143D

 43 47  0  0  1  0  0  0  0  0999 V2000
  191.1100  176.5070  147.0080 C   0  0  0  0  0  0  0  0  0  0  0  0
  189.4530  177.3690  142.2580 C   0  0  2  0  0  3  0  0  0  0  0  0
  186.8980  178.1290  142.4740 C   0  0  2  0  0  3  0  0  0  0  0  0
  190.9840  176.8440  144.6090 C   0  0  0  0  0  0  0  0  0  0  0  0
  189.8530  177.0970  147.1620 C   0  0  0  0  0  3  0  0  0  0  0  0
  191.7850  176.0580  148.0930 F   0  0  0  0  0  0  0  0  0  0  0  0
  189.6960  177.4100  144.7590 C   0  0  0  0  0  0  0  0  0  0  0  0
  191.6710  176.3810  145.7350 C   0  0  0  0  0  3  0  0  0  0  0  0
  189.1540  177.5540  146.0440 C   0  0  0  0  0  3  0  0  0  0  0  0
  187.5660  177.9150  143.7160 O   0  0  0  0  0  0  0  0  0  0  0  0
  188.9740  177.9930  143.5710 C   0  0  2  0  0  3  0  0  0  0  0  0
  190.9640  177.4920  142.1630 C   0  0  0  0  0  2  0  0  0  0  0  0
  188.7520  178.0930  141.1080 C   0  0  2  0  0  3  0  0  0  0  0  0
  187.6690  178.8910  141.5610 O   0  0  0  0  0  0  0  0  0  0  0  0
  191.6050  176.6310  143.2510 C   0  0  0  0  0  2  0  0  0  0  0  0
  185.5540  178.8020  142.7150 C   0  0  2  0  0  3  0  0  0  0  0  0
  185.3600  178.9820  144.0870 O   0  0  0  0  0  1  0  0  0  0  0  0
  184.4320  177.9380  142.1440 C   0  0  0  0  0  2  0  0  0  0  0  0
  183.1300  178.7050  141.9130 C   0  0  2  0  0  3  0  0  0  0  0  0
  182.5470  179.0580  143.1310 O   0  0  0  0  0  1  0  0  0  0  0  0
  182.1300  177.9240  141.0610 C   0  0  0  0  0  2  0  0  0  0  0  0
  182.0990  178.3730  139.5970 C   0  0  1  0  0  3  0  0  0  0  0  0
  181.1190  181.1640  137.8000 C   0  0  0  0  0  1  0  0  0  0  0  0
  181.1590  179.3830  139.3940 O   0  0  0  0  0  0  0  0  0  0  0  0
  183.4240  178.9060  139.1350 C   0  0  2  0  0  3  0  0  0  0  0  0
  183.1450  180.0600  138.4110 O   0  0  0  0  0  0  0  0  0  0  0  0
  181.8970  180.4760  138.9030 C   0  0  1  0  0  3  0  0  0  0  0  0
  185.4740  178.1080  137.8970 C   0  0  0  0  0  3  0  0  0  0  0  0
  184.1440  177.9060  138.2870 C   0  0  0  0  0  0  0  0  0  0  0  0
  183.4240  174.6100  136.5990 C   0  0  0  0  0  1  0  0  0  0  0  0
  185.4260  176.0460  136.6930 N   0  0  0  0  0  0  0  0  0  0  0  0
  184.1320  175.8320  137.0570 C   0  0  0  0  0  0  0  0  0  0  0  0
  186.1040  177.1540  137.0930 C   0  0  0  0  0  3  0  0  0  0  0  0
  183.4670  176.7620  137.8610 C   0  0  0  0  0  3  0  0  0  0  0  0
  188.3050  177.1260  140.1120 N   0  0  0  0  0  2  0  0  0  0  0  0
  189.0920  177.3220  138.9020 C   0  0  2  0  0  3  0  0  0  0  0  0
  190.5310  175.4090  138.1980 N   0  0  0  0  0  0  0  0  0  0  0  0
  190.3450  176.4780  138.8980 C   0  0  0  0  0  3  0  0  0  0  0  0
  189.3580  174.7220  137.1090 S   0  0  1  0  0  0  0  0  0  0  0  0
  189.4220  175.8010  135.6740 C   0  0  0  0  0  1  0  0  0  0  0  0
  190.0230  173.4350  136.6420 O   0  0  0  0  0  0  0  0  0  0  0  0
  189.3660  178.7750  138.6560 C   0  0  0  0  0  3  0  0  0  0  0  0
  188.7920  179.3930  137.7750 O   0  0  0  0  0  0  0  0  0  0  0  0
  1  5  1  0  0  0  0
  1  6  1  0  0  0  0
  2 12  1  6  0  0  0
  2 11  1  0  0  0  0
  3 16  1  1  0  0  0
  3 10  1  0  0  0  0
  4  7  2  0  0  0  0
  4  8  1  0  0  0  0
  7  9  1  0  0  0  0
  8  1  2  0  0  0  0
  9  5  2  0  0  0  0
 11 10  1  1  0  0  0
 11  7  1  0  0  0  0
 12 15  1  0  0  0  0
 13 35  1  6  0  0  0
 13 14  1  0  0  0  0
 13  2  1  0  0  0  0
 14  3  1  0  0  0  0
 15  4  1  0  0  0  0
 16 17  1  1  0  0  0
 18 16  1  0  0  0  0
 19 18  1  0  0  0  0
 19 20  1  1  0  0  0
 21 19  1  0  0  0  0
 22 21  1  1  0  0  0
 24 22  1  0  0  0  0
 25 29  1  6  0  0  0
 25 22  1  0  0  0  0
 26 27  1  0  0  0  0
 26 25  1  0  0  0  0
 27 23  1  6  0  0  0
 27 24  1  0  0  0  0
 28 29  1  0  0  0  0
 30 32  1  0  0  0  0
 31 32  2  0  0  0  0
 31 33  1  0  0  0  0
 32 34  1  0  0  0  0
 33 28  2  0  0  0  0
 34 29  2  0  0  0  0
 36 42  1  1  0  0  0
 36 35  1  0  0  0  0
 37 38  2  0  0  0  0
 38 36  1  0  0  0  0
 39 40  1  6  0  0  0
 39 37  1  0  0  0  0
 41 39  2  0  0  0  0
 43 42  2  0  0  0  0
M  END
>  <MODEL>
4

>  <REMARK>
 VINA RESULT:      -8.9      3.462      7.921
  Name = 
  11 active torsions:
  status: ('A' for Active; 'I' for Inactive)
    1  A    between atoms: N_1  and  C_34
    2  A    between atoms: N_1  and  CA_35
    3  A    between atoms: C_2  and  C_6
    4  A    between atoms: C_2  and  C_13
    5  A    between atoms: C_3  and  C_4
    6  A    between atoms: C_3  and  C_12
    7  A    between atoms: C_6  and  C_12
    8  A    between atoms: N_9  and  S_19
    9  A    between atoms: C_14  and  C_22
   10  A    between atoms: C_28  and  CA_35
   11  A    between atoms: C_32  and  CA_35
                            x       y       z     vdW  Elec       q    Type
                         _______ _______ _______ _____ _____    ______ ____

>  <TORSDO>
F 11

$$$$
=
 OpenBabel10262422143D

 43 47  0  0  1  0  0  0  0  0999 V2000
  185.0560  178.5560  145.8340 C   0  0  0  0  0  0  0  0  0  0  0  0
  183.1840  179.0540  141.1120 C   0  0  2  0  0  3  0  0  0  0  0  0
  185.2580  178.7830  139.4440 C   0  0  2  0  0  3  0  0  0  0  0  0
  183.5740  178.7620  143.9240 C   0  0  0  0  0  0  0  0  0  0  0  0
  186.1090  178.2050  144.9860 C   0  0  0  0  0  3  0  0  0  0  0  0
  185.2580  178.6240  147.1710 F   0  0  0  0  0  0  0  0  0  0  0  0
  184.6480  178.4410  143.0610 C   0  0  0  0  0  0  0  0  0  0  0  0
  183.7940  178.8340  145.3030 C   0  0  0  0  0  3  0  0  0  0  0  0
  185.9040  178.1390  143.6070 C   0  0  0  0  0  3  0  0  0  0  0  0
  185.5700  178.5960  140.8230 O   0  0  0  0  0  0  0  0  0  0  0  0
  184.4150  178.2750  141.5810 C   0  0  2  0  0  3  0  0  0  0  0  0
  181.9860  178.6590  141.9570 C   0  0  0  0  0  2  0  0  0  0  0  0
  182.9620  178.7400  139.6320 C   0  0  2  0  0  3  0  0  0  0  0  0
  184.0830  178.0940  139.0500 O   0  0  0  0  0  0  0  0  0  0  0  0
  182.2110  179.1290  143.3940 C   0  0  0  0  0  2  0  0  0  0  0  0
  186.4340  178.3510  138.5800 C   0  0  2  0  0  3  0  0  0  0  0  0
  186.1120  177.1690  137.9100 O   0  0  0  0  0  1  0  0  0  0  0  0
  187.6650  178.1300  139.4550 C   0  0  0  0  0  2  0  0  0  0  0  0
  188.9850  178.3460  138.7150 C   0  0  2  0  0  3  0  0  0  0  0  0
  188.8590  179.3730  137.7780 O   0  0  0  0  0  1  0  0  0  0  0  0
  189.4920  177.0750  138.0330 C   0  0  0  0  0  2  0  0  0  0  0  0
  190.6250  176.3870  138.7990 C   0  0  1  0  0  3  0  0  0  0  0  0
  193.8870  175.3980  138.1950 C   0  0  0  0  0  1  0  0  0  0  0  0
  191.5470  175.8010  137.9290 O   0  0  0  0  0  0  0  0  0  0  0  0
  191.3890  177.3410  139.6700 C   0  0  2  0  0  3  0  0  0  0  0  0
  192.7350  177.0440  139.4820 O   0  0  0  0  0  0  0  0  0  0  0  0
  192.7730  176.4250  138.2230 C   0  0  1  0  0  3  0  0  0  0  0  0
  190.0850  176.2130  141.5140 C   0  0  0  0  0  3  0  0  0  0  0  0
  191.0030  177.1890  141.1070 C   0  0  0  0  0  0  0  0  0  0  0  0
  191.7680  178.8370  144.4140 C   0  0  0  0  0  1  0  0  0  0  0  0
  190.2950  176.9670  143.7700 N   0  0  0  0  0  0  0  0  0  0  0  0
  191.1870  177.9250  143.3960 C   0  0  0  0  0  0  0  0  0  0  0  0
  189.7420  176.1170  142.8650 C   0  0  0  0  0  3  0  0  0  0  0  0
  191.5550  178.0540  142.0550 C   0  0  0  0  0  3  0  0  0  0  0  0
  182.6340  179.9640  138.9100 N   0  0  0  0  0  2  0  0  0  0  0  0
  181.2330  179.8950  138.5120 C   0  0  2  0  0  3  0  0  0  0  0  0
  179.9150  181.9620  138.9750 N   0  0  0  0  0  0  0  0  0  0  0  0
  180.3640  180.8080  139.3430 C   0  0  0  0  0  3  0  0  0  0  0  0
  180.2310  182.7000  137.4290 S   0  0  1  0  0  0  0  0  0  0  0  0
  178.9350  183.9360  137.2710 C   0  0  0  0  0  1  0  0  0  0  0  0
  181.4940  183.5110  137.6780 O   0  0  0  0  0  0  0  0  0  0  0  0
  180.7390  178.4810  138.4880 C   0  0  0  0  0  3  0  0  0  0  0  0
  179.6080  178.2050  138.1250 O   0  0  0  0  0  0  0  0  0  0  0  0
  1  6  1  0  0  0  0
  2 11  1  0  0  0  0
  2 12  1  1  0  0  0
  3 16  1  6  0  0  0
  3 10  1  0  0  0  0
  4  8  2  0  0  0  0
  5  1  2  0  0  0  0
  7  9  2  0  0  0  0
  7  4  1  0  0  0  0
  8  1  1  0  0  0  0
  9  5  1  0  0  0  0
 11 10  1  6  0  0  0
 11  7  1  0  0  0  0
 12 15  1  0  0  0  0
 13 35  1  6  0  0  0
 13  2  1  0  0  0  0
 14  3  1  0  0  0  0
 14 13  1  0  0  0  0
 15  4  1  0  0  0  0
 16 17  1  1  0  0  0
 16 18  1  0  0  0  0
 19 20  1  6  0  0  0
 19 18  1  0  0  0  0
 21 19  1  0  0  0  0
 22 21  1  6  0  0  0
 22 25  1  0  0  0  0
 24 27  1  0  0  0  0
 24 22  1  0  0  0  0
 25 29  1  1  0  0  0
 26 25  1  0  0  0  0
 27 23  1  1  0  0  0
 27 26  1  0  0  0  0
 28 33  1  0  0  0  0
 29 28  2  0  0  0  0
 29 34  1  0  0  0  0
 32 31  1  0  0  0  0
 32 30  1  0  0  0  0
 33 31  2  0  0  0  0
 34 32  2  0  0  0  0
 36 42  1  1  0  0  0
 36 35  1  0  0  0  0
 36 38  1  0  0  0  0
 37 38  2  0  0  0  0
 39 40  1  1  0  0  0
 39 41  2  0  0  0  0
 39 37  1  0  0  0  0
 43 42  2  0  0  0  0
M  END
>  <MODEL>
5

>  <REMARK>
 VINA RESULT:      -8.9      3.216      5.465
  Name = 
  11 active torsions:
  status: ('A' for Active; 'I' for Inactive)
    1  A    between atoms: N_1  and  C_34
    2  A    between atoms: N_1  and  CA_35
    3  A    between atoms: C_2  and  C_6
    4  A    between atoms: C_2  and  C_13
    5  A    between atoms: C_3  and  C_4
    6  A    between atoms: C_3  and  C_12
    7  A    between atoms: C_6  and  C_12
    8  A    between atoms: N_9  and  S_19
    9  A    between atoms: C_14  and  C_22
   10  A    between atoms: C_28  and  CA_35
   11  A    between atoms: C_32  and  CA_35
                            x       y       z     vdW  Elec       q    Type
                         _______ _______ _______ _____ _____    ______ ____

>  <TORSDO>
F 11

$$$$
=
 OpenBabel10262422143D

 43 47  0  0  1  0  0  0  0  0999 V2000
  190.9290  176.8200  146.5670 C   0  0  0  0  0  0  0  0  0  0  0  0
  187.2930  178.1310  143.2350 C   0  0  2  0  0  3  0  0  0  0  0  0
  188.4960  178.3750  140.8590 C   0  0  2  0  0  3  0  0  0  0  0  0
  188.7980  177.2980  145.5120 C   0  0  0  0  0  0  0  0  0  0  0  0
  191.5380  176.7360  145.3120 C   0  0  0  0  0  3  0  0  0  0  0  0
  191.6630  176.6270  147.6890 F   0  0  0  0  0  0  0  0  0  0  0  0
  189.4190  177.2480  144.2420 C   0  0  0  0  0  0  0  0  0  0  0  0
  189.5650  177.1010  146.6650 C   0  0  0  0  0  3  0  0  0  0  0  0
  190.7840  176.9400  144.1550 C   0  0  0  0  0  3  0  0  0  0  0  0
  189.3440  177.9320  141.9160 O   0  0  0  0  0  0  0  0  0  0  0  0
  188.5970  177.3720  142.9840 C   0  0  2  0  0  3  0  0  0  0  0  0
  186.5410  177.4780  144.3810 C   0  0  0  0  0  2  0  0  0  0  0  0
  186.4790  178.1130  141.9400 C   0  0  2  0  0  3  0  0  0  0  0  0
  187.2550  177.6910  140.8290 O   0  0  0  0  0  0  0  0  0  0  0  0
  187.3420  177.6580  145.6710 C   0  0  0  0  0  2  0  0  0  0  0  0
  189.2090  178.2240  139.5220 C   0  0  2  0  0  3  0  0  0  0  0  0
  188.9980  179.3680  138.7490 O   0  0  0  0  0  1  0  0  0  0  0  0
  188.6750  176.9980  138.7850 C   0  0  0  0  0  2  0  0  0  0  0  0
  187.9800  177.3350  137.4660 C   0  0  2  0  0  3  0  0  0  0  0  0
  186.6260  177.0030  137.5270 O   0  0  0  0  0  1  0  0  0  0  0  0
  188.6330  176.6510  136.2650 C   0  0  0  0  0  2  0  0  0  0  0  0
  189.2360  175.2840  136.6000 C   0  0  1  0  0  3  0  0  0  0  0  0
  188.7120  171.9760  135.7280 C   0  0  0  0  0  1  0  0  0  0  0  0
  188.3320  174.2520  136.3480 O   0  0  0  0  0  0  0  0  0  0  0  0
  190.4710  174.9910  135.7980 C   0  0  2  0  0  3  0  0  0  0  0  0
  190.3500  173.6740  135.3710 O   0  0  0  0  0  0  0  0  0  0  0  0
  188.9680  173.4320  135.3980 C   0  0  1  0  0  3  0  0  0  0  0  0
  191.9430  176.3660  137.3200 C   0  0  0  0  0  3  0  0  0  0  0  0
  191.7070  175.1760  136.6200 C   0  0  0  0  0  0  0  0  0  0  0  0
  194.8250  173.2360  137.4860 C   0  0  0  0  0  1  0  0  0  0  0  0
  194.0210  175.4850  138.0990 N   0  0  0  0  0  0  0  0  0  0  0  0
  193.8140  174.3230  137.4240 C   0  0  0  0  0  0  0  0  0  0  0  0
  193.1190  176.5010  138.0630 C   0  0  0  0  0  3  0  0  0  0  0  0
  192.6510  174.1490  136.6690 C   0  0  0  0  0  3  0  0  0  0  0  0
  185.8990  179.4290  141.7000 N   0  0  0  0  0  2  0  0  0  0  0  0
  184.6070  179.2450  141.0510 C   0  0  2  0  0  3  0  0  0  0  0  0
  183.0720  177.8940  142.4800 N   0  0  0  0  0  0  0  0  0  0  0  0
  183.9190  177.9820  141.5080 C   0  0  0  0  0  3  0  0  0  0  0  0
  182.5540  179.2340  143.4650 S   0  0  1  0  0  0  0  0  0  0  0  0
  180.8250  178.8760  143.8020 C   0  0  0  0  0  1  0  0  0  0  0  0
  183.2550  178.9870  144.7920 O   0  0  0  0  0  0  0  0  0  0  0  0
  184.7260  179.3390  139.5600 C   0  0  0  0  0  3  0  0  0  0  0  0
  184.2280  180.2620  138.9360 O   0  0  0  0  0  0  0  0  0  0  0  0
  1  8  1  0  0  0  0
  1  6  1  0  0  0  0
  2 12  1  1  0  0  0
  3 16  1  6  0  0  0
  3 10  1  0  0  0  0
  4 15  1  0  0  0  0
  4  8  2  0  0  0  0
  5  1  2  0  0  0  0
  7  4  1  0  0  0  0
  9  7  2  0  0  0  0
  9  5  1  0  0  0  0
 11 10  1  6  0  0  0
 11  2  1  0  0  0  0
 11  7  1  0  0  0  0
 12 15  1  0  0  0  0
 13 35  1  6  0  0  0
 13  2  1  0  0  0  0
 14  3  1  0  0  0  0
 14 13  1  0  0  0  0
 16 17  1  6  0  0  0
 18 16  1  0  0  0  0
 19 20  1  1  0  0  0
 19 18  1  0  0  0  0
 21 19  1  0  0  0  0
 22 21  1  6  0  0  0
 24 22  1  0  0  0  0
 25 22  1  0  0  0  0
 25 29  1  1  0  0  0
 26 27  1  0  0  0  0
 26 25  1  0  0  0  0
 27 23  1  1  0  0  0
 27 24  1  0  0  0  0
 28 33  1  0  0  0  0
 29 34  1  0  0  0  0
 29 28  2  0  0  0  0
 32 30  1  0  0  0  0
 32 31  1  0  0  0  0
 33 31  2  0  0  0  0
 34 32  2  0  0  0  0
 36 42  1  6  0  0  0
 36 38  1  0  0  0  0
 36 35  1  0  0  0  0
 37 39  1  0  0  0  0
 38 37  2  0  0  0  0
 39 40  1  1  0  0  0
 39 41  2  0  0  0  0
 43 42  2  0  0  0  0
M  END
>  <MODEL>
6

>  <REMARK>
 VINA RESULT:      -8.9      1.636      2.082
  Name = 
  11 active torsions:
  status: ('A' for Active; 'I' for Inactive)
    1  A    between atoms: N_1  and  C_34
    2  A    between atoms: N_1  and  CA_35
    3  A    between atoms: C_2  and  C_6
    4  A    between atoms: C_2  and  C_13
    5  A    between atoms: C_3  and  C_4
    6  A    between atoms: C_3  and  C_12
    7  A    between atoms: C_6  and  C_12
    8  A    between atoms: N_9  and  S_19
    9  A    between atoms: C_14  and  C_22
   10  A    between atoms: C_28  and  CA_35
   11  A    between atoms: C_32  and  CA_35
                            x       y       z     vdW  Elec       q    Type
                         _______ _______ _______ _____ _____    ______ ____

>  <TORSDO>
F 11

$$$$
=
 OpenBabel10262422143D

 43 47  0  0  1  0  0  0  0  0999 V2000
  190.8090  176.8160  146.5550 C   0  0  0  0  0  0  0  0  0  0  0  0
  189.3270  177.3990  141.7060 C   0  0  2  0  0  3  0  0  0  0  0  0
  186.7960  178.2590  141.7870 C   0  0  2  0  0  3  0  0  0  0  0  0
  190.7670  176.9880  144.1360 C   0  0  0  0  0  0  0  0  0  0  0  0
  189.5700  177.4590  146.6280 C   0  0  0  0  0  3  0  0  0  0  0  0
  191.4340  176.4220  147.6900 F   0  0  0  0  0  0  0  0  0  0  0  0
  189.4970  177.6070  144.2050 C   0  0  0  0  0  0  0  0  0  0  0  0
  191.4030  176.5810  145.3130 C   0  0  0  0  0  3  0  0  0  0  0  0
  188.9220  177.8600  145.4580 C   0  0  0  0  0  3  0  0  0  0  0  0
  187.4180  178.1100  143.0610 O   0  0  0  0  0  0  0  0  0  0  0  0
  188.8330  178.1290  142.9560 C   0  0  2  0  0  3  0  0  0  0  0  0
  190.8440  177.4630  141.6520 C   0  0  0  0  0  2  0  0  0  0  0  0
  188.6880  178.0630  140.4870 C   0  0  2  0  0  3  0  0  0  0  0  0
  187.6220  178.9280  140.8480 O   0  0  0  0  0  0  0  0  0  0  0  0
  191.4200  176.6590  142.8170 C   0  0  0  0  0  2  0  0  0  0  0  0
  185.4720  178.9940  141.9360 C   0  0  2  0  0  3  0  0  0  0  0  0
  185.2110  179.2170  143.2900 O   0  0  0  0  0  1  0  0  0  0  0  0
  184.3460  178.1630  141.3250 C   0  0  0  0  0  2  0  0  0  0  0  0
  183.7510  178.7790  140.0590 C   0  0  2  0  0  3  0  0  0  0  0  0
  184.4820  179.9040  139.6730 O   0  0  0  0  0  1  0  0  0  0  0  0
  182.2750  179.1440  140.2200 C   0  0  0  0  0  2  0  0  0  0  0  0
  181.5320  178.2410  141.2080 C   0  0  1  0  0  3  0  0  0  0  0  0
  179.7250  178.6020  144.1380 C   0  0  0  0  0  1  0  0  0  0  0  0
  181.4070  178.8480  142.4580 O   0  0  0  0  0  0  0  0  0  0  0  0
  180.1450  177.9040  140.7420 C   0  0  2  0  0  3  0  0  0  0  0  0
  179.3200  178.0430  141.8530 O   0  0  0  0  0  0  0  0  0  0  0  0
  180.0210  178.9280  142.6880 C   0  0  1  0  0  3  0  0  0  0  0  0
  179.3860  175.5010  140.8750 C   0  0  0  0  0  3  0  0  0  0  0  0
  180.0800  176.5120  140.1990 C   0  0  0  0  0  0  0  0  0  0  0  0
  181.3960  174.5840  137.2360 C   0  0  0  0  0  1  0  0  0  0  0  0
  180.0130  173.9450  139.1750 N   0  0  0  0  0  0  0  0  0  0  0  0
  180.6960  174.9120  138.5040 C   0  0  0  0  0  0  0  0  0  0  0  0
  179.3640  174.2100  140.3390 C   0  0  0  0  0  3  0  0  0  0  0  0
  180.7430  176.2150  139.0070 C   0  0  0  0  0  3  0  0  0  0  0  0
  188.2350  177.0450  139.5470 N   0  0  0  0  0  2  0  0  0  0  0  0
  188.2010  177.6380  138.2150 C   0  0  2  0  0  3  0  0  0  0  0  0
  187.3490  175.9500  136.5870 N   0  0  0  0  0  0  0  0  0  0  0  0
  188.3270  176.5970  137.1290 C   0  0  0  0  0  3  0  0  0  0  0  0
  185.6720  176.1530  137.0120 S   0  0  1  0  0  0  0  0  0  0  0  0
  184.9850  177.0620  135.6220 C   0  0  0  0  0  1  0  0  0  0  0  0
  185.0990  174.7520  136.8640 O   0  0  0  0  0  0  0  0  0  0  0  0
  189.2020  178.7450  138.0830 C   0  0  0  0  0  3  0  0  0  0  0  0
  188.9540  179.7580  137.4500 O   0  0  0  0  0  0  0  0  0  0  0  0
  1  5  1  0  0  0  0
  1  6  1  0  0  0  0
  2 12  1  6  0  0  0
  2 11  1  0  0  0  0
  3 16  1  1  0  0  0
  3 10  1  0  0  0  0
  4  7  2  0  0  0  0
  4  8  1  0  0  0  0
  7  9  1  0  0  0  0
  8  1  2  0  0  0  0
  9  5  2  0  0  0  0
 11 10  1  1  0  0  0
 11  7  1  0  0  0  0
 12 15  1  0  0  0  0
 13 35  1  6  0  0  0
 13 14  1  0  0  0  0
 13  2  1  0  0  0  0
 14  3  1  0  0  0  0
 15  4  1  0  0  0  0
 16 17  1  1  0  0  0
 18 16  1  0  0  0  0
 19 20  1  1  0  0  0
 19 21  1  0  0  0  0
 19 18  1  0  0  0  0
 22 21  1  6  0  0  0
 22 24  1  0  0  0  0
 24 27  1  0  0  0  0
 25 29  1  1  0  0  0
 25 22  1  0  0  0  0
 25 26  1  0  0  0  0
 26 27  1  0  0  0  0
 27 23  1  1  0  0  0
 29 28  2  0  0  0  0
 30 32  1  0  0  0  0
 31 33  2  0  0  0  0
 32 34  2  0  0  0  0
 32 31  1  0  0  0  0
 33 28  1  0  0  0  0
 34 29  1  0  0  0  0
 36 38  1  6  0  0  0
 36 35  1  0  0  0  0
 37 39  1  0  0  0  0
 37 38  2  0  0  0  0
 39 40  1  6  0  0  0
 41 39  2  0  0  0  0
 42 36  1  0  0  0  0
 43 42  2  0  0  0  0
M  END
>  <MODEL>
7

>  <REMARK>
 VINA RESULT:      -8.9      3.941      9.056
  Name = 
  11 active torsions:
  status: ('A' for Active; 'I' for Inactive)
    1  A    between atoms: N_1  and  C_34
    2  A    between atoms: N_1  and  CA_35
    3  A    between atoms: C_2  and  C_6
    4  A    between atoms: C_2  and  C_13
    5  A    between atoms: C_3  and  C_4
    6  A    between atoms: C_3  and  C_12
    7  A    between atoms: C_6  and  C_12
    8  A    between atoms: N_9  and  S_19
    9  A    between atoms: C_14  and  C_22
   10  A    between atoms: C_28  and  CA_35
   11  A    between atoms: C_32  and  CA_35
                            x       y       z     vdW  Elec       q    Type
                         _______ _______ _______ _____ _____    ______ ____

>  <TORSDO>
F 11

$$$$
=
 OpenBabel10262422143D

 43 47  0  0  1  0  0  0  0  0999 V2000
  190.1860  177.1570  146.8400 C   0  0  0  0  0  0  0  0  0  0  0  0
  186.8120  178.3010  143.1860 C   0  0  2  0  0  3  0  0  0  0  0  0
  188.2070  178.5410  140.9170 C   0  0  2  0  0  3  0  0  0  0  0  0
  188.1400  177.5510  145.5990 C   0  0  0  0  0  0  0  0  0  0  0  0
  190.9020  177.0700  145.6440 C   0  0  0  0  0  3  0  0  0  0  0  0
  190.8270  177.0050  148.0240 F   0  0  0  0  0  0  0  0  0  0  0  0
  188.8690  177.4990  144.3870 C   0  0  0  0  0  0  0  0  0  0  0  0
  188.8110  177.3980  146.8160 C   0  0  0  0  0  3  0  0  0  0  0  0
  190.2450  177.2320  144.4230 C   0  0  0  0  0  3  0  0  0  0  0  0
  188.9740  178.1420  142.0510 O   0  0  0  0  0  0  0  0  0  0  0  0
  188.1540  177.5770  143.0620 C   0  0  2  0  0  3  0  0  0  0  0  0
  185.9840  177.6440  144.2770 C   0  0  0  0  0  2  0  0  0  0  0  0
  186.1130  178.2360  141.8280 C   0  0  2  0  0  3  0  0  0  0  0  0
  186.9920  177.8190  140.7950 O   0  0  0  0  0  0  0  0  0  0  0  0
  186.6670  177.8690  145.6260 C   0  0  0  0  0  2  0  0  0  0  0  0
  189.0350  178.3900  139.6490 C   0  0  2  0  0  3  0  0  0  0  0  0
  188.3690  178.9950  138.5800 O   0  0  0  0  0  1  0  0  0  0  0  0
  189.2550  176.9100  139.3470 C   0  0  0  0  0  2  0  0  0  0  0  0
  190.6990  176.5720  138.9730 C   0  0  2  0  0  3  0  0  0  0  0  0
  191.5900  177.1960  139.8480 O   0  0  0  0  0  1  0  0  0  0  0  0
  191.0360  176.9450  137.5300 C   0  0  0  0  0  2  0  0  0  0  0  0
  191.8800  175.8880  136.8120 C   0  0  1  0  0  3  0  0  0  0  0  0
  195.1740  174.8250  136.8010 C   0  0  0  0  0  1  0  0  0  0  0  0
  193.2350  176.2220  136.8280 O   0  0  0  0  0  0  0  0  0  0  0  0
  191.7550  174.5320  137.4420 C   0  0  2  0  0  3  0  0  0  0  0  0
  193.0440  174.0160  137.5100 O   0  0  0  0  0  0  0  0  0  0  0  0
  193.8660  175.1540  137.4920 C   0  0  1  0  0  3  0  0  0  0  0  0
  191.3550  172.9270  135.5340 C   0  0  0  0  0  3  0  0  0  0  0  0
  190.8640  173.6400  136.6350 C   0  0  0  0  0  0  0  0  0  0  0  0
  187.2390  172.5990  136.5690 C   0  0  0  0  0  1  0  0  0  0  0  0
  189.1750  172.0310  135.1520 N   0  0  0  0  0  0  0  0  0  0  0  0
  188.6770  172.7180  136.2160 C   0  0  0  0  0  0  0  0  0  0  0  0
  190.4850  172.1180  134.7990 C   0  0  0  0  0  3  0  0  0  0  0  0
  189.5140  173.5390  136.9750 C   0  0  0  0  0  3  0  0  0  0  0  0
  185.5180  179.5300  141.5140 N   0  0  0  0  0  2  0  0  0  0  0  0
  184.2520  179.2940  140.8310 C   0  0  2  0  0  3  0  0  0  0  0  0
  182.4900  177.7030  141.5990 N   0  0  0  0  0  0  0  0  0  0  0  0
  183.6800  177.9340  141.1530 C   0  0  0  0  0  3  0  0  0  0  0  0
  181.2980  178.9320  141.9240 S   0  0  1  0  0  0  0  0  0  0  0  0
  179.7370  178.0450  141.8500 C   0  0  0  0  0  1  0  0  0  0  0  0
  181.4920  179.2280  143.4030 O   0  0  0  0  0  0  0  0  0  0  0  0
  184.3680  179.5460  139.3590 C   0  0  0  0  0  3  0  0  0  0  0  0
  183.9800  180.5870  138.8560 O   0  0  0  0  0  0  0  0  0  0  0  0
  1  6  1  0  0  0  0
  2 12  1  1  0  0  0
  3 16  1  6  0  0  0
  3 10  1  0  0  0  0
  4 15  1  0  0  0  0
  4  8  2  0  0  0  0
  5  1  2  0  0  0  0
  7  9  2  0  0  0  0
  7  4  1  0  0  0  0
  8  1  1  0  0  0  0
  9  5  1  0  0  0  0
 11 10  1  6  0  0  0
 11  2  1  0  0  0  0
 11  7  1  0  0  0  0
 12 15  1  0  0  0  0
 13 35  1  6  0  0  0
 13  2  1  0  0  0  0
 14  3  1  0  0  0  0
 14 13  1  0  0  0  0
 16 17  1  6  0  0  0
 18 16  1  0  0  0  0
 19 18  1  0  0  0  0
 19 20  1  1  0  0  0
 21 19  1  0  0  0  0
 22 24  1  0  0  0  0
 22 25  1  0  0  0  0
 22 21  1  1  0  0  0
 24 27  1  0  0  0  0
 25 29  1  6  0  0  0
 25 26  1  0  0  0  0
 27 23  1  6  0  0  0
 27 26  1  0  0  0  0
 28 29  1  0  0  0  0
 29 34  2  0  0  0  0
 31 32  2  0  0  0  0
 32 30  1  0  0  0  0
 32 34  1  0  0  0  0
 33 31  1  0  0  0  0
 33 28  2  0  0  0  0
 36 42  1  6  0  0  0
 36 38  1  0  0  0  0
 36 35  1  0  0  0  0
 37 39  1  0  0  0  0
 38 37  2  0  0  0  0
 39 40  1  1  0  0  0
 39 41  2  0  0  0  0
 43 42  2  0  0  0  0
M  END
>  <MODEL>
8

>  <REMARK>
 VINA RESULT:      -8.9      1.805      3.104
  Name = 
  11 active torsions:
  status: ('A' for Active; 'I' for Inactive)
    1  A    between atoms: N_1  and  C_34
    2  A    between atoms: N_1  and  CA_35
    3  A    between atoms: C_2  and  C_6
    4  A    between atoms: C_2  and  C_13
    5  A    between atoms: C_3  and  C_4
    6  A    between atoms: C_3  and  C_12
    7  A    between atoms: C_6  and  C_12
    8  A    between atoms: N_9  and  S_19
    9  A    between atoms: C_14  and  C_22
   10  A    between atoms: C_28  and  CA_35
   11  A    between atoms: C_32  and  CA_35
                            x       y       z     vdW  Elec       q    Type
                         _______ _______ _______ _____ _____    ______ ____

>  <TORSDO>
F 11

$$$$
=
 OpenBabel10262422143D

 43 47  0  0  1  0  0  0  0  0999 V2000
  190.9820  176.6870  146.9160 C   0  0  0  0  0  0  0  0  0  0  0  0
  189.5450  177.3410  142.0630 C   0  0  2  0  0  3  0  0  0  0  0  0
  186.9980  178.1560  142.1310 C   0  0  2  0  0  3  0  0  0  0  0  0
  190.9650  176.9060  144.5000 C   0  0  0  0  0  0  0  0  0  0  0  0
  189.7310  177.3060  146.9880 C   0  0  0  0  0  3  0  0  0  0  0  0
  191.6010  176.2810  148.0510 F   0  0  0  0  0  0  0  0  0  0  0  0
  189.6830  177.5020  144.5670 C   0  0  0  0  0  0  0  0  0  0  0  0
  191.5940  176.4870  145.6770 C   0  0  0  0  0  3  0  0  0  0  0  0
  189.0890  177.7200  145.8190 C   0  0  0  0  0  3  0  0  0  0  0  0
  187.6090  177.9920  143.4100 O   0  0  0  0  0  0  0  0  0  0  0  0
  189.0240  178.0380  143.3220 C   0  0  2  0  0  3  0  0  0  0  0  0
  191.0600  177.4330  142.0270 C   0  0  0  0  0  2  0  0  0  0  0  0
  188.9080  178.0190  140.8500 C   0  0  2  0  0  3  0  0  0  0  0  0
  187.8230  178.8580  141.2160 O   0  0  0  0  0  0  0  0  0  0  0  0
  191.6380  176.6150  143.1830 C   0  0  0  0  0  2  0  0  0  0  0  0
  185.6590  178.8640  142.2800 C   0  0  2  0  0  3  0  0  0  0  0  0
  185.3680  179.0320  143.6360 O   0  0  0  0  0  1  0  0  0  0  0  0
  184.5600  178.0390  141.6150 C   0  0  0  0  0  2  0  0  0  0  0  0
  183.9930  178.6870  140.3520 C   0  0  2  0  0  3  0  0  0  0  0  0
  184.8250  179.7170  139.9130 O   0  0  0  0  0  1  0  0  0  0  0  0
  182.5700  179.2110  140.5470 C   0  0  0  0  0  2  0  0  0  0  0  0
  181.7100  178.3130  141.4400 C   0  0  1  0  0  3  0  0  0  0  0  0
  179.7150  178.6580  144.2470 C   0  0  0  0  0  1  0  0  0  0  0  0
  181.5260  178.8760  142.7030 O   0  0  0  0  0  0  0  0  0  0  0  0
  180.3460  178.0710  140.8640 C   0  0  2  0  0  3  0  0  0  0  0  0
  179.4500  178.2120  141.9180 O   0  0  0  0  0  0  0  0  0  0  0  0
  180.1330  179.0230  142.8370 C   0  0  1  0  0  3  0  0  0  0  0  0
  179.3380  175.7590  140.7450 C   0  0  0  0  0  3  0  0  0  0  0  0
  180.2480  176.7070  140.2580 C   0  0  0  0  0  0  0  0  0  0  0  0
  181.9130  174.7180  137.5180 C   0  0  0  0  0  1  0  0  0  0  0  0
  180.1240  174.1860  139.1290 N   0  0  0  0  0  0  0  0  0  0  0  0
  181.0180  175.0900  138.6430 C   0  0  0  0  0  0  0  0  0  0  0  0
  179.2910  174.4920  140.1590 C   0  0  0  0  0  3  0  0  0  0  0  0
  181.0960  176.3680  139.2030 C   0  0  0  0  0  3  0  0  0  0  0  0
  188.4840  177.0120  139.8840 N   0  0  0  0  0  2  0  0  0  0  0  0
  189.1190  177.3100  138.6070 C   0  0  2  0  0  3  0  0  0  0  0  0
  191.5040  176.6290  138.3410 N   0  0  0  0  0  0  0  0  0  0  0  0
  190.6140  177.4740  138.7430 C   0  0  0  0  0  3  0  0  0  0  0  0
  191.1490  175.1150  137.5550 S   0  0  1  0  0  0  0  0  0  0  0  0
  191.0190  175.5550  135.8170 C   0  0  0  0  0  1  0  0  0  0  0  0
  192.4610  174.3510  137.6520 O   0  0  0  0  0  0  0  0  0  0  0  0
  188.4640  178.4740  137.9280 C   0  0  0  0  0  3  0  0  0  0  0  0
  187.2520  178.6190  137.9350 O   0  0  0  0  0  0  0  0  0  0  0  0
  1  5  1  0  0  0  0
  1  6  1  0  0  0  0
  2 12  1  6  0  0  0
  2 11  1  0  0  0  0
  3 16  1  1  0  0  0
  3 10  1  0  0  0  0
  4  7  2  0  0  0  0
  4  8  1  0  0  0  0
  7  9  1  0  0  0  0
  8  1  2  0  0  0  0
  9  5  2  0  0  0  0
 11 10  1  1  0  0  0
 11  7  1  0  0  0  0
 12 15  1  0  0  0  0
 13 35  1  6  0  0  0
 13 14  1  0  0  0  0
 13  2  1  0  0  0  0
 14  3  1  0  0  0  0
 15  4  1  0  0  0  0
 16 17  1  1  0  0  0
 18 16  1  0  0  0  0
 19 20  1  1  0  0  0
 19 21  1  0  0  0  0
 19 18  1  0  0  0  0
 22 21  1  6  0  0  0
 22 24  1  0  0  0  0
 24 27  1  0  0  0  0
 25 29  1  1  0  0  0
 25 22  1  0  0  0  0
 25 26  1  0  0  0  0
 26 27  1  0  0  0  0
 27 23  1  1  0  0  0
 29 28  1  0  0  0  0
 30 32  1  0  0  0  0
 31 33  1  0  0  0  0
 32 31  2  0  0  0  0
 32 34  1  0  0  0  0
 33 28  2  0  0  0  0
 34 29  2  0  0  0  0
 36 42  1  1  0  0  0
 36 38  1  0  0  0  0
 36 35  1  0  0  0  0
 37 38  2  0  0  0  0
 39 40  1  6  0  0  0
 39 41  2  0  0  0  0
 39 37  1  0  0  0  0
 42 43  2  0  0  0  0
M  END
>  <MODEL>
9

>  <REMARK>
 VINA RESULT:      -8.8      3.252      9.397
  Name = 
  11 active torsions:
  status: ('A' for Active; 'I' for Inactive)
    1  A    between atoms: N_1  and  C_34
    2  A    between atoms: N_1  and  CA_35
    3  A    between atoms: C_2  and  C_6
    4  A    between atoms: C_2  and  C_13
    5  A    between atoms: C_3  and  C_4
    6  A    between atoms: C_3  and  C_12
    7  A    between atoms: C_6  and  C_12
    8  A    between atoms: N_9  and  S_19
    9  A    between atoms: C_14  and  C_22
   10  A    between atoms: C_28  and  CA_35
   11  A    between atoms: C_32  and  CA_35
                            x       y       z     vdW  Elec       q    Type
                         _______ _______ _______ _____ _____    ______ ____

>  <TORSDO>
F 11

$$$$
