=
 OpenBabel10262423393D

 34 39  0  0  1  0  0  0  0  0999 V2000
  188.2110  178.4500  141.5870 C   0  0  1  0  0  3  0  0  0  0  0  0
  187.2370  177.0690  143.5450 C   0  0  1  0  0  3  0  0  0  0  0  0
  185.7610  178.7210  142.3970 C   0  0  2  0  0  3  0  0  0  0  0  0
  187.8230  178.1180  139.3520 C   0  0  1  0  0  0  0  0  0  0  0  0
  188.8410  178.1950  140.3400 O   0  0  0  0  0  0  0  0  0  0  0  0
  186.4910  178.0730  140.0840 C   0  0  2  0  0  3  0  0  0  0  0  0
  185.2300  179.8910  139.1020 O   0  0  0  0  0  1  0  0  0  0  0  0
  185.2190  178.5180  139.3700 C   0  0  2  0  0  3  0  0  0  0  0  0
  187.8890  179.2630  138.5520 O   0  0  0  0  0  1  0  0  0  0  0  0
  184.3540  179.0780  141.9060 C   0  0  0  0  0  2  0  0  0  0  0  0
  186.7890  178.8900  141.2830 C   0  0  2  0  0  3  0  0  0  0  0  0
  183.8020  178.1020  140.4470 S   0  0  0  0  0  0  0  0  0  0  0  0
  187.6100  177.9540  144.7400 C   0  0  0  0  0  2  0  0  0  0  0  0
  189.1240  177.8750  144.9590 C   0  0  2  0  0  3  0  0  0  0  0  0
  189.8420  177.2360  143.4210 P   0  0  2  0  0  0  0  0  0  0  0  0
  185.8280  177.3390  143.0270 C   0  0  0  0  0  2  0  0  0  0  0  0
  190.8470  178.2080  142.8470 O   0  0  0  0  0  0  0  0  0  0  0  0
  188.3150  177.1780  142.4620 C   0  0  2  0  0  3  0  0  0  0  0  0
  188.1340  177.2050  137.0520 N   0  0  0  0  0  0  0  0  0  0  0  0
  189.1450  175.9610  139.0260 C   0  0  0  0  0  2  0  0  0  0  0  0
  191.2010  175.8130  135.6830 C   0  0  1  0  0  3  0  0  0  0  0  0
  190.6600  174.5080  136.2530 C   0  0  0  0  0  2  0  0  0  0  0  0
  188.6980  176.0990  136.2790 C   0  0  0  0  0  2  0  0  0  0  0  0
  190.4310  176.1030  138.2160 C   0  0  0  0  0  2  0  0  0  0  0  0
  190.1150  175.8250  136.7510 C   0  0  2  0  0  0  0  0  0  0  0  0
  188.0010  176.8560  138.4850 C   0  0  1  0  0  3  0  0  0  0  0  0
  186.8840  177.3950  136.5690 O   0  0  0  0  0  1  0  0  0  0  0  0
  192.5860  176.0750  136.2480 C   0  0  0  0  0  2  0  0  0  0  0  0
  193.7840  176.1540  134.8840 S   0  0  0  0  0  1  0  0  0  0  0  0
  189.5250  177.0550  146.1910 C   0  0  0  0  0  3  0  0  0  0  0  0
  188.5630  177.2110  147.3600 C   0  0  0  0  0  1  0  0  0  0  0  0
  190.9260  177.4270  146.6350 C   0  0  0  0  0  1  0  0  0  0  0  0
  191.8680  175.4650  143.7920 C   0  0  0  0  0  2  0  0  0  0  0  0
  190.5620  175.6050  143.5970 C   0  0  0  0  0  3  0  0  0  0  0  0
  1  5  1  6  0  0  0
  1 18  1  0  0  0  0
  2 16  1  6  0  0  0
  2 13  1  0  0  0  0
  3 10  1  6  0  0  0
  3 16  1  0  0  0  0
  4  9  1  6  0  0  0
  4  6  1  0  0  0  0
  4  5  1  0  0  0  0
  6 11  1  0  0  0  0
  7  8  1  0  0  0  0
  8  6  1  0  0  0  0
  8 12  1  0  0  0  0
 11  1  1  0  0  0  0
 11  3  1  0  0  0  0
 12 10  1  0  0  0  0
 13 14  1  0  0  0  0
 14 30  1  0  0  0  0
 15 34  1  0  0  0  0
 15 14  1  0  0  0  0
 17 15  2  0  0  0  0
 18 15  1  0  0  0  0
 18  2  1  0  0  0  0
 19 26  1  0  0  0  0
 21 28  1  0  0  0  0
 21 22  1  0  0  0  0
 21 25  1  0  0  0  0
 22 25  1  0  0  0  0
 23 25  1  0  0  0  0
 23 19  1  0  0  0  0
 24 20  1  0  0  0  0
 25 24  1  0  0  0  0
 26 20  1  0  0  0  0
 26  4  1  0  0  0  0
 27 19  1  0  0  0  0
 29 28  1  0  0  0  0
 30 32  1  0  0  0  0
 30 31  1  0  0  0  0
 34 33  2  0  0  0  0
M  END
>  <MODEL>
1

>  <REMARK>
 VINA RESULT:      -6.6      0.000      0.000
  Name = 
  4 active torsions:
  status: ('A' for Active; 'I' for Inactive)
    1  A    between atoms: C_3  and  C_25
    2  A    between atoms: C_7  and  C_11
    3  A    between atoms: C_8  and  C_30
    4  A    between atoms: P_27  and  C_29
                            x       y       z     vdW  Elec       q    Type
                         _______ _______ _______ _____ _____    ______ ____

>  <TORSDO>
F 4

$$$$
=
 OpenBabel10262423393D

 34 39  0  0  1  0  0  0  0  0999 V2000
  187.7310  178.6790  141.6330 C   0  0  1  0  0  3  0  0  0  0  0  0
  189.0880  176.4770  141.6110 C   0  0  1  0  0  3  0  0  0  0  0  0
  188.7030  177.6230  143.7930 C   0  0  2  0  0  3  0  0  0  0  0  0
  185.5530  178.9380  142.2990 C   0  0  1  0  0  0  0  0  0  0  0  0
  186.4480  179.1200  141.2120 O   0  0  0  0  0  0  0  0  0  0  0  0
  186.2820  178.1090  143.3440 C   0  0  2  0  0  3  0  0  0  0  0  0
  186.1010  179.4340  145.3630 O   0  0  0  0  0  1  0  0  0  0  0  0
  185.8450  178.1770  144.8040 C   0  0  2  0  0  3  0  0  0  0  0  0
  185.2280  180.1910  142.8270 O   0  0  0  0  0  1  0  0  0  0  0  0
  188.4480  177.4900  145.2990 C   0  0  0  0  0  2  0  0  0  0  0  0
  187.6810  178.5510  143.1450 C   0  0  2  0  0  3  0  0  0  0  0  0
  186.7610  176.8860  145.7200 S   0  0  0  0  0  0  0  0  0  0  0  0
  190.5050  177.0100  141.3700 C   0  0  0  0  0  2  0  0  0  0  0  0
  190.6050  177.5110  139.9260 C   0  0  2  0  0  3  0  0  0  0  0  0
  188.9060  177.7540  139.3390 P   0  0  2  0  0  0  0  0  0  0  0  0
  188.7750  176.2770  143.0910 C   0  0  0  0  0  2  0  0  0  0  0  0
  188.6820  179.1860  138.9060 O   0  0  0  0  0  0  0  0  0  0  0  0
  188.0690  177.3650  140.8880 C   0  0  2  0  0  3  0  0  0  0  0  0
  183.0590  178.8970  142.3330 N   0  0  0  0  0  0  0  0  0  0  0  0
  184.2850  177.9830  140.3020 C   0  0  0  0  0  2  0  0  0  0  0  0
  180.8520  179.7440  139.5710 C   0  0  1  0  0  3  0  0  0  0  0  0
  180.9880  178.2630  139.2350 C   0  0  0  0  0  2  0  0  0  0  0  0
  181.8670  178.4850  141.5930 C   0  0  0  0  0  2  0  0  0  0  0  0
  183.4030  178.9780  139.5550 C   0  0  0  0  0  2  0  0  0  0  0  0
  181.9980  178.9210  140.1440 C   0  0  2  0  0  0  0  0  0  0  0  0
  184.2740  178.2120  141.8350 C   0  0  1  0  0  3  0  0  0  0  0  0
  182.8630  178.4850  143.6080 O   0  0  0  0  0  1  0  0  0  0  0  0
  181.2660  180.5750  138.3690 C   0  0  0  0  0  2  0  0  0  0  0  0
  180.1950  182.0380  138.2560 S   0  0  0  0  0  1  0  0  0  0  0  0
  191.4270  176.5940  139.0120 C   0  0  0  0  0  3  0  0  0  0  0  0
  192.9280  176.7040  139.2410 C   0  0  0  0  0  1  0  0  0  0  0  0
  191.1130  176.8850  137.5590 C   0  0  0  0  0  1  0  0  0  0  0  0
  187.2870  176.7750  137.3900 C   0  0  0  0  0  2  0  0  0  0  0  0
  188.4340  176.6150  138.0390 C   0  0  0  0  0  3  0  0  0  0  0  0
  1  5  1  6  0  0  0
  1 11  1  0  0  0  0
  2 13  1  1  0  0  0
  2 16  1  0  0  0  0
  3 16  1  6  0  0  0
  3 10  1  0  0  0  0
  4  9  1  1  0  0  0
  4  6  1  0  0  0  0
  5  4  1  0  0  0  0
  6  8  1  0  0  0  0
  8  7  1  0  0  0  0
  8 12  1  0  0  0  0
 10 12  1  0  0  0  0
 11  6  1  0  0  0  0
 11  3  1  0  0  0  0
 14 13  1  0  0  0  0
 15 14  1  0  0  0  0
 15 18  1  0  0  0  0
 17 15  2  0  0  0  0
 18  2  1  0  0  0  0
 18  1  1  0  0  0  0
 19 27  1  0  0  0  0
 20 26  1  0  0  0  0
 21 25  1  0  0  0  0
 22 21  1  0  0  0  0
 22 25  1  0  0  0  0
 23 19  1  0  0  0  0
 24 25  1  0  0  0  0
 24 20  1  0  0  0  0
 25 23  1  0  0  0  0
 26  4  1  0  0  0  0
 26 19  1  0  0  0  0
 28 21  1  0  0  0  0
 29 28  1  0  0  0  0
 30 31  1  0  0  0  0
 30 14  1  0  0  0  0
 32 30  1  0  0  0  0
 33 34  2  0  0  0  0
 34 15  1  0  0  0  0
M  END
>  <MODEL>
2

>  <REMARK>
 VINA RESULT:      -6.3      3.390      7.049
  Name = 
  4 active torsions:
  status: ('A' for Active; 'I' for Inactive)
    1  A    between atoms: C_3  and  C_25
    2  A    between atoms: C_7  and  C_11
    3  A    between atoms: C_8  and  C_30
    4  A    between atoms: P_27  and  C_29
                            x       y       z     vdW  Elec       q    Type
                         _______ _______ _______ _____ _____    ______ ____

>  <TORSDO>
F 4

$$$$
=
 OpenBabel10262423393D

 34 39  0  0  1  0  0  0  0  0999 V2000
  186.2950  178.5720  138.0720 C   0  0  1  0  0  3  0  0  0  0  0  0
  184.2900  176.9590  137.8090 C   0  0  1  0  0  3  0  0  0  0  0  0
  185.7770  177.3480  135.8450 C   0  0  2  0  0  3  0  0  0  0  0  0
  188.4990  177.9890  138.3070 C   0  0  1  0  0  0  0  0  0  0  0  0
  187.4310  178.6990  138.9160 O   0  0  0  0  0  0  0  0  0  0  0  0
  187.9060  177.1810  137.1640 C   0  0  2  0  0  3  0  0  0  0  0  0
  189.2290  177.8380  135.2450 O   0  0  0  0  0  1  0  0  0  0  0  0
  188.7950  176.7450  136.0040 C   0  0  2  0  0  3  0  0  0  0  0  0
  189.4250  178.9120  137.8090 O   0  0  0  0  0  1  0  0  0  0  0  0
  186.4490  176.7700  134.5940 C   0  0  0  0  0  2  0  0  0  0  0  0
  186.7940  178.0580  136.7320 C   0  0  2  0  0  3  0  0  0  0  0  0
  187.8240  175.6020  134.9580 S   0  0  0  0  0  0  0  0  0  0  0  0
  183.1820  177.9360  137.3980 C   0  0  0  0  0  2  0  0  0  0  0  0
  182.8030  178.7900  138.6120 C   0  0  2  0  0  3  0  0  0  0  0  0
  184.1690  178.6520  139.7970 P   0  0  2  0  0  0  0  0  0  0  0  0
  184.9780  176.3080  136.6140 C   0  0  0  0  0  2  0  0  0  0  0  0
  184.7540  180.0110  140.1100 O   0  0  0  0  0  0  0  0  0  0  0  0
  185.2640  177.6520  138.7690 C   0  0  2  0  0  3  0  0  0  0  0  0
  190.6200  177.3770  139.4690 N   0  0  0  0  0  0  0  0  0  0  0  0
  188.4050  177.0250  140.6670 C   0  0  0  0  0  2  0  0  0  0  0  0
  191.4360  178.0340  142.9500 C   0  0  1  0  0  3  0  0  0  0  0  0
  190.7820  176.6780  143.1810 C   0  0  0  0  0  2  0  0  0  0  0  0
  191.1820  176.7990  140.6890 C   0  0  0  0  0  2  0  0  0  0  0  0
  189.0670  177.8790  141.7450 C   0  0  0  0  0  2  0  0  0  0  0  0
  190.5150  177.4300  141.8990 C   0  0  2  0  0  0  0  0  0  0  0  0
  189.1820  177.0540  139.3260 C   0  0  1  0  0  3  0  0  0  0  0  0
  191.2680  176.7760  138.4430 O   0  0  0  0  0  1  0  0  0  0  0  0
  190.7450  179.0800  143.8080 C   0  0  0  0  0  2  0  0  0  0  0  0
  190.0890  178.2880  145.3060 S   0  0  0  0  0  1  0  0  0  0  0  0
  181.4440  178.4240  139.2220 C   0  0  0  0  0  3  0  0  0  0  0  0
  180.5560  177.6240  138.2800 C   0  0  0  0  0  1  0  0  0  0  0  0
  180.7140  179.6760  139.6660 C   0  0  0  0  0  1  0  0  0  0  0  0
  184.2390  178.1580  142.4660 C   0  0  0  0  0  2  0  0  0  0  0  0
  183.7210  177.7890  141.3010 C   0  0  0  0  0  3  0  0  0  0  0  0
  1 18  1  0  0  0  0
  1  5  1  1  0  0  0
  2 16  1  6  0  0  0
  2 18  1  0  0  0  0
  3 10  1  6  0  0  0
  3 16  1  0  0  0  0
  3 11  1  0  0  0  0
  4  9  1  6  0  0  0
  4  5  1  0  0  0  0
  4 26  1  0  0  0  0
  6  4  1  0  0  0  0
  7  8  1  0  0  0  0
  8  6  1  0  0  0  0
 10 12  1  0  0  0  0
 11  6  1  0  0  0  0
 11  1  1  0  0  0  0
 12  8  1  0  0  0  0
 13  2  1  0  0  0  0
 13 14  1  0  0  0  0
 14 30  1  0  0  0  0
 14 15  1  0  0  0  0
 15 17  2  0  0  0  0
 15 34  1  0  0  0  0
 18 15  1  0  0  0  0
 19 23  1  0  0  0  0
 20 24  1  0  0  0  0
 21 22  1  0  0  0  0
 21 28  1  0  0  0  0
 23 25  1  0  0  0  0
 24 25  1  0  0  0  0
 25 21  1  0  0  0  0
 25 22  1  0  0  0  0
 26 19  1  0  0  0  0
 26 20  1  0  0  0  0
 27 19  1  0  0  0  0
 28 29  1  0  0  0  0
 30 32  1  0  0  0  0
 31 30  1  0  0  0  0
 34 33  2  0  0  0  0
M  END
>  <MODEL>
3

>  <REMARK>
 VINA RESULT:      -5.8      3.161      6.868
  Name = 
  4 active torsions:
  status: ('A' for Active; 'I' for Inactive)
    1  A    between atoms: C_3  and  C_25
    2  A    between atoms: C_7  and  C_11
    3  A    between atoms: C_8  and  C_30
    4  A    between atoms: P_27  and  C_29
                            x       y       z     vdW  Elec       q    Type
                         _______ _______ _______ _____ _____    ______ ____

>  <TORSDO>
F 4

$$$$
=
 OpenBabel10262423393D

 34 39  0  0  1  0  0  0  0  0999 V2000
  185.4460  177.4620  143.3080 C   0  0  1  0  0  3  0  0  0  0  0  0
  184.1990  179.6920  143.7150 C   0  0  1  0  0  3  0  0  0  0  0  0
  185.1640  178.4870  145.6740 C   0  0  2  0  0  3  0  0  0  0  0  0
  187.7150  177.1410  143.3150 C   0  0  1  0  0  0  0  0  0  0  0  0
  186.5410  177.0040  142.5280 O   0  0  0  0  0  0  0  0  0  0  0  0
  187.3410  177.9610  144.5390 C   0  0  2  0  0  3  0  0  0  0  0  0
  188.0580  176.5850  146.3980 O   0  0  0  0  0  1  0  0  0  0  0  0
  188.1770  177.8490  145.8100 C   0  0  2  0  0  3  0  0  0  0  0  0
  188.1440  175.8690  143.7050 O   0  0  0  0  0  1  0  0  0  0  0  0
  185.8450  178.5790  147.0440 C   0  0  0  0  0  2  0  0  0  0  0  0
  185.9320  177.5530  144.7440 C   0  0  2  0  0  3  0  0  0  0  0  0
  187.5970  179.1360  146.9720 S   0  0  0  0  0  0  0  0  0  0  0  0
  182.7590  179.1940  143.8830 C   0  0  0  0  0  2  0  0  0  0  0  0
  182.2350  178.7300  142.5210 C   0  0  2  0  0  3  0  0  0  0  0  0
  183.6860  178.4650  141.4650 P   0  0  2  0  0  0  0  0  0  0  0  0
  184.9300  179.8500  145.0450 C   0  0  0  0  0  2  0  0  0  0  0  0
  183.7380  177.0400  140.9620 O   0  0  0  0  0  0  0  0  0  0  0  0
  184.9430  178.8000  142.7140 C   0  0  2  0  0  3  0  0  0  0  0  0
  190.0790  177.0620  142.5220 N   0  0  0  0  0  0  0  0  0  0  0  0
  188.3340  178.2390  141.0970 C   0  0  0  0  0  2  0  0  0  0  0  0
  191.1920  176.4050  139.1240 C   0  0  1  0  0  3  0  0  0  0  0  0
  191.0710  177.9170  138.9760 C   0  0  0  0  0  2  0  0  0  0  0  0
  190.9930  177.4920  141.4650 C   0  0  0  0  0  2  0  0  0  0  0  0
  188.8440  177.2870  140.0190 C   0  0  0  0  0  2  0  0  0  0  0  0
  190.3630  177.2170  140.1110 C   0  0  2  0  0  0  0  0  0  0  0  0
  188.8260  177.8510  142.5140 C   0  0  1  0  0  3  0  0  0  0  0  0
  190.7120  177.3280  143.6900 O   0  0  0  0  0  1  0  0  0  0  0  0
  190.3440  175.7240  138.0630 C   0  0  0  0  0  2  0  0  0  0  0  0
  191.3470  174.4730  137.2080 S   0  0  0  0  0  1  0  0  0  0  0  0
  181.2100  179.6850  141.8980 C   0  0  0  0  0  3  0  0  0  0  0  0
  180.1690  180.1840  142.8890 C   0  0  0  0  0  1  0  0  0  0  0  0
  180.5160  179.0180  140.7270 C   0  0  0  0  0  1  0  0  0  0  0  0
  184.2000  179.2180  138.9070 C   0  0  0  0  0  2  0  0  0  0  0  0
  183.7960  179.6250  140.1040 C   0  0  0  0  0  3  0  0  0  0  0  0
  1  5  1  6  0  0  0
  1 11  1  0  0  0  0
  2 13  1  1  0  0  0
  2 16  1  0  0  0  0
  3 16  1  6  0  0  0
  3 10  1  0  0  0  0
  4  9  1  1  0  0  0
  4  6  1  0  0  0  0
  5  4  1  0  0  0  0
  6 11  1  0  0  0  0
  6  8  1  0  0  0  0
  8  7  1  0  0  0  0
  8 12  1  0  0  0  0
 11  3  1  0  0  0  0
 12 10  1  0  0  0  0
 14 13  1  0  0  0  0
 15 14  1  0  0  0  0
 15 18  1  0  0  0  0
 17 15  2  0  0  0  0
 18  1  1  0  0  0  0
 18  2  1  0  0  0  0
 19 27  1  0  0  0  0
 20 26  1  0  0  0  0
 21 25  1  0  0  0  0
 22 21  1  0  0  0  0
 22 25  1  0  0  0  0
 23 19  1  0  0  0  0
 24 25  1  0  0  0  0
 24 20  1  0  0  0  0
 25 23  1  0  0  0  0
 26 19  1  0  0  0  0
 26  4  1  0  0  0  0
 28 21  1  0  0  0  0
 29 28  1  0  0  0  0
 30 14  1  0  0  0  0
 30 31  1  0  0  0  0
 32 30  1  0  0  0  0
 33 34  2  0  0  0  0
 34 15  1  0  0  0  0
M  END
>  <MODEL>
4

>  <REMARK>
 VINA RESULT:      -5.5      3.123      6.184
  Name = 
  4 active torsions:
  status: ('A' for Active; 'I' for Inactive)
    1  A    between atoms: C_3  and  C_25
    2  A    between atoms: C_7  and  C_11
    3  A    between atoms: C_8  and  C_30
    4  A    between atoms: P_27  and  C_29
                            x       y       z     vdW  Elec       q    Type
                         _______ _______ _______ _____ _____    ______ ____

>  <TORSDO>
F 4

$$$$
=
 OpenBabel10262423393D

 34 39  0  0  1  0  0  0  0  0999 V2000
  186.1690  175.5790  135.4700 C   0  0  1  0  0  3  0  0  0  0  0  0
  185.5890  173.5180  136.9220 C   0  0  1  0  0  3  0  0  0  0  0  0
  187.8100  173.5960  135.7900 C   0  0  2  0  0  3  0  0  0  0  0  0
  187.5650  177.3060  136.0390 C   0  0  1  0  0  0  0  0  0  0  0  0
  186.2410  176.9880  135.6360 O   0  0  0  0  0  0  0  0  0  0  0  0
  188.2560  175.9950  136.3790 C   0  0  2  0  0  3  0  0  0  0  0  0
  190.2600  176.0290  135.0200 O   0  0  0  0  0  1  0  0  0  0  0  0
  189.7780  175.9060  136.3280 C   0  0  2  0  0  3  0  0  0  0  0  0
  188.2210  177.9290  134.9730 O   0  0  0  0  0  1  0  0  0  0  0  0
  189.3040  173.2540  135.8430 C   0  0  0  0  0  2  0  0  0  0  0  0
  187.5970  175.0640  135.4340 C   0  0  2  0  0  3  0  0  0  0  0  0
  190.2640  174.2880  137.0240 S   0  0  0  0  0  0  0  0  0  0  0  0
  184.8880  172.6240  135.8930 C   0  0  0  0  0  2  0  0  0  0  0  0
  183.5210  173.2310  135.5620 C   0  0  2  0  0  3  0  0  0  0  0  0
  183.5750  174.9640  136.0940 P   0  0  2  0  0  0  0  0  0  0  0  0
  187.0750  173.2060  137.0620 C   0  0  0  0  0  2  0  0  0  0  0  0
  183.3040  175.8960  134.9350 O   0  0  0  0  0  0  0  0  0  0  0  0
  185.3030  174.9920  136.6100 C   0  0  2  0  0  3  0  0  0  0  0  0
  186.7520  177.6560  138.3710 N   0  0  0  0  0  0  0  0  0  0  0  0
  188.9870  178.6500  137.6760 C   0  0  0  0  0  2  0  0  0  0  0  0
  188.7460  177.4380  141.4040 C   0  0  1  0  0  3  0  0  0  0  0  0
  188.9910  178.9190  141.1430 C   0  0  0  0  0  2  0  0  0  0  0  0
  187.0500  178.3030  139.6490 C   0  0  0  0  0  2  0  0  0  0  0  0
  189.4970  177.8720  138.8860 C   0  0  0  0  0  2  0  0  0  0  0  0
  188.4960  178.0340  140.0240 C   0  0  2  0  0  0  0  0  0  0  0  0
  187.5500  178.2380  137.2680 C   0  0  1  0  0  3  0  0  0  0  0  0
  185.4510  177.9310  138.1130 O   0  0  0  0  0  1  0  0  0  0  0  0
  190.0770  176.7140  141.5010 C   0  0  0  0  0  2  0  0  0  0  0  0
  190.2110  175.9250  143.1330 S   0  0  0  0  0  1  0  0  0  0  0  0
  182.3420  172.4570  136.1650 C   0  0  0  0  0  3  0  0  0  0  0  0
  182.7390  171.1050  136.7390 C   0  0  0  0  0  1  0  0  0  0  0  0
  181.2530  172.2680  135.1280 C   0  0  0  0  0  1  0  0  0  0  0  0
  182.9730  175.5340  138.6810 C   0  0  0  0  0  2  0  0  0  0  0  0
  182.4800  175.3190  137.4670 C   0  0  0  0  0  3  0  0  0  0  0  0
  1  5  1  1  0  0  0
  1 18  1  0  0  0  0
  2 13  1  6  0  0  0
  2 16  1  0  0  0  0
  3 10  1  1  0  0  0
  3 16  1  0  0  0  0
  4  9  1  6  0  0  0
  4  6  1  0  0  0  0
  4 26  1  0  0  0  0
  5  4  1  0  0  0  0
  7  8  1  0  0  0  0
  8  6  1  0  0  0  0
  8 12  1  0  0  0  0
 10 12  1  0  0  0  0
 11  1  1  0  0  0  0
 11  3  1  0  0  0  0
 11  6  1  0  0  0  0
 14 13  1  0  0  0  0
 14 15  1  0  0  0  0
 14 30  1  0  0  0  0
 15 18  1  0  0  0  0
 15 34  1  0  0  0  0
 17 15  2  0  0  0  0
 18  2  1  0  0  0  0
 19 23  1  0  0  0  0
 20 24  1  0  0  0  0
 21 28  1  0  0  0  0
 22 21  1  0  0  0  0
 23 25  1  0  0  0  0
 24 25  1  0  0  0  0
 25 22  1  0  0  0  0
 25 21  1  0  0  0  0
 26 20  1  0  0  0  0
 26 19  1  0  0  0  0
 27 19  1  0  0  0  0
 28 29  1  0  0  0  0
 30 31  1  0  0  0  0
 32 30  1  0  0  0  0
 34 33  2  0  0  0  0
M  END
>  <MODEL>
5

>  <REMARK>
 VINA RESULT:      -5.3      4.160      8.102
  Name = 
  4 active torsions:
  status: ('A' for Active; 'I' for Inactive)
    1  A    between atoms: C_3  and  C_25
    2  A    between atoms: C_7  and  C_11
    3  A    between atoms: C_8  and  C_30
    4  A    between atoms: P_27  and  C_29
                            x       y       z     vdW  Elec       q    Type
                         _______ _______ _______ _____ _____    ______ ____

>  <TORSDO>
F 4

$$$$
=
 OpenBabel10262423393D

 34 39  0  0  1  0  0  0  0  0999 V2000
  187.5340  178.3020  138.3730 C   0  0  1  0  0  3  0  0  0  0  0  0
  189.2020  176.3770  138.8240 C   0  0  1  0  0  3  0  0  0  0  0  0
  188.8160  178.0700  140.6160 C   0  0  2  0  0  3  0  0  0  0  0  0
  185.3990  178.4820  139.1880 C   0  0  1  0  0  0  0  0  0  0  0  0
  186.1710  178.4370  137.9970 O   0  0  0  0  0  0  0  0  0  0  0  0
  186.3220  178.1000  140.3340 C   0  0  2  0  0  3  0  0  0  0  0  0
  186.0980  179.9380  141.8950 O   0  0  0  0  0  1  0  0  0  0  0  0
  185.9920  178.5500  141.7540 C   0  0  2  0  0  3  0  0  0  0  0  0
  184.9300  179.7870  139.3690 O   0  0  0  0  0  1  0  0  0  0  0  0
  188.6990  178.3650  142.1150 C   0  0  0  0  0  2  0  0  0  0  0  0
  187.6190  178.6290  139.8540 C   0  0  2  0  0  3  0  0  0  0  0  0
  187.1600  177.7150  142.8860 S   0  0  0  0  0  0  0  0  0  0  0  0
  190.5000  176.9820  138.2760 C   0  0  0  0  0  2  0  0  0  0  0  0
  190.4120  177.0350  136.7470 C   0  0  2  0  0  3  0  0  0  0  0  0
  188.6570  176.8820  136.3180 P   0  0  2  0  0  0  0  0  0  0  0  0
  189.0370  176.5940  140.3250 C   0  0  0  0  0  2  0  0  0  0  0  0
  188.1860  178.0790  135.5230 O   0  0  0  0  0  0  0  0  0  0  0  0
  188.0080  176.8770  138.0020 C   0  0  2  0  0  3  0  0  0  0  0  0
  182.9570  178.1390  139.5640 N   0  0  0  0  0  0  0  0  0  0  0  0
  184.1160  176.8570  137.6990 C   0  0  0  0  0  2  0  0  0  0  0  0
  180.3950  177.8980  136.9960 C   0  0  1  0  0  3  0  0  0  0  0  0
  180.7300  176.4120  137.0450 C   0  0  0  0  0  2  0  0  0  0  0  0
  181.7810  177.3900  139.1230 C   0  0  0  0  0  2  0  0  0  0  0  0
  183.0210  177.4860  136.8410 C   0  0  0  0  0  2  0  0  0  0  0  0
  181.7050  177.4180  137.6070 C   0  0  2  0  0  0  0  0  0  0  0  0
  184.2120  177.5010  139.1050 C   0  0  1  0  0  3  0  0  0  0  0  0
  182.9490  178.0770  140.9170 O   0  0  0  0  0  1  0  0  0  0  0  0
  180.5580  178.4060  135.5740 C   0  0  0  0  0  2  0  0  0  0  0  0
  180.4300  180.2190  135.5690 S   0  0  0  0  0  1  0  0  0  0  0  0
  191.2920  175.9930  136.0450 C   0  0  0  0  0  3  0  0  0  0  0  0
  192.6410  175.7900  136.7180 C   0  0  0  0  0  1  0  0  0  0  0  0
  191.5010  176.3770  134.5940 C   0  0  0  0  0  1  0  0  0  0  0  0
  187.3960  174.4990  135.9890 C   0  0  0  0  0  2  0  0  0  0  0  0
  188.2640  175.3560  135.4650 C   0  0  0  0  0  3  0  0  0  0  0  0
  1  5  1  1  0  0  0
  1 11  1  0  0  0  0
  2 13  1  6  0  0  0
  2 16  1  0  0  0  0
  3 16  1  1  0  0  0
  3 10  1  0  0  0  0
  4  9  1  1  0  0  0
  4  6  1  0  0  0  0
  5  4  1  0  0  0  0
  6  8  1  0  0  0  0
  8  7  1  0  0  0  0
  8 12  1  0  0  0  0
 10 12  1  0  0  0  0
 11  6  1  0  0  0  0
 11  3  1  0  0  0  0
 14 13  1  0  0  0  0
 15 14  1  0  0  0  0
 15 18  1  0  0  0  0
 17 15  2  0  0  0  0
 18  1  1  0  0  0  0
 18  2  1  0  0  0  0
 19 27  1  0  0  0  0
 20 26  1  0  0  0  0
 21 22  1  0  0  0  0
 21 25  1  0  0  0  0
 22 25  1  0  0  0  0
 23 19  1  0  0  0  0
 24 25  1  0  0  0  0
 24 20  1  0  0  0  0
 25 23  1  0  0  0  0
 26  4  1  0  0  0  0
 26 19  1  0  0  0  0
 28 21  1  0  0  0  0
 29 28  1  0  0  0  0
 30 31  1  0  0  0  0
 30 14  1  0  0  0  0
 32 30  1  0  0  0  0
 34 33  2  0  0  0  0
 34 15  1  0  0  0  0
M  END
>  <MODEL>
6

>  <REMARK>
 VINA RESULT:      -4.9      3.470      7.312
  Name = 
  4 active torsions:
  status: ('A' for Active; 'I' for Inactive)
    1  A    between atoms: C_3  and  C_25
    2  A    between atoms: C_7  and  C_11
    3  A    between atoms: C_8  and  C_30
    4  A    between atoms: P_27  and  C_29
                            x       y       z     vdW  Elec       q    Type
                         _______ _______ _______ _____ _____    ______ ____

>  <TORSDO>
F 4

$$$$
=
 OpenBabel10262423393D

 34 39  0  0  1  0  0  0  0  0999 V2000
  182.6810  177.9430  137.2020 C   0  0  1  0  0  3  0  0  0  0  0  0
  184.2030  177.4630  139.2380 C   0  0  1  0  0  3  0  0  0  0  0  0
  182.2630  179.0040  139.5320 C   0  0  2  0  0  3  0  0  0  0  0  0
  180.5960  177.0730  136.8160 C   0  0  1  0  0  0  0  0  0  0  0  0
  181.9050  177.1940  136.2780 O   0  0  0  0  0  0  0  0  0  0  0  0
  180.6570  177.5570  138.2560 C   0  0  2  0  0  3  0  0  0  0  0  0
  178.9310  179.2500  138.3700 O   0  0  0  0  0  1  0  0  0  0  0  0
  179.3900  178.0580  138.9400 C   0  0  2  0  0  3  0  0  0  0  0  0
  179.7300  177.8840  136.0760 O   0  0  0  0  0  1  0  0  0  0  0  0
  181.1470  179.5210  140.4460 C   0  0  0  0  0  2  0  0  0  0  0  0
  181.7100  178.5950  138.1700 C   0  0  2  0  0  3  0  0  0  0  0  0
  179.7790  178.3190  140.7080 S   0  0  0  0  0  0  0  0  0  0  0  0
  185.2740  178.5460  139.0630 C   0  0  0  0  0  2  0  0  0  0  0  0
  186.1520  178.1820  137.8620 C   0  0  2  0  0  3  0  0  0  0  0  0
  185.2220  176.9720  136.8820 P   0  0  2  0  0  0  0  0  0  0  0  0
  183.0760  177.8910  140.1730 C   0  0  0  0  0  2  0  0  0  0  0  0
  185.0010  177.4700  135.4720 O   0  0  0  0  0  0  0  0  0  0  0  0
  183.7090  176.9950  137.8650 C   0  0  2  0  0  3  0  0  0  0  0  0
  180.3930  175.0030  135.4380 N   0  0  0  0  0  0  0  0  0  0  0  0
  180.6820  174.7920  137.9560 C   0  0  0  0  0  2  0  0  0  0  0  0
  182.3630  171.9690  135.8040 C   0  0  1  0  0  3  0  0  0  0  0  0
  181.2560  171.5730  136.7720 C   0  0  0  0  0  2  0  0  0  0  0  0
  180.3310  173.5430  135.4890 C   0  0  0  0  0  2  0  0  0  0  0  0
  181.8620  173.9100  137.5570 C   0  0  0  0  0  2  0  0  0  0  0  0
  181.4350  173.0230  136.3940 C   0  0  2  0  0  0  0  0  0  0  0  0
  180.1210  175.6070  136.7630 C   0  0  1  0  0  3  0  0  0  0  0  0
  179.3920  175.3870  134.6100 O   0  0  0  0  0  1  0  0  0  0  0  0
  183.7040  171.9010  136.5140 C   0  0  0  0  0  2  0  0  0  0  0  0
  184.9330  171.1550  135.4020 S   0  0  0  0  0  1  0  0  0  0  0  0
  187.5510  177.6890  138.2490 C   0  0  0  0  0  3  0  0  0  0  0  0
  187.9970  178.1600  139.6250 C   0  0  0  0  0  1  0  0  0  0  0  0
  188.5660  178.1230  137.2110 C   0  0  0  0  0  1  0  0  0  0  0  0
  186.3230  174.7740  135.7270 C   0  0  0  0  0  2  0  0  0  0  0  0
  185.9670  175.3420  136.8730 C   0  0  0  0  0  3  0  0  0  0  0  0
  1  5  1  6  0  0  0
  1 18  1  0  0  0  0
  1 11  1  0  0  0  0
  2 13  1  6  0  0  0
  2 16  1  0  0  0  0
  3 16  1  1  0  0  0
  3 10  1  0  0  0  0
  4  9  1  6  0  0  0
  4  6  1  0  0  0  0
  5  4  1  0  0  0  0
  6  8  1  0  0  0  0
  7  8  1  0  0  0  0
  8 12  1  0  0  0  0
 10 12  1  0  0  0  0
 11  6  1  0  0  0  0
 11  3  1  0  0  0  0
 14 30  1  0  0  0  0
 14 13  1  0  0  0  0
 15 14  1  0  0  0  0
 15 18  1  0  0  0  0
 17 15  2  0  0  0  0
 18  2  1  0  0  0  0
 19 23  1  0  0  0  0
 19 26  1  0  0  0  0
 21 25  1  0  0  0  0
 21 28  1  0  0  0  0
 21 22  1  0  0  0  0
 23 25  1  0  0  0  0
 24 20  1  0  0  0  0
 25 22  1  0  0  0  0
 25 24  1  0  0  0  0
 26  4  1  0  0  0  0
 26 20  1  0  0  0  0
 27 19  1  0  0  0  0
 29 28  1  0  0  0  0
 30 31  1  0  0  0  0
 32 30  1  0  0  0  0
 33 34  2  0  0  0  0
 34 15  1  0  0  0  0
M  END
>  <MODEL>
7

>  <REMARK>
 VINA RESULT:      -4.8      5.354      7.807
  Name = 
  4 active torsions:
  status: ('A' for Active; 'I' for Inactive)
    1  A    between atoms: C_3  and  C_25
    2  A    between atoms: C_7  and  C_11
    3  A    between atoms: C_8  and  C_30
    4  A    between atoms: P_27  and  C_29
                            x       y       z     vdW  Elec       q    Type
                         _______ _______ _______ _____ _____    ______ ____

>  <TORSDO>
F 4

$$$$
=
 OpenBabel10262423393D

 34 39  0  0  1  0  0  0  0  0999 V2000
  185.4830  179.1370  141.0420 C   0  0  1  0  0  3  0  0  0  0  0  0
  183.3040  177.7570  141.2360 C   0  0  1  0  0  3  0  0  0  0  0  0
  184.1140  178.4000  138.9660 C   0  0  2  0  0  3  0  0  0  0  0  0
  187.5460  178.3580  140.4160 C   0  0  1  0  0  0  0  0  0  0  0  0
  186.8370  179.0180  141.4550 O   0  0  0  0  0  0  0  0  0  0  0  0
  186.5130  177.8290  139.4350 C   0  0  2  0  0  3  0  0  0  0  0  0
  187.2190  178.7370  137.3050 O   0  0  0  0  0  1  0  0  0  0  0  0
  186.9130  177.5550  137.9890 C   0  0  2  0  0  3  0  0  0  0  0  0
  188.3750  179.2880  139.7800 O   0  0  0  0  0  1  0  0  0  0  0  0
  184.2620  178.0210  137.4880 C   0  0  0  0  0  2  0  0  0  0  0  0
  185.4480  178.8520  139.5510 C   0  0  2  0  0  3  0  0  0  0  0  0
  185.5120  176.7070  137.1760 S   0  0  0  0  0  0  0  0  0  0  0  0
  182.2640  178.8730  141.3840 C   0  0  0  0  0  2  0  0  0  0  0  0
  182.4150  179.5080  142.7700 C   0  0  2  0  0  3  0  0  0  0  0  0
  184.0600  179.0470  143.3800 P   0  0  2  0  0  0  0  0  0  0  0  0
  183.4750  177.2960  139.7920 C   0  0  0  0  0  2  0  0  0  0  0  0
  184.8910  180.2740  143.6790 O   0  0  0  0  0  0  0  0  0  0  0  0
  184.6200  178.1820  141.8990 C   0  0  2  0  0  3  0  0  0  0  0  0
  189.8350  177.4240  140.7500 N   0  0  0  0  0  0  0  0  0  0  0  0
  188.0270  176.9160  142.4640 C   0  0  0  0  0  2  0  0  0  0  0  0
  191.6690  177.2850  143.8860 C   0  0  1  0  0  3  0  0  0  0  0  0
  190.9710  175.9390  144.0350 C   0  0  0  0  0  2  0  0  0  0  0  0
  190.6580  176.5760  141.6110 C   0  0  0  0  0  2  0  0  0  0  0  0
  189.0520  177.4900  143.4390 C   0  0  0  0  0  2  0  0  0  0  0  0
  190.4300  176.9590  143.0630 C   0  0  2  0  0  0  0  0  0  0  0  0
  188.3900  177.2000  140.9850 C   0  0  1  0  0  3  0  0  0  0  0  0
  190.1000  177.0320  139.4820 O   0  0  0  0  0  1  0  0  0  0  0  0
  191.3610  178.1510  145.0960 C   0  0  0  0  0  2  0  0  0  0  0  0
  191.3210  177.1070  146.5840 S   0  0  0  0  0  1  0  0  0  0  0  0
  181.2910  179.1340  143.7440 C   0  0  0  0  0  3  0  0  0  0  0  0
  180.6700  177.7760  143.4550 C   0  0  0  0  0  1  0  0  0  0  0  0
  180.2120  180.1990  143.7310 C   0  0  0  0  0  1  0  0  0  0  0  0
  184.5620  178.3150  145.9470 C   0  0  0  0  0  2  0  0  0  0  0  0
  184.0110  177.9500  144.7960 C   0  0  0  0  0  3  0  0  0  0  0  0
  1  5  1  1  0  0  0
  1 18  1  0  0  0  0
  2 16  1  6  0  0  0
  2 13  1  0  0  0  0
  2 18  1  0  0  0  0
  3 10  1  6  0  0  0
  3 11  1  0  0  0  0
  3 16  1  0  0  0  0
  4  9  1  6  0  0  0
  4 26  1  0  0  0  0
  4  5  1  0  0  0  0
  6 11  1  0  0  0  0
  6  4  1  0  0  0  0
  7  8  1  0  0  0  0
  8  6  1  0  0  0  0
 11  1  1  0  0  0  0
 12 10  1  0  0  0  0
 12  8  1  0  0  0  0
 13 14  1  0  0  0  0
 14 15  1  0  0  0  0
 14 30  1  0  0  0  0
 15 17  2  0  0  0  0
 15 34  1  0  0  0  0
 18 15  1  0  0  0  0
 19 26  1  0  0  0  0
 19 23  1  0  0  0  0
 20 24  1  0  0  0  0
 21 22  1  0  0  0  0
 21 28  1  0  0  0  0
 23 25  1  0  0  0  0
 25 24  1  0  0  0  0
 25 21  1  0  0  0  0
 25 22  1  0  0  0  0
 26 20  1  0  0  0  0
 27 19  1  0  0  0  0
 28 29  1  0  0  0  0
 31 30  1  0  0  0  0
 32 30  1  0  0  0  0
 34 33  2  0  0  0  0
M  END
>  <MODEL>
8

>  <REMARK>
 VINA RESULT:      -4.7      3.178      6.025
  Name = 
  4 active torsions:
  status: ('A' for Active; 'I' for Inactive)
    1  A    between atoms: C_3  and  C_25
    2  A    between atoms: C_7  and  C_11
    3  A    between atoms: C_8  and  C_30
    4  A    between atoms: P_27  and  C_29
                            x       y       z     vdW  Elec       q    Type
                         _______ _______ _______ _____ _____    ______ ____

>  <TORSDO>
F 4

$$$$
=
 OpenBabel10262423393D

 34 39  0  0  1  0  0  0  0  0999 V2000
  183.3450  175.1970  137.6660 C   0  0  1  0  0  3  0  0  0  0  0  0
  182.3890  174.2970  135.4370 C   0  0  1  0  0  3  0  0  0  0  0  0
  181.0430  175.9470  136.7360 C   0  0  2  0  0  3  0  0  0  0  0  0
  184.2870  177.2570  138.0190 C   0  0  1  0  0  0  0  0  0  0  0  0
  184.5220  175.8590  138.1070 O   0  0  0  0  0  0  0  0  0  0  0  0
  182.9920  177.4450  137.2460 C   0  0  2  0  0  3  0  0  0  0  0  0
  181.6410  178.8230  138.7080 O   0  0  0  0  0  1  0  0  0  0  0  0
  182.1850  178.7270  137.4220 C   0  0  2  0  0  3  0  0  0  0  0  0
  184.1500  177.7700  139.3120 O   0  0  0  0  0  1  0  0  0  0  0  0
  180.0740  177.1350  136.7110 C   0  0  0  0  0  2  0  0  0  0  0  0
  182.2360  176.2350  137.6420 C   0  0  2  0  0  3  0  0  0  0  0  0
  180.8470  178.7180  136.1760 S   0  0  0  0  0  0  0  0  0  0  0  0
  181.6560  173.0400  135.9210 C   0  0  0  0  0  2  0  0  0  0  0  0
  182.6940  171.9870  136.3210 C   0  0  2  0  0  3  0  0  0  0  0  0
  184.2630  172.8650  136.5620 P   0  0  2  0  0  0  0  0  0  0  0  0
  181.4750  175.5150  135.3450 C   0  0  0  0  0  2  0  0  0  0  0  0
  184.7870  172.6620  137.9660 O   0  0  0  0  0  0  0  0  0  0  0  0
  183.6350  174.5350  136.2980 C   0  0  2  0  0  3  0  0  0  0  0  0
  186.7360  177.7340  137.9970 N   0  0  0  0  0  0  0  0  0  0  0  0
  185.4830  177.5850  135.7890 C   0  0  0  0  0  2  0  0  0  0  0  0
  189.1910  176.2940  135.7350 C   0  0  1  0  0  3  0  0  0  0  0  0
  188.8320  177.4890  134.8610 C   0  0  0  0  0  2  0  0  0  0  0  0
  187.8810  178.0310  137.1370 C   0  0  0  0  0  2  0  0  0  0  0  0
  186.5540  176.5470  135.4670 C   0  0  0  0  0  2  0  0  0  0  0  0
  187.8970  177.0630  135.9670 C   0  0  2  0  0  0  0  0  0  0  0  0
  185.4520  177.9590  137.2930 C   0  0  1  0  0  3  0  0  0  0  0  0
  186.7960  178.6250  139.0140 O   0  0  0  0  0  1  0  0  0  0  0  0
  188.9810  175.0110  134.9490 C   0  0  0  0  0  2  0  0  0  0  0  0
  190.2320  173.7910  135.4490 S   0  0  0  0  0  1  0  0  0  0  0  0
  182.8070  170.8260  135.3260 C   0  0  0  0  0  3  0  0  0  0  0  0
  181.4710  170.4130  134.7260 C   0  0  0  0  0  1  0  0  0  0  0  0
  183.4570  169.6280  135.9900 C   0  0  0  0  0  1  0  0  0  0  0  0
  186.7270  172.0770  135.7360 C   0  0  0  0  0  2  0  0  0  0  0  0
  185.5100  172.4380  135.3480 C   0  0  0  0  0  3  0  0  0  0  0  0
  1  5  1  6  0  0  0
  2 16  1  1  0  0  0
  2 13  1  0  0  0  0
  2 18  1  0  0  0  0
  3 16  1  6  0  0  0
  3 11  1  0  0  0  0
  4  5  1  0  0  0  0
  4  9  1  1  0  0  0
  6  8  1  0  0  0  0
  6 11  1  0  0  0  0
  6  4  1  0  0  0  0
  8  7  1  0  0  0  0
 10  3  1  0  0  0  0
 11  1  1  0  0  0  0
 12 10  1  0  0  0  0
 12  8  1  0  0  0  0
 13 14  1  0  0  0  0
 14 15  1  0  0  0  0
 15 17  2  0  0  0  0
 18 15  1  0  0  0  0
 18  1  1  0  0  0  0
 19 27  1  0  0  0  0
 20 26  1  0  0  0  0
 21 25  1  0  0  0  0
 22 21  1  0  0  0  0
 22 25  1  0  0  0  0
 23 19  1  0  0  0  0
 24 20  1  0  0  0  0
 24 25  1  0  0  0  0
 25 23  1  0  0  0  0
 26 19  1  0  0  0  0
 26  4  1  0  0  0  0
 28 29  1  0  0  0  0
 28 21  1  0  0  0  0
 30 32  1  0  0  0  0
 30 14  1  0  0  0  0
 31 30  1  0  0  0  0
 34 33  2  0  0  0  0
 34 15  1  0  0  0  0
M  END
>  <MODEL>
9

>  <REMARK>
 VINA RESULT:      -4.7      5.335      7.837
  Name = 
  4 active torsions:
  status: ('A' for Active; 'I' for Inactive)
    1  A    between atoms: C_3  and  C_25
    2  A    between atoms: C_7  and  C_11
    3  A    between atoms: C_8  and  C_30
    4  A    between atoms: P_27  and  C_29
                            x       y       z     vdW  Elec       q    Type
                         _______ _______ _______ _____ _____    ______ ____

>  <TORSDO>
F 4

$$$$
