=
 OpenBabel10262419433D

 25 28  0  0  1  0  0  0  0  0999 V2000
  187.2370  178.1850  145.8290 C   0  0  0  0  0  0  0  0  0  0  0  0
  188.5230  177.7370  145.5040 C   0  0  0  0  0  0  0  0  0  0  0  0
  187.6260  177.7980  148.1900 C   0  0  0  0  0  3  0  0  0  0  0  0
  186.1920  178.7720  144.9410 C   0  0  2  0  0  3  0  0  0  0  0  0
  183.4810  178.8630  144.2040 C   0  0  0  0  0  3  0  0  0  0  0  0
  188.9120  177.3260  147.8860 C   0  0  0  0  0  3  0  0  0  0  0  0
  185.0890  178.9650  145.9450 C   0  0  0  0  0  0  0  0  0  0  0  0
  183.8410  179.0190  145.5890 N   0  0  0  0  0  0  0  0  0  0  0  0
  190.6700  176.8320  146.2420 C   0  0  0  0  0  0  0  0  0  0  0  0
  191.6090  176.3520  147.2970 C   0  0  0  0  0  1  0  0  0  0  0  0
  188.9780  177.7250  144.1810 C   0  0  0  0  0  3  0  0  0  0  0  0
  184.3570  178.3280  143.3390 C   0  0  0  0  0  3  0  0  0  0  0  0
  186.8120  178.2290  147.1460 C   0  0  0  0  0  0  0  0  0  0  0  0
  185.4900  178.7260  147.2910 N   0  0  0  0  0  2  0  0  0  0  0  0
  191.1030  176.8250  144.9120 C   0  0  0  0  0  3  0  0  0  0  0  0
  185.6920  177.8330  143.8410 C   0  0  0  0  0  2  0  0  0  0  0  0
  190.2620  177.2650  143.8860 C   0  0  0  0  0  0  0  0  0  0  0  0
  189.3740  177.2900  146.5520 C   0  0  0  0  0  0  0  0  0  0  0  0
  190.7490  177.2750  142.4800 C   0  0  0  0  0  2  0  0  0  0  0  0
  189.8090  176.5520  141.6270 N   0  0  0  0  0  2  0  0  0  0  0  0
  189.8450  177.0710  140.2580 C   0  0  2  0  0  3  0  0  0  0  0  0
  191.1890  177.4930  139.8830 N   0  0  0  0  0  1  0  0  0  0  0  0
  188.8440  178.1650  140.0410 C   0  0  0  0  0  0  0  0  0  0  0  0
  188.9750  179.0060  138.9430 O   0  0  0  0  0  0  0  0  0  0  0  0
  187.8660  178.3070  140.8220 O   0  0  0  0  0  1  0  0  0  0  0  0
  1 13  1  0  0  0  0
  2  1  2  0  0  0  0
  2 18  1  0  0  0  0
  4 16  1  6  0  0  0
  4  1  1  0  0  0  0
  4  7  1  0  0  0  0
  5  8  1  0  0  0  0
  6  3  1  0  0  0  0
  7 14  1  0  0  0  0
  8  7  2  0  0  0  0
  9 18  1  0  0  0  0
  9 10  1  0  0  0  0
 11  2  1  0  0  0  0
 12 16  1  0  0  0  0
 12  5  2  0  0  0  0
 13 14  1  0  0  0  0
 13  3  2  0  0  0  0
 15  9  2  0  0  0  0
 17 11  2  0  0  0  0
 17 15  1  0  0  0  0
 18  6  2  0  0  0  0
 19 17  1  0  0  0  0
 20 19  1  0  0  0  0
 21 22  1  1  0  0  0
 21 20  1  0  0  0  0
 23 21  1  0  0  0  0
 23 25  1  0  0  0  0
 24 23  2  0  0  0  0
M  END
>  <MODEL>
1

>  <REMARK>
 VINA RESULT:     -10.6      0.000      0.000
  Name = 
  4 active torsions:
  status: ('A' for Active; 'I' for Inactive)
    1  A    between atoms: C_2  and  C_21
    2  A    between atoms: C_6  and  N_15
    3  A    between atoms: C_6  and  C_23
    4  A    between atoms: N_15  and  C_21
                            x       y       z     vdW  Elec       q    Type
                         _______ _______ _______ _____ _____    ______ ____

>  <TORSDO>
F 4

$$$$
=
 OpenBabel10262419433D

 25 28  0  0  1  0  0  0  0  0999 V2000
  187.2810  178.1720  145.8410 C   0  0  0  0  0  0  0  0  0  0  0  0
  188.5740  177.7310  145.5350 C   0  0  0  0  0  0  0  0  0  0  0  0
  187.6300  177.7700  148.2050 C   0  0  0  0  0  3  0  0  0  0  0  0
  186.2500  178.7620  144.9390 C   0  0  2  0  0  3  0  0  0  0  0  0
  183.5520  178.8490  144.1540 C   0  0  0  0  0  3  0  0  0  0  0  0
  188.9220  177.3040  147.9220 C   0  0  0  0  0  3  0  0  0  0  0  0
  185.1290  178.9450  145.9240 C   0  0  0  0  0  0  0  0  0  0  0  0
  183.8870  178.9960  145.5460 N   0  0  0  0  0  0  0  0  0  0  0  0
  190.7110  176.8280  146.3050 C   0  0  0  0  0  0  0  0  0  0  0  0
  191.6320  176.3450  147.3740 C   0  0  0  0  0  1  0  0  0  0  0  0
  189.0530  177.7300  144.2210 C   0  0  0  0  0  3  0  0  0  0  0  0
  184.4460  178.3230  143.3010 C   0  0  0  0  0  3  0  0  0  0  0  0
  186.8330  178.2060  147.1500 C   0  0  0  0  0  0  0  0  0  0  0  0
  185.5060  178.6970  147.2760 N   0  0  0  0  0  2  0  0  0  0  0  0
  191.1680  176.8330  144.9830 C   0  0  0  0  0  3  0  0  0  0  0  0
  185.7730  177.8290  143.8230 C   0  0  0  0  0  2  0  0  0  0  0  0
  190.3440  177.2760  143.9450 C   0  0  0  0  0  0  0  0  0  0  0  0
  189.4080  177.2800  146.5960 C   0  0  0  0  0  0  0  0  0  0  0  0
  190.8550  177.2980  142.5490 C   0  0  0  0  0  2  0  0  0  0  0  0
  189.8460  176.7530  141.6440 N   0  0  0  0  0  2  0  0  0  0  0  0
  189.5910  177.6730  140.5340 C   0  0  2  0  0  3  0  0  0  0  0  0
  188.1950  178.0920  140.5000 N   0  0  0  0  0  1  0  0  0  0  0  0
  190.0280  177.1060  139.2180 C   0  0  0  0  0  0  0  0  0  0  0  0
  190.6360  175.8590  139.1780 O   0  0  0  0  0  1  0  0  0  0  0  0
  189.8160  177.7320  138.1450 O   0  0  0  0  0  0  0  0  0  0  0  0
  1 13  1  0  0  0  0
  2  1  2  0  0  0  0
  2 18  1  0  0  0  0
  4 16  1  6  0  0  0
  4  1  1  0  0  0  0
  4  7  1  0  0  0  0
  5  8  1  0  0  0  0
  6  3  1  0  0  0  0
  7 14  1  0  0  0  0
  8  7  2  0  0  0  0
  9 18  1  0  0  0  0
  9 10  1  0  0  0  0
 11  2  1  0  0  0  0
 12 16  1  0  0  0  0
 12  5  2  0  0  0  0
 13 14  1  0  0  0  0
 13  3  2  0  0  0  0
 15  9  2  0  0  0  0
 17 11  2  0  0  0  0
 17 15  1  0  0  0  0
 18  6  2  0  0  0  0
 19 17  1  0  0  0  0
 20 19  1  0  0  0  0
 21 22  1  6  0  0  0
 21 20  1  0  0  0  0
 23 21  1  0  0  0  0
 24 23  1  0  0  0  0
 25 23  2  0  0  0  0
M  END
>  <MODEL>
2

>  <REMARK>
 VINA RESULT:     -10.4      0.974      1.226
  Name = 
  4 active torsions:
  status: ('A' for Active; 'I' for Inactive)
    1  A    between atoms: C_2  and  C_21
    2  A    between atoms: C_6  and  N_15
    3  A    between atoms: C_6  and  C_23
    4  A    between atoms: N_15  and  C_21
                            x       y       z     vdW  Elec       q    Type
                         _______ _______ _______ _____ _____    ______ ____

>  <TORSDO>
F 4

$$$$
=
 OpenBabel10262419433D

 25 28  0  0  1  0  0  0  0  0999 V2000
  189.1320  177.0890  143.9950 C   0  0  0  0  0  0  0  0  0  0  0  0
  188.2680  177.4920  145.0210 C   0  0  0  0  0  0  0  0  0  0  0  0
  190.9310  176.6970  145.5710 C   0  0  0  0  0  3  0  0  0  0  0  0
  188.8470  176.9030  142.5430 C   0  0  2  0  0  3  0  0  0  0  0  0
  189.6850  177.2980  139.8890 C   0  0  0  0  0  3  0  0  0  0  0  0
  190.0900  177.1160  146.6130 C   0  0  0  0  0  3  0  0  0  0  0  0
  190.2190  176.5170  142.0640 C   0  0  0  0  0  0  0  0  0  0  0  0
  190.5890  176.6930  140.8310 N   0  0  0  0  0  0  0  0  0  0  0  0
  187.9050  177.9210  147.3990 C   0  0  0  0  0  0  0  0  0  0  0  0
  188.3620  177.9630  148.8180 C   0  0  0  0  0  1  0  0  0  0  0  0
  186.9460  177.8640  144.7560 C   0  0  0  0  0  3  0  0  0  0  0  0
  188.6200  177.9870  140.3280 C   0  0  0  0  0  3  0  0  0  0  0  0
  190.4260  176.6840  144.2730 C   0  0  0  0  0  0  0  0  0  0  0  0
  191.1530  176.2940  143.1170 N   0  0  0  0  0  2  0  0  0  0  0  0
  186.5880  178.2920  147.1120 C   0  0  0  0  0  3  0  0  0  0  0  0
  188.4140  178.1760  141.8110 C   0  0  0  0  0  2  0  0  0  0  0  0
  186.1110  178.2700  145.7980 C   0  0  0  0  0  0  0  0  0  0  0  0
  188.7600  177.5140  146.3550 C   0  0  0  0  0  0  0  0  0  0  0  0
  184.7000  178.6440  145.5140 C   0  0  0  0  0  2  0  0  0  0  0  0
  184.6640  179.7610  144.5740 N   0  0  0  0  0  2  0  0  0  0  0  0
  183.7150  179.4990  143.4900 C   0  0  2  0  0  3  0  0  0  0  0  0
  182.6080  178.6650  143.9420 N   0  0  0  0  0  1  0  0  0  0  0  0
  184.3830  178.9190  142.2810 C   0  0  0  0  0  0  0  0  0  0  0  0
  185.4070  179.6230  141.6610 O   0  0  0  0  0  0  0  0  0  0  0  0
  184.0520  177.7850  141.8440 O   0  0  0  0  0  1  0  0  0  0  0  0
  1 13  2  0  0  0  0
  1  2  1  0  0  0  0
  2 18  1  0  0  0  0
  3  6  2  0  0  0  0
  4 16  1  6  0  0  0
  4  1  1  0  0  0  0
  5 12  2  0  0  0  0
  5  8  1  0  0  0  0
  7  4  1  0  0  0  0
  7 14  1  0  0  0  0
  8  7  2  0  0  0  0
  9 10  1  0  0  0  0
 11  2  2  0  0  0  0
 11 17  1  0  0  0  0
 12 16  1  0  0  0  0
 13  3  1  0  0  0  0
 14 13  1  0  0  0  0
 15  9  1  0  0  0  0
 17 15  2  0  0  0  0
 18  6  1  0  0  0  0
 18  9  2  0  0  0  0
 19 17  1  0  0  0  0
 20 19  1  0  0  0  0
 21 22  1  1  0  0  0
 21 20  1  0  0  0  0
 23 21  1  0  0  0  0
 24 23  2  0  0  0  0
 25 23  1  0  0  0  0
M  END
>  <MODEL>
3

>  <REMARK>
 VINA RESULT:     -10.0      1.563      5.388
  Name = 
  4 active torsions:
  status: ('A' for Active; 'I' for Inactive)
    1  A    between atoms: C_2  and  C_21
    2  A    between atoms: C_6  and  N_15
    3  A    between atoms: C_6  and  C_23
    4  A    between atoms: N_15  and  C_21
                            x       y       z     vdW  Elec       q    Type
                         _______ _______ _______ _____ _____    ______ ____

>  <TORSDO>
F 4

$$$$
=
 OpenBabel10262419433D

 25 28  0  0  1  0  0  0  0  0999 V2000
  187.6880  177.5820  145.6030 C   0  0  0  0  0  0  0  0  0  0  0  0
  186.8180  178.0100  144.5930 C   0  0  0  0  0  0  0  0  0  0  0  0
  186.0790  178.1490  147.3240 C   0  0  0  0  0  3  0  0  0  0  0  0
  189.0210  176.9240  145.4810 C   0  0  2  0  0  3  0  0  0  0  0  0
  191.6810  176.7640  146.3750 C   0  0  0  0  0  3  0  0  0  0  0  0
  185.1980  178.6030  146.3310 C   0  0  0  0  0  3  0  0  0  0  0  0
  189.3760  176.8020  146.9370 C   0  0  0  0  0  0  0  0  0  0  0  0
  190.6100  176.7160  147.3360 N   0  0  0  0  0  0  0  0  0  0  0  0
  184.6650  178.9780  143.9620 C   0  0  0  0  0  0  0  0  0  0  0  0
  183.3230  179.5410  144.2890 C   0  0  0  0  0  1  0  0  0  0  0  0
  187.1700  177.9230  143.2420 C   0  0  0  0  0  3  0  0  0  0  0  0
  191.4540  177.2350  145.1400 C   0  0  0  0  0  3  0  0  0  0  0  0
  187.3130  177.6350  146.9340 C   0  0  0  0  0  0  0  0  0  0  0  0
  188.3110  177.1460  147.8180 N   0  0  0  0  0  2  0  0  0  0  0  0
  185.0380  178.8850  142.6170 C   0  0  0  0  0  3  0  0  0  0  0  0
  190.0880  177.7730  144.7870 C   0  0  0  0  0  2  0  0  0  0  0  0
  186.2850  178.3650  142.2580 C   0  0  0  0  0  0  0  0  0  0  0  0
  185.5520  178.5390  144.9650 C   0  0  0  0  0  0  0  0  0  0  0  0
  186.6550  178.2500  140.8220 C   0  0  0  0  0  2  0  0  0  0  0  0
  188.0340  178.6920  140.6300 N   0  0  0  0  0  2  0  0  0  0  0  0
  188.8260  177.6530  139.9680 C   0  0  2  0  0  3  0  0  0  0  0  0
  189.8680  177.1360  140.8470 N   0  0  0  0  0  1  0  0  0  0  0  0
  189.3900  178.1190  138.6600 C   0  0  0  0  0  0  0  0  0  0  0  0
  189.0550  179.3780  138.1800 O   0  0  0  0  0  1  0  0  0  0  0  0
  190.1930  177.3980  138.0120 O   0  0  0  0  0  0  0  0  0  0  0  0
  1 13  1  0  0  0  0
  2 18  1  0  0  0  0
  2  1  2  0  0  0  0
  4 16  1  6  0  0  0
  4  1  1  0  0  0  0
  4  7  1  0  0  0  0
  5  8  1  0  0  0  0
  6  3  1  0  0  0  0
  7  8  2  0  0  0  0
  7 14  1  0  0  0  0
  9 10  1  0  0  0  0
  9 18  1  0  0  0  0
 11  2  1  0  0  0  0
 12  5  2  0  0  0  0
 13  3  2  0  0  0  0
 13 14  1  0  0  0  0
 15  9  2  0  0  0  0
 16 12  1  0  0  0  0
 17 15  1  0  0  0  0
 17 11  2  0  0  0  0
 18  6  2  0  0  0  0
 19 17  1  0  0  0  0
 20 19  1  0  0  0  0
 21 20  1  0  0  0  0
 21 22  1  1  0  0  0
 23 21  1  0  0  0  0
 24 23  1  0  0  0  0
 25 23  2  0  0  0  0
M  END
>  <MODEL>
4

>  <REMARK>
 VINA RESULT:      -9.8      1.789      4.696
  Name = 
  4 active torsions:
  status: ('A' for Active; 'I' for Inactive)
    1  A    between atoms: C_2  and  C_21
    2  A    between atoms: C_6  and  N_15
    3  A    between atoms: C_6  and  C_23
    4  A    between atoms: N_15  and  C_21
                            x       y       z     vdW  Elec       q    Type
                         _______ _______ _______ _____ _____    ______ ____

>  <TORSDO>
F 4

$$$$
=
 OpenBabel10262419433D

 25 28  0  0  1  0  0  0  0  0999 V2000
  185.7330  178.4660  144.5630 C   0  0  0  0  0  0  0  0  0  0  0  0
  187.0740  178.0620  144.5770 C   0  0  0  0  0  0  0  0  0  0  0  0
  185.5840  178.2890  146.9750 C   0  0  0  0  0  3  0  0  0  0  0  0
  184.9010  178.9250  143.4130 C   0  0  2  0  0  3  0  0  0  0  0  0
  182.4290  178.8160  142.0780 C   0  0  0  0  0  3  0  0  0  0  0  0
  186.9190  177.8620  147.0120 C   0  0  0  0  0  3  0  0  0  0  0  0
  183.5920  179.1400  144.1210 C   0  0  0  0  0  0  0  0  0  0  0  0
  182.4570  179.1000  143.4890 N   0  0  0  0  0  0  0  0  0  0  0  0
  189.0230  177.3320  145.8570 C   0  0  0  0  0  0  0  0  0  0  0  0
  189.7100  176.9880  147.1360 C   0  0  0  0  0  1  0  0  0  0  0  0
  187.8200  177.9690  143.3970 C   0  0  0  0  0  3  0  0  0  0  0  0
  183.4970  178.2600  141.4850 C   0  0  0  0  0  3  0  0  0  0  0  0
  185.0170  178.5930  145.7400 C   0  0  0  0  0  0  0  0  0  0  0  0
  183.6810  179.0300  145.5390 N   0  0  0  0  0  2  0  0  0  0  0  0
  189.7490  177.2420  144.6660 C   0  0  0  0  0  3  0  0  0  0  0  0
  184.6970  177.8770  142.3170 C   0  0  0  0  0  2  0  0  0  0  0  0
  189.1520  177.5540  143.4410 C   0  0  0  0  0  0  0  0  0  0  0  0
  187.6760  177.7450  145.8250 C   0  0  0  0  0  0  0  0  0  0  0  0
  189.9470  177.4780  142.1870 C   0  0  0  0  0  2  0  0  0  0  0  0
  189.0700  177.1490  141.0650 N   0  0  0  0  0  2  0  0  0  0  0  0
  189.4470  177.9080  139.8700 C   0  0  2  0  0  3  0  0  0  0  0  0
  188.3050  178.6210  139.3110 N   0  0  0  0  0  1  0  0  0  0  0  0
  190.1170  177.0480  138.8420 C   0  0  0  0  0  0  0  0  0  0  0  0
  190.3180  177.5450  137.5610 O   0  0  0  0  0  0  0  0  0  0  0  0
  190.5320  175.8970  139.1370 O   0  0  0  0  0  1  0  0  0  0  0  0
  1  2  2  0  0  0  0
  1 13  1  0  0  0  0
  2 18  1  0  0  0  0
  3  6  1  0  0  0  0
  4 16  1  6  0  0  0
  4  7  1  0  0  0  0
  4  1  1  0  0  0  0
  5  8  1  0  0  0  0
  7 14  1  0  0  0  0
  8  7  2  0  0  0  0
  9 10  1  0  0  0  0
 11 17  2  0  0  0  0
 11  2  1  0  0  0  0
 12  5  2  0  0  0  0
 12 16  1  0  0  0  0
 13  3  2  0  0  0  0
 14 13  1  0  0  0  0
 15  9  2  0  0  0  0
 17 15  1  0  0  0  0
 18  9  1  0  0  0  0
 18  6  2  0  0  0  0
 19 17  1  0  0  0  0
 20 19  1  0  0  0  0
 21 22  1  6  0  0  0
 21 20  1  0  0  0  0
 23 25  1  0  0  0  0
 23 21  1  0  0  0  0
 24 23  2  0  0  0  0
M  END
>  <MODEL>
5

>  <REMARK>
 VINA RESULT:      -9.6      1.541      2.135
  Name = 
  4 active torsions:
  status: ('A' for Active; 'I' for Inactive)
    1  A    between atoms: C_2  and  C_21
    2  A    between atoms: C_6  and  N_15
    3  A    between atoms: C_6  and  C_23
    4  A    between atoms: N_15  and  C_21
                            x       y       z     vdW  Elec       q    Type
                         _______ _______ _______ _____ _____    ______ ____

>  <TORSDO>
F 4

$$$$
=
 OpenBabel10262419433D

 25 28  0  0  1  0  0  0  0  0999 V2000
  188.3190  177.3040  143.4120 C   0  0  0  0  0  0  0  0  0  0  0  0
  187.0890  177.7600  143.9000 C   0  0  0  0  0  0  0  0  0  0  0  0
  189.2410  177.1850  145.6500 C   0  0  0  0  0  3  0  0  0  0  0  0
  188.7050  176.9520  142.0150 C   0  0  2  0  0  3  0  0  0  0  0  0
  190.6250  177.1170  139.9680 C   0  0  0  0  0  3  0  0  0  0  0  0
  188.0240  177.6590  146.1610 C   0  0  0  0  0  3  0  0  0  0  0  0
  190.1500  176.5990  142.2340 C   0  0  0  0  0  0  0  0  0  0  0  0
  191.0250  176.6680  141.2760 N   0  0  0  0  0  0  0  0  0  0  0  0
  185.7110  178.4120  145.8100 C   0  0  0  0  0  0  0  0  0  0  0  0
  185.4950  178.6290  147.2710 C   0  0  0  0  0  1  0  0  0  0  0  0
  186.0160  178.0250  143.0420 C   0  0  0  0  0  3  0  0  0  0  0  0
  189.4710  177.7840  139.8120 C   0  0  0  0  0  3  0  0  0  0  0  0
  189.3600  177.0070  144.2740 C   0  0  0  0  0  0  0  0  0  0  0  0
  190.5250  176.5430  143.6080 N   0  0  0  0  0  2  0  0  0  0  0  0
  184.6530  178.6740  144.9340 C   0  0  0  0  0  3  0  0  0  0  0  0
  188.6310  178.1150  141.0220 C   0  0  0  0  0  2  0  0  0  0  0  0
  184.8040  178.4870  143.5570 C   0  0  0  0  0  0  0  0  0  0  0  0
  186.9410  177.9500  145.3020 C   0  0  0  0  0  0  0  0  0  0  0  0
  183.6610  178.7460  142.6430 C   0  0  0  0  0  2  0  0  0  0  0  0
  183.8020  177.9390  141.4330 N   0  0  0  0  0  2  0  0  0  0  0  0
  183.2760  178.6520  140.2670 C   0  0  2  0  0  3  0  0  0  0  0  0
  182.5270  177.7600  139.3910 N   0  0  0  0  0  1  0  0  0  0  0  0
  184.3490  179.3850  139.5210 C   0  0  0  0  0  0  0  0  0  0  0  0
  185.6160  178.8260  139.4200 O   0  0  0  0  0  1  0  0  0  0  0  0
  184.1040  180.4810  138.9520 O   0  0  0  0  0  0  0  0  0  0  0  0
  1  2  2  0  0  0  0
  1 13  1  0  0  0  0
  2 18  1  0  0  0  0
  3  6  1  0  0  0  0
  4 16  1  6  0  0  0
  4  7  1  0  0  0  0
  4  1  1  0  0  0  0
  5  8  1  0  0  0  0
  7 14  1  0  0  0  0
  8  7  2  0  0  0  0
  9 10  1  0  0  0  0
 11 17  2  0  0  0  0
 11  2  1  0  0  0  0
 12  5  2  0  0  0  0
 12 16  1  0  0  0  0
 13  3  2  0  0  0  0
 14 13  1  0  0  0  0
 15  9  2  0  0  0  0
 17 15  1  0  0  0  0
 18  9  1  0  0  0  0
 18  6  2  0  0  0  0
 19 17  1  0  0  0  0
 20 19  1  0  0  0  0
 21 22  1  6  0  0  0
 21 20  1  0  0  0  0
 23 21  1  0  0  0  0
 24 23  1  0  0  0  0
 25 23  2  0  0  0  0
M  END
>  <MODEL>
6

>  <REMARK>
 VINA RESULT:      -9.6      2.381      5.599
  Name = 
  4 active torsions:
  status: ('A' for Active; 'I' for Inactive)
    1  A    between atoms: C_2  and  C_21
    2  A    between atoms: C_6  and  N_15
    3  A    between atoms: C_6  and  C_23
    4  A    between atoms: N_15  and  C_21
                            x       y       z     vdW  Elec       q    Type
                         _______ _______ _______ _____ _____    ______ ____

>  <TORSDO>
F 4

$$$$
=
 OpenBabel10262419433D

 25 28  0  0  1  0  0  0  0  0999 V2000
  187.9670  177.4570  143.1530 C   0  0  0  0  0  0  0  0  0  0  0  0
  186.7410  177.8510  143.7030 C   0  0  0  0  0  0  0  0  0  0  0  0
  188.9650  177.2530  145.3510 C   0  0  0  0  0  3  0  0  0  0  0  0
  188.3160  177.1870  141.7280 C   0  0  2  0  0  3  0  0  0  0  0  0
  190.1610  177.5120  139.6320 C   0  0  0  0  0  3  0  0  0  0  0  0
  187.7540  177.6650  145.9250 C   0  0  0  0  0  3  0  0  0  0  0  0
  189.7770  176.8670  141.8830 C   0  0  0  0  0  0  0  0  0  0  0  0
  190.6170  177.0100  140.9020 N   0  0  0  0  0  0  0  0  0  0  0  0
  185.4100  178.3650  145.6870 C   0  0  0  0  0  0  0  0  0  0  0  0
  185.2360  178.5020  147.1620 C   0  0  0  0  0  1  0  0  0  0  0  0
  185.6330  178.1270  142.8940 C   0  0  0  0  0  3  0  0  0  0  0  0
  188.9840  178.1510  139.5470 C   0  0  0  0  0  3  0  0  0  0  0  0
  189.0440  177.1490  143.9650 C   0  0  0  0  0  0  0  0  0  0  0  0
  190.1990  176.7530  143.2390 N   0  0  0  0  0  2  0  0  0  0  0  0
  184.3160  178.6390  144.8590 C   0  0  0  0  0  3  0  0  0  0  0  0
  188.1760  178.3950  140.7980 C   0  0  0  0  0  2  0  0  0  0  0  0
  184.4270  178.5250  143.4700 C   0  0  0  0  0  0  0  0  0  0  0  0
  186.6350  177.9660  145.1160 C   0  0  0  0  0  0  0  0  0  0  0  0
  183.2460  178.7960  142.6070 C   0  0  0  0  0  2  0  0  0  0  0  0
  182.1240  179.2420  143.4300 N   0  0  0  0  0  2  0  0  0  0  0  0
  180.8860  179.2740  142.6480 C   0  0  2  0  0  3  0  0  0  0  0  0
  180.2060  180.5570  142.7800 N   0  0  0  0  0  1  0  0  0  0  0  0
  179.9760  178.1320  142.9820 C   0  0  0  0  0  0  0  0  0  0  0  0
  179.6360  177.8930  144.3070 O   0  0  0  0  0  1  0  0  0  0  0  0
  179.4870  177.4100  142.0730 O   0  0  0  0  0  0  0  0  0  0  0  0
  1  2  2  0  0  0  0
  1 13  1  0  0  0  0
  2 18  1  0  0  0  0
  3  6  1  0  0  0  0
  4 16  1  6  0  0  0
  4  7  1  0  0  0  0
  4  1  1  0  0  0  0
  5  8  1  0  0  0  0
  7 14  1  0  0  0  0
  8  7  2  0  0  0  0
  9 10  1  0  0  0  0
 11 17  2  0  0  0  0
 11  2  1  0  0  0  0
 12  5  2  0  0  0  0
 12 16  1  0  0  0  0
 13  3  2  0  0  0  0
 14 13  1  0  0  0  0
 15  9  2  0  0  0  0
 17 15  1  0  0  0  0
 18  9  1  0  0  0  0
 18  6  2  0  0  0  0
 19 20  1  0  0  0  0
 19 17  1  0  0  0  0
 21 22  1  1  0  0  0
 21 23  1  0  0  0  0
 21 20  1  0  0  0  0
 23 24  1  0  0  0  0
 25 23  2  0  0  0  0
M  END
>  <MODEL>
7

>  <REMARK>
 VINA RESULT:      -9.4      3.200      6.806
  Name = 
  4 active torsions:
  status: ('A' for Active; 'I' for Inactive)
    1  A    between atoms: C_2  and  C_21
    2  A    between atoms: C_6  and  N_15
    3  A    between atoms: C_6  and  C_23
    4  A    between atoms: N_15  and  C_21
                            x       y       z     vdW  Elec       q    Type
                         _______ _______ _______ _____ _____    ______ ____

>  <TORSDO>
F 4

$$$$
=
 OpenBabel10262419433D

 25 28  0  0  1  0  0  0  0  0999 V2000
  187.6530  177.5790  145.6530 C   0  0  0  0  0  0  0  0  0  0  0  0
  186.7030  177.9990  144.7150 C   0  0  0  0  0  0  0  0  0  0  0  0
  186.1240  177.9920  147.4880 C   0  0  0  0  0  3  0  0  0  0  0  0
  189.0090  177.0000  145.4250 C   0  0  2  0  0  3  0  0  0  0  0  0
  191.7230  176.9480  146.1560 C   0  0  0  0  0  3  0  0  0  0  0  0
  185.1630  178.4360  146.5680 C   0  0  0  0  0  3  0  0  0  0  0  0
  189.4570  176.8400  146.8510 C   0  0  0  0  0  0  0  0  0  0  0  0
  190.7150  176.8050  147.1740 N   0  0  0  0  0  0  0  0  0  0  0  0
  184.4690  178.8750  144.2520 C   0  0  0  0  0  0  0  0  0  0  0  0
  183.1220  179.3510  144.6810 C   0  0  0  0  0  1  0  0  0  0  0  0
  186.9760  177.9840  143.3430 C   0  0  0  0  0  3  0  0  0  0  0  0
  191.3970  177.4550  144.9560 C   0  0  0  0  0  3  0  0  0  0  0  0
  187.3570  177.5610  147.0050 C   0  0  0  0  0  0  0  0  0  0  0  0
  188.4310  177.0910  147.8080 N   0  0  0  0  0  2  0  0  0  0  0  0
  184.7640  178.8550  142.8850 C   0  0  0  0  0  3  0  0  0  0  0  0
  189.9870  177.9320  144.7070 C   0  0  0  0  0  2  0  0  0  0  0  0
  186.0120  178.4170  142.4320 C   0  0  0  0  0  0  0  0  0  0  0  0
  185.4360  178.4440  145.1820 C   0  0  0  0  0  0  0  0  0  0  0  0
  186.3000  178.3790  140.9730 C   0  0  0  0  0  2  0  0  0  0  0  0
  185.4480  179.3390  140.2760 N   0  0  0  0  0  2  0  0  0  0  0  0
  184.8050  178.7170  139.1160 C   0  0  2  0  0  3  0  0  0  0  0  0
  185.7070  178.6630  137.9720 N   0  0  0  0  0  1  0  0  0  0  0  0
  183.5080  179.3810  138.7640 C   0  0  0  0  0  0  0  0  0  0  0  0
  182.4290  178.6060  138.3610 O   0  0  0  0  0  0  0  0  0  0  0  0
  183.3760  180.6290  138.8660 O   0  0  0  0  0  1  0  0  0  0  0  0
  1 13  1  0  0  0  0
  2 18  1  0  0  0  0
  2  1  2  0  0  0  0
  4 16  1  6  0  0  0
  4  1  1  0  0  0  0
  4  7  1  0  0  0  0
  5  8  1  0  0  0  0
  6  3  1  0  0  0  0
  7  8  2  0  0  0  0
  7 14  1  0  0  0  0
  9 10  1  0  0  0  0
  9 18  1  0  0  0  0
 11  2  1  0  0  0  0
 12  5  2  0  0  0  0
 13  3  2  0  0  0  0
 13 14  1  0  0  0  0
 15  9  2  0  0  0  0
 16 12  1  0  0  0  0
 17 15  1  0  0  0  0
 17 11  2  0  0  0  0
 18  6  2  0  0  0  0
 19 17  1  0  0  0  0
 20 19  1  0  0  0  0
 21 22  1  6  0  0  0
 21 20  1  0  0  0  0
 23 25  1  0  0  0  0
 23 21  1  0  0  0  0
 24 23  2  0  0  0  0
M  END
>  <MODEL>
8

>  <REMARK>
 VINA RESULT:      -9.4      3.055      5.379
  Name = 
  4 active torsions:
  status: ('A' for Active; 'I' for Inactive)
    1  A    between atoms: C_2  and  C_21
    2  A    between atoms: C_6  and  N_15
    3  A    between atoms: C_6  and  C_23
    4  A    between atoms: N_15  and  C_21
                            x       y       z     vdW  Elec       q    Type
                         _______ _______ _______ _____ _____    ______ ____

>  <TORSDO>
F 4

$$$$
=
 OpenBabel10262419433D

 25 28  0  0  1  0  0  0  0  0999 V2000
  187.4660  178.2230  142.3250 C   0  0  0  0  0  0  0  0  0  0  0  0
  187.0490  178.1380  143.6590 C   0  0  0  0  0  0  0  0  0  0  0  0
  185.2530  178.9010  141.6060 C   0  0  0  0  0  3  0  0  0  0  0  0
  188.8330  178.0520  141.7530 C   0  0  2  0  0  3  0  0  0  0  0  0
  190.4370  176.9570  139.7210 C   0  0  0  0  0  3  0  0  0  0  0  0
  184.8070  178.8040  142.9320 C   0  0  0  0  0  3  0  0  0  0  0  0
  188.5190  178.2310  140.2940 C   0  0  0  0  0  0  0  0  0  0  0  0
  189.2760  177.7300  139.3640 N   0  0  0  0  0  0  0  0  0  0  0  0
  185.2540  178.3420  145.3040 C   0  0  0  0  0  0  0  0  0  0  0  0
  183.8420  178.6340  145.6900 C   0  0  0  0  0  1  0  0  0  0  0  0
  187.9370  177.7830  144.6790 C   0  0  0  0  0  3  0  0  0  0  0  0
  190.5560  176.4590  140.9620 C   0  0  0  0  0  3  0  0  0  0  0  0
  186.5870  178.6140  141.3290 C   0  0  0  0  0  0  0  0  0  0  0  0
  187.1840  178.6610  140.0420 N   0  0  0  0  0  2  0  0  0  0  0  0
  186.1580  177.9820  146.3080 C   0  0  0  0  0  3  0  0  0  0  0  0
  189.4380  176.6610  141.9560 C   0  0  0  0  0  2  0  0  0  0  0  0
  187.4910  177.6990  145.9990 C   0  0  0  0  0  0  0  0  0  0  0  0
  185.6910  178.4270  143.9670 C   0  0  0  0  0  0  0  0  0  0  0  0
  188.4450  177.3420  147.0830 C   0  0  0  0  0  2  0  0  0  0  0  0
  189.7720  177.8640  146.7660 N   0  0  0  0  0  2  0  0  0  0  0  0
  190.7360  176.7730  146.6060 C   0  0  2  0  0  3  0  0  0  0  0  0
  191.6990  176.7490  147.7000 N   0  0  0  0  0  1  0  0  0  0  0  0
  191.4180  176.8130  145.2720 C   0  0  0  0  0  0  0  0  0  0  0  0
  191.8370  175.6270  144.6830 O   0  0  0  0  0  1  0  0  0  0  0  0
  191.5820  177.9030  144.6650 O   0  0  0  0  0  0  0  0  0  0  0  0
  1  2  1  0  0  0  0
  2 18  2  0  0  0  0
  2 11  1  0  0  0  0
  3  6  2  0  0  0  0
  4 16  1  6  0  0  0
  4  1  1  0  0  0  0
  5 12  2  0  0  0  0
  6 18  1  0  0  0  0
  7  4  1  0  0  0  0
  8  5  1  0  0  0  0
  8  7  2  0  0  0  0
  9 10  1  0  0  0  0
  9 15  2  0  0  0  0
 11 17  2  0  0  0  0
 12 16  1  0  0  0  0
 13  3  1  0  0  0  0
 13  1  2  0  0  0  0
 14  7  1  0  0  0  0
 14 13  1  0  0  0  0
 17 15  1  0  0  0  0
 17 19  1  0  0  0  0
 18  9  1  0  0  0  0
 20 19  1  0  0  0  0
 21 20  1  0  0  0  0
 21 22  1  1  0  0  0
 23 21  1  0  0  0  0
 24 23  1  0  0  0  0
 25 23  2  0  0  0  0
M  END
>  <MODEL>
9

>  <REMARK>
 VINA RESULT:      -9.3      2.666      6.034
  Name = 
  4 active torsions:
  status: ('A' for Active; 'I' for Inactive)
    1  A    between atoms: C_2  and  C_21
    2  A    between atoms: C_6  and  N_15
    3  A    between atoms: C_6  and  C_23
    4  A    between atoms: N_15  and  C_21
                            x       y       z     vdW  Elec       q    Type
                         _______ _______ _______ _____ _____    ______ ____

>  <TORSDO>
F 4

$$$$
