=
 OpenBabel10262422013D

 30 30  0  0  1  0  0  0  0  0999 V2000
  188.2460  178.4540  139.8340 C   0  0  0  0  0  0  0  0  0  0  0  0
  184.9980  177.8010  138.6190 C   0  0  0  0  0  2  0  0  0  0  0  0
  184.6580  178.7150  139.7960 C   0  0  1  0  0  3  0  0  0  0  0  0
  187.6450  177.3620  139.2080 O   0  0  0  0  0  0  0  0  0  0  0  0
  188.9210  179.2830  139.1680 O   0  0  0  0  0  0  0  0  0  0  0  0
  186.0330  178.3290  137.8190 O   0  0  0  0  0  0  0  0  0  0  0  0
  187.1510  177.4660  137.8790 C   0  0  2  0  0  3  0  0  0  0  0  0
  187.9740  178.7180  141.2790 C   0  0  1  0  0  3  0  0  0  0  0  0
  185.4510  178.3510  141.0600 C   0  0  1  0  0  3  0  0  0  0  0  0
  184.7680  180.0660  139.4540 O   0  0  0  0  0  1  0  0  0  0  0  0
  186.8750  176.0910  137.2830 C   0  0  0  0  0  1  0  0  0  0  0  0
  186.5750  179.3320  141.4220 C   0  0  0  0  0  2  0  0  0  0  0  0
  188.1800  177.4700  142.1540 C   0  0  1  0  0  3  0  0  0  0  0  0
  189.3620  176.6470  141.6510 C   0  0  0  0  0  1  0  0  0  0  0  0
  188.3410  177.8380  143.6370 C   0  0  1  0  0  3  0  0  0  0  0  0
  187.3320  177.1250  144.5360 C   0  0  0  0  0  2  0  0  0  0  0  0
  186.2880  178.0730  145.1040 C   0  0  0  0  0  2  0  0  0  0  0  0
  185.3680  178.8420  146.8800 O   0  0  0  0  0  1  0  0  0  0  0  0
  186.3240  178.0240  146.4960 O   0  0  0  0  0  0  0  0  0  0  0  0
  189.6570  177.6590  144.0900 O   0  0  0  0  0  0  0  0  0  0  0  0
  189.5340  177.0990  145.3190 N   0  0  0  0  0  2  0  0  0  0  0  0
  191.8070  177.2930  145.8070 O   0  0  0  0  0  0  0  0  0  0  0  0
  190.4760  176.4480  147.4690 O   0  0  0  0  0  1  0  0  0  0  0  0
  190.6550  176.9600  146.1900 C   0  0  0  0  0  0  0  0  0  0  0  0
  184.5320  178.0740  142.2510 C   0  0  0  0  0  2  0  0  0  0  0  0
  182.3550  178.8480  143.1310 C   0  0  0  0  0  3  0  0  0  0  0  0
  183.1530  178.6400  142.0800 C   0  0  0  0  0  3  0  0  0  0  0  0
  180.9700  179.4030  142.9860 C   0  0  0  0  0  3  0  0  0  0  0  0
  180.0050  178.7240  143.9410 C   0  0  0  0  0  1  0  0  0  0  0  0
  180.4710  179.2710  141.5580 C   0  0  0  0  0  1  0  0  0  0  0  0
  1  8  1  0  0  0  0
  2  3  1  0  0  0  0
  3 10  1  6  0  0  0
  3  9  1  0  0  0  0
  4  1  1  0  0  0  0
  5  1  2  0  0  0  0
  6  7  1  0  0  0  0
  6  2  1  0  0  0  0
  7 11  1  1  0  0  0
  7  4  1  0  0  0  0
  8 12  1  0  0  0  0
  8 13  1  1  0  0  0
  9 12  1  0  0  0  0
  9 25  1  1  0  0  0
 13 14  1  6  0  0  0
 13 15  1  0  0  0  0
 15 20  1  0  0  0  0
 15 16  1  1  0  0  0
 16 17  1  0  0  0  0
 17 19  1  0  0  0  0
 19 18  1  0  0  0  0
 20 21  1  0  0  0  0
 21 24  1  0  0  0  0
 22 24  2  0  0  0  0
 24 23  1  0  0  0  0
 27 25  1  0  0  0  0
 27 26  2  0  0  0  0
 28 26  1  0  0  0  0
 28 29  1  0  0  0  0
 30 28  1  0  0  0  0
M  END
>  <MODEL>
1

>  <REMARK>
 VINA RESULT:      -7.1      0.000      0.000
  Name = 
  10 active torsions:
  status: ('A' for Active; 'I' for Inactive)
    1  A    between atoms: C_1  and  C_4
    2  A    between atoms: C_1  and  C_22
    3  A    between atoms: C_4  and  C_9
    4  A    between atoms: C_4  and  O_12
    5  A    between atoms: C_7  and  C_23
    6  A    between atoms: C_7  and  C_25
    7  A    between atoms: N_8  and  O_12
    8  A    between atoms: C_9  and  C_21
    9  A    between atoms: C_10  and  C_15
   10  A    between atoms: O_17  and  C_21
                            x       y       z     vdW  Elec       q    Type
                         _______ _______ _______ _____ _____    ______ ____

>  <TORSDO>
F 10

$$$$
=
 OpenBabel10262422013D

 30 30  0  0  1  0  0  0  0  0999 V2000
  191.3900  177.7420  142.3450 C   0  0  0  0  0  0  0  0  0  0  0  0
  188.7800  177.2610  140.0200 C   0  0  0  0  0  2  0  0  0  0  0  0
  187.9880  177.8590  141.1820 C   0  0  1  0  0  3  0  0  0  0  0  0
  191.1430  176.8030  141.3440 O   0  0  0  0  0  0  0  0  0  0  0  0
  192.1400  178.7300  142.1260 O   0  0  0  0  0  0  0  0  0  0  0  0
  189.9450  178.0020  139.7340 O   0  0  0  0  0  0  0  0  0  0  0  0
  191.0800  177.1950  139.9790 C   0  0  2  0  0  3  0  0  0  0  0  0
  190.6520  177.6500  143.6410 C   0  0  1  0  0  3  0  0  0  0  0  0
  188.3830  177.2430  142.5320 C   0  0  1  0  0  3  0  0  0  0  0  0
  188.0440  179.2570  141.1840 O   0  0  0  0  0  1  0  0  0  0  0  0
  191.1620  175.9870  139.0530 C   0  0  0  0  0  1  0  0  0  0  0  0
  189.2190  178.1560  143.4400 C   0  0  0  0  0  2  0  0  0  0  0  0
  190.7170  176.2410  144.2550 C   0  0  1  0  0  3  0  0  0  0  0  0
  191.9010  175.4610  143.6930 C   0  0  0  0  0  1  0  0  0  0  0  0
  190.7550  176.2940  145.7900 C   0  0  1  0  0  3  0  0  0  0  0  0
  192.1440  175.9980  146.3570 C   0  0  0  0  0  2  0  0  0  0  0  0
  192.1290  175.8150  147.8660 C   0  0  0  0  0  2  0  0  0  0  0  0
  193.4590  176.7240  149.2790 O   0  0  0  0  0  1  0  0  0  0  0  0
  192.4530  177.0200  148.4850 O   0  0  0  0  0  0  0  0  0  0  0  0
  190.2330  177.4930  146.2960 O   0  0  0  0  0  0  0  0  0  0  0  0
  189.0930  177.1380  146.9400 N   0  0  0  0  0  2  0  0  0  0  0  0
  189.5040  178.5320  148.7640 O   0  0  0  0  0  0  0  0  0  0  0  0
  187.5210  177.3850  148.7840 O   0  0  0  0  0  1  0  0  0  0  0  0
  188.7310  177.7200  148.1900 C   0  0  0  0  0  0  0  0  0  0  0  0
  187.1760  176.6580  143.2680 C   0  0  0  0  0  2  0  0  0  0  0  0
  185.4510  178.2590  144.0240 C   0  0  0  0  0  3  0  0  0  0  0  0
  186.5840  177.5990  144.2770 C   0  0  0  0  0  3  0  0  0  0  0  0
  184.8440  179.2110  145.0110 C   0  0  0  0  0  3  0  0  0  0  0  0
  185.4460  179.0260  146.3930 C   0  0  0  0  0  1  0  0  0  0  0  0
  183.3360  179.0540  145.0720 C   0  0  0  0  0  1  0  0  0  0  0  0
  1  8  1  0  0  0  0
  2  3  1  0  0  0  0
  3 10  1  1  0  0  0
  3  9  1  0  0  0  0
  4  1  1  0  0  0  0
  5  1  2  0  0  0  0
  6  7  1  0  0  0  0
  6  2  1  0  0  0  0
  7 11  1  6  0  0  0
  7  4  1  0  0  0  0
  8 13  1  6  0  0  0
  9 25  1  1  0  0  0
  9 12  1  0  0  0  0
 12  8  1  0  0  0  0
 13 14  1  6  0  0  0
 13 15  1  0  0  0  0
 15 20  1  0  0  0  0
 15 16  1  6  0  0  0
 16 17  1  0  0  0  0
 17 19  1  0  0  0  0
 19 18  1  0  0  0  0
 20 21  1  0  0  0  0
 21 24  1  0  0  0  0
 24 22  2  0  0  0  0
 24 23  1  0  0  0  0
 25 27  1  0  0  0  0
 26 27  2  0  0  0  0
 26 28  1  0  0  0  0
 28 30  1  0  0  0  0
 28 29  1  0  0  0  0
M  END
>  <MODEL>
2

>  <REMARK>
 VINA RESULT:      -6.8      2.579      4.412
  Name = 
  10 active torsions:
  status: ('A' for Active; 'I' for Inactive)
    1  A    between atoms: C_1  and  C_4
    2  A    between atoms: C_1  and  C_22
    3  A    between atoms: C_4  and  C_9
    4  A    between atoms: C_4  and  O_12
    5  A    between atoms: C_7  and  C_23
    6  A    between atoms: C_7  and  C_25
    7  A    between atoms: N_8  and  O_12
    8  A    between atoms: C_9  and  C_21
    9  A    between atoms: C_10  and  C_15
   10  A    between atoms: O_17  and  C_21
                            x       y       z     vdW  Elec       q    Type
                         _______ _______ _______ _____ _____    ______ ____

>  <TORSDO>
F 10

$$$$
=
 OpenBabel10262422013D

 30 30  0  0  1  0  0  0  0  0999 V2000
  190.8600  177.1750  140.9090 C   0  0  0  0  0  0  0  0  0  0  0  0
  188.9090  177.2540  137.9710 C   0  0  0  0  0  2  0  0  0  0  0  0
  188.2710  178.4110  138.7380 C   0  0  1  0  0  3  0  0  0  0  0  0
  190.4160  176.2030  140.0130 O   0  0  0  0  0  0  0  0  0  0  0  0
  192.0190  177.6590  140.8070 O   0  0  0  0  0  0  0  0  0  0  0  0
  190.3170  177.3300  137.9670 O   0  0  0  0  0  0  0  0  0  0  0  0
  190.8430  176.2140  138.6570 C   0  0  2  0  0  3  0  0  0  0  0  0
  189.9100  177.7450  141.9110 C   0  0  1  0  0  3  0  0  0  0  0  0
  188.0220  178.0610  140.2130 C   0  0  1  0  0  3  0  0  0  0  0  0
  188.9880  179.6010  138.5750 O   0  0  0  0  0  1  0  0  0  0  0  0
  190.5340  174.8900  137.9700 C   0  0  0  0  0  1  0  0  0  0  0  0
  188.9750  178.7380  141.2080 C   0  0  0  0  0  2  0  0  0  0  0  0
  189.1580  176.6550  142.6930 C   0  0  1  0  0  3  0  0  0  0  0  0
  190.0510  175.4400  142.9200 C   0  0  0  0  0  1  0  0  0  0  0  0
  188.5960  177.1950  144.0180 C   0  0  1  0  0  3  0  0  0  0  0  0
  189.5660  178.1350  144.7320 C   0  0  0  0  0  2  0  0  0  0  0  0
  190.2360  177.4800  145.9290 C   0  0  0  0  0  2  0  0  0  0  0  0
  192.0480  176.6460  146.7130 O   0  0  0  0  0  1  0  0  0  0  0  0
  191.5510  177.1520  145.6050 O   0  0  0  0  0  0  0  0  0  0  0  0
  187.3290  177.7780  143.8610 O   0  0  0  0  0  0  0  0  0  0  0  0
  186.8890  178.0100  145.1230 N   0  0  0  0  0  2  0  0  0  0  0  0
  185.0200  179.2150  144.4160 O   0  0  0  0  0  0  0  0  0  0  0  0
  185.2230  178.8770  146.6730 O   0  0  0  0  0  1  0  0  0  0  0  0
  185.6780  178.7210  145.3700 C   0  0  0  0  0  0  0  0  0  0  0  0
  186.5560  178.2560  140.6070 C   0  0  0  0  0  2  0  0  0  0  0  0
  184.3430  178.5880  139.5590 C   0  0  0  0  0  3  0  0  0  0  0  0
  185.6730  178.6110  139.4470 C   0  0  0  0  0  3  0  0  0  0  0  0
  183.4380  178.9290  138.4120 C   0  0  0  0  0  3  0  0  0  0  0  0
  182.3570  179.9060  138.8390 C   0  0  0  0  0  1  0  0  0  0  0  0
  182.8100  177.6820  137.8180 C   0  0  0  0  0  1  0  0  0  0  0  0
  1  8  1  0  0  0  0
  2  3  1  0  0  0  0
  3 10  1  1  0  0  0
  3  9  1  0  0  0  0
  4  1  1  0  0  0  0
  5  1  2  0  0  0  0
  6  2  1  0  0  0  0
  6  7  1  0  0  0  0
  7 11  1  6  0  0  0
  7  4  1  0  0  0  0
  8 13  1  6  0  0  0
  9 25  1  1  0  0  0
  9 12  1  0  0  0  0
 12  8  1  0  0  0  0
 13 14  1  1  0  0  0
 13 15  1  0  0  0  0
 15 16  1  6  0  0  0
 16 17  1  0  0  0  0
 19 17  1  0  0  0  0
 19 18  1  0  0  0  0
 20 15  1  0  0  0  0
 20 21  1  0  0  0  0
 21 24  1  0  0  0  0
 22 24  2  0  0  0  0
 24 23  1  0  0  0  0
 27 26  2  0  0  0  0
 27 25  1  0  0  0  0
 28 29  1  0  0  0  0
 28 26  1  0  0  0  0
 30 28  1  0  0  0  0
M  END
>  <MODEL>
3

>  <REMARK>
 VINA RESULT:      -6.5      2.399      4.108
  Name = 
  10 active torsions:
  status: ('A' for Active; 'I' for Inactive)
    1  A    between atoms: C_1  and  C_4
    2  A    between atoms: C_1  and  C_22
    3  A    between atoms: C_4  and  C_9
    4  A    between atoms: C_4  and  O_12
    5  A    between atoms: C_7  and  C_23
    6  A    between atoms: C_7  and  C_25
    7  A    between atoms: N_8  and  O_12
    8  A    between atoms: C_9  and  C_21
    9  A    between atoms: C_10  and  C_15
   10  A    between atoms: O_17  and  C_21
                            x       y       z     vdW  Elec       q    Type
                         _______ _______ _______ _____ _____    ______ ____

>  <TORSDO>
F 10

$$$$
=
 OpenBabel10262422013D

 30 30  0  0  1  0  0  0  0  0999 V2000
  189.1600  177.9320  146.2610 C   0  0  0  0  0  0  0  0  0  0  0  0
  191.8700  176.0690  144.9820 C   0  0  0  0  0  2  0  0  0  0  0  0
  191.4670  176.8400  143.7260 C   0  0  1  0  0  3  0  0  0  0  0  0
  189.6850  176.6690  146.5350 O   0  0  0  0  0  0  0  0  0  0  0  0
  189.4690  178.9230  146.9750 O   0  0  0  0  0  0  0  0  0  0  0  0
  191.9710  176.9080  146.1110 O   0  0  0  0  0  0  0  0  0  0  0  0
  190.9980  176.5260  147.0620 C   0  0  2  0  0  3  0  0  0  0  0  0
  188.3360  178.1380  145.0320 C   0  0  1  0  0  3  0  0  0  0  0  0
  189.9460  176.8520  143.5160 C   0  0  1  0  0  3  0  0  0  0  0  0
  192.0300  178.1200  143.6980 O   0  0  0  0  0  1  0  0  0  0  0  0
  191.2220  175.1220  147.6110 C   0  0  0  0  0  1  0  0  0  0  0  0
  189.2620  178.1940  143.8110 C   0  0  0  0  0  2  0  0  0  0  0  0
  187.2150  177.0940  144.8950 C   0  0  1  0  0  3  0  0  0  0  0  0
  186.7250  176.6440  146.2680 C   0  0  0  0  0  1  0  0  0  0  0  0
  186.0580  177.6160  144.0290 C   0  0  1  0  0  3  0  0  0  0  0  0
  185.5410  178.9770  144.4910 C   0  0  0  0  0  2  0  0  0  0  0  0
  184.1680  178.8890  145.1380 C   0  0  0  0  0  2  0  0  0  0  0  0
  185.3710  179.5780  146.7720 O   0  0  0  0  0  1  0  0  0  0  0  0
  184.3080  178.8440  146.5230 O   0  0  0  0  0  0  0  0  0  0  0  0
  186.3750  177.6170  142.6620 O   0  0  0  0  0  0  0  0  0  0  0  0
  185.4790  178.4620  142.0930 N   0  0  0  0  0  2  0  0  0  0  0  0
  186.6880  178.6580  140.1080 O   0  0  0  0  0  0  0  0  0  0  0  0
  184.6770  179.7530  140.1900 O   0  0  0  0  0  1  0  0  0  0  0  0
  185.6520  178.9480  140.7630 C   0  0  0  0  0  0  0  0  0  0  0  0
  189.5540  176.3040  142.1410 C   0  0  0  0  0  2  0  0  0  0  0  0
  189.7360  176.8720  139.7420 C   0  0  0  0  0  3  0  0  0  0  0  0
  190.1090  177.1090  141.0030 C   0  0  0  0  0  3  0  0  0  0  0  0
  190.2820  177.6560  138.5860 C   0  0  0  0  0  3  0  0  0  0  0  0
  189.1990  178.4970  137.9340 C   0  0  0  0  0  1  0  0  0  0  0  0
  190.9260  176.7440  137.5580 C   0  0  0  0  0  1  0  0  0  0  0  0
  1  4  1  0  0  0  0
  1  5  2  0  0  0  0
  2  6  1  0  0  0  0
  3 10  1  1  0  0  0
  3  2  1  0  0  0  0
  4  7  1  0  0  0  0
  6  7  1  0  0  0  0
  7 11  1  6  0  0  0
  8 13  1  6  0  0  0
  8  1  1  0  0  0  0
  9 25  1  6  0  0  0
  9  3  1  0  0  0  0
  9 12  1  0  0  0  0
 12  8  1  0  0  0  0
 13 14  1  1  0  0  0
 15 16  1  1  0  0  0
 15 13  1  0  0  0  0
 16 17  1  0  0  0  0
 17 19  1  0  0  0  0
 19 18  1  0  0  0  0
 20 15  1  0  0  0  0
 21 20  1  0  0  0  0
 22 24  2  0  0  0  0
 23 24  1  0  0  0  0
 24 21  1  0  0  0  0
 26 27  2  0  0  0  0
 27 25  1  0  0  0  0
 28 26  1  0  0  0  0
 29 28  1  0  0  0  0
 30 28  1  0  0  0  0
M  END
>  <MODEL>
4

>  <REMARK>
 VINA RESULT:      -6.4      2.459      7.329
  Name = 
  10 active torsions:
  status: ('A' for Active; 'I' for Inactive)
    1  A    between atoms: C_1  and  C_4
    2  A    between atoms: C_1  and  C_22
    3  A    between atoms: C_4  and  C_9
    4  A    between atoms: C_4  and  O_12
    5  A    between atoms: C_7  and  C_23
    6  A    between atoms: C_7  and  C_25
    7  A    between atoms: N_8  and  O_12
    8  A    between atoms: C_9  and  C_21
    9  A    between atoms: C_10  and  C_15
   10  A    between atoms: O_17  and  C_21
                            x       y       z     vdW  Elec       q    Type
                         _______ _______ _______ _____ _____    ______ ____

>  <TORSDO>
F 10

$$$$
=
 OpenBabel10262422013D

 30 30  0  0  1  0  0  0  0  0999 V2000
  190.8950  177.1110  140.5180 C   0  0  0  0  0  0  0  0  0  0  0  0
  188.7620  177.2300  137.7110 C   0  0  0  0  0  2  0  0  0  0  0  0
  188.2640  178.4600  138.4690 C   0  0  1  0  0  3  0  0  0  0  0  0
  190.3220  176.1440  139.6940 O   0  0  0  0  0  0  0  0  0  0  0  0
  192.0770  177.5010  140.3230 O   0  0  0  0  0  0  0  0  0  0  0  0
  190.1690  177.1990  137.6140 O   0  0  0  0  0  0  0  0  0  0  0  0
  190.6570  176.0720  138.3140 C   0  0  2  0  0  3  0  0  0  0  0  0
  190.0580  177.7870  141.5550 C   0  0  1  0  0  3  0  0  0  0  0  0
  188.0900  178.1840  139.9700 C   0  0  1  0  0  3  0  0  0  0  0  0
  189.0540  179.5850  138.2110 O   0  0  0  0  0  1  0  0  0  0  0  0
  190.2060  174.7510  137.7040 C   0  0  0  0  0  1  0  0  0  0  0  0
  189.1540  178.8220  140.8730 C   0  0  0  0  0  2  0  0  0  0  0  0
  189.2830  176.7870  142.4280 C   0  0  1  0  0  3  0  0  0  0  0  0
  190.1800  175.6280  142.8490 C   0  0  0  0  0  1  0  0  0  0  0  0
  188.6450  177.4750  143.6460 C   0  0  1  0  0  3  0  0  0  0  0  0
  187.2820  176.8870  144.0100 C   0  0  0  0  0  2  0  0  0  0  0  0
  186.1390  177.8450  143.7190 C   0  0  0  0  0  2  0  0  0  0  0  0
  184.4030  178.7120  144.6300 O   0  0  0  0  0  1  0  0  0  0  0  0
  185.6330  178.3450  144.9180 O   0  0  0  0  0  0  0  0  0  0  0  0
  189.5080  177.5080  144.7520 O   0  0  0  0  0  0  0  0  0  0  0  0
  188.6940  177.4800  145.8360 N   0  0  0  0  0  2  0  0  0  0  0  0
  190.3720  176.7290  147.2720 O   0  0  0  0  0  0  0  0  0  0  0  0
  188.3340  177.1640  148.2240 O   0  0  0  0  0  1  0  0  0  0  0  0
  189.1810  177.1100  147.1250 C   0  0  0  0  0  0  0  0  0  0  0  0
  186.6720  178.5030  140.4480 C   0  0  0  0  0  2  0  0  0  0  0  0
  184.4280  179.0260  139.5530 C   0  0  0  0  0  3  0  0  0  0  0  0
  185.6810  178.6260  139.3270 C   0  0  0  0  0  3  0  0  0  0  0  0
  183.4170  179.1470  138.4520 C   0  0  0  0  0  3  0  0  0  0  0  0
  182.1910  179.9130  138.9170 C   0  0  0  0  0  1  0  0  0  0  0  0
  183.0120  177.7830  137.9250 C   0  0  0  0  0  1  0  0  0  0  0  0
  1  8  1  0  0  0  0
  2  3  1  0  0  0  0
  3 10  1  1  0  0  0
  3  9  1  0  0  0  0
  4  1  1  0  0  0  0
  5  1  2  0  0  0  0
  6  2  1  0  0  0  0
  6  7  1  0  0  0  0
  7 11  1  6  0  0  0
  7  4  1  0  0  0  0
  8 13  1  6  0  0  0
  9 25  1  1  0  0  0
  9 12  1  0  0  0  0
 12  8  1  0  0  0  0
 13 14  1  1  0  0  0
 13 15  1  0  0  0  0
 15 16  1  1  0  0  0
 15 20  1  0  0  0  0
 17 16  1  0  0  0  0
 17 19  1  0  0  0  0
 18 19  1  0  0  0  0
 20 21  1  0  0  0  0
 21 24  1  0  0  0  0
 24 22  2  0  0  0  0
 24 23  1  0  0  0  0
 27 26  2  0  0  0  0
 27 25  1  0  0  0  0
 28 29  1  0  0  0  0
 28 26  1  0  0  0  0
 30 28  1  0  0  0  0
M  END
>  <MODEL>
5

>  <REMARK>
 VINA RESULT:      -6.4      2.344      3.162
  Name = 
  10 active torsions:
  status: ('A' for Active; 'I' for Inactive)
    1  A    between atoms: C_1  and  C_4
    2  A    between atoms: C_1  and  C_22
    3  A    between atoms: C_4  and  C_9
    4  A    between atoms: C_4  and  O_12
    5  A    between atoms: C_7  and  C_23
    6  A    between atoms: C_7  and  C_25
    7  A    between atoms: N_8  and  O_12
    8  A    between atoms: C_9  and  C_21
    9  A    between atoms: C_10  and  C_15
   10  A    between atoms: O_17  and  C_21
                            x       y       z     vdW  Elec       q    Type
                         _______ _______ _______ _____ _____    ______ ____

>  <TORSDO>
F 10

$$$$
=
 OpenBabel10262422013D

 30 30  0  0  1  0  0  0  0  0999 V2000
  191.1930  176.6000  142.7990 C   0  0  0  0  0  0  0  0  0  0  0  0
  189.3990  178.7240  144.9720 C   0  0  0  0  0  2  0  0  0  0  0  0
  188.2590  177.8370  144.4740 C   0  0  1  0  0  3  0  0  0  0  0  0
  191.3290  177.9340  143.1830 O   0  0  0  0  0  0  0  0  0  0  0  0
  191.8760  175.7000  143.3570 O   0  0  0  0  0  0  0  0  0  0  0  0
  190.5210  177.9710  145.3760 O   0  0  0  0  0  0  0  0  0  0  0  0
  191.6140  178.2770  144.5330 C   0  0  2  0  0  3  0  0  0  0  0  0
  190.1340  176.2200  141.8160 C   0  0  1  0  0  3  0  0  0  0  0  0
  188.3180  177.6150  142.9560 C   0  0  1  0  0  3  0  0  0  0  0  0
  188.1780  176.6410  145.1960 O   0  0  0  0  0  1  0  0  0  0  0  0
  192.0680  179.7270  144.6510 C   0  0  0  0  0  1  0  0  0  0  0  0
  188.7720  176.2150  142.5230 C   0  0  0  0  0  2  0  0  0  0  0  0
  190.1590  177.0990  140.5550 C   0  0  1  0  0  3  0  0  0  0  0  0
  191.5930  177.3470  140.0980 C   0  0  0  0  0  1  0  0  0  0  0  0
  189.3050  176.4970  139.4280 C   0  0  1  0  0  3  0  0  0  0  0  0
  188.3720  177.5200  138.7820 C   0  0  0  0  0  2  0  0  0  0  0  0
  189.0160  178.8900  138.6450 C   0  0  0  0  0  2  0  0  0  0  0  0
  187.4480  179.0570  137.1950 O   0  0  0  0  0  1  0  0  0  0  0  0
  188.6890  179.4370  137.4060 O   0  0  0  0  0  0  0  0  0  0  0  0
  190.0830  175.8270  138.4720 O   0  0  0  0  0  0  0  0  0  0  0  0
  189.2180  175.5010  137.4790 N   0  0  0  0  0  2  0  0  0  0  0  0
  190.0290  173.3230  137.2750 O   0  0  0  0  0  1  0  0  0  0  0  0
  188.2440  173.8760  135.9490 O   0  0  0  0  0  0  0  0  0  0  0  0
  189.1920  174.1920  136.9120 C   0  0  0  0  0  0  0  0  0  0  0  0
  187.0140  178.0280  142.2680 C   0  0  0  0  0  2  0  0  0  0  0  0
  185.0780  179.2690  143.1730 C   0  0  0  0  0  3  0  0  0  0  0  0
  185.8670  178.1930  143.2210 C   0  0  0  0  0  3  0  0  0  0  0  0
  183.9320  179.4620  144.1210 C   0  0  0  0  0  3  0  0  0  0  0  0
  184.2250  178.8320  145.4710 C   0  0  0  0  0  1  0  0  0  0  0  0
  182.6440  178.8980  143.5490 C   0  0  0  0  0  1  0  0  0  0  0  0
  1  4  1  0  0  0  0
  1  5  2  0  0  0  0
  2  6  1  0  0  0  0
  3  2  1  0  0  0  0
  3 10  1  1  0  0  0
  4  7  1  0  0  0  0
  7 11  1  6  0  0  0
  7  6  1  0  0  0  0
  8 13  1  6  0  0  0
  8 12  1  0  0  0  0
  8  1  1  0  0  0  0
  9 25  1  1  0  0  0
  9  3  1  0  0  0  0
 12  9  1  0  0  0  0
 13 14  1  6  0  0  0
 15 16  1  6  0  0  0
 15 13  1  0  0  0  0
 17 16  1  0  0  0  0
 18 19  1  0  0  0  0
 19 17  1  0  0  0  0
 20 15  1  0  0  0  0
 21 20  1  0  0  0  0
 23 24  2  0  0  0  0
 24 22  1  0  0  0  0
 24 21  1  0  0  0  0
 25 27  1  0  0  0  0
 26 27  2  0  0  0  0
 26 28  1  0  0  0  0
 28 29  1  0  0  0  0
 30 28  1  0  0  0  0
M  END
>  <MODEL>
6

>  <REMARK>
 VINA RESULT:      -6.2      2.710      6.630
  Name = 
  10 active torsions:
  status: ('A' for Active; 'I' for Inactive)
    1  A    between atoms: C_1  and  C_4
    2  A    between atoms: C_1  and  C_22
    3  A    between atoms: C_4  and  C_9
    4  A    between atoms: C_4  and  O_12
    5  A    between atoms: C_7  and  C_23
    6  A    between atoms: C_7  and  C_25
    7  A    between atoms: N_8  and  O_12
    8  A    between atoms: C_9  and  C_21
    9  A    between atoms: C_10  and  C_15
   10  A    between atoms: O_17  and  C_21
                            x       y       z     vdW  Elec       q    Type
                         _______ _______ _______ _____ _____    ______ ____

>  <TORSDO>
F 10

$$$$
=
 OpenBabel10262422013D

 30 30  0  0  1  0  0  0  0  0999 V2000
  188.9560  176.7220  143.0670 C   0  0  0  0  0  0  0  0  0  0  0  0
  189.4090  177.9900  146.3280 C   0  0  0  0  0  2  0  0  0  0  0  0
  187.9170  177.6640  146.3800 C   0  0  1  0  0  3  0  0  0  0  0  0
  189.7870  177.6930  143.6230 O   0  0  0  0  0  0  0  0  0  0  0  0
  189.3770  175.5510  142.8730 O   0  0  0  0  0  0  0  0  0  0  0  0
  190.1680  176.9260  145.7980 O   0  0  0  0  0  0  0  0  0  0  0  0
  190.7700  177.3420  144.5890 C   0  0  2  0  0  3  0  0  0  0  0  0
  187.5150  177.0350  142.8250 C   0  0  1  0  0  3  0  0  0  0  0  0
  187.1780  178.1250  145.1150 C   0  0  1  0  0  3  0  0  0  0  0  0
  187.6900  176.3170  146.6820 O   0  0  0  0  0  1  0  0  0  0  0  0
  191.7790  178.4670  144.7830 C   0  0  0  0  0  1  0  0  0  0  0  0
  186.7620  176.9970  144.1610 C   0  0  0  0  0  2  0  0  0  0  0  0
  187.3200  178.3540  142.0580 C   0  0  1  0  0  3  0  0  0  0  0  0
  188.5900  179.1990  142.1060 C   0  0  0  0  0  1  0  0  0  0  0  0
  186.8650  178.1060  140.6120 C   0  0  1  0  0  3  0  0  0  0  0  0
  185.5000  178.7240  140.3080 C   0  0  0  0  0  2  0  0  0  0  0  0
  185.0530  178.4720  138.8770 C   0  0  0  0  0  2  0  0  0  0  0  0
  184.2380  180.4490  139.0080 O   0  0  0  0  0  1  0  0  0  0  0  0
  183.9230  179.2390  138.6000 O   0  0  0  0  0  0  0  0  0  0  0  0
  187.8320  178.4960  139.6740 O   0  0  0  0  0  0  0  0  0  0  0  0
  188.3270  177.3370  139.1730 N   0  0  0  0  0  2  0  0  0  0  0  0
  190.5090  177.7880  139.8630 O   0  0  0  0  0  1  0  0  0  0  0  0
  190.1550  175.7590  138.8590 O   0  0  0  0  0  0  0  0  0  0  0  0
  189.7020  176.9870  139.3220 C   0  0  0  0  0  0  0  0  0  0  0  0
  186.0070  179.0530  145.4440 C   0  0  0  0  0  2  0  0  0  0  0  0
  183.6640  179.1900  144.6670 C   0  0  0  0  0  3  0  0  0  0  0  0
  184.9620  179.0940  144.3680 C   0  0  0  0  0  3  0  0  0  0  0  0
  182.6010  179.2230  143.6100 C   0  0  0  0  0  3  0  0  0  0  0  0
  181.3020  178.6260  144.1220 C   0  0  0  0  0  1  0  0  0  0  0  0
  183.0510  178.4980  142.3550 C   0  0  0  0  0  1  0  0  0  0  0  0
  1  4  1  0  0  0  0
  2  3  1  0  0  0  0
  3 10  1  6  0  0  0
  4  7  1  0  0  0  0
  5  1  2  0  0  0  0
  6  2  1  0  0  0  0
  7 11  1  1  0  0  0
  7  6  1  0  0  0  0
  8 13  1  1  0  0  0
  8  1  1  0  0  0  0
  8 12  1  0  0  0  0
  9 25  1  1  0  0  0
  9  3  1  0  0  0  0
 12  9  1  0  0  0  0
 13 14  1  6  0  0  0
 15 16  1  6  0  0  0
 15 13  1  0  0  0  0
 17 16  1  0  0  0  0
 19 17  1  0  0  0  0
 19 18  1  0  0  0  0
 20 15  1  0  0  0  0
 21 24  1  0  0  0  0
 21 20  1  0  0  0  0
 23 24  2  0  0  0  0
 24 22  1  0  0  0  0
 27 26  2  0  0  0  0
 27 25  1  0  0  0  0
 28 29  1  0  0  0  0
 28 26  1  0  0  0  0
 30 28  1  0  0  0  0
M  END
>  <MODEL>
7

>  <REMARK>
 VINA RESULT:      -6.0      2.012      5.835
  Name = 
  10 active torsions:
  status: ('A' for Active; 'I' for Inactive)
    1  A    between atoms: C_1  and  C_4
    2  A    between atoms: C_1  and  C_22
    3  A    between atoms: C_4  and  C_9
    4  A    between atoms: C_4  and  O_12
    5  A    between atoms: C_7  and  C_23
    6  A    between atoms: C_7  and  C_25
    7  A    between atoms: N_8  and  O_12
    8  A    between atoms: C_9  and  C_21
    9  A    between atoms: C_10  and  C_15
   10  A    between atoms: O_17  and  C_21
                            x       y       z     vdW  Elec       q    Type
                         _______ _______ _______ _____ _____    ______ ____

>  <TORSDO>
F 10

$$$$
=
 OpenBabel10262422013D

 30 30  0  0  1  0  0  0  0  0999 V2000
  190.0690  176.7130  142.7750 C   0  0  0  0  0  0  0  0  0  0  0  0
  189.6230  178.4960  145.7860 C   0  0  0  0  0  2  0  0  0  0  0  0
  188.2940  177.7460  145.7290 C   0  0  1  0  0  3  0  0  0  0  0  0
  190.4960  177.9560  143.2380 O   0  0  0  0  0  0  0  0  0  0  0  0
  190.8260  175.7080  142.8430 O   0  0  0  0  0  0  0  0  0  0  0  0
  190.7240  177.6480  145.5440 O   0  0  0  0  0  0  0  0  0  0  0  0
  191.3710  178.0550  144.3550 C   0  0  2  0  0  3  0  0  0  0  0  0
  188.6550  176.5400  142.3220 C   0  0  1  0  0  3  0  0  0  0  0  0
  187.6670  177.7830  144.3270 C   0  0  1  0  0  3  0  0  0  0  0  0
  188.4070  176.4490  146.2400 O   0  0  0  0  0  1  0  0  0  0  0  0
  191.9810  179.4480  144.4560 C   0  0  0  0  0  1  0  0  0  0  0  0
  187.7400  176.4620  143.5500 C   0  0  0  0  0  2  0  0  0  0  0  0
  188.2250  177.6190  141.3140 C   0  0  1  0  0  3  0  0  0  0  0  0
  188.7580  178.9880  141.7280 C   0  0  0  0  0  1  0  0  0  0  0  0
  188.6520  177.2600  139.8820 C   0  0  1  0  0  3  0  0  0  0  0  0
  187.8940  178.0570  138.8220 C   0  0  0  0  0  2  0  0  0  0  0  0
  188.0550  177.4710  137.4280 C   0  0  0  0  0  2  0  0  0  0  0  0
  188.8070  179.4750  137.3420 O   0  0  0  0  0  1  0  0  0  0  0  0
  188.5310  178.4530  136.5620 O   0  0  0  0  0  0  0  0  0  0  0  0
  190.0410  177.3470  139.7030 O   0  0  0  0  0  0  0  0  0  0  0  0
  190.4360  176.0880  139.3880 N   0  0  0  0  0  2  0  0  0  0  0  0
  191.4920  176.7450  137.4140 O   0  0  0  0  0  0  0  0  0  0  0  0
  191.6600  174.5290  137.9730 O   0  0  0  0  0  1  0  0  0  0  0  0
  191.2130  175.8200  138.2230 C   0  0  0  0  0  0  0  0  0  0  0  0
  186.2460  178.3510  144.3520 C   0  0  0  0  0  2  0  0  0  0  0  0
  184.8130  178.7910  142.3870 C   0  0  0  0  0  3  0  0  0  0  0  0
  185.4100  177.9050  143.1890 C   0  0  0  0  0  3  0  0  0  0  0  0
  183.9640  178.3710  141.2240 C   0  0  0  0  0  3  0  0  0  0  0  0
  184.4100  179.0560  139.9440 C   0  0  0  0  0  1  0  0  0  0  0  0
  182.4960  178.6540  141.4840 C   0  0  0  0  0  1  0  0  0  0  0  0
  1  5  2  0  0  0  0
  1  4  1  0  0  0  0
  3  2  1  0  0  0  0
  3 10  1  6  0  0  0
  4  7  1  0  0  0  0
  6  2  1  0  0  0  0
  7 11  1  1  0  0  0
  7  6  1  0  0  0  0
  8 13  1  6  0  0  0
  8  1  1  0  0  0  0
  8 12  1  0  0  0  0
  9 25  1  1  0  0  0
  9  3  1  0  0  0  0
 12  9  1  0  0  0  0
 13 14  1  1  0  0  0
 15 16  1  6  0  0  0
 15 13  1  0  0  0  0
 17 16  1  0  0  0  0
 19 18  1  0  0  0  0
 19 17  1  0  0  0  0
 20 15  1  0  0  0  0
 21 20  1  0  0  0  0
 22 24  2  0  0  0  0
 23 24  1  0  0  0  0
 24 21  1  0  0  0  0
 26 27  2  0  0  0  0
 27 25  1  0  0  0  0
 28 30  1  0  0  0  0
 28 26  1  0  0  0  0
 29 28  1  0  0  0  0
M  END
>  <MODEL>
8

>  <REMARK>
 VINA RESULT:      -6.0      2.342      6.372
  Name = 
  10 active torsions:
  status: ('A' for Active; 'I' for Inactive)
    1  A    between atoms: C_1  and  C_4
    2  A    between atoms: C_1  and  C_22
    3  A    between atoms: C_4  and  C_9
    4  A    between atoms: C_4  and  O_12
    5  A    between atoms: C_7  and  C_23
    6  A    between atoms: C_7  and  C_25
    7  A    between atoms: N_8  and  O_12
    8  A    between atoms: C_9  and  C_21
    9  A    between atoms: C_10  and  C_15
   10  A    between atoms: O_17  and  C_21
                            x       y       z     vdW  Elec       q    Type
                         _______ _______ _______ _____ _____    ______ ____

>  <TORSDO>
F 10

$$$$
=
 OpenBabel10262422013D

 30 30  0  0  1  0  0  0  0  0999 V2000
  188.1790  176.4340  136.0050 C   0  0  0  0  0  0  0  0  0  0  0  0
  187.1090  178.2920  138.8070 C   0  0  0  0  0  2  0  0  0  0  0  0
  188.6220  178.4390  138.9590 C   0  0  1  0  0  3  0  0  0  0  0  0
  187.0910  176.3420  136.8720 O   0  0  0  0  0  0  0  0  0  0  0  0
  188.0650  177.0120  134.8910 O   0  0  0  0  0  0  0  0  0  0  0  0
  186.6780  178.5580  137.4910 O   0  0  0  0  0  0  0  0  0  0  0  0
  186.1230  177.3820  136.9370 C   0  0  2  0  0  3  0  0  0  0  0  0
  189.5240  175.9650  136.4570 C   0  0  1  0  0  3  0  0  0  0  0  0
  189.3590  177.1090  138.7390 C   0  0  1  0  0  3  0  0  0  0  0  0
  189.1260  179.4770  138.1690 O   0  0  0  0  0  1  0  0  0  0  0  0
  184.8640  176.9200  137.6610 C   0  0  0  0  0  1  0  0  0  0  0  0
  190.1230  177.0050  137.4120 C   0  0  0  0  0  2  0  0  0  0  0  0
  189.4820  174.5480  137.0530 C   0  0  1  0  0  3  0  0  0  0  0  0
  188.3810  173.7190  136.3980 C   0  0  0  0  0  1  0  0  0  0  0  0
  190.8470  173.8500  136.9510 C   0  0  1  0  0  3  0  0  0  0  0  0
  191.4260  173.8880  135.5370 C   0  0  0  0  0  2  0  0  0  0  0  0
  191.4730  172.5130  134.8910 C   0  0  0  0  0  2  0  0  0  0  0  0
  192.9280  171.1430  135.6650 O   0  0  0  0  0  1  0  0  0  0  0  0
  192.7980  172.0990  134.7710 O   0  0  0  0  0  0  0  0  0  0  0  0
  191.7630  174.3290  137.9000 O   0  0  0  0  0  0  0  0  0  0  0  0
  192.9000  174.5710  137.2030 N   0  0  0  0  0  2  0  0  0  0  0  0
  193.4940  176.4130  138.5070 O   0  0  0  0  0  1  0  0  0  0  0  0
  194.9770  175.8000  136.8720 O   0  0  0  0  0  0  0  0  0  0  0  0
  193.7860  175.6280  137.5650 C   0  0  0  0  0  0  0  0  0  0  0  0
  190.2400  176.7400  139.9340 C   0  0  0  0  0  2  0  0  0  0  0  0
  189.9320  176.3570  142.3570 C   0  0  0  0  0  3  0  0  0  0  0  0
  189.6000  177.0400  141.2580 C   0  0  0  0  0  3  0  0  0  0  0  0
  189.3000  176.6300  143.6890 C   0  0  0  0  0  3  0  0  0  0  0  0
  187.7870  176.5430  143.6060 C   0  0  0  0  0  1  0  0  0  0  0  0
  189.7170  177.9870  144.2270 C   0  0  0  0  0  1  0  0  0  0  0  0
  1  8  1  0  0  0  0
  1  4  1  0  0  0  0
  2  3  1  0  0  0  0
  3 10  1  6  0  0  0
  4  7  1  0  0  0  0
  5  1  2  0  0  0  0
  6  2  1  0  0  0  0
  7  6  1  0  0  0  0
  7 11  1  1  0  0  0
  8 13  1  1  0  0  0
  8 12  1  0  0  0  0
  9  3  1  0  0  0  0
  9 25  1  1  0  0  0
 12  9  1  0  0  0  0
 13 14  1  6  0  0  0
 15 16  1  6  0  0  0
 15 13  1  0  0  0  0
 15 20  1  0  0  0  0
 17 16  1  0  0  0  0
 19 17  1  0  0  0  0
 19 18  1  0  0  0  0
 21 24  1  0  0  0  0
 21 20  1  0  0  0  0
 23 24  2  0  0  0  0
 24 22  1  0  0  0  0
 25 27  1  0  0  0  0
 26 28  1  0  0  0  0
 27 26  2  0  0  0  0
 28 30  1  0  0  0  0
 29 28  1  0  0  0  0
M  END
>  <MODEL>
9

>  <REMARK>
 VINA RESULT:      -5.8      4.965      7.864
  Name = 
  10 active torsions:
  status: ('A' for Active; 'I' for Inactive)
    1  A    between atoms: C_1  and  C_4
    2  A    between atoms: C_1  and  C_22
    3  A    between atoms: C_4  and  C_9
    4  A    between atoms: C_4  and  O_12
    5  A    between atoms: C_7  and  C_23
    6  A    between atoms: C_7  and  C_25
    7  A    between atoms: N_8  and  O_12
    8  A    between atoms: C_9  and  C_21
    9  A    between atoms: C_10  and  C_15
   10  A    between atoms: O_17  and  C_21
                            x       y       z     vdW  Elec       q    Type
                         _______ _______ _______ _____ _____    ______ ____

>  <TORSDO>
F 10

$$$$
