=
 OpenBabel10262419133D

 34 37  0  0  1  0  0  0  0  0999 V2000
  188.4350  177.4140  143.5400 N   0  0  0  0  0  0  0  0  0  0  0  0
  190.4320  176.1780  142.9510 C   0  0  2  0  0  3  0  0  0  0  0  0
  189.1810  177.1150  144.7600 C   0  0  1  0  0  3  0  0  0  0  0  0
  190.5820  176.7140  144.3580 C   0  0  1  0  0  3  0  0  0  0  0  0
  189.2070  176.8960  142.4080 C   0  0  2  0  0  3  0  0  0  0  0  0
  190.1780  174.8030  142.9640 O   0  0  0  0  0  1  0  0  0  0  0  0
  191.2200  176.8420  139.8920 C   0  0  0  0  0  3  0  0  0  0  0  0
  189.4070  177.8070  137.8600 C   0  0  0  0  0  3  0  0  0  0  0  0
  189.6180  178.0450  141.4800 C   0  0  2  0  0  3  0  0  0  0  0  0
  190.5470  176.9360  137.3750 C   0  0  0  0  0  2  0  0  0  0  0  0
  189.2440  178.0250  139.1640 C   0  0  0  0  0  0  0  0  0  0  0  0
  188.4350  178.8860  141.1630 N   0  0  0  0  0  0  0  0  0  0  0  0
  190.1160  177.5320  140.1680 C   0  0  0  0  0  0  0  0  0  0  0  0
  191.5060  176.5250  138.4770 C   0  0  0  0  0  0  0  0  0  0  0  0
  192.5520  175.8900  138.1850 O   0  0  0  0  0  0  0  0  0  0  0  0
  188.2580  178.8240  139.7640 N   0  0  0  0  0  0  0  0  0  0  0  0
  191.0930  175.7480  145.2310 O   0  0  0  0  0  0  0  0  0  0  0  0
  192.0030  176.4370  146.0350 C   0  0  0  0  0  2  0  0  0  0  0  0
  192.2070  175.6790  147.3300 C   0  0  0  0  0  1  0  0  0  0  0  0
  187.1980  176.6490  143.5910 C   0  0  0  0  0  2  0  0  0  0  0  0
  186.0560  177.5510  144.0190 C   0  0  0  0  0  2  0  0  0  0  0  0
  184.7460  178.4120  141.8600 C   0  0  0  0  0  0  0  0  0  0  0  0
  185.3380  178.0240  142.8360 C   0  0  0  0  0  0  0  0  0  0  0  0
  182.5730  176.9490  140.3800 O   0  0  0  0  0  0  0  0  0  0  0  0
  184.0280  178.8850  140.6710 C   0  0  2  0  0  3  0  0  0  0  0  0
  183.4400  177.7480  139.9390 C   0  0  0  0  0  0  0  0  0  0  0  0
  183.7200  176.9190  137.7250 O   0  0  0  0  0  0  0  0  0  0  0  0
  184.9260  178.8700  138.5360 C   0  0  0  0  0  2  0  0  0  0  0  0
  184.9380  179.5380  139.7930 O   0  0  0  0  0  0  0  0  0  0  0  0
  183.9890  177.7410  138.6390 C   0  0  0  0  0  0  0  0  0  0  0  0
  189.2160  178.3460  145.6490 C   0  0  0  0  0  2  0  0  0  0  0  0
  189.0840  177.8650  147.3950 S   0  0  0  0  0  0  0  0  0  0  0  0
  187.3130  177.5130  147.2290 C   0  0  0  0  0  2  0  0  0  0  0  0
  186.5310  178.8050  147.3300 C   0  0  0  0  0  1  0  0  0  0  0  0
  1 20  1  0  0  0  0
  1  3  1  0  0  0  0
  2  6  1  1  0  0  0
  2  4  1  0  0  0  0
  3 31  1  1  0  0  0
  4  3  1  0  0  0  0
  4 17  1  1  0  0  0
  5  2  1  0  0  0  0
  5  1  1  1  0  0  0
  7 13  2  0  0  0  0
  8 11  2  0  0  0  0
  9 13  1  6  0  0  0
  9  5  1  0  0  0  0
 10  8  1  0  0  0  0
 10 14  1  0  0  0  0
 11 16  1  0  0  0  0
 11 13  1  0  0  0  0
 12  9  1  0  0  0  0
 14  7  1  0  0  0  0
 15 14  2  0  0  0  0
 16 12  2  0  0  0  0
 17 18  1  0  0  0  0
 18 19  1  0  0  0  0
 20 21  1  0  0  0  0
 22 23  3  0  0  0  0
 23 21  1  0  0  0  0
 25 22  1  1  0  0  0
 26 24  2  0  0  0  0
 26 25  1  0  0  0  0
 27 30  2  0  0  0  0
 28 30  1  0  0  0  0
 28 29  1  0  0  0  0
 29 25  1  0  0  0  0
 30 26  1  0  0  0  0
 31 32  1  0  0  0  0
 33 34  1  0  0  0  0
 33 32  1  0  0  0  0
M  END
>  <MODEL>
1

>  <REMARK>
 VINA RESULT:      -7.3      0.000      0.000
  Name = 
  10 active torsions:
  status: ('A' for Active; 'I' for Inactive)
    1  A    between atoms: C_3  and  C_13
    2  A    between atoms: C_4  and  C_31
    3  A    between atoms: N_5  and  C_18
    4  A    between atoms: C_7  and  O_8
    5  A    between atoms: O_8  and  C_28
    6  A    between atoms: C_12  and  S_16
    7  A    between atoms: S_16  and  C_23
    8  A    between atoms: C_17  and  C_29
    9  A    between atoms: C_18  and  C_29
   10  A    between atoms: C_23  and  C_26
                            x       y       z     vdW  Elec       q    Type
                         _______ _______ _______ _____ _____    ______ ____

>  <TORSDO>
F 10

$$$$
=
 OpenBabel10262419133D

 34 37  0  0  1  0  0  0  0  0999 V2000
  188.1230  177.6350  143.5320 N   0  0  0  0  0  0  0  0  0  0  0  0
  190.0100  176.2940  142.8240 C   0  0  2  0  0  3  0  0  0  0  0  0
  188.9250  177.2940  144.7050 C   0  0  1  0  0  3  0  0  0  0  0  0
  190.2760  176.8190  144.2180 C   0  0  1  0  0  3  0  0  0  0  0  0
  188.7940  177.0770  142.3560 C   0  0  2  0  0  3  0  0  0  0  0  0
  189.6840  174.9350  142.8560 O   0  0  0  0  0  1  0  0  0  0  0  0
  190.9850  177.0230  139.9930 C   0  0  0  0  0  3  0  0  0  0  0  0
  189.2740  177.7860  137.7930 C   0  0  0  0  0  3  0  0  0  0  0  0
  189.2080  178.2040  141.4020 C   0  0  2  0  0  3  0  0  0  0  0  0
  190.4920  176.9600  137.4340 C   0  0  0  0  0  2  0  0  0  0  0  0
  189.0050  178.0540  139.0700 C   0  0  0  0  0  0  0  0  0  0  0  0
  188.0070  178.9590  140.9610 N   0  0  0  0  0  0  0  0  0  0  0  0
  189.8270  177.6600  140.1560 C   0  0  0  0  0  0  0  0  0  0  0  0
  191.3890  176.6580  138.6200 C   0  0  0  0  0  0  0  0  0  0  0  0
  192.4870  176.0710  138.4340 O   0  0  0  0  0  0  0  0  0  0  0  0
  187.9360  178.8220  139.5580 N   0  0  0  0  0  0  0  0  0  0  0  0
  190.7860  175.8260  145.0600 O   0  0  0  0  0  0  0  0  0  0  0  0
  191.8800  176.4200  145.6920 C   0  0  0  0  0  2  0  0  0  0  0  0
  192.0960  175.7720  147.0430 C   0  0  0  0  0  1  0  0  0  0  0  0
  186.8520  176.9380  143.6620 C   0  0  0  0  0  2  0  0  0  0  0  0
  185.7200  177.9450  143.7350 C   0  0  0  0  0  2  0  0  0  0  0  0
  184.3810  177.9480  141.4260 C   0  0  0  0  0  0  0  0  0  0  0  0
  184.9860  177.9460  142.4690 C   0  0  0  0  0  0  0  0  0  0  0  0
  184.6450  179.9580  139.2030 O   0  0  0  0  0  0  0  0  0  0  0  0
  183.6430  177.9490  140.1590 C   0  0  2  0  0  3  0  0  0  0  0  0
  183.6350  179.3010  139.5700 C   0  0  0  0  0  0  0  0  0  0  0  0
  181.8890  180.8090  138.9810 O   0  0  0  0  0  0  0  0  0  0  0  0
  181.4370  178.6260  139.9570 C   0  0  0  0  0  2  0  0  0  0  0  0
  182.2910  177.5740  140.3950 O   0  0  0  0  0  0  0  0  0  0  0  0
  182.2900  179.7110  139.4490 C   0  0  0  0  0  0  0  0  0  0  0  0
  189.0820  178.5210  145.5880 C   0  0  0  0  0  2  0  0  0  0  0  0
  188.9890  178.0510  147.3390 S   0  0  0  0  0  0  0  0  0  0  0  0
  187.2520  177.5600  147.1810 C   0  0  0  0  0  2  0  0  0  0  0  0
  186.3770  178.7960  147.1690 C   0  0  0  0  0  1  0  0  0  0  0  0
  1 20  1  0  0  0  0
  1  3  1  0  0  0  0
  2  6  1  1  0  0  0
  2  4  1  0  0  0  0
  3 31  1  1  0  0  0
  4  3  1  0  0  0  0
  4 17  1  1  0  0  0
  5  2  1  0  0  0  0
  5  1  1  1  0  0  0
  7 13  2  0  0  0  0
  8 11  2  0  0  0  0
  9 13  1  6  0  0  0
  9  5  1  0  0  0  0
 10  8  1  0  0  0  0
 10 14  1  0  0  0  0
 11 16  1  0  0  0  0
 11 13  1  0  0  0  0
 12  9  1  0  0  0  0
 14  7  1  0  0  0  0
 15 14  2  0  0  0  0
 16 12  2  0  0  0  0
 17 18  1  0  0  0  0
 18 19  1  0  0  0  0
 20 21  1  0  0  0  0
 22 23  3  0  0  0  0
 23 21  1  0  0  0  0
 24 26  2  0  0  0  0
 25 29  1  0  0  0  0
 25 22  1  1  0  0  0
 26 25  1  0  0  0  0
 27 30  2  0  0  0  0
 28 29  1  0  0  0  0
 30 26  1  0  0  0  0
 30 28  1  0  0  0  0
 31 32  1  0  0  0  0
 33 32  1  0  0  0  0
 34 33  1  0  0  0  0
M  END
>  <MODEL>
2

>  <REMARK>
 VINA RESULT:      -6.9      0.912      1.491
  Name = 
  10 active torsions:
  status: ('A' for Active; 'I' for Inactive)
    1  A    between atoms: C_3  and  C_13
    2  A    between atoms: C_4  and  C_31
    3  A    between atoms: N_5  and  C_18
    4  A    between atoms: C_7  and  O_8
    5  A    between atoms: O_8  and  C_28
    6  A    between atoms: C_12  and  S_16
    7  A    between atoms: S_16  and  C_23
    8  A    between atoms: C_17  and  C_29
    9  A    between atoms: C_18  and  C_29
   10  A    between atoms: C_23  and  C_26
                            x       y       z     vdW  Elec       q    Type
                         _______ _______ _______ _____ _____    ______ ____

>  <TORSDO>
F 10

$$$$
=
 OpenBabel10262419133D

 34 37  0  0  1  0  0  0  0  0999 V2000
  182.9690  178.3840  139.4160 N   0  0  0  0  0  0  0  0  0  0  0  0
  181.6770  178.8870  141.4010 C   0  0  2  0  0  3  0  0  0  0  0  0
  181.6840  178.9470  139.0110 C   0  0  1  0  0  3  0  0  0  0  0  0
  181.0690  179.6140  140.2210 C   0  0  1  0  0  3  0  0  0  0  0  0
  183.0140  178.3840  140.8800 C   0  0  2  0  0  3  0  0  0  0  0  0
  180.8960  177.7870  141.7670 O   0  0  0  0  0  1  0  0  0  0  0  0
  183.9650  178.9690  143.9030 C   0  0  0  0  0  3  0  0  0  0  0  0
  186.7090  178.0940  143.6760 C   0  0  0  0  0  3  0  0  0  0  0  0
  184.1600  179.2770  141.3720 C   0  0  2  0  0  3  0  0  0  0  0  0
  186.1000  178.0190  145.0600 C   0  0  0  0  0  2  0  0  0  0  0  0
  185.9630  178.4730  142.6390 C   0  0  0  0  0  0  0  0  0  0  0  0
  185.3440  179.1090  140.4930 N   0  0  0  0  0  0  0  0  0  0  0  0
  184.6080  178.8780  142.7410 C   0  0  0  0  0  0  0  0  0  0  0  0
  184.6850  178.5630  145.1280 C   0  0  0  0  0  0  0  0  0  0  0  0
  184.1080  178.6550  146.2430 O   0  0  0  0  0  0  0  0  0  0  0  0
  186.3860  178.6160  141.3080 N   0  0  0  0  0  0  0  0  0  0  0  0
  179.6760  179.4970  140.2000 O   0  0  0  0  0  0  0  0  0  0  0  0
  179.2060  180.8090  140.2790 C   0  0  0  0  0  2  0  0  0  0  0  0
  178.9310  181.1600  141.7260 C   0  0  0  0  0  1  0  0  0  0  0  0
  182.9830  176.9910  138.9940 C   0  0  0  0  0  2  0  0  0  0  0  0
  183.3530  176.9050  137.5250 C   0  0  0  0  0  2  0  0  0  0  0  0
  185.9600  177.3980  137.2350 C   0  0  0  0  0  0  0  0  0  0  0  0
  184.7820  177.1750  137.3660 C   0  0  0  0  0  0  0  0  0  0  0  0
  188.1810  175.3690  137.2700 O   0  0  0  0  0  0  0  0  0  0  0  0
  187.3920  177.6690  137.0720 C   0  0  2  0  0  3  0  0  0  0  0  0
  188.1910  176.5720  137.6450 C   0  0  0  0  0  0  0  0  0  0  0  0
  189.8280  176.4800  139.3720 O   0  0  0  0  0  0  0  0  0  0  0  0
  188.7310  178.5580  138.7410 C   0  0  0  0  0  2  0  0  0  0  0  0
  187.7340  178.8610  137.7700 O   0  0  0  0  0  0  0  0  0  0  0  0
  189.0060  177.1150  138.6620 C   0  0  0  0  0  0  0  0  0  0  0  0
  181.8990  179.9610  137.9000 C   0  0  0  0  0  2  0  0  0  0  0  0
  180.7840  179.6150  136.5080 S   0  0  0  0  0  0  0  0  0  0  0  0
  180.0280  181.2590  136.6260 C   0  0  0  0  0  2  0  0  0  0  0  0
  180.9600  182.1900  137.3710 C   0  0  0  0  0  1  0  0  0  0  0  0
  2  6  1  6  0  0  0
  3 31  1  6  0  0  0
  3  1  1  0  0  0  0
  3  4  1  0  0  0  0
  4 17  1  6  0  0  0
  4  2  1  0  0  0  0
  5  1  1  6  0  0  0
  5  9  1  0  0  0  0
  5  2  1  0  0  0  0
  7 14  1  0  0  0  0
  8 10  1  0  0  0  0
  9 12  1  6  0  0  0
  9 13  1  0  0  0  0
 10 14  1  0  0  0  0
 11 13  1  0  0  0  0
 11  8  2  0  0  0  0
 12 16  2  0  0  0  0
 13  7  2  0  0  0  0
 14 15  2  0  0  0  0
 16 11  1  0  0  0  0
 17 18  1  0  0  0  0
 18 19  1  0  0  0  0
 20  1  1  0  0  0  0
 21 20  1  0  0  0  0
 22 23  3  0  0  0  0
 23 21  1  0  0  0  0
 24 26  2  0  0  0  0
 25 22  1  1  0  0  0
 25 26  1  0  0  0  0
 25 29  1  0  0  0  0
 26 30  1  0  0  0  0
 29 28  1  0  0  0  0
 30 28  1  0  0  0  0
 30 27  2  0  0  0  0
 32 33  1  0  0  0  0
 32 31  1  0  0  0  0
 33 34  1  0  0  0  0
M  END
>  <MODEL>
3

>  <REMARK>
 VINA RESULT:      -6.6      3.907      8.763
  Name = 
  10 active torsions:
  status: ('A' for Active; 'I' for Inactive)
    1  A    between atoms: C_3  and  C_13
    2  A    between atoms: C_4  and  C_31
    3  A    between atoms: N_5  and  C_18
    4  A    between atoms: C_7  and  O_8
    5  A    between atoms: O_8  and  C_28
    6  A    between atoms: C_12  and  S_16
    7  A    between atoms: S_16  and  C_23
    8  A    between atoms: C_17  and  C_29
    9  A    between atoms: C_18  and  C_29
   10  A    between atoms: C_23  and  C_26
                            x       y       z     vdW  Elec       q    Type
                         _______ _______ _______ _____ _____    ______ ____

>  <TORSDO>
F 10

$$$$
=
 OpenBabel10262419133D

 34 37  0  0  1  0  0  0  0  0999 V2000
  182.1020  178.0300  138.0210 N   0  0  0  0  0  0  0  0  0  0  0  0
  182.9770  179.6980  139.5420 C   0  0  2  0  0  3  0  0  0  0  0  0
  182.5760  177.3620  139.2310 C   0  0  1  0  0  3  0  0  0  0  0  0
  182.7400  178.4130  140.3050 C   0  0  1  0  0  3  0  0  0  0  0  0
  182.2880  179.4710  138.2060 C   0  0  2  0  0  3  0  0  0  0  0  0
  184.3420  179.8990  139.3140 O   0  0  0  0  0  1  0  0  0  0  0  0
  181.6740  182.6250  137.9690 C   0  0  0  0  0  3  0  0  0  0  0  0
  180.0600  182.5780  135.5730 C   0  0  0  0  0  3  0  0  0  0  0  0
  180.9320  180.1870  138.1660 C   0  0  2  0  0  3  0  0  0  0  0  0
  180.7960  183.8710  135.8530 C   0  0  0  0  0  2  0  0  0  0  0  0
  180.2370  181.5250  136.3690 C   0  0  0  0  0  0  0  0  0  0  0  0
  179.9820  179.4220  137.3200 N   0  0  0  0  0  0  0  0  0  0  0  0
  181.0490  181.5340  137.5320 C   0  0  0  0  0  0  0  0  0  0  0  0
  181.5640  183.8590  137.1630 C   0  0  0  0  0  0  0  0  0  0  0  0
  182.1290  184.9110  137.5600 O   0  0  0  0  0  0  0  0  0  0  0  0
  179.6120  180.2730  136.2570 N   0  0  0  0  0  0  0  0  0  0  0  0
  183.8120  178.1010  141.1470 O   0  0  0  0  0  0  0  0  0  0  0  0
  183.4550  178.6230  142.3910 C   0  0  0  0  0  2  0  0  0  0  0  0
  184.6910  178.7610  143.2550 C   0  0  0  0  0  1  0  0  0  0  0  0
  182.9800  177.6270  136.9330 C   0  0  0  0  0  2  0  0  0  0  0  0
  184.0730  176.7210  137.4660 C   0  0  0  0  0  2  0  0  0  0  0  0
  186.4470  177.8910  137.1180 C   0  0  0  0  0  0  0  0  0  0  0  0
  185.3740  177.3630  137.2750 C   0  0  0  0  0  0  0  0  0  0  0  0
  188.6630  176.9530  135.3120 O   0  0  0  0  0  0  0  0  0  0  0  0
  187.7500  178.5360  136.9290 C   0  0  2  0  0  3  0  0  0  0  0  0
  188.7330  177.5680  136.4090 C   0  0  0  0  0  0  0  0  0  0  0  0
  190.8160  176.7620  137.2340 O   0  0  0  0  0  0  0  0  0  0  0  0
  189.4890  178.3960  138.4530 C   0  0  0  0  0  2  0  0  0  0  0  0
  188.2340  179.0110  138.1800 O   0  0  0  0  0  0  0  0  0  0  0  0
  189.7900  177.4840  137.3400 C   0  0  0  0  0  0  0  0  0  0  0  0
  181.5640  176.3140  139.6640 C   0  0  0  0  0  2  0  0  0  0  0  0
  180.1600  177.1050  140.5020 S   0  0  0  0  0  0  0  0  0  0  0  0
  179.2320  175.5490  140.5520 C   0  0  0  0  0  2  0  0  0  0  0  0
  179.9240  174.5220  139.6810 C   0  0  0  0  0  1  0  0  0  0  0  0
  1  3  1  0  0  0  0
  2  6  1  6  0  0  0
  2  4  1  0  0  0  0
  3 31  1  1  0  0  0
  3  4  1  0  0  0  0
  4 17  1  1  0  0  0
  5  1  1  1  0  0  0
  5  2  1  0  0  0  0
  8 10  1  0  0  0  0
  8 11  2  0  0  0  0
  9 12  1  6  0  0  0
  9  5  1  0  0  0  0
 10 14  1  0  0  0  0
 11 13  1  0  0  0  0
 13  7  2  0  0  0  0
 13  9  1  0  0  0  0
 14 15  2  0  0  0  0
 14  7  1  0  0  0  0
 16 11  1  0  0  0  0
 16 12  2  0  0  0  0
 17 18  1  0  0  0  0
 18 19  1  0  0  0  0
 20 21  1  0  0  0  0
 20  1  1  0  0  0  0
 22 23  3  0  0  0  0
 23 21  1  0  0  0  0
 24 26  2  0  0  0  0
 25 22  1  1  0  0  0
 25 29  1  0  0  0  0
 26 25  1  0  0  0  0
 26 30  1  0  0  0  0
 27 30  2  0  0  0  0
 29 28  1  0  0  0  0
 30 28  1  0  0  0  0
 31 32  1  0  0  0  0
 32 33  1  0  0  0  0
 34 33  1  0  0  0  0
M  END
>  <MODEL>
4

>  <REMARK>
 VINA RESULT:      -6.1      4.842      9.054
  Name = 
  10 active torsions:
  status: ('A' for Active; 'I' for Inactive)
    1  A    between atoms: C_3  and  C_13
    2  A    between atoms: C_4  and  C_31
    3  A    between atoms: N_5  and  C_18
    4  A    between atoms: C_7  and  O_8
    5  A    between atoms: O_8  and  C_28
    6  A    between atoms: C_12  and  S_16
    7  A    between atoms: S_16  and  C_23
    8  A    between atoms: C_17  and  C_29
    9  A    between atoms: C_18  and  C_29
   10  A    between atoms: C_23  and  C_26
                            x       y       z     vdW  Elec       q    Type
                         _______ _______ _______ _____ _____    ______ ____

>  <TORSDO>
F 10

$$$$
=
 OpenBabel10262419133D

 34 37  0  0  1  0  0  0  0  0999 V2000
  185.8710  178.1940  142.1280 N   0  0  0  0  0  0  0  0  0  0  0  0
  184.5010  179.1950  143.8550 C   0  0  2  0  0  3  0  0  0  0  0  0
  186.5620  178.0700  143.4090 C   0  0  1  0  0  3  0  0  0  0  0  0
  185.5520  178.3230  144.5060 C   0  0  1  0  0  3  0  0  0  0  0  0
  184.5780  178.8350  142.3800 C   0  0  2  0  0  3  0  0  0  0  0  0
  184.8140  180.5500  144.0030 O   0  0  0  0  0  1  0  0  0  0  0  0
  181.4160  179.1590  142.9070 C   0  0  0  0  0  3  0  0  0  0  0  0
  180.4990  179.0110  140.1710 C   0  0  0  0  0  3  0  0  0  0  0  0
  183.4360  177.8880  141.9920 C   0  0  2  0  0  3  0  0  0  0  0  0
  179.6110  179.7780  141.1290 C   0  0  0  0  0  2  0  0  0  0  0  0
  181.6630  178.5190  140.5910 C   0  0  0  0  0  0  0  0  0  0  0  0
  183.6680  177.3490  140.6280 N   0  0  0  0  0  0  0  0  0  0  0  0
  182.1310  178.6110  141.9270 C   0  0  0  0  0  0  0  0  0  0  0  0
  180.1070  179.7540  142.5640 C   0  0  0  0  0  0  0  0  0  0  0  0
  179.4010  180.2640  143.4730 O   0  0  0  0  0  0  0  0  0  0  0  0
  182.5790  177.7700  139.8360 N   0  0  0  0  0  0  0  0  0  0  0  0
  186.1520  178.9580  145.5980 O   0  0  0  0  0  0  0  0  0  0  0  0
  185.9550  178.0880  146.6710 C   0  0  0  0  0  2  0  0  0  0  0  0
  187.1690  178.1180  147.5750 C   0  0  0  0  0  1  0  0  0  0  0  0
  186.6450  179.1130  141.3070 C   0  0  0  0  0  2  0  0  0  0  0  0
  188.1200  178.7810  141.4190 C   0  0  0  0  0  2  0  0  0  0  0  0
  188.9830  177.7700  139.1050 C   0  0  0  0  0  0  0  0  0  0  0  0
  188.5930  178.2270  140.1500 C   0  0  0  0  0  0  0  0  0  0  0  0
  187.5950  175.6970  137.4230 O   0  0  0  0  0  0  0  0  0  0  0  0
  189.4600  177.2170  137.8330 C   0  0  2  0  0  3  0  0  0  0  0  0
  188.8280  175.9110  137.5720 C   0  0  0  0  0  0  0  0  0  0  0  0
  189.6970  173.7180  137.2480 O   0  0  0  0  0  0  0  0  0  0  0  0
  191.1410  175.6310  137.6690 C   0  0  0  0  0  2  0  0  0  0  0  0
  190.8660  177.0090  137.9000 O   0  0  0  0  0  0  0  0  0  0  0  0
  189.8540  174.9470  137.4730 C   0  0  0  0  0  0  0  0  0  0  0  0
  187.1460  176.6720  143.5390 C   0  0  0  0  0  2  0  0  0  0  0  0
  188.7420  176.7360  144.4030 S   0  0  0  0  0  0  0  0  0  0  0  0
  189.5730  175.8390  143.0640 C   0  0  0  0  0  2  0  0  0  0  0  0
  190.9350  176.4520  142.8160 C   0  0  0  0  0  1  0  0  0  0  0  0
  1  3  1  0  0  0  0
  2  6  1  6  0  0  0
  2  4  1  0  0  0  0
  3 31  1  1  0  0  0
  3  4  1  0  0  0  0
  4 17  1  1  0  0  0
  5  1  1  1  0  0  0
  5  2  1  0  0  0  0
  8 11  2  0  0  0  0
  8 10  1  0  0  0  0
  9 12  1  6  0  0  0
  9  5  1  0  0  0  0
 10 14  1  0  0  0  0
 11 13  1  0  0  0  0
 13  9  1  0  0  0  0
 13  7  2  0  0  0  0
 14  7  1  0  0  0  0
 14 15  2  0  0  0  0
 16 11  1  0  0  0  0
 16 12  2  0  0  0  0
 17 18  1  0  0  0  0
 18 19  1  0  0  0  0
 20 21  1  0  0  0  0
 20  1  1  0  0  0  0
 22 23  3  0  0  0  0
 23 21  1  0  0  0  0
 24 26  2  0  0  0  0
 25 29  1  0  0  0  0
 25 22  1  1  0  0  0
 26 25  1  0  0  0  0
 27 30  2  0  0  0  0
 28 29  1  0  0  0  0
 30 26  1  0  0  0  0
 30 28  1  0  0  0  0
 31 32  1  0  0  0  0
 33 32  1  0  0  0  0
 34 33  1  0  0  0  0
M  END
>  <MODEL>
5

>  <REMARK>
 VINA RESULT:      -6.1      2.949      7.041
  Name = 
  10 active torsions:
  status: ('A' for Active; 'I' for Inactive)
    1  A    between atoms: C_3  and  C_13
    2  A    between atoms: C_4  and  C_31
    3  A    between atoms: N_5  and  C_18
    4  A    between atoms: C_7  and  O_8
    5  A    between atoms: O_8  and  C_28
    6  A    between atoms: C_12  and  S_16
    7  A    between atoms: S_16  and  C_23
    8  A    between atoms: C_17  and  C_29
    9  A    between atoms: C_18  and  C_29
   10  A    between atoms: C_23  and  C_26
                            x       y       z     vdW  Elec       q    Type
                         _______ _______ _______ _____ _____    ______ ____

>  <TORSDO>
F 10

$$$$
=
 OpenBabel10262419133D

 34 37  0  0  1  0  0  0  0  0999 V2000
  188.6620  177.6110  140.7330 N   0  0  0  0  0  0  0  0  0  0  0  0
  190.9650  176.9820  141.1330 C   0  0  2  0  0  3  0  0  0  0  0  0
  189.2700  177.2180  139.4640 C   0  0  1  0  0  3  0  0  0  0  0  0
  190.5430  176.4630  139.7750 C   0  0  1  0  0  3  0  0  0  0  0  0
  189.6660  177.4260  141.7840 C   0  0  2  0  0  3  0  0  0  0  0  0
  191.8050  178.0930  141.0040 O   0  0  0  0  0  1  0  0  0  0  0  0
  190.8090  176.7820  144.7260 C   0  0  0  0  0  3  0  0  0  0  0  0
  188.3880  177.2200  146.2420 C   0  0  0  0  0  3  0  0  0  0  0  0
  189.1810  176.3810  142.7960 C   0  0  2  0  0  3  0  0  0  0  0  0
  189.6880  177.4240  146.9920 C   0  0  0  0  0  2  0  0  0  0  0  0
  188.4070  176.9320  144.9410 C   0  0  0  0  0  0  0  0  0  0  0  0
  187.6970  176.3430  142.8110 N   0  0  0  0  0  0  0  0  0  0  0  0
  189.5930  176.7420  144.1860 C   0  0  0  0  0  0  0  0  0  0  0  0
  190.9200  177.1040  146.1640 C   0  0  0  0  0  0  0  0  0  0  0  0
  192.0560  177.1320  146.7060 O   0  0  0  0  0  0  0  0  0  0  0  0
  187.2960  176.6920  144.1190 N   0  0  0  0  0  0  0  0  0  0  0  0
  191.5160  176.7040  138.8000 O   0  0  0  0  0  0  0  0  0  0  0  0
  191.6210  175.5040  138.0960 C   0  0  0  0  0  2  0  0  0  0  0  0
  192.2470  175.7660  136.7420 C   0  0  0  0  0  1  0  0  0  0  0  0
  188.3890  179.0390  140.6570 C   0  0  0  0  0  2  0  0  0  0  0  0
  187.3790  179.4240  141.7200 C   0  0  0  0  0  2  0  0  0  0  0  0
  184.9620  178.5450  141.0090 C   0  0  0  0  0  0  0  0  0  0  0  0
  186.0540  178.9410  141.3310 C   0  0  0  0  0  0  0  0  0  0  0  0
  183.8830  178.3310  138.2080 O   0  0  0  0  0  0  0  0  0  0  0  0
  183.6320  178.0630  140.6200 C   0  0  2  0  0  3  0  0  0  0  0  0
  183.2720  178.5700  139.2840 C   0  0  0  0  0  0  0  0  0  0  0  0
  181.4830  179.9220  138.4830 O   0  0  0  0  0  0  0  0  0  0  0  0
  181.6960  179.3200  140.8300 C   0  0  0  0  0  2  0  0  0  0  0  0
  182.6610  178.5490  141.5410 O   0  0  0  0  0  0  0  0  0  0  0  0
  182.0930  179.3350  139.4150 C   0  0  0  0  0  0  0  0  0  0  0  0
  188.3060  176.3350  138.6890 C   0  0  0  0  0  2  0  0  0  0  0  0
  187.3330  177.3350  137.5270 S   0  0  0  0  0  0  0  0  0  0  0  0
  188.8110  178.2080  136.9430 C   0  0  0  0  0  2  0  0  0  0  0  0
  189.2330  177.6430  135.6030 C   0  0  0  0  0  1  0  0  0  0  0  0
  2  6  1  6  0  0  0
  2  5  1  0  0  0  0
  3 31  1  1  0  0  0
  3  4  1  0  0  0  0
  3  1  1  0  0  0  0
  4 17  1  6  0  0  0
  4  2  1  0  0  0  0
  5  1  1  6  0  0  0
  5  9  1  0  0  0  0
  7 14  1  0  0  0  0
  8 10  1  0  0  0  0
  9 12  1  1  0  0  0
  9 13  1  0  0  0  0
 11  8  2  0  0  0  0
 12 16  2  0  0  0  0
 13  7  2  0  0  0  0
 13 11  1  0  0  0  0
 14 15  2  0  0  0  0
 14 10  1  0  0  0  0
 16 11  1  0  0  0  0
 18 17  1  0  0  0  0
 19 18  1  0  0  0  0
 20  1  1  0  0  0  0
 20 21  1  0  0  0  0
 22 23  3  0  0  0  0
 23 21  1  0  0  0  0
 24 26  2  0  0  0  0
 25 22  1  1  0  0  0
 25 29  1  0  0  0  0
 26 30  1  0  0  0  0
 26 25  1  0  0  0  0
 27 30  2  0  0  0  0
 28 29  1  0  0  0  0
 30 28  1  0  0  0  0
 32 31  1  0  0  0  0
 33 32  1  0  0  0  0
 34 33  1  0  0  0  0
M  END
>  <MODEL>
6

>  <REMARK>
 VINA RESULT:      -6.0      2.428      5.962
  Name = 
  10 active torsions:
  status: ('A' for Active; 'I' for Inactive)
    1  A    between atoms: C_3  and  C_13
    2  A    between atoms: C_4  and  C_31
    3  A    between atoms: N_5  and  C_18
    4  A    between atoms: C_7  and  O_8
    5  A    between atoms: O_8  and  C_28
    6  A    between atoms: C_12  and  S_16
    7  A    between atoms: S_16  and  C_23
    8  A    between atoms: C_17  and  C_29
    9  A    between atoms: C_18  and  C_29
   10  A    between atoms: C_23  and  C_26
                            x       y       z     vdW  Elec       q    Type
                         _______ _______ _______ _____ _____    ______ ____

>  <TORSDO>
F 10

$$$$
=
 OpenBabel10262419133D

 34 37  0  0  1  0  0  0  0  0999 V2000
  187.2880  177.8560  144.3860 N   0  0  0  0  0  0  0  0  0  0  0  0
  188.8850  176.5180  143.1530 C   0  0  2  0  0  3  0  0  0  0  0  0
  188.3630  177.4530  145.2900 C   0  0  1  0  0  3  0  0  0  0  0  0
  189.5240  176.9780  144.4450 C   0  0  1  0  0  3  0  0  0  0  0  0
  187.6100  177.3400  143.0530 C   0  0  2  0  0  3  0  0  0  0  0  0
  188.5430  175.1640  143.2180 O   0  0  0  0  0  1  0  0  0  0  0  0
  189.7330  177.6430  140.6480 C   0  0  0  0  0  3  0  0  0  0  0  0
  187.8740  178.0120  138.4670 C   0  0  0  0  0  3  0  0  0  0  0  0
  187.7870  178.5000  142.0670 C   0  0  2  0  0  3  0  0  0  0  0  0
  189.2210  177.4240  138.1010 C   0  0  0  0  0  2  0  0  0  0  0  0
  187.5790  178.2570  139.7430 C   0  0  0  0  0  0  0  0  0  0  0  0
  186.4580  179.0020  141.6350 N   0  0  0  0  0  0  0  0  0  0  0  0
  188.4780  178.0530  140.8210 C   0  0  0  0  0  0  0  0  0  0  0  0
  190.1780  177.3270  139.2750 C   0  0  0  0  0  0  0  0  0  0  0  0
  191.3640  176.9540  139.0790 O   0  0  0  0  0  0  0  0  0  0  0  0
  186.3920  178.8190  140.2370 N   0  0  0  0  0  0  0  0  0  0  0  0
  190.2120  175.9420  145.0840 O   0  0  0  0  0  0  0  0  0  0  0  0
  191.5130  176.4220  145.2430 C   0  0  0  0  0  2  0  0  0  0  0  0
  192.0550  175.9760  146.5850 C   0  0  0  0  0  1  0  0  0  0  0  0
  186.0790  177.1740  144.8210 C   0  0  0  0  0  2  0  0  0  0  0  0
  185.1580  178.1580  145.5180 C   0  0  0  0  0  2  0  0  0  0  0  0
  183.2480  178.9410  143.8270 C   0  0  0  0  0  0  0  0  0  0  0  0
  184.1110  178.5860  144.5900 C   0  0  0  0  0  0  0  0  0  0  0  0
  180.2830  178.8980  144.3380 O   0  0  0  0  0  0  0  0  0  0  0  0
  182.1970  179.3690  142.8990 C   0  0  2  0  0  3  0  0  0  0  0  0
  180.9100  178.7450  143.2560 C   0  0  0  0  0  0  0  0  0  0  0  0
  179.4190  177.3050  142.0840 O   0  0  0  0  0  0  0  0  0  0  0  0
  181.4880  178.1100  141.0880 C   0  0  0  0  0  2  0  0  0  0  0  0
  182.5260  178.9520  141.5780 O   0  0  0  0  0  0  0  0  0  0  0  0
  180.4810  177.9780  142.1510 C   0  0  0  0  0  0  0  0  0  0  0  0
  188.7790  178.6380  146.1460 C   0  0  0  0  0  2  0  0  0  0  0  0
  189.3710  178.0670  147.7650 S   0  0  0  0  0  0  0  0  0  0  0  0
  187.6780  177.8620  148.3810 C   0  0  0  0  0  2  0  0  0  0  0  0
  186.8850  179.1220  148.1050 C   0  0  0  0  0  1  0  0  0  0  0  0
  1 20  1  0  0  0  0
  1  3  1  0  0  0  0
  2  6  1  1  0  0  0
  2  4  1  0  0  0  0
  3 31  1  6  0  0  0
  4 17  1  1  0  0  0
  4  3  1  0  0  0  0
  5  2  1  0  0  0  0
  5  1  1  1  0  0  0
  7 13  2  0  0  0  0
  8 11  2  0  0  0  0
  9 13  1  6  0  0  0
  9  5  1  0  0  0  0
 10  8  1  0  0  0  0
 10 14  1  0  0  0  0
 11 16  1  0  0  0  0
 11 13  1  0  0  0  0
 12  9  1  0  0  0  0
 14  7  1  0  0  0  0
 15 14  2  0  0  0  0
 16 12  2  0  0  0  0
 17 18  1  0  0  0  0
 18 19  1  0  0  0  0
 20 21  1  0  0  0  0
 22 23  3  0  0  0  0
 23 21  1  0  0  0  0
 25 26  1  0  0  0  0
 25 22  1  1  0  0  0
 26 24  2  0  0  0  0
 27 30  2  0  0  0  0
 28 29  1  0  0  0  0
 28 30  1  0  0  0  0
 29 25  1  0  0  0  0
 30 26  1  0  0  0  0
 31 32  1  0  0  0  0
 32 33  1  0  0  0  0
 34 33  1  0  0  0  0
M  END
>  <MODEL>
7

>  <REMARK>
 VINA RESULT:      -6.0      2.027      2.497
  Name = 
  10 active torsions:
  status: ('A' for Active; 'I' for Inactive)
    1  A    between atoms: C_3  and  C_13
    2  A    between atoms: C_4  and  C_31
    3  A    between atoms: N_5  and  C_18
    4  A    between atoms: C_7  and  O_8
    5  A    between atoms: O_8  and  C_28
    6  A    between atoms: C_12  and  S_16
    7  A    between atoms: S_16  and  C_23
    8  A    between atoms: C_17  and  C_29
    9  A    between atoms: C_18  and  C_29
   10  A    between atoms: C_23  and  C_26
                            x       y       z     vdW  Elec       q    Type
                         _______ _______ _______ _____ _____    ______ ____

>  <TORSDO>
F 10

$$$$
=
 OpenBabel10262419133D

 34 37  0  0  1  0  0  0  0  0999 V2000
  188.5630  178.1110  139.7280 N   0  0  0  0  0  0  0  0  0  0  0  0
  189.0230  178.0910  142.1050 C   0  0  2  0  0  3  0  0  0  0  0  0
  189.7530  177.2980  139.9710 C   0  0  1  0  0  3  0  0  0  0  0  0
  189.7930  176.9680  141.4460 C   0  0  1  0  0  3  0  0  0  0  0  0
  188.0630  178.5680  141.0270 C   0  0  2  0  0  3  0  0  0  0  0  0
  189.8740  179.1470  142.4470 O   0  0  0  0  0  1  0  0  0  0  0  0
  186.6970  177.6750  143.8060 C   0  0  0  0  0  3  0  0  0  0  0  0
  184.4050  179.4320  143.7510 C   0  0  0  0  0  3  0  0  0  0  0  0
  186.6530  178.0170  141.2730 C   0  0  2  0  0  3  0  0  0  0  0  0
  184.8740  178.9940  145.1230 C   0  0  0  0  0  2  0  0  0  0  0  0
  185.0860  179.0680  142.6660 C   0  0  0  0  0  0  0  0  0  0  0  0
  185.6700  178.7560  140.4410 N   0  0  0  0  0  0  0  0  0  0  0  0
  186.2280  178.2270  142.6890 C   0  0  0  0  0  0  0  0  0  0  0  0
  186.0320  178.0130  145.0810 C   0  0  0  0  0  0  0  0  0  0  0  0
  186.4430  177.4920  146.1510 O   0  0  0  0  0  0  0  0  0  0  0  0
  184.7660  179.3710  141.3340 N   0  0  0  0  0  0  0  0  0  0  0  0
  191.1120  176.9010  141.9050 O   0  0  0  0  0  0  0  0  0  0  0  0
  191.0790  175.9900  142.9610 C   0  0  0  0  0  2  0  0  0  0  0  0
  191.6300  176.6450  144.2100 C   0  0  0  0  0  1  0  0  0  0  0  0
  188.9900  179.2960  139.0000 C   0  0  0  0  0  2  0  0  0  0  0  0
  189.0690  178.9860  137.5180 C   0  0  0  0  0  2  0  0  0  0  0  0
  186.8000  177.8190  136.7330 C   0  0  0  0  0  0  0  0  0  0  0  0
  187.8260  178.3460  137.0870 C   0  0  0  0  0  0  0  0  0  0  0  0
  184.0550  178.2960  137.8690 O   0  0  0  0  0  0  0  0  0  0  0  0
  185.5540  177.1760  136.3040 C   0  0  2  0  0  3  0  0  0  0  0  0
  184.5440  177.2450  137.3750 C   0  0  0  0  0  0  0  0  0  0  0  0
  183.3450  175.5860  138.5910 O   0  0  0  0  0  0  0  0  0  0  0  0
  184.9640  175.0080  136.8700 C   0  0  0  0  0  2  0  0  0  0  0  0
  185.7980  175.8010  136.0300 O   0  0  0  0  0  0  0  0  0  0  0  0
  184.1870  175.9230  137.7180 C   0  0  0  0  0  0  0  0  0  0  0  0
  189.6770  176.0250  139.1440 C   0  0  0  0  0  2  0  0  0  0  0  0
  191.1640  175.8530  138.1170 S   0  0  0  0  0  0  0  0  0  0  0  0
  190.4650  174.4350  137.2310 C   0  0  0  0  0  2  0  0  0  0  0  0
  189.1840  174.8530  136.5410 C   0  0  0  0  0  1  0  0  0  0  0  0
  1  3  1  0  0  0  0
  2  6  1  6  0  0  0
  3 31  1  6  0  0  0
  3  4  1  0  0  0  0
  4 17  1  1  0  0  0
  4  2  1  0  0  0  0
  5  1  1  6  0  0  0
  5  9  1  0  0  0  0
  5  2  1  0  0  0  0
  7 14  1  0  0  0  0
  8 10  1  0  0  0  0
  9 12  1  6  0  0  0
  9 13  1  0  0  0  0
 11 13  1  0  0  0  0
 11  8  2  0  0  0  0
 12 16  2  0  0  0  0
 13  7  2  0  0  0  0
 14 10  1  0  0  0  0
 14 15  2  0  0  0  0
 16 11  1  0  0  0  0
 17 18  1  0  0  0  0
 18 19  1  0  0  0  0
 20  1  1  0  0  0  0
 21 20  1  0  0  0  0
 22 23  3  0  0  0  0
 23 21  1  0  0  0  0
 25 22  1  1  0  0  0
 25 26  1  0  0  0  0
 26 30  1  0  0  0  0
 26 24  2  0  0  0  0
 28 30  1  0  0  0  0
 29 25  1  0  0  0  0
 29 28  1  0  0  0  0
 30 27  2  0  0  0  0
 32 31  1  0  0  0  0
 33 32  1  0  0  0  0
 34 33  1  0  0  0  0
M  END
>  <MODEL>
8

>  <REMARK>
 VINA RESULT:      -5.8      2.769      5.999
  Name = 
  10 active torsions:
  status: ('A' for Active; 'I' for Inactive)
    1  A    between atoms: C_3  and  C_13
    2  A    between atoms: C_4  and  C_31
    3  A    between atoms: N_5  and  C_18
    4  A    between atoms: C_7  and  O_8
    5  A    between atoms: O_8  and  C_28
    6  A    between atoms: C_12  and  S_16
    7  A    between atoms: S_16  and  C_23
    8  A    between atoms: C_17  and  C_29
    9  A    between atoms: C_18  and  C_29
   10  A    between atoms: C_23  and  C_26
                            x       y       z     vdW  Elec       q    Type
                         _______ _______ _______ _____ _____    ______ ____

>  <TORSDO>
F 10

$$$$
=
 OpenBabel10262419133D

 34 37  0  0  1  0  0  0  0  0999 V2000
  188.6960  177.8350  140.7920 N   0  0  0  0  0  0  0  0  0  0  0  0
  189.5200  178.2160  143.0360 C   0  0  2  0  0  3  0  0  0  0  0  0
  190.0720  177.3530  140.8760 C   0  0  1  0  0  3  0  0  0  0  0  0
  190.4280  177.2250  142.3400 C   0  0  1  0  0  3  0  0  0  0  0  0
  188.3130  178.3220  142.1190 C   0  0  2  0  0  3  0  0  0  0  0  0
  190.1270  179.4720  143.1270 O   0  0  0  0  0  1  0  0  0  0  0  0
  187.6650  177.5030  145.1670 C   0  0  0  0  0  3  0  0  0  0  0  0
  185.0280  178.6630  145.3820 C   0  0  0  0  0  3  0  0  0  0  0  0
  187.1410  177.4980  142.6650 C   0  0  2  0  0  3  0  0  0  0  0  0
  185.8010  178.5240  146.6770 C   0  0  0  0  0  2  0  0  0  0  0  0
  185.6000  178.3290  144.2260 C   0  0  0  0  0  0  0  0  0  0  0  0
  185.8870  177.8780  141.9670 N   0  0  0  0  0  0  0  0  0  0  0  0
  186.9040  177.7840  144.1120 C   0  0  0  0  0  0  0  0  0  0  0  0
  187.1440  177.8390  146.5090 C   0  0  0  0  0  0  0  0  0  0  0  0
  187.8340  177.5680  147.5260 O   0  0  0  0  0  0  0  0  0  0  0  0
  185.0100  178.3770  142.9530 N   0  0  0  0  0  0  0  0  0  0  0  0
  191.7790  177.5200  142.5510 O   0  0  0  0  0  0  0  0  0  0  0  0
  192.0440  177.0800  143.8490 C   0  0  0  0  0  2  0  0  0  0  0  0
  191.6800  175.6150  143.9680 C   0  0  0  0  0  1  0  0  0  0  0  0
  188.6950  178.9870  139.9030 C   0  0  0  0  0  2  0  0  0  0  0  0
  188.2940  178.5550  138.5050 C   0  0  0  0  0  2  0  0  0  0  0  0
  185.6380  178.3400  138.3700 C   0  0  0  0  0  0  0  0  0  0  0  0
  186.8380  178.4370  138.4300 C   0  0  0  0  0  0  0  0  0  0  0  0
  183.6260  180.4580  139.0920 O   0  0  0  0  0  0  0  0  0  0  0  0
  184.1780  178.2190  138.2940 C   0  0  2  0  0  3  0  0  0  0  0  0
  183.5340  179.2040  139.1810 C   0  0  0  0  0  0  0  0  0  0  0  0
  182.0580  179.0020  141.0390 O   0  0  0  0  0  0  0  0  0  0  0  0
  182.9020  177.0590  139.8410 C   0  0  0  0  0  2  0  0  0  0  0  0
  183.7840  176.9230  138.7310 O   0  0  0  0  0  0  0  0  0  0  0  0
  182.7570  178.4950  140.1230 C   0  0  0  0  0  0  0  0  0  0  0  0
  190.1830  176.0040  140.1850 C   0  0  0  0  0  2  0  0  0  0  0  0
  191.2270  176.1390  138.7050 S   0  0  0  0  0  0  0  0  0  0  0  0
  189.9500  175.3910  137.6590 C   0  0  0  0  0  2  0  0  0  0  0  0
  190.0510  175.9570  136.2580 C   0  0  0  0  0  1  0  0  0  0  0  0
  1  3  1  0  0  0  0
  2  6  1  6  0  0  0
  3 31  1  6  0  0  0
  3  4  1  0  0  0  0
  4 17  1  6  0  0  0
  4  2  1  0  0  0  0
  5  1  1  6  0  0  0
  5  9  1  0  0  0  0
  5  2  1  0  0  0  0
  7 14  1  0  0  0  0
  8 10  1  0  0  0  0
  9 12  1  6  0  0  0
  9 13  1  0  0  0  0
 11  8  2  0  0  0  0
 12 16  2  0  0  0  0
 13 11  1  0  0  0  0
 13  7  2  0  0  0  0
 14 10  1  0  0  0  0
 14 15  2  0  0  0  0
 16 11  1  0  0  0  0
 17 18  1  0  0  0  0
 18 19  1  0  0  0  0
 20  1  1  0  0  0  0
 21 20  1  0  0  0  0
 22 23  3  0  0  0  0
 23 21  1  0  0  0  0
 24 26  2  0  0  0  0
 25 22  1  1  0  0  0
 25 29  1  0  0  0  0
 25 26  1  0  0  0  0
 26 30  1  0  0  0  0
 28 30  1  0  0  0  0
 29 28  1  0  0  0  0
 30 27  2  0  0  0  0
 32 31  1  0  0  0  0
 33 32  1  0  0  0  0
 34 33  1  0  0  0  0
M  END
>  <MODEL>
9

>  <REMARK>
 VINA RESULT:      -5.8      2.463      5.782
  Name = 
  10 active torsions:
  status: ('A' for Active; 'I' for Inactive)
    1  A    between atoms: C_3  and  C_13
    2  A    between atoms: C_4  and  C_31
    3  A    between atoms: N_5  and  C_18
    4  A    between atoms: C_7  and  O_8
    5  A    between atoms: O_8  and  C_28
    6  A    between atoms: C_12  and  S_16
    7  A    between atoms: S_16  and  C_23
    8  A    between atoms: C_17  and  C_29
    9  A    between atoms: C_18  and  C_29
   10  A    between atoms: C_23  and  C_26
                            x       y       z     vdW  Elec       q    Type
                         _______ _______ _______ _____ _____    ______ ____

>  <TORSDO>
F 10

$$$$
