=
 OpenBabel10262420013D

 27 32  0  0  1  0  0  0  0  0999 V2000
  181.8040  178.7550  142.0430 C   0  0  2  0  0  0  0  0  0  0  0  0
  179.3060  178.6990  139.1690 S   0  0  0  0  0  0  0  0  0  0  0  0
  182.3050  176.7830  140.5360 N   0  0  0  0  0  2  0  0  0  0  0  0
  179.1000  174.0830  137.2700 C   0  0  0  0  0  2  0  0  0  0  0  0
  180.1650  172.4580  135.8220 O   0  0  0  0  0  0  0  0  0  0  0  0
  180.0790  177.0890  139.5550 C   0  0  2  0  0  3  0  0  0  0  0  0
  180.5440  181.7660  137.8400 C   0  0  0  0  0  3  0  0  0  0  0  0
  182.0840  176.0730  138.1730 C   0  0  0  0  0  2  0  0  0  0  0  0
  180.4010  179.9220  140.0580 C   0  0  2  0  0  0  0  0  0  0  0  0
  184.8950  179.2970  140.6030 C   0  0  0  0  0  1  0  0  0  0  0  0
  181.7130  180.1400  139.2680 C   0  0  0  0  0  2  0  0  0  0  0  0
  181.5190  173.9090  137.0820 N   0  0  0  0  0  2  0  0  0  0  0  0
  184.5470  178.1310  142.7940 C   0  0  0  0  0  2  0  0  0  0  0  0
  181.6030  177.0250  139.2870 C   0  0  2  0  0  3  0  0  0  0  0  0
  180.6640  179.6870  141.5860 C   0  0  1  0  0  3  0  0  0  0  0  0
  180.2660  173.3980  136.6520 C   0  0  0  0  0  0  0  0  0  0  0  0
  179.7930  175.3080  137.8370 C   0  0  2  0  0  3  0  0  0  0  0  0
  180.3660  178.2810  142.0840 C   0  0  0  0  0  2  0  0  0  0  0  0
  181.1990  174.8490  138.1350 C   0  0  2  0  0  3  0  0  0  0  0  0
  184.2350  178.1210  141.2990 C   0  0  1  0  0  3  0  0  0  0  0  0
  179.2170  175.8940  139.1050 C   0  0  0  0  0  2  0  0  0  0  0  0
  183.8050  179.2630  143.4900 C   0  0  0  0  0  2  0  0  0  0  0  0
  181.4900  180.8320  137.9490 C   0  0  0  0  0  3  0  0  0  0  0  0
  182.3120  178.9790  143.4650 C   0  0  0  0  0  2  0  0  0  0  0  0
  179.6650  182.0550  138.9840 C   0  0  0  0  0  3  0  0  0  0  0  0
  182.7350  178.0980  140.9870 C   0  0  2  0  0  3  0  0  0  0  0  0
  179.6260  181.2220  140.0320 C   0  0  0  0  0  3  0  0  0  0  0  0
  1 18  1  1  0  0  0
  1 24  1  0  0  0  0
  2  6  1  0  0  0  0
  2  9  1  0  0  0  0
  5 16  2  0  0  0  0
  6 21  1  6  0  0  0
  7 23  2  0  0  0  0
  7 25  1  0  0  0  0
  9 11  1  6  0  0  0
  9 15  1  0  0  0  0
 12 19  1  0  0  0  0
 13 22  1  0  0  0  0
 14  8  1  6  0  0  0
 14  6  1  0  0  0  0
 14  3  1  0  0  0  0
 15  1  1  0  0  0  0
 15 18  1  6  0  0  0
 16 12  1  0  0  0  0
 16  4  1  0  0  0  0
 17  4  1  1  0  0  0
 17 19  1  0  0  0  0
 17 21  1  0  0  0  0
 19  8  1  6  0  0  0
 20 10  1  6  0  0  0
 20 13  1  0  0  0  0
 23 11  1  0  0  0  0
 24 22  1  0  0  0  0
 25 27  2  0  0  0  0
 26  3  1  1  0  0  0
 26 20  1  0  0  0  0
 26  1  1  0  0  0  0
 27  9  1  0  0  0  0
M  END
>  <MODEL>
1

>  <REMARK>
 VINA RESULT:      -6.1      0.000      0.000
  Name = 
  0 active torsions:
  status: ('A' for Active; 'I' for Inactive)
                            x       y       z     vdW  Elec       q    Type
                         _______ _______ _______ _____ _____    ______ ____

>  <TORSDO>
F 0

$$$$
=
 OpenBabel10262420013D

 27 32  0  0  1  0  0  0  0  0999 V2000
  185.1960  177.0590  135.5530 C   0  0  2  0  0  0  0  0  0  0  0  0
  182.3080  174.8150  136.6100 S   0  0  0  0  0  0  0  0  0  0  0  0
  184.2580  177.8840  137.7550 N   0  0  0  0  0  2  0  0  0  0  0  0
  179.4020  177.2950  139.8290 C   0  0  0  0  0  2  0  0  0  0  0  0
  179.1160  178.0320  142.1190 O   0  0  0  0  0  0  0  0  0  0  0  0
  182.2820  176.4960  137.3230 C   0  0  2  0  0  3  0  0  0  0  0  0
  184.4540  172.0000  137.0220 C   0  0  0  0  0  3  0  0  0  0  0  0
  183.0910  177.0460  139.7730 C   0  0  0  0  0  2  0  0  0  0  0  0
  184.0490  174.6540  135.9580 C   0  0  2  0  0  0  0  0  0  0  0  0
  187.6450  176.6490  137.9530 C   0  0  0  0  0  1  0  0  0  0  0  0
  185.0340  174.3880  137.1210 C   0  0  0  0  0  2  0  0  0  0  0  0
  181.2840  177.9700  141.2140 N   0  0  0  0  0  2  0  0  0  0  0  0
  187.3880  178.7030  136.5400 C   0  0  0  0  0  2  0  0  0  0  0  0
  183.4510  176.8020  138.2930 C   0  0  2  0  0  3  0  0  0  0  0  0
  184.5700  175.7690  134.9870 C   0  0  1  0  0  3  0  0  0  0  0  0
  179.8770  177.7920  141.1460 C   0  0  0  0  0  0  0  0  0  0  0  0
  180.7220  176.8420  139.2330 C   0  0  2  0  0  3  0  0  0  0  0  0
  183.7810  177.0690  135.0140 C   0  0  0  0  0  2  0  0  0  0  0  0
  181.7540  177.7440  139.8630 C   0  0  2  0  0  3  0  0  0  0  0  0
  186.7180  177.7840  137.5600 C   0  0  1  0  0  3  0  0  0  0  0  0
  180.8670  176.9460  137.7330 C   0  0  0  0  0  2  0  0  0  0  0  0
  187.5010  178.0140  135.1880 C   0  0  0  0  0  2  0  0  0  0  0  0
  184.8230  173.0430  137.7660 C   0  0  0  0  0  3  0  0  0  0  0  0
  186.1140  177.8230  134.6000 C   0  0  0  0  0  2  0  0  0  0  0  0
  184.1700  172.1850  135.5900 C   0  0  0  0  0  3  0  0  0  0  0  0
  185.3710  177.2260  137.0870 C   0  0  2  0  0  3  0  0  0  0  0  0
  184.0210  173.4160  135.0860 C   0  0  0  0  0  3  0  0  0  0  0  0
  1 24  1  6  0  0  0
  1 26  1  0  0  0  0
  2  6  1  0  0  0  0
  3 14  1  0  0  0  0
  4 16  1  0  0  0  0
  6 21  1  1  0  0  0
  6 14  1  0  0  0  0
  7 23  2  0  0  0  0
  9 27  1  6  0  0  0
  9  2  1  0  0  0  0
  9 11  1  0  0  0  0
 11 23  1  0  0  0  0
 13 20  1  0  0  0  0
 14  8  1  1  0  0  0
 15 18  1  1  0  0  0
 15  1  1  0  0  0  0
 15  9  1  0  0  0  0
 16 12  1  0  0  0  0
 16  5  2  0  0  0  0
 17 21  1  6  0  0  0
 17  4  1  0  0  0  0
 17 19  1  0  0  0  0
 18  1  1  0  0  0  0
 19  8  1  1  0  0  0
 19 12  1  0  0  0  0
 20 10  1  6  0  0  0
 22 13  1  0  0  0  0
 24 22  1  0  0  0  0
 25  7  1  0  0  0  0
 26 20  1  0  0  0  0
 26  3  1  6  0  0  0
 27 25  2  0  0  0  0
M  END
>  <MODEL>
2

>  <REMARK>
 VINA RESULT:      -5.7      3.917      6.819
  Name = 
  0 active torsions:
  status: ('A' for Active; 'I' for Inactive)
                            x       y       z     vdW  Elec       q    Type
                         _______ _______ _______ _____ _____    ______ ____

>  <TORSDO>
F 0

$$$$
=
 OpenBabel10262420013D

 27 32  0  0  1  0  0  0  0  0999 V2000
  180.0370  180.0890  139.3960 C   0  0  2  0  0  0  0  0  0  0  0  0
  181.3970  177.2310  141.5130 S   0  0  0  0  0  0  0  0  0  0  0  0
  182.5670  180.1090  139.3040 N   0  0  0  0  0  2  0  0  0  0  0  0
  186.1220  178.2380  142.7820 C   0  0  0  0  0  2  0  0  0  0  0  0
  188.4360  178.2480  142.0630 O   0  0  0  0  0  0  0  0  0  0  0  0
  182.5540  178.6190  141.2530 C   0  0  2  0  0  3  0  0  0  0  0  0
  179.9840  174.7690  139.3580 C   0  0  0  0  0  3  0  0  0  0  0  0
  184.5020  178.5710  139.4740 C   0  0  0  0  0  2  0  0  0  0  0  0
  180.0820  177.5230  140.2210 C   0  0  2  0  0  0  0  0  0  0  0  0
  180.9730  179.3900  136.1460 C   0  0  0  0  0  1  0  0  0  0  0  0
  180.5950  177.0910  138.8270 C   0  0  0  0  0  2  0  0  0  0  0  0
  186.7630  178.7700  140.4960 N   0  0  0  0  0  2  0  0  0  0  0  0
  180.5210  181.6970  137.0170 C   0  0  0  0  0  2  0  0  0  0  0  0
  183.0110  178.8110  139.7850 C   0  0  2  0  0  3  0  0  0  0  0  0
  179.3950  178.9320  140.1860 C   0  0  1  0  0  3  0  0  0  0  0  0
  187.2170  178.4090  141.7920 C   0  0  0  0  0  0  0  0  0  0  0  0
  184.9340  178.1750  141.8410 C   0  0  2  0  0  3  0  0  0  0  0  0
  180.1520  180.0380  140.9050 C   0  0  0  0  0  2  0  0  0  0  0  0
  185.3430  179.0070  140.6510 C   0  0  2  0  0  3  0  0  0  0  0  0
  181.3730  180.4380  137.1680 C   0  0  1  0  0  3  0  0  0  0  0  0
  183.6220  178.7180  142.3590 C   0  0  0  0  0  2  0  0  0  0  0  0
  179.0970  181.4410  137.4870 C   0  0  0  0  0  2  0  0  0  0  0  0
  180.8050  175.6030  138.7200 C   0  0  0  0  0  3  0  0  0  0  0  0
  179.0930  181.2180  138.9900 C   0  0  0  0  0  2  0  0  0  0  0  0
  178.9310  175.3050  140.2350 C   0  0  0  0  0  3  0  0  0  0  0  0
  181.3350  179.8400  138.5790 C   0  0  2  0  0  3  0  0  0  0  0  0
  178.9520  176.5920  140.6050 C   0  0  0  0  0  3  0  0  0  0  0  0
  1 24  1  6  0  0  0
  1 15  1  0  0  0  0
  1 18  1  0  0  0  0
  3 14  1  0  0  0  0
  6  2  1  0  0  0  0
  6 21  1  1  0  0  0
  7 25  1  0  0  0  0
  9 11  1  6  0  0  0
  9 27  1  0  0  0  0
  9  2  1  0  0  0  0
 12 19  1  0  0  0  0
 12 16  1  0  0  0  0
 13 20  1  0  0  0  0
 13 22  1  0  0  0  0
 14  8  1  1  0  0  0
 14  6  1  0  0  0  0
 15  9  1  0  0  0  0
 15 18  1  1  0  0  0
 16  5  2  0  0  0  0
 16  4  1  0  0  0  0
 17 21  1  1  0  0  0
 17  4  1  0  0  0  0
 19  8  1  6  0  0  0
 19 17  1  0  0  0  0
 20 10  1  6  0  0  0
 20 26  1  0  0  0  0
 22 24  1  0  0  0  0
 23 11  1  0  0  0  0
 23  7  2  0  0  0  0
 25 27  2  0  0  0  0
 26  3  1  1  0  0  0
 26  1  1  0  0  0  0
M  END
>  <MODEL>
3

>  <REMARK>
 VINA RESULT:      -5.6      3.055      6.115
  Name = 
  0 active torsions:
  status: ('A' for Active; 'I' for Inactive)
                            x       y       z     vdW  Elec       q    Type
                         _______ _______ _______ _____ _____    ______ ____

>  <TORSDO>
F 0

$$$$
=
 OpenBabel10262420013D

 27 32  0  0  1  0  0  0  0  0999 V2000
  180.1760  176.8590  139.6210 C   0  0  2  0  0  0  0  0  0  0  0  0
  180.0010  180.1370  141.5510 S   0  0  0  0  0  0  0  0  0  0  0  0
  180.6830  178.7820  138.0540 N   0  0  0  0  0  2  0  0  0  0  0  0
  179.2440  183.8890  138.3420 C   0  0  0  0  0  2  0  0  0  0  0  0
  180.2560  185.3820  136.7240 O   0  0  0  0  0  0  0  0  0  0  0  0
  179.7450  180.2860  139.7500 C   0  0  2  0  0  3  0  0  0  0  0  0
  182.8030  179.2630  143.5740 C   0  0  0  0  0  3  0  0  0  0  0  0
  181.6270  181.0730  138.0760 C   0  0  0  0  0  2  0  0  0  0  0  0
  180.7350  178.4300  141.7390 C   0  0  2  0  0  0  0  0  0  0  0  0
  183.4570  176.5360  138.5950 C   0  0  0  0  0  1  0  0  0  0  0  0
  182.2260  178.4400  141.3290 C   0  0  0  0  0  2  0  0  0  0  0  0
  181.0480  183.1740  136.8750 N   0  0  0  0  0  2  0  0  0  0  0  0
  181.5050  175.4850  137.4250 C   0  0  0  0  0  2  0  0  0  0  0  0
  180.9850  179.9310  138.8910 C   0  0  2  0  0  3  0  0  0  0  0  0
  179.9560  177.2280  141.1010 C   0  0  1  0  0  3  0  0  0  0  0  0
  180.1960  184.2440  137.2580 C   0  0  0  0  0  0  0  0  0  0  0  0
  179.8730  182.5940  138.8220 C   0  0  2  0  0  3  0  0  0  0  0  0
  178.9310  177.6110  140.0440 C   0  0  0  0  0  2  0  0  0  0  0  0
  180.5530  182.0250  137.6010 C   0  0  2  0  0  3  0  0  0  0  0  0
  182.1400  176.7960  137.8870 C   0  0  1  0  0  3  0  0  0  0  0  0
  178.9370  181.5400  139.3670 C   0  0  0  0  0  2  0  0  0  0  0  0
  180.9810  174.6930  138.6130 C   0  0  0  0  0  2  0  0  0  0  0  0
  183.0830  179.2460  142.2700 C   0  0  0  0  0  3  0  0  0  0  0  0
  179.8060  175.4300  139.2330 C   0  0  0  0  0  2  0  0  0  0  0  0
  181.6080  178.5660  144.0760 C   0  0  0  0  0  3  0  0  0  0  0  0
  181.2210  177.6390  138.7770 C   0  0  2  0  0  3  0  0  0  0  0  0
  180.6670  178.1430  143.2240 C   0  0  0  0  0  3  0  0  0  0  0  0
  1 24  1  6  0  0  0
  1 18  1  0  0  0  0
  1 15  1  0  0  0  0
  2  9  1  0  0  0  0
  3 14  1  0  0  0  0
  5 16  2  0  0  0  0
  6 21  1  1  0  0  0
  6  2  1  0  0  0  0
  7 25  1  0  0  0  0
  9 11  1  6  0  0  0
  9 27  1  0  0  0  0
 11 23  1  0  0  0  0
 12 16  1  0  0  0  0
 12 19  1  0  0  0  0
 13 20  1  0  0  0  0
 13 22  1  0  0  0  0
 14  8  1  6  0  0  0
 14  6  1  0  0  0  0
 15 18  1  6  0  0  0
 15  9  1  0  0  0  0
 16  4  1  0  0  0  0
 17  4  1  6  0  0  0
 17 21  1  0  0  0  0
 19  8  1  1  0  0  0
 19 17  1  0  0  0  0
 20 10  1  1  0  0  0
 20 26  1  0  0  0  0
 22 24  1  0  0  0  0
 23  7  2  0  0  0  0
 26  3  1  6  0  0  0
 26  1  1  0  0  0  0
 27 25  2  0  0  0  0
M  END
>  <MODEL>
4

>  <REMARK>
 VINA RESULT:      -5.5      3.182      6.132
  Name = 
  0 active torsions:
  status: ('A' for Active; 'I' for Inactive)
                            x       y       z     vdW  Elec       q    Type
                         _______ _______ _______ _____ _____    ______ ____

>  <TORSDO>
F 0

$$$$
=
 OpenBabel10262420013D

 27 32  0  0  1  0  0  0  0  0999 V2000
  186.7690  177.0460  135.3950 C   0  0  2  0  0  0  0  0  0  0  0  0
  183.3360  175.5150  136.0030 S   0  0  0  0  0  0  0  0  0  0  0  0
  185.6630  178.2200  137.3470 N   0  0  0  0  0  2  0  0  0  0  0  0
  180.5090  178.7800  138.5150 C   0  0  0  0  0  2  0  0  0  0  0  0
  179.9980  179.7460  140.6770 O   0  0  0  0  0  0  0  0  0  0  0  0
  183.5430  177.2210  136.6220 C   0  0  2  0  0  3  0  0  0  0  0  0
  184.7400  172.3740  136.9330 C   0  0  0  0  0  3  0  0  0  0  0  0
  184.0180  177.8000  139.1510 C   0  0  0  0  0  2  0  0  0  0  0  0
  185.0900  174.9580  135.6920 C   0  0  2  0  0  0  0  0  0  0  0  0
  188.6290  176.3580  138.2220 C   0  0  0  0  0  1  0  0  0  0  0  0
  185.7830  174.5990  137.0280 C   0  0  0  0  0  2  0  0  0  0  0  0
  182.2270  179.1810  140.1910 N   0  0  0  0  0  2  0  0  0  0  0  0
  189.0550  178.2980  136.6930 C   0  0  0  0  0  2  0  0  0  0  0  0
  184.5660  177.3680  137.7760 C   0  0  2  0  0  3  0  0  0  0  0  0
  185.9920  175.8630  134.7840 C   0  0  1  0  0  3  0  0  0  0  0  0
  180.8470  179.2800  139.8730 C   0  0  0  0  0  0  0  0  0  0  0  0
  181.7870  178.0270  138.1940 C   0  0  2  0  0  3  0  0  0  0  0  0
  185.5000  177.2920  134.6050 C   0  0  0  0  0  2  0  0  0  0  0  0
  182.8630  178.7550  138.9620 C   0  0  2  0  0  3  0  0  0  0  0  0
  188.0420  177.6180  137.6130 C   0  0  1  0  0  3  0  0  0  0  0  0
  182.2050  177.9750  136.7430 C   0  0  0  0  0  2  0  0  0  0  0  0
  189.2500  177.4900  135.4180 C   0  0  0  0  0  2  0  0  0  0  0  0
  185.1880  173.3810  137.6840 C   0  0  0  0  0  3  0  0  0  0  0  0
  187.9750  177.5300  134.5940 C   0  0  0  0  0  2  0  0  0  0  0  0
  184.7500  172.4930  135.4660 C   0  0  0  0  0  3  0  0  0  0  0  0
  186.7100  177.3010  136.9260 C   0  0  2  0  0  3  0  0  0  0  0  0
  184.9510  173.6830  134.8880 C   0  0  0  0  0  3  0  0  0  0  0  0
  1 24  1  6  0  0  0
  1 26  1  0  0  0  0
  2  6  1  0  0  0  0
  3 14  1  0  0  0  0
  4 16  1  0  0  0  0
  6 21  1  1  0  0  0
  6 14  1  0  0  0  0
  7 23  2  0  0  0  0
  9 27  1  6  0  0  0
  9  2  1  0  0  0  0
  9 11  1  0  0  0  0
 11 23  1  0  0  0  0
 13 20  1  0  0  0  0
 14  8  1  1  0  0  0
 15 18  1  6  0  0  0
 15  1  1  0  0  0  0
 15  9  1  0  0  0  0
 16 12  1  0  0  0  0
 16  5  2  0  0  0  0
 17 21  1  6  0  0  0
 17  4  1  0  0  0  0
 17 19  1  0  0  0  0
 18  1  1  0  0  0  0
 19  8  1  1  0  0  0
 19 12  1  0  0  0  0
 20 10  1  6  0  0  0
 22 13  1  0  0  0  0
 24 22  1  0  0  0  0
 25  7  1  0  0  0  0
 26  3  1  6  0  0  0
 26 20  1  0  0  0  0
 27 25  2  0  0  0  0
M  END
>  <MODEL>
5

>  <REMARK>
 VINA RESULT:      -5.3      4.635      7.382
  Name = 
  0 active torsions:
  status: ('A' for Active; 'I' for Inactive)
                            x       y       z     vdW  Elec       q    Type
                         _______ _______ _______ _____ _____    ______ ____

>  <TORSDO>
F 0

$$$$
=
 OpenBabel10262420013D

 27 32  0  0  1  0  0  0  0  0999 V2000
  190.8190  176.2120  135.4430 C   0  0  2  0  0  0  0  0  0  0  0  0
  187.1390  175.6000  136.2040 S   0  0  0  0  0  0  0  0  0  0  0  0
  190.2490  177.2260  137.6920 N   0  0  0  0  0  2  0  0  0  0  0  0
  185.5870  178.9410  139.5780 C   0  0  0  0  0  2  0  0  0  0  0  0
  185.5360  179.5530  141.9220 O   0  0  0  0  0  0  0  0  0  0  0  0
  187.8830  177.0200  137.0770 C   0  0  2  0  0  3  0  0  0  0  0  0
  187.6140  172.0720  136.3910 C   0  0  0  0  0  3  0  0  0  0  0  0
  188.6850  176.9210  139.5890 C   0  0  0  0  0  2  0  0  0  0  0  0
  188.6230  174.6540  135.5820 C   0  0  2  0  0  0  0  0  0  0  0  0
  192.5870  174.4800  137.8520 C   0  0  0  0  0  1  0  0  0  0  0  0
  189.2720  173.8560  136.7380 C   0  0  0  0  0  2  0  0  0  0  0  0
  187.4590  178.5040  141.0680 N   0  0  0  0  0  2  0  0  0  0  0  0
  193.4580  176.4940  136.6410 C   0  0  0  0  0  2  0  0  0  0  0  0
  188.9830  176.6430  138.1020 C   0  0  2  0  0  3  0  0  0  0  0  0
  189.6870  175.4400  134.7390 C   0  0  1  0  0  3  0  0  0  0  0  0
  186.1510  179.0430  140.9490 C   0  0  0  0  0  0  0  0  0  0  0  0
  186.5590  177.9450  138.9740 C   0  0  2  0  0  3  0  0  0  0  0  0
  189.6280  176.9540  134.8740 C   0  0  0  0  0  2  0  0  0  0  0  0
  187.8530  178.1770  139.7140 C   0  0  2  0  0  3  0  0  0  0  0  0
  192.3570  175.9490  137.5490 C   0  0  1  0  0  3  0  0  0  0  0  0
  186.8400  178.0740  137.4950 C   0  0  0  0  0  2  0  0  0  0  0  0
  193.3170  175.9390  135.2310 C   0  0  0  0  0  2  0  0  0  0  0  0
  188.3900  172.7440  137.2430 C   0  0  0  0  0  3  0  0  0  0  0  0
  192.0550  176.4960  134.5940 C   0  0  0  0  0  2  0  0  0  0  0  0
  187.5550  172.4780  134.9780 C   0  0  0  0  0  3  0  0  0  0  0  0
  190.9460  176.1590  136.9910 C   0  0  2  0  0  3  0  0  0  0  0  0
  188.0580  173.6570  134.5940 C   0  0  0  0  0  3  0  0  0  0  0  0
  1 24  1  6  0  0  0
  1 26  1  0  0  0  0
  2  6  1  0  0  0  0
  3 14  1  0  0  0  0
  4 16  1  0  0  0  0
  6 21  1  1  0  0  0
  6 14  1  0  0  0  0
  7 23  2  0  0  0  0
  9 27  1  6  0  0  0
  9  2  1  0  0  0  0
  9 11  1  0  0  0  0
 11 23  1  0  0  0  0
 13 20  1  0  0  0  0
 14  8  1  1  0  0  0
 15 18  1  1  0  0  0
 15  1  1  0  0  0  0
 15  9  1  0  0  0  0
 16 12  1  0  0  0  0
 16  5  2  0  0  0  0
 17 21  1  6  0  0  0
 17  4  1  0  0  0  0
 17 19  1  0  0  0  0
 18  1  1  0  0  0  0
 19  8  1  1  0  0  0
 19 12  1  0  0  0  0
 20 10  1  6  0  0  0
 22 13  1  0  0  0  0
 24 22  1  0  0  0  0
 25  7  1  0  0  0  0
 26 20  1  0  0  0  0
 26  3  1  1  0  0  0
 27 25  2  0  0  0  0
M  END
>  <MODEL>
6

>  <REMARK>
 VINA RESULT:      -5.3      7.356     10.178
  Name = 
  0 active torsions:
  status: ('A' for Active; 'I' for Inactive)
                            x       y       z     vdW  Elec       q    Type
                         _______ _______ _______ _____ _____    ______ ____

>  <TORSDO>
F 0

$$$$
=
 OpenBabel10262420013D

 27 32  0  0  1  0  0  0  0  0999 V2000
  180.4090  177.0280  139.2370 C   0  0  2  0  0  0  0  0  0  0  0  0
  182.3520  177.5010  135.9970 S   0  0  0  0  0  0  0  0  0  0  0  0
  182.7910  177.6960  139.7790 N   0  0  0  0  0  2  0  0  0  0  0  0
  187.2380  177.0710  136.9390 C   0  0  0  0  0  2  0  0  0  0  0  0
  189.2220  178.1680  137.7960 O   0  0  0  0  0  0  0  0  0  0  0  0
  183.3740  177.1310  137.4640 C   0  0  2  0  0  3  0  0  0  0  0  0
  180.3490  180.2880  135.0330 C   0  0  0  0  0  3  0  0  0  0  0  0
  184.6850  178.9740  138.8210 C   0  0  0  0  0  2  0  0  0  0  0  0
  180.7050  177.9800  136.7330 C   0  0  2  0  0  0  0  0  0  0  0  0
  180.3090  180.1330  140.7450 C   0  0  0  0  0  1  0  0  0  0  0  0
  180.7680  179.4200  137.2960 C   0  0  0  0  0  2  0  0  0  0  0  0
  187.1500  178.6270  138.8070 N   0  0  0  0  0  2  0  0  0  0  0  0
  180.1430  177.9600  141.9830 C   0  0  0  0  0  2  0  0  0  0  0  0
  183.3600  178.2320  138.5540 C   0  0  2  0  0  3  0  0  0  0  0  0
  180.0390  176.9820  137.7420 C   0  0  1  0  0  3  0  0  0  0  0  0
  187.9790  177.9790  137.8540 C   0  0  0  0  0  0  0  0  0  0  0  0
  185.8190  177.5320  137.2140 C   0  0  2  0  0  3  0  0  0  0  0  0
  180.9800  175.9470  138.3420 C   0  0  0  0  0  2  0  0  0  0  0  0
  185.8460  178.0220  138.6410 C   0  0  2  0  0  3  0  0  0  0  0  0
  181.0020  178.8190  141.0570 C   0  0  1  0  0  3  0  0  0  0  0  0
  184.7280  176.4940  137.0990 C   0  0  0  0  0  2  0  0  0  0  0  0
  178.9310  177.4160  141.2420 C   0  0  0  0  0  2  0  0  0  0  0  0
  180.9360  180.4590  136.2180 C   0  0  0  0  0  3  0  0  0  0  0  0
  179.3860  176.4170  140.1920 C   0  0  0  0  0  2  0  0  0  0  0  0
  179.6140  179.0440  134.7520 C   0  0  0  0  0  3  0  0  0  0  0  0
  181.3960  178.1090  139.7570 C   0  0  2  0  0  3  0  0  0  0  0  0
  179.7460  177.9860  135.5620 C   0  0  0  0  0  3  0  0  0  0  0  0
  1 18  1  6  0  0  0
  1 26  1  0  0  0  0
  1 24  1  0  0  0  0
  2  9  1  0  0  0  0
  2  6  1  0  0  0  0
  4 16  1  0  0  0  0
  5 16  2  0  0  0  0
  6 21  1  6  0  0  0
  6 14  1  0  0  0  0
  7 23  2  0  0  0  0
  9 27  1  6  0  0  0
  9 11  1  0  0  0  0
  9 15  1  0  0  0  0
 14  8  1  1  0  0  0
 14  3  1  0  0  0  0
 15 18  1  6  0  0  0
 15  1  1  0  0  0  0
 16 12  1  0  0  0  0
 17  4  1  1  0  0  0
 17 19  1  0  0  0  0
 19 12  1  0  0  0  0
 19  8  1  6  0  0  0
 20 10  1  6  0  0  0
 20 13  1  0  0  0  0
 21 17  1  0  0  0  0
 22 13  1  0  0  0  0
 23 11  1  0  0  0  0
 24 22  1  0  0  0  0
 25  7  1  0  0  0  0
 25 27  2  0  0  0  0
 26  3  1  1  0  0  0
 26 20  1  0  0  0  0
M  END
>  <MODEL>
7

>  <REMARK>
 VINA RESULT:      -5.2      3.449      5.305
  Name = 
  0 active torsions:
  status: ('A' for Active; 'I' for Inactive)
                            x       y       z     vdW  Elec       q    Type
                         _______ _______ _______ _____ _____    ______ ____

>  <TORSDO>
F 0

$$$$
=
 OpenBabel10262420013D

 27 32  0  0  1  0  0  0  0  0999 V2000
  181.5690  180.3120  138.5620 C   0  0  2  0  0  0  0  0  0  0  0  0
  183.8130  177.2600  138.9450 S   0  0  0  0  0  0  0  0  0  0  0  0
  180.1470  178.2180  138.5230 N   0  0  0  0  0  2  0  0  0  0  0  0
  181.4340  173.2460  137.1620 C   0  0  0  0  0  2  0  0  0  0  0  0
  179.7600  171.5470  137.5930 O   0  0  0  0  0  0  0  0  0  0  0  0
  182.2060  176.9430  138.1370 C   0  0  2  0  0  3  0  0  0  0  0  0
  184.7610  178.1910  142.2530 C   0  0  0  0  0  3  0  0  0  0  0  0
  180.1330  175.8970  139.3890 C   0  0  0  0  0  2  0  0  0  0  0  0
  183.5730  178.9370  139.7280 C   0  0  2  0  0  0  0  0  0  0  0  0
  179.5510  180.3650  141.3640 C   0  0  0  0  0  1  0  0  0  0  0  0
  182.7270  178.8110  141.0170 C   0  0  0  0  0  2  0  0  0  0  0  0
  179.4110  173.7160  138.4300 N   0  0  0  0  0  2  0  0  0  0  0  0
  178.9310  181.3890  139.1620 C   0  0  0  0  0  2  0  0  0  0  0  0
  180.9730  177.1450  139.0520 C   0  0  2  0  0  3  0  0  0  0  0  0
  183.0770  180.1060  138.8090 C   0  0  1  0  0  3  0  0  0  0  0  0
  180.1550  172.7350  137.7220 C   0  0  0  0  0  0  0  0  0  0  0  0
  181.5480  174.5490  137.9300 C   0  0  2  0  0  3  0  0  0  0  0  0
  182.4370  179.6710  137.4990 C   0  0  0  0  0  2  0  0  0  0  0  0
  180.1220  174.9570  138.2050 C   0  0  2  0  0  3  0  0  0  0  0  0
  179.3180  180.1010  139.8880 C   0  0  1  0  0  3  0  0  0  0  0  0
  182.2340  175.6980  137.2290 C   0  0  0  0  0  2  0  0  0  0  0  0
  180.1270  182.3230  139.0480 C   0  0  0  0  0  2  0  0  0  0  0  0
  183.4420  178.0620  142.1110 C   0  0  0  0  0  3  0  0  0  0  0  0
  181.1570  181.7120  138.1130 C   0  0  0  0  0  2  0  0  0  0  0  0
  185.5270  178.9950  141.2860 C   0  0  0  0  0  3  0  0  0  0  0  0
  180.5370  179.4000  139.2780 C   0  0  2  0  0  3  0  0  0  0  0  0
  184.9650  179.3760  140.1320 C   0  0  0  0  0  3  0  0  0  0  0  0
  1 18  1  6  0  0  0
  1 15  1  0  0  0  0
  1 26  1  0  0  0  0
  2  9  1  0  0  0  0
  3 14  1  0  0  0  0
  4 16  1  0  0  0  0
  5 16  2  0  0  0  0
  6 21  1  1  0  0  0
  6  2  1  0  0  0  0
  6 14  1  0  0  0  0
  9 27  1  1  0  0  0
  9 11  1  0  0  0  0
 11 23  1  0  0  0  0
 13 20  1  0  0  0  0
 14  8  1  6  0  0  0
 15 18  1  6  0  0  0
 15  9  1  0  0  0  0
 16 12  1  0  0  0  0
 17  4  1  6  0  0  0
 17 19  1  0  0  0  0
 19 12  1  0  0  0  0
 19  8  1  1  0  0  0
 20 10  1  1  0  0  0
 21 17  1  0  0  0  0
 22 13  1  0  0  0  0
 23  7  2  0  0  0  0
 24  1  1  0  0  0  0
 24 22  1  0  0  0  0
 25  7  1  0  0  0  0
 26  3  1  6  0  0  0
 26 20  1  0  0  0  0
 27 25  2  0  0  0  0
M  END
>  <MODEL>
8

>  <REMARK>
 VINA RESULT:      -4.7      1.664      4.383
  Name = 
  0 active torsions:
  status: ('A' for Active; 'I' for Inactive)
                            x       y       z     vdW  Elec       q    Type
                         _______ _______ _______ _____ _____    ______ ____

>  <TORSDO>
F 0

$$$$
=
 OpenBabel10262420013D

 27 32  0  0  1  0  0  0  0  0999 V2000
  181.2650  177.8950  140.7120 C   0  0  2  0  0  0  0  0  0  0  0  0
  179.6130  176.9020  137.4290 S   0  0  0  0  0  0  0  0  0  0  0  0
  182.6770  176.1350  139.5640 N   0  0  0  0  0  2  0  0  0  0  0  0
  181.2810  172.3990  136.0530 C   0  0  0  0  0  2  0  0  0  0  0  0
  183.0920  171.1540  135.0340 O   0  0  0  0  0  0  0  0  0  0  0  0
  180.7420  175.6530  138.1360 C   0  0  2  0  0  3  0  0  0  0  0  0
  180.0970  180.1470  136.0350 C   0  0  0  0  0  3  0  0  0  0  0  0
  183.2170  175.2940  137.2970 C   0  0  0  0  0  2  0  0  0  0  0  0
  180.0460  178.4530  138.3730 C   0  0  2  0  0  0  0  0  0  0  0  0
  184.2730  179.3600  139.8570 C   0  0  0  0  0  1  0  0  0  0  0  0
  181.3660  179.0560  137.8370 C   0  0  0  0  0  2  0  0  0  0  0  0
  183.6120  173.0200  136.3650 N   0  0  0  0  0  2  0  0  0  0  0  0
  183.8270  178.2380  142.0530 C   0  0  0  0  0  2  0  0  0  0  0  0
  182.2300  176.0810  138.1820 C   0  0  2  0  0  3  0  0  0  0  0  0
  180.0230  178.3820  139.9400 C   0  0  1  0  0  3  0  0  0  0  0  0
  182.7080  172.1090  135.7570 C   0  0  0  0  0  0  0  0  0  0  0  0
  181.4140  173.8060  136.6050 C   0  0  2  0  0  3  0  0  0  0  0  0
  180.0740  176.9780  140.5230 C   0  0  0  0  0  2  0  0  0  0  0  0
  182.7900  173.8460  137.2230 C   0  0  2  0  0  3  0  0  0  0  0  0
  183.8740  178.0630  140.5360 C   0  0  1  0  0  3  0  0  0  0  0  0
  180.4170  174.2230  137.6610 C   0  0  0  0  0  2  0  0  0  0  0  0
  182.6340  179.0910  142.4590 C   0  0  0  0  0  2  0  0  0  0  0  0
  181.2380  179.5800  136.4320 C   0  0  0  0  0  3  0  0  0  0  0  0
  181.3490  178.3330  142.1730 C   0  0  0  0  0  2  0  0  0  0  0  0
  178.9400  180.1790  136.9450 C   0  0  0  0  0  3  0  0  0  0  0  0
  182.5640  177.5360  139.9410 C   0  0  2  0  0  3  0  0  0  0  0  0
  178.9310  179.4240  138.0500 C   0  0  0  0  0  3  0  0  0  0  0  0
  1 18  1  1  0  0  0
  1 24  1  0  0  0  0
  2  6  1  0  0  0  0
  2  9  1  0  0  0  0
  5 16  2  0  0  0  0
  6 21  1  6  0  0  0
  6 14  1  0  0  0  0
  7 23  2  0  0  0  0
  7 25  1  0  0  0  0
  9 11  1  6  0  0  0
  9 15  1  0  0  0  0
 12 19  1  0  0  0  0
 13 22  1  0  0  0  0
 14  8  1  6  0  0  0
 14  3  1  0  0  0  0
 15 18  1  6  0  0  0
 15  1  1  0  0  0  0
 16  4  1  0  0  0  0
 16 12  1  0  0  0  0
 17  4  1  1  0  0  0
 17 19  1  0  0  0  0
 17 21  1  0  0  0  0
 19  8  1  6  0  0  0
 20 10  1  6  0  0  0
 20 13  1  0  0  0  0
 23 11  1  0  0  0  0
 24 22  1  0  0  0  0
 25 27  2  0  0  0  0
 26  3  1  1  0  0  0
 26 20  1  0  0  0  0
 26  1  1  0  0  0  0
 27  9  1  0  0  0  0
M  END
>  <MODEL>
9

>  <REMARK>
 VINA RESULT:      -4.7      1.773      2.148
  Name = 
  0 active torsions:
  status: ('A' for Active; 'I' for Inactive)
                            x       y       z     vdW  Elec       q    Type
                         _______ _______ _______ _____ _____    ______ ____

>  <TORSDO>
F 0

$$$$
