=
 OpenBabel10252414583D

 34 39  0  0  1  0  0  0  0  0999 V2000
  184.9790  178.3000  139.0430 C   0  0  0  0  0  0  0  0  0  0  0  0
  183.4460  176.4660  138.5220 C   0  0  0  0  0  0  0  0  0  0  0  0
  183.4920  177.5390  140.8750 C   0  0  1  0  0  3  0  0  0  0  0  0
  181.9860  179.0490  142.1690 C   0  0  0  0  0  0  0  0  0  0  0  0
  184.9060  177.2310  136.7390 C   0  0  0  0  0  3  0  0  0  0  0  0
  183.9760  176.3750  137.1600 C   0  0  0  0  0  3  0  0  0  0  0  0
  181.2390  178.5210  140.0340 C   0  0  0  0  0  3  0  0  0  0  0  0
  184.0140  177.4530  139.4590 C   0  0  0  0  0  0  0  0  0  0  0  0
  180.4930  179.8090  142.0970 S   0  0  0  0  0  0  0  0  0  0  0  0
  185.4290  178.3510  137.6020 C   0  0  0  0  0  2  0  0  0  0  0  0
  184.5920  178.0290  141.8560 C   0  0  2  0  0  3  0  0  0  0  0  0
  185.5680  179.2300  139.9660 N   0  0  0  0  0  0  0  0  0  0  0  0
  182.5290  175.6840  138.8870 O   0  0  0  0  0  0  0  0  0  0  0  0
  182.8510  178.9860  143.3030 N   0  0  0  0  0  0  0  0  0  0  0  0
  184.0440  178.4610  143.2100 C   0  0  0  0  0  0  0  0  0  0  0  0
  180.1900  179.3040  140.5150 C   0  0  0  0  0  0  0  0  0  0  0  0
  182.2630  178.4030  140.9810 C   0  0  0  0  0  0  0  0  0  0  0  0
  185.3890  179.1530  141.2510 C   0  0  0  0  0  3  0  0  0  0  0  0
  187.0400  177.8680  145.4510 C   0  0  0  0  0  0  0  0  0  0  0  0
  186.5220  178.2150  146.7010 C   0  0  0  0  0  3  0  0  0  0  0  0
  184.9010  178.3780  144.4140 C   0  0  0  0  0  0  0  0  0  0  0  0
  185.1970  178.6420  146.8140 C   0  0  0  0  0  3  0  0  0  0  0  0
  186.2330  177.9490  144.3130 C   0  0  0  0  0  3  0  0  0  0  0  0
  184.3900  178.7230  145.6750 C   0  0  0  0  0  3  0  0  0  0  0  0
  188.3250  177.4530  145.3420 F   0  0  0  0  0  0  0  0  0  0  0  0
  178.9980  179.6190  139.7960 N   0  0  0  0  0  2  0  0  0  0  0  0
  178.9320  179.5460  138.3450 C   0  0  0  0  0  2  0  0  0  0  0  0
  180.6640  180.0580  136.0980 F   0  0  0  0  0  0  0  0  0  0  0  0
  179.1620  180.9220  137.7470 C   0  0  2  0  0  3  0  0  0  0  0  0
  180.5560  180.9890  137.1140 C   0  0  2  0  0  3  0  0  0  0  0  0
  180.5460  183.4480  137.6010 C   0  0  0  0  0  2  0  0  0  0  0  0
  179.1490  183.2600  138.1870 C   0  0  0  0  0  2  0  0  0  0  0  0
  179.0390  181.9360  138.7950 N   0  0  0  0  0  2  0  0  0  0  0  0
  180.7970  182.3830  136.5400 C   0  0  0  0  0  2  0  0  0  0  0  0
  1  8  2  0  0  0  0
  1 12  1  0  0  0  0
  2 13  2  0  0  0  0
  2  8  1  0  0  0  0
  3  8  1  6  0  0  0
  3 17  1  0  0  0  0
  3 11  1  0  0  0  0
  4 14  1  0  0  0  0
  5  6  2  0  0  0  0
  5 10  1  0  0  0  0
  6  2  1  0  0  0  0
  7 16  2  0  0  0  0
  7 17  1  0  0  0  0
  9  4  1  0  0  0  0
 10  1  1  0  0  0  0
 11 18  1  6  0  0  0
 11 15  1  0  0  0  0
 12 18  2  0  0  0  0
 15 14  2  0  0  0  0
 15 21  1  0  0  0  0
 16  9  1  0  0  0  0
 17  4  2  0  0  0  0
 19 20  1  0  0  0  0
 20 22  2  0  0  0  0
 21 24  2  0  0  0  0
 23 21  1  0  0  0  0
 23 19  2  0  0  0  0
 24 22  1  0  0  0  0
 25 19  1  0  0  0  0
 26 16  1  0  0  0  0
 27 26  1  0  0  0  0
 29 27  1  1  0  0  0
 29 33  1  0  0  0  0
 30 28  1  6  0  0  0
 30 29  1  0  0  0  0
 31 32  1  0  0  0  0
 32 33  1  0  0  0  0
 34 30  1  0  0  0  0
 34 31  1  0  0  0  0
M  END
>  <MODEL>
1

>  <REMARK>
 VINA RESULT:      -8.5      0.000      0.000
  Name = 
  4 active torsions:
  status: ('A' for Active; 'I' for Inactive)
    1  A    between atoms: C_3  and  C_13
    2  A    between atoms: C_3  and  N_17
    3  A    between atoms: C_12  and  C_28
    4  A    between atoms: N_17  and  C_29
                            x       y       z     vdW  Elec       q    Type
                         _______ _______ _______ _____ _____    ______ ____

>  <TORSDO>
F 4

$$$$
=
 OpenBabel10252414583D

 34 39  0  0  1  0  0  0  0  0999 V2000
  186.5690  176.8420  136.9300 C   0  0  0  0  0  0  0  0  0  0  0  0
  188.4450  178.4120  136.8750 C   0  0  0  0  0  0  0  0  0  0  0  0
  186.4240  178.8000  138.4440 C   0  0  1  0  0  3  0  0  0  0  0  0
  186.0250  178.6380  140.9010 C   0  0  0  0  0  0  0  0  0  0  0  0
  188.5710  176.4840  135.4060 C   0  0  0  0  0  3  0  0  0  0  0  0
  189.1070  177.6260  135.8330 C   0  0  0  0  0  3  0  0  0  0  0  0
  188.1810  178.0960  140.2240 C   0  0  0  0  0  3  0  0  0  0  0  0
  187.1290  177.9820  137.3860 C   0  0  0  0  0  0  0  0  0  0  0  0
  186.8110  178.3440  142.3530 S   0  0  0  0  0  0  0  0  0  0  0  0
  187.2990  175.9180  135.9840 C   0  0  0  0  0  2  0  0  0  0  0  0
  184.8820  178.6660  138.3290 C   0  0  2  0  0  3  0  0  0  0  0  0
  185.2680  176.4450  137.3890 N   0  0  0  0  0  0  0  0  0  0  0  0
  188.9910  179.4610  137.3080 O   0  0  0  0  0  0  0  0  0  0  0  0
  184.6810  179.0900  140.7410 N   0  0  0  0  0  0  0  0  0  0  0  0
  184.1380  179.1780  139.5560 C   0  0  0  0  0  0  0  0  0  0  0  0
  188.2800  177.9740  141.6100 C   0  0  0  0  0  0  0  0  0  0  0  0
  186.8840  178.4550  139.8360 C   0  0  0  0  0  0  0  0  0  0  0  0
  184.4850  177.2410  138.0540 C   0  0  0  0  0  3  0  0  0  0  0  0
  181.1770  181.3050  138.5270 C   0  0  0  0  0  0  0  0  0  0  0  0
  180.1280  180.6510  139.1790 C   0  0  0  0  0  3  0  0  0  0  0  0
  182.7540  179.6860  139.4230 C   0  0  0  0  0  0  0  0  0  0  0  0
  180.3860  179.5190  139.9540 C   0  0  0  0  0  3  0  0  0  0  0  0
  182.4830  180.8240  138.6480 C   0  0  0  0  0  3  0  0  0  0  0  0
  181.6940  179.0380  140.0760 C   0  0  0  0  0  3  0  0  0  0  0  0
  180.9270  182.4030  137.7750 F   0  0  0  0  0  0  0  0  0  0  0  0
  189.4640  177.6200  142.3240 N   0  0  0  0  0  2  0  0  0  0  0  0
  189.9030  178.3540  143.5010 C   0  0  0  0  0  2  0  0  0  0  0  0
  187.9140  177.7630  145.5020 F   0  0  0  0  0  0  0  0  0  0  0  0
  190.1210  177.3930  144.6570 C   0  0  2  0  0  3  0  0  0  0  0  0
  189.2510  177.8070  145.8490 C   0  0  2  0  0  3  0  0  0  0  0  0
  190.9820  176.7720  147.3380 C   0  0  0  0  0  2  0  0  0  0  0  0
  191.7490  176.3930  146.0740 C   0  0  0  0  0  2  0  0  0  0  0  0
  191.5330  177.4030  145.0400 N   0  0  0  0  0  2  0  0  0  0  0  0
  189.4940  176.8580  147.0190 C   0  0  0  0  0  2  0  0  0  0  0  0
  1  8  2  0  0  0  0
  1 12  1  0  0  0  0
  2 13  2  0  0  0  0
  2  8  1  0  0  0  0
  3  8  1  6  0  0  0
  3 17  1  0  0  0  0
  4  9  1  0  0  0  0
  5  6  2  0  0  0  0
  5 10  1  0  0  0  0
  6  2  1  0  0  0  0
  7 16  2  0  0  0  0
 10  1  1  0  0  0  0
 11 18  1  1  0  0  0
 11  3  1  0  0  0  0
 11 15  1  0  0  0  0
 12 18  2  0  0  0  0
 14  4  1  0  0  0  0
 15 14  2  0  0  0  0
 16 26  1  0  0  0  0
 16  9  1  0  0  0  0
 17  7  1  0  0  0  0
 17  4  2  0  0  0  0
 19 23  2  0  0  0  0
 19 20  1  0  0  0  0
 20 22  2  0  0  0  0
 21 15  1  0  0  0  0
 21 24  2  0  0  0  0
 22 24  1  0  0  0  0
 23 21  1  0  0  0  0
 25 19  1  0  0  0  0
 26 27  1  0  0  0  0
 29 27  1  6  0  0  0
 29 33  1  0  0  0  0
 29 30  1  0  0  0  0
 30 28  1  6  0  0  0
 30 34  1  0  0  0  0
 32 31  1  0  0  0  0
 33 32  1  0  0  0  0
 34 31  1  0  0  0  0
M  END
>  <MODEL>
2

>  <REMARK>
 VINA RESULT:      -8.4      3.428      8.890
  Name = 
  4 active torsions:
  status: ('A' for Active; 'I' for Inactive)
    1  A    between atoms: C_3  and  C_13
    2  A    between atoms: C_3  and  N_17
    3  A    between atoms: C_12  and  C_28
    4  A    between atoms: N_17  and  C_29
                            x       y       z     vdW  Elec       q    Type
                         _______ _______ _______ _____ _____    ______ ____

>  <TORSDO>
F 4

$$$$
=
 OpenBabel10252414583D

 34 39  0  0  1  0  0  0  0  0999 V2000
  192.4920  176.6790  138.6270 C   0  0  0  0  0  0  0  0  0  0  0  0
  191.2360  174.8510  137.5910 C   0  0  0  0  0  0  0  0  0  0  0  0
  190.3420  176.0600  139.6970 C   0  0  1  0  0  3  0  0  0  0  0  0
  188.5030  177.6760  140.1730 C   0  0  0  0  0  0  0  0  0  0  0  0
  193.3390  175.4780  136.5540 C   0  0  0  0  0  3  0  0  0  0  0  0
  192.2820  174.6690  136.5830 C   0  0  0  0  0  3  0  0  0  0  0  0
  188.6930  177.0410  137.9460 C   0  0  0  0  0  3  0  0  0  0  0  0
  191.4040  175.8790  138.6360 C   0  0  0  0  0  0  0  0  0  0  0  0
  187.2130  178.4640  139.4480 S   0  0  0  0  0  0  0  0  0  0  0  0
  193.5040  176.6340  137.5070 C   0  0  0  0  0  2  0  0  0  0  0  0
  190.9530  176.5810  141.0260 C   0  0  2  0  0  3  0  0  0  0  0  0
  192.6820  177.6470  139.6700 N   0  0  0  0  0  0  0  0  0  0  0  0
  190.2160  174.1140  137.5720 O   0  0  0  0  0  0  0  0  0  0  0  0
  188.8120  177.6600  141.5670 N   0  0  0  0  0  0  0  0  0  0  0  0
  189.9090  177.1040  142.0050 C   0  0  0  0  0  0  0  0  0  0  0  0
  187.5750  177.8740  137.9080 C   0  0  0  0  0  0  0  0  0  0  0  0
  189.2220  176.9550  139.2400 C   0  0  0  0  0  0  0  0  0  0  0  0
  191.9790  177.6490  140.7630 C   0  0  0  0  0  3  0  0  0  0  0  0
  189.5230  177.5970  145.7420 C   0  0  0  0  0  0  0  0  0  0  0  0
  190.7020  177.0190  146.2190 C   0  0  0  0  0  3  0  0  0  0  0  0
  190.1800  177.0720  143.4600 C   0  0  0  0  0  0  0  0  0  0  0  0
  191.6220  176.4690  145.3240 C   0  0  0  0  0  3  0  0  0  0  0  0
  189.2640  177.6240  144.3690 C   0  0  0  0  0  3  0  0  0  0  0  0
  191.3630  176.4960  143.9500 C   0  0  0  0  0  3  0  0  0  0  0  0
  188.6310  178.1310  146.6090 F   0  0  0  0  0  0  0  0  0  0  0  0
  186.8090  178.1730  136.7430 N   0  0  0  0  0  2  0  0  0  0  0  0
  186.1440  177.1340  135.9710 C   0  0  0  0  0  2  0  0  0  0  0  0
  187.2950  174.5440  136.4940 F   0  0  0  0  0  0  0  0  0  0  0  0
  185.5310  176.1070  136.9060 C   0  0  2  0  0  3  0  0  0  0  0  0
  185.9210  174.6950  136.4550 C   0  0  2  0  0  3  0  0  0  0  0  0
  183.7760  173.8910  137.4730 C   0  0  0  0  0  2  0  0  0  0  0  0
  183.5070  175.3340  137.8890 C   0  0  0  0  0  2  0  0  0  0  0  0
  184.0750  176.2500  136.9020 N   0  0  0  0  0  2  0  0  0  0  0  0
  185.2800  173.6630  137.3790 C   0  0  0  0  0  2  0  0  0  0  0  0
  1  8  2  0  0  0  0
  1 12  1  0  0  0  0
  2  8  1  0  0  0  0
  3  8  1  6  0  0  0
  3 11  1  0  0  0  0
  4 14  1  0  0  0  0
  5  6  2  0  0  0  0
  5 10  1  0  0  0  0
  6  2  1  0  0  0  0
  7 17  1  0  0  0  0
  9  4  1  0  0  0  0
 10  1  1  0  0  0  0
 11 18  1  6  0  0  0
 11 15  1  0  0  0  0
 12 18  2  0  0  0  0
 13  2  2  0  0  0  0
 14 15  2  0  0  0  0
 15 21  1  0  0  0  0
 16  7  2  0  0  0  0
 16  9  1  0  0  0  0
 17  3  1  0  0  0  0
 17  4  2  0  0  0  0
 19 20  1  0  0  0  0
 19 25  1  0  0  0  0
 21 24  2  0  0  0  0
 21 23  1  0  0  0  0
 22 20  2  0  0  0  0
 23 19  2  0  0  0  0
 24 22  1  0  0  0  0
 26 16  1  0  0  0  0
 27 26  1  0  0  0  0
 29 27  1  6  0  0  0
 30 28  1  1  0  0  0
 30 29  1  0  0  0  0
 30 34  1  0  0  0  0
 31 32  1  0  0  0  0
 33 29  1  0  0  0  0
 33 32  1  0  0  0  0
 34 31  1  0  0  0  0
M  END
>  <MODEL>
3

>  <REMARK>
 VINA RESULT:      -7.7      5.417      7.414
  Name = 
  4 active torsions:
  status: ('A' for Active; 'I' for Inactive)
    1  A    between atoms: C_3  and  C_13
    2  A    between atoms: C_3  and  N_17
    3  A    between atoms: C_12  and  C_28
    4  A    between atoms: N_17  and  C_29
                            x       y       z     vdW  Elec       q    Type
                         _______ _______ _______ _____ _____    ______ ____

>  <TORSDO>
F 4

$$$$
=
 OpenBabel10252414583D

 34 39  0  0  1  0  0  0  0  0999 V2000
  188.2510  177.2540  135.4100 C   0  0  0  0  0  0  0  0  0  0  0  0
  186.3850  176.2760  136.6550 C   0  0  0  0  0  0  0  0  0  0  0  0
  188.8370  175.7530  137.2940 C   0  0  1  0  0  3  0  0  0  0  0  0
  190.3610  176.3890  139.1630 C   0  0  0  0  0  0  0  0  0  0  0  0
  185.8320  177.7550  134.8110 C   0  0  0  0  0  3  0  0  0  0  0  0
  185.4170  176.9360  135.7760 C   0  0  0  0  0  3  0  0  0  0  0  0
  188.2300  177.3070  139.2850 C   0  0  0  0  0  3  0  0  0  0  0  0
  187.8290  176.4490  136.4080 C   0  0  0  0  0  0  0  0  0  0  0  0
  190.3950  177.2220  140.6180 S   0  0  0  0  0  0  0  0  0  0  0  0
  187.2870  178.0830  134.5940 C   0  0  0  0  0  2  0  0  0  0  0  0
  190.1470  175.4370  136.5220 C   0  0  2  0  0  3  0  0  0  0  0  0
  189.6540  177.3870  135.1360 N   0  0  0  0  0  0  0  0  0  0  0  0
  185.9760  175.5480  137.5970 O   0  0  0  0  0  0  0  0  0  0  0  0
  191.4010  175.5690  138.6320 N   0  0  0  0  0  0  0  0  0  0  0  0
  191.3070  175.0570  137.4330 C   0  0  0  0  0  0  0  0  0  0  0  0
  188.8100  177.7810  140.4620 C   0  0  0  0  0  0  0  0  0  0  0  0
  189.1340  176.5320  138.5470 C   0  0  0  0  0  0  0  0  0  0  0  0
  190.5470  176.5950  135.6490 C   0  0  0  0  0  3  0  0  0  0  0  0
  194.7530  173.6790  136.6720 C   0  0  0  0  0  0  0  0  0  0  0  0
  194.4360  172.5220  135.9570 C   0  0  0  0  0  3  0  0  0  0  0  0
  192.3870  174.1820  136.9270 C   0  0  0  0  0  0  0  0  0  0  0  0
  193.0990  172.1920  135.7220 C   0  0  0  0  0  3  0  0  0  0  0  0
  193.7340  174.5040  137.1550 C   0  0  0  0  0  3  0  0  0  0  0  0
  192.0790  173.0180  136.2040 C   0  0  0  0  0  3  0  0  0  0  0  0
  196.0490  174.0010  136.9000 F   0  0  0  0  0  0  0  0  0  0  0  0
  188.1580  178.5990  141.4310 N   0  0  0  0  0  2  0  0  0  0  0  0
  186.8890  178.2180  142.0330 C   0  0  0  0  0  2  0  0  0  0  0  0
  184.8620  177.9640  144.0680 F   0  0  0  0  0  0  0  0  0  0  0  0
  187.1300  177.6000  143.3990 C   0  0  2  0  0  3  0  0  0  0  0  0
  186.1730  178.2170  144.4260 C   0  0  2  0  0  3  0  0  0  0  0  0
  187.9110  177.7490  146.1710 C   0  0  0  0  0  2  0  0  0  0  0  0
  188.7660  177.1400  145.0640 C   0  0  0  0  0  2  0  0  0  0  0  0
  188.5170  177.8360  143.8030 N   0  0  0  0  0  2  0  0  0  0  0  0
  186.4380  177.6160  145.8040 C   0  0  0  0  0  2  0  0  0  0  0  0
  1  8  2  0  0  0  0
  2 13  2  0  0  0  0
  3  8  1  6  0  0  0
  3 17  1  0  0  0  0
  4  9  1  0  0  0  0
  5  6  2  0  0  0  0
  6  2  1  0  0  0  0
  7 16  2  0  0  0  0
  8  2  1  0  0  0  0
 10  5  1  0  0  0  0
 10  1  1  0  0  0  0
 11 18  1  1  0  0  0
 11  3  1  0  0  0  0
 11 15  1  0  0  0  0
 12  1  1  0  0  0  0
 12 18  2  0  0  0  0
 14  4  1  0  0  0  0
 15 14  2  0  0  0  0
 16  9  1  0  0  0  0
 16 26  1  0  0  0  0
 17  4  2  0  0  0  0
 17  7  1  0  0  0  0
 19 25  1  0  0  0  0
 19 23  1  0  0  0  0
 20 19  2  0  0  0  0
 21 23  2  0  0  0  0
 21 15  1  0  0  0  0
 22 20  1  0  0  0  0
 22 24  2  0  0  0  0
 24 21  1  0  0  0  0
 26 27  1  0  0  0  0
 29 27  1  6  0  0  0
 29 33  1  0  0  0  0
 29 30  1  0  0  0  0
 30 28  1  6  0  0  0
 30 34  1  0  0  0  0
 32 31  1  0  0  0  0
 33 32  1  0  0  0  0
 34 31  1  0  0  0  0
M  END
>  <MODEL>
4

>  <REMARK>
 VINA RESULT:      -7.5      5.929      9.584
  Name = 
  4 active torsions:
  status: ('A' for Active; 'I' for Inactive)
    1  A    between atoms: C_3  and  C_13
    2  A    between atoms: C_3  and  N_17
    3  A    between atoms: C_12  and  C_28
    4  A    between atoms: N_17  and  C_29
                            x       y       z     vdW  Elec       q    Type
                         _______ _______ _______ _____ _____    ______ ____

>  <TORSDO>
F 4

$$$$
=
 OpenBabel10252414583D

 34 39  0  0  1  0  0  0  0  0999 V2000
  192.7990  176.3170  138.0750 C   0  0  0  0  0  0  0  0  0  0  0  0
  191.5180  174.4370  137.1730 C   0  0  0  0  0  0  0  0  0  0  0  0
  190.6070  175.8560  139.1360 C   0  0  1  0  0  3  0  0  0  0  0  0
  188.8040  177.5580  139.4120 C   0  0  0  0  0  0  0  0  0  0  0  0
  193.6640  174.9110  136.1430 C   0  0  0  0  0  3  0  0  0  0  0  0
  192.5830  174.1360  136.2150 C   0  0  0  0  0  3  0  0  0  0  0  0
  189.0320  176.7170  137.2580 C   0  0  0  0  0  3  0  0  0  0  0  0
  191.6890  175.5510  138.1250 C   0  0  0  0  0  0  0  0  0  0  0  0
  187.5560  178.3100  138.5830 S   0  0  0  0  0  0  0  0  0  0  0  0
  193.8380  176.1440  136.9920 C   0  0  0  0  0  2  0  0  0  0  0  0
  191.1980  176.4800  140.4290 C   0  0  2  0  0  3  0  0  0  0  0  0
  192.9910  177.3710  139.0300 N   0  0  0  0  0  0  0  0  0  0  0  0
  190.4770  173.7290  137.1920 O   0  0  0  0  0  0  0  0  0  0  0  0
  189.0760  177.6600  140.8090 N   0  0  0  0  0  0  0  0  0  0  0  0
  190.1450  177.1170  141.3270 C   0  0  0  0  0  0  0  0  0  0  0  0
  187.9400  177.5730  137.1140 C   0  0  0  0  0  0  0  0  0  0  0  0
  189.5240  176.7350  138.5680 C   0  0  0  0  0  0  0  0  0  0  0  0
  192.2610  177.4920  140.0990 C   0  0  0  0  0  3  0  0  0  0  0  0
  191.4220  176.3710  144.8150 C   0  0  0  0  0  0  0  0  0  0  0  0
  190.8130  177.3880  145.5550 C   0  0  0  0  0  3  0  0  0  0  0  0
  190.3790  177.2110  142.7860 C   0  0  0  0  0  0  0  0  0  0  0  0
  189.9860  178.3150  144.9170 C   0  0  0  0  0  3  0  0  0  0  0  0
  191.2060  176.2840  143.4380 C   0  0  0  0  0  3  0  0  0  0  0  0
  189.7690  178.2270  143.5390 C   0  0  0  0  0  3  0  0  0  0  0  0
  192.2240  175.4720  145.4330 F   0  0  0  0  0  0  0  0  0  0  0  0
  187.2120  177.7850  135.9050 N   0  0  0  0  0  2  0  0  0  0  0  0
  186.3310  176.7700  135.3480 C   0  0  0  0  0  2  0  0  0  0  0  0
  186.2800  174.7170  137.3710 F   0  0  0  0  0  0  0  0  0  0  0  0
  185.1610  176.5310  136.2860 C   0  0  2  0  0  3  0  0  0  0  0  0
  185.1190  175.0570  136.7010 C   0  0  2  0  0  3  0  0  0  0  0  0
  182.6400  175.3090  136.9690 C   0  0  0  0  0  2  0  0  0  0  0  0
  182.8100  176.7700  136.5620 C   0  0  0  0  0  2  0  0  0  0  0  0
  183.9140  176.8970  135.6130 N   0  0  0  0  0  2  0  0  0  0  0  0
  183.9250  174.8130  137.6200 C   0  0  0  0  0  2  0  0  0  0  0  0
  1  8  2  0  0  0  0
  1 12  1  0  0  0  0
  2 13  2  0  0  0  0
  2  8  1  0  0  0  0
  3  8  1  6  0  0  0
  3 11  1  0  0  0  0
  4 14  1  0  0  0  0
  5  6  2  0  0  0  0
  5 10  1  0  0  0  0
  6  2  1  0  0  0  0
  7 17  1  0  0  0  0
  9  4  1  0  0  0  0
 10  1  1  0  0  0  0
 11 18  1  6  0  0  0
 11 15  1  0  0  0  0
 12 18  2  0  0  0  0
 14 15  2  0  0  0  0
 15 21  1  0  0  0  0
 16  7  2  0  0  0  0
 16  9  1  0  0  0  0
 17  3  1  0  0  0  0
 17  4  2  0  0  0  0
 19 25  1  0  0  0  0
 19 20  1  0  0  0  0
 21 23  1  0  0  0  0
 21 24  2  0  0  0  0
 22 20  2  0  0  0  0
 23 19  2  0  0  0  0
 24 22  1  0  0  0  0
 26 16  1  0  0  0  0
 27 26  1  0  0  0  0
 29 27  1  6  0  0  0
 29 30  1  0  0  0  0
 30 28  1  1  0  0  0
 30 34  1  0  0  0  0
 31 34  1  0  0  0  0
 32 31  1  0  0  0  0
 33 29  1  0  0  0  0
 33 32  1  0  0  0  0
M  END
>  <MODEL>
5

>  <REMARK>
 VINA RESULT:      -7.4      5.556      7.507
  Name = 
  4 active torsions:
  status: ('A' for Active; 'I' for Inactive)
    1  A    between atoms: C_3  and  C_13
    2  A    between atoms: C_3  and  N_17
    3  A    between atoms: C_12  and  C_28
    4  A    between atoms: N_17  and  C_29
                            x       y       z     vdW  Elec       q    Type
                         _______ _______ _______ _____ _____    ______ ____

>  <TORSDO>
F 4

$$$$
=
 OpenBabel10252414583D

 34 39  0  0  1  0  0  0  0  0999 V2000
  192.2350  177.2160  139.6560 C   0  0  0  0  0  0  0  0  0  0  0  0
  190.9910  175.4910  138.4460 C   0  0  0  0  0  0  0  0  0  0  0  0
  190.1630  176.3800  140.7300 C   0  0  1  0  0  3  0  0  0  0  0  0
  188.2980  177.8480  141.4950 C   0  0  0  0  0  0  0  0  0  0  0  0
  193.0190  176.3280  137.4070 C   0  0  0  0  0  3  0  0  0  0  0  0
  191.9910  175.4810  137.3770 C   0  0  0  0  0  3  0  0  0  0  0  0
  188.3980  177.5150  139.1980 C   0  0  0  0  0  3  0  0  0  0  0  0
  191.1770  176.3800  139.6080 C   0  0  0  0  0  0  0  0  0  0  0  0
  186.9480  178.6730  140.9390 S   0  0  0  0  0  0  0  0  0  0  0  0
  193.1920  177.3570  138.4960 C   0  0  0  0  0  2  0  0  0  0  0  0
  190.8210  176.7490  142.0880 C   0  0  2  0  0  3  0  0  0  0  0  0
  192.4450  178.0470  140.8070 N   0  0  0  0  0  0  0  0  0  0  0  0
  189.9960  174.7220  138.3760 O   0  0  0  0  0  0  0  0  0  0  0  0
  188.6750  177.6640  142.8600 N   0  0  0  0  0  0  0  0  0  0  0  0
  189.8100  177.0980  143.1720 C   0  0  0  0  0  0  0  0  0  0  0  0
  187.2530  178.3020  139.3200 C   0  0  0  0  0  0  0  0  0  0  0  0
  188.9920  177.2830  140.4450 C   0  0  0  0  0  0  0  0  0  0  0  0
  191.7970  177.8810  141.9210 C   0  0  0  0  0  3  0  0  0  0  0  0
  191.6600  176.0280  146.3010 C   0  0  0  0  0  0  0  0  0  0  0  0
  190.7990  176.4880  147.3010 C   0  0  0  0  0  3  0  0  0  0  0  0
  190.1540  176.8900  144.5970 C   0  0  0  0  0  0  0  0  0  0  0  0
  189.6170  177.1460  146.9560 C   0  0  0  0  0  3  0  0  0  0  0  0
  191.3380  176.2280  144.9560 C   0  0  0  0  0  3  0  0  0  0  0  0
  189.2950  177.3460  145.6090 C   0  0  0  0  0  3  0  0  0  0  0  0
  192.8060  175.3890  146.6350 F   0  0  0  0  0  0  0  0  0  0  0  0
  186.4200  178.7190  138.2400 N   0  0  0  0  0  2  0  0  0  0  0  0
  185.3510  177.8790  137.7220 C   0  0  0  0  0  2  0  0  0  0  0  0
  185.2120  175.0240  137.3490 F   0  0  0  0  0  0  0  0  0  0  0  0
  185.8180  177.1640  136.4670 C   0  0  2  0  0  3  0  0  0  0  0  0
  186.2670  175.7400  136.8150 C   0  0  2  0  0  3  0  0  0  0  0  0
  187.8330  175.8680  134.8620 C   0  0  0  0  0  2  0  0  0  0  0  0
  187.2910  177.2700  134.6010 C   0  0  0  0  0  2  0  0  0  0  0  0
  186.9270  177.9050  135.8660 N   0  0  0  0  0  2  0  0  0  0  0  0
  186.7640  175.0330  135.5570 C   0  0  0  0  0  2  0  0  0  0  0  0
  1 12  1  0  0  0  0
  2  8  1  0  0  0  0
  3  8  1  6  0  0  0
  3 11  1  0  0  0  0
  4 14  1  0  0  0  0
  5 10  1  0  0  0  0
  6  5  2  0  0  0  0
  6  2  1  0  0  0  0
  7 16  2  0  0  0  0
  7 17  1  0  0  0  0
  8  1  2  0  0  0  0
  9  4  1  0  0  0  0
 10  1  1  0  0  0  0
 11 18  1  6  0  0  0
 11 15  1  0  0  0  0
 12 18  2  0  0  0  0
 13  2  2  0  0  0  0
 14 15  2  0  0  0  0
 15 21  1  0  0  0  0
 16  9  1  0  0  0  0
 17  3  1  0  0  0  0
 17  4  2  0  0  0  0
 19 25  1  0  0  0  0
 19 20  1  0  0  0  0
 21 23  1  0  0  0  0
 21 24  2  0  0  0  0
 22 20  2  0  0  0  0
 23 19  2  0  0  0  0
 24 22  1  0  0  0  0
 26 16  1  0  0  0  0
 27 26  1  0  0  0  0
 29 30  1  0  0  0  0
 29 27  1  1  0  0  0
 30 28  1  6  0  0  0
 31 34  1  0  0  0  0
 32 31  1  0  0  0  0
 32 33  1  0  0  0  0
 33 29  1  0  0  0  0
 34 30  1  0  0  0  0
M  END
>  <MODEL>
6

>  <REMARK>
 VINA RESULT:      -7.3      5.166      7.205
  Name = 
  4 active torsions:
  status: ('A' for Active; 'I' for Inactive)
    1  A    between atoms: C_3  and  C_13
    2  A    between atoms: C_3  and  N_17
    3  A    between atoms: C_12  and  C_28
    4  A    between atoms: N_17  and  C_29
                            x       y       z     vdW  Elec       q    Type
                         _______ _______ _______ _____ _____    ______ ____

>  <TORSDO>
F 4

$$$$
=
 OpenBabel10252414583D

 34 39  0  0  1  0  0  0  0  0999 V2000
  190.4320  177.2390  145.0040 C   0  0  0  0  0  0  0  0  0  0  0  0
  190.8560  175.0270  144.0490 C   0  0  0  0  0  0  0  0  0  0  0  0
  188.9030  176.4960  143.1980 C   0  0  1  0  0  3  0  0  0  0  0  0
  188.4400  177.8140  141.1320 C   0  0  0  0  0  0  0  0  0  0  0  0
  192.3460  175.7760  145.8120 C   0  0  0  0  0  3  0  0  0  0  0  0
  191.9760  174.8150  144.9670 C   0  0  0  0  0  3  0  0  0  0  0  0
  190.4980  176.7360  141.1620 C   0  0  0  0  0  3  0  0  0  0  0  0
  190.0770  176.2780  144.1260 C   0  0  0  0  0  0  0  0  0  0  0  0
  189.0680  178.1670  139.6180 S   0  0  0  0  0  0  0  0  0  0  0  0
  191.6810  177.1290  145.8460 C   0  0  0  0  0  2  0  0  0  0  0  0
  187.8290  177.4080  143.8500 C   0  0  2  0  0  3  0  0  0  0  0  0
  189.6480  178.4370  145.1150 N   0  0  0  0  0  0  0  0  0  0  0  0
  190.5520  174.1300  143.2190 O   0  0  0  0  0  0  0  0  0  0  0  0
  187.1450  178.1710  141.6160 N   0  0  0  0  0  0  0  0  0  0  0  0
  186.8040  177.9390  142.8560 C   0  0  0  0  0  0  0  0  0  0  0  0
  190.5020  177.3200  139.8950 C   0  0  0  0  0  0  0  0  0  0  0  0
  189.3240  177.0440  141.8610 C   0  0  0  0  0  0  0  0  0  0  0  0
  188.4710  178.5580  144.5780 C   0  0  0  0  0  3  0  0  0  0  0  0
  183.0790  178.6280  142.8510 C   0  0  0  0  0  0  0  0  0  0  0  0
  182.8580  178.9610  144.1900 C   0  0  0  0  0  3  0  0  0  0  0  0
  185.4420  178.2890  143.3160 C   0  0  0  0  0  0  0  0  0  0  0  0
  183.9230  178.9610  145.0930 C   0  0  0  0  0  3  0  0  0  0  0  0
  184.3640  178.2930  142.4170 C   0  0  0  0  0  3  0  0  0  0  0  0
  185.2090  178.6270  144.6580 C   0  0  0  0  0  3  0  0  0  0  0  0
  182.0470  178.6280  141.9740 F   0  0  0  0  0  0  0  0  0  0  0  0
  191.5520  177.2010  138.9360 N   0  0  0  0  0  2  0  0  0  0  0  0
  191.3040  176.7530  137.5730 C   0  0  0  0  0  2  0  0  0  0  0  0
  190.8500  174.1600  136.3980 F   0  0  0  0  0  0  0  0  0  0  0  0
  192.4140  175.8170  137.1280 C   0  0  2  0  0  3  0  0  0  0  0  0
  191.9390  174.3630  137.2250 C   0  0  2  0  0  3  0  0  0  0  0  0
  194.3310  173.7170  137.6020 C   0  0  0  0  0  2  0  0  0  0  0  0
  194.6850  175.1950  137.4650 C   0  0  0  0  0  2  0  0  0  0  0  0
  193.5900  176.0170  137.9750 N   0  0  0  0  0  2  0  0  0  0  0  0
  193.0660  173.4230  136.8050 C   0  0  0  0  0  2  0  0  0  0  0  0
  1 12  1  0  0  0  0
  1 10  1  0  0  0  0
  2  8  1  0  0  0  0
  2  6  1  0  0  0  0
  3 17  1  6  0  0  0
  3 11  1  0  0  0  0
  3  8  1  0  0  0  0
  4 14  1  0  0  0  0
  4 17  2  0  0  0  0
  5 10  1  0  0  0  0
  6  5  2  0  0  0  0
  7 17  1  0  0  0  0
  8  1  2  0  0  0  0
  9 16  1  0  0  0  0
  9  4  1  0  0  0  0
 11 18  1  6  0  0  0
 13  2  2  0  0  0  0
 14 15  2  0  0  0  0
 15 21  1  0  0  0  0
 15 11  1  0  0  0  0
 16  7  2  0  0  0  0
 18 12  2  0  0  0  0
 19 20  1  0  0  0  0
 20 22  2  0  0  0  0
 21 24  2  0  0  0  0
 23 19  2  0  0  0  0
 23 21  1  0  0  0  0
 24 22  1  0  0  0  0
 25 19  1  0  0  0  0
 26 16  1  0  0  0  0
 27 26  1  0  0  0  0
 29 30  1  0  0  0  0
 29 27  1  1  0  0  0
 29 33  1  0  0  0  0
 30 28  1  6  0  0  0
 32 31  1  0  0  0  0
 32 33  1  0  0  0  0
 34 30  1  0  0  0  0
 34 31  1  0  0  0  0
M  END
>  <MODEL>
7

>  <REMARK>
 VINA RESULT:      -7.2      5.827      9.733
  Name = 
  4 active torsions:
  status: ('A' for Active; 'I' for Inactive)
    1  A    between atoms: C_3  and  C_13
    2  A    between atoms: C_3  and  N_17
    3  A    between atoms: C_12  and  C_28
    4  A    between atoms: N_17  and  C_29
                            x       y       z     vdW  Elec       q    Type
                         _______ _______ _______ _____ _____    ______ ____

>  <TORSDO>
F 4

$$$$
=
 OpenBabel10252414583D

 34 39  0  0  1  0  0  0  0  0999 V2000
  190.2500  177.4090  144.7200 C   0  0  0  0  0  0  0  0  0  0  0  0
  190.7630  175.2010  143.7960 C   0  0  0  0  0  0  0  0  0  0  0  0
  188.8030  176.6140  142.8700 C   0  0  1  0  0  3  0  0  0  0  0  0
  188.3760  177.9050  140.7790 C   0  0  0  0  0  0  0  0  0  0  0  0
  192.1730  176.0020  145.6030 C   0  0  0  0  0  3  0  0  0  0  0  0
  191.8560  175.0250  144.7540 C   0  0  0  0  0  3  0  0  0  0  0  0
  190.4590  176.8810  140.8860 C   0  0  0  0  0  3  0  0  0  0  0  0
  189.9500  176.4320  143.8380 C   0  0  0  0  0  0  0  0  0  0  0  0
  189.0460  178.2630  139.2840 S   0  0  0  0  0  0  0  0  0  0  0  0
  191.4720  177.3360  145.6040 C   0  0  0  0  0  2  0  0  0  0  0  0
  187.6840  177.5030  143.4780 C   0  0  2  0  0  3  0  0  0  0  0  0
  189.4320  178.5870  144.7960 N   0  0  0  0  0  0  0  0  0  0  0  0
  190.5100  174.2910  142.9640 O   0  0  0  0  0  0  0  0  0  0  0  0
  187.0570  178.2310  141.2170 N   0  0  0  0  0  0  0  0  0  0  0  0
  186.6800  178.0000  142.4460 C   0  0  0  0  0  0  0  0  0  0  0  0
  190.4900  177.4560  139.6150 C   0  0  0  0  0  0  0  0  0  0  0  0
  189.2540  177.1630  141.5430 C   0  0  0  0  0  0  0  0  0  0  0  0
  188.2710  178.6740  144.2180 C   0  0  0  0  0  3  0  0  0  0  0  0
  183.6710  178.8220  144.5960 C   0  0  0  0  0  0  0  0  0  0  0  0
  182.6620  178.9110  143.6350 C   0  0  0  0  0  3  0  0  0  0  0  0
  185.2940  178.3170  142.8570 C   0  0  0  0  0  0  0  0  0  0  0  0
  182.9610  178.7030  142.2870 C   0  0  0  0  0  3  0  0  0  0  0  0
  184.9810  178.5270  144.2090 C   0  0  0  0  0  3  0  0  0  0  0  0
  184.2720  178.4070  141.8990 C   0  0  0  0  0  3  0  0  0  0  0  0
  183.3810  179.0240  145.9030 F   0  0  0  0  0  0  0  0  0  0  0  0
  191.5750  177.3580  138.6930 N   0  0  0  0  0  2  0  0  0  0  0  0
  192.5060  176.2410  138.7150 C   0  0  0  0  0  2  0  0  0  0  0  0
  193.4010  176.4480  135.9820 F   0  0  0  0  0  0  0  0  0  0  0  0
  192.1460  175.2460  137.6260 C   0  0  2  0  0  3  0  0  0  0  0  0
  192.1440  175.9440  136.2620 C   0  0  2  0  0  3  0  0  0  0  0  0
  190.4350  174.2670  135.5220 C   0  0  0  0  0  2  0  0  0  0  0  0
  190.5390  173.6430  136.9100 C   0  0  0  0  0  2  0  0  0  0  0  0
  190.8240  174.6800  137.9000 N   0  0  0  0  0  2  0  0  0  0  0  0
  191.7520  174.9500  135.1730 C   0  0  0  0  0  2  0  0  0  0  0  0
  1 12  1  0  0  0  0
  1 10  1  0  0  0  0
  2  8  1  0  0  0  0
  2  6  1  0  0  0  0
  3 17  1  6  0  0  0
  3 11  1  0  0  0  0
  3  8  1  0  0  0  0
  4 14  1  0  0  0  0
  4 17  2  0  0  0  0
  5 10  1  0  0  0  0
  6  5  2  0  0  0  0
  7 17  1  0  0  0  0
  8  1  2  0  0  0  0
  9 16  1  0  0  0  0
  9  4  1  0  0  0  0
 11 18  1  6  0  0  0
 13  2  2  0  0  0  0
 14 15  2  0  0  0  0
 15 21  1  0  0  0  0
 15 11  1  0  0  0  0
 16  7  2  0  0  0  0
 18 12  2  0  0  0  0
 19 25  1  0  0  0  0
 20 19  2  0  0  0  0
 21 23  2  0  0  0  0
 22 20  1  0  0  0  0
 23 19  1  0  0  0  0
 24 22  2  0  0  0  0
 24 21  1  0  0  0  0
 26 27  1  0  0  0  0
 26 16  1  0  0  0  0
 29 33  1  0  0  0  0
 29 27  1  1  0  0  0
 30 28  1  6  0  0  0
 30 29  1  0  0  0  0
 31 32  1  0  0  0  0
 32 33  1  0  0  0  0
 34 31  1  0  0  0  0
 34 30  1  0  0  0  0
M  END
>  <MODEL>
8

>  <REMARK>
 VINA RESULT:      -7.2      5.408      9.286
  Name = 
  4 active torsions:
  status: ('A' for Active; 'I' for Inactive)
    1  A    between atoms: C_3  and  C_13
    2  A    between atoms: C_3  and  N_17
    3  A    between atoms: C_12  and  C_28
    4  A    between atoms: N_17  and  C_29
                            x       y       z     vdW  Elec       q    Type
                         _______ _______ _______ _____ _____    ______ ____

>  <TORSDO>
F 4

$$$$
=
 OpenBabel10252414583D

 34 39  0  0  1  0  0  0  0  0999 V2000
  185.6480  179.3570  145.8280 C   0  0  0  0  0  0  0  0  0  0  0  0
  186.7500  177.1720  145.8060 C   0  0  0  0  0  0  0  0  0  0  0  0
  185.1420  177.8760  143.9050 C   0  0  1  0  0  3  0  0  0  0  0  0
  185.4010  178.5520  141.5180 C   0  0  0  0  0  0  0  0  0  0  0  0
  187.2380  178.6400  147.6770 C   0  0  0  0  0  3  0  0  0  0  0  0
  187.4000  177.4570  147.0870 C   0  0  0  0  0  3  0  0  0  0  0  0
  187.3900  178.0660  142.6160 C   0  0  0  0  0  3  0  0  0  0  0  0
  185.8380  178.1700  145.2150 C   0  0  0  0  0  0  0  0  0  0  0  0
  186.5470  178.7160  140.3050 S   0  0  0  0  0  0  0  0  0  0  0  0
  186.4310  179.7530  147.0580 C   0  0  0  0  0  2  0  0  0  0  0  0
  183.7740  178.6040  143.8150 C   0  0  2  0  0  3  0  0  0  0  0  0
  184.7250  180.3100  145.2810 N   0  0  0  0  0  0  0  0  0  0  0  0
  186.9560  176.0690  145.2340 O   0  0  0  0  0  0  0  0  0  0  0  0
  183.9860  178.6640  141.3670 N   0  0  0  0  0  0  0  0  0  0  0  0
  183.1950  178.6280  142.4060 C   0  0  0  0  0  0  0  0  0  0  0  0
  187.8390  178.3420  141.3250 C   0  0  0  0  0  0  0  0  0  0  0  0
  186.0000  178.2090  142.7130 C   0  0  0  0  0  0  0  0  0  0  0  0
  183.8770  180.0090  144.3430 C   0  0  0  0  0  3  0  0  0  0  0  0
  179.8060  178.9610  140.7450 C   0  0  0  0  0  0  0  0  0  0  0  0
  178.9500  178.8760  141.8460 C   0  0  0  0  0  3  0  0  0  0  0  0
  181.7300  178.7110  142.2110 C   0  0  0  0  0  0  0  0  0  0  0  0
  179.4770  178.7110  143.1290 C   0  0  0  0  0  3  0  0  0  0  0  0
  181.1880  178.8780  140.9270 C   0  0  0  0  0  3  0  0  0  0  0  0
  180.8610  178.6290  143.3110 C   0  0  0  0  0  3  0  0  0  0  0  0
  179.2950  179.1210  139.5010 F   0  0  0  0  0  0  0  0  0  0  0  0
  189.1990  178.2890  140.8960 N   0  0  0  0  0  2  0  0  0  0  0  0
  190.0100  177.0910  141.0510 C   0  0  0  0  0  2  0  0  0  0  0  0
  190.5550  174.9000  142.8440 F   0  0  0  0  0  0  0  0  0  0  0  0
  190.8720  177.2070  142.2950 C   0  0  2  0  0  3  0  0  0  0  0  0
  190.4170  176.1830  143.3410 C   0  0  2  0  0  3  0  0  0  0  0  0
  191.2510  177.7620  145.0990 C   0  0  0  0  0  2  0  0  0  0  0  0
  191.6810  178.6920  143.9680 C   0  0  0  0  0  2  0  0  0  0  0  0
  190.7610  178.5610  142.8400 N   0  0  0  0  0  2  0  0  0  0  0  0
  191.2660  176.3210  144.6020 C   0  0  0  0  0  2  0  0  0  0  0  0
  1 10  1  0  0  0  0
  2  6  1  0  0  0  0
  3 17  1  6  0  0  0
  3  8  1  0  0  0  0
  4 17  2  0  0  0  0
  6  5  2  0  0  0  0
  7 17  1  0  0  0  0
  8  2  1  0  0  0  0
  8  1  2  0  0  0  0
  9 16  1  0  0  0  0
  9  4  1  0  0  0  0
 10  5  1  0  0  0  0
 11  3  1  0  0  0  0
 11 18  1  6  0  0  0
 12  1  1  0  0  0  0
 13  2  2  0  0  0  0
 14  4  1  0  0  0  0
 14 15  2  0  0  0  0
 15 11  1  0  0  0  0
 16  7  2  0  0  0  0
 18 12  2  0  0  0  0
 19 23  2  0  0  0  0
 19 20  1  0  0  0  0
 20 22  2  0  0  0  0
 21 15  1  0  0  0  0
 21 24  2  0  0  0  0
 22 24  1  0  0  0  0
 23 21  1  0  0  0  0
 25 19  1  0  0  0  0
 26 27  1  0  0  0  0
 26 16  1  0  0  0  0
 29 27  1  6  0  0  0
 29 33  1  0  0  0  0
 29 30  1  0  0  0  0
 30 28  1  6  0  0  0
 30 34  1  0  0  0  0
 32 31  1  0  0  0  0
 33 32  1  0  0  0  0
 34 31  1  0  0  0  0
M  END
>  <MODEL>
9

>  <REMARK>
 VINA RESULT:      -7.1      3.637      8.926
  Name = 
  4 active torsions:
  status: ('A' for Active; 'I' for Inactive)
    1  A    between atoms: C_3  and  C_13
    2  A    between atoms: C_3  and  N_17
    3  A    between atoms: C_12  and  C_28
    4  A    between atoms: N_17  and  C_29
                            x       y       z     vdW  Elec       q    Type
                         _______ _______ _______ _____ _____    ______ ____

>  <TORSDO>
F 4

$$$$
