=
 OpenBabel10262422193D

 43 50  0  0  1  0  0  0  0  0999 V2000
  184.4590  178.9050  140.8030 N   0  0  0  0  0  2  0  0  0  0  0  0
  187.7710  177.5330  147.3990 C   0  0  0  0  0  0  0  0  0  0  0  0
  185.9750  178.5500  142.7850 C   0  0  0  0  0  0  0  0  0  0  0  0
  188.1840  178.5580  141.0130 C   0  0  2  0  0  3  0  0  0  0  0  0
  186.3700  178.2030  145.5380 C   0  0  0  0  0  0  0  0  0  0  0  0
  188.8000  177.2050  146.5120 C   0  0  0  0  0  3  0  0  0  0  0  0
  187.9540  177.3640  148.7640 O   0  0  0  0  0  1  0  0  0  0  0  0
  187.4090  177.8740  144.6340 C   0  0  0  0  0  0  0  0  0  0  0  0
  186.5580  178.0290  146.9130 C   0  0  0  0  0  3  0  0  0  0  0  0
  188.6210  177.3750  145.1360 C   0  0  0  0  0  3  0  0  0  0  0  0
  188.2540  177.6490  142.2450 C   0  0  0  0  0  2  0  0  0  0  0  0
  187.2090  178.0570  143.2520 C   0  0  0  0  0  0  0  0  0  0  0  0
  184.9560  178.8640  143.6900 C   0  0  0  0  0  3  0  0  0  0  0  0
  185.7790  178.7240  141.3300 C   0  0  0  0  0  0  0  0  0  0  0  0
  186.8030  178.6640  140.5280 N   0  0  0  0  0  0  0  0  0  0  0  0
  185.1540  178.6930  145.0610 C   0  0  0  0  0  3  0  0  0  0  0  0
  182.8470  177.7710  137.7470 C   0  0  2  0  0  3  0  0  0  0  0  0
  181.4790  177.8930  138.3920 C   0  0  1  0  0  3  0  0  0  0  0  0
  182.9150  179.7740  139.1440 C   0  0  0  0  0  2  0  0  0  0  0  0
  183.9130  177.6070  138.8150 C   0  0  0  0  0  2  0  0  0  0  0  0
  184.1830  178.9870  139.3760 C   0  0  2  0  0  3  0  0  0  0  0  0
  182.2200  179.1390  137.9520 C   0  0  1  0  0  3  0  0  0  0  0  0
  179.7490  176.3960  137.7570 O   0  0  0  0  0  1  0  0  0  0  0  0
  180.4150  177.5570  137.3690 C   0  0  0  0  0  2  0  0  0  0  0  0
  189.1060  178.0500  139.9080 C   0  0  1  0  0  3  0  0  0  0  0  0
  189.9950  176.9310  140.4270 C   0  0  0  0  0  1  0  0  0  0  0  0
  188.3130  177.5510  138.7930 N   0  0  0  0  0  2  0  0  0  0  0  0
  188.1730  178.2680  137.5660 C   0  0  0  0  0  0  0  0  0  0  0  0
  188.7060  179.4020  137.4190 O   0  0  0  0  0  0  0  0  0  0  0  0
  187.3480  177.6930  136.4700 C   0  0  0  0  0  2  0  0  0  0  0  0
  187.8110  176.3490  136.1580 N   0  0  0  0  0  0  0  0  0  0  0  0
  186.5430  174.3310  136.4890 C   0  0  2  0  0  3  0  0  0  0  0  0
  186.6450  175.5950  135.7210 C   0  0  2  0  0  3  0  0  0  0  0  0
  187.0580  174.3600  135.1810 O   0  0  0  0  0  0  0  0  0  0  0  0
  185.1170  173.7830  136.4830 C   0  0  1  0  0  0  0  0  0  0  0  0
  184.2220  174.2110  137.6230 C   0  0  0  0  0  2  0  0  0  0  0  0
  183.9880  171.8430  135.5720 C   0  0  0  0  0  2  0  0  0  0  0  0
  183.8800  171.7990  137.0830 C   0  0  0  0  0  2  0  0  0  0  0  0
  184.4380  173.2460  135.2310 C   0  0  0  0  0  2  0  0  0  0  0  0
  184.8570  172.8260  137.6250 C   0  0  1  0  0  3  0  0  0  0  0  0
  188.7010  176.4590  135.0100 C   0  0  0  0  0  2  0  0  0  0  0  0
  190.3040  175.0960  136.7780 S   0  0  0  0  0  1  0  0  0  0  0  0
  190.1510  176.3230  135.4460 C   0  0  0  0  0  2  0  0  0  0  0  0
  1 14  1  0  0  0  0
  2  7  1  0  0  0  0
  3 12  2  0  0  0  0
  3 13  1  0  0  0  0
  4 25  1  6  0  0  0
  4 11  1  0  0  0  0
  5  9  2  0  0  0  0
  6  2  2  0  0  0  0
  8 10  2  0  0  0  0
  8  5  1  0  0  0  0
  9  2  1  0  0  0  0
 10  6  1  0  0  0  0
 11 12  1  0  0  0  0
 12  8  1  0  0  0  0
 13 16  2  0  0  0  0
 14  3  1  0  0  0  0
 15  4  1  0  0  0  0
 15 14  2  0  0  0  0
 16  5  1  0  0  0  0
 17 22  1  0  0  0  0
 17 18  1  0  0  0  0
 17 20  1  1  0  0  0
 18 24  1  6  0  0  0
 19 21  1  0  0  0  0
 20 21  1  0  0  0  0
 21  1  1  1  0  0  0
 22 18  1  0  0  0  0
 22 19  1  1  0  0  0
 24 23  1  0  0  0  0
 25 26  1  1  0  0  0
 27 25  1  0  0  0  0
 28 27  1  0  0  0  0
 29 28  2  0  0  0  0
 30 28  1  0  0  0  0
 31 30  1  0  0  0  0
 32 34  1  6  0  0  0
 33 31  1  1  0  0  0
 33 32  1  0  0  0  0
 34 33  1  0  0  0  0
 35 39  1  6  0  0  0
 35 32  1  0  0  0  0
 35 36  1  0  0  0  0
 35 40  1  0  0  0  0
 36 40  1  0  0  0  0
 37 38  1  0  0  0  0
 39 37  1  0  0  0  0
 40 38  1  6  0  0  0
 41 43  1  0  0  0  0
 41 31  1  0  0  0  0
 43 42  1  0  0  0  0
M  END
>  <MODEL>
1

>  <REMARK>
 VINA RESULT:      -9.2      0.000      0.000
  Name = 
  10 active torsions:
  status: ('A' for Active; 'I' for Inactive)
    1  A    between atoms: N_1  and  C_35
    2  A    between atoms: C_2  and  N_6
    3  A    between atoms: C_2  and  C_13
    4  A    between atoms: C_3  and  N_4
    5  A    between atoms: C_3  and  C_12
    6  A    between atoms: N_4  and  C_15
    7  A    between atoms: N_4  and  C_22
    8  A    between atoms: C_11  and  C_14
    9  A    between atoms: C_15  and  C_42
   10  A    between atoms: C_19  and  C_37
                            x       y       z     vdW  Elec       q    Type
                         _______ _______ _______ _____ _____    ______ ____

>  <TORSDO>
F 10

$$$$
=
 OpenBabel10262422193D

 43 50  0  0  1  0  0  0  0  0999 V2000
  184.4640  178.7790  140.9300 N   0  0  0  0  0  2  0  0  0  0  0  0
  187.7480  177.6030  147.5780 C   0  0  0  0  0  0  0  0  0  0  0  0
  185.9680  178.5020  142.9330 C   0  0  0  0  0  0  0  0  0  0  0  0
  188.1960  178.5760  141.1870 C   0  0  2  0  0  3  0  0  0  0  0  0
  186.3450  178.1990  145.6940 C   0  0  0  0  0  0  0  0  0  0  0  0
  188.7990  177.3050  146.7060 C   0  0  0  0  0  3  0  0  0  0  0  0
  187.9220  177.4560  148.9470 O   0  0  0  0  0  1  0  0  0  0  0  0
  187.4060  177.9010  144.8050 C   0  0  0  0  0  0  0  0  0  0  0  0
  186.5230  178.0470  147.0730 C   0  0  0  0  0  3  0  0  0  0  0  0
  188.6300  177.4530  145.3270 C   0  0  0  0  0  3  0  0  0  0  0  0
  188.2860  177.6830  142.4290 C   0  0  0  0  0  2  0  0  0  0  0  0
  187.2150  178.0610  143.4200 C   0  0  0  0  0  0  0  0  0  0  0  0
  184.9280  178.7870  143.8230 C   0  0  0  0  0  3  0  0  0  0  0  0
  185.7830  178.6530  141.4740 C   0  0  0  0  0  0  0  0  0  0  0  0
  186.8180  178.6240  140.6850 N   0  0  0  0  0  0  0  0  0  0  0  0
  185.1160  178.6380  145.1980 C   0  0  0  0  0  3  0  0  0  0  0  0
  182.7350  177.7190  137.9120 C   0  0  2  0  0  3  0  0  0  0  0  0
  181.3890  178.0260  138.5430 C   0  0  1  0  0  3  0  0  0  0  0  0
  183.0340  179.7550  139.2280 C   0  0  0  0  0  2  0  0  0  0  0  0
  183.7720  177.4740  138.9930 C   0  0  0  0  0  2  0  0  0  0  0  0
  184.2010  178.8340  139.5000 C   0  0  2  0  0  3  0  0  0  0  0  0
  182.2720  179.1580  138.0580 C   0  0  1  0  0  3  0  0  0  0  0  0
  179.8420  176.4630  137.6480 O   0  0  0  0  0  1  0  0  0  0  0  0
  180.2950  177.7760  137.5270 C   0  0  0  0  0  2  0  0  0  0  0  0
  189.1500  178.0910  140.0970 C   0  0  1  0  0  3  0  0  0  0  0  0
  190.1280  177.0720  140.6590 C   0  0  0  0  0  1  0  0  0  0  0  0
  188.3920  177.4790  139.0140 N   0  0  0  0  0  2  0  0  0  0  0  0
  188.2140  178.1120  137.7460 C   0  0  0  0  0  0  0  0  0  0  0  0
  188.6780  179.2650  137.5320 O   0  0  0  0  0  0  0  0  0  0  0  0
  187.4300  177.4230  136.6860 C   0  0  0  0  0  2  0  0  0  0  0  0
  188.3190  176.9950  135.6160 N   0  0  0  0  0  0  0  0  0  0  0  0
  190.5770  176.1800  135.7690 C   0  0  2  0  0  3  0  0  0  0  0  0
  189.1680  175.9500  136.1690 C   0  0  2  0  0  3  0  0  0  0  0  0
  189.7720  175.2290  135.1180 O   0  0  0  0  0  0  0  0  0  0  0  0
  191.5510  175.4850  136.7190 C   0  0  1  0  0  0  0  0  0  0  0  0
  192.1450  176.3330  137.8200 C   0  0  0  0  0  2  0  0  0  0  0  0
  193.0260  173.5660  136.6230 C   0  0  0  0  0  2  0  0  0  0  0  0
  193.8650  174.8080  136.8490 C   0  0  0  0  0  2  0  0  0  0  0  0
  191.5970  173.9750  136.9040 C   0  0  0  0  0  2  0  0  0  0  0  0
  192.9660  176.0020  136.5810 C   0  0  1  0  0  3  0  0  0  0  0  0
  187.4870  176.3700  134.5960 C   0  0  0  0  0  2  0  0  0  0  0  0
  185.7330  174.3820  135.3200 S   0  0  0  0  0  1  0  0  0  0  0  0
  186.0750  176.1550  135.1190 C   0  0  0  0  0  2  0  0  0  0  0  0
  1 14  1  0  0  0  0
  2  7  1  0  0  0  0
  3 12  2  0  0  0  0
  3 13  1  0  0  0  0
  4 25  1  6  0  0  0
  4 11  1  0  0  0  0
  5  9  2  0  0  0  0
  6  2  2  0  0  0  0
  8 10  2  0  0  0  0
  8  5  1  0  0  0  0
  9  2  1  0  0  0  0
 10  6  1  0  0  0  0
 11 12  1  0  0  0  0
 12  8  1  0  0  0  0
 13 16  2  0  0  0  0
 14  3  1  0  0  0  0
 15  4  1  0  0  0  0
 15 14  2  0  0  0  0
 16  5  1  0  0  0  0
 17 22  1  0  0  0  0
 17 18  1  0  0  0  0
 17 20  1  1  0  0  0
 18 24  1  6  0  0  0
 19 21  1  0  0  0  0
 20 21  1  0  0  0  0
 21  1  1  1  0  0  0
 22 18  1  0  0  0  0
 22 19  1  1  0  0  0
 24 23  1  0  0  0  0
 25 26  1  1  0  0  0
 27 25  1  0  0  0  0
 28 27  1  0  0  0  0
 29 28  2  0  0  0  0
 30 28  1  0  0  0  0
 31 30  1  0  0  0  0
 32 34  1  6  0  0  0
 32 33  1  0  0  0  0
 32 35  1  0  0  0  0
 33 31  1  6  0  0  0
 34 33  1  0  0  0  0
 35 39  1  1  0  0  0
 35 36  1  0  0  0  0
 37 38  1  0  0  0  0
 37 39  1  0  0  0  0
 40 35  1  0  0  0  0
 40 38  1  1  0  0  0
 40 36  1  0  0  0  0
 41 43  1  0  0  0  0
 41 31  1  0  0  0  0
 43 42  1  0  0  0  0
M  END
>  <MODEL>
2

>  <REMARK>
 VINA RESULT:      -8.6      1.831      3.467
  Name = 
  10 active torsions:
  status: ('A' for Active; 'I' for Inactive)
    1  A    between atoms: N_1  and  C_35
    2  A    between atoms: C_2  and  N_6
    3  A    between atoms: C_2  and  C_13
    4  A    between atoms: C_3  and  N_4
    5  A    between atoms: C_3  and  C_12
    6  A    between atoms: N_4  and  C_15
    7  A    between atoms: N_4  and  C_22
    8  A    between atoms: C_11  and  C_14
    9  A    between atoms: C_15  and  C_42
   10  A    between atoms: C_19  and  C_37
                            x       y       z     vdW  Elec       q    Type
                         _______ _______ _______ _____ _____    ______ ____

>  <TORSDO>
F 10

$$$$
=
 OpenBabel10262422193D

 43 50  0  0  1  0  0  0  0  0999 V2000
  186.6340  178.2210  146.8630 N   0  0  0  0  0  2  0  0  0  0  0  0
  181.9140  179.0750  141.0880 C   0  0  0  0  0  0  0  0  0  0  0  0
  185.3460  178.2100  144.6970 C   0  0  0  0  0  0  0  0  0  0  0  0
  187.5860  177.0110  143.4460 C   0  0  2  0  0  3  0  0  0  0  0  0
  183.0340  178.7760  143.2160 C   0  0  0  0  0  0  0  0  0  0  0  0
  183.1100  178.8050  140.4160 C   0  0  0  0  0  3  0  0  0  0  0  0
  180.7630  179.3580  140.3660 O   0  0  0  0  0  1  0  0  0  0  0  0
  184.2480  178.4990  142.5420 C   0  0  0  0  0  0  0  0  0  0  0  0
  181.8770  179.0620  142.4850 C   0  0  0  0  0  3  0  0  0  0  0  0
  184.2710  178.5180  141.1380 C   0  0  0  0  0  3  0  0  0  0  0  0
  186.7370  177.9840  142.6210 C   0  0  0  0  0  2  0  0  0  0  0  0
  185.4050  178.2090  143.2890 C   0  0  0  0  0  0  0  0  0  0  0  0
  184.1400  178.4910  145.3490 C   0  0  0  0  0  3  0  0  0  0  0  0
  186.5730  177.9140  145.4650 C   0  0  0  0  0  0  0  0  0  0  0  0
  187.6130  177.4190  144.8560 N   0  0  0  0  0  0  0  0  0  0  0  0
  182.9890  178.7710  144.6110 C   0  0  0  0  0  3  0  0  0  0  0  0
  189.7990  176.6040  147.6320 C   0  0  2  0  0  3  0  0  0  0  0  0
  190.3200  176.9000  146.2380 C   0  0  1  0  0  3  0  0  0  0  0  0
  188.9780  178.8280  147.0430 C   0  0  0  0  0  2  0  0  0  0  0  0
  188.2810  176.5990  147.6300 C   0  0  0  0  0  2  0  0  0  0  0  0
  187.8410  178.0460  147.6580 C   0  0  2  0  0  3  0  0  0  0  0  0
  190.2380  178.0120  147.2660 C   0  0  1  0  0  3  0  0  0  0  0  0
  192.3360  176.4220  147.3960 O   0  0  0  0  0  1  0  0  0  0  0  0
  191.7530  176.4230  146.1310 C   0  0  0  0  0  2  0  0  0  0  0  0
  189.0030  176.9140  142.8870 C   0  0  1  0  0  3  0  0  0  0  0  0
  189.5960  175.5430  143.1690 C   0  0  0  0  0  1  0  0  0  0  0  0
  188.9830  177.1380  141.4470 N   0  0  0  0  0  2  0  0  0  0  0  0
  190.1700  177.3630  140.6870 C   0  0  0  0  0  0  0  0  0  0  0  0
  191.2960  177.4200  141.2530 O   0  0  0  0  0  0  0  0  0  0  0  0
  190.0710  177.5800  139.2190 C   0  0  0  0  0  2  0  0  0  0  0  0
  189.4630  176.4180  138.5880 N   0  0  0  0  0  0  0  0  0  0  0  0
  187.2800  176.3190  137.5810 C   0  0  2  0  0  3  0  0  0  0  0  0
  188.6350  176.9180  137.5010 C   0  0  2  0  0  3  0  0  0  0  0  0
  188.2450  175.8430  136.6740 O   0  0  0  0  0  0  0  0  0  0  0  0
  186.2450  177.1720  136.8500 C   0  0  1  0  0  0  0  0  0  0  0  0
  185.5190  178.2100  137.6750 C   0  0  0  0  0  2  0  0  0  0  0  0
  184.8530  176.9370  134.8810 C   0  0  0  0  0  2  0  0  0  0  0  0
  183.9540  177.0800  136.0940 C   0  0  0  0  0  2  0  0  0  0  0  0
  186.2330  177.3530  135.3390 C   0  0  0  0  0  2  0  0  0  0  0  0
  184.8330  176.8980  137.3180 C   0  0  1  0  0  3  0  0  0  0  0  0
  190.5410  175.6490  137.9820 C   0  0  0  0  0  2  0  0  0  0  0  0
  193.2600  176.0190  137.8160 S   0  0  0  0  0  1  0  0  0  0  0  0
  191.5860  176.5780  137.3840 C   0  0  0  0  0  2  0  0  0  0  0  0
  2  9  1  0  0  0  0
  3 13  1  0  0  0  0
  3 14  1  0  0  0  0
  4 25  1  6  0  0  0
  4 15  1  0  0  0  0
  5 16  1  0  0  0  0
  6  2  2  0  0  0  0
  6 10  1  0  0  0  0
  7  2  1  0  0  0  0
  8  5  1  0  0  0  0
  8 12  1  0  0  0  0
  9  5  2  0  0  0  0
 10  8  2  0  0  0  0
 11 12  1  0  0  0  0
 11  4  1  0  0  0  0
 12  3  2  0  0  0  0
 14  1  1  0  0  0  0
 15 14  2  0  0  0  0
 16 13  2  0  0  0  0
 17 20  1  6  0  0  0
 18 24  1  1  0  0  0
 18 22  1  0  0  0  0
 18 17  1  0  0  0  0
 19 21  1  0  0  0  0
 20 21  1  0  0  0  0
 21  1  1  6  0  0  0
 22 19  1  6  0  0  0
 22 17  1  0  0  0  0
 24 23  1  0  0  0  0
 25 26  1  6  0  0  0
 27 25  1  0  0  0  0
 28 29  2  0  0  0  0
 28 27  1  0  0  0  0
 30 28  1  0  0  0  0
 31 30  1  0  0  0  0
 32 34  1  6  0  0  0
 33 32  1  0  0  0  0
 33 31  1  1  0  0  0
 34 33  1  0  0  0  0
 35 39  1  6  0  0  0
 35 40  1  0  0  0  0
 35 32  1  0  0  0  0
 35 36  1  0  0  0  0
 37 39  1  0  0  0  0
 37 38  1  0  0  0  0
 40 38  1  6  0  0  0
 40 36  1  0  0  0  0
 41 31  1  0  0  0  0
 43 42  1  0  0  0  0
 43 41  1  0  0  0  0
M  END
>  <MODEL>
3

>  <REMARK>
 VINA RESULT:      -8.2      2.662      6.711
  Name = 
  10 active torsions:
  status: ('A' for Active; 'I' for Inactive)
    1  A    between atoms: N_1  and  C_35
    2  A    between atoms: C_2  and  N_6
    3  A    between atoms: C_2  and  C_13
    4  A    between atoms: C_3  and  N_4
    5  A    between atoms: C_3  and  C_12
    6  A    between atoms: N_4  and  C_15
    7  A    between atoms: N_4  and  C_22
    8  A    between atoms: C_11  and  C_14
    9  A    between atoms: C_15  and  C_42
   10  A    between atoms: C_19  and  C_37
                            x       y       z     vdW  Elec       q    Type
                         _______ _______ _______ _____ _____    ______ ____

>  <TORSDO>
F 10

$$$$
=
 OpenBabel10262422193D

 43 50  0  0  1  0  0  0  0  0999 V2000
  188.0610  178.2380  146.0860 N   0  0  0  0  0  2  0  0  0  0  0  0
  181.4170  179.0080  142.6760 C   0  0  0  0  0  0  0  0  0  0  0  0
  186.0390  178.2600  144.5820 C   0  0  0  0  0  0  0  0  0  0  0  0
  187.7080  177.4720  142.4350 C   0  0  2  0  0  3  0  0  0  0  0  0
  183.2950  178.6610  144.1670 C   0  0  0  0  0  0  0  0  0  0  0  0
  182.2760  178.9530  141.5750 C   0  0  0  0  0  3  0  0  0  0  0  0
  180.0570  179.2070  142.4840 O   0  0  0  0  0  1  0  0  0  0  0  0
  184.1710  178.6020  143.0560 C   0  0  0  0  0  0  0  0  0  0  0  0
  181.9260  178.8640  143.9700 C   0  0  0  0  0  3  0  0  0  0  0  0
  183.6450  178.7510  141.7640 C   0  0  0  0  0  3  0  0  0  0  0  0
  186.5290  178.4010  142.1250 C   0  0  0  0  0  2  0  0  0  0  0  0
  185.5470  178.3940  143.2690 C   0  0  0  0  0  0  0  0  0  0  0  0
  185.1620  178.3260  145.6710 C   0  0  0  0  0  3  0  0  0  0  0  0
  187.4880  178.0530  144.7860 C   0  0  0  0  0  0  0  0  0  0  0  0
  188.2460  177.7500  143.7720 N   0  0  0  0  0  0  0  0  0  0  0  0
  183.7960  178.5240  145.4630 C   0  0  0  0  0  3  0  0  0  0  0  0
  191.2160  176.4350  146.2200 C   0  0  2  0  0  3  0  0  0  0  0  0
  191.0740  176.0260  144.7650 C   0  0  1  0  0  3  0  0  0  0  0  0
  190.2530  178.3520  145.0510 C   0  0  0  0  0  2  0  0  0  0  0  0
  189.8520  176.7520  146.8060 C   0  0  0  0  0  2  0  0  0  0  0  0
  189.4910  178.1460  146.3390 C   0  0  2  0  0  3  0  0  0  0  0  0
  191.4710  177.4460  145.1160 C   0  0  1  0  0  3  0  0  0  0  0  0
  192.4460  174.1280  145.1540 O   0  0  0  0  0  1  0  0  0  0  0  0
  192.3060  175.2530  144.3440 C   0  0  0  0  0  2  0  0  0  0  0  0
  188.8000  177.6060  141.3760 C   0  0  1  0  0  3  0  0  0  0  0  0
  189.9920  176.7300  141.7250 C   0  0  0  0  0  1  0  0  0  0  0  0
  188.2790  177.2080  140.0750 N   0  0  0  0  0  2  0  0  0  0  0  0
  188.4620  177.9960  138.8990 C   0  0  0  0  0  0  0  0  0  0  0  0
  189.0530  179.1080  138.9550 O   0  0  0  0  0  0  0  0  0  0  0  0
  187.9030  177.5220  137.6040 C   0  0  0  0  0  2  0  0  0  0  0  0
  188.3090  176.1450  137.3670 N   0  0  0  0  0  0  0  0  0  0  0  0
  186.8970  174.2110  137.1390 C   0  0  2  0  0  3  0  0  0  0  0  0
  187.2590  175.5300  136.5680 C   0  0  2  0  0  3  0  0  0  0  0  0
  187.7340  174.3230  136.0150 O   0  0  0  0  0  0  0  0  0  0  0  0
  185.4940  173.7800  136.7110 C   0  0  1  0  0  0  0  0  0  0  0  0
  184.3490  174.2440  137.5810 C   0  0  0  0  0  2  0  0  0  0  0  0
  184.5330  171.9640  135.4270 C   0  0  0  0  0  2  0  0  0  0  0  0
  184.0060  171.8840  136.8460 C   0  0  0  0  0  2  0  0  0  0  0  0
  185.1560  173.3360  135.2950 C   0  0  0  0  0  2  0  0  0  0  0  0
  184.8610  172.8130  137.6880 C   0  0  1  0  0  3  0  0  0  0  0  0
  189.5040  176.1890  136.5360 C   0  0  0  0  0  2  0  0  0  0  0  0
  191.6690  176.3810  138.2180 S   0  0  0  0  0  1  0  0  0  0  0  0
  190.6130  175.3530  137.1550 C   0  0  0  0  0  2  0  0  0  0  0  0
  2  9  1  0  0  0  0
  3 14  1  0  0  0  0
  3 13  1  0  0  0  0
  4 25  1  6  0  0  0
  4 15  1  0  0  0  0
  5 16  1  0  0  0  0
  6 10  1  0  0  0  0
  6  2  2  0  0  0  0
  7  2  1  0  0  0  0
  8 12  1  0  0  0  0
  8  5  1  0  0  0  0
  9  5  2  0  0  0  0
 10  8  2  0  0  0  0
 11  4  1  0  0  0  0
 11 12  1  0  0  0  0
 12  3  2  0  0  0  0
 14  1  1  0  0  0  0
 15 14  2  0  0  0  0
 16 13  2  0  0  0  0
 17 20  1  1  0  0  0
 18 24  1  6  0  0  0
 18 22  1  0  0  0  0
 18 17  1  0  0  0  0
 19 21  1  0  0  0  0
 21  1  1  6  0  0  0
 21 20  1  0  0  0  0
 22 19  1  1  0  0  0
 22 17  1  0  0  0  0
 24 23  1  0  0  0  0
 25 26  1  1  0  0  0
 27 25  1  0  0  0  0
 28 29  2  0  0  0  0
 28 27  1  0  0  0  0
 30 28  1  0  0  0  0
 31 30  1  0  0  0  0
 32 34  1  6  0  0  0
 33 32  1  0  0  0  0
 33 31  1  1  0  0  0
 34 33  1  0  0  0  0
 35 39  1  6  0  0  0
 35 32  1  0  0  0  0
 35 36  1  0  0  0  0
 35 40  1  0  0  0  0
 36 40  1  0  0  0  0
 37 38  1  0  0  0  0
 39 37  1  0  0  0  0
 40 38  1  6  0  0  0
 41 43  1  0  0  0  0
 41 31  1  0  0  0  0
 43 42  1  0  0  0  0
M  END
>  <MODEL>
4

>  <REMARK>
 VINA RESULT:      -8.0      2.352      6.019
  Name = 
  10 active torsions:
  status: ('A' for Active; 'I' for Inactive)
    1  A    between atoms: N_1  and  C_35
    2  A    between atoms: C_2  and  N_6
    3  A    between atoms: C_2  and  C_13
    4  A    between atoms: C_3  and  N_4
    5  A    between atoms: C_3  and  C_12
    6  A    between atoms: N_4  and  C_15
    7  A    between atoms: N_4  and  C_22
    8  A    between atoms: C_11  and  C_14
    9  A    between atoms: C_15  and  C_42
   10  A    between atoms: C_19  and  C_37
                            x       y       z     vdW  Elec       q    Type
                         _______ _______ _______ _____ _____    ______ ____

>  <TORSDO>
F 10

$$$$
=
 OpenBabel10262422193D

 43 50  0  0  1  0  0  0  0  0999 V2000
  190.4850  177.0160  140.2490 N   0  0  0  0  0  2  0  0  0  0  0  0
  185.7760  178.1260  145.9890 C   0  0  0  0  0  0  0  0  0  0  0  0
  188.5640  177.3730  141.8410 C   0  0  0  0  0  0  0  0  0  0  0  0
  186.9000  177.9010  139.6110 C   0  0  2  0  0  3  0  0  0  0  0  0
  187.5180  177.4650  144.4400 C   0  0  0  0  0  0  0  0  0  0  0  0
  185.0560  178.7050  144.9400 C   0  0  0  0  0  3  0  0  0  0  0  0
  185.2700  178.1670  147.2810 O   0  0  0  0  0  1  0  0  0  0  0  0
  186.7930  178.0470  143.3720 C   0  0  0  0  0  0  0  0  0  0  0  0
  187.0050  177.5090  145.7400 C   0  0  0  0  0  3  0  0  0  0  0  0
  185.5620  178.6660  143.6380 C   0  0  0  0  0  3  0  0  0  0  0  0
  186.6240  178.6650  140.9100 C   0  0  0  0  0  2  0  0  0  0  0  0
  187.3190  177.9930  142.0670 C   0  0  0  0  0  0  0  0  0  0  0  0
  189.2710  176.8080  142.9070 C   0  0  0  0  0  3  0  0  0  0  0  0
  189.1050  177.3360  140.4660 C   0  0  0  0  0  0  0  0  0  0  0  0
  188.3360  177.6410  139.4600 N   0  0  0  0  0  0  0  0  0  0  0  0
  188.7490  176.8520  144.2010 C   0  0  0  0  0  3  0  0  0  0  0  0
  193.2310  176.4000  137.9460 C   0  0  2  0  0  3  0  0  0  0  0  0
  193.2440  174.9280  138.3140 C   0  0  1  0  0  3  0  0  0  0  0  0
  190.8980  175.7350  138.2290 C   0  0  0  0  0  2  0  0  0  0  0  0
  192.6060  177.2110  139.0670 C   0  0  0  0  0  2  0  0  0  0  0  0
  191.1070  177.0550  138.9330 C   0  0  2  0  0  3  0  0  0  0  0  0
  192.1520  175.4720  137.4150 C   0  0  1  0  0  3  0  0  0  0  0  0
  195.2960  175.1030  137.1330 O   0  0  0  0  0  1  0  0  0  0  0  0
  194.2770  174.2130  137.4690 C   0  0  0  0  0  2  0  0  0  0  0  0
  186.3600  178.6650  138.4040 C   0  0  1  0  0  3  0  0  0  0  0  0
  187.1110  178.2680  137.1430 C   0  0  0  0  0  1  0  0  0  0  0  0
  184.9440  178.3750  138.2280 N   0  0  0  0  0  2  0  0  0  0  0  0
  183.9200  179.3130  138.5590 C   0  0  0  0  0  0  0  0  0  0  0  0
  184.2100  180.4300  139.0680 O   0  0  0  0  0  0  0  0  0  0  0  0
  182.4930  178.9470  138.3490 C   0  0  0  0  0  2  0  0  0  0  0  0
  181.6320  179.9410  138.9710 N   0  0  0  0  0  0  0  0  0  0  0  0
  180.9560  182.1580  138.3230 C   0  0  2  0  0  3  0  0  0  0  0  0
  181.0710  180.7430  137.8930 C   0  0  2  0  0  3  0  0  0  0  0  0
  179.8430  181.2980  138.3090 O   0  0  0  0  0  0  0  0  0  0  0  0
  180.9050  183.1060  137.1270 C   0  0  1  0  0  0  0  0  0  0  0  0
  181.6730  184.4020  137.2560 C   0  0  0  0  0  2  0  0  0  0  0  0
  179.3860  183.5270  135.2870 C   0  0  0  0  0  2  0  0  0  0  0  0
  179.4760  184.7800  136.1360 C   0  0  0  0  0  2  0  0  0  0  0  0
  180.5410  182.6520  135.7200 C   0  0  0  0  0  2  0  0  0  0  0  0
  180.1600  184.3870  137.4320 C   0  0  1  0  0  3  0  0  0  0  0  0
  180.5240  179.2220  139.5850 C   0  0  0  0  0  2  0  0  0  0  0  0
  179.5250  180.4190  141.8490 S   0  0  0  0  0  1  0  0  0  0  0  0
  180.6670  179.2200  141.0990 C   0  0  0  0  0  2  0  0  0  0  0  0
  1 14  1  0  0  0  0
  2  7  1  0  0  0  0
  3 12  2  0  0  0  0
  3 13  1  0  0  0  0
  4 25  1  6  0  0  0
  4 11  1  0  0  0  0
  5  9  2  0  0  0  0
  6  2  2  0  0  0  0
  8 10  2  0  0  0  0
  8  5  1  0  0  0  0
  9  2  1  0  0  0  0
 10  6  1  0  0  0  0
 11 12  1  0  0  0  0
 12  8  1  0  0  0  0
 13 16  2  0  0  0  0
 14  3  1  0  0  0  0
 15  4  1  0  0  0  0
 15 14  2  0  0  0  0
 16  5  1  0  0  0  0
 17 18  1  0  0  0  0
 17 20  1  1  0  0  0
 18 24  1  6  0  0  0
 19 21  1  0  0  0  0
 21 20  1  0  0  0  0
 21  1  1  1  0  0  0
 22 17  1  0  0  0  0
 22 19  1  1  0  0  0
 22 18  1  0  0  0  0
 23 24  1  0  0  0  0
 25 26  1  6  0  0  0
 27 25  1  0  0  0  0
 27 28  1  0  0  0  0
 28 29  2  0  0  0  0
 30 28  1  0  0  0  0
 30 31  1  0  0  0  0
 31 41  1  0  0  0  0
 32 34  1  6  0  0  0
 33 34  1  0  0  0  0
 33 32  1  0  0  0  0
 33 31  1  1  0  0  0
 35 39  1  6  0  0  0
 35 36  1  0  0  0  0
 35 40  1  0  0  0  0
 35 32  1  0  0  0  0
 36 40  1  0  0  0  0
 37 39  1  0  0  0  0
 37 38  1  0  0  0  0
 40 38  1  6  0  0  0
 41 43  1  0  0  0  0
 43 42  1  0  0  0  0
M  END
>  <MODEL>
5

>  <REMARK>
 VINA RESULT:      -7.9      3.815      8.156
  Name = 
  10 active torsions:
  status: ('A' for Active; 'I' for Inactive)
    1  A    between atoms: N_1  and  C_35
    2  A    between atoms: C_2  and  N_6
    3  A    between atoms: C_2  and  C_13
    4  A    between atoms: C_3  and  N_4
    5  A    between atoms: C_3  and  C_12
    6  A    between atoms: N_4  and  C_15
    7  A    between atoms: N_4  and  C_22
    8  A    between atoms: C_11  and  C_14
    9  A    between atoms: C_15  and  C_42
   10  A    between atoms: C_19  and  C_37
                            x       y       z     vdW  Elec       q    Type
                         _______ _______ _______ _____ _____    ______ ____

>  <TORSDO>
F 10

$$$$
=
 OpenBabel10262422193D

 43 50  0  0  1  0  0  0  0  0999 V2000
  188.0390  178.2960  145.9480 N   0  0  0  0  0  2  0  0  0  0  0  0
  181.2580  179.0000  142.8050 C   0  0  0  0  0  0  0  0  0  0  0  0
  185.9600  178.3010  144.5250 C   0  0  0  0  0  0  0  0  0  0  0  0
  187.5540  177.5460  142.3090 C   0  0  2  0  0  3  0  0  0  0  0  0
  183.1980  178.6690  144.2200 C   0  0  0  0  0  0  0  0  0  0  0  0
  182.0740  178.9620  141.6710 C   0  0  0  0  0  3  0  0  0  0  0  0
  179.8890  179.1840  142.6680 O   0  0  0  0  0  1  0  0  0  0  0  0
  184.0290  178.6270  143.0750 C   0  0  0  0  0  0  0  0  0  0  0  0
  181.8190  178.8560  144.0770 C   0  0  0  0  0  3  0  0  0  0  0  0
  183.4520  178.7770  141.8040 C   0  0  0  0  0  3  0  0  0  0  0  0
  186.3520  178.4620  142.0510 C   0  0  0  0  0  2  0  0  0  0  0  0
  185.4150  178.4360  143.2320 C   0  0  0  0  0  0  0  0  0  0  0  0
  185.1260  178.3500  145.6470 C   0  0  0  0  0  3  0  0  0  0  0  0
  187.4180  178.1110  144.6700 C   0  0  0  0  0  0  0  0  0  0  0  0
  188.1400  177.8240  143.6250 N   0  0  0  0  0  0  0  0  0  0  0  0
  183.7500  178.5320  145.4940 C   0  0  0  0  0  3  0  0  0  0  0  0
  191.2100  176.5150  146.0140 C   0  0  2  0  0  3  0  0  0  0  0  0
  191.0100  176.0540  144.5820 C   0  0  1  0  0  3  0  0  0  0  0  0
  190.1870  178.3850  144.8190 C   0  0  0  0  0  2  0  0  0  0  0  0
  189.8690  176.8460  146.6450 C   0  0  0  0  0  2  0  0  0  0  0  0
  189.4800  178.2210  146.1440 C   0  0  2  0  0  3  0  0  0  0  0  0
  191.4120  177.4880  144.8650 C   0  0  1  0  0  3  0  0  0  0  0  0
  192.4560  174.2250  145.0270 O   0  0  0  0  0  1  0  0  0  0  0  0
  192.2290  175.2730  144.1370 C   0  0  0  0  0  2  0  0  0  0  0  0
  188.6020  177.7000  141.2090 C   0  0  1  0  0  3  0  0  0  0  0  0
  189.7740  176.7640  141.4550 C   0  0  0  0  0  1  0  0  0  0  0  0
  188.0080  177.3920  139.9140 N   0  0  0  0  0  2  0  0  0  0  0  0
  188.2770  178.1630  138.7430 C   0  0  0  0  0  0  0  0  0  0  0  0
  189.0160  179.1830  138.7990 O   0  0  0  0  0  0  0  0  0  0  0  0
  187.6360  177.7860  137.4540 C   0  0  0  0  0  2  0  0  0  0  0  0
  188.6570  177.5770  136.4390 N   0  0  0  0  0  0  0  0  0  0  0  0
  190.8890  176.6870  136.5680 C   0  0  2  0  0  3  0  0  0  0  0  0
  189.4590  176.4440  136.8770 C   0  0  2  0  0  3  0  0  0  0  0  0
  190.0910  175.8560  135.7620 O   0  0  0  0  0  0  0  0  0  0  0  0
  191.8050  175.8430  137.4520 C   0  0  1  0  0  0  0  0  0  0  0  0
  192.3120  176.4930  138.7190 C   0  0  0  0  0  2  0  0  0  0  0  0
  193.3090  173.9700  137.1350 C   0  0  0  0  0  2  0  0  0  0  0  0
  194.1130  175.1570  137.6250 C   0  0  0  0  0  2  0  0  0  0  0  0
  191.8590  174.3230  137.3820 C   0  0  0  0  0  2  0  0  0  0  0  0
  193.2190  176.3780  137.5010 C   0  0  1  0  0  3  0  0  0  0  0  0
  187.9700  177.1670  135.2210 C   0  0  0  0  0  2  0  0  0  0  0  0
  186.3820  174.9240  135.2250 S   0  0  0  0  0  1  0  0  0  0  0  0
  186.5570  176.7050  135.5390 C   0  0  0  0  0  2  0  0  0  0  0  0
  2  9  1  0  0  0  0
  3 14  1  0  0  0  0
  3 13  1  0  0  0  0
  4 25  1  6  0  0  0
  4 15  1  0  0  0  0
  5 16  1  0  0  0  0
  6 10  1  0  0  0  0
  6  2  2  0  0  0  0
  7  2  1  0  0  0  0
  8 12  1  0  0  0  0
  8  5  1  0  0  0  0
  9  5  2  0  0  0  0
 10  8  2  0  0  0  0
 11  4  1  0  0  0  0
 11 12  1  0  0  0  0
 12  3  2  0  0  0  0
 14  1  1  0  0  0  0
 15 14  2  0  0  0  0
 16 13  2  0  0  0  0
 17 20  1  1  0  0  0
 18 24  1  6  0  0  0
 18 22  1  0  0  0  0
 18 17  1  0  0  0  0
 19 21  1  0  0  0  0
 21  1  1  6  0  0  0
 21 20  1  0  0  0  0
 22 19  1  1  0  0  0
 22 17  1  0  0  0  0
 24 23  1  0  0  0  0
 25 26  1  1  0  0  0
 27 25  1  0  0  0  0
 28 29  2  0  0  0  0
 28 27  1  0  0  0  0
 30 28  1  0  0  0  0
 31 30  1  0  0  0  0
 32 34  1  6  0  0  0
 32 33  1  0  0  0  0
 32 35  1  0  0  0  0
 33 31  1  6  0  0  0
 34 33  1  0  0  0  0
 35 39  1  6  0  0  0
 35 40  1  0  0  0  0
 35 36  1  0  0  0  0
 37 39  1  0  0  0  0
 37 38  1  0  0  0  0
 40 38  1  1  0  0  0
 40 36  1  0  0  0  0
 41 43  1  0  0  0  0
 41 31  1  0  0  0  0
 42 43  1  0  0  0  0
M  END
>  <MODEL>
6

>  <REMARK>
 VINA RESULT:      -7.9      2.998      6.934
  Name = 
  10 active torsions:
  status: ('A' for Active; 'I' for Inactive)
    1  A    between atoms: N_1  and  C_35
    2  A    between atoms: C_2  and  N_6
    3  A    between atoms: C_2  and  C_13
    4  A    between atoms: C_3  and  N_4
    5  A    between atoms: C_3  and  C_12
    6  A    between atoms: N_4  and  C_15
    7  A    between atoms: N_4  and  C_22
    8  A    between atoms: C_11  and  C_14
    9  A    between atoms: C_15  and  C_42
   10  A    between atoms: C_19  and  C_37
                            x       y       z     vdW  Elec       q    Type
                         _______ _______ _______ _____ _____    ______ ____

>  <TORSDO>
F 10

$$$$
=
 OpenBabel10262422193D

 43 50  0  0  1  0  0  0  0  0999 V2000
  188.3770  177.9670  144.4080 N   0  0  0  0  0  2  0  0  0  0  0  0
  181.2150  179.1110  142.4710 C   0  0  0  0  0  0  0  0  0  0  0  0
  186.1080  178.1810  143.3330 C   0  0  0  0  0  0  0  0  0  0  0  0
  187.3380  177.7920  140.8120 C   0  0  2  0  0  3  0  0  0  0  0  0
  183.3380  178.5750  143.5090 C   0  0  0  0  0  0  0  0  0  0  0  0
  181.8500  179.2560  141.2350 C   0  0  0  0  0  3  0  0  0  0  0  0
  179.8440  179.3050  142.5720 O   0  0  0  0  0  1  0  0  0  0  0  0
  183.9880  178.7180  142.2590 C   0  0  0  0  0  0  0  0  0  0  0  0
  181.9570  178.7730  143.6060 C   0  0  0  0  0  3  0  0  0  0  0  0
  183.2300  179.0600  141.1290 C   0  0  0  0  0  3  0  0  0  0  0  0
  186.1270  178.7290  140.8840 C   0  0  0  0  0  2  0  0  0  0  0  0
  185.3780  178.5120  142.1740 C   0  0  0  0  0  0  0  0  0  0  0  0
  185.4520  178.0490  144.5610 C   0  0  0  0  0  3  0  0  0  0  0  0
  187.5680  177.9800  143.2260 C   0  0  0  0  0  0  0  0  0  0  0  0
  188.1200  177.8640  142.0520 N   0  0  0  0  0  0  0  0  0  0  0  0
  184.0720  178.2430  144.6480 C   0  0  0  0  0  3  0  0  0  0  0  0
  191.6290  177.4600  145.9540 C   0  0  2  0  0  3  0  0  0  0  0  0
  191.1870  176.1170  146.5060 C   0  0  1  0  0  3  0  0  0  0  0  0
  190.2420  176.4240  144.2300 C   0  0  0  0  0  2  0  0  0  0  0  0
  190.4180  178.3350  145.6850 C   0  0  0  0  0  2  0  0  0  0  0  0
  189.8290  177.8700  144.3710 C   0  0  2  0  0  3  0  0  0  0  0  0
  191.5200  176.2560  145.0340 C   0  0  1  0  0  3  0  0  0  0  0  0
  192.7380  176.2630  148.2970 O   0  0  0  0  0  1  0  0  0  0  0  0
  192.3510  175.4660  147.2220 C   0  0  0  0  0  2  0  0  0  0  0  0
  188.2120  178.1220  139.6040 C   0  0  1  0  0  3  0  0  0  0  0  0
  189.5080  177.3290  139.6510 C   0  0  0  0  0  1  0  0  0  0  0  0
  187.4990  177.8000  138.3750 N   0  0  0  0  0  2  0  0  0  0  0  0
  187.7380  178.4850  137.1460 C   0  0  0  0  0  0  0  0  0  0  0  0
  188.5590  179.4410  137.0900 O   0  0  0  0  0  0  0  0  0  0  0  0
  186.9730  178.0980  135.9300 C   0  0  0  0  0  2  0  0  0  0  0  0
  186.7080  176.6670  135.9490 N   0  0  0  0  0  0  0  0  0  0  0  0
  184.7920  175.7760  137.0980 C   0  0  2  0  0  3  0  0  0  0  0  0
  185.2620  176.5080  135.8980 C   0  0  2  0  0  3  0  0  0  0  0  0
  184.9410  175.1360  135.8550 O   0  0  0  0  0  0  0  0  0  0  0  0
  183.3150  176.0470  137.3780 C   0  0  1  0  0  0  0  0  0  0  0  0
  182.9690  177.4100  137.9320 C   0  0  0  0  0  2  0  0  0  0  0  0
  181.3520  174.7170  137.8780 C   0  0  0  0  0  2  0  0  0  0  0  0
  181.6300  175.6300  139.0560 C   0  0  0  0  0  2  0  0  0  0  0  0
  182.1870  175.2520  136.7360 C   0  0  0  0  0  2  0  0  0  0  0  0
  183.0230  176.1990  138.8550 C   0  0  1  0  0  3  0  0  0  0  0  0
  187.2400  176.1190  134.7080 C   0  0  0  0  0  2  0  0  0  0  0  0
  188.4980  174.6850  136.6870 S   0  0  0  0  0  1  0  0  0  0  0  0
  188.4990  175.3120  134.9810 C   0  0  0  0  0  2  0  0  0  0  0  0
  2  7  1  0  0  0  0
  2  9  1  0  0  0  0
  3 13  1  0  0  0  0
  4 25  1  6  0  0  0
  4 11  1  0  0  0  0
  4 15  1  0  0  0  0
  5  9  2  0  0  0  0
  5 16  1  0  0  0  0
  6  2  2  0  0  0  0
  8  5  1  0  0  0  0
 10  6  1  0  0  0  0
 10  8  2  0  0  0  0
 11 12  1  0  0  0  0
 12  8  1  0  0  0  0
 12  3  2  0  0  0  0
 13 16  2  0  0  0  0
 14  3  1  0  0  0  0
 14  1  1  0  0  0  0
 15 14  2  0  0  0  0
 17 20  1  6  0  0  0
 17 18  1  0  0  0  0
 18 24  1  1  0  0  0
 19 21  1  0  0  0  0
 21  1  1  1  0  0  0
 21 20  1  0  0  0  0
 22 19  1  6  0  0  0
 22 17  1  0  0  0  0
 22 18  1  0  0  0  0
 24 23  1  0  0  0  0
 25 26  1  1  0  0  0
 27 25  1  0  0  0  0
 28 27  1  0  0  0  0
 29 28  2  0  0  0  0
 30 31  1  0  0  0  0
 30 28  1  0  0  0  0
 32 34  1  6  0  0  0
 32 35  1  0  0  0  0
 33 31  1  1  0  0  0
 33 32  1  0  0  0  0
 34 33  1  0  0  0  0
 35 39  1  6  0  0  0
 35 36  1  0  0  0  0
 35 40  1  0  0  0  0
 37 38  1  0  0  0  0
 39 37  1  0  0  0  0
 40 36  1  6  0  0  0
 40 38  1  0  0  0  0
 41 43  1  0  0  0  0
 41 31  1  0  0  0  0
 43 42  1  0  0  0  0
M  END
>  <MODEL>
7

>  <REMARK>
 VINA RESULT:      -7.8      2.284      6.408
  Name = 
  10 active torsions:
  status: ('A' for Active; 'I' for Inactive)
    1  A    between atoms: N_1  and  C_35
    2  A    between atoms: C_2  and  N_6
    3  A    between atoms: C_2  and  C_13
    4  A    between atoms: C_3  and  N_4
    5  A    between atoms: C_3  and  C_12
    6  A    between atoms: N_4  and  C_15
    7  A    between atoms: N_4  and  C_22
    8  A    between atoms: C_11  and  C_14
    9  A    between atoms: C_15  and  C_42
   10  A    between atoms: C_19  and  C_37
                            x       y       z     vdW  Elec       q    Type
                         _______ _______ _______ _____ _____    ______ ____

>  <TORSDO>
F 10

$$$$
=
 OpenBabel10262422193D

 43 50  0  0  1  0  0  0  0  0999 V2000
  181.1940  178.8870  144.0360 N   0  0  0  0  0  2  0  0  0  0  0  0
  188.4780  177.4990  145.2120 C   0  0  0  0  0  0  0  0  0  0  0  0
  183.6980  178.6000  143.9920 C   0  0  0  0  0  0  0  0  0  0  0  0
  183.6350  179.0560  141.1980 C   0  0  2  0  0  3  0  0  0  0  0  0
  186.1320  178.1030  145.2900 C   0  0  0  0  0  0  0  0  0  0  0  0
  188.4080  177.3880  143.8210 C   0  0  0  0  0  3  0  0  0  0  0  0
  189.6770  177.2530  145.8670 O   0  0  0  0  0  1  0  0  0  0  0  0
  186.0550  177.9950  143.8800 C   0  0  0  0  0  0  0  0  0  0  0  0
  187.3420  177.8540  145.9450 C   0  0  0  0  0  3  0  0  0  0  0  0
  187.2030  177.6350  143.1580 C   0  0  0  0  0  3  0  0  0  0  0  0
  184.6790  178.0750  141.7430 C   0  0  0  0  0  2  0  0  0  0  0  0
  184.8320  178.2520  143.2320 C   0  0  0  0  0  0  0  0  0  0  0  0
  183.7890  178.6970  145.3850 C   0  0  0  0  0  3  0  0  0  0  0  0
  182.4200  178.8550  143.2950 C   0  0  0  0  0  0  0  0  0  0  0  0
  182.4070  179.0020  142.0010 N   0  0  0  0  0  0  0  0  0  0  0  0
  185.0020  178.4510  146.0300 C   0  0  0  0  0  3  0  0  0  0  0  0
  178.9310  180.3420  141.5900 C   0  0  2  0  0  3  0  0  0  0  0  0
  179.8430  179.9170  140.4540 C   0  0  1  0  0  3  0  0  0  0  0  0
  179.8060  178.1420  142.1900 C   0  0  0  0  0  2  0  0  0  0  0  0
  179.7230  180.4470  142.8810 C   0  0  0  0  0  2  0  0  0  0  0  0
  179.8920  179.0370  143.4040 C   0  0  2  0  0  3  0  0  0  0  0  0
  178.9810  178.8870  141.1560 C   0  0  1  0  0  3  0  0  0  0  0  0
  179.7910  181.4550  138.6460 O   0  0  0  0  0  1  0  0  0  0  0  0
  179.2010  180.2910  139.1350 C   0  0  0  0  0  2  0  0  0  0  0  0
  183.3310  178.7690  139.7290 C   0  0  1  0  0  3  0  0  0  0  0  0
  183.8890  179.8720  138.8440 C   0  0  0  0  0  1  0  0  0  0  0  0
  183.9260  177.4970  139.3410 N   0  0  0  0  0  2  0  0  0  0  0  0
  183.7180  176.9120  138.0560 C   0  0  0  0  0  0  0  0  0  0  0  0
  182.9610  177.4640  137.2110 O   0  0  0  0  0  0  0  0  0  0  0  0
  184.3630  175.6110  137.7290 C   0  0  0  0  0  2  0  0  0  0  0  0
  185.3160  175.7920  136.6450 N   0  0  0  0  0  0  0  0  0  0  0  0
  187.0160  177.4860  136.8160 C   0  0  2  0  0  3  0  0  0  0  0  0
  186.5890  176.1370  137.2600 C   0  0  2  0  0  3  0  0  0  0  0  0
  187.5640  176.3180  136.2570 O   0  0  0  0  0  0  0  0  0  0  0  0
  188.0040  178.1150  137.7980 C   0  0  1  0  0  0  0  0  0  0  0  0
  189.0610  179.0200  137.2090 C   0  0  0  0  0  2  0  0  0  0  0  0
  188.8760  177.5770  139.9930 C   0  0  0  0  0  2  0  0  0  0  0  0
  190.0250  177.5800  139.0050 C   0  0  0  0  0  2  0  0  0  0  0  0
  187.7220  178.2530  139.2870 C   0  0  0  0  0  2  0  0  0  0  0  0
  189.4130  177.5950  137.6160 C   0  0  1  0  0  3  0  0  0  0  0  0
  185.4910  174.4930  136.0090 C   0  0  0  0  0  2  0  0  0  0  0  0
  187.3510  172.5350  136.5210 S   0  0  0  0  0  1  0  0  0  0  0  0
  185.8650  173.4420  137.0420 C   0  0  0  0  0  2  0  0  0  0  0  0
  2  7  1  0  0  0  0
  2  9  1  0  0  0  0
  3 13  1  0  0  0  0
  4 25  1  6  0  0  0
  4 11  1  0  0  0  0
  4 15  1  0  0  0  0
  5  9  2  0  0  0  0
  5 16  1  0  0  0  0
  6  2  2  0  0  0  0
  8  5  1  0  0  0  0
 10  6  1  0  0  0  0
 10  8  2  0  0  0  0
 11 12  1  0  0  0  0
 12  8  1  0  0  0  0
 12  3  2  0  0  0  0
 13 16  2  0  0  0  0
 14  3  1  0  0  0  0
 14  1  1  0  0  0  0
 15 14  2  0  0  0  0
 17 20  1  1  0  0  0
 18 24  1  6  0  0  0
 18 22  1  0  0  0  0
 18 17  1  0  0  0  0
 19 21  1  0  0  0  0
 20 21  1  0  0  0  0
 21  1  1  6  0  0  0
 22 17  1  0  0  0  0
 22 19  1  1  0  0  0
 23 24  1  0  0  0  0
 25 26  1  6  0  0  0
 27 25  1  0  0  0  0
 28 27  1  0  0  0  0
 29 28  2  0  0  0  0
 30 28  1  0  0  0  0
 31 30  1  0  0  0  0
 32 34  1  6  0  0  0
 32 33  1  0  0  0  0
 32 35  1  0  0  0  0
 33 31  1  6  0  0  0
 34 33  1  0  0  0  0
 35 36  1  6  0  0  0
 35 39  1  0  0  0  0
 38 37  1  0  0  0  0
 39 37  1  0  0  0  0
 40 36  1  6  0  0  0
 40 35  1  0  0  0  0
 40 38  1  0  0  0  0
 41 31  1  0  0  0  0
 41 43  1  0  0  0  0
 42 43  1  0  0  0  0
M  END
>  <MODEL>
8

>  <REMARK>
 VINA RESULT:      -7.8      2.531      4.656
  Name = 
  10 active torsions:
  status: ('A' for Active; 'I' for Inactive)
    1  A    between atoms: N_1  and  C_35
    2  A    between atoms: C_2  and  N_6
    3  A    between atoms: C_2  and  C_13
    4  A    between atoms: C_3  and  N_4
    5  A    between atoms: C_3  and  C_12
    6  A    between atoms: N_4  and  C_15
    7  A    between atoms: N_4  and  C_22
    8  A    between atoms: C_11  and  C_14
    9  A    between atoms: C_15  and  C_42
   10  A    between atoms: C_19  and  C_37
                            x       y       z     vdW  Elec       q    Type
                         _______ _______ _______ _____ _____    ______ ____

>  <TORSDO>
F 10

$$$$
=
 OpenBabel10262422193D

 43 50  0  0  1  0  0  0  0  0999 V2000
  185.1490  178.6730  140.0660 N   0  0  0  0  0  2  0  0  0  0  0  0
  187.8670  177.5400  146.9710 C   0  0  0  0  0  0  0  0  0  0  0  0
  186.4840  178.3910  142.1840 C   0  0  0  0  0  0  0  0  0  0  0  0
  188.8410  178.3420  140.6150 C   0  0  2  0  0  3  0  0  0  0  0  0
  186.6360  178.1400  144.9730 C   0  0  0  0  0  0  0  0  0  0  0  0
  188.9700  177.1830  146.1900 C   0  0  0  0  0  3  0  0  0  0  0  0
  187.9290  177.4190  148.3530 O   0  0  0  0  0  1  0  0  0  0  0  0
  187.7500  177.7830  144.1750 C   0  0  0  0  0  0  0  0  0  0  0  0
  186.7020  178.0160  146.3640 C   0  0  0  0  0  3  0  0  0  0  0  0
  188.9120  177.3040  144.7990 C   0  0  0  0  0  3  0  0  0  0  0  0
  188.8010  177.4770  141.8790 C   0  0  0  0  0  2  0  0  0  0  0  0
  187.6720  177.9170  142.7760 C   0  0  0  0  0  0  0  0  0  0  0  0
  185.3900  178.7340  142.9850 C   0  0  0  0  0  3  0  0  0  0  0  0
  186.4170  178.5130  140.7130 C   0  0  0  0  0  0  0  0  0  0  0  0
  187.5080  178.4280  140.0070 N   0  0  0  0  0  0  0  0  0  0  0  0
  185.4670  178.6110  144.3740 C   0  0  0  0  0  3  0  0  0  0  0  0
  185.1290  177.1180  136.7790 C   0  0  2  0  0  3  0  0  0  0  0  0
  184.0890  176.1100  137.2330 C   0  0  1  0  0  3  0  0  0  0  0  0
  183.5870  178.3230  138.2410 C   0  0  0  0  0  2  0  0  0  0  0  0
  185.8870  177.6590  137.9780 C   0  0  0  0  0  2  0  0  0  0  0  0
  185.0000  178.7040  138.6180 C   0  0  2  0  0  3  0  0  0  0  0  0
  183.6790  177.5400  136.9430 C   0  0  1  0  0  3  0  0  0  0  0  0
  184.3000  175.7210  134.9010 O   0  0  0  0  0  1  0  0  0  0  0  0
  183.7030  175.2320  136.0620 C   0  0  0  0  0  2  0  0  0  0  0  0
  189.8560  177.7970  139.6130 C   0  0  1  0  0  3  0  0  0  0  0  0
  191.1820  177.5130  140.2990 C   0  0  0  0  0  1  0  0  0  0  0  0
  189.3520  176.5660  139.0190 N   0  0  0  0  0  2  0  0  0  0  0  0
  189.1330  176.4240  137.6150 C   0  0  0  0  0  0  0  0  0  0  0  0
  189.3280  177.3920  136.8310 O   0  0  0  0  0  0  0  0  0  0  0  0
  188.6190  175.1340  137.0800 C   0  0  0  0  0  2  0  0  0  0  0  0
  189.3190  174.7970  135.8490 N   0  0  0  0  0  0  0  0  0  0  0  0
  191.7240  174.8600  135.8270 C   0  0  2  0  0  3  0  0  0  0  0  0
  190.5270  174.0840  136.2360 C   0  0  2  0  0  3  0  0  0  0  0  0
  191.2690  173.7560  135.0830 O   0  0  0  0  0  0  0  0  0  0  0  0
  192.9520  174.4710  136.6490 C   0  0  1  0  0  0  0  0  0  0  0  0
  193.2090  175.2750  137.9030 C   0  0  0  0  0  2  0  0  0  0  0  0
  195.0770  173.3900  136.2220 C   0  0  0  0  0  2  0  0  0  0  0  0
  195.3420  174.8050  136.6980 C   0  0  0  0  0  2  0  0  0  0  0  0
  193.6260  173.1110  136.5460 C   0  0  0  0  0  2  0  0  0  0  0  0
  194.0180  175.5450  136.6410 C   0  0  1  0  0  3  0  0  0  0  0  0
  188.4790  173.8500  135.1270 C   0  0  0  0  0  2  0  0  0  0  0  0
  186.4630  172.0210  135.5090 S   0  0  0  0  0  1  0  0  0  0  0  0
  187.1460  173.6730  135.8370 C   0  0  0  0  0  2  0  0  0  0  0  0
  1 14  1  0  0  0  0
  2  7  1  0  0  0  0
  3 12  2  0  0  0  0
  3 13  1  0  0  0  0
  4 25  1  6  0  0  0
  4 11  1  0  0  0  0
  5  9  2  0  0  0  0
  6  2  2  0  0  0  0
  8 10  2  0  0  0  0
  8  5  1  0  0  0  0
  9  2  1  0  0  0  0
 10  6  1  0  0  0  0
 11 12  1  0  0  0  0
 12  8  1  0  0  0  0
 13 16  2  0  0  0  0
 14  3  1  0  0  0  0
 15  4  1  0  0  0  0
 15 14  2  0  0  0  0
 16  5  1  0  0  0  0
 17 22  1  0  0  0  0
 17 18  1  0  0  0  0
 17 20  1  1  0  0  0
 18 24  1  6  0  0  0
 19 21  1  0  0  0  0
 20 21  1  0  0  0  0
 21  1  1  1  0  0  0
 22 18  1  0  0  0  0
 22 19  1  1  0  0  0
 23 24  1  0  0  0  0
 25 26  1  1  0  0  0
 27 25  1  0  0  0  0
 28 27  1  0  0  0  0
 29 28  2  0  0  0  0
 30 28  1  0  0  0  0
 31 30  1  0  0  0  0
 32 34  1  6  0  0  0
 32 33  1  0  0  0  0
 32 35  1  0  0  0  0
 33 31  1  6  0  0  0
 34 33  1  0  0  0  0
 35 39  1  6  0  0  0
 35 36  1  0  0  0  0
 37 39  1  0  0  0  0
 37 38  1  0  0  0  0
 40 35  1  0  0  0  0
 40 38  1  1  0  0  0
 40 36  1  0  0  0  0
 41 43  1  0  0  0  0
 41 31  1  0  0  0  0
 42 43  1  0  0  0  0
M  END
>  <MODEL>
9

>  <REMARK>
 VINA RESULT:      -7.5      2.447      4.356
  Name = 
  10 active torsions:
  status: ('A' for Active; 'I' for Inactive)
    1  A    between atoms: N_1  and  C_35
    2  A    between atoms: C_2  and  N_6
    3  A    between atoms: C_2  and  C_13
    4  A    between atoms: C_3  and  N_4
    5  A    between atoms: C_3  and  C_12
    6  A    between atoms: N_4  and  C_15
    7  A    between atoms: N_4  and  C_22
    8  A    between atoms: C_11  and  C_14
    9  A    between atoms: C_15  and  C_42
   10  A    between atoms: C_19  and  C_37
                            x       y       z     vdW  Elec       q    Type
                         _______ _______ _______ _____ _____    ______ ____

>  <TORSDO>
F 10

$$$$
