=
 OpenBabel10262421463D

 30 32  0  0  1  0  0  0  0  0999 V2000
  182.9880  180.2660  138.9540 C   0  0  0  0  0  2  0  0  0  0  0  0
  182.9650  178.7900  139.3480 C   0  0  2  0  0  0  0  0  0  0  0  0
  181.7230  179.4500  138.7460 C   0  0  2  0  0  0  0  0  0  0  0  0
  182.8480  178.5270  140.7690 N   0  0  0  0  0  0  0  0  0  0  0  0
  183.5430  178.3630  143.0780 C   0  0  1  0  0  3  0  0  0  0  0  0
  184.7370  178.7090  143.9740 C   0  0  0  0  0  2  0  0  0  0  0  0
  182.4140  179.0450  143.5330 O   0  0  0  0  0  1  0  0  0  0  0  0
  185.1660  179.1920  141.2010 C   0  0  0  0  0  2  0  0  0  0  0  0
  187.5410  178.1850  141.4060 C   0  0  0  0  0  1  0  0  0  0  0  0
  183.8000  178.6940  141.6240 C   0  0  0  0  0  0  0  0  0  0  0  0
  186.0370  178.3100  143.3330 C   0  0  0  0  0  3  0  0  0  0  0  0
  186.2400  178.5470  142.0320 C   0  0  0  0  0  0  0  0  0  0  0  0
  183.7100  175.5410  137.4210 C   0  0  0  0  0  3  0  0  0  0  0  0
  183.0210  176.4670  138.2200 C   0  0  0  0  0  0  0  0  0  0  0  0
  184.8680  178.0230  137.9350 C   0  0  0  0  0  3  0  0  0  0  0  0
  183.6160  177.7240  138.4920 C   0  0  0  0  0  0  0  0  0  0  0  0
  184.9580  175.8540  136.8800 C   0  0  0  0  0  3  0  0  0  0  0  0
  185.5350  177.0960  137.1350 C   0  0  0  0  0  3  0  0  0  0  0  0
  181.8260  175.5520  140.0850 O   0  0  0  0  0  1  0  0  0  0  0  0
  181.6860  176.0840  138.7960 C   0  0  2  0  0  3  0  0  0  0  0  0
  179.9490  176.0140  137.2020 C   0  0  0  0  0  1  0  0  0  0  0  0
  180.1880  174.1930  138.6540 C   0  0  0  0  0  1  0  0  0  0  0  0
  180.9280  175.1990  137.9000 N   0  0  0  0  0  0  0  0  0  0  0  0
  180.9660  181.4610  136.7240 O   0  0  0  0  0  1  0  0  0  0  0  0
  181.0500  180.1170  136.3800 C   0  0  0  0  0  0  0  0  0  0  0  0
  180.7800  179.7580  135.2050 O   0  0  0  0  0  0  0  0  0  0  0  0
  181.4440  179.1400  137.3440 N   0  0  0  0  0  2  0  0  0  0  0  0
  180.3320  181.1790  139.6730 O   0  0  0  0  0  1  0  0  0  0  0  0
  179.2900  179.0890  139.2080 C   0  0  0  0  0  1  0  0  0  0  0  0
  180.5490  179.8020  139.6620 C   0  0  1  0  0  3  0  0  0  0  0  0
  1  2  1  0  0  0  0
  2  4  1  1  0  0  0
  3 27  1  6  0  0  0
  3  1  1  0  0  0  0
  3  2  1  0  0  0  0
  3 30  1  0  0  0  0
  4 10  2  0  0  0  0
  5  7  1  1  0  0  0
  5  6  1  0  0  0  0
  8 10  1  0  0  0  0
  8 12  1  0  0  0  0
  9 12  1  0  0  0  0
 10  5  1  0  0  0  0
 11  6  1  0  0  0  0
 12 11  2  0  0  0  0
 13 14  1  0  0  0  0
 14 16  2  0  0  0  0
 14 20  1  0  0  0  0
 15 16  1  0  0  0  0
 16  2  1  0  0  0  0
 17 18  1  0  0  0  0
 17 13  2  0  0  0  0
 18 15  2  0  0  0  0
 20 19  1  1  0  0  0
 21 23  1  0  0  0  0
 23 22  1  0  0  0  0
 23 20  1  0  0  0  0
 25 24  1  0  0  0  0
 25 27  1  0  0  0  0
 26 25  2  0  0  0  0
 30 29  1  6  0  0  0
 30 28  1  0  0  0  0
M  END
>  <MODEL>
1

>  <REMARK>
 VINA RESULT:      -5.3      0.000      0.000
  Name = 
  6 active torsions:
  status: ('A' for Active; 'I' for Inactive)
    1  A    between atoms: N_1  and  C_5
    2  A    between atoms: C_5  and  C_12
    3  A    between atoms: C_8  and  C_13
    4  A    between atoms: C_13  and  N_30
    5  A    between atoms: C_23  and  N_25
    6  A    between atoms: C_23  and  C_26
                            x       y       z     vdW  Elec       q    Type
                         _______ _______ _______ _____ _____    ______ ____

>  <TORSDO>
F 6

$$$$
=
 OpenBabel10262421463D

 30 32  0  0  1  0  0  0  0  0999 V2000
  182.5210  175.9340  139.0980 C   0  0  0  0  0  2  0  0  0  0  0  0
  182.4490  177.4560  139.2120 C   0  0  2  0  0  0  0  0  0  0  0  0
  182.2640  176.7720  137.8560 C   0  0  2  0  0  0  0  0  0  0  0  0
  183.7250  178.1320  139.3480 N   0  0  0  0  0  0  0  0  0  0  0  0
  185.6670  179.0380  140.4640 C   0  0  1  0  0  3  0  0  0  0  0  0
  186.3220  179.0640  141.8500 C   0  0  0  0  0  2  0  0  0  0  0  0
  186.5450  178.4530  139.5520 O   0  0  0  0  0  1  0  0  0  0  0  0
  183.7780  177.7900  141.7740 C   0  0  0  0  0  2  0  0  0  0  0  0
  183.1340  178.9700  143.9850 C   0  0  0  0  0  1  0  0  0  0  0  0
  184.3470  178.2980  140.4660 C   0  0  0  0  0  0  0  0  0  0  0  0
  185.3120  179.3370  142.9290 C   0  0  0  0  0  3  0  0  0  0  0  0
  184.1210  178.7280  142.8960 C   0  0  0  0  0  0  0  0  0  0  0  0
  179.6190  179.9840  139.8600 C   0  0  0  0  0  3  0  0  0  0  0  0
  180.7590  179.4090  139.2800 C   0  0  0  0  0  0  0  0  0  0  0  0
  180.5200  177.5150  140.7870 C   0  0  0  0  0  3  0  0  0  0  0  0
  181.2250  178.1600  139.7600 C   0  0  0  0  0  0  0  0  0  0  0  0
  178.9330  179.3320  140.8860 C   0  0  0  0  0  3  0  0  0  0  0  0
  179.3820  178.0960  141.3460 C   0  0  0  0  0  3  0  0  0  0  0  0
  182.4200  181.0430  138.7190 O   0  0  0  0  0  1  0  0  0  0  0  0
  181.4770  180.1530  138.1880 C   0  0  2  0  0  3  0  0  0  0  0  0
  180.7620  180.2260  135.9410 C   0  0  0  0  0  1  0  0  0  0  0  0
  180.8270  182.2330  137.1450 C   0  0  0  0  0  1  0  0  0  0  0  0
  180.5470  180.8060  137.2560 N   0  0  0  0  0  0  0  0  0  0  0  0
  180.9510  174.2580  137.0420 O   0  0  0  0  0  1  0  0  0  0  0  0
  180.2750  175.4680  136.9410 C   0  0  0  0  0  0  0  0  0  0  0  0
  179.1040  175.4890  136.4800 O   0  0  0  0  0  0  0  0  0  0  0  0
  180.8900  176.6860  137.3600 N   0  0  0  0  0  2  0  0  0  0  0  0
  183.9830  175.5550  136.6950 O   0  0  0  0  0  1  0  0  0  0  0  0
  182.8970  177.3010  135.4930 C   0  0  0  0  0  1  0  0  0  0  0  0
  183.4050  176.8160  136.8380 C   0  0  1  0  0  3  0  0  0  0  0  0
  1  2  1  0  0  0  0
  2  4  1  1  0  0  0
  2 16  1  0  0  0  0
  3 27  1  6  0  0  0
  3  1  1  0  0  0  0
  3  2  1  0  0  0  0
  4 10  2  0  0  0  0
  5  7  1  6  0  0  0
  5 10  1  0  0  0  0
  5  6  1  0  0  0  0
  6 11  1  0  0  0  0
  8 12  1  0  0  0  0
 10  8  1  0  0  0  0
 12 11  2  0  0  0  0
 12  9  1  0  0  0  0
 13 17  1  0  0  0  0
 14 16  1  0  0  0  0
 14 13  2  0  0  0  0
 15 18  1  0  0  0  0
 16 15  2  0  0  0  0
 17 18  2  0  0  0  0
 20 19  1  1  0  0  0
 20 14  1  0  0  0  0
 21 23  1  0  0  0  0
 22 23  1  0  0  0  0
 23 20  1  0  0  0  0
 25 24  1  0  0  0  0
 25 27  1  0  0  0  0
 26 25  2  0  0  0  0
 28 30  1  0  0  0  0
 30 29  1  6  0  0  0
 30  3  1  0  0  0  0
M  END
>  <MODEL>
2

>  <REMARK>
 VINA RESULT:      -5.2      2.160      4.894
  Name = 
  6 active torsions:
  status: ('A' for Active; 'I' for Inactive)
    1  A    between atoms: N_1  and  C_5
    2  A    between atoms: C_5  and  C_12
    3  A    between atoms: C_8  and  C_13
    4  A    between atoms: C_13  and  N_30
    5  A    between atoms: C_23  and  N_25
    6  A    between atoms: C_23  and  C_26
                            x       y       z     vdW  Elec       q    Type
                         _______ _______ _______ _____ _____    ______ ____

>  <TORSDO>
F 6

$$$$
=
 OpenBabel10262421463D

 30 32  0  0  1  0  0  0  0  0999 V2000
  183.5590  176.7090  138.7330 C   0  0  0  0  0  2  0  0  0  0  0  0
  183.6660  178.2160  138.9600 C   0  0  2  0  0  0  0  0  0  0  0  0
  184.2490  177.5800  137.6960 C   0  0  2  0  0  0  0  0  0  0  0  0
  184.6750  178.6320  139.9150 N   0  0  0  0  0  0  0  0  0  0  0  0
  185.6630  179.0690  142.0760 C   0  0  1  0  0  3  0  0  0  0  0  0
  185.3730  178.8580  143.5660 C   0  0  0  0  0  2  0  0  0  0  0  0
  186.8460  178.4110  141.7410 O   0  0  0  0  0  1  0  0  0  0  0  0
  183.2520  178.0830  141.8320 C   0  0  0  0  0  2  0  0  0  0  0  0
  181.5490  179.1710  143.4480 C   0  0  0  0  0  1  0  0  0  0  0  0
  184.5300  178.5860  141.1960 C   0  0  0  0  0  0  0  0  0  0  0  0
  183.9530  179.2200  143.9050 C   0  0  0  0  0  3  0  0  0  0  0  0
  182.9580  178.8450  143.0930 C   0  0  0  0  0  0  0  0  0  0  0  0
  180.1250  179.6390  138.4520 C   0  0  0  0  0  3  0  0  0  0  0  0
  181.1460  178.7010  138.6690 C   0  0  0  0  0  0  0  0  0  0  0  0
  182.7660  180.5140  138.6170 C   0  0  0  0  0  3  0  0  0  0  0  0
  182.4900  179.1440  138.7390 C   0  0  0  0  0  0  0  0  0  0  0  0
  180.4190  180.9980  138.3250 C   0  0  0  0  0  3  0  0  0  0  0  0
  181.7390  181.4350  138.4110 C   0  0  0  0  0  3  0  0  0  0  0  0
  179.8930  176.8640  137.7730 O   0  0  0  0  0  1  0  0  0  0  0  0
  180.7870  177.2450  138.7830 C   0  0  2  0  0  3  0  0  0  0  0  0
  180.2940  175.4460  140.2270 C   0  0  0  0  0  1  0  0  0  0  0  0
  178.9310  177.3480  140.3270 C   0  0  0  0  0  1  0  0  0  0  0  0
  180.3030  176.8960  140.1260 N   0  0  0  0  0  0  0  0  0  0  0  0
  183.2030  175.3620  136.0550 O   0  0  0  0  0  1  0  0  0  0  0  0
  182.9990  176.6800  135.6660 C   0  0  0  0  0  0  0  0  0  0  0  0
  182.3830  176.9240  134.5960 O   0  0  0  0  0  0  0  0  0  0  0  0
  183.4750  177.7610  136.4680 N   0  0  0  0  0  2  0  0  0  0  0  0
  186.0940  176.0490  137.5010 O   0  0  0  0  0  1  0  0  0  0  0  0
  186.2950  178.1320  136.3650 C   0  0  0  0  0  1  0  0  0  0  0  0
  185.7640  177.4010  137.5830 C   0  0  1  0  0  3  0  0  0  0  0  0
  1  2  1  0  0  0  0
  2  4  1  1  0  0  0
  3 27  1  6  0  0  0
  3  1  1  0  0  0  0
  3  2  1  0  0  0  0
  4 10  2  0  0  0  0
  5  7  1  6  0  0  0
  5  6  1  0  0  0  0
  6 11  1  0  0  0  0
  8 12  1  0  0  0  0
 10  8  1  0  0  0  0
 10  5  1  0  0  0  0
 12  9  1  0  0  0  0
 12 11  2  0  0  0  0
 13 14  1  0  0  0  0
 14 16  2  0  0  0  0
 14 20  1  0  0  0  0
 15 16  1  0  0  0  0
 16  2  1  0  0  0  0
 17 18  1  0  0  0  0
 17 13  2  0  0  0  0
 18 15  2  0  0  0  0
 20 19  1  6  0  0  0
 20 23  1  0  0  0  0
 23 21  1  0  0  0  0
 23 22  1  0  0  0  0
 25 24  1  0  0  0  0
 25 27  1  0  0  0  0
 26 25  2  0  0  0  0
 28 30  1  0  0  0  0
 30 29  1  6  0  0  0
 30  3  1  0  0  0  0
M  END
>  <MODEL>
3

>  <REMARK>
 VINA RESULT:      -4.7      2.223      4.253
  Name = 
  6 active torsions:
  status: ('A' for Active; 'I' for Inactive)
    1  A    between atoms: N_1  and  C_5
    2  A    between atoms: C_5  and  C_12
    3  A    between atoms: C_8  and  C_13
    4  A    between atoms: C_13  and  N_30
    5  A    between atoms: C_23  and  N_25
    6  A    between atoms: C_23  and  C_26
                            x       y       z     vdW  Elec       q    Type
                         _______ _______ _______ _____ _____    ______ ____

>  <TORSDO>
F 6

$$$$
=
 OpenBabel10262421463D

 30 32  0  0  1  0  0  0  0  0999 V2000
  182.1680  177.1730  139.6400 C   0  0  0  0  0  2  0  0  0  0  0  0
  182.6240  178.6000  139.3390 C   0  0  2  0  0  0  0  0  0  0  0  0
  182.5270  177.5650  138.2160 C   0  0  2  0  0  0  0  0  0  0  0  0
  183.9880  178.9120  139.7200 N   0  0  0  0  0  0  0  0  0  0  0  0
  185.9280  179.0710  141.1510 C   0  0  1  0  0  3  0  0  0  0  0  0
  186.4020  178.6370  142.5430 C   0  0  0  0  0  2  0  0  0  0  0  0
  186.7660  178.5120  140.1860 O   0  0  0  0  0  1  0  0  0  0  0  0
  183.6740  178.0410  141.9890 C   0  0  0  0  0  2  0  0  0  0  0  0
  183.0320  178.8220  144.3710 C   0  0  0  0  0  1  0  0  0  0  0  0
  184.4910  178.6770  140.8850 C   0  0  0  0  0  0  0  0  0  0  0  0
  185.3500  178.8930  143.5850 C   0  0  0  0  0  3  0  0  0  0  0  0
  184.0690  178.6020  143.3250 C   0  0  0  0  0  0  0  0  0  0  0  0
  179.5420  180.8700  139.7510 C   0  0  0  0  0  3  0  0  0  0  0  0
  180.3850  179.7580  139.9010 C   0  0  0  0  0  0  0  0  0  0  0  0
  182.0280  180.8660  138.4930 C   0  0  0  0  0  3  0  0  0  0  0  0
  181.6440  179.7500  139.2510 C   0  0  0  0  0  0  0  0  0  0  0  0
  179.9380  181.9690  138.9870 C   0  0  0  0  0  3  0  0  0  0  0  0
  181.1830  181.9680  138.3610 C   0  0  0  0  0  3  0  0  0  0  0  0
  178.9310  177.8580  140.0360 O   0  0  0  0  0  1  0  0  0  0  0  0
  179.9120  178.5890  140.7190 C   0  0  2  0  0  3  0  0  0  0  0  0
  180.3390  180.0790  142.4970 C   0  0  0  0  0  1  0  0  0  0  0  0
  179.6510  177.9040  143.0220 C   0  0  0  0  0  1  0  0  0  0  0  0
  179.4790  178.9910  142.0650 N   0  0  0  0  0  0  0  0  0  0  0  0
  180.6080  175.3860  137.6910 O   0  0  0  0  0  1  0  0  0  0  0  0
  180.4650  176.6140  137.0580 C   0  0  0  0  0  0  0  0  0  0  0  0
  179.5240  176.7870  136.2410 O   0  0  0  0  0  0  0  0  0  0  0  0
  181.3710  177.6850  137.3280 N   0  0  0  0  0  2  0  0  0  0  0  0
  183.8500  175.5770  137.9270 O   0  0  0  0  0  1  0  0  0  0  0  0
  183.9100  177.1790  136.1660 C   0  0  0  0  0  1  0  0  0  0  0  0
  183.8120  176.9460  137.6610 C   0  0  1  0  0  3  0  0  0  0  0  0
  2  1  1  0  0  0  0
  2  4  1  1  0  0  0
  3 27  1  6  0  0  0
  3  2  1  0  0  0  0
  3  1  1  0  0  0  0
  4 10  2  0  0  0  0
  5  7  1  6  0  0  0
  5  6  1  0  0  0  0
  6 11  1  0  0  0  0
  8 12  1  0  0  0  0
 10  5  1  0  0  0  0
 10  8  1  0  0  0  0
 12 11  2  0  0  0  0
 12  9  1  0  0  0  0
 13 14  1  0  0  0  0
 14 20  1  0  0  0  0
 15 16  1  0  0  0  0
 16  2  1  0  0  0  0
 16 14  2  0  0  0  0
 17 13  2  0  0  0  0
 18 15  2  0  0  0  0
 18 17  1  0  0  0  0
 20 19  1  6  0  0  0
 20 23  1  0  0  0  0
 23 21  1  0  0  0  0
 23 22  1  0  0  0  0
 25 27  1  0  0  0  0
 25 24  1  0  0  0  0
 26 25  2  0  0  0  0
 30 29  1  6  0  0  0
 30 28  1  0  0  0  0
 30  3  1  0  0  0  0
M  END
>  <MODEL>
4

>  <REMARK>
 VINA RESULT:      -4.6      2.203      4.546
  Name = 
  6 active torsions:
  status: ('A' for Active; 'I' for Inactive)
    1  A    between atoms: N_1  and  C_5
    2  A    between atoms: C_5  and  C_12
    3  A    between atoms: C_8  and  C_13
    4  A    between atoms: C_13  and  N_30
    5  A    between atoms: C_23  and  N_25
    6  A    between atoms: C_23  and  C_26
                            x       y       z     vdW  Elec       q    Type
                         _______ _______ _______ _____ _____    ______ ____

>  <TORSDO>
F 6

$$$$
=
 OpenBabel10262421463D

 30 32  0  0  1  0  0  0  0  0999 V2000
  180.9500  177.2710  136.7550 C   0  0  0  0  0  2  0  0  0  0  0  0
  182.0180  177.8590  137.6760 C   0  0  2  0  0  0  0  0  0  0  0  0
  181.2790  176.5770  138.0660 C   0  0  2  0  0  0  0  0  0  0  0  0
  181.6090  179.0190  138.4440 N   0  0  0  0  0  0  0  0  0  0  0  0
  180.5940  181.1680  138.8780 C   0  0  1  0  0  3  0  0  0  0  0  0
  179.7190  182.2180  138.1830 C   0  0  0  0  0  2  0  0  0  0  0  0
  179.9350  180.7000  140.0140 O   0  0  0  0  0  1  0  0  0  0  0  0
  180.5200  180.0580  136.5100 C   0  0  0  0  0  2  0  0  0  0  0  0
  180.9940  181.7320  134.5950 C   0  0  0  0  0  1  0  0  0  0  0  0
  180.9410  180.0130  137.9640 C   0  0  0  0  0  0  0  0  0  0  0  0
  180.1930  182.4870  136.7820 C   0  0  0  0  0  3  0  0  0  0  0  0
  180.5590  181.4690  135.9950 C   0  0  0  0  0  0  0  0  0  0  0  0
  185.8600  177.9590  137.9060 C   0  0  0  0  0  3  0  0  0  0  0  0
  184.5170  178.1470  138.2650 C   0  0  0  0  0  0  0  0  0  0  0  0
  183.8540  177.0510  136.1980 C   0  0  0  0  0  3  0  0  0  0  0  0
  183.4970  177.6980  137.3910 C   0  0  0  0  0  0  0  0  0  0  0  0
  186.1970  177.3190  136.7130 C   0  0  0  0  0  3  0  0  0  0  0  0
  185.1940  176.8620  135.8600 C   0  0  0  0  0  3  0  0  0  0  0  0
  184.4850  180.2240  139.4610 O   0  0  0  0  0  1  0  0  0  0  0  0
  184.1970  178.8560  139.5530 C   0  0  2  0  0  3  0  0  0  0  0  0
  183.8960  178.2550  141.8140 C   0  0  0  0  0  1  0  0  0  0  0  0
  186.0210  178.9680  141.1340 C   0  0  0  0  0  1  0  0  0  0  0  0
  184.8420  178.2210  140.7110 N   0  0  0  0  0  0  0  0  0  0  0  0
  180.3430  174.2870  136.4590 O   0  0  0  0  0  0  0  0  0  0  0  0
  181.5480  174.2160  137.1470 C   0  0  0  0  0  0  0  0  0  0  0  0
  182.2300  173.1590  137.0980 O   0  0  0  0  0  1  0  0  0  0  0  0
  182.0250  175.3290  137.9040 N   0  0  0  0  0  2  0  0  0  0  0  0
  178.9310  176.4760  138.5730 O   0  0  0  0  0  1  0  0  0  0  0  0
  180.4250  175.5770  140.1950 C   0  0  0  0  0  1  0  0  0  0  0  0
  180.1930  176.6430  139.1420 C   0  0  1  0  0  3  0  0  0  0  0  0
  1  2  1  0  0  0  0
  1  3  1  0  0  0  0
  2  3  1  0  0  0  0
  2  4  1  1  0  0  0
  3 27  1  6  0  0  0
  3 30  1  0  0  0  0
  5  7  1  1  0  0  0
  6  5  1  0  0  0  0
  8 10  1  0  0  0  0
  9 12  1  0  0  0  0
 10  4  2  0  0  0  0
 10  5  1  0  0  0  0
 11  6  1  0  0  0  0
 12  8  1  0  0  0  0
 12 11  2  0  0  0  0
 13 14  1  0  0  0  0
 14 20  1  0  0  0  0
 15 16  1  0  0  0  0
 16  2  1  0  0  0  0
 16 14  2  0  0  0  0
 17 13  2  0  0  0  0
 18 15  2  0  0  0  0
 18 17  1  0  0  0  0
 20 19  1  6  0  0  0
 20 23  1  0  0  0  0
 23 22  1  0  0  0  0
 23 21  1  0  0  0  0
 24 25  2  0  0  0  0
 25 27  1  0  0  0  0
 26 25  1  0  0  0  0
 28 30  1  0  0  0  0
 30 29  1  1  0  0  0
M  END
>  <MODEL>
5

>  <REMARK>
 VINA RESULT:      -4.0      2.063      5.529
  Name = 
  6 active torsions:
  status: ('A' for Active; 'I' for Inactive)
    1  A    between atoms: N_1  and  C_5
    2  A    between atoms: C_5  and  C_12
    3  A    between atoms: C_8  and  C_13
    4  A    between atoms: C_13  and  N_30
    5  A    between atoms: C_23  and  N_25
    6  A    between atoms: C_23  and  C_26
                            x       y       z     vdW  Elec       q    Type
                         _______ _______ _______ _____ _____    ______ ____

>  <TORSDO>
F 6

$$$$
=
 OpenBabel10262421463D

 30 32  0  0  1  0  0  0  0  0999 V2000
  182.6700  179.4400  138.7890 C   0  0  0  0  0  2  0  0  0  0  0  0
  182.1000  178.2230  139.5160 C   0  0  2  0  0  0  0  0  0  0  0  0
  181.1650  179.2820  138.9280 C   0  0  2  0  0  0  0  0  0  0  0  0
  182.1830  178.2660  140.9630 N   0  0  0  0  0  0  0  0  0  0  0  0
  183.1770  178.6280  143.1350 C   0  0  1  0  0  3  0  0  0  0  0  0
  184.4500  179.2040  143.7650 C   0  0  0  0  0  2  0  0  0  0  0  0
  182.0720  179.3470  143.5920 O   0  0  0  0  0  1  0  0  0  0  0  0
  184.4870  179.0980  140.9210 C   0  0  0  0  0  2  0  0  0  0  0  0
  186.9320  178.2530  140.9960 C   0  0  0  0  0  1  0  0  0  0  0  0
  183.2240  178.6500  141.6230 C   0  0  0  0  0  0  0  0  0  0  0  0
  185.6820  178.7280  143.0460 C   0  0  0  0  0  3  0  0  0  0  0  0
  185.7000  178.6890  141.7090 C   0  0  0  0  0  0  0  0  0  0  0  0
  182.7320  175.1780  137.2470 C   0  0  0  0  0  3  0  0  0  0  0  0
  182.8780  176.4620  137.7930 C   0  0  0  0  0  0  0  0  0  0  0  0
  181.0920  175.9500  139.3620 C   0  0  0  0  0  3  0  0  0  0  0  0
  182.0340  176.8600  138.8600 C   0  0  0  0  0  0  0  0  0  0  0  0
  181.7840  174.2880  137.7550 C   0  0  0  0  0  3  0  0  0  0  0  0
  180.9660  174.6740  138.8150 C   0  0  0  0  0  3  0  0  0  0  0  0
  183.7460  177.5030  135.8170 O   0  0  0  0  0  1  0  0  0  0  0  0
  183.9010  177.3940  137.2060 C   0  0  2  0  0  3  0  0  0  0  0  0
  186.0580  178.2520  137.6220 C   0  0  0  0  0  1  0  0  0  0  0  0
  185.8840  176.1500  136.6060 C   0  0  0  0  0  1  0  0  0  0  0  0
  185.2710  177.0310  137.5930 N   0  0  0  0  0  0  0  0  0  0  0  0
  181.1760  180.9610  136.5010 O   0  0  0  0  0  1  0  0  0  0  0  0
  180.4790  179.7590  136.5200 C   0  0  0  0  0  0  0  0  0  0  0  0
  179.8330  179.3990  135.5020 O   0  0  0  0  0  0  0  0  0  0  0  0
  180.4920  178.9250  137.6790 N   0  0  0  0  0  2  0  0  0  0  0  0
  180.7010  181.5840  139.4480 O   0  0  0  0  0  1  0  0  0  0  0  0
  178.9870  180.0020  139.9280 C   0  0  0  0  0  1  0  0  0  0  0  0
  180.4780  180.2730  139.8690 C   0  0  1  0  0  3  0  0  0  0  0  0
  1  3  1  0  0  0  0
  1  2  1  0  0  0  0
  2  4  1  1  0  0  0
  3 27  1  6  0  0  0
  3  2  1  0  0  0  0
  3 30  1  0  0  0  0
  4 10  2  0  0  0  0
  5  7  1  1  0  0  0
  5  6  1  0  0  0  0
  8 10  1  0  0  0  0
  8 12  1  0  0  0  0
  9 12  1  0  0  0  0
 10  5  1  0  0  0  0
 11  6  1  0  0  0  0
 12 11  2  0  0  0  0
 13 17  2  0  0  0  0
 13 14  1  0  0  0  0
 14 16  2  0  0  0  0
 16 15  1  0  0  0  0
 16  2  1  0  0  0  0
 17 18  1  0  0  0  0
 18 15  2  0  0  0  0
 20 19  1  6  0  0  0
 20 23  1  0  0  0  0
 20 14  1  0  0  0  0
 22 23  1  0  0  0  0
 23 21  1  0  0  0  0
 24 25  1  0  0  0  0
 25 27  1  0  0  0  0
 26 25  2  0  0  0  0
 28 30  1  0  0  0  0
 30 29  1  6  0  0  0
M  END
>  <MODEL>
6

>  <REMARK>
 VINA RESULT:      -3.9      1.466      2.703
  Name = 
  6 active torsions:
  status: ('A' for Active; 'I' for Inactive)
    1  A    between atoms: N_1  and  C_5
    2  A    between atoms: C_5  and  C_12
    3  A    between atoms: C_8  and  C_13
    4  A    between atoms: C_13  and  N_30
    5  A    between atoms: C_23  and  N_25
    6  A    between atoms: C_23  and  C_26
                            x       y       z     vdW  Elec       q    Type
                         _______ _______ _______ _____ _____    ______ ____

>  <TORSDO>
F 6

$$$$
=
 OpenBabel10262421463D

 30 32  0  0  1  0  0  0  0  0999 V2000
  183.4670  179.6210  140.3260 C   0  0  0  0  0  2  0  0  0  0  0  0
  183.4670  178.1790  139.8190 C   0  0  2  0  0  0  0  0  0  0  0  0
  183.9080  178.4980  141.2500 C   0  0  2  0  0  0  0  0  0  0  0  0
  184.5660  177.8280  138.9410 N   0  0  0  0  0  0  0  0  0  0  0  0
  185.6910  177.2990  136.8690 C   0  0  1  0  0  3  0  0  0  0  0  0
  185.4240  177.2690  135.3600 C   0  0  0  0  0  2  0  0  0  0  0  0
  186.7330  178.1890  137.1330 O   0  0  0  0  0  1  0  0  0  0  0  0
  183.1410  177.8770  136.9480 C   0  0  0  0  0  2  0  0  0  0  0  0
  181.7070  176.3160  135.4640 C   0  0  0  0  0  1  0  0  0  0  0  0
  184.4620  177.6860  137.6630 C   0  0  0  0  0  0  0  0  0  0  0  0
  184.1000  176.6270  135.0510 C   0  0  0  0  0  3  0  0  0  0  0  0
  183.0260  176.9230  135.7930 C   0  0  0  0  0  0  0  0  0  0  0  0
  179.7760  177.1290  139.5120 C   0  0  0  0  0  3  0  0  0  0  0  0
  180.9010  177.9610  139.6170 C   0  0  0  0  0  0  0  0  0  0  0  0
  182.3120  175.9800  139.6390 C   0  0  0  0  0  3  0  0  0  0  0  0
  182.1900  177.3760  139.6950 C   0  0  0  0  0  0  0  0  0  0  0  0
  179.9160  175.7410  139.4650 C   0  0  0  0  0  3  0  0  0  0  0  0
  181.1840  175.1670  139.5250 C   0  0  0  0  0  3  0  0  0  0  0  0
  180.0630  179.8240  140.8700 O   0  0  0  0  0  1  0  0  0  0  0  0
  180.7050  179.4500  139.6810 C   0  0  2  0  0  3  0  0  0  0  0  0
  180.9980  180.7560  137.7390 C   0  0  0  0  0  1  0  0  0  0  0  0
  178.9390  180.8740  138.8480 C   0  0  0  0  0  1  0  0  0  0  0  0
  180.0280  179.9740  138.4860 N   0  0  0  0  0  0  0  0  0  0  0  0
  183.4260  180.2070  143.6060 O   0  0  0  0  0  0  0  0  0  0  0  0
  182.7400  179.0090  143.4560 C   0  0  0  0  0  0  0  0  0  0  0  0
  181.9250  178.6440  144.3430 O   0  0  0  0  0  1  0  0  0  0  0  0
  182.9440  178.1880  142.3050 N   0  0  0  0  0  2  0  0  0  0  0  0
  185.9390  179.7520  141.5390 O   0  0  0  0  0  1  0  0  0  0  0  0
  185.6130  177.8800  142.9740 C   0  0  0  0  0  1  0  0  0  0  0  0
  185.3990  178.4680  141.5930 C   0  0  1  0  0  3  0  0  0  0  0  0
  1  3  1  0  0  0  0
  2  4  1  6  0  0  0
  2  1  1  0  0  0  0
  2  3  1  0  0  0  0
  3 30  1  0  0  0  0
  3 27  1  1  0  0  0
  5  7  1  6  0  0  0
  5 10  1  0  0  0  0
  6  5  1  0  0  0  0
  8 10  1  0  0  0  0
  9 12  1  0  0  0  0
 10  4  2  0  0  0  0
 11  6  1  0  0  0  0
 11 12  2  0  0  0  0
 12  8  1  0  0  0  0
 13 14  1  0  0  0  0
 14 20  1  0  0  0  0
 14 16  2  0  0  0  0
 15 16  1  0  0  0  0
 16  2  1  0  0  0  0
 17 13  2  0  0  0  0
 17 18  1  0  0  0  0
 18 15  2  0  0  0  0
 20 19  1  1  0  0  0
 21 23  1  0  0  0  0
 23 22  1  0  0  0  0
 23 20  1  0  0  0  0
 25 24  2  0  0  0  0
 25 26  1  0  0  0  0
 27 25  1  0  0  0  0
 28 30  1  0  0  0  0
 30 29  1  1  0  0  0
M  END
>  <MODEL>
7

>  <REMARK>
 VINA RESULT:      -3.8      2.232      5.851
  Name = 
  6 active torsions:
  status: ('A' for Active; 'I' for Inactive)
    1  A    between atoms: N_1  and  C_5
    2  A    between atoms: C_5  and  C_12
    3  A    between atoms: C_8  and  C_13
    4  A    between atoms: C_13  and  N_30
    5  A    between atoms: C_23  and  N_25
    6  A    between atoms: C_23  and  C_26
                            x       y       z     vdW  Elec       q    Type
                         _______ _______ _______ _____ _____    ______ ____

>  <TORSDO>
F 6

$$$$
=
 OpenBabel10262421463D

 30 32  0  0  1  0  0  0  0  0999 V2000
  182.9430  177.1770  139.7590 C   0  0  0  0  0  2  0  0  0  0  0  0
  181.7110  177.1580  138.8540 C   0  0  2  0  0  0  0  0  0  0  0  0
  182.0000  178.3690  139.7430 C   0  0  2  0  0  0  0  0  0  0  0  0
  180.6050  176.3460  139.3250 N   0  0  0  0  0  0  0  0  0  0  0  0
  179.1080  174.4530  139.4310 C   0  0  1  0  0  3  0  0  0  0  0  0
  178.9420  173.0500  138.8370 C   0  0  0  0  0  2  0  0  0  0  0  0
  179.2290  174.3530  140.8180 O   0  0  0  0  0  1  0  0  0  0  0  0
  181.0960  174.5490  137.7350 C   0  0  0  0  0  2  0  0  0  0  0  0
  180.4450  173.7230  135.3700 C   0  0  0  0  0  1  0  0  0  0  0  0
  180.3020  175.1830  138.8560 C   0  0  0  0  0  0  0  0  0  0  0  0
  179.1730  173.0530  137.3520 C   0  0  0  0  0  3  0  0  0  0  0  0
  180.1940  173.7500  136.8370 C   0  0  0  0  0  0  0  0  0  0  0  0
  182.9770  177.4310  135.2290 C   0  0  0  0  0  3  0  0  0  0  0  0
  182.9820  177.1610  136.6060 C   0  0  0  0  0  0  0  0  0  0  0  0
  180.6640  177.8860  136.7150 C   0  0  0  0  0  3  0  0  0  0  0  0
  181.8100  177.4050  137.3640 C   0  0  0  0  0  0  0  0  0  0  0  0
  181.8280  177.9170  134.6010 C   0  0  0  0  0  3  0  0  0  0  0  0
  180.6710  178.1410  135.3440 C   0  0  0  0  0  3  0  0  0  0  0  0
  185.2260  177.6550  137.2890 O   0  0  0  0  0  1  0  0  0  0  0  0
  184.2450  176.6550  137.2450 C   0  0  2  0  0  3  0  0  0  0  0  0
  184.5400  174.3370  137.5680 C   0  0  0  0  0  1  0  0  0  0  0  0
  186.1590  175.4940  136.3330 C   0  0  0  0  0  1  0  0  0  0  0  0
  184.7300  175.4180  136.6160 N   0  0  0  0  0  0  0  0  0  0  0  0
  184.7360  179.3920  140.1590 O   0  0  0  0  0  1  0  0  0  0  0  0
  183.8640  180.0500  139.3010 C   0  0  0  0  0  0  0  0  0  0  0  0
  184.2400  181.0990  138.7160 O   0  0  0  0  0  0  0  0  0  0  0  0
  182.5480  179.5460  139.0700 N   0  0  0  0  0  2  0  0  0  0  0  0
  182.0030  178.7600  142.1160 O   0  0  0  0  0  1  0  0  0  0  0  0
  180.2540  179.7730  140.8580 C   0  0  0  0  0  1  0  0  0  0  0  0
  181.1710  178.5750  141.0130 C   0  0  1  0  0  3  0  0  0  0  0  0
  2  4  1  1  0  0  0
  2  3  1  0  0  0  0
  2  1  1  0  0  0  0
  3 27  1  6  0  0  0
  3  1  1  0  0  0  0
  3 30  1  0  0  0  0
  5  7  1  1  0  0  0
  6  5  1  0  0  0  0
  8 10  1  0  0  0  0
  9 12  1  0  0  0  0
 10  4  2  0  0  0  0
 10  5  1  0  0  0  0
 11  6  1  0  0  0  0
 12 11  2  0  0  0  0
 12  8  1  0  0  0  0
 13 14  1  0  0  0  0
 14 20  1  0  0  0  0
 14 16  2  0  0  0  0
 15 16  1  0  0  0  0
 16  2  1  0  0  0  0
 17 13  2  0  0  0  0
 17 18  1  0  0  0  0
 18 15  2  0  0  0  0
 20 19  1  6  0  0  0
 22 23  1  0  0  0  0
 23 20  1  0  0  0  0
 23 21  1  0  0  0  0
 25 24  1  0  0  0  0
 26 25  2  0  0  0  0
 27 25  1  0  0  0  0
 30 29  1  6  0  0  0
 30 28  1  0  0  0  0
M  END
>  <MODEL>
8

>  <REMARK>
 VINA RESULT:      -3.6      2.683      5.457
  Name = 
  6 active torsions:
  status: ('A' for Active; 'I' for Inactive)
    1  A    between atoms: N_1  and  C_5
    2  A    between atoms: C_5  and  C_12
    3  A    between atoms: C_8  and  C_13
    4  A    between atoms: C_13  and  N_30
    5  A    between atoms: C_23  and  N_25
    6  A    between atoms: C_23  and  C_26
                            x       y       z     vdW  Elec       q    Type
                         _______ _______ _______ _____ _____    ______ ____

>  <TORSDO>
F 6

$$$$
=
 OpenBabel10262421463D

 30 32  0  0  1  0  0  0  0  0999 V2000
  179.7240  179.1810  137.9610 C   0  0  0  0  0  2  0  0  0  0  0  0
  181.0580  178.4700  137.7390 C   0  0  2  0  0  0  0  0  0  0  0  0
  180.7110  179.7310  136.9440 C   0  0  2  0  0  0  0  0  0  0  0  0
  180.9940  177.2550  136.9510 N   0  0  0  0  0  0  0  0  0  0  0  0
  180.3860  174.9850  136.3880 C   0  0  1  0  0  3  0  0  0  0  0  0
  179.5010  173.8430  136.9000 C   0  0  0  0  0  2  0  0  0  0  0  0
  179.9740  175.3450  135.1050 O   0  0  0  0  0  1  0  0  0  0  0  0
  179.5980  176.1150  138.6120 C   0  0  0  0  0  2  0  0  0  0  0  0
  179.7880  174.5480  140.6620 C   0  0  0  0  0  1  0  0  0  0  0  0
  180.3550  176.1900  137.3030 C   0  0  0  0  0  0  0  0  0  0  0  0
  179.6460  173.6600  138.3850 C   0  0  0  0  0  3  0  0  0  0  0  0
  179.6810  174.7300  139.1880 C   0  0  0  0  0  0  0  0  0  0  0  0
  183.1850  179.1400  140.8780 C   0  0  0  0  0  3  0  0  0  0  0  0
  182.0530  179.0320  140.0560 C   0  0  0  0  0  0  0  0  0  0  0  0
  183.4910  178.2850  138.2430 C   0  0  0  0  0  3  0  0  0  0  0  0
  182.2100  178.6100  138.7120 C   0  0  0  0  0  0  0  0  0  0  0  0
  184.4530  178.8180  140.3920 C   0  0  0  0  0  3  0  0  0  0  0  0
  184.6050  178.3870  139.0750 C   0  0  0  0  0  3  0  0  0  0  0  0
  180.5300  180.7950  140.6210 O   0  0  0  0  0  1  0  0  0  0  0  0
  180.7070  179.4050  140.6150 C   0  0  2  0  0  3  0  0  0  0  0  0
  179.3610  177.8660  141.7910 C   0  0  0  0  0  1  0  0  0  0  0  0
  180.0560  179.8030  142.9080 C   0  0  0  0  0  1  0  0  0  0  0  0
  180.4660  178.7990  141.9320 N   0  0  0  0  0  0  0  0  0  0  0  0
  179.3210  182.3030  137.3400 O   0  0  0  0  0  0  0  0  0  0  0  0
  180.6940  182.2110  137.5310 C   0  0  0  0  0  0  0  0  0  0  0  0
  181.3470  183.2370  137.8540 O   0  0  0  0  0  1  0  0  0  0  0  0
  181.3720  180.9640  137.3710 N   0  0  0  0  0  2  0  0  0  0  0  0
  178.9310  179.8360  135.3300 O   0  0  0  0  0  1  0  0  0  0  0  0
  181.0820  180.5630  134.6140 C   0  0  0  0  0  1  0  0  0  0  0  0
  180.2960  179.5950  135.4780 C   0  0  1  0  0  3  0  0  0  0  0  0
  2  4  1  6  0  0  0
  2  1  1  0  0  0  0
  2 16  1  0  0  0  0
  3 27  1  1  0  0  0
  3  2  1  0  0  0  0
  3  1  1  0  0  0  0
  4 10  2  0  0  0  0
  5  7  1  6  0  0  0
  5  6  1  0  0  0  0
  5 10  1  0  0  0  0
  6 11  1  0  0  0  0
  8 12  1  0  0  0  0
 10  8  1  0  0  0  0
 11 12  2  0  0  0  0
 12  9  1  0  0  0  0
 14 20  1  0  0  0  0
 14 13  2  0  0  0  0
 15 16  2  0  0  0  0
 15 18  1  0  0  0  0
 16 14  1  0  0  0  0
 17 13  1  0  0  0  0
 18 17  2  0  0  0  0
 20 19  1  1  0  0  0
 20 23  1  0  0  0  0
 21 23  1  0  0  0  0
 23 22  1  0  0  0  0
 24 25  2  0  0  0  0
 25 26  1  0  0  0  0
 27 25  1  0  0  0  0
 28 30  1  0  0  0  0
 30 29  1  6  0  0  0
 30  3  1  0  0  0  0
M  END
>  <MODEL>
9

>  <REMARK>
 VINA RESULT:      -3.5      2.304      5.561
  Name = 
  6 active torsions:
  status: ('A' for Active; 'I' for Inactive)
    1  A    between atoms: N_1  and  C_5
    2  A    between atoms: C_5  and  C_12
    3  A    between atoms: C_8  and  C_13
    4  A    between atoms: C_13  and  N_30
    5  A    between atoms: C_23  and  N_25
    6  A    between atoms: C_23  and  C_26
                            x       y       z     vdW  Elec       q    Type
                         _______ _______ _______ _____ _____    ______ ____

>  <TORSDO>
F 6

$$$$
