=
 OpenBabel10262422033D

 30 31  0  0  1  0  0  0  0  0999 V2000
  189.6660  176.2090  143.4310 C   0  0  1  0  0  3  0  0  0  0  0  0
  188.4520  177.6620  145.6560 C   0  0  0  0  0  2  0  0  0  0  0  0
  187.3350  177.4550  144.6540 C   0  0  0  0  0  0  0  0  0  0  0  0
  190.4120  175.1830  142.8300 O   0  0  0  0  0  1  0  0  0  0  0  0
  189.7840  178.1470  145.0210 C   0  0  0  0  0  2  0  0  0  0  0  0
  190.4310  177.1550  144.1740 N   0  0  0  0  0  0  0  0  0  0  0  0
  187.6030  177.6750  143.1850 C   0  0  2  0  0  3  0  0  0  0  0  0
  186.3290  176.9290  145.0270 O   0  0  0  0  0  0  0  0  0  0  0  0
  188.6270  176.7980  142.3900 C   0  0  1  0  0  3  0  0  0  0  0  0
  191.4590  177.9150  143.2870 C   0  0  0  0  0  2  0  0  0  0  0  0
  191.5980  179.2160  143.7000 O   0  0  0  0  0  1  0  0  0  0  0  0
  187.0590  178.9400  142.5410 C   0  0  0  0  0  2  0  0  0  0  0  0
  185.6690  178.6000  141.9100 C   0  0  0  0  0  2  0  0  0  0  0  0
  184.5800  179.3850  142.6060 N   0  0  0  0  0  2  0  0  0  0  0  0
  183.7720  178.4140  143.4610 C   0  0  0  0  0  3  0  0  0  0  0  0
  183.4720  178.9850  144.8360 C   0  0  0  0  0  2  0  0  0  0  0  0
  182.4020  179.0920  143.7530 C   0  0  0  0  0  2  0  0  0  0  0  0
  189.2580  177.5520  141.1940 C   0  0  0  0  0  2  0  0  0  0  0  0
  188.7390  178.0570  139.8240 C   0  0  0  0  0  2  0  0  0  0  0  0
  189.3290  177.4430  138.5450 C   0  0  2  0  0  0  0  0  0  0  0  0
  189.1510  178.5940  137.4980 C   0  0  0  0  0  1  0  0  0  0  0  0
  188.5170  176.3060  138.2060 O   0  0  0  0  0  0  0  0  0  0  0  0
  188.0290  176.2920  136.8650 C   0  0  0  0  0  2  0  0  0  0  0  0
  188.6120  175.3790  135.6900 C   0  0  0  0  0  2  0  0  0  0  0  0
  189.6440  175.8500  134.9400 O   0  0  0  0  0  1  0  0  0  0  0  0
  190.9140  176.9250  138.6990 C   0  0  0  0  0  2  0  0  0  0  0  0
  191.4850  174.6340  138.0010 O   0  0  0  0  0  1  0  0  0  0  0  0
  191.7480  175.9970  137.7350 C   0  0  2  0  0  3  0  0  0  0  0  0
  194.0480  176.3510  137.0540 O   0  0  0  0  0  1  0  0  0  0  0  0
  193.1730  176.2740  138.1330 C   0  0  0  0  0  2  0  0  0  0  0  0
  1  4  1  6  0  0  0
  1  6  1  0  0  0  0
  3  8  2  0  0  0  0
  3  2  1  0  0  0  0
  5  2  1  0  0  0  0
  6  5  1  0  0  0  0
  7 12  1  1  0  0  0
  7  3  1  0  0  0  0
  9 18  1  6  0  0  0
  9  7  1  0  0  0  0
  9  1  1  0  0  0  0
 10 11  1  0  0  0  0
 10  6  1  0  0  0  0
 13 12  1  0  0  0  0
 13 14  1  0  0  0  0
 14 15  1  0  0  0  0
 15 17  1  0  0  0  0
 15 16  1  0  0  0  0
 17 16  1  0  0  0  0
 19 18  1  0  0  0  0
 20 21  1  6  0  0  0
 20 26  1  0  0  0  0
 20 19  1  0  0  0  0
 22 20  1  0  0  0  0
 23 22  1  0  0  0  0
 24 23  1  0  0  0  0
 25 24  1  0  0  0  0
 28 27  1  1  0  0  0
 28 30  1  0  0  0  0
 28 26  1  0  0  0  0
 29 30  1  0  0  0  0
M  END
>  <MODEL>
1

>  <REMARK>
 VINA RESULT:      -6.2      0.000      0.000
  Name = 
  14 active torsions:
  status: ('A' for Active; 'I' for Inactive)
    1  A    between atoms: C_1  and  C_4
    2  A    between atoms: C_1  and  C_22
    3  A    between atoms: C_4  and  O_8
    4  A    between atoms: C_4  and  C_12
    5  A    between atoms: C_7  and  C_23
    6  A    between atoms: C_7  and  C_25
    7  A    between atoms: O_8  and  C_27
    8  A    between atoms: C_10  and  N_15
    9  A    between atoms: C_12  and  C_21
   10  A    between atoms: C_13  and  C_27
   11  A    between atoms: C_14  and  N_20
   12  A    between atoms: N_15  and  C_25
   13  A    between atoms: C_17  and  C_21
   14  A    between atoms: C_22  and  C_29
                            x       y       z     vdW  Elec       q    Type
                         _______ _______ _______ _____ _____    ______ ____

>  <TORSDO>
F 14

$$$$
=
 OpenBabel10262422033D

 30 31  0  0  1  0  0  0  0  0999 V2000
  190.9200  178.3190  142.5600 C   0  0  1  0  0  3  0  0  0  0  0  0
  189.7810  177.1920  140.1180 C   0  0  0  0  0  2  0  0  0  0  0  0
  188.7370  178.1580  140.6390 C   0  0  0  0  0  0  0  0  0  0  0  0
  191.9060  178.9430  143.3410 O   0  0  0  0  0  1  0  0  0  0  0  0
  190.3870  176.2710  141.2120 C   0  0  0  0  0  2  0  0  0  0  0  0
  191.2070  176.9730  142.1880 N   0  0  0  0  0  0  0  0  0  0  0  0
  188.4200  178.1860  142.1150 C   0  0  2  0  0  3  0  0  0  0  0  0
  188.3380  179.0120  139.9050 O   0  0  0  0  0  0  0  0  0  0  0  0
  189.4890  178.5930  143.1840 C   0  0  1  0  0  3  0  0  0  0  0  0
  191.3520  176.0350  143.4210 C   0  0  0  0  0  2  0  0  0  0  0  0
  190.6150  174.8900  143.2560 O   0  0  0  0  0  1  0  0  0  0  0  0
  187.1160  177.5560  142.5770 C   0  0  0  0  0  2  0  0  0  0  0  0
  186.0040  178.6530  142.5220 C   0  0  0  0  0  2  0  0  0  0  0  0
  184.6380  178.0040  142.5040 N   0  0  0  0  0  2  0  0  0  0  0  0
  183.7700  178.7610  141.5030 C   0  0  0  0  0  3  0  0  0  0  0  0
  184.4340  178.8630  140.1410 C   0  0  0  0  0  2  0  0  0  0  0  0
  183.4020  177.7610  140.3690 C   0  0  0  0  0  2  0  0  0  0  0  0
  189.2390  177.9300  144.5600 C   0  0  0  0  0  2  0  0  0  0  0  0
  189.5260  178.3240  146.0310 C   0  0  0  0  0  2  0  0  0  0  0  0
  188.7130  177.6440  147.1440 C   0  0  2  0  0  0  0  0  0  0  0  0
  189.1150  178.4670  148.4140 C   0  0  0  0  0  1  0  0  0  0  0  0
  189.1770  176.2870  147.2400 O   0  0  0  0  0  0  0  0  0  0  0  0
  190.4820  176.1340  147.7970 C   0  0  0  0  0  3  0  0  0  0  0  0
  191.8200  175.9290  146.9480 C   0  0  0  0  0  3  0  0  0  0  0  0
  192.9290  175.4480  147.5720 O   0  0  0  0  0  1  0  0  0  0  0  0
  187.0620  177.6140  146.8680 C   0  0  0  0  0  2  0  0  0  0  0  0
  185.9340  179.7130  147.4900 O   0  0  0  0  0  1  0  0  0  0  0  0
  186.1120  178.7940  146.4300 C   0  0  2  0  0  3  0  0  0  0  0  0
  183.7890  178.9660  145.7550 O   0  0  0  0  0  1  0  0  0  0  0  0
  184.7930  178.1080  146.1940 C   0  0  0  0  0  2  0  0  0  0  0  0
  1  9  1  0  0  0  0
  1  4  1  1  0  0  0
  2  3  1  0  0  0  0
  2  5  1  0  0  0  0
  3  7  1  0  0  0  0
  5  6  1  0  0  0  0
  6  1  1  0  0  0  0
  6 10  1  0  0  0  0
  7 12  1  1  0  0  0
  7  9  1  0  0  0  0
  8  3  2  0  0  0  0
  9 18  1  1  0  0  0
 11 10  1  0  0  0  0
 13 12  1  0  0  0  0
 14 13  1  0  0  0  0
 15 14  1  0  0  0  0
 16 17  1  0  0  0  0
 16 15  1  0  0  0  0
 17 15  1  0  0  0  0
 18 19  1  0  0  0  0
 19 20  1  0  0  0  0
 20 22  1  0  0  0  0
 20 21  1  1  0  0  0
 22 23  1  0  0  0  0
 24 25  1  0  0  0  0
 24 23  2  0  0  0  0
 26 20  1  0  0  0  0
 28 26  1  0  0  0  0
 28 27  1  1  0  0  0
 29 30  1  0  0  0  0
 30 28  1  0  0  0  0
M  END
>  <MODEL>
2

>  <REMARK>
 VINA RESULT:      -6.1      2.908      7.389
  Name = 
  14 active torsions:
  status: ('A' for Active; 'I' for Inactive)
    1  A    between atoms: C_1  and  C_4
    2  A    between atoms: C_1  and  C_22
    3  A    between atoms: C_4  and  O_8
    4  A    between atoms: C_4  and  C_12
    5  A    between atoms: C_7  and  C_23
    6  A    between atoms: C_7  and  C_25
    7  A    between atoms: O_8  and  C_27
    8  A    between atoms: C_10  and  N_15
    9  A    between atoms: C_12  and  C_21
   10  A    between atoms: C_13  and  C_27
   11  A    between atoms: C_14  and  N_20
   12  A    between atoms: N_15  and  C_25
   13  A    between atoms: C_17  and  C_21
   14  A    between atoms: C_22  and  C_29
                            x       y       z     vdW  Elec       q    Type
                         _______ _______ _______ _____ _____    ______ ____

>  <TORSDO>
F 14

$$$$
=
 OpenBabel10262422033D

 30 31  0  0  1  0  0  0  0  0999 V2000
  189.6750  176.1480  143.4750 C   0  0  1  0  0  3  0  0  0  0  0  0
  188.3450  177.7600  145.5180 C   0  0  0  0  0  2  0  0  0  0  0  0
  187.2950  177.5140  144.4540 C   0  0  0  0  0  0  0  0  0  0  0  0
  190.4350  175.0720  142.9910 O   0  0  0  0  0  1  0  0  0  0  0  0
  189.7300  178.1790  144.9490 C   0  0  0  0  0  2  0  0  0  0  0  0
  190.4090  177.1240  144.2110 N   0  0  0  0  0  0  0  0  0  0  0  0
  187.6700  177.6370  142.9960 C   0  0  2  0  0  3  0  0  0  0  0  0
  186.2540  177.0320  144.7860 O   0  0  0  0  0  0  0  0  0  0  0  0
  188.7240  176.6920  142.3300 C   0  0  1  0  0  3  0  0  0  0  0  0
  191.5140  177.8070  143.3540 C   0  0  0  0  0  2  0  0  0  0  0  0
  191.6210  179.1390  143.6620 O   0  0  0  0  0  1  0  0  0  0  0  0
  187.2010  178.8700  142.2400 C   0  0  0  0  0  2  0  0  0  0  0  0
  185.6840  178.6850  141.9090 C   0  0  0  0  0  2  0  0  0  0  0  0
  185.3480  179.3930  140.6160 N   0  0  0  0  0  2  0  0  0  0  0  0
  184.0550  178.7930  140.0720 C   0  0  0  0  0  3  0  0  0  0  0  0
  183.3930  179.7030  139.0520 C   0  0  0  0  0  2  0  0  0  0  0  0
  184.2660  178.5570  138.5480 C   0  0  0  0  0  2  0  0  0  0  0  0
  189.4540  177.3580  141.1370 C   0  0  0  0  0  2  0  0  0  0  0  0
  190.3310  176.8440  139.9680 C   0  0  0  0  0  2  0  0  0  0  0  0
  189.8260  177.0460  138.5300 C   0  0  2  0  0  0  0  0  0  0  0  0
  189.3890  178.5500  138.5280 C   0  0  0  0  0  1  0  0  0  0  0  0
  188.6930  176.1780  138.3520 O   0  0  0  0  0  0  0  0  0  0  0  0
  187.6690  176.6930  137.5020 C   0  0  0  0  0  2  0  0  0  0  0  0
  187.3490  176.1580  136.0300 C   0  0  0  0  0  2  0  0  0  0  0  0
  187.6620  176.9400  134.9630 O   0  0  0  0  0  1  0  0  0  0  0  0
  190.9540  176.6800  137.3480 C   0  0  0  0  0  2  0  0  0  0  0  0
  191.0710  174.2570  137.7740 O   0  0  0  0  0  1  0  0  0  0  0  0
  191.7050  175.3180  137.0880 C   0  0  2  0  0  3  0  0  0  0  0  0
  193.4640  176.8640  137.7170 O   0  0  0  0  0  1  0  0  0  0  0  0
  193.0500  175.5360  137.7270 C   0  0  0  0  0  2  0  0  0  0  0  0
  1  4  1  6  0  0  0
  1  6  1  0  0  0  0
  3  8  2  0  0  0  0
  3  2  1  0  0  0  0
  5  2  1  0  0  0  0
  6  5  1  0  0  0  0
  7 12  1  1  0  0  0
  7  3  1  0  0  0  0
  9 18  1  6  0  0  0
  9  7  1  0  0  0  0
  9  1  1  0  0  0  0
 10 11  1  0  0  0  0
 10  6  1  0  0  0  0
 13 12  1  0  0  0  0
 14 13  1  0  0  0  0
 15 14  1  0  0  0  0
 16 15  1  0  0  0  0
 17 16  1  0  0  0  0
 17 15  1  0  0  0  0
 19 18  1  0  0  0  0
 20 21  1  6  0  0  0
 20 19  1  0  0  0  0
 22 20  1  0  0  0  0
 23 22  1  0  0  0  0
 24 23  1  0  0  0  0
 25 24  1  0  0  0  0
 26 20  1  0  0  0  0
 28 26  1  0  0  0  0
 28 30  1  0  0  0  0
 28 27  1  1  0  0  0
 29 30  1  0  0  0  0
M  END
>  <MODEL>
3

>  <REMARK>
 VINA RESULT:      -6.0      1.359      1.828
  Name = 
  14 active torsions:
  status: ('A' for Active; 'I' for Inactive)
    1  A    between atoms: C_1  and  C_4
    2  A    between atoms: C_1  and  C_22
    3  A    between atoms: C_4  and  O_8
    4  A    between atoms: C_4  and  C_12
    5  A    between atoms: C_7  and  C_23
    6  A    between atoms: C_7  and  C_25
    7  A    between atoms: O_8  and  C_27
    8  A    between atoms: C_10  and  N_15
    9  A    between atoms: C_12  and  C_21
   10  A    between atoms: C_13  and  C_27
   11  A    between atoms: C_14  and  N_20
   12  A    between atoms: N_15  and  C_25
   13  A    between atoms: C_17  and  C_21
   14  A    between atoms: C_22  and  C_29
                            x       y       z     vdW  Elec       q    Type
                         _______ _______ _______ _____ _____    ______ ____

>  <TORSDO>
F 14

$$$$
=
 OpenBabel10262422033D

 30 31  0  0  1  0  0  0  0  0999 V2000
  189.5600  176.2650  143.4620 C   0  0  1  0  0  3  0  0  0  0  0  0
  188.5060  177.6100  145.8320 C   0  0  0  0  0  2  0  0  0  0  0  0
  187.3050  177.3670  144.9410 C   0  0  0  0  0  0  0  0  0  0  0  0
  190.2900  175.2900  142.7650 O   0  0  0  0  0  1  0  0  0  0  0  0
  189.7430  178.1750  145.0800 C   0  0  0  0  0  2  0  0  0  0  0  0
  190.3480  177.2340  144.1490 N   0  0  0  0  0  0  0  0  0  0  0  0
  187.4140  177.6300  143.4580 C   0  0  2  0  0  3  0  0  0  0  0  0
  186.3690  176.7830  145.3980 O   0  0  0  0  0  0  0  0  0  0  0  0
  188.3940  176.8210  142.5440 C   0  0  1  0  0  3  0  0  0  0  0  0
  191.2440  178.0620  143.1830 C   0  0  0  0  0  2  0  0  0  0  0  0
  191.2380  179.3910  143.5250 O   0  0  0  0  0  1  0  0  0  0  0  0
  186.7470  178.8780  142.9030 C   0  0  0  0  0  2  0  0  0  0  0  0
  185.4000  178.4480  142.2350 C   0  0  0  0  0  2  0  0  0  0  0  0
  184.3600  178.1770  143.2980 N   0  0  0  0  0  2  0  0  0  0  0  0
  183.3250  179.2970  143.2410 C   0  0  0  0  0  3  0  0  0  0  0  0
  182.0730  178.8730  142.4920 C   0  0  0  0  0  2  0  0  0  0  0  0
  182.0710  178.8010  144.0180 C   0  0  0  0  0  2  0  0  0  0  0  0
  188.8640  177.6300  141.3100 C   0  0  0  0  0  2  0  0  0  0  0  0
  188.1970  178.1020  139.9940 C   0  0  0  0  0  2  0  0  0  0  0  0
  188.7260  177.5430  138.6630 C   0  0  2  0  0  0  0  0  0  0  0  0
  189.2580  178.8260  137.9390 C   0  0  0  0  0  1  0  0  0  0  0  0
  187.6040  176.9820  137.9620 O   0  0  0  0  0  0  0  0  0  0  0  0
  186.4430  177.8110  137.9210 C   0  0  0  0  0  2  0  0  0  0  0  0
  184.9930  177.3320  137.4490 C   0  0  0  0  0  2  0  0  0  0  0  0
  184.8260  176.9020  136.1700 O   0  0  0  0  0  1  0  0  0  0  0  0
  189.8860  176.3480  138.8330 C   0  0  0  0  0  2  0  0  0  0  0  0
  190.2090  174.1900  137.6910 O   0  0  0  0  0  1  0  0  0  0  0  0
  190.6400  175.5360  137.7090 C   0  0  2  0  0  3  0  0  0  0  0  0
  192.5380  176.8200  138.5000 O   0  0  0  0  0  1  0  0  0  0  0  0
  192.0720  175.5510  138.1710 C   0  0  0  0  0  2  0  0  0  0  0  0
  1  4  1  6  0  0  0
  1  6  1  0  0  0  0
  3  8  2  0  0  0  0
  3  2  1  0  0  0  0
  5  2  1  0  0  0  0
  6  5  1  0  0  0  0
  7 12  1  1  0  0  0
  7  3  1  0  0  0  0
  9 18  1  6  0  0  0
  9  7  1  0  0  0  0
  9  1  1  0  0  0  0
 10 11  1  0  0  0  0
 10  6  1  0  0  0  0
 13 12  1  0  0  0  0
 13 14  1  0  0  0  0
 15 14  1  0  0  0  0
 15 17  1  0  0  0  0
 16 15  1  0  0  0  0
 16 17  1  0  0  0  0
 19 18  1  0  0  0  0
 20 21  1  6  0  0  0
 20 26  1  0  0  0  0
 20 19  1  0  0  0  0
 22 20  1  0  0  0  0
 23 22  1  0  0  0  0
 24 23  1  0  0  0  0
 25 24  1  0  0  0  0
 28 27  1  1  0  0  0
 28 30  1  0  0  0  0
 28 26  1  0  0  0  0
 30 29  1  0  0  0  0
M  END
>  <MODEL>
4

>  <REMARK>
 VINA RESULT:      -5.6      1.333      1.606
  Name = 
  14 active torsions:
  status: ('A' for Active; 'I' for Inactive)
    1  A    between atoms: C_1  and  C_4
    2  A    between atoms: C_1  and  C_22
    3  A    between atoms: C_4  and  O_8
    4  A    between atoms: C_4  and  C_12
    5  A    between atoms: C_7  and  C_23
    6  A    between atoms: C_7  and  C_25
    7  A    between atoms: O_8  and  C_27
    8  A    between atoms: C_10  and  N_15
    9  A    between atoms: C_12  and  C_21
   10  A    between atoms: C_13  and  C_27
   11  A    between atoms: C_14  and  N_20
   12  A    between atoms: N_15  and  C_25
   13  A    between atoms: C_17  and  C_21
   14  A    between atoms: C_22  and  C_29
                            x       y       z     vdW  Elec       q    Type
                         _______ _______ _______ _____ _____    ______ ____

>  <TORSDO>
F 14

$$$$
=
 OpenBabel10262422033D

 30 31  0  0  1  0  0  0  0  0999 V2000
  190.0380  176.0350  143.9880 C   0  0  1  0  0  3  0  0  0  0  0  0
  191.1490  176.9180  146.5420 C   0  0  0  0  0  2  0  0  0  0  0  0
  189.6620  176.7620  146.7830 C   0  0  0  0  0  0  0  0  0  0  0  0
  189.9500  175.2270  142.8440 O   0  0  0  0  0  1  0  0  0  0  0  0
  191.4970  177.6620  145.2230 C   0  0  0  0  0  2  0  0  0  0  0  0
  191.1560  176.9190  144.0180 N   0  0  0  0  0  0  0  0  0  0  0  0
  188.6830  177.2690  145.7510 C   0  0  2  0  0  3  0  0  0  0  0  0
  189.3040  176.0630  147.6830 O   0  0  0  0  0  0  0  0  0  0  0  0
  188.6220  176.6730  144.3050 C   0  0  1  0  0  3  0  0  0  0  0  0
  191.1390  177.9400  142.8440 C   0  0  0  0  0  2  0  0  0  0  0  0
  191.9400  177.5180  141.8140 O   0  0  0  0  0  1  0  0  0  0  0  0
  187.9300  178.5550  146.0520 C   0  0  0  0  0  2  0  0  0  0  0  0
  186.6370  178.1810  146.8490 C   0  0  0  0  0  2  0  0  0  0  0  0
  185.4850  179.0530  146.4030 N   0  0  0  0  0  2  0  0  0  0  0  0
  184.9380  178.4790  145.0990 C   0  0  0  0  0  3  0  0  0  0  0  0
  183.5170  178.9420  144.8300 C   0  0  0  0  0  2  0  0  0  0  0  0
  184.6660  179.6810  144.1490 C   0  0  0  0  0  2  0  0  0  0  0  0
  188.1180  177.6960  143.2580 C   0  0  0  0  0  2  0  0  0  0  0  0
  187.1050  177.6520  142.0870 C   0  0  0  0  0  2  0  0  0  0  0  0
  187.3810  178.5160  140.8460 C   0  0  2  0  0  0  0  0  0  0  0  0
  188.6010  179.3860  141.2980 C   0  0  0  0  0  1  0  0  0  0  0  0
  186.2170  179.3310  140.6290 O   0  0  0  0  0  0  0  0  0  0  0  0
  185.2260  178.7520  139.7800 C   0  0  0  0  0  3  0  0  0  0  0  0
  183.8510  179.4550  139.3700 C   0  0  0  0  0  3  0  0  0  0  0  0
  183.0050  178.8040  138.5260 O   0  0  0  0  0  1  0  0  0  0  0  0
  187.6720  177.6390  139.4500 C   0  0  0  0  0  2  0  0  0  0  0  0
  188.8270  179.4190  138.1990 O   0  0  0  0  0  1  0  0  0  0  0  0
  188.5550  178.0320  138.2030 C   0  0  2  0  0  3  0  0  0  0  0  0
  187.2790  178.8740  136.3200 O   0  0  0  0  0  1  0  0  0  0  0  0
  187.6540  177.7390  137.0330 C   0  0  0  0  0  2  0  0  0  0  0  0
  1  4  1  6  0  0  0
  1  6  1  0  0  0  0
  1  9  1  0  0  0  0
  2  3  1  0  0  0  0
  3  8  2  0  0  0  0
  5  2  1  0  0  0  0
  6  5  1  0  0  0  0
  7 12  1  6  0  0  0
  7  3  1  0  0  0  0
  9 18  1  6  0  0  0
  9  7  1  0  0  0  0
 10  6  1  0  0  0  0
 11 10  1  0  0  0  0
 12 13  1  0  0  0  0
 14 13  1  0  0  0  0
 15 14  1  0  0  0  0
 16 15  1  0  0  0  0
 17 16  1  0  0  0  0
 17 15  1  0  0  0  0
 19 18  1  0  0  0  0
 20 21  1  1  0  0  0
 20 19  1  0  0  0  0
 22 20  1  0  0  0  0
 23 22  1  0  0  0  0
 24 23  2  0  0  0  0
 25 24  1  0  0  0  0
 26 20  1  0  0  0  0
 28 27  1  1  0  0  0
 28 26  1  0  0  0  0
 29 30  1  0  0  0  0
 30 28  1  0  0  0  0
M  END
>  <MODEL>
5

>  <REMARK>
 VINA RESULT:      -5.5      2.575      3.939
  Name = 
  14 active torsions:
  status: ('A' for Active; 'I' for Inactive)
    1  A    between atoms: C_1  and  C_4
    2  A    between atoms: C_1  and  C_22
    3  A    between atoms: C_4  and  O_8
    4  A    between atoms: C_4  and  C_12
    5  A    between atoms: C_7  and  C_23
    6  A    between atoms: C_7  and  C_25
    7  A    between atoms: O_8  and  C_27
    8  A    between atoms: C_10  and  N_15
    9  A    between atoms: C_12  and  C_21
   10  A    between atoms: C_13  and  C_27
   11  A    between atoms: C_14  and  N_20
   12  A    between atoms: N_15  and  C_25
   13  A    between atoms: C_17  and  C_21
   14  A    between atoms: C_22  and  C_29
                            x       y       z     vdW  Elec       q    Type
                         _______ _______ _______ _____ _____    ______ ____

>  <TORSDO>
F 14

$$$$
=
 OpenBabel10262422033D

 30 31  0  0  1  0  0  0  0  0999 V2000
  185.5870  177.4700  144.7570 C   0  0  1  0  0  3  0  0  0  0  0  0
  183.5160  178.8700  143.2440 C   0  0  0  0  0  2  0  0  0  0  0  0
  184.3970  178.2080  142.2030 C   0  0  0  0  0  0  0  0  0  0  0  0
  186.0830  176.6050  145.7450 O   0  0  0  0  0  1  0  0  0  0  0  0
  184.3070  179.5940  144.3680 C   0  0  0  0  0  2  0  0  0  0  0  0
  185.0450  178.6950  145.2450 N   0  0  0  0  0  0  0  0  0  0  0  0
  185.8980  178.2570  142.3590 C   0  0  2  0  0  3  0  0  0  0  0  0
  183.8820  177.4930  141.3970 O   0  0  0  0  0  0  0  0  0  0  0  0
  186.6270  177.5780  143.5670 C   0  0  1  0  0  3  0  0  0  0  0  0
  186.1030  179.5560  145.9930 C   0  0  0  0  0  2  0  0  0  0  0  0
  185.8430  179.5930  147.3390 O   0  0  0  0  0  1  0  0  0  0  0  0
  186.6790  179.2060  141.4640 C   0  0  0  0  0  2  0  0  0  0  0  0
  187.3230  178.3630  140.3150 C   0  0  0  0  0  2  0  0  0  0  0  0
  186.5340  178.5440  139.0380 N   0  0  0  0  0  2  0  0  0  0  0  0
  187.4380  178.1670  137.8680 C   0  0  0  0  0  3  0  0  0  0  0  0
  187.5500  176.6610  137.7010 C   0  0  0  0  0  2  0  0  0  0  0  0
  186.5540  177.4210  136.8280 C   0  0  0  0  0  2  0  0  0  0  0  0
  187.9610  178.2770  143.9280 C   0  0  0  0  0  2  0  0  0  0  0  0
  189.3780  178.3160  143.3010 C   0  0  0  0  0  2  0  0  0  0  0  0
  190.5000  177.5090  143.9740 C   0  0  2  0  0  0  0  0  0  0  0  0
  191.6300  178.5780  144.1550 C   0  0  0  0  0  1  0  0  0  0  0  0
  190.9010  176.4860  143.0470 O   0  0  0  0  0  0  0  0  0  0  0  0
  190.2870  176.5640  141.7610 C   0  0  0  0  0  3  0  0  0  0  0  0
  191.0100  177.0800  140.4330 C   0  0  0  0  0  3  0  0  0  0  0  0
  192.2420  177.6480  140.5330 O   0  0  0  0  0  1  0  0  0  0  0  0
  190.0490  176.7690  145.4060 C   0  0  0  0  0  2  0  0  0  0  0  0
  191.1740  176.1530  147.5090 O   0  0  0  0  0  1  0  0  0  0  0  0
  190.4200  177.1730  146.8860 C   0  0  2  0  0  3  0  0  0  0  0  0
  188.9090  178.3780  148.3510 O   0  0  0  0  0  1  0  0  0  0  0  0
  189.0820  177.2370  147.5730 C   0  0  0  0  0  2  0  0  0  0  0  0
  1  6  1  0  0  0  0
  1  4  1  1  0  0  0
  2  5  1  0  0  0  0
  3  7  1  0  0  0  0
  3  2  1  0  0  0  0
  5  6  1  0  0  0  0
  6 10  1  0  0  0  0
  7 12  1  1  0  0  0
  7  9  1  0  0  0  0
  8  3  2  0  0  0  0
  9 18  1  1  0  0  0
  9  1  1  0  0  0  0
 10 11  1  0  0  0  0
 13 12  1  0  0  0  0
 14 13  1  0  0  0  0
 15 14  1  0  0  0  0
 16 15  1  0  0  0  0
 17 16  1  0  0  0  0
 17 15  1  0  0  0  0
 19 18  1  0  0  0  0
 19 20  1  0  0  0  0
 20 21  1  1  0  0  0
 20 26  1  0  0  0  0
 22 20  1  0  0  0  0
 23 22  1  0  0  0  0
 24 25  1  0  0  0  0
 24 23  2  0  0  0  0
 26 28  1  0  0  0  0
 28 27  1  1  0  0  0
 28 30  1  0  0  0  0
 30 29  1  0  0  0  0
M  END
>  <MODEL>
6

>  <REMARK>
 VINA RESULT:      -5.4      2.644      6.351
  Name = 
  14 active torsions:
  status: ('A' for Active; 'I' for Inactive)
    1  A    between atoms: C_1  and  C_4
    2  A    between atoms: C_1  and  C_22
    3  A    between atoms: C_4  and  O_8
    4  A    between atoms: C_4  and  C_12
    5  A    between atoms: C_7  and  C_23
    6  A    between atoms: C_7  and  C_25
    7  A    between atoms: O_8  and  C_27
    8  A    between atoms: C_10  and  N_15
    9  A    between atoms: C_12  and  C_21
   10  A    between atoms: C_13  and  C_27
   11  A    between atoms: C_14  and  N_20
   12  A    between atoms: N_15  and  C_25
   13  A    between atoms: C_17  and  C_21
   14  A    between atoms: C_22  and  C_29
                            x       y       z     vdW  Elec       q    Type
                         _______ _______ _______ _____ _____    ______ ____

>  <TORSDO>
F 14

$$$$
=
 OpenBabel10262422033D

 30 31  0  0  1  0  0  0  0  0999 V2000
  185.5660  177.4990  144.8460 C   0  0  1  0  0  3  0  0  0  0  0  0
  183.6330  178.9900  143.2410 C   0  0  0  0  0  2  0  0  0  0  0  0
  184.5200  178.2770  142.2410 C   0  0  0  0  0  0  0  0  0  0  0  0
  185.9780  176.6180  145.8580 O   0  0  0  0  0  1  0  0  0  0  0  0
  184.4130  179.6820  144.3930 C   0  0  0  0  0  2  0  0  0  0  0  0
  185.0680  178.7540  145.3040 N   0  0  0  0  0  0  0  0  0  0  0  0
  186.0140  178.2520  142.4580 C   0  0  2  0  0  3  0  0  0  0  0  0
  184.0030  177.5830  141.4180 O   0  0  0  0  0  0  0  0  0  0  0  0
  186.6580  177.5460  143.6990 C   0  0  1  0  0  3  0  0  0  0  0  0
  186.1370  179.5660  146.0900 C   0  0  0  0  0  2  0  0  0  0  0  0
  185.8020  179.6640  147.4170 O   0  0  0  0  0  1  0  0  0  0  0  0
  186.8780  179.1530  141.5910 C   0  0  0  0  0  2  0  0  0  0  0  0
  187.5190  178.2710  140.4700 C   0  0  0  0  0  2  0  0  0  0  0  0
  186.7950  178.4920  139.1610 N   0  0  0  0  0  2  0  0  0  0  0  0
  187.6090  177.8300  138.0540 C   0  0  0  0  0  3  0  0  0  0  0  0
  186.7230  177.2930  136.9430 C   0  0  0  0  0  2  0  0  0  0  0  0
  187.3790  178.6590  136.7570 C   0  0  0  0  0  2  0  0  0  0  0  0
  188.0110  178.1790  144.1100 C   0  0  0  0  0  2  0  0  0  0  0  0
  189.3820  177.6230  144.5700 C   0  0  0  0  0  2  0  0  0  0  0  0
  190.2770  176.9290  143.5320 C   0  0  2  0  0  0  0  0  0  0  0  0
  189.3920  175.7240  143.0660 C   0  0  0  0  0  1  0  0  0  0  0  0
  191.4520  176.4710  144.2230 O   0  0  0  0  0  0  0  0  0  0  0  0
  191.5990  176.9650  145.5540 C   0  0  0  0  0  3  0  0  0  0  0  0
  191.9580  176.0690  146.8270 C   0  0  0  0  0  3  0  0  0  0  0  0
  192.2270  176.6840  148.0100 O   0  0  0  0  0  1  0  0  0  0  0  0
  190.7660  177.9200  142.2740 C   0  0  0  0  0  2  0  0  0  0  0  0
  190.5680  176.3140  140.4180 O   0  0  0  0  0  1  0  0  0  0  0  0
  191.1940  177.5190  140.8100 C   0  0  2  0  0  3  0  0  0  0  0  0
  193.3930  177.5250  139.7870 O   0  0  0  0  0  1  0  0  0  0  0  0
  192.6690  177.2460  140.9420 C   0  0  0  0  0  2  0  0  0  0  0  0
  1  6  1  0  0  0  0
  1  4  1  1  0  0  0
  2  5  1  0  0  0  0
  3  7  1  0  0  0  0
  3  2  1  0  0  0  0
  5  6  1  0  0  0  0
  6 10  1  0  0  0  0
  7 12  1  1  0  0  0
  7  9  1  0  0  0  0
  8  3  2  0  0  0  0
  9 18  1  1  0  0  0
  9  1  1  0  0  0  0
 10 11  1  0  0  0  0
 13 12  1  0  0  0  0
 14 13  1  0  0  0  0
 15 14  1  0  0  0  0
 16 15  1  0  0  0  0
 17 16  1  0  0  0  0
 17 15  1  0  0  0  0
 18 19  1  0  0  0  0
 20 21  1  6  0  0  0
 20 22  1  0  0  0  0
 20 19  1  0  0  0  0
 22 23  1  0  0  0  0
 23 24  2  0  0  0  0
 24 25  1  0  0  0  0
 26 20  1  0  0  0  0
 28 27  1  1  0  0  0
 28 30  1  0  0  0  0
 28 26  1  0  0  0  0
 29 30  1  0  0  0  0
M  END
>  <MODEL>
7

>  <REMARK>
 VINA RESULT:      -5.3      2.430      6.038
  Name = 
  14 active torsions:
  status: ('A' for Active; 'I' for Inactive)
    1  A    between atoms: C_1  and  C_4
    2  A    between atoms: C_1  and  C_22
    3  A    between atoms: C_4  and  O_8
    4  A    between atoms: C_4  and  C_12
    5  A    between atoms: C_7  and  C_23
    6  A    between atoms: C_7  and  C_25
    7  A    between atoms: O_8  and  C_27
    8  A    between atoms: C_10  and  N_15
    9  A    between atoms: C_12  and  C_21
   10  A    between atoms: C_13  and  C_27
   11  A    between atoms: C_14  and  N_20
   12  A    between atoms: N_15  and  C_25
   13  A    between atoms: C_17  and  C_21
   14  A    between atoms: C_22  and  C_29
                            x       y       z     vdW  Elec       q    Type
                         _______ _______ _______ _____ _____    ______ ____

>  <TORSDO>
F 14

$$$$
=
 OpenBabel10262422033D

 30 31  0  0  1  0  0  0  0  0999 V2000
  189.3300  178.3030  146.8620 C   0  0  1  0  0  3  0  0  0  0  0  0
  191.6770  176.8050  145.9790 C   0  0  0  0  0  2  0  0  0  0  0  0
  191.0720  177.3840  144.7160 C   0  0  0  0  0  0  0  0  0  0  0  0
  188.6280  179.2360  147.6410 O   0  0  0  0  0  1  0  0  0  0  0  0
  190.6370  176.1620  146.9370 C   0  0  0  0  0  2  0  0  0  0  0  0
  189.7270  177.1190  147.5490 N   0  0  0  0  0  0  0  0  0  0  0  0
  189.5750  177.3400  144.5210 C   0  0  2  0  0  3  0  0  0  0  0  0
  191.7700  178.0400  144.0030 O   0  0  0  0  0  0  0  0  0  0  0  0
  188.5940  178.1030  145.4730 C   0  0  1  0  0  3  0  0  0  0  0  0
  188.5120  176.3110  148.0910 C   0  0  0  0  0  2  0  0  0  0  0  0
  187.7770  177.0610  148.9730 O   0  0  0  0  0  1  0  0  0  0  0  0
  189.0120  176.3250  143.5390 C   0  0  0  0  0  2  0  0  0  0  0  0
  189.0400  176.9680  142.1140 C   0  0  0  0  0  2  0  0  0  0  0  0
  190.1710  176.3780  141.3030 N   0  0  0  0  0  2  0  0  0  0  0  0
  190.7180  177.4710  140.3910 C   0  0  0  0  0  3  0  0  0  0  0  0
  192.2370  177.5020  140.3920 C   0  0  0  0  0  2  0  0  0  0  0  0
  191.5230  176.7650  139.2610 C   0  0  0  0  0  2  0  0  0  0  0  0
  187.2040  177.4280  145.5620 C   0  0  0  0  0  2  0  0  0  0  0  0
  185.9540  177.3760  144.6470 C   0  0  0  0  0  2  0  0  0  0  0  0
  185.1000  178.6460  144.5000 C   0  0  2  0  0  0  0  0  0  0  0  0
  185.5630  179.5140  145.7180 C   0  0  0  0  0  1  0  0  0  0  0  0
  183.7250  178.2510  144.6390 O   0  0  0  0  0  0  0  0  0  0  0  0
  182.7890  179.0760  143.9470 C   0  0  0  0  0  2  0  0  0  0  0  0
  181.3340  178.6120  143.4770 C   0  0  0  0  0  2  0  0  0  0  0  0
  180.2890  178.7480  144.3380 O   0  0  0  0  0  1  0  0  0  0  0  0
  185.2740  179.4230  143.0270 C   0  0  0  0  0  2  0  0  0  0  0  0
  186.8090  179.6080  141.1100 O   0  0  0  0  0  1  0  0  0  0  0  0
  185.7600  178.8290  141.6480 C   0  0  2  0  0  3  0  0  0  0  0  0
  184.8170  179.7530  139.6140 O   0  0  0  0  0  1  0  0  0  0  0  0
  184.5600  178.9990  140.7550 C   0  0  0  0  0  2  0  0  0  0  0  0
  1  6  1  0  0  0  0
  1  4  1  1  0  0  0
  2  5  1  0  0  0  0
  3  2  1  0  0  0  0
  5  6  1  0  0  0  0
  6 10  1  0  0  0  0
  7 12  1  1  0  0  0
  7  3  1  0  0  0  0
  7  9  1  0  0  0  0
  8  3  2  0  0  0  0
  9 18  1  1  0  0  0
  9  1  1  0  0  0  0
 10 11  1  0  0  0  0
 13 12  1  0  0  0  0
 14 13  1  0  0  0  0
 15 16  1  0  0  0  0
 15 14  1  0  0  0  0
 17 15  1  0  0  0  0
 17 16  1  0  0  0  0
 19 18  1  0  0  0  0
 20 22  1  0  0  0  0
 20 19  1  0  0  0  0
 20 21  1  1  0  0  0
 23 22  1  0  0  0  0
 24 23  1  0  0  0  0
 24 25  1  0  0  0  0
 26 20  1  0  0  0  0
 28 27  1  6  0  0  0
 28 26  1  0  0  0  0
 29 30  1  0  0  0  0
 30 28  1  0  0  0  0
M  END
>  <MODEL>
8

>  <REMARK>
 VINA RESULT:      -5.2      3.397      7.269
  Name = 
  14 active torsions:
  status: ('A' for Active; 'I' for Inactive)
    1  A    between atoms: C_1  and  C_4
    2  A    between atoms: C_1  and  C_22
    3  A    between atoms: C_4  and  O_8
    4  A    between atoms: C_4  and  C_12
    5  A    between atoms: C_7  and  C_23
    6  A    between atoms: C_7  and  C_25
    7  A    between atoms: O_8  and  C_27
    8  A    between atoms: C_10  and  N_15
    9  A    between atoms: C_12  and  C_21
   10  A    between atoms: C_13  and  C_27
   11  A    between atoms: C_14  and  N_20
   12  A    between atoms: N_15  and  C_25
   13  A    between atoms: C_17  and  C_21
   14  A    between atoms: C_22  and  C_29
                            x       y       z     vdW  Elec       q    Type
                         _______ _______ _______ _____ _____    ______ ____

>  <TORSDO>
F 14

$$$$
=
 OpenBabel10262422033D

 30 31  0  0  1  0  0  0  0  0999 V2000
  183.9360  179.5750  140.2810 C   0  0  1  0  0  3  0  0  0  0  0  0
  182.3470  178.7560  142.5930 C   0  0  0  0  0  2  0  0  0  0  0  0
  183.6990  179.1460  143.1530 C   0  0  0  0  0  0  0  0  0  0  0  0
  184.2040  180.2890  139.1030 O   0  0  0  0  0  1  0  0  0  0  0  0
  182.4250  177.8630  141.3240 C   0  0  0  0  0  2  0  0  0  0  0  0
  182.9590  178.5440  140.1530 N   0  0  0  0  0  0  0  0  0  0  0  0
  184.9550  178.7010  142.4410 C   0  0  2  0  0  3  0  0  0  0  0  0
  183.7380  179.9610  144.0240 O   0  0  0  0  0  0  0  0  0  0  0  0
  185.2970  179.1780  140.9900 C   0  0  1  0  0  3  0  0  0  0  0  0
  183.3880  177.4420  139.1410 C   0  0  0  0  0  2  0  0  0  0  0  0
  183.0400  176.1960  139.5950 O   0  0  0  0  0  1  0  0  0  0  0  0
  185.7610  177.5680  143.0550 C   0  0  0  0  0  2  0  0  0  0  0  0
  186.8470  178.1980  143.9870 C   0  0  0  0  0  2  0  0  0  0  0  0
  186.3810  178.1580  145.4250 N   0  0  0  0  0  2  0  0  0  0  0  0
  187.2700  177.1750  146.1800 C   0  0  0  0  0  3  0  0  0  0  0  0
  188.6590  177.7400  146.4250 C   0  0  0  0  0  2  0  0  0  0  0  0
  187.6250  177.8340  147.5450 C   0  0  0  0  0  2  0  0  0  0  0  0
  186.1620  178.1540  140.2140 C   0  0  0  0  0  2  0  0  0  0  0  0
  187.1600  178.2410  139.0320 C   0  0  0  0  0  2  0  0  0  0  0  0
  188.6020  177.7550  139.2530 C   0  0  2  0  0  0  0  0  0  0  0  0
  189.4370  178.7520  138.3820 C   0  0  0  0  0  1  0  0  0  0  0  0
  188.6830  176.4180  138.7290 O   0  0  0  0  0  0  0  0  0  0  0  0
  189.6130  176.2460  137.6610 C   0  0  0  0  0  2  0  0  0  0  0  0
  190.9400  175.3580  137.7390 C   0  0  0  0  0  2  0  0  0  0  0  0
  190.8700  174.0400  137.4090 O   0  0  0  0  0  1  0  0  0  0  0  0
  189.0760  177.7170  140.8580 C   0  0  0  0  0  2  0  0  0  0  0  0
  189.6730  176.4890  142.9070 O   0  0  0  0  0  1  0  0  0  0  0  0
  190.0700  176.7210  141.5710 C   0  0  2  0  0  3  0  0  0  0  0  0
  191.6200  178.0950  142.8310 O   0  0  0  0  0  1  0  0  0  0  0  0
  191.3640  177.4880  141.6050 C   0  0  0  0  0  2  0  0  0  0  0  0
  1  4  1  6  0  0  0
  1  9  1  0  0  0  0
  2  3  1  0  0  0  0
  3  8  2  0  0  0  0
  5  2  1  0  0  0  0
  6  1  1  0  0  0  0
  6  5  1  0  0  0  0
  7 12  1  6  0  0  0
  7  3  1  0  0  0  0
  9 18  1  6  0  0  0
  9  7  1  0  0  0  0
 10 11  1  0  0  0  0
 10  6  1  0  0  0  0
 12 13  1  0  0  0  0
 13 14  1  0  0  0  0
 14 15  1  0  0  0  0
 15 16  1  0  0  0  0
 15 17  1  0  0  0  0
 16 17  1  0  0  0  0
 19 20  1  0  0  0  0
 19 18  1  0  0  0  0
 20 21  1  6  0  0  0
 20 26  1  0  0  0  0
 22 20  1  0  0  0  0
 23 24  1  0  0  0  0
 23 22  1  0  0  0  0
 25 24  1  0  0  0  0
 26 28  1  0  0  0  0
 28 30  1  0  0  0  0
 28 27  1  1  0  0  0
 30 29  1  0  0  0  0
M  END
>  <MODEL>
9

>  <REMARK>
 VINA RESULT:      -5.1      2.379      5.295
  Name = 
  14 active torsions:
  status: ('A' for Active; 'I' for Inactive)
    1  A    between atoms: C_1  and  C_4
    2  A    between atoms: C_1  and  C_22
    3  A    between atoms: C_4  and  O_8
    4  A    between atoms: C_4  and  C_12
    5  A    between atoms: C_7  and  C_23
    6  A    between atoms: C_7  and  C_25
    7  A    between atoms: O_8  and  C_27
    8  A    between atoms: C_10  and  N_15
    9  A    between atoms: C_12  and  C_21
   10  A    between atoms: C_13  and  C_27
   11  A    between atoms: C_14  and  N_20
   12  A    between atoms: N_15  and  C_25
   13  A    between atoms: C_17  and  C_21
   14  A    between atoms: C_22  and  C_29
                            x       y       z     vdW  Elec       q    Type
                         _______ _______ _______ _____ _____    ______ ____

>  <TORSDO>
F 14

$$$$
