=
 OpenBabel10262419363D

 31 35  0  0  1  0  0  0  0  0999 V2000
  187.3560  177.6670  135.9640 C   0  0  2  0  0  3  0  0  0  0  0  0
  186.2440  178.3460  139.5700 C   0  0  0  0  0  0  0  0  0  0  0  0
  184.7290  178.5620  139.4750 C   0  0  1  0  0  3  0  0  0  0  0  0
  183.4230  176.4040  138.7310 C   0  0  0  0  0  2  0  0  0  0  0  0
  187.0670  178.1670  138.4240 C   0  0  0  0  0  0  0  0  0  0  0  0
  188.7970  178.1280  136.1000 C   0  0  0  0  0  2  0  0  0  0  0  0
  184.0300  177.7750  138.3460 C   0  0  0  0  0  2  0  0  0  0  0  0
  188.2410  178.2290  140.9910 C   0  0  0  0  0  0  0  0  0  0  0  0
  186.8310  178.0380  134.5940 C   0  0  0  0  0  1  0  0  0  0  0  0
  184.7070  179.2340  141.8900 C   0  0  0  0  0  2  0  0  0  0  0  0
  182.5820  176.3880  139.8740 O   0  0  0  0  0  0  0  0  0  0  0  0
  189.0190  177.9740  139.8620 C   0  0  0  0  0  3  0  0  0  0  0  0
  186.8650  178.4510  140.8430 C   0  0  0  0  0  0  0  0  0  0  0  0
  186.5120  178.3520  137.0310 C   0  0  0  0  0  2  0  0  0  0  0  0
  181.8190  177.5710  139.9220 C   0  0  0  0  0  2  0  0  0  0  0  0
  188.4580  177.9670  138.5890 C   0  0  0  0  0  0  0  0  0  0  0  0
  189.3590  177.6420  137.4300 C   0  0  0  0  0  2  0  0  0  0  0  0
  186.0910  178.7990  142.0010 N   0  0  0  0  0  2  0  0  0  0  0  0
  184.0290  178.3850  140.8380 C   0  0  1  0  0  3  0  0  0  0  0  0
  182.5180  178.6170  140.8010 C   0  0  0  0  0  2  0  0  0  0  0  0
  188.3110  176.1200  143.0540 O   0  0  0  0  0  0  0  0  0  0  0  0
  188.8520  177.2360  143.2790 C   0  0  0  0  0  0  0  0  0  0  0  0
  188.8260  178.2840  142.3020 N   0  0  0  0  0  2  0  0  0  0  0  0
  191.1790  176.5130  147.3520 C   0  0  0  0  0  2  0  0  0  0  0  0
  188.4720  177.4680  145.6930 C   0  0  0  0  0  2  0  0  0  0  0  0
  191.5780  176.3340  143.6250 C   0  0  0  0  0  1  0  0  0  0  0  0
  189.6860  176.6090  147.6770 C   0  0  0  0  0  2  0  0  0  0  0  0
  189.0180  177.8320  147.0670 C   0  0  0  0  0  2  0  0  0  0  0  0
  190.6940  176.4990  144.8520 C   0  0  2  0  0  3  0  0  0  0  0  0
  189.5350  177.4870  144.5910 C   0  0  1  0  0  3  0  0  0  0  0  0
  191.5770  177.0370  145.9710 C   0  0  0  0  0  2  0  0  0  0  0  0
  1  9  1  6  0  0  0
  1  6  1  0  0  0  0
  1 14  1  0  0  0  0
  2 13  1  0  0  0  0
  3  7  1  6  0  0  0
  3  2  1  0  0  0  0
  3 19  1  0  0  0  0
  4 11  1  0  0  0  0
  5 16  1  0  0  0  0
  5  2  2  0  0  0  0
  6 17  1  0  0  0  0
  7  4  1  0  0  0  0
  8 23  1  0  0  0  0
 10 18  1  0  0  0  0
 11 15  1  0  0  0  0
 12  8  1  0  0  0  0
 13  8  2  0  0  0  0
 13 18  1  0  0  0  0
 14  5  1  0  0  0  0
 15 20  1  0  0  0  0
 16 12  2  0  0  0  0
 17 16  1  0  0  0  0
 19 20  1  6  0  0  0
 19 10  1  0  0  0  0
 21 22  2  0  0  0  0
 23 22  1  0  0  0  0
 24 27  1  0  0  0  0
 25 28  1  0  0  0  0
 28 27  1  0  0  0  0
 29 26  1  6  0  0  0
 29 31  1  0  0  0  0
 30 22  1  6  0  0  0
 30 29  1  0  0  0  0
 30 25  1  0  0  0  0
 31 24  1  0  0  0  0
M  END
>  <MODEL>
1

>  <REMARK>
 VINA RESULT:     -10.0      0.000      0.000
  Name = 
  2 active torsions:
  status: ('A' for Active; 'I' for Inactive)
    1  A    between atoms: C_9  and  C_22
    2  A    between atoms: C_15  and  N_23
                            x       y       z     vdW  Elec       q    Type
                         _______ _______ _______ _____ _____    ______ ____

>  <TORSDO>
F 2

$$$$
=
 OpenBabel10262419363D

 31 35  0  0  1  0  0  0  0  0999 V2000
  191.4430  175.8040  136.3180 C   0  0  2  0  0  3  0  0  0  0  0  0
  188.4620  177.2640  138.2360 C   0  0  0  0  0  0  0  0  0  0  0  0
  187.3340  177.3430  137.2000 C   0  0  1  0  0  3  0  0  0  0  0  0
  186.5390  174.9830  136.3560 C   0  0  0  0  0  2  0  0  0  0  0  0
  189.7860  176.8690  137.9010 C   0  0  0  0  0  0  0  0  0  0  0  0
  192.5500  176.3840  137.1800 C   0  0  0  0  0  2  0  0  0  0  0  0
  187.3810  176.2570  136.1040 C   0  0  0  0  0  2  0  0  0  0  0  0
  189.1870  177.6390  140.5500 C   0  0  0  0  0  0  0  0  0  0  0  0
  191.8810  175.7900  134.8690 C   0  0  0  0  0  1  0  0  0  0  0  0
  185.9330  178.5820  138.8680 C   0  0  0  0  0  2  0  0  0  0  0  0
  185.1840  175.1870  136.7250 O   0  0  0  0  0  0  0  0  0  0  0  0
  190.4580  177.1710  140.2180 C   0  0  0  0  0  3  0  0  0  0  0  0
  188.2020  177.7210  139.5550 C   0  0  0  0  0  0  0  0  0  0  0  0
  190.1970  176.6680  136.4610 C   0  0  0  0  0  2  0  0  0  0  0  0
  184.6600  176.2900  136.0220 C   0  0  0  0  0  2  0  0  0  0  0  0
  190.7740  176.8140  138.9110 C   0  0  0  0  0  0  0  0  0  0  0  0
  192.1550  176.2790  138.6470 C   0  0  0  0  0  2  0  0  0  0  0  0
  186.9260  178.2860  139.8900 N   0  0  0  0  0  2  0  0  0  0  0  0
  185.9440  177.4570  137.8590 C   0  0  1  0  0  3  0  0  0  0  0  0
  184.7870  177.5650  136.8650 C   0  0  0  0  0  2  0  0  0  0  0  0
  188.3100  175.9750  142.8230 O   0  0  0  0  0  0  0  0  0  0  0  0
  188.4570  177.2170  142.9750 C   0  0  0  0  0  0  0  0  0  0  0  0
  188.8710  178.0540  141.8880 N   0  0  0  0  0  2  0  0  0  0  0  0
  187.8950  177.7700  147.6560 C   0  0  0  0  0  2  0  0  0  0  0  0
  186.6840  177.8020  144.5700 C   0  0  0  0  0  2  0  0  0  0  0  0
  190.4710  176.9990  145.0390 C   0  0  0  0  0  1  0  0  0  0  0  0
  186.5050  177.6020  147.0340 C   0  0  0  0  0  2  0  0  0  0  0  0
  186.2670  178.5200  145.8450 C   0  0  0  0  0  2  0  0  0  0  0  0
  189.0180  177.1940  145.4440 C   0  0  2  0  0  3  0  0  0  0  0  0
  188.1930  177.8450  144.3120 C   0  0  1  0  0  3  0  0  0  0  0  0
  189.0110  178.1040  146.6660 C   0  0  0  0  0  2  0  0  0  0  0  0
  1  9  1  6  0  0  0
  1 14  1  0  0  0  0
  1  6  1  0  0  0  0
  2 13  1  0  0  0  0
  3  7  1  1  0  0  0
  3 19  1  0  0  0  0
  3  2  1  0  0  0  0
  4 11  1  0  0  0  0
  5  2  2  0  0  0  0
  5 16  1  0  0  0  0
  6 17  1  0  0  0  0
  7  4  1  0  0  0  0
  8 23  1  0  0  0  0
 10 18  1  0  0  0  0
 12  8  1  0  0  0  0
 13 18  1  0  0  0  0
 13  8  2  0  0  0  0
 14  5  1  0  0  0  0
 15 11  1  0  0  0  0
 15 20  1  0  0  0  0
 16 12  2  0  0  0  0
 17 16  1  0  0  0  0
 19 20  1  6  0  0  0
 19 10  1  0  0  0  0
 21 22  2  0  0  0  0
 23 22  1  0  0  0  0
 25 28  1  0  0  0  0
 27 24  1  0  0  0  0
 28 27  1  0  0  0  0
 29 26  1  6  0  0  0
 29 31  1  0  0  0  0
 30 22  1  6  0  0  0
 30 25  1  0  0  0  0
 30 29  1  0  0  0  0
 31 24  1  0  0  0  0
M  END
>  <MODEL>
2

>  <REMARK>
 VINA RESULT:      -9.4      2.059      3.261
  Name = 
  2 active torsions:
  status: ('A' for Active; 'I' for Inactive)
    1  A    between atoms: C_9  and  C_22
    2  A    between atoms: C_15  and  N_23
                            x       y       z     vdW  Elec       q    Type
                         _______ _______ _______ _____ _____    ______ ____

>  <TORSDO>
F 2

$$$$
=
 OpenBabel10262419363D

 31 35  0  0  1  0  0  0  0  0999 V2000
  188.7640  177.5540  147.3650 C   0  0  2  0  0  3  0  0  0  0  0  0
  187.7010  178.0150  143.7100 C   0  0  0  0  0  0  0  0  0  0  0  0
  189.0180  178.0660  142.9260 C   0  0  1  0  0  3  0  0  0  0  0  0
  190.3470  175.7980  142.9910 C   0  0  0  0  0  2  0  0  0  0  0  0
  187.6550  177.9570  145.1300 C   0  0  0  0  0  0  0  0  0  0  0  0
  187.5370  178.1660  148.0170 C   0  0  0  0  0  2  0  0  0  0  0  0
  190.1690  177.2370  143.5340 C   0  0  0  0  0  2  0  0  0  0  0  0
  185.2490  178.0800  143.6590 C   0  0  0  0  0  0  0  0  0  0  0  0
  189.9960  177.9010  148.1740 C   0  0  0  0  0  1  0  0  0  0  0  0
  187.7280  178.6690  140.8630 C   0  0  0  0  0  2  0  0  0  0  0  0
  190.3950  175.6610  141.5800 O   0  0  0  0  0  0  0  0  0  0  0  0
  185.2250  177.9410  145.0460 C   0  0  0  0  0  3  0  0  0  0  0  0
  186.4820  178.1540  142.9950 C   0  0  0  0  0  0  0  0  0  0  0  0
  188.9100  178.1160  145.9560 C   0  0  0  0  0  2  0  0  0  0  0  0
  191.0850  176.7520  141.0170 C   0  0  0  0  0  2  0  0  0  0  0  0
  186.4020  177.9060  145.7860 C   0  0  0  0  0  0  0  0  0  0  0  0
  186.2890  177.7110  147.2730 C   0  0  0  0  0  2  0  0  0  0  0  0
  186.4930  178.3850  141.5790 N   0  0  0  0  0  2  0  0  0  0  0  0
  188.8130  177.7790  141.4240 C   0  0  1  0  0  3  0  0  0  0  0  0
  190.0950  177.8450  140.5940 C   0  0  0  0  0  2  0  0  0  0  0  0
  182.9770  179.9240  144.0390 O   0  0  0  0  0  0  0  0  0  0  0  0
  182.9510  179.0820  143.1010 C   0  0  0  0  0  0  0  0  0  0  0  0
  184.0340  178.1660  142.8970 N   0  0  0  0  0  2  0  0  0  0  0  0
  179.0980  177.5150  140.8160 C   0  0  0  0  0  2  0  0  0  0  0  0
  182.2550  178.5280  140.8140 C   0  0  0  0  0  2  0  0  0  0  0  0
  180.3430  178.5120  144.2120 C   0  0  0  0  0  1  0  0  0  0  0  0
  180.3060  177.2980  139.9000 C   0  0  0  0  0  2  0  0  0  0  0  0
  181.1700  178.5400  139.7450 C   0  0  0  0  0  2  0  0  0  0  0  0
  180.6120  178.1780  142.7530 C   0  0  2  0  0  3  0  0  0  0  0  0
  181.7700  179.0240  142.1790 C   0  0  1  0  0  3  0  0  0  0  0  0
  179.3340  178.4770  141.9810 C   0  0  0  0  0  2  0  0  0  0  0  0
  1  6  1  0  0  0  0
  1  9  1  1  0  0  0
  2  5  1  0  0  0  0
  3  7  1  1  0  0  0
  3  2  1  0  0  0  0
  4  7  1  0  0  0  0
  5 16  2  0  0  0  0
  5 14  1  0  0  0  0
  8 12  2  0  0  0  0
 10 19  1  0  0  0  0
 10 18  1  0  0  0  0
 11  4  1  0  0  0  0
 12 16  1  0  0  0  0
 13  8  1  0  0  0  0
 13  2  2  0  0  0  0
 14  1  1  0  0  0  0
 15 11  1  0  0  0  0
 16 17  1  0  0  0  0
 17  6  1  0  0  0  0
 18 13  1  0  0  0  0
 19 20  1  6  0  0  0
 19  3  1  0  0  0  0
 20 15  1  0  0  0  0
 22 21  2  0  0  0  0
 23 22  1  0  0  0  0
 23  8  1  0  0  0  0
 24 31  1  0  0  0  0
 25 30  1  0  0  0  0
 27 24  1  0  0  0  0
 28 27  1  0  0  0  0
 28 25  1  0  0  0  0
 29 26  1  1  0  0  0
 30 29  1  0  0  0  0
 30 22  1  1  0  0  0
 31 29  1  0  0  0  0
M  END
>  <MODEL>
3

>  <REMARK>
 VINA RESULT:      -9.1      2.762      8.709
  Name = 
  2 active torsions:
  status: ('A' for Active; 'I' for Inactive)
    1  A    between atoms: C_9  and  C_22
    2  A    between atoms: C_15  and  N_23
                            x       y       z     vdW  Elec       q    Type
                         _______ _______ _______ _____ _____    ______ ____

>  <TORSDO>
F 2

$$$$
=
 OpenBabel10262419363D

 31 35  0  0  1  0  0  0  0  0999 V2000
  185.2010  178.2740  145.8140 C   0  0  2  0  0  3  0  0  0  0  0  0
  186.6470  178.3820  142.2650 C   0  0  0  0  0  0  0  0  0  0  0  0
  188.1620  178.2540  142.4580 C   0  0  1  0  0  3  0  0  0  0  0  0
  188.8860  175.9250  143.4410 C   0  0  0  0  0  2  0  0  0  0  0  0
  185.7400  178.4900  143.3540 C   0  0  0  0  0  0  0  0  0  0  0  0
  183.9180  179.0380  145.5390 C   0  0  0  0  0  2  0  0  0  0  0  0
  188.5930  177.4250  143.6870 C   0  0  0  0  0  2  0  0  0  0  0  0
  184.7630  178.6050  140.7080 C   0  0  0  0  0  0  0  0  0  0  0  0
  185.7190  178.6270  147.1920 C   0  0  0  0  0  1  0  0  0  0  0  0
  188.4800  178.7020  140.0130 C   0  0  0  0  0  2  0  0  0  0  0  0
  189.7640  175.6230  142.3690 O   0  0  0  0  0  0  0  0  0  0  0  0
  183.8830  178.6280  141.7910 C   0  0  0  0  0  3  0  0  0  0  0  0
  186.1420  178.5200  140.9440 C   0  0  0  0  0  0  0  0  0  0  0  0
  186.2410  178.6590  144.7700 C   0  0  0  0  0  2  0  0  0  0  0  0
  190.7830  176.5940  142.2980 C   0  0  0  0  0  2  0  0  0  0  0  0
  184.3530  178.5990  143.1000 C   0  0  0  0  0  0  0  0  0  0  0  0
  183.3350  178.5850  144.2070 C   0  0  0  0  0  2  0  0  0  0  0  0
  187.0410  178.5850  139.8270 N   0  0  0  0  0  2  0  0  0  0  0  0
  188.8790  177.8110  141.1660 C   0  0  1  0  0  3  0  0  0  0  0  0
  190.3980  177.6950  141.3010 C   0  0  0  0  0  2  0  0  0  0  0  0
  183.0660  176.6780  139.2540 O   0  0  0  0  0  0  0  0  0  0  0  0
  183.4500  177.7340  138.6810 C   0  0  0  0  0  0  0  0  0  0  0  0
  184.2830  178.6840  139.3560 N   0  0  0  0  0  2  0  0  0  0  0  0
  180.8750  177.9260  134.6990 C   0  0  0  0  0  2  0  0  0  0  0  0
  183.5080  176.8400  136.3950 C   0  0  0  0  0  2  0  0  0  0  0  0
  181.0390  179.2570  138.2030 C   0  0  0  0  0  1  0  0  0  0  0  0
  181.8090  176.7180  134.5940 C   0  0  0  0  0  2  0  0  0  0  0  0
  183.2590  177.0540  134.9080 C   0  0  0  0  0  2  0  0  0  0  0  0
  181.5250  178.2910  137.1340 C   0  0  2  0  0  3  0  0  0  0  0  0
  183.0380  178.0100  137.2650 C   0  0  1  0  0  3  0  0  0  0  0  0
  181.2440  178.9380  135.7840 C   0  0  0  0  0  2  0  0  0  0  0  0
  1  9  1  1  0  0  0
  2  3  1  0  0  0  0
  2  5  1  0  0  0  0
  3  7  1  1  0  0  0
  4  7  1  0  0  0  0
  5 14  1  0  0  0  0
  6  1  1  0  0  0  0
  8 13  1  0  0  0  0
  8 12  2  0  0  0  0
 11  4  1  0  0  0  0
 12 16  1  0  0  0  0
 13  2  2  0  0  0  0
 14  1  1  0  0  0  0
 15 11  1  0  0  0  0
 16  5  2  0  0  0  0
 16 17  1  0  0  0  0
 17  6  1  0  0  0  0
 18 10  1  0  0  0  0
 18 13  1  0  0  0  0
 19 10  1  6  0  0  0
 19 20  1  0  0  0  0
 19  3  1  0  0  0  0
 20 15  1  0  0  0  0
 22 21  2  0  0  0  0
 22 23  1  0  0  0  0
 23  8  1  0  0  0  0
 24 31  1  0  0  0  0
 25 30  1  0  0  0  0
 27 24  1  0  0  0  0
 27 28  1  0  0  0  0
 28 25  1  0  0  0  0
 29 30  1  0  0  0  0
 29 26  1  1  0  0  0
 30 22  1  1  0  0  0
 31 29  1  0  0  0  0
M  END
>  <MODEL>
4

>  <REMARK>
 VINA RESULT:      -8.9      2.455      9.044
  Name = 
  2 active torsions:
  status: ('A' for Active; 'I' for Inactive)
    1  A    between atoms: C_9  and  C_22
    2  A    between atoms: C_15  and  N_23
                            x       y       z     vdW  Elec       q    Type
                         _______ _______ _______ _____ _____    ______ ____

>  <TORSDO>
F 2

$$$$
=
 OpenBabel10262419363D

 31 35  0  0  1  0  0  0  0  0999 V2000
  190.6040  177.2970  138.8160 C   0  0  2  0  0  3  0  0  0  0  0  0
  188.3130  177.6050  141.8750 C   0  0  0  0  0  0  0  0  0  0  0  0
  189.1450  177.0560  143.0400 C   0  0  1  0  0  3  0  0  0  0  0  0
  191.2520  178.5300  143.5900 C   0  0  0  0  0  2  0  0  0  0  0  0
  188.7650  177.5720  140.5270 C   0  0  0  0  0  0  0  0  0  0  0  0
  189.5230  177.2190  137.7530 C   0  0  0  0  0  2  0  0  0  0  0  0
  190.6680  177.2680  142.9080 C   0  0  0  0  0  2  0  0  0  0  0  0
  186.2000  178.5950  141.1150 C   0  0  0  0  0  0  0  0  0  0  0  0
  191.7610  176.3990  138.4310 C   0  0  0  0  0  1  0  0  0  0  0  0
  187.1230  177.2150  144.5140 C   0  0  0  0  0  2  0  0  0  0  0  0
  190.8880  178.7380  144.9450 O   0  0  0  0  0  0  0  0  0  0  0  0
  186.6940  178.6280  139.8110 C   0  0  0  0  0  3  0  0  0  0  0  0
  186.9910  178.0520  142.1380 C   0  0  0  0  0  0  0  0  0  0  0  0
  190.0260  176.8330  140.1470 C   0  0  0  0  0  2  0  0  0  0  0  0
  190.8210  177.5020  145.6170 C   0  0  0  0  0  2  0  0  0  0  0  0
  187.9450  178.1030  139.5030 C   0  0  0  0  0  0  0  0  0  0  0  0
  188.4200  178.2160  138.0810 C   0  0  0  0  0  2  0  0  0  0  0  0
  186.4370  177.9440  143.4580 N   0  0  0  0  0  2  0  0  0  0  0  0
  188.6010  177.5130  144.4090 C   0  0  1  0  0  3  0  0  0  0  0  0
  189.3820  176.9690  145.6060 C   0  0  0  0  0  2  0  0  0  0  0  0
  183.6040  177.2250  140.8140 O   0  0  0  0  0  0  0  0  0  0  0  0
  183.6450  178.3950  141.2790 C   0  0  0  0  0  0  0  0  0  0  0  0
  184.8890  179.0920  141.4280 N   0  0  0  0  0  2  0  0  0  0  0  0
  179.4170  179.2390  143.2620 C   0  0  0  0  0  2  0  0  0  0  0  0
  181.3350  178.8520  140.5870 C   0  0  0  0  0  2  0  0  0  0  0  0
  183.0240  178.6280  144.0940 C   0  0  0  0  0  1  0  0  0  0  0  0
  179.1770  178.8280  141.8070 C   0  0  0  0  0  2  0  0  0  0  0  0
  180.0320  179.6050  140.8180 C   0  0  0  0  0  2  0  0  0  0  0  0
  181.8870  178.6490  143.0830 C   0  0  2  0  0  3  0  0  0  0  0  0
  182.3770  179.0850  141.6850 C   0  0  1  0  0  3  0  0  0  0  0  0
  180.8530  179.6450  143.5930 C   0  0  0  0  0  2  0  0  0  0  0  0
  1  9  1  6  0  0  0
  1 14  1  0  0  0  0
  2 13  1  0  0  0  0
  2  3  1  0  0  0  0
  3  7  1  6  0  0  0
  3 19  1  0  0  0  0
  4 11  1  0  0  0  0
  5  2  2  0  0  0  0
  6 17  1  0  0  0  0
  6  1  1  0  0  0  0
  7  4  1  0  0  0  0
  8 23  1  0  0  0  0
  8 13  2  0  0  0  0
 11 15  1  0  0  0  0
 12  8  1  0  0  0  0
 13 18  1  0  0  0  0
 14  5  1  0  0  0  0
 16 12  2  0  0  0  0
 16  5  1  0  0  0  0
 17 16  1  0  0  0  0
 18 10  1  0  0  0  0
 19 10  1  1  0  0  0
 19 20  1  0  0  0  0
 20 15  1  0  0  0  0
 21 22  2  0  0  0  0
 22 23  1  0  0  0  0
 24 31  1  0  0  0  0
 25 28  1  0  0  0  0
 25 30  1  0  0  0  0
 27 24  1  0  0  0  0
 28 27  1  0  0  0  0
 29 31  1  0  0  0  0
 29 26  1  1  0  0  0
 30 22  1  6  0  0  0
 30 29  1  0  0  0  0
M  END
>  <MODEL>
5

>  <REMARK>
 VINA RESULT:      -8.8      1.985      7.177
  Name = 
  2 active torsions:
  status: ('A' for Active; 'I' for Inactive)
    1  A    between atoms: C_9  and  C_22
    2  A    between atoms: C_15  and  N_23
                            x       y       z     vdW  Elec       q    Type
                         _______ _______ _______ _____ _____    ______ ____

>  <TORSDO>
F 2

$$$$
=
 OpenBabel10262419363D

 31 35  0  0  1  0  0  0  0  0999 V2000
  189.6040  177.4390  147.5660 C   0  0  2  0  0  3  0  0  0  0  0  0
  188.0130  177.9090  144.1100 C   0  0  0  0  0  0  0  0  0  0  0  0
  189.2010  178.0310  143.1490 C   0  0  1  0  0  3  0  0  0  0  0  0
  190.6180  175.8230  142.9750 C   0  0  0  0  0  2  0  0  0  0  0  0
  188.1720  177.8270  145.5210 C   0  0  0  0  0  0  0  0  0  0  0  0
  188.4580  177.9860  148.3990 C   0  0  0  0  0  2  0  0  0  0  0  0
  190.4600  177.2430  143.5690 C   0  0  0  0  0  2  0  0  0  0  0  0
  185.5770  177.8680  144.4080 C   0  0  0  0  0  0  0  0  0  0  0  0
  190.9230  177.8260  148.2000 C   0  0  0  0  0  1  0  0  0  0  0  0
  187.6060  178.6100  141.3030 C   0  0  0  0  0  2  0  0  0  0  0  0
  190.4700  175.7100  141.5680 O   0  0  0  0  0  0  0  0  0  0  0  0
  185.7570  177.7060  145.7820 C   0  0  0  0  0  3  0  0  0  0  0  0
  186.6990  178.0070  143.5790 C   0  0  0  0  0  0  0  0  0  0  0  0
  189.5240  178.0280  146.1640 C   0  0  0  0  0  2  0  0  0  0  0  0
  191.0270  176.8390  140.9370 C   0  0  0  0  0  2  0  0  0  0  0  0
  187.0290  177.7110  146.3460 C   0  0  0  0  0  0  0  0  0  0  0  0
  187.1360  177.4880  147.8300 C   0  0  0  0  0  2  0  0  0  0  0  0
  186.4990  178.2600  142.1800 N   0  0  0  0  0  2  0  0  0  0  0  0
  188.7960  177.7590  141.6850 C   0  0  1  0  0  3  0  0  0  0  0  0
  189.9430  177.8940  140.6830 C   0  0  0  0  0  2  0  0  0  0  0  0
  183.8030  180.2020  144.0750 O   0  0  0  0  0  0  0  0  0  0  0  0
  183.4300  179.0670  143.6720 C   0  0  0  0  0  0  0  0  0  0  0  0
  184.2640  177.9120  143.8290 N   0  0  0  0  0  2  0  0  0  0  0  0
  179.7370  179.7100  140.7610 C   0  0  0  0  0  2  0  0  0  0  0  0
  181.0770  179.7580  143.7920 C   0  0  0  0  0  2  0  0  0  0  0  0
  183.3160  178.5880  140.8220 C   0  0  0  0  0  1  0  0  0  0  0  0
  179.4370  180.4500  142.0670 C   0  0  0  0  0  2  0  0  0  0  0  0
  179.6450  179.5890  143.3040 C   0  0  0  0  0  2  0  0  0  0  0  0
  182.1240  179.2350  141.5090 C   0  0  2  0  0  3  0  0  0  0  0  0
  182.0890  178.9080  143.0190 C   0  0  1  0  0  3  0  0  0  0  0  0
  180.8700  178.6860  140.8410 C   0  0  0  0  0  2  0  0  0  0  0  0
  1  9  1  1  0  0  0
  1  6  1  0  0  0  0
  2  5  1  0  0  0  0
  3  7  1  1  0  0  0
  3  2  1  0  0  0  0
  4  7  1  0  0  0  0
  5 14  1  0  0  0  0
  5 16  2  0  0  0  0
  8 12  2  0  0  0  0
 10 19  1  0  0  0  0
 10 18  1  0  0  0  0
 11  4  1  0  0  0  0
 12 16  1  0  0  0  0
 13  2  2  0  0  0  0
 13  8  1  0  0  0  0
 14  1  1  0  0  0  0
 15 11  1  0  0  0  0
 16 17  1  0  0  0  0
 17  6  1  0  0  0  0
 18 13  1  0  0  0  0
 19 20  1  6  0  0  0
 19  3  1  0  0  0  0
 20 15  1  0  0  0  0
 22 23  1  0  0  0  0
 22 21  2  0  0  0  0
 23  8  1  0  0  0  0
 24 31  1  0  0  0  0
 24 27  1  0  0  0  0
 27 28  1  0  0  0  0
 28 25  1  0  0  0  0
 29 26  1  6  0  0  0
 29 30  1  0  0  0  0
 30 22  1  1  0  0  0
 30 25  1  0  0  0  0
 31 29  1  0  0  0  0
M  END
>  <MODEL>
6

>  <REMARK>
 VINA RESULT:      -8.7      2.792      8.611
  Name = 
  2 active torsions:
  status: ('A' for Active; 'I' for Inactive)
    1  A    between atoms: C_9  and  C_22
    2  A    between atoms: C_15  and  N_23
                            x       y       z     vdW  Elec       q    Type
                         _______ _______ _______ _____ _____    ______ ____

>  <TORSDO>
F 2

$$$$
=
 OpenBabel10262419363D

 31 35  0  0  1  0  0  0  0  0999 V2000
  186.9240  177.7870  146.9260 C   0  0  2  0  0  3  0  0  0  0  0  0
  186.9550  178.2910  143.1260 C   0  0  0  0  0  0  0  0  0  0  0  0
  188.4280  178.1480  142.7270 C   0  0  1  0  0  3  0  0  0  0  0  0
  189.3750  175.7270  143.1220 C   0  0  0  0  0  2  0  0  0  0  0  0
  186.5210  178.2750  144.4790 C   0  0  0  0  0  0  0  0  0  0  0  0
  185.6600  178.5720  147.2300 C   0  0  0  0  0  2  0  0  0  0  0  0
  189.2510  177.1900  143.6130 C   0  0  0  0  0  2  0  0  0  0  0  0
  184.6380  178.6780  142.4150 C   0  0  0  0  0  0  0  0  0  0  0  0
  187.9280  177.9880  148.0410 C   0  0  0  0  0  1  0  0  0  0  0  0
  187.8330  178.8640  140.3990 C   0  0  0  0  0  2  0  0  0  0  0  0
  189.7810  175.5480  141.7740 O   0  0  0  0  0  0  0  0  0  0  0  0
  184.2230  178.5780  143.7430 C   0  0  0  0  0  3  0  0  0  0  0  0
  186.0020  178.5720  142.1100 C   0  0  0  0  0  0  0  0  0  0  0  0
  187.5170  178.2880  145.6150 C   0  0  0  0  0  2  0  0  0  0  0  0
  190.7370  176.5240  141.4310 C   0  0  0  0  0  2  0  0  0  0  0  0
  185.1430  178.4070  144.7720 C   0  0  0  0  0  0  0  0  0  0  0  0
  184.6090  178.2670  146.1710 C   0  0  0  0  0  2  0  0  0  0  0  0
  186.4250  178.7630  140.7520 N   0  0  0  0  0  2  0  0  0  0  0  0
  188.5980  177.8530  141.2220 C   0  0  1  0  0  3  0  0  0  0  0  0
  190.0530  177.7280  140.7690 C   0  0  0  0  0  2  0  0  0  0  0  0
  183.1410  176.6800  140.8420 O   0  0  0  0  0  0  0  0  0  0  0  0
  182.9750  177.9100  140.6160 C   0  0  0  0  0  0  0  0  0  0  0  0
  183.6950  178.9040  141.3550 N   0  0  0  0  0  2  0  0  0  0  0  0
  181.0510  180.3210  137.0090 C   0  0  0  0  0  2  0  0  0  0  0  0
  181.0390  179.3540  140.1790 C   0  0  0  0  0  2  0  0  0  0  0  0
  183.8820  178.0150  137.8720 C   0  0  0  0  0  1  0  0  0  0  0  0
  180.4630  180.8750  138.3090 C   0  0  0  0  0  2  0  0  0  0  0  0
  179.9290  179.7920  139.2330 C   0  0  0  0  0  2  0  0  0  0  0  0
  182.7290  178.9090  138.3030 C   0  0  2  0  0  3  0  0  0  0  0  0
  182.0140  178.3530  139.5530 C   0  0  1  0  0  3  0  0  0  0  0  0
  181.7480  178.9660  137.1390 C   0  0  0  0  0  2  0  0  0  0  0  0
  1  6  1  0  0  0  0
  1  9  1  1  0  0  0
  2  5  1  0  0  0  0
  3  2  1  0  0  0  0
  3  7  1  1  0  0  0
  4  7  1  0  0  0  0
  5 16  2  0  0  0  0
  5 14  1  0  0  0  0
  8 12  2  0  0  0  0
 10 18  1  0  0  0  0
 11  4  1  0  0  0  0
 12 16  1  0  0  0  0
 13  8  1  0  0  0  0
 13  2  2  0  0  0  0
 14  1  1  0  0  0  0
 15 11  1  0  0  0  0
 16 17  1  0  0  0  0
 17  6  1  0  0  0  0
 18 13  1  0  0  0  0
 19 10  1  6  0  0  0
 19  3  1  0  0  0  0
 20 19  1  0  0  0  0
 20 15  1  0  0  0  0
 22 21  2  0  0  0  0
 22 23  1  0  0  0  0
 23  8  1  0  0  0  0
 24 31  1  0  0  0  0
 24 27  1  0  0  0  0
 27 28  1  0  0  0  0
 28 25  1  0  0  0  0
 29 26  1  6  0  0  0
 29 30  1  0  0  0  0
 30 25  1  0  0  0  0
 30 22  1  1  0  0  0
 31 29  1  0  0  0  0
M  END
>  <MODEL>
7

>  <REMARK>
 VINA RESULT:      -8.6      2.283      8.715
  Name = 
  2 active torsions:
  status: ('A' for Active; 'I' for Inactive)
    1  A    between atoms: C_9  and  C_22
    2  A    between atoms: C_15  and  N_23
                            x       y       z     vdW  Elec       q    Type
                         _______ _______ _______ _____ _____    ______ ____

>  <TORSDO>
F 2

$$$$
=
 OpenBabel10262419363D

 31 35  0  0  1  0  0  0  0  0999 V2000
  190.6820  176.9340  146.3010 C   0  0  2  0  0  3  0  0  0  0  0  0
  187.8190  177.6640  143.8580 C   0  0  0  0  0  0  0  0  0  0  0  0
  186.5500  177.6000  144.7170 C   0  0  1  0  0  3  0  0  0  0  0  0
  186.4300  179.5020  146.5270 C   0  0  0  0  0  2  0  0  0  0  0  0
  189.1070  177.3450  144.3680 C   0  0  0  0  0  0  0  0  0  0  0  0
  191.6810  176.3900  145.2950 C   0  0  0  0  0  2  0  0  0  0  0  0
  186.7390  178.0240  146.1880 C   0  0  0  0  0  2  0  0  0  0  0  0
  188.8150  178.0380  141.6470 C   0  0  0  0  0  0  0  0  0  0  0  0
  190.8100  176.1760  147.6060 C   0  0  0  0  0  1  0  0  0  0  0  0
  185.1710  177.8050  142.6340 C   0  0  0  0  0  2  0  0  0  0  0  0
  185.1830  180.0040  146.0750 O   0  0  0  0  0  0  0  0  0  0  0  0
  190.0790  177.8010  142.1860 C   0  0  0  0  0  3  0  0  0  0  0  0
  187.6850  177.9340  142.4700 C   0  0  0  0  0  0  0  0  0  0  0  0
  189.2730  176.7560  145.7490 C   0  0  0  0  0  2  0  0  0  0  0  0
  184.1980  179.0030  146.1820 C   0  0  0  0  0  2  0  0  0  0  0  0
  190.2350  177.4320  143.5180 C   0  0  0  0  0  0  0  0  0  0  0  0
  191.6360  177.2360  144.0300 C   0  0  0  0  0  2  0  0  0  0  0  0
  186.3840  178.0940  141.8840 N   0  0  0  0  0  2  0  0  0  0  0  0
  185.3570  178.3110  144.0450 C   0  0  1  0  0  3  0  0  0  0  0  0
  184.0590  178.2510  144.8520 C   0  0  0  0  0  2  0  0  0  0  0  0
  189.0740  176.2720  139.2970 O   0  0  0  0  0  0  0  0  0  0  0  0
  188.7700  177.4850  139.1400 C   0  0  0  0  0  0  0  0  0  0  0  0
  188.6470  178.3710  140.2600 N   0  0  0  0  0  2  0  0  0  0  0  0
  187.0280  178.0360  134.7590 C   0  0  0  0  0  2  0  0  0  0  0  0
  189.5440  177.3720  136.8130 C   0  0  0  0  0  2  0  0  0  0  0  0
  186.0860  178.2530  138.3840 C   0  0  0  0  0  1  0  0  0  0  0  0
  188.3470  177.2660  134.6450 C   0  0  0  0  0  2  0  0  0  0  0  0
  189.4920  177.9270  135.3970 C   0  0  0  0  0  2  0  0  0  0  0  0
  187.0710  177.8480  137.2980 C   0  0  2  0  0  3  0  0  0  0  0  0
  188.5340  178.0250  137.7610 C   0  0  1  0  0  3  0  0  0  0  0  0
  186.8050  178.7440  136.0960 C   0  0  0  0  0  2  0  0  0  0  0  0
  1  9  1  1  0  0  0
  2  5  1  0  0  0  0
  2  3  1  0  0  0  0
  3  7  1  1  0  0  0
  5 14  1  0  0  0  0
  6  1  1  0  0  0  0
  7  4  1  0  0  0  0
  8 12  2  0  0  0  0
  8 13  1  0  0  0  0
 11 15  1  0  0  0  0
 11  4  1  0  0  0  0
 12 16  1  0  0  0  0
 13  2  2  0  0  0  0
 14  1  1  0  0  0  0
 16 17  1  0  0  0  0
 16  5  2  0  0  0  0
 17  6  1  0  0  0  0
 18 13  1  0  0  0  0
 18 10  1  0  0  0  0
 19 10  1  6  0  0  0
 19  3  1  0  0  0  0
 19 20  1  0  0  0  0
 20 15  1  0  0  0  0
 22 21  2  0  0  0  0
 22 23  1  0  0  0  0
 23  8  1  0  0  0  0
 24 31  1  0  0  0  0
 25 30  1  0  0  0  0
 27 24  1  0  0  0  0
 27 28  1  0  0  0  0
 28 25  1  0  0  0  0
 29 30  1  0  0  0  0
 29 26  1  1  0  0  0
 30 22  1  1  0  0  0
 31 29  1  0  0  0  0
M  END
>  <MODEL>
8

>  <REMARK>
 VINA RESULT:      -8.3      2.125      7.756
  Name = 
  2 active torsions:
  status: ('A' for Active; 'I' for Inactive)
    1  A    between atoms: C_9  and  C_22
    2  A    between atoms: C_15  and  N_23
                            x       y       z     vdW  Elec       q    Type
                         _______ _______ _______ _____ _____    ______ ____

>  <TORSDO>
F 2

$$$$
=
 OpenBabel10262419363D

 31 35  0  0  1  0  0  0  0  0999 V2000
  191.3420  177.0750  138.7400 C   0  0  2  0  0  3  0  0  0  0  0  0
  188.5450  177.6400  141.3010 C   0  0  0  0  0  0  0  0  0  0  0  0
  189.1300  177.1480  142.6300 C   0  0  1  0  0  3  0  0  0  0  0  0
  191.1530  178.6030  143.4690 C   0  0  0  0  0  2  0  0  0  0  0  0
  189.2330  177.5070  140.0640 C   0  0  0  0  0  0  0  0  0  0  0  0
  190.4700  176.9540  137.5030 C   0  0  0  0  0  2  0  0  0  0  0  0
  190.6580  177.3140  142.7680 C   0  0  0  0  0  2  0  0  0  0  0  0
  186.6420  178.6280  140.1070 C   0  0  0  0  0  0  0  0  0  0  0  0
  192.5170  176.1270  138.6300 C   0  0  0  0  0  1  0  0  0  0  0  0
  186.8810  177.4520  143.6950 C   0  0  0  0  0  2  0  0  0  0  0  0
  190.5560  178.9090  144.7180 O   0  0  0  0  0  0  0  0  0  0  0  0
  187.3670  178.5640  138.9170 C   0  0  0  0  0  3  0  0  0  0  0  0
  187.2130  178.1350  141.2890 C   0  0  0  0  0  0  0  0  0  0  0  0
  190.5150  176.7140  139.9680 C   0  0  0  0  0  2  0  0  0  0  0  0
  190.3240  177.7220  145.4400 C   0  0  0  0  0  2  0  0  0  0  0  0
  188.6330  177.9890  138.8770 C   0  0  0  0  0  0  0  0  0  0  0  0
  189.3620  177.9980  137.5610 C   0  0  0  0  0  2  0  0  0  0  0  0
  186.4250  178.1270  142.4880 N   0  0  0  0  0  2  0  0  0  0  0  0
  188.3630  177.7080  143.8460 C   0  0  1  0  0  3  0  0  0  0  0  0
  188.8930  177.2240  145.1970 C   0  0  0  0  0  2  0  0  0  0  0  0
  184.1790  177.5370  138.9030 O   0  0  0  0  0  0  0  0  0  0  0  0
  184.1350  178.6150  139.5560 C   0  0  0  0  0  0  0  0  0  0  0  0
  185.3150  179.1760  140.1430 N   0  0  0  0  0  2  0  0  0  0  0  0
  179.5310  179.4660  140.3380 C   0  0  0  0  0  2  0  0  0  0  0  0
  182.1790  179.4710  138.3430 C   0  0  0  0  0  2  0  0  0  0  0  0
  182.6670  178.2840  142.0250 C   0  0  0  0  0  1  0  0  0  0  0  0
  179.7470  179.4190  138.8230 C   0  0  0  0  0  2  0  0  0  0  0  0
  180.8990  180.2960  138.3560 C   0  0  0  0  0  2  0  0  0  0  0  0
  181.9080  178.6570  140.7610 C   0  0  2  0  0  3  0  0  0  0  0  0
  182.8300  179.3350  139.7230 C   0  0  1  0  0  3  0  0  0  0  0  0
  180.8050  179.6240  141.1690 C   0  0  0  0  0  2  0  0  0  0  0  0
  1  9  1  6  0  0  0
  1 14  1  0  0  0  0
  2  3  1  0  0  0  0
  3  7  1  1  0  0  0
  3 19  1  0  0  0  0
  4 11  1  0  0  0  0
  5  2  2  0  0  0  0
  6 17  1  0  0  0  0
  6  1  1  0  0  0  0
  7  4  1  0  0  0  0
  8 23  1  0  0  0  0
  8 13  2  0  0  0  0
 11 15  1  0  0  0  0
 12  8  1  0  0  0  0
 13  2  1  0  0  0  0
 13 18  1  0  0  0  0
 14  5  1  0  0  0  0
 16 12  2  0  0  0  0
 16  5  1  0  0  0  0
 17 16  1  0  0  0  0
 18 10  1  0  0  0  0
 19 10  1  6  0  0  0
 19 20  1  0  0  0  0
 20 15  1  0  0  0  0
 21 22  2  0  0  0  0
 22 23  1  0  0  0  0
 24 31  1  0  0  0  0
 25 28  1  0  0  0  0
 25 30  1  0  0  0  0
 27 24  1  0  0  0  0
 28 27  1  0  0  0  0
 29 31  1  0  0  0  0
 29 26  1  1  0  0  0
 30 22  1  6  0  0  0
 30 29  1  0  0  0  0
M  END
>  <MODEL>
9

>  <REMARK>
 VINA RESULT:      -8.1      1.894      7.478
  Name = 
  2 active torsions:
  status: ('A' for Active; 'I' for Inactive)
    1  A    between atoms: C_9  and  C_22
    2  A    between atoms: C_15  and  N_23
                            x       y       z     vdW  Elec       q    Type
                         _______ _______ _______ _____ _____    ______ ____

>  <TORSDO>
F 2

$$$$
