=
 OpenBabel10262422173D

 43 49  0  0  1  0  0  0  0  0999 V2000
  187.2140  176.6900  137.1260 C   0  0  0  0  0  3  0  0  0  0  0  0
  186.6300  178.0500  137.3620 C   0  0  1  0  0  3  0  0  0  0  0  0
  186.4150  175.6180  137.0820 C   0  0  0  0  0  3  0  0  0  0  0  0
  185.3680  178.1810  136.5020 C   0  0  0  0  0  2  0  0  0  0  0  0
  184.3160  177.0740  136.7780 C   0  0  1  0  0  3  0  0  0  0  0  0
  184.9360  175.7600  137.3260 C   0  0  0  0  0  2  0  0  0  0  0  0
  186.3170  178.2240  138.7750 N   0  0  0  0  0  2  0  0  0  0  0  0
  188.3760  178.8160  139.7000 O   0  0  0  0  0  0  0  0  0  0  0  0
  187.5580  178.5180  140.8060 C   0  0  1  0  0  3  0  0  0  0  0  0
  187.4610  177.7600  139.5400 C   0  0  1  0  0  3  0  0  0  0  0  0
  188.3490  177.7090  141.8220 C   0  0  2  0  0  3  0  0  0  0  0  0
  187.6500  177.7150  143.1460 C   0  0  0  0  0  0  0  0  0  0  0  0
  187.6850  177.5060  145.5640 C   0  0  0  0  0  3  0  0  0  0  0  0
  185.6200  178.0620  144.4270 C   0  0  0  0  0  3  0  0  0  0  0  0
  186.3190  177.8030  145.6090 C   0  0  0  0  0  3  0  0  0  0  0  0
  186.2860  178.0210  143.1990 C   0  0  0  0  0  3  0  0  0  0  0  0
  188.3510  177.4650  144.3350 C   0  0  0  0  0  3  0  0  0  0  0  0
  189.6440  178.2340  141.9480 O   0  0  0  0  0  0  0  0  0  0  0  0
  190.5380  177.1990  141.6310 C   0  0  1  0  0  0  0  0  0  0  0  0
  191.9410  177.4800  141.9530 N   0  0  0  0  0  2  0  0  0  0  0  0
  190.1580  175.8720  141.8510 O   0  0  0  0  0  1  0  0  0  0  0  0
  191.4720  177.4440  140.5490 C   0  0  0  0  0  2  0  0  0  0  0  0
  183.2580  177.5640  137.6810 N   0  0  0  0  0  0  0  0  0  0  0  0
  179.8500  174.9520  139.0980 S   0  0  1  0  0  0  0  0  0  0  0  0
  181.8910  176.6550  139.4950 N   0  0  0  0  0  0  0  0  0  0  0  0
  180.5440  174.8540  137.4450 C   0  0  0  0  0  2  0  0  0  0  0  0
  179.6390  173.4930  139.4790 O   0  0  0  0  0  0  0  0  0  0  0  0
  182.3990  176.4410  138.1230 C   0  0  1  0  0  3  0  0  0  0  0  0
  181.3200  175.4160  140.0270 C   0  0  0  0  0  2  0  0  0  0  0  0
  181.2520  176.1580  137.1270 C   0  0  0  0  0  2  0  0  0  0  0  0
  182.6450  178.3680  141.1660 C   0  0  0  0  0  1  0  0  0  0  0  0
  182.9630  177.0760  140.4120 C   0  0  0  0  0  2  0  0  0  0  0  0
  182.4460  178.5810  137.0010 C   0  0  0  0  0  2  0  0  0  0  0  0
  180.5610  179.7300  138.1420 C   0  0  0  0  0  2  0  0  0  0  0  0
  182.0760  179.6870  137.9790 C   0  0  2  0  0  3  0  0  0  0  0  0
  180.1410  181.7820  135.3930 C   0  0  0  0  0  3  0  0  0  0  0  0
  179.6040  182.8660  136.3090 C   0  0  1  0  0  3  0  0  0  0  0  0
  181.2660  182.1380  138.0090 C   0  0  0  0  0  3  0  0  0  0  0  0
  180.8980  180.7860  135.8760 C   0  0  0  0  0  3  0  0  0  0  0  0
  181.2600  180.7980  137.3370 C   0  0  2  0  0  0  0  0  0  0  0  0
  180.5030  183.1170  137.5000 C   0  0  0  0  0  3  0  0  0  0  0  0
  180.6870  184.8340  135.2200 C   0  0  0  0  0  1  0  0  0  0  0  0
  179.3690  184.1610  135.5520 C   0  0  0  0  0  2  0  0  0  0  0  0
  1  2  1  0  0  0  0
  2  7  1  1  0  0  0
  3  1  2  0  0  0  0
  3  6  1  0  0  0  0
  4  5  1  0  0  0  0
  4  2  1  0  0  0  0
  5  6  1  0  0  0  0
  5 23  1  1  0  0  0
  8  9  1  0  0  0  0
  9 11  1  1  0  0  0
 10  7  1  6  0  0  0
 10  8  1  0  0  0  0
 10  9  1  0  0  0  0
 11 18  1  1  0  0  0
 11 12  1  0  0  0  0
 12 16  2  0  0  0  0
 12 17  1  0  0  0  0
 13 15  1  0  0  0  0
 14 15  2  0  0  0  0
 16 14  1  0  0  0  0
 17 13  2  0  0  0  0
 19 21  1  1  0  0  0
 19 18  1  0  0  0  0
 19 20  1  0  0  0  0
 22 19  1  0  0  0  0
 22 20  1  0  0  0  0
 24 27  2  1  0  0  0
 24 29  1  0  0  0  0
 25 29  1  0  0  0  0
 25 32  1  0  0  0  0
 26 24  1  0  0  0  0
 28 23  1  6  0  0  0
 28 25  1  0  0  0  0
 30 26  1  0  0  0  0
 30 28  1  0  0  0  0
 32 31  1  0  0  0  0
 33 23  1  0  0  0  0
 35 33  1  6  0  0  0
 35 34  1  0  0  0  0
 36 39  2  0  0  0  0
 36 37  1  0  0  0  0
 37 43  1  6  0  0  0
 37 41  1  0  0  0  0
 40 39  1  6  0  0  0
 40 35  1  0  0  0  0
 40 38  1  0  0  0  0
 40 34  1  0  0  0  0
 41 38  2  0  0  0  0
 42 43  1  0  0  0  0
M  END
>  <MODEL>
1

>  <REMARK>
 VINA RESULT:      -7.0      0.000      0.000
  Name = 
  12 active torsions:
  status: ('A' for Active; 'I' for Inactive)
    1  A    between atoms: C_4  and  C_14
    2  A    between atoms: C_6  and  N_17
    3  A    between atoms: C_8  and  C_34
    4  A    between atoms: C_10  and  O_41
    5  A    between atoms: C_11  and  C_14
    6  A    between atoms: C_12  and  N_17
    7  A    between atoms: C_14  and  O_41
    8  A    between atoms: N_16  and  C_43
    9  A    between atoms: C_19  and  C_37
   10  A    between atoms: C_21  and  N_30
   11  A    between atoms: C_27  and  N_30
   12  A    between atoms: N_30  and  C_34
                            x       y       z     vdW  Elec       q    Type
                         _______ _______ _______ _____ _____    ______ ____

>  <TORSDO>
F 12

$$$$
=
 OpenBabel10262422173D

 43 49  0  0  1  0  0  0  0  0999 V2000
  190.8820  177.4720  139.3960 C   0  0  0  0  0  3  0  0  0  0  0  0
  189.5520  177.9810  138.9260 C   0  0  1  0  0  3  0  0  0  0  0  0
  191.3610  176.3180  138.9180 C   0  0  0  0  0  3  0  0  0  0  0  0
  189.4820  177.7960  137.4070 C   0  0  0  0  0  2  0  0  0  0  0  0
  189.7010  176.3300  136.9530 C   0  0  1  0  0  3  0  0  0  0  0  0
  190.5490  175.4970  137.9530 C   0  0  0  0  0  2  0  0  0  0  0  0
  188.4740  177.2570  139.5890 N   0  0  0  0  0  2  0  0  0  0  0  0
  188.7970  178.6880  141.4040 O   0  0  0  0  0  0  0  0  0  0  0  0
  187.5770  178.0400  141.6700 C   0  0  1  0  0  3  0  0  0  0  0  0
  188.7040  177.3370  141.0210 C   0  0  1  0  0  3  0  0  0  0  0  0
  187.5150  177.6500  143.1380 C   0  0  2  0  0  3  0  0  0  0  0  0
  186.2120  178.0840  143.7360 C   0  0  0  0  0  0  0  0  0  0  0  0
  183.8580  178.6310  143.5200 C   0  0  0  0  0  3  0  0  0  0  0  0
  184.9100  178.6510  145.7010 C   0  0  0  0  0  3  0  0  0  0  0  0
  183.7770  178.8310  144.9020 C   0  0  0  0  0  3  0  0  0  0  0  0
  186.1230  178.2750  145.1190 C   0  0  0  0  0  3  0  0  0  0  0  0
  185.0720  178.2560  142.9370 C   0  0  0  0  0  3  0  0  0  0  0  0
  188.5900  178.2270  143.8320 O   0  0  0  0  0  0  0  0  0  0  0  0
  189.2820  177.1790  144.4600 C   0  0  1  0  0  0  0  0  0  0  0  0
  189.0430  177.0650  145.9030 N   0  0  0  0  0  2  0  0  0  0  0  0
  189.4090  175.9520  143.8050 O   0  0  0  0  0  1  0  0  0  0  0  0
  190.3410  177.5470  145.3800 C   0  0  0  0  0  2  0  0  0  0  0  0
  188.4140  175.6620  136.6830 N   0  0  0  0  0  0  0  0  0  0  0  0
  188.3700  171.6500  134.5980 S   0  0  1  0  0  0  0  0  0  0  0  0
  187.3870  173.4720  136.3110 N   0  0  0  0  0  0  0  0  0  0  0  0
  189.7920  172.7470  134.5940 C   0  0  0  0  0  2  0  0  0  0  0  0
  188.9880  170.2740  134.8020 O   0  0  0  0  0  0  0  0  0  0  0  0
  188.6400  174.2580  136.2690 C   0  0  1  0  0  3  0  0  0  0  0  0
  187.6800  172.0400  136.2130 C   0  0  0  0  0  2  0  0  0  0  0  0
  189.3280  174.1610  134.8890 C   0  0  0  0  0  2  0  0  0  0  0  0
  185.3520  172.8880  137.6570 C   0  0  0  0  0  1  0  0  0  0  0  0
  186.6540  173.6870  137.5690 C   0  0  0  0  0  2  0  0  0  0  0  0
  187.6820  176.3830  135.6360 C   0  0  0  0  0  2  0  0  0  0  0  0
  185.3710  177.1870  135.1970 C   0  0  0  0  0  2  0  0  0  0  0  0
  186.2070  176.0080  135.6810 C   0  0  2  0  0  3  0  0  0  0  0  0
  185.2750  178.6410  138.3310 C   0  0  0  0  0  3  0  0  0  0  0  0
  183.7720  178.4410  138.3550 C   0  0  1  0  0  3  0  0  0  0  0  0
  184.1220  176.2790  137.1790 C   0  0  0  0  0  3  0  0  0  0  0  0
  186.0530  177.9140  137.5140 C   0  0  0  0  0  3  0  0  0  0  0  0
  185.4110  176.8480  136.6670 C   0  0  2  0  0  0  0  0  0  0  0  0
  183.3680  177.0270  137.9990 C   0  0  0  0  0  3  0  0  0  0  0  0
  182.3660  177.6850  140.2750 C   0  0  0  0  0  1  0  0  0  0  0  0
  183.1870  178.8260  139.7030 C   0  0  0  0  0  2  0  0  0  0  0  0
  2  1  1  0  0  0  0
  2  7  1  1  0  0  0
  3  1  2  0  0  0  0
  4  2  1  0  0  0  0
  5 23  1  1  0  0  0
  5  4  1  0  0  0  0
  5  6  1  0  0  0  0
  6  3  1  0  0  0  0
  8  9  1  0  0  0  0
  9 11  1  1  0  0  0
 10  7  1  6  0  0  0
 10  8  1  0  0  0  0
 10  9  1  0  0  0  0
 11 12  1  0  0  0  0
 11 18  1  1  0  0  0
 12 16  1  0  0  0  0
 13 15  2  0  0  0  0
 15 14  1  0  0  0  0
 16 14  2  0  0  0  0
 17 13  1  0  0  0  0
 17 12  2  0  0  0  0
 18 19  1  0  0  0  0
 19 21  1  6  0  0  0
 19 22  1  0  0  0  0
 19 20  1  0  0  0  0
 22 20  1  0  0  0  0
 24 27  2  1  0  0  0
 24 29  1  0  0  0  0
 25 32  1  0  0  0  0
 26 24  1  0  0  0  0
 26 30  1  0  0  0  0
 28 25  1  0  0  0  0
 28 23  1  6  0  0  0
 29 25  1  0  0  0  0
 30 28  1  0  0  0  0
 32 31  1  0  0  0  0
 33 23  1  0  0  0  0
 34 35  1  0  0  0  0
 35 33  1  1  0  0  0
 35 40  1  0  0  0  0
 36 37  1  0  0  0  0
 37 43  1  1  0  0  0
 38 41  2  0  0  0  0
 39 36  2  0  0  0  0
 40 34  1  6  0  0  0
 40 38  1  0  0  0  0
 40 39  1  0  0  0  0
 41 37  1  0  0  0  0
 43 42  1  0  0  0  0
M  END
>  <MODEL>
2

>  <REMARK>
 VINA RESULT:      -6.6      3.955      5.786
  Name = 
  12 active torsions:
  status: ('A' for Active; 'I' for Inactive)
    1  A    between atoms: C_4  and  C_14
    2  A    between atoms: C_6  and  N_17
    3  A    between atoms: C_8  and  C_34
    4  A    between atoms: C_10  and  O_41
    5  A    between atoms: C_11  and  C_14
    6  A    between atoms: C_12  and  N_17
    7  A    between atoms: C_14  and  O_41
    8  A    between atoms: N_16  and  C_43
    9  A    between atoms: C_19  and  C_37
   10  A    between atoms: C_21  and  N_30
   11  A    between atoms: C_27  and  N_30
   12  A    between atoms: N_30  and  C_34
                            x       y       z     vdW  Elec       q    Type
                         _______ _______ _______ _____ _____    ______ ____

>  <TORSDO>
F 12

$$$$
=
 OpenBabel10262422173D

 43 49  0  0  1  0  0  0  0  0999 V2000
  188.6250  177.1650  137.6440 C   0  0  0  0  0  3  0  0  0  0  0  0
  187.6590  178.3000  137.8030 C   0  0  1  0  0  3  0  0  0  0  0  0
  188.1700  175.9240  137.4460 C   0  0  0  0  0  3  0  0  0  0  0  0
  186.5610  178.1430  136.7460 C   0  0  0  0  0  2  0  0  0  0  0  0
  185.8260  176.7790  136.8190 C   0  0  1  0  0  3  0  0  0  0  0  0
  186.6900  175.6470  137.4390 C   0  0  0  0  0  2  0  0  0  0  0  0
  187.0920  178.2930  139.1460 N   0  0  0  0  0  2  0  0  0  0  0  0
  188.7070  179.1550  140.5950 O   0  0  0  0  0  0  0  0  0  0  0  0
  187.8160  178.4530  141.4270 C   0  0  1  0  0  3  0  0  0  0  0  0
  188.1620  177.9680  140.0740 C   0  0  1  0  0  3  0  0  0  0  0  0
  188.6000  177.6650  142.4640 C   0  0  2  0  0  3  0  0  0  0  0  0
  187.8820  177.6780  143.7780 C   0  0  0  0  0  0  0  0  0  0  0  0
  187.8950  177.5870  146.2030 C   0  0  0  0  0  3  0  0  0  0  0  0
  185.8110  177.9210  145.0150 C   0  0  0  0  0  3  0  0  0  0  0  0
  186.5100  177.7760  146.2180 C   0  0  0  0  0  3  0  0  0  0  0  0
  186.4970  177.8750  143.7990 C   0  0  0  0  0  3  0  0  0  0  0  0
  188.5820  177.5410  144.9860 C   0  0  0  0  0  3  0  0  0  0  0  0
  189.8880  178.2060  142.6030 O   0  0  0  0  0  0  0  0  0  0  0  0
  190.7960  177.2080  142.2150 C   0  0  1  0  0  0  0  0  0  0  0  0
  190.3180  175.8340  142.4110 N   0  0  0  0  0  2  0  0  0  0  0  0
  191.5570  177.3860  141.0570 O   0  0  0  0  0  1  0  0  0  0  0  0
  191.3810  176.4030  143.2700 C   0  0  0  0  0  2  0  0  0  0  0  0
  184.5450  176.9080  137.5400 N   0  0  0  0  0  0  0  0  0  0  0  0
  180.5110  175.8680  135.7830 S   0  0  1  0  0  0  0  0  0  0  0  0
  182.5780  175.4550  137.4490 N   0  0  0  0  0  0  0  0  0  0  0  0
  181.6400  177.0420  135.0280 C   0  0  0  0  0  2  0  0  0  0  0  0
  179.9740  175.0810  134.5950 O   0  0  0  0  0  0  0  0  0  0  0  0
  183.4310  176.4050  136.7020 C   0  0  1  0  0  3  0  0  0  0  0  0
  181.6920  174.7350  136.5320 C   0  0  0  0  0  2  0  0  0  0  0  0
  182.6030  177.5530  136.0840 C   0  0  0  0  0  2  0  0  0  0  0  0
  183.7770  173.2570  137.2930 C   0  0  0  0  0  1  0  0  0  0  0  0
  183.3820  174.4510  138.1650 C   0  0  0  0  0  2  0  0  0  0  0  0
  184.3080  178.3110  137.9000 C   0  0  0  0  0  2  0  0  0  0  0  0
  182.6660  179.8880  138.8970 C   0  0  0  0  0  2  0  0  0  0  0  0
  182.8440  178.5130  138.2610 C   0  0  2  0  0  3  0  0  0  0  0  0
  183.4630  178.7310  142.0550 C   0  0  0  0  0  3  0  0  0  0  0  0
  182.0570  179.0730  142.5130 C   0  0  1  0  0  3  0  0  0  0  0  0
  181.2420  178.3470  140.2790 C   0  0  0  0  0  3  0  0  0  0  0  0
  183.7400  178.5600  140.7540 C   0  0  0  0  0  3  0  0  0  0  0  0
  182.6140  178.6490  139.7590 C   0  0  2  0  0  0  0  0  0  0  0  0
  180.9950  178.5220  141.5860 C   0  0  0  0  0  3  0  0  0  0  0  0
  180.3950  178.0650  144.0790 C   0  0  0  0  0  1  0  0  0  0  0  0
  181.8090  178.5950  143.9330 C   0  0  0  0  0  2  0  0  0  0  0  0
  1  2  1  0  0  0  0
  2  7  1  1  0  0  0
  3  1  2  0  0  0  0
  4  5  1  0  0  0  0
  4  2  1  0  0  0  0
  5  6  1  0  0  0  0
  5 23  1  1  0  0  0
  6  3  1  0  0  0  0
  8  9  1  0  0  0  0
  9 11  1  1  0  0  0
 10  7  1  6  0  0  0
 10  8  1  0  0  0  0
 10  9  1  0  0  0  0
 11 18  1  1  0  0  0
 11 12  1  0  0  0  0
 12 16  2  0  0  0  0
 12 17  1  0  0  0  0
 13 15  1  0  0  0  0
 14 15  2  0  0  0  0
 16 14  1  0  0  0  0
 17 13  2  0  0  0  0
 19 21  1  6  0  0  0
 19 20  1  0  0  0  0
 19 18  1  0  0  0  0
 19 22  1  0  0  0  0
 20 22  1  0  0  0  0
 23 33  1  0  0  0  0
 24 27  2  6  0  0  0
 24 29  1  0  0  0  0
 25 32  1  0  0  0  0
 26 24  1  0  0  0  0
 26 30  1  0  0  0  0
 28 25  1  0  0  0  0
 28 23  1  1  0  0  0
 29 25  1  0  0  0  0
 30 28  1  0  0  0  0
 31 32  1  0  0  0  0
 35 33  1  1  0  0  0
 35 34  1  0  0  0  0
 35 40  1  0  0  0  0
 36 37  1  0  0  0  0
 37 43  1  1  0  0  0
 38 41  2  0  0  0  0
 39 36  2  0  0  0  0
 40 34  1  1  0  0  0
 40 38  1  0  0  0  0
 40 39  1  0  0  0  0
 41 37  1  0  0  0  0
 43 42  1  0  0  0  0
M  END
>  <MODEL>
3

>  <REMARK>
 VINA RESULT:      -6.6      2.533      3.880
  Name = 
  12 active torsions:
  status: ('A' for Active; 'I' for Inactive)
    1  A    between atoms: C_4  and  C_14
    2  A    between atoms: C_6  and  N_17
    3  A    between atoms: C_8  and  C_34
    4  A    between atoms: C_10  and  O_41
    5  A    between atoms: C_11  and  C_14
    6  A    between atoms: C_12  and  N_17
    7  A    between atoms: C_14  and  O_41
    8  A    between atoms: N_16  and  C_43
    9  A    between atoms: C_19  and  C_37
   10  A    between atoms: C_21  and  N_30
   11  A    between atoms: C_27  and  N_30
   12  A    between atoms: N_30  and  C_34
                            x       y       z     vdW  Elec       q    Type
                         _______ _______ _______ _____ _____    ______ ____

>  <TORSDO>
F 12

$$$$
=
 OpenBabel10262422173D

 43 49  0  0  1  0  0  0  0  0999 V2000
  190.2730  178.2040  141.0050 C   0  0  0  0  0  3  0  0  0  0  0  0
  189.0700  178.6550  140.2320 C   0  0  1  0  0  3  0  0  0  0  0  0
  190.9530  177.1230  140.6100 C   0  0  0  0  0  3  0  0  0  0  0  0
  189.4050  178.5740  138.7390 C   0  0  0  0  0  2  0  0  0  0  0  0
  189.8550  177.1610  138.2840 C   0  0  1  0  0  3  0  0  0  0  0  0
  190.4860  176.3180  139.4260 C   0  0  0  0  0  2  0  0  0  0  0  0
  187.9230  177.8140  140.5540 N   0  0  0  0  0  2  0  0  0  0  0  0
  186.0300  177.7470  141.9190 O   0  0  0  0  0  0  0  0  0  0  0  0
  187.0920  177.3620  142.7580 C   0  0  1  0  0  3  0  0  0  0  0  0
  187.2630  178.3930  141.7120 C   0  0  1  0  0  3  0  0  0  0  0  0
  186.9420  178.0350  144.1130 C   0  0  2  0  0  3  0  0  0  0  0  0
  188.0830  177.6590  145.0070 C   0  0  0  0  0  0  0  0  0  0  0  0
  190.4570  177.3350  145.3940 C   0  0  0  0  0  3  0  0  0  0  0  0
  188.8810  177.0250  147.2070 C   0  0  0  0  0  3  0  0  0  0  0  0
  190.1960  177.0170  146.7310 C   0  0  0  0  0  3  0  0  0  0  0  0
  187.8290  177.3490  146.3470 C   0  0  0  0  0  3  0  0  0  0  0  0
  189.4030  177.6590  144.5340 C   0  0  0  0  0  3  0  0  0  0  0  0
  185.7190  177.6690  144.6960 O   0  0  0  0  0  0  0  0  0  0  0  0
  185.0780  178.8560  145.0820 C   0  0  1  0  0  0  0  0  0  0  0  0
  183.6130  178.8050  145.0360 N   0  0  0  0  0  2  0  0  0  0  0  0
  185.5890  179.5940  146.1530 O   0  0  0  0  0  1  0  0  0  0  0  0
  184.3810  179.5950  144.0470 C   0  0  0  0  0  2  0  0  0  0  0  0
  188.7400  176.4290  137.6550 N   0  0  0  0  0  0  0  0  0  0  0  0
  189.6310  173.1720  134.6480 S   0  0  1  0  0  0  0  0  0  0  0  0
  188.1460  174.3150  136.5730 N   0  0  0  0  0  0  0  0  0  0  0  0
  190.8410  174.3960  135.1620 C   0  0  0  0  0  2  0  0  0  0  0  0
  190.4350  171.8800  134.5990 O   0  0  0  0  0  0  0  0  0  0  0  0
  189.2460  175.2320  136.9440 C   0  0  1  0  0  3  0  0  0  0  0  0
  188.6810  173.0140  136.1680 C   0  0  0  0  0  2  0  0  0  0  0  0
  190.1150  175.6050  135.7220 C   0  0  0  0  0  2  0  0  0  0  0  0
  186.1430  173.0500  137.3980 C   0  0  0  0  0  1  0  0  0  0  0  0
  187.2300  174.0830  137.7020 C   0  0  0  0  0  2  0  0  0  0  0  0
  188.0260  177.3050  136.7190 C   0  0  0  0  0  2  0  0  0  0  0  0
  185.8100  177.7200  135.6730 C   0  0  0  0  0  2  0  0  0  0  0  0
  186.7040  176.6660  136.3170 C   0  0  2  0  0  3  0  0  0  0  0  0
  184.5660  178.7860  138.7160 C   0  0  0  0  0  3  0  0  0  0  0  0
  183.1870  178.3160  138.2940 C   0  0  1  0  0  3  0  0  0  0  0  0
  184.2790  176.3930  137.1590 C   0  0  0  0  0  3  0  0  0  0  0  0
  185.6690  178.3040  138.1230 C   0  0  0  0  0  3  0  0  0  0  0  0
  185.5140  177.2380  137.0720 C   0  0  2  0  0  0  0  0  0  0  0  0
  183.1930  176.9000  137.7630 C   0  0  0  0  0  3  0  0  0  0  0  0
  182.8980  178.3730  140.7730 C   0  0  0  0  0  1  0  0  0  0  0  0
  182.1900  178.4410  139.4330 C   0  0  0  0  0  2  0  0  0  0  0  0
  2  7  1  6  0  0  0
  2  1  1  0  0  0  0
  3  1  2  0  0  0  0
  4  2  1  0  0  0  0
  5 23  1  1  0  0  0
  5  4  1  0  0  0  0
  5  6  1  0  0  0  0
  6  3  1  0  0  0  0
  8  9  1  0  0  0  0
  9 11  1  1  0  0  0
 10  7  1  6  0  0  0
 10  8  1  0  0  0  0
 10  9  1  0  0  0  0
 11 18  1  1  0  0  0
 11 12  1  0  0  0  0
 12 16  1  0  0  0  0
 13 15  2  0  0  0  0
 15 14  1  0  0  0  0
 16 14  2  0  0  0  0
 17 12  2  0  0  0  0
 17 13  1  0  0  0  0
 18 19  1  0  0  0  0
 19 21  1  1  0  0  0
 20 19  1  0  0  0  0
 22 20  1  0  0  0  0
 22 19  1  0  0  0  0
 24 27  2  1  0  0  0
 24 26  1  0  0  0  0
 24 29  1  0  0  0  0
 25 28  1  0  0  0  0
 25 32  1  0  0  0  0
 26 30  1  0  0  0  0
 28 23  1  6  0  0  0
 29 25  1  0  0  0  0
 30 28  1  0  0  0  0
 31 32  1  0  0  0  0
 33 23  1  0  0  0  0
 34 35  1  0  0  0  0
 35 33  1  1  0  0  0
 35 40  1  0  0  0  0
 37 36  1  0  0  0  0
 37 43  1  1  0  0  0
 38 41  2  0  0  0  0
 39 36  2  0  0  0  0
 40 34  1  6  0  0  0
 40 38  1  0  0  0  0
 40 39  1  0  0  0  0
 41 37  1  0  0  0  0
 43 42  1  0  0  0  0
M  END
>  <MODEL>
4

>  <REMARK>
 VINA RESULT:      -6.4      3.848      6.383
  Name = 
  12 active torsions:
  status: ('A' for Active; 'I' for Inactive)
    1  A    between atoms: C_4  and  C_14
    2  A    between atoms: C_6  and  N_17
    3  A    between atoms: C_8  and  C_34
    4  A    between atoms: C_10  and  O_41
    5  A    between atoms: C_11  and  C_14
    6  A    between atoms: C_12  and  N_17
    7  A    between atoms: C_14  and  O_41
    8  A    between atoms: N_16  and  C_43
    9  A    between atoms: C_19  and  C_37
   10  A    between atoms: C_21  and  N_30
   11  A    between atoms: C_27  and  N_30
   12  A    between atoms: N_30  and  C_34
                            x       y       z     vdW  Elec       q    Type
                         _______ _______ _______ _____ _____    ______ ____

>  <TORSDO>
F 12

$$$$
=
 OpenBabel10262422173D

 43 49  0  0  1  0  0  0  0  0999 V2000
  188.9640  177.6980  136.3810 C   0  0  0  0  0  3  0  0  0  0  0  0
  188.0150  178.6440  137.0530 C   0  0  1  0  0  3  0  0  0  0  0  0
  188.5310  176.5060  135.9570 C   0  0  0  0  0  3  0  0  0  0  0  0
  186.7020  178.6430  136.2620 C   0  0  0  0  0  2  0  0  0  0  0  0
  186.0680  177.2350  136.1200 C   0  0  1  0  0  3  0  0  0  0  0  0
  187.1070  176.0820  136.2010 C   0  0  0  0  0  2  0  0  0  0  0  0
  187.7900  178.2330  138.4340 N   0  0  0  0  0  2  0  0  0  0  0  0
  188.8430  178.4680  140.5030 O   0  0  0  0  0  0  0  0  0  0  0  0
  189.1740  177.1690  140.0780 C   0  0  1  0  0  3  0  0  0  0  0  0
  189.0660  178.2940  139.1250 C   0  0  1  0  0  3  0  0  0  0  0  0
  190.6390  176.8930  140.3720 C   0  0  2  0  0  3  0  0  0  0  0  0
  191.3130  176.3240  139.1620 C   0  0  0  0  0  0  0  0  0  0  0  0
  191.3530  174.7910  137.2810 C   0  0  0  0  0  3  0  0  0  0  0  0
  193.1590  176.3750  137.5910 C   0  0  0  0  0  3  0  0  0  0  0  0
  192.5730  175.3350  136.8640 C   0  0  0  0  0  3  0  0  0  0  0  0
  192.5280  176.8700  138.7350 C   0  0  0  0  0  3  0  0  0  0  0  0
  190.7220  175.2870  138.4260 C   0  0  0  0  0  3  0  0  0  0  0  0
  190.7520  176.0090  141.4570 O   0  0  0  0  0  0  0  0  0  0  0  0
  190.9990  176.7900  142.5970 C   0  0  1  0  0  0  0  0  0  0  0  0
  191.3610  176.0270  143.7970 N   0  0  0  0  0  2  0  0  0  0  0  0
  191.6840  178.0010  142.4640 O   0  0  0  0  0  1  0  0  0  0  0  0
  190.0430  176.6910  143.6830 C   0  0  0  0  0  2  0  0  0  0  0  0
  184.9950  177.0360  137.1120 N   0  0  0  0  0  0  0  0  0  0  0  0
  180.8080  175.6950  136.0570 S   0  0  1  0  0  0  0  0  0  0  0  0
  183.1800  175.4040  137.2850 N   0  0  0  0  0  0  0  0  0  0  0  0
  181.6680  177.0100  135.1890 C   0  0  0  0  0  2  0  0  0  0  0  0
  180.1280  174.9200  134.9370 O   0  0  0  0  0  0  0  0  0  0  0  0
  183.7920  176.4690  136.4610 C   0  0  1  0  0  3  0  0  0  0  0  0
  182.2030  174.6470  136.4990 C   0  0  0  0  0  2  0  0  0  0  0  0
  182.7650  177.5590  136.0840 C   0  0  0  0  0  2  0  0  0  0  0  0
  184.1060  173.0800  137.0930 C   0  0  0  0  0  1  0  0  0  0  0  0
  184.1880  174.4480  137.7730 C   0  0  0  0  0  2  0  0  0  0  0  0
  184.6630  178.3110  137.7580 C   0  0  0  0  0  2  0  0  0  0  0  0
  183.1730  179.4420  139.3940 C   0  0  0  0  0  2  0  0  0  0  0  0
  183.5770  178.0960  138.8020 C   0  0  2  0  0  3  0  0  0  0  0  0
  185.6980  179.3670  141.7540 C   0  0  0  0  0  3  0  0  0  0  0  0
  184.6480  179.3210  142.8470 C   0  0  1  0  0  3  0  0  0  0  0  0
  183.2780  177.8770  141.3570 C   0  0  0  0  0  3  0  0  0  0  0  0
  185.4000  179.0050  140.4970 C   0  0  0  0  0  3  0  0  0  0  0  0
  184.0170  178.4880  140.2050 C   0  0  2  0  0  0  0  0  0  0  0  0
  183.6020  178.2550  142.6030 C   0  0  0  0  0  3  0  0  0  0  0  0
  186.1830  177.9050  144.2140 C   0  0  0  0  0  1  0  0  0  0  0  0
  185.2830  179.1260  144.2130 C   0  0  0  0  0  2  0  0  0  0  0  0
  1  2  1  0  0  0  0
  2  7  1  1  0  0  0
  3  6  1  0  0  0  0
  3  1  2  0  0  0  0
  4  2  1  0  0  0  0
  5  6  1  0  0  0  0
  5  4  1  0  0  0  0
  5 23  1  1  0  0  0
  9 11  1  1  0  0  0
  9  8  1  0  0  0  0
 10  7  1  6  0  0  0
 10  9  1  0  0  0  0
 10  8  1  0  0  0  0
 11 18  1  1  0  0  0
 12 11  1  0  0  0  0
 13 17  1  0  0  0  0
 14 16  2  0  0  0  0
 15 13  2  0  0  0  0
 15 14  1  0  0  0  0
 16 12  1  0  0  0  0
 17 12  2  0  0  0  0
 18 19  1  0  0  0  0
 19 21  1  6  0  0  0
 19 22  1  0  0  0  0
 19 20  1  0  0  0  0
 22 20  1  0  0  0  0
 23 33  1  0  0  0  0
 24 27  2  6  0  0  0
 24 29  1  0  0  0  0
 25 32  1  0  0  0  0
 26 24  1  0  0  0  0
 26 30  1  0  0  0  0
 28 23  1  1  0  0  0
 28 25  1  0  0  0  0
 29 25  1  0  0  0  0
 30 28  1  0  0  0  0
 31 32  1  0  0  0  0
 35 33  1  6  0  0  0
 35 34  1  0  0  0  0
 35 40  1  0  0  0  0
 36 37  1  0  0  0  0
 37 43  1  1  0  0  0
 38 41  2  0  0  0  0
 39 36  2  0  0  0  0
 40 34  1  1  0  0  0
 40 39  1  0  0  0  0
 40 38  1  0  0  0  0
 41 37  1  0  0  0  0
 43 42  1  0  0  0  0
M  END
>  <MODEL>
5

>  <REMARK>
 VINA RESULT:      -6.2      2.892      5.509
  Name = 
  12 active torsions:
  status: ('A' for Active; 'I' for Inactive)
    1  A    between atoms: C_4  and  C_14
    2  A    between atoms: C_6  and  N_17
    3  A    between atoms: C_8  and  C_34
    4  A    between atoms: C_10  and  O_41
    5  A    between atoms: C_11  and  C_14
    6  A    between atoms: C_12  and  N_17
    7  A    between atoms: C_14  and  O_41
    8  A    between atoms: N_16  and  C_43
    9  A    between atoms: C_19  and  C_37
   10  A    between atoms: C_21  and  N_30
   11  A    between atoms: C_27  and  N_30
   12  A    between atoms: N_30  and  C_34
                            x       y       z     vdW  Elec       q    Type
                         _______ _______ _______ _____ _____    ______ ____

>  <TORSDO>
F 12

$$$$
=
 OpenBabel10262422173D

 43 49  0  0  1  0  0  0  0  0999 V2000
  188.5580  176.7560  135.4780 C   0  0  0  0  0  3  0  0  0  0  0  0
  188.0650  177.8090  136.4240 C   0  0  1  0  0  3  0  0  0  0  0  0
  187.7350  175.7810  135.0770 C   0  0  0  0  0  3  0  0  0  0  0  0
  186.6700  178.2470  135.9640 C   0  0  0  0  0  2  0  0  0  0  0  0
  185.6570  177.0770  135.8670 C   0  0  1  0  0  3  0  0  0  0  0  0
  186.3310  175.7000  135.6140 C   0  0  0  0  0  2  0  0  0  0  0  0
  188.0230  177.2840  137.7830 N   0  0  0  0  0  2  0  0  0  0  0  0
  190.1760  178.1470  138.0430 O   0  0  0  0  0  0  0  0  0  0  0  0
  189.7590  177.8240  139.3480 C   0  0  1  0  0  3  0  0  0  0  0  0
  189.3880  176.9900  138.1840 C   0  0  1  0  0  3  0  0  0  0  0  0
  190.9020  177.1640  140.1010 C   0  0  2  0  0  3  0  0  0  0  0  0
  190.5910  177.1010  141.5640 C   0  0  0  0  0  0  0  0  0  0  0  0
  191.2270  177.4250  143.8840 C   0  0  0  0  0  3  0  0  0  0  0  0
  188.9880  176.6820  143.3350 C   0  0  0  0  0  3  0  0  0  0  0  0
  189.9470  177.0340  144.2900 C   0  0  0  0  0  3  0  0  0  0  0  0
  189.3090  176.7190  141.9760 C   0  0  0  0  0  3  0  0  0  0  0  0
  191.5480  177.4620  142.5240 C   0  0  0  0  0  3  0  0  0  0  0  0
  192.0930  177.8740  139.8830 O   0  0  0  0  0  0  0  0  0  0  0  0
  193.0540  176.9430  139.4600 C   0  0  1  0  0  0  0  0  0  0  0  0
  193.2810  176.9100  138.0110 N   0  0  0  0  0  2  0  0  0  0  0  0
  194.2100  176.7570  140.2220 O   0  0  0  0  0  1  0  0  0  0  0  0
  192.5770  175.8040  138.6990 C   0  0  0  0  0  2  0  0  0  0  0  0
  184.7980  177.0220  137.0640 N   0  0  0  0  0  0  0  0  0  0  0  0
  180.4160  175.9100  136.9860 S   0  0  1  0  0  0  0  0  0  0  0  0
  182.9800  175.5030  137.6790 N   0  0  0  0  0  0  0  0  0  0  0  0
  181.1350  177.1550  135.9110 C   0  0  0  0  0  2  0  0  0  0  0  0
  179.4670  175.1550  136.0660 O   0  0  0  0  0  0  0  0  0  0  0  0
  183.4520  176.5140  136.7080 C   0  0  1  0  0  3  0  0  0  0  0  0
  181.8150  174.7910  137.1490 C   0  0  0  0  0  2  0  0  0  0  0  0
  182.4280  177.6560  136.5280 C   0  0  0  0  0  2  0  0  0  0  0  0
  183.8990  173.2410  137.1050 C   0  0  0  0  0  1  0  0  0  0  0  0
  184.0170  174.5000  137.9660 C   0  0  0  0  0  2  0  0  0  0  0  0
  184.6880  178.3550  137.6680 C   0  0  0  0  0  2  0  0  0  0  0  0
  183.6280  179.6960  139.4720 C   0  0  0  0  0  2  0  0  0  0  0  0
  183.6630  178.3320  138.7920 C   0  0  2  0  0  3  0  0  0  0  0  0
  186.2340  178.9040  141.6000 C   0  0  0  0  0  3  0  0  0  0  0  0
  185.2860  179.0340  142.7770 C   0  0  1  0  0  3  0  0  0  0  0  0
  183.5110  178.0340  141.3520 C   0  0  0  0  0  3  0  0  0  0  0  0
  185.7670  178.6950  140.3600 C   0  0  0  0  0  3  0  0  0  0  0  0
  184.2840  178.5270  140.1670 C   0  0  2  0  0  0  0  0  0  0  0  0
  184.0060  178.2520  142.5800 C   0  0  0  0  0  3  0  0  0  0  0  0
  184.9620  178.6270  145.2180 C   0  0  0  0  0  1  0  0  0  0  0  0
  185.9570  178.6170  144.0740 C   0  0  0  0  0  2  0  0  0  0  0  0
  1  2  1  0  0  0  0
  2  7  1  1  0  0  0
  3  1  2  0  0  0  0
  3  6  1  0  0  0  0
  4  2  1  0  0  0  0
  5  4  1  0  0  0  0
  5 23  1  1  0  0  0
  6  5  1  0  0  0  0
  8 10  1  0  0  0  0
  8  9  1  0  0  0  0
  9 11  1  1  0  0  0
 10  7  1  6  0  0  0
 10  9  1  0  0  0  0
 11 18  1  1  0  0  0
 11 12  1  0  0  0  0
 12 16  2  0  0  0  0
 12 17  1  0  0  0  0
 13 15  1  0  0  0  0
 14 15  2  0  0  0  0
 16 14  1  0  0  0  0
 17 13  2  0  0  0  0
 19 18  1  0  0  0  0
 19 21  1  1  0  0  0
 20 22  1  0  0  0  0
 20 19  1  0  0  0  0
 22 19  1  0  0  0  0
 23 33  1  0  0  0  0
 24 27  2  6  0  0  0
 24 29  1  0  0  0  0
 25 32  1  0  0  0  0
 26 30  1  0  0  0  0
 26 24  1  0  0  0  0
 28 23  1  1  0  0  0
 28 25  1  0  0  0  0
 29 25  1  0  0  0  0
 30 28  1  0  0  0  0
 31 32  1  0  0  0  0
 35 33  1  6  0  0  0
 35 34  1  0  0  0  0
 35 40  1  0  0  0  0
 36 37  1  0  0  0  0
 37 43  1  1  0  0  0
 38 41  2  0  0  0  0
 39 36  2  0  0  0  0
 40 34  1  1  0  0  0
 40 39  1  0  0  0  0
 40 38  1  0  0  0  0
 41 37  1  0  0  0  0
 43 42  1  0  0  0  0
M  END
>  <MODEL>
6

>  <REMARK>
 VINA RESULT:      -6.2      2.968      4.776
  Name = 
  12 active torsions:
  status: ('A' for Active; 'I' for Inactive)
    1  A    between atoms: C_4  and  C_14
    2  A    between atoms: C_6  and  N_17
    3  A    between atoms: C_8  and  C_34
    4  A    between atoms: C_10  and  O_41
    5  A    between atoms: C_11  and  C_14
    6  A    between atoms: C_12  and  N_17
    7  A    between atoms: C_14  and  O_41
    8  A    between atoms: N_16  and  C_43
    9  A    between atoms: C_19  and  C_37
   10  A    between atoms: C_21  and  N_30
   11  A    between atoms: C_27  and  N_30
   12  A    between atoms: N_30  and  C_34
                            x       y       z     vdW  Elec       q    Type
                         _______ _______ _______ _____ _____    ______ ____

>  <TORSDO>
F 12

$$$$
=
 OpenBabel10262422173D

 43 49  0  0  1  0  0  0  0  0999 V2000
  186.1700  178.7840  139.3460 C   0  0  0  0  0  3  0  0  0  0  0  0
  184.9950  179.3470  140.0860 C   0  0  1  0  0  3  0  0  0  0  0  0
  185.9750  177.9620  138.3090 C   0  0  0  0  0  3  0  0  0  0  0  0
  183.9510  179.7920  139.0560 C   0  0  0  0  0  2  0  0  0  0  0  0
  183.5070  178.6560  138.0980 C   0  0  1  0  0  3  0  0  0  0  0  0
  184.5810  177.5500  137.9160 C   0  0  0  0  0  2  0  0  0  0  0  0
  184.4400  178.3420  140.9860 N   0  0  0  0  0  2  0  0  0  0  0  0
  184.1690  177.8780  143.2570 O   0  0  0  0  0  0  0  0  0  0  0  0
  185.4880  177.4840  142.9660 C   0  0  1  0  0  3  0  0  0  0  0  0
  184.8730  178.6710  142.3340 C   0  0  1  0  0  3  0  0  0  0  0  0
  186.4130  177.9290  144.0870 C   0  0  2  0  0  3  0  0  0  0  0  0
  187.8390  177.6440  143.7260 C   0  0  0  0  0  0  0  0  0  0  0  0
  189.5240  176.9640  142.1170 C   0  0  0  0  0  3  0  0  0  0  0  0
  190.1830  177.6480  144.3450 C   0  0  0  0  0  3  0  0  0  0  0  0
  190.5240  177.1900  143.0690 C   0  0  0  0  0  3  0  0  0  0  0  0
  188.8440  177.8780  144.6710 C   0  0  0  0  0  3  0  0  0  0  0  0
  188.1840  177.1940  142.4430 C   0  0  0  0  0  3  0  0  0  0  0  0
  186.0690  177.2750  145.2800 O   0  0  0  0  0  0  0  0  0  0  0  0
  185.9400  178.2640  146.2670 C   0  0  1  0  0  0  0  0  0  0  0  0
  184.5560  178.6280  146.5940 N   0  0  0  0  0  2  0  0  0  0  0  0
  186.8010  178.2520  147.3670 O   0  0  0  0  0  1  0  0  0  0  0  0
  185.4330  179.5550  145.8430 C   0  0  0  0  0  2  0  0  0  0  0  0
  182.2260  178.0680  138.5340 N   0  0  0  0  0  0  0  0  0  0  0  0
  179.6080  179.7680  141.8050 S   0  0  1  0  0  0  0  0  0  0  0  0
  180.4580  179.5950  139.2620 N   0  0  0  0  0  0  0  0  0  0  0  0
  181.0750  178.7850  142.1290 C   0  0  0  0  0  2  0  0  0  0  0  0
  179.6900  180.8780  142.8440 O   0  0  0  0  0  0  0  0  0  0  0  0
  181.6650  178.8410  139.6660 C   0  0  1  0  0  3  0  0  0  0  0  0
  180.1100  180.5860  140.2830 C   0  0  0  0  0  2  0  0  0  0  0  0
  181.3950  177.9530  140.9010 C   0  0  0  0  0  2  0  0  0  0  0  0
  180.8660  181.8260  138.1880 C   0  0  0  0  0  1  0  0  0  0  0  0
  180.6700  180.3200  137.9980 C   0  0  0  0  0  2  0  0  0  0  0  0
  182.4230  176.6690  138.9300 C   0  0  0  0  0  2  0  0  0  0  0  0
  181.4000  174.4130  138.7270 C   0  0  0  0  0  2  0  0  0  0  0  0
  181.6020  175.7550  138.0320 C   0  0  2  0  0  3  0  0  0  0  0  0
  184.3990  173.1520  137.5590 C   0  0  0  0  0  3  0  0  0  0  0  0
  183.6300  172.1080  136.7720 C   0  0  1  0  0  3  0  0  0  0  0  0
  181.8960  173.8340  136.3320 C   0  0  0  0  0  3  0  0  0  0  0  0
  183.8030  174.2820  137.9690 C   0  0  0  0  0  3  0  0  0  0  0  0
  182.3700  174.5250  137.5750 C   0  0  2  0  0  0  0  0  0  0  0  0
  182.5160  172.7090  135.9440 C   0  0  0  0  0  3  0  0  0  0  0  0
  185.9570  171.8770  135.8970 C   0  0  0  0  0  1  0  0  0  0  0  0
  184.5570  171.2940  135.8850 C   0  0  0  0  0  2  0  0  0  0  0  0
  1  2  1  0  0  0  0
  2  7  1  1  0  0  0
  3  1  2  0  0  0  0
  4  2  1  0  0  0  0
  5 23  1  1  0  0  0
  5  4  1  0  0  0  0
  6  5  1  0  0  0  0
  6  3  1  0  0  0  0
  9  8  1  0  0  0  0
  9 11  1  1  0  0  0
 10  7  1  6  0  0  0
 10  9  1  0  0  0  0
 10  8  1  0  0  0  0
 11 18  1  1  0  0  0
 12 11  1  0  0  0  0
 12 16  1  0  0  0  0
 13 17  1  0  0  0  0
 13 15  2  0  0  0  0
 14 16  2  0  0  0  0
 15 14  1  0  0  0  0
 17 12  2  0  0  0  0
 18 19  1  0  0  0  0
 19 20  1  0  0  0  0
 19 21  1  1  0  0  0
 22 19  1  0  0  0  0
 22 20  1  0  0  0  0
 23 33  1  0  0  0  0
 24 26  1  0  0  0  0
 24 27  2  1  0  0  0
 25 28  1  0  0  0  0
 25 29  1  0  0  0  0
 28 23  1  6  0  0  0
 28 30  1  0  0  0  0
 29 24  1  0  0  0  0
 30 26  1  0  0  0  0
 32 31  1  0  0  0  0
 32 25  1  0  0  0  0
 35 34  1  0  0  0  0
 35 33  1  1  0  0  0
 36 39  2  0  0  0  0
 37 43  1  6  0  0  0
 37 36  1  0  0  0  0
 40 38  1  6  0  0  0
 40 39  1  0  0  0  0
 40 35  1  0  0  0  0
 40 34  1  0  0  0  0
 41 38  2  0  0  0  0
 41 37  1  0  0  0  0
 43 42  1  0  0  0  0
M  END
>  <MODEL>
7

>  <REMARK>
 VINA RESULT:      -6.0      3.098      6.212
  Name = 
  12 active torsions:
  status: ('A' for Active; 'I' for Inactive)
    1  A    between atoms: C_4  and  C_14
    2  A    between atoms: C_6  and  N_17
    3  A    between atoms: C_8  and  C_34
    4  A    between atoms: C_10  and  O_41
    5  A    between atoms: C_11  and  C_14
    6  A    between atoms: C_12  and  N_17
    7  A    between atoms: C_14  and  O_41
    8  A    between atoms: N_16  and  C_43
    9  A    between atoms: C_19  and  C_37
   10  A    between atoms: C_21  and  N_30
   11  A    between atoms: C_27  and  N_30
   12  A    between atoms: N_30  and  C_34
                            x       y       z     vdW  Elec       q    Type
                         _______ _______ _______ _____ _____    ______ ____

>  <TORSDO>
F 12

$$$$
=
 OpenBabel10262422173D

 43 49  0  0  1  0  0  0  0  0999 V2000
  186.9000  178.2440  137.3840 C   0  0  0  0  0  3  0  0  0  0  0  0
  187.3400  177.5870  138.6580 C   0  0  1  0  0  3  0  0  0  0  0  0
  187.7850  178.4630  136.4060 C   0  0  0  0  0  3  0  0  0  0  0  0
  188.2540  176.4110  138.2960 C   0  0  0  0  0  2  0  0  0  0  0  0
  189.4780  176.8230  137.4370 C   0  0  1  0  0  3  0  0  0  0  0  0
  189.2350  178.1060  136.5960 C   0  0  0  0  0  2  0  0  0  0  0  0
  188.0390  178.5480  139.5030 N   0  0  0  0  0  2  0  0  0  0  0  0
  188.0490  179.2820  141.7180 O   0  0  0  0  0  0  0  0  0  0  0  0
  186.6990  179.0000  141.4400 C   0  0  1  0  0  3  0  0  0  0  0  0
  187.7950  178.1770  140.8860 C   0  0  1  0  0  3  0  0  0  0  0  0
  186.0740  178.2810  142.6240 C   0  0  2  0  0  3  0  0  0  0  0  0
  184.5970  178.5260  142.6580 C   0  0  0  0  0  0  0  0  0  0  0  0
  182.4380  178.6270  141.5540 C   0  0  0  0  0  3  0  0  0  0  0  0
  182.5970  179.0170  143.9390 C   0  0  0  0  0  3  0  0  0  0  0  0
  181.8260  178.9250  142.7760 C   0  0  0  0  0  3  0  0  0  0  0  0
  183.9780  178.8140  143.8790 C   0  0  0  0  0  3  0  0  0  0  0  0
  183.8200  178.4250  141.4950 C   0  0  0  0  0  3  0  0  0  0  0  0
  186.6710  178.7140  143.8180 O   0  0  0  0  0  0  0  0  0  0  0  0
  187.1300  177.5680  144.4860 C   0  0  1  0  0  0  0  0  0  0  0  0
  186.5320  177.3470  145.8070 N   0  0  0  0  0  2  0  0  0  0  0  0
  187.3570  176.3960  143.7600 O   0  0  0  0  0  1  0  0  0  0  0  0
  187.9420  177.7760  145.6690 C   0  0  0  0  0  2  0  0  0  0  0  0
  190.6840  176.9720  138.2740 N   0  0  0  0  0  0  0  0  0  0  0  0
  193.6970  174.5580  135.9210 S   0  0  1  0  0  0  0  0  0  0  0  0
  191.2190  175.0750  136.8240 N   0  0  0  0  0  0  0  0  0  0  0  0
  194.1600  175.7890  137.1430 C   0  0  0  0  0  2  0  0  0  0  0  0
  194.6700  173.4170  136.1830 O   0  0  0  0  0  0  0  0  0  0  0  0
  191.7340  176.0250  137.8340 C   0  0  1  0  0  3  0  0  0  0  0  0
  192.1580  173.9660  136.6410 C   0  0  0  0  0  2  0  0  0  0  0  0
  193.0040  176.7520  137.3390 C   0  0  0  0  0  2  0  0  0  0  0  0
  189.4440  173.3800  136.3040 C   0  0  0  0  0  1  0  0  0  0  0  0
  189.9280  174.4970  137.2310 C   0  0  0  0  0  2  0  0  0  0  0  0
  190.3520  176.7350  139.6830 C   0  0  0  0  0  2  0  0  0  0  0  0
  192.3330  177.2090  141.1080 C   0  0  0  0  0  2  0  0  0  0  0  0
  191.0300  177.7800  140.5580 C   0  0  2  0  0  3  0  0  0  0  0  0
  190.7570  175.7250  143.8030 C   0  0  0  0  0  3  0  0  0  0  0  0
  191.5380  176.6340  144.7330 C   0  0  1  0  0  3  0  0  0  0  0  0
  191.2980  178.4380  143.0400 C   0  0  0  0  0  3  0  0  0  0  0  0
  190.5890  176.0450  142.5110 C   0  0  0  0  0  3  0  0  0  0  0  0
  191.1350  177.3570  142.0150 C   0  0  2  0  0  0  0  0  0  0  0  0
  191.4590  178.0890  144.3250 C   0  0  0  0  0  3  0  0  0  0  0  0
  192.0740  175.6350  146.9570 C   0  0  0  0  0  1  0  0  0  0  0  0
  191.0810  176.4710  146.1730 C   0  0  0  0  0  2  0  0  0  0  0  0
  1  2  1  0  0  0  0
  2  7  1  1  0  0  0
  3  6  1  0  0  0  0
  3  1  2  0  0  0  0
  4  2  1  0  0  0  0
  5 23  1  1  0  0  0
  5  4  1  0  0  0  0
  6  5  1  0  0  0  0
  9  8  1  0  0  0  0
  9 11  1  1  0  0  0
 10  7  1  6  0  0  0
 10  9  1  0  0  0  0
 10  8  1  0  0  0  0
 11 12  1  0  0  0  0
 11 18  1  1  0  0  0
 12 16  1  0  0  0  0
 13 15  2  0  0  0  0
 15 14  1  0  0  0  0
 16 14  2  0  0  0  0
 17 13  1  0  0  0  0
 17 12  2  0  0  0  0
 18 19  1  0  0  0  0
 19 21  1  6  0  0  0
 19 22  1  0  0  0  0
 19 20  1  0  0  0  0
 22 20  1  0  0  0  0
 23 33  1  0  0  0  0
 24 27  2  1  0  0  0
 24 29  1  0  0  0  0
 24 26  1  0  0  0  0
 25 32  1  0  0  0  0
 25 28  1  0  0  0  0
 26 30  1  0  0  0  0
 28 23  1  6  0  0  0
 29 25  1  0  0  0  0
 30 28  1  0  0  0  0
 31 32  1  0  0  0  0
 35 33  1  6  0  0  0
 35 34  1  0  0  0  0
 35 40  1  0  0  0  0
 36 37  1  0  0  0  0
 37 43  1  1  0  0  0
 38 41  2  0  0  0  0
 39 36  2  0  0  0  0
 40 34  1  6  0  0  0
 40 39  1  0  0  0  0
 40 38  1  0  0  0  0
 41 37  1  0  0  0  0
 43 42  1  0  0  0  0
M  END
>  <MODEL>
8

>  <REMARK>
 VINA RESULT:      -5.8      4.770      9.309
  Name = 
  12 active torsions:
  status: ('A' for Active; 'I' for Inactive)
    1  A    between atoms: C_4  and  C_14
    2  A    between atoms: C_6  and  N_17
    3  A    between atoms: C_8  and  C_34
    4  A    between atoms: C_10  and  O_41
    5  A    between atoms: C_11  and  C_14
    6  A    between atoms: C_12  and  N_17
    7  A    between atoms: C_14  and  O_41
    8  A    between atoms: N_16  and  C_43
    9  A    between atoms: C_19  and  C_37
   10  A    between atoms: C_21  and  N_30
   11  A    between atoms: C_27  and  N_30
   12  A    between atoms: N_30  and  C_34
                            x       y       z     vdW  Elec       q    Type
                         _______ _______ _______ _____ _____    ______ ____

>  <TORSDO>
F 12

$$$$
=
 OpenBabel10262422173D

 43 49  0  0  1  0  0  0  0  0999 V2000
  186.4370  178.4020  137.2790 C   0  0  0  0  0  3  0  0  0  0  0  0
  186.6600  177.6960  138.5820 C   0  0  1  0  0  3  0  0  0  0  0  0
  187.4760  178.6750  136.4810 C   0  0  0  0  0  3  0  0  0  0  0  0
  187.6480  176.5490  138.3400 C   0  0  0  0  0  2  0  0  0  0  0  0
  188.9950  177.0150  137.7280 C   0  0  1  0  0  3  0  0  0  0  0  0
  188.8770  178.3300  136.9100 C   0  0  0  0  0  2  0  0  0  0  0  0
  187.1790  178.6280  139.5760 N   0  0  0  0  0  2  0  0  0  0  0  0
  186.0680  179.7570  141.2900 O   0  0  0  0  0  0  0  0  0  0  0  0
  185.0500  179.1050  140.5700 C   0  0  1  0  0  3  0  0  0  0  0  0
  186.3750  178.4840  140.7770 C   0  0  1  0  0  3  0  0  0  0  0  0
  184.0490  178.4980  141.5400 C   0  0  2  0  0  3  0  0  0  0  0  0
  182.9080  177.8820  140.7900 C   0  0  0  0  0  0  0  0  0  0  0  0
  182.0210  176.1920  139.2910 C   0  0  0  0  0  3  0  0  0  0  0  0
  180.5360  177.8210  140.2920 C   0  0  0  0  0  3  0  0  0  0  0  0
  180.7360  176.7180  139.4570 C   0  0  0  0  0  3  0  0  0  0  0  0
  181.6190  178.3990  140.9590 C   0  0  0  0  0  3  0  0  0  0  0  0
  183.1050  176.7700  139.9580 C   0  0  0  0  0  3  0  0  0  0  0  0
  183.5810  179.4820  142.4240 O   0  0  0  0  0  0  0  0  0  0  0  0
  183.6480  178.9370  143.7160 C   0  0  1  0  0  0  0  0  0  0  0  0
  184.5960  179.6060  144.6150 N   0  0  0  0  0  2  0  0  0  0  0  0
  182.4750  178.5090  144.3420 O   0  0  0  0  0  1  0  0  0  0  0  0
  184.8750  178.2540  144.0790 C   0  0  0  0  0  2  0  0  0  0  0  0
  190.0310  177.1430  138.7700 N   0  0  0  0  0  0  0  0  0  0  0  0
  193.5070  174.9100  136.9320 S   0  0  1  0  0  0  0  0  0  0  0  0
  190.8880  175.3800  137.3050 N   0  0  0  0  0  0  0  0  0  0  0  0
  193.6790  176.0160  138.3360 C   0  0  0  0  0  2  0  0  0  0  0  0
  194.4040  173.7350  137.2970 O   0  0  0  0  0  0  0  0  0  0  0  0
  191.1590  176.2250  138.4880 C   0  0  1  0  0  3  0  0  0  0  0  0
  191.8500  174.2780  137.2340 C   0  0  0  0  0  2  0  0  0  0  0  0
  192.5030  176.9750  138.3580 C   0  0  0  0  0  2  0  0  0  0  0  0
  189.4760  173.3760  136.7710 C   0  0  0  0  0  1  0  0  0  0  0  0
  189.5420  174.7870  137.3590 C   0  0  0  0  0  2  0  0  0  0  0  0
  189.4600  176.8480  140.0890 C   0  0  0  0  0  2  0  0  0  0  0  0
  190.7590  176.3770  142.1550 C   0  0  0  0  0  2  0  0  0  0  0  0
  190.3250  177.4650  141.1780 C   0  0  2  0  0  3  0  0  0  0  0  0
  187.8760  176.6680  144.0400 C   0  0  0  0  0  3  0  0  0  0  0  0
  188.7160  177.1300  145.2160 C   0  0  1  0  0  3  0  0  0  0  0  0
  190.1630  178.3450  143.6000 C   0  0  0  0  0  3  0  0  0  0  0  0
  188.3450  176.7500  142.7860 C   0  0  0  0  0  3  0  0  0  0  0  0
  189.6970  177.3710  142.5600 C   0  0  2  0  0  0  0  0  0  0  0  0
  189.6730  178.2420  144.8440 C   0  0  0  0  0  3  0  0  0  0  0  0
  188.5020  177.2140  147.7010 C   0  0  0  0  0  1  0  0  0  0  0  0
  187.8420  177.5620  146.3810 C   0  0  0  0  0  2  0  0  0  0  0  0
  1  2  1  0  0  0  0
  2  7  1  1  0  0  0
  3  6  1  0  0  0  0
  3  1  2  0  0  0  0
  4  2  1  0  0  0  0
  5  4  1  0  0  0  0
  5 23  1  1  0  0  0
  6  5  1  0  0  0  0
  9 10  1  0  0  0  0
  9  8  1  0  0  0  0
  9 11  1  1  0  0  0
 10  7  1  6  0  0  0
 10  8  1  0  0  0  0
 11 18  1  1  0  0  0
 12 16  1  0  0  0  0
 12 11  1  0  0  0  0
 13 15  2  0  0  0  0
 13 17  1  0  0  0  0
 14 16  2  0  0  0  0
 15 14  1  0  0  0  0
 17 12  2  0  0  0  0
 18 19  1  0  0  0  0
 19 22  1  0  0  0  0
 19 21  1  1  0  0  0
 19 20  1  0  0  0  0
 22 20  1  0  0  0  0
 23 33  1  0  0  0  0
 24 29  1  0  0  0  0
 24 27  2  1  0  0  0
 24 26  1  0  0  0  0
 25 32  1  0  0  0  0
 25 28  1  0  0  0  0
 26 30  1  0  0  0  0
 28 23  1  6  0  0  0
 29 25  1  0  0  0  0
 30 28  1  0  0  0  0
 31 32  1  0  0  0  0
 35 33  1  6  0  0  0
 35 34  1  0  0  0  0
 35 40  1  0  0  0  0
 36 37  1  0  0  0  0
 37 43  1  1  0  0  0
 38 41  2  0  0  0  0
 39 36  2  0  0  0  0
 40 34  1  1  0  0  0
 40 39  1  0  0  0  0
 40 38  1  0  0  0  0
 41 37  1  0  0  0  0
 43 42  1  0  0  0  0
M  END
>  <MODEL>
9

>  <REMARK>
 VINA RESULT:      -5.8      4.268      9.076
  Name = 
  12 active torsions:
  status: ('A' for Active; 'I' for Inactive)
    1  A    between atoms: C_4  and  C_14
    2  A    between atoms: C_6  and  N_17
    3  A    between atoms: C_8  and  C_34
    4  A    between atoms: C_10  and  O_41
    5  A    between atoms: C_11  and  C_14
    6  A    between atoms: C_12  and  N_17
    7  A    between atoms: C_14  and  O_41
    8  A    between atoms: N_16  and  C_43
    9  A    between atoms: C_19  and  C_37
   10  A    between atoms: C_21  and  N_30
   11  A    between atoms: C_27  and  N_30
   12  A    between atoms: N_30  and  C_34
                            x       y       z     vdW  Elec       q    Type
                         _______ _______ _______ _____ _____    ______ ____

>  <TORSDO>
F 12

$$$$
