=
 OpenBabel10262421283D

 32 37  0  0  1  0  0  0  0  0999 V2000
  188.2440  177.8300  146.9980 N   0  0  0  0  0  0  0  0  0  0  0  0
  184.5700  178.5230  143.4360 C   0  0  0  0  0  0  0  0  0  0  0  0
  187.2370  178.2620  139.3190 C   0  0  0  0  0  3  0  0  0  0  0  0
  185.9740  178.1430  138.5130 C   0  0  0  0  0  2  0  0  0  0  0  0
  182.0660  178.8440  142.8780 C   0  0  0  0  0  0  0  0  0  0  0  0
  181.3420  178.7150  144.0620 C   0  0  0  0  0  3  0  0  0  0  0  0
  185.7170  177.8770  145.6650 C   0  0  1  0  0  3  0  0  0  0  0  0
  187.0310  178.0590  143.5540 C   0  0  0  0  0  3  0  0  0  0  0  0
  180.0830  179.1240  141.5910 C   0  0  0  0  0  0  0  0  0  0  0  0
  188.2730  177.4790  145.5730 C   0  0  0  0  0  2  0  0  0  0  0  0
  187.1940  178.3760  140.6490 C   0  0  0  0  0  3  0  0  0  0  0  0
  185.8150  178.3640  142.7690 C   0  0  0  0  0  0  0  0  0  0  0  0
  185.8980  178.4930  141.3560 C   0  0  0  0  0  0  0  0  0  0  0  0
  183.5210  178.8690  141.2600 C   0  0  0  0  0  0  0  0  0  0  0  0
  179.3100  179.0110  142.7540 C   0  0  0  0  0  3  0  0  0  0  0  0
  187.1160  178.4740  147.6140 C   0  0  0  0  0  3  0  0  0  0  0  0
  187.0050  177.8700  144.8740 C   0  0  0  0  0  0  0  0  0  0  0  0
  179.9460  178.8060  143.9890 C   0  0  0  0  0  3  0  0  0  0  0  0
  185.9370  178.5390  146.9960 C   0  0  0  0  0  3  0  0  0  0  0  0
  184.8410  178.9850  139.1100 C   0  0  0  0  0  2  0  0  0  0  0  0
  184.7360  178.7550  140.5930 C   0  0  0  0  0  0  0  0  0  0  0  0
  182.3060  179.0520  140.7000 N   0  0  0  0  0  0  0  0  0  0  0  0
  184.5580  178.4930  144.9200 C   0  0  0  0  0  0  0  0  0  0  0  0
  183.5930  178.9820  145.5690 O   0  0  0  0  0  0  0  0  0  0  0  0
  179.4230  179.3220  140.2690 C   0  0  0  0  0  1  0  0  0  0  0  0
  183.4290  178.7430  142.6350 C   0  0  0  0  0  0  0  0  0  0  0  0
  181.4360  179.0300  141.7000 N   0  0  0  0  0  0  0  0  0  0  0  0
  189.4630  177.6340  147.7730 C   0  0  0  0  0  2  0  0  0  0  0  0
  191.6630  176.4030  147.4810 C   0  0  0  0  0  0  0  0  0  0  0  0
  190.2740  176.5760  147.1860 N   0  0  0  0  0  2  0  0  0  0  0  0
  192.4020  175.3880  146.8110 N   0  0  0  0  0  1  0  0  0  0  0  0
  192.2340  177.1240  148.3420 O   0  0  0  0  0  0  0  0  0  0  0  0
  1 16  1  0  0  0  0
  1 28  1  0  0  0  0
  2 23  1  0  0  0  0
  3 11  2  0  0  0  0
  4 20  1  0  0  0  0
  4  3  1  0  0  0  0
  5  6  1  0  0  0  0
  7 19  1  1  0  0  0
  8 17  2  0  0  0  0
  9 27  1  0  0  0  0
  9 15  2  0  0  0  0
 10  1  1  0  0  0  0
 11 13  1  0  0  0  0
 12  2  2  0  0  0  0
 12  8  1  0  0  0  0
 13 12  1  0  0  0  0
 14 26  1  0  0  0  0
 15 18  1  0  0  0  0
 17 10  1  0  0  0  0
 17  7  1  0  0  0  0
 18  6  2  0  0  0  0
 19 16  2  0  0  0  0
 20 21  1  0  0  0  0
 21 14  1  0  0  0  0
 21 13  2  0  0  0  0
 22 14  2  0  0  0  0
 22 27  1  0  0  0  0
 23 24  2  0  0  0  0
 23  7  1  0  0  0  0
 25  9  1  0  0  0  0
 26  5  2  0  0  0  0
 26  2  1  0  0  0  0
 27  5  1  0  0  0  0
 29 32  2  0  0  0  0
 30 29  1  0  0  0  0
 30 28  1  0  0  0  0
 31 29  1  0  0  0  0
M  END
>  <MODEL>
1

>  <REMARK>
 VINA RESULT:     -11.5      0.000      0.000
  Name = 
  2 active torsions:
  status: ('A' for Active; 'I' for Inactive)
    1  A    between atoms: N_2  and  C_24
    2  A    between atoms: N_10  and  C_24
                            x       y       z     vdW  Elec       q    Type
                         _______ _______ _______ _____ _____    ______ ____

>  <TORSDO>
F 2

$$$$
=
 OpenBabel10262421283D

 32 37  0  0  1  0  0  0  0  0999 V2000
  192.5780  176.7550  138.7760 N   0  0  0  0  0  0  0  0  0  0  0  0
  188.9920  177.4870  142.4190 C   0  0  0  0  0  0  0  0  0  0  0  0
  191.6300  176.6360  146.4740 C   0  0  0  0  0  3  0  0  0  0  0  0
  190.5280  177.2230  147.3100 C   0  0  0  0  0  2  0  0  0  0  0  0
  186.5700  178.1520  143.0330 C   0  0  0  0  0  0  0  0  0  0  0  0
  185.9290  178.5690  141.8680 C   0  0  0  0  0  3  0  0  0  0  0  0
  190.2570  177.6710  140.1680 C   0  0  1  0  0  3  0  0  0  0  0  0
  191.4380  176.9640  142.2460 C   0  0  0  0  0  3  0  0  0  0  0  0
  184.6590  178.6430  144.3650 C   0  0  0  0  0  0  0  0  0  0  0  0
  192.7680  177.0470  140.2020 C   0  0  0  0  0  2  0  0  0  0  0  0
  191.5210  176.5670  145.1440 C   0  0  0  0  0  3  0  0  0  0  0  0
  190.2140  177.1420  143.0580 C   0  0  0  0  0  0  0  0  0  0  0  0
  190.2670  176.9710  144.4670 C   0  0  0  0  0  0  0  0  0  0  0  0
  187.9320  177.5430  144.6170 C   0  0  0  0  0  0  0  0  0  0  0  0
  183.9670  179.0630  143.2220 C   0  0  0  0  0  3  0  0  0  0  0  0
  191.2760  176.6070  138.1830 C   0  0  0  0  0  3  0  0  0  0  0  0
  191.4610  177.1680  140.9290 C   0  0  0  0  0  0  0  0  0  0  0  0
  184.6090  179.0230  141.9730 C   0  0  0  0  0  3  0  0  0  0  0  0
  190.1770  176.9950  138.8290 C   0  0  0  0  0  3  0  0  0  0  0  0
  189.1470  176.8940  146.7350 C   0  0  0  0  0  2  0  0  0  0  0  0
  189.1100  177.1680  145.2560 C   0  0  0  0  0  0  0  0  0  0  0  0
  186.7520  177.8360  145.2040 N   0  0  0  0  0  0  0  0  0  0  0  0
  188.9630  177.5410  140.9360 C   0  0  0  0  0  0  0  0  0  0  0  0
  187.8720  177.4730  140.3070 O   0  0  0  0  0  0  0  0  0  0  0  0
  183.9990  178.6970  145.7010 C   0  0  0  0  0  1  0  0  0  0  0  0
  187.8700  177.7150  143.2450 C   0  0  0  0  0  0  0  0  0  0  0  0
  185.9390  178.2070  144.2250 N   0  0  0  0  0  0  0  0  0  0  0  0
  193.7620  176.4750  137.9740 C   0  0  0  0  0  2  0  0  0  0  0  0
  195.1350  174.5190  138.8270 C   0  0  0  0  0  0  0  0  0  0  0  0
  194.0830  175.0550  138.0200 N   0  0  0  0  0  2  0  0  0  0  0  0
  195.4320  173.1290  138.7620 N   0  0  0  0  0  1  0  0  0  0  0  0
  195.7880  175.2590  139.6100 O   0  0  0  0  0  0  0  0  0  0  0  0
  1 10  1  0  0  0  0
  2 12  2  0  0  0  0
  2 26  1  0  0  0  0
  3  4  1  0  0  0  0
  5 26  2  0  0  0  0
  5 27  1  0  0  0  0
  6 18  2  0  0  0  0
  6  5  1  0  0  0  0
  7 19  1  6  0  0  0
  7 17  1  0  0  0  0
  7 23  1  0  0  0  0
  8 12  1  0  0  0  0
  9 25  1  0  0  0  0
 10 17  1  0  0  0  0
 11  3  2  0  0  0  0
 12 13  1  0  0  0  0
 13 11  1  0  0  0  0
 13 21  2  0  0  0  0
 14 22  2  0  0  0  0
 14 21  1  0  0  0  0
 15  9  2  0  0  0  0
 16  1  1  0  0  0  0
 16 19  2  0  0  0  0
 17  8  2  0  0  0  0
 18 15  1  0  0  0  0
 20  4  1  0  0  0  0
 21 20  1  0  0  0  0
 23  2  1  0  0  0  0
 24 23  2  0  0  0  0
 26 14  1  0  0  0  0
 27  9  1  0  0  0  0
 27 22  1  0  0  0  0
 28 30  1  0  0  0  0
 28  1  1  0  0  0  0
 29 32  2  0  0  0  0
 30 29  1  0  0  0  0
 31 29  1  0  0  0  0
M  END
>  <MODEL>
2

>  <REMARK>
 VINA RESULT:     -11.4      4.563      7.320
  Name = 
  2 active torsions:
  status: ('A' for Active; 'I' for Inactive)
    1  A    between atoms: N_2  and  C_24
    2  A    between atoms: N_10  and  C_24
                            x       y       z     vdW  Elec       q    Type
                         _______ _______ _______ _____ _____    ______ ____

>  <TORSDO>
F 2

$$$$
=
 OpenBabel10262421283D

 32 37  0  0  1  0  0  0  0  0999 V2000
  183.0140  179.2220  140.2260 N   0  0  0  0  0  0  0  0  0  0  0  0
  187.1370  177.9870  143.0800 C   0  0  0  0  0  0  0  0  0  0  0  0
  190.5500  177.5000  139.5820 C   0  0  0  0  0  3  0  0  0  0  0  0
  191.6240  177.4990  140.6340 C   0  0  0  0  0  2  0  0  0  0  0  0
  188.1730  177.6140  145.4200 C   0  0  0  0  0  0  0  0  0  0  0  0
  187.2160  177.9540  146.3740 C   0  0  0  0  0  3  0  0  0  0  0  0
  184.8470  178.9870  142.4070 C   0  0  1  0  0  3  0  0  0  0  0  0
  186.5570  178.4270  140.6810 C   0  0  0  0  0  3  0  0  0  0  0  0
  189.8030  177.1480  147.0920 C   0  0  0  0  0  0  0  0  0  0  0  0
  184.4360  179.3240  139.8740 C   0  0  0  0  0  2  0  0  0  0  0  0
  189.2620  177.6160  139.9160 C   0  0  0  0  0  3  0  0  0  0  0  0
  187.5300  178.0110  141.7150 C   0  0  0  0  0  0  0  0  0  0  0  0
  188.8490  177.6410  141.3380 C   0  0  0  0  0  0  0  0  0  0  0  0
  189.4040  177.2910  143.6550 C   0  0  0  0  0  0  0  0  0  0  0  0
  188.8740  177.4690  148.0900 C   0  0  0  0  0  3  0  0  0  0  0  0
  182.5660  178.7090  141.4930 C   0  0  0  0  0  3  0  0  0  0  0  0
  185.3240  178.8390  140.9810 C   0  0  0  0  0  0  0  0  0  0  0  0
  187.5790  177.8720  147.7240 C   0  0  0  0  0  3  0  0  0  0  0  0
  183.4100  178.5580  142.5130 C   0  0  0  0  0  3  0  0  0  0  0  0
  191.1620  176.7900  141.9110 C   0  0  0  0  0  2  0  0  0  0  0  0
  189.7970  177.2710  142.3200 C   0  0  0  0  0  0  0  0  0  0  0  0
  190.1810  177.0330  144.7290 N   0  0  0  0  0  0  0  0  0  0  0  0
  185.7180  178.2700  143.4100 C   0  0  0  0  0  0  0  0  0  0  0  0
  185.2270  177.9140  144.5160 O   0  0  0  0  0  0  0  0  0  0  0  0
  191.1870  176.7380  147.4620 C   0  0  0  0  0  1  0  0  0  0  0  0
  188.1230  177.6510  144.0330 C   0  0  0  0  0  0  0  0  0  0  0  0
  189.4150  177.2380  145.7910 N   0  0  0  0  0  0  0  0  0  0  0  0
  182.0320  179.5280  139.1940 C   0  0  0  0  0  2  0  0  0  0  0  0
  180.2730  181.3360  139.4700 C   0  0  0  0  0  0  0  0  0  0  0  0
  180.8120  180.0510  139.7920 N   0  0  0  0  0  2  0  0  0  0  0  0
  179.1150  181.8030  140.1520 N   0  0  0  0  0  1  0  0  0  0  0  0
  180.8000  182.0500  138.5750 O   0  0  0  0  0  0  0  0  0  0  0  0
  1 16  1  0  0  0  0
  2 23  1  0  0  0  0
  2 26  1  0  0  0  0
  3 11  2  0  0  0  0
  3  4  1  0  0  0  0
  4 20  1  0  0  0  0
  5 27  1  0  0  0  0
  5  6  1  0  0  0  0
  6 18  2  0  0  0  0
  7 19  1  6  0  0  0
  7 23  1  0  0  0  0
  8 17  2  0  0  0  0
  8 12  1  0  0  0  0
  9 25  1  0  0  0  0
  9 15  2  0  0  0  0
 10  1  1  0  0  0  0
 10 17  1  0  0  0  0
 11 13  1  0  0  0  0
 12  2  2  0  0  0  0
 13 12  1  0  0  0  0
 13 21  2  0  0  0  0
 14 26  1  0  0  0  0
 14 22  2  0  0  0  0
 16 19  2  0  0  0  0
 17  7  1  0  0  0  0
 18 15  1  0  0  0  0
 20 21  1  0  0  0  0
 21 14  1  0  0  0  0
 22 27  1  0  0  0  0
 23 24  2  0  0  0  0
 26  5  2  0  0  0  0
 27  9  1  0  0  0  0
 28 30  1  0  0  0  0
 28  1  1  0  0  0  0
 29 30  1  0  0  0  0
 29 31  1  0  0  0  0
 32 29  2  0  0  0  0
M  END
>  <MODEL>
3

>  <REMARK>
 VINA RESULT:     -11.1      2.501      8.435
  Name = 
  2 active torsions:
  status: ('A' for Active; 'I' for Inactive)
    1  A    between atoms: N_2  and  C_24
    2  A    between atoms: N_10  and  C_24
                            x       y       z     vdW  Elec       q    Type
                         _______ _______ _______ _____ _____    ______ ____

>  <TORSDO>
F 2

$$$$
=
 OpenBabel10262421283D

 32 37  0  0  1  0  0  0  0  0999 V2000
  188.3350  178.1080  137.5900 N   0  0  0  0  0  0  0  0  0  0  0  0
  187.5980  178.0470  142.7010 C   0  0  0  0  0  0  0  0  0  0  0  0
  182.7850  178.9990  142.9350 C   0  0  0  0  0  3  0  0  0  0  0  0
  182.7790  178.5970  144.3830 C   0  0  0  0  0  2  0  0  0  0  0  0
  188.5670  177.6730  145.0690 C   0  0  0  0  0  0  0  0  0  0  0  0
  189.8770  177.2180  144.9300 C   0  0  0  0  0  3  0  0  0  0  0  0
  188.6210  177.5450  140.3770 C   0  0  1  0  0  3  0  0  0  0  0  0
  186.2610  178.3180  140.5970 C   0  0  0  0  0  3  0  0  0  0  0  0
  188.6590  177.4870  147.4400 C   0  0  0  0  0  0  0  0  0  0  0  0
  187.0820  177.9270  138.3320 C   0  0  0  0  0  2  0  0  0  0  0  0
  183.9100  178.9600  142.2160 C   0  0  0  0  0  3  0  0  0  0  0  0
  186.3550  178.3300  142.0730 C   0  0  0  0  0  0  0  0  0  0  0  0
  185.2030  178.6200  142.8530 C   0  0  0  0  0  0  0  0  0  0  0  0
  186.4900  178.2880  144.8620 C   0  0  0  0  0  0  0  0  0  0  0  0
  189.9820  177.0350  147.3560 C   0  0  0  0  0  3  0  0  0  0  0  0
  189.5970  178.3270  138.2440 C   0  0  0  0  0  3  0  0  0  0  0  0
  187.2930  177.9960  139.8150 C   0  0  0  0  0  0  0  0  0  0  0  0
  190.5870  176.9020  146.0960 C   0  0  0  0  0  3  0  0  0  0  0  0
  189.7440  178.1040  139.5500 C   0  0  0  0  0  3  0  0  0  0  0  0
  184.0780  179.0030  145.0880 C   0  0  0  0  0  2  0  0  0  0  0  0
  185.2730  178.6040  144.2660 C   0  0  0  0  0  0  0  0  0  0  0  0
  186.7330  178.1620  146.1840 N   0  0  0  0  0  0  0  0  0  0  0  0
  188.7950  177.8650  141.8420 C   0  0  0  0  0  0  0  0  0  0  0  0
  189.9570  177.9810  142.3190 O   0  0  0  0  0  0  0  0  0  0  0  0
  187.9940  177.6150  148.7680 C   0  0  0  0  0  1  0  0  0  0  0  0
  187.6170  178.0020  144.1110 C   0  0  0  0  0  0  0  0  0  0  0  0
  188.0000  177.7840  146.2880 N   0  0  0  0  0  0  0  0  0  0  0  0
  188.2600  178.2020  136.1380 C   0  0  0  0  0  2  0  0  0  0  0  0
  188.8590  175.8910  135.2770 C   0  0  0  0  0  0  0  0  0  0  0  0
  189.1850  177.2620  135.5190 N   0  0  0  0  0  2  0  0  0  0  0  0
  189.8450  175.0200  134.7340 N   0  0  0  0  0  1  0  0  0  0  0  0
  187.7040  175.4500  135.5220 O   0  0  0  0  0  0  0  0  0  0  0  0
  1 16  1  0  0  0  0
  1 10  1  0  0  0  0
  2 26  1  0  0  0  0
  3  4  1  0  0  0  0
  4 20  1  0  0  0  0
  5 27  1  0  0  0  0
  6  5  1  0  0  0  0
  6 18  2  0  0  0  0
  7 19  1  6  0  0  0
  7 23  1  0  0  0  0
  8 12  1  0  0  0  0
  9 25  1  0  0  0  0
 10 17  1  0  0  0  0
 11 13  1  0  0  0  0
 11  3  2  0  0  0  0
 12  2  2  0  0  0  0
 12 13  1  0  0  0  0
 13 21  2  0  0  0  0
 14 22  2  0  0  0  0
 15  9  2  0  0  0  0
 16 19  2  0  0  0  0
 17  7  1  0  0  0  0
 17  8  2  0  0  0  0
 18 15  1  0  0  0  0
 21 14  1  0  0  0  0
 21 20  1  0  0  0  0
 22 27  1  0  0  0  0
 23 24  2  0  0  0  0
 23  2  1  0  0  0  0
 26 14  1  0  0  0  0
 26  5  2  0  0  0  0
 27  9  1  0  0  0  0
 28  1  1  0  0  0  0
 29 30  1  0  0  0  0
 29 32  2  0  0  0  0
 30 28  1  0  0  0  0
 31 29  1  0  0  0  0
M  END
>  <MODEL>
4

>  <REMARK>
 VINA RESULT:     -10.9      3.894      8.269
  Name = 
  2 active torsions:
  status: ('A' for Active; 'I' for Inactive)
    1  A    between atoms: N_2  and  C_24
    2  A    between atoms: N_10  and  C_24
                            x       y       z     vdW  Elec       q    Type
                         _______ _______ _______ _____ _____    ______ ____

>  <TORSDO>
F 2

$$$$
=
 OpenBabel10262421283D

 32 37  0  0  1  0  0  0  0  0999 V2000
  181.8360  179.1600  142.2030 N   0  0  0  0  0  0  0  0  0  0  0  0
  186.4720  178.0970  144.2140 C   0  0  0  0  0  0  0  0  0  0  0  0
  189.1020  177.4150  140.1210 C   0  0  0  0  0  3  0  0  0  0  0  0
  190.3680  177.4760  140.9290 C   0  0  0  0  0  2  0  0  0  0  0  0
  187.9710  177.8590  146.3080 C   0  0  0  0  0  0  0  0  0  0  0  0
  187.2250  178.2510  147.4180 C   0  0  0  0  0  3  0  0  0  0  0  0
  184.0800  179.0520  143.9700 C   0  0  1  0  0  3  0  0  0  0  0  0
  185.4070  178.3970  141.9650 C   0  0  0  0  0  3  0  0  0  0  0  0
  189.9140  177.4910  147.6320 C   0  0  0  0  0  0  0  0  0  0  0  0
  183.1540  179.2430  141.5610 C   0  0  0  0  0  2  0  0  0  0  0  0
  187.9080  177.5480  140.7060 C   0  0  0  0  0  3  0  0  0  0  0  0
  186.5770  178.0420  142.7980 C   0  0  0  0  0  0  0  0  0  0  0  0
  187.7950  177.6540  142.1790 C   0  0  0  0  0  0  0  0  0  0  0  0
  188.8180  177.4370  144.3480 C   0  0  0  0  0  0  0  0  0  0  0  0
  189.2060  177.8680  148.7810 C   0  0  0  0  0  3  0  0  0  0  0  0
  181.6640  178.7200  143.5610 C   0  0  0  0  0  3  0  0  0  0  0  0
  184.2570  178.8240  142.4870 C   0  0  0  0  0  0  0  0  0  0  0  0
  187.8590  178.2480  148.6670 C   0  0  0  0  0  3  0  0  0  0  0  0
  182.7010  178.6280  144.3930 C   0  0  0  0  0  3  0  0  0  0  0  0
  190.1880  176.8400  142.3110 C   0  0  0  0  0  2  0  0  0  0  0  0
  188.9290  177.3410  142.9640 C   0  0  0  0  0  0  0  0  0  0  0  0
  189.8020  177.2420  145.2530 N   0  0  0  0  0  0  0  0  0  0  0  0
  185.1470  178.3960  144.8120 C   0  0  0  0  0  0  0  0  0  0  0  0
  184.8980  178.1030  146.0130 O   0  0  0  0  0  0  0  0  0  0  0  0
  191.3500  177.1050  147.7320 C   0  0  0  0  0  1  0  0  0  0  0  0
  187.6370  177.8170  144.9610 C   0  0  0  0  0  0  0  0  0  0  0  0
  189.2670  177.5070  146.4360 N   0  0  0  0  0  0  0  0  0  0  0  0
  180.6600  179.4050  141.3790 C   0  0  0  0  0  2  0  0  0  0  0  0
  179.8520  177.1190  140.6300 C   0  0  0  0  0  0  0  0  0  0  0  0
  180.5160  178.3600  140.3750 N   0  0  0  0  0  2  0  0  0  0  0  0
  179.8170  176.1210  139.6170 N   0  0  0  0  0  1  0  0  0  0  0  0
  179.2830  176.9080  141.7340 O   0  0  0  0  0  0  0  0  0  0  0  0
  1 16  1  0  0  0  0
  2 23  1  0  0  0  0
  2 26  1  0  0  0  0
  3 11  2  0  0  0  0
  3  4  1  0  0  0  0
  4 20  1  0  0  0  0
  5 27  1  0  0  0  0
  5  6  1  0  0  0  0
  6 18  2  0  0  0  0
  7 19  1  1  0  0  0
  7 23  1  0  0  0  0
  8 17  2  0  0  0  0
  8 12  1  0  0  0  0
  9 25  1  0  0  0  0
  9 15  2  0  0  0  0
 10  1  1  0  0  0  0
 10 17  1  0  0  0  0
 11 13  1  0  0  0  0
 12  2  2  0  0  0  0
 13 12  1  0  0  0  0
 13 21  2  0  0  0  0
 14 26  1  0  0  0  0
 14 22  2  0  0  0  0
 16 19  2  0  0  0  0
 17  7  1  0  0  0  0
 18 15  1  0  0  0  0
 20 21  1  0  0  0  0
 21 14  1  0  0  0  0
 22 27  1  0  0  0  0
 23 24  2  0  0  0  0
 26  5  2  0  0  0  0
 27  9  1  0  0  0  0
 28  1  1  0  0  0  0
 29 32  2  0  0  0  0
 30 29  1  0  0  0  0
 30 28  1  0  0  0  0
 31 29  1  0  0  0  0
M  END
>  <MODEL>
5

>  <REMARK>
 VINA RESULT:     -10.8      1.996      8.048
  Name = 
  2 active torsions:
  status: ('A' for Active; 'I' for Inactive)
    1  A    between atoms: N_2  and  C_24
    2  A    between atoms: N_10  and  C_24
                            x       y       z     vdW  Elec       q    Type
                         _______ _______ _______ _____ _____    ______ ____

>  <TORSDO>
F 2

$$$$
=
 OpenBabel10262421283D

 32 37  0  0  1  0  0  0  0  0999 V2000
  181.1000  179.2630  139.9330 N   0  0  0  0  0  0  0  0  0  0  0  0
  185.8250  178.3450  141.8050 C   0  0  0  0  0  0  0  0  0  0  0  0
  184.8920  178.2720  146.6270 C   0  0  0  0  0  3  0  0  0  0  0  0
  186.2500  177.6790  146.8780 C   0  0  0  0  0  2  0  0  0  0  0  0
  188.3220  177.8470  141.3550 C   0  0  0  0  0  0  0  0  0  0  0  0
  188.4870  177.6870  139.9800 C   0  0  0  0  0  3  0  0  0  0  0  0
  183.8090  178.3860  140.1820 C   0  0  1  0  0  3  0  0  0  0  0  0
  183.4790  178.6330  142.6410 C   0  0  0  0  0  3  0  0  0  0  0  0
  190.6120  177.3550  141.7780 C   0  0  0  0  0  0  0  0  0  0  0  0
  181.4770  178.7330  141.2490 C   0  0  0  0  0  2  0  0  0  0  0  0
  184.4860  178.5590  145.3870 C   0  0  0  0  0  3  0  0  0  0  0  0
  184.9250  178.4570  142.8990 C   0  0  0  0  0  0  0  0  0  0  0  0
  185.4030  178.3990  144.2360 C   0  0  0  0  0  0  0  0  0  0  0  0
  187.6400  178.0560  143.4110 C   0  0  0  0  0  0  0  0  0  0  0  0
  190.8340  177.1930  140.4050 C   0  0  0  0  0  3  0  0  0  0  0  0
  182.0740  179.6370  138.9420 C   0  0  0  0  0  3  0  0  0  0  0  0
  182.9650  178.6360  141.4100 C   0  0  0  0  0  0  0  0  0  0  0  0
  189.7650  177.3610  139.5080 C   0  0  0  0  0  3  0  0  0  0  0  0
  183.3500  179.2690  139.0560 C   0  0  0  0  0  3  0  0  0  0  0  0
  187.2970  178.2350  145.9070 C   0  0  0  0  0  2  0  0  0  0  0  0
  186.7800  178.2020  144.4950 C   0  0  0  0  0  0  0  0  0  0  0  0
  188.9650  177.7980  143.4600 N   0  0  0  0  0  0  0  0  0  0  0  0
  185.2910  178.5280  140.4320 C   0  0  0  0  0  0  0  0  0  0  0  0
  186.0590  178.8060  139.4720 O   0  0  0  0  0  0  0  0  0  0  0  0
  191.7300  177.1610  142.7450 C   0  0  0  0  0  1  0  0  0  0  0  0
  187.1830  178.1090  142.1060 C   0  0  0  0  0  0  0  0  0  0  0  0
  189.3590  177.6720  142.2000 N   0  0  0  0  0  0  0  0  0  0  0  0
  179.6910  179.5410  139.6870 C   0  0  0  0  0  2  0  0  0  0  0  0
  179.1310  182.0150  139.7400 C   0  0  0  0  0  0  0  0  0  0  0  0
  179.5340  180.8350  139.0390 N   0  0  0  0  0  2  0  0  0  0  0  0
  178.9310  183.2260  139.0200 N   0  0  0  0  0  1  0  0  0  0  0  0
  178.9710  182.0000  140.9900 O   0  0  0  0  0  0  0  0  0  0  0  0
  1 10  1  0  0  0  0
  2 26  1  0  0  0  0
  2 12  2  0  0  0  0
  3  4  1  0  0  0  0
  5 26  2  0  0  0  0
  5 27  1  0  0  0  0
  6  5  1  0  0  0  0
  7 19  1  6  0  0  0
  7 23  1  0  0  0  0
  7 17  1  0  0  0  0
  8 12  1  0  0  0  0
  9 27  1  0  0  0  0
  9 25  1  0  0  0  0
 10 17  1  0  0  0  0
 11  3  2  0  0  0  0
 12 13  1  0  0  0  0
 13 21  2  0  0  0  0
 13 11  1  0  0  0  0
 14 22  2  0  0  0  0
 14 21  1  0  0  0  0
 15  9  2  0  0  0  0
 16 19  2  0  0  0  0
 16  1  1  0  0  0  0
 17  8  2  0  0  0  0
 18  6  2  0  0  0  0
 18 15  1  0  0  0  0
 20  4  1  0  0  0  0
 21 20  1  0  0  0  0
 23  2  1  0  0  0  0
 24 23  2  0  0  0  0
 26 14  1  0  0  0  0
 27 22  1  0  0  0  0
 28  1  1  0  0  0  0
 29 32  2  0  0  0  0
 30 28  1  0  0  0  0
 30 29  1  0  0  0  0
 31 29  1  0  0  0  0
M  END
>  <MODEL>
6

>  <REMARK>
 VINA RESULT:     -10.3      3.099      9.187
  Name = 
  2 active torsions:
  status: ('A' for Active; 'I' for Inactive)
    1  A    between atoms: N_2  and  C_24
    2  A    between atoms: N_10  and  C_24
                            x       y       z     vdW  Elec       q    Type
                         _______ _______ _______ _____ _____    ______ ____

>  <TORSDO>
F 2

$$$$
=
 OpenBabel10262421283D

 32 37  0  0  1  0  0  0  0  0999 V2000
  192.1040  177.1770  139.9610 N   0  0  0  0  0  0  0  0  0  0  0  0
  187.5300  177.8930  142.2490 C   0  0  0  0  0  0  0  0  0  0  0  0
  188.8060  177.4880  146.9750 C   0  0  0  0  0  3  0  0  0  0  0  0
  187.4720  178.0500  147.3800 C   0  0  0  0  0  2  0  0  0  0  0  0
  185.0090  178.4270  142.0300 C   0  0  0  0  0  0  0  0  0  0  0  0
  184.7460  178.7230  140.6940 C   0  0  0  0  0  3  0  0  0  0  0  0
  189.4240  178.0190  140.4900 C   0  0  1  0  0  3  0  0  0  0  0  0
  189.9280  177.5290  142.8820 C   0  0  0  0  0  3  0  0  0  0  0  0
  182.7570  178.8690  142.6630 C   0  0  0  0  0  0  0  0  0  0  0  0
  191.8250  177.5730  141.3460 C   0  0  0  0  0  2  0  0  0  0  0  0
  189.1200  177.3260  145.6870 C   0  0  0  0  0  3  0  0  0  0  0  0
  188.5050  177.6740  143.2590 C   0  0  0  0  0  0  0  0  0  0  0  0
  188.1240  177.5980  144.6260 C   0  0  0  0  0  0  0  0  0  0  0  0
  185.8350  178.0160  144.0010 C   0  0  0  0  0  0  0  0  0  0  0  0
  182.4390  179.1660  141.3320 C   0  0  0  0  0  3  0  0  0  0  0  0
  191.0600  176.9020  139.0100 C   0  0  0  0  0  3  0  0  0  0  0  0
  190.3530  177.6500  141.6230 C   0  0  0  0  0  0  0  0  0  0  0  0
  183.4390  179.0910  140.3500 C   0  0  0  0  0  3  0  0  0  0  0  0
  189.7970  177.2540  139.2510 C   0  0  0  0  0  3  0  0  0  0  0  0
  186.3560  177.5900  146.4360 C   0  0  0  0  0  2  0  0  0  0  0  0
  186.7700  177.7650  145.0010 C   0  0  0  0  0  0  0  0  0  0  0  0
  184.5190  178.2650  144.1700 N   0  0  0  0  0  0  0  0  0  0  0  0
  187.9630  177.8490  140.8300 C   0  0  0  0  0  0  0  0  0  0  0  0
  187.1270  177.6660  139.9040 O   0  0  0  0  0  0  0  0  0  0  0  0
  181.7120  178.9630  143.7220 C   0  0  0  0  0  1  0  0  0  0  0  0
  186.1970  178.0950  142.6680 C   0  0  0  0  0  0  0  0  0  0  0  0
  184.0360  178.5150  142.9610 N   0  0  0  0  0  0  0  0  0  0  0  0
  193.4900  176.9290  139.5880 C   0  0  0  0  0  2  0  0  0  0  0  0
  193.9820  175.6700  137.4400 C   0  0  0  0  0  0  0  0  0  0  0  0
  193.6240  176.8660  138.1400 N   0  0  0  0  0  2  0  0  0  0  0  0
  194.1620  175.7090  136.0290 N   0  0  0  0  0  1  0  0  0  0  0  0
  194.1190  174.5800  138.0560 O   0  0  0  0  0  0  0  0  0  0  0  0
  1 10  1  0  0  0  0
  2 26  1  0  0  0  0
  2 12  2  0  0  0  0
  3  4  1  0  0  0  0
  5 26  2  0  0  0  0
  5 27  1  0  0  0  0
  6  5  1  0  0  0  0
  7 19  1  6  0  0  0
  7 23  1  0  0  0  0
  7 17  1  0  0  0  0
  8 12  1  0  0  0  0
  9 27  1  0  0  0  0
  9 25  1  0  0  0  0
 10 17  1  0  0  0  0
 11  3  2  0  0  0  0
 12 13  1  0  0  0  0
 13 21  2  0  0  0  0
 13 11  1  0  0  0  0
 14 22  2  0  0  0  0
 14 21  1  0  0  0  0
 15  9  2  0  0  0  0
 16 19  2  0  0  0  0
 16  1  1  0  0  0  0
 17  8  2  0  0  0  0
 18  6  2  0  0  0  0
 18 15  1  0  0  0  0
 20  4  1  0  0  0  0
 21 20  1  0  0  0  0
 23  2  1  0  0  0  0
 24 23  2  0  0  0  0
 26 14  1  0  0  0  0
 27 22  1  0  0  0  0
 28  1  1  0  0  0  0
 29 32  2  0  0  0  0
 29 30  1  0  0  0  0
 30 28  1  0  0  0  0
 31 29  1  0  0  0  0
M  END
>  <MODEL>
7

>  <REMARK>
 VINA RESULT:     -10.3      4.402      6.526
  Name = 
  2 active torsions:
  status: ('A' for Active; 'I' for Inactive)
    1  A    between atoms: N_2  and  C_24
    2  A    between atoms: N_10  and  C_24
                            x       y       z     vdW  Elec       q    Type
                         _______ _______ _______ _____ _____    ______ ____

>  <TORSDO>
F 2

$$$$
=
 OpenBabel10262421283D

 32 37  0  0  1  0  0  0  0  0999 V2000
  190.0060  177.1430  137.8020 N   0  0  0  0  0  0  0  0  0  0  0  0
  188.6620  177.6690  142.7600 C   0  0  0  0  0  0  0  0  0  0  0  0
  183.9220  178.8710  142.2930 C   0  0  0  0  0  3  0  0  0  0  0  0
  183.7190  178.6270  143.7620 C   0  0  0  0  0  2  0  0  0  0  0  0
  189.3160  177.5070  145.2560 C   0  0  0  0  0  0  0  0  0  0  0  0
  190.6040  176.9770  145.3300 C   0  0  0  0  0  3  0  0  0  0  0  0
  189.9220  176.8710  140.6460 C   0  0  1  0  0  3  0  0  0  0  0  0
  187.6050  177.7750  140.4900 C   0  0  0  0  0  3  0  0  0  0  0  0
  189.1120  177.5740  147.6270 C   0  0  0  0  0  0  0  0  0  0  0  0
  188.6650  177.1040  138.3960 C   0  0  0  0  0  2  0  0  0  0  0  0
  185.1200  178.7010  141.7280 C   0  0  0  0  0  3  0  0  0  0  0  0
  187.5210  177.9420  141.9570 C   0  0  0  0  0  0  0  0  0  0  0  0
  186.3040  178.3690  142.5530 C   0  0  0  0  0  0  0  0  0  0  0  0
  187.3200  178.1940  144.7300 C   0  0  0  0  0  0  0  0  0  0  0  0
  190.4060  177.0530  147.7560 C   0  0  0  0  0  3  0  0  0  0  0  0
  191.1920  177.3710  138.5840 C   0  0  0  0  0  3  0  0  0  0  0  0
  188.7010  177.3220  139.8800 C   0  0  0  0  0  0  0  0  0  0  0  0
  191.1490  176.7560  146.6010 C   0  0  0  0  0  3  0  0  0  0  0  0
  191.1680  177.2840  139.9130 C   0  0  0  0  0  3  0  0  0  0  0  0
  184.9460  179.0450  144.5790 C   0  0  0  0  0  2  0  0  0  0  0  0
  186.2040  178.5030  143.9580 C   0  0  0  0  0  0  0  0  0  0  0  0
  187.3960  178.2000  146.0790 N   0  0  0  0  0  0  0  0  0  0  0  0
  189.9390  177.3390  142.0810 C   0  0  0  0  0  0  0  0  0  0  0  0
  191.0410  177.4490  142.6850 O   0  0  0  0  0  0  0  0  0  0  0  0
  188.3030  177.8760  148.8420 C   0  0  0  0  0  1  0  0  0  0  0  0
  188.5090  177.7760  144.1590 C   0  0  0  0  0  0  0  0  0  0  0  0
  188.6150  177.7760  146.3780 N   0  0  0  0  0  0  0  0  0  0  0  0
  190.1110  177.0830  136.3500 C   0  0  0  0  0  2  0  0  0  0  0  0
  191.6640  175.2440  135.5470 C   0  0  0  0  0  0  0  0  0  0  0  0
  190.3650  175.7170  135.9150 N   0  0  0  0  0  2  0  0  0  0  0  0
  191.8180  173.9150  135.0640 N   0  0  0  0  0  1  0  0  0  0  0  0
  192.6770  175.9850  135.6660 O   0  0  0  0  0  0  0  0  0  0  0  0
  1 10  1  0  0  0  0
  1 16  1  0  0  0  0
  2 26  1  0  0  0  0
  3  4  1  0  0  0  0
  4 20  1  0  0  0  0
  5  6  1  0  0  0  0
  5 27  1  0  0  0  0
  6 18  2  0  0  0  0
  7 19  1  6  0  0  0
  7 23  1  0  0  0  0
  8 12  1  0  0  0  0
  9 15  2  0  0  0  0
  9 25  1  0  0  0  0
 10 17  1  0  0  0  0
 11  3  2  0  0  0  0
 11 13  1  0  0  0  0
 12 13  1  0  0  0  0
 12  2  2  0  0  0  0
 13 21  2  0  0  0  0
 14 22  2  0  0  0  0
 16 19  2  0  0  0  0
 17  8  2  0  0  0  0
 17  7  1  0  0  0  0
 18 15  1  0  0  0  0
 21 20  1  0  0  0  0
 21 14  1  0  0  0  0
 22 27  1  0  0  0  0
 23 24  2  0  0  0  0
 23  2  1  0  0  0  0
 26 14  1  0  0  0  0
 26  5  2  0  0  0  0
 27  9  1  0  0  0  0
 28  1  1  0  0  0  0
 29 32  2  0  0  0  0
 29 30  1  0  0  0  0
 30 28  1  0  0  0  0
 31 29  1  0  0  0  0
M  END
>  <MODEL>
8

>  <REMARK>
 VINA RESULT:     -10.2      4.528      8.359
  Name = 
  2 active torsions:
  status: ('A' for Active; 'I' for Inactive)
    1  A    between atoms: N_2  and  C_24
    2  A    between atoms: N_10  and  C_24
                            x       y       z     vdW  Elec       q    Type
                         _______ _______ _______ _____ _____    ______ ____

>  <TORSDO>
F 2

$$$$
=
 OpenBabel10262421283D

 32 37  0  0  1  0  0  0  0  0999 V2000
  192.4090  176.8030  138.5990 N   0  0  0  0  0  0  0  0  0  0  0  0
  188.6530  177.6670  142.0350 C   0  0  0  0  0  0  0  0  0  0  0  0
  184.8820  178.6270  139.0370 C   0  0  0  0  0  3  0  0  0  0  0  0
  183.9330  178.4930  140.1940 C   0  0  0  0  0  2  0  0  0  0  0  0
  187.8900  177.7320  144.5050 C   0  0  0  0  0  0  0  0  0  0  0  0
  188.9400  177.2640  145.2930 C   0  0  0  0  0  3  0  0  0  0  0  0
  190.8350  176.7550  140.9830 C   0  0  1  0  0  3  0  0  0  0  0  0
  188.9550  177.5460  139.5500 C   0  0  0  0  0  3  0  0  0  0  0  0
  186.4650  177.9790  146.3960 C   0  0  0  0  0  0  0  0  0  0  0  0
  190.9560  176.7550  138.3980 C   0  0  0  0  0  2  0  0  0  0  0  0
  186.1970  178.4620  139.2060 C   0  0  0  0  0  3  0  0  0  0  0  0
  188.1100  177.8260  140.7320 C   0  0  0  0  0  0  0  0  0  0  0  0
  186.7650  178.2480  140.5570 C   0  0  0  0  0  0  0  0  0  0  0  0
  186.4770  178.2910  142.9480 C   0  0  0  0  0  0  0  0  0  0  0  0
  187.4930  177.5250  147.2330 C   0  0  0  0  0  3  0  0  0  0  0  0
  193.0050  177.1420  139.8630 C   0  0  0  0  0  3  0  0  0  0  0  0
  190.2050  177.0920  139.6520 C   0  0  0  0  0  0  0  0  0  0  0  0
  188.7310  177.1680  146.6740 C   0  0  0  0  0  3  0  0  0  0  0  0
  192.2820  177.1600  140.9830 C   0  0  0  0  0  3  0  0  0  0  0  0
  184.5460  179.0260  141.4930 C   0  0  0  0  0  2  0  0  0  0  0  0
  185.9390  178.4890  141.6790 C   0  0  0  0  0  0  0  0  0  0  0  0
  185.8290  178.4070  144.1270 N   0  0  0  0  0  0  0  0  0  0  0  0
  190.0940  177.3370  142.1630 C   0  0  0  0  0  0  0  0  0  0  0  0
  190.7110  177.5410  143.2440 O   0  0  0  0  0  0  0  0  0  0  0  0
  185.1380  178.3430  146.9700 C   0  0  0  0  0  1  0  0  0  0  0  0
  187.7850  177.8780  143.1280 C   0  0  0  0  0  0  0  0  0  0  0  0
  186.7040  178.0600  145.0600 N   0  0  0  0  0  0  0  0  0  0  0  0
  193.2640  176.6310  137.4310 C   0  0  0  0  0  2  0  0  0  0  0  0
  194.1490  174.2580  137.5870 C   0  0  0  0  0  0  0  0  0  0  0  0
  194.3230  175.6720  137.7130 N   0  0  0  0  0  2  0  0  0  0  0  0
  195.2120  173.3840  137.9510 N   0  0  0  0  0  1  0  0  0  0  0  0
  193.0740  173.7790  137.1380 O   0  0  0  0  0  0  0  0  0  0  0  0
  1 16  1  0  0  0  0
  2 23  1  0  0  0  0
  2 26  1  0  0  0  0
  3 11  2  0  0  0  0
  3  4  1  0  0  0  0
  4 20  1  0  0  0  0
  5 27  1  0  0  0  0
  5  6  1  0  0  0  0
  6 18  2  0  0  0  0
  7 19  1  6  0  0  0
  7 23  1  0  0  0  0
  8 17  2  0  0  0  0
  8 12  1  0  0  0  0
  9 25  1  0  0  0  0
  9 15  2  0  0  0  0
 10  1  1  0  0  0  0
 10 17  1  0  0  0  0
 11 13  1  0  0  0  0
 12  2  2  0  0  0  0
 13 12  1  0  0  0  0
 13 21  2  0  0  0  0
 14 26  1  0  0  0  0
 14 22  2  0  0  0  0
 16 19  2  0  0  0  0
 17  7  1  0  0  0  0
 18 15  1  0  0  0  0
 20 21  1  0  0  0  0
 21 14  1  0  0  0  0
 22 27  1  0  0  0  0
 23 24  2  0  0  0  0
 26  5  2  0  0  0  0
 27  9  1  0  0  0  0
 28 30  1  0  0  0  0
 28  1  1  0  0  0  0
 29 30  1  0  0  0  0
 29 31  1  0  0  0  0
 32 29  2  0  0  0  0
M  END
>  <MODEL>
9

>  <REMARK>
 VINA RESULT:      -9.9      4.606      7.212
  Name = 
  2 active torsions:
  status: ('A' for Active; 'I' for Inactive)
    1  A    between atoms: N_2  and  C_24
    2  A    between atoms: N_10  and  C_24
                            x       y       z     vdW  Elec       q    Type
                         _______ _______ _______ _____ _____    ______ ____

>  <TORSDO>
F 2

$$$$
