=
 OpenBabel10262419493D

 25 28  0  0  1  0  0  0  0  0999 V2000
  187.4820  177.9060  145.8840 C   0  0  0  0  0  0  0  0  0  0  0  0
  188.8080  177.5300  145.6520 C   0  0  0  0  0  0  0  0  0  0  0  0
  187.8330  178.0690  148.2730 C   0  0  0  0  0  3  0  0  0  0  0  0
  186.4100  178.1010  145.0420 C   0  0  0  0  0  0  0  0  0  0  0  0
  190.7950  177.4460  144.0850 C   0  0  2  0  0  0  0  0  0  0  0  0
  184.0430  179.1100  143.8420 C   0  0  0  0  0  2  0  0  0  0  0  0
  189.1690  177.6780  148.0750 C   0  0  0  0  0  3  0  0  0  0  0  0
  185.3700  178.5050  145.8590 C   0  0  0  0  0  0  0  0  0  0  0  0
  183.9980  178.8190  145.3500 C   0  0  0  0  0  2  0  0  0  0  0  0
  191.0580  177.0110  146.5590 C   0  0  0  0  0  0  0  0  0  0  0  0
  191.8110  176.7330  147.5280 O   0  0  0  0  0  0  0  0  0  0  0  0
  189.2950  177.1590  144.2750 C   0  0  0  0  0  2  0  0  0  0  0  0
  184.8700  178.0530  143.0920 C   0  0  0  0  0  2  0  0  0  0  0  0
  187.0150  178.1760  147.1510 C   0  0  0  0  0  0  0  0  0  0  0  0
  185.7490  178.5300  147.1230 O   0  0  0  0  0  0  0  0  0  0  0  0
  191.5580  176.9270  145.2200 N   0  0  0  0  0  2  0  0  0  0  0  0
  186.3360  178.0710  143.5460 C   0  0  0  0  0  2  0  0  0  0  0  0
  191.0260  178.9490  143.9820 C   0  0  0  0  0  1  0  0  0  0  0  0
  189.6580  177.4080  146.7750 C   0  0  0  0  0  0  0  0  0  0  0  0
  191.2970  176.7580  142.8160 C   0  0  0  0  0  2  0  0  0  0  0  0
  190.1920  176.5180  141.7900 C   0  0  0  0  0  2  0  0  0  0  0  0
  190.6160  177.0300  140.4220 C   0  0  0  0  0  2  0  0  0  0  0  0
  189.5180  177.8020  139.7580 C   0  0  0  0  0  0  0  0  0  0  0  0
  188.4130  178.3610  140.5860 C   0  0  0  0  0  1  0  0  0  0  0  0
  189.4140  177.8320  138.3260 S   0  0  0  0  0  0  0  0  0  0  0  0
  1 14  1  0  0  0  0
  2  1  2  0  0  0  0
  2 19  1  0  0  0  0
  4  8  2  0  0  0  0
  4  1  1  0  0  0  0
  5 18  1  6  0  0  0
  5 12  1  0  0  0  0
  5 16  1  0  0  0  0
  6  9  1  0  0  0  0
  7  3  1  0  0  0  0
  8 15  1  0  0  0  0
  9  8  1  0  0  0  0
 10 19  1  0  0  0  0
 10 11  2  0  0  0  0
 12  2  1  0  0  0  0
 13 17  1  0  0  0  0
 13  6  1  0  0  0  0
 14  3  2  0  0  0  0
 15 14  1  0  0  0  0
 16 10  1  0  0  0  0
 17  4  1  0  0  0  0
 19  7  2  0  0  0  0
 20  5  1  0  0  0  0
 21 20  1  0  0  0  0
 22 21  1  0  0  0  0
 23 22  1  0  0  0  0
 23 24  1  0  0  0  0
 25 23  2  0  0  0  0
M  END
>  <MODEL>
1

>  <REMARK>
 VINA RESULT:     -10.9      0.000      0.000
  Name = 
  4 active torsions:
  status: ('A' for Active; 'I' for Inactive)
    1  A    between atoms: C_2  and  C_21
    2  A    between atoms: C_6  and  C_15
    3  A    between atoms: C_15  and  C_25
    4  A    between atoms: C_21  and  C_25
                            x       y       z     vdW  Elec       q    Type
                         _______ _______ _______ _____ _____    ______ ____

>  <TORSDO>
F 4

$$$$
=
 OpenBabel10262419493D

 25 28  0  0  1  0  0  0  0  0999 V2000
  187.8640  178.2330  140.7720 C   0  0  0  0  0  0  0  0  0  0  0  0
  189.1320  177.9470  141.2870 C   0  0  0  0  0  0  0  0  0  0  0  0
  188.6420  178.0840  138.4850 C   0  0  0  0  0  3  0  0  0  0  0  0
  186.6530  178.4950  141.3740 C   0  0  0  0  0  0  0  0  0  0  0  0
  190.5470  177.0110  143.1680 C   0  0  2  0  0  0  0  0  0  0  0  0
  183.8800  178.6040  141.9680 C   0  0  0  0  0  2  0  0  0  0  0  0
  189.9310  177.8070  138.9720 C   0  0  0  0  0  3  0  0  0  0  0  0
  185.7570  178.6650  140.3350 C   0  0  0  0  0  0  0  0  0  0  0  0
  184.3090  178.9800  140.5420 C   0  0  0  0  0  2  0  0  0  0  0  0
  191.5250  177.4380  140.8790 C   0  0  0  0  0  0  0  0  0  0  0  0
  192.5220  177.4030  140.1120 O   0  0  0  0  0  0  0  0  0  0  0  0
  189.4050  177.9630  142.7690 C   0  0  0  0  0  2  0  0  0  0  0  0
  184.8880  179.1150  143.0090 C   0  0  0  0  0  2  0  0  0  0  0  0
  187.6270  178.2890  139.4160 C   0  0  0  0  0  0  0  0  0  0  0  0
  186.3630  178.5520  139.1690 O   0  0  0  0  0  0  0  0  0  0  0  0
  191.6940  177.1980  142.2790 N   0  0  0  0  0  2  0  0  0  0  0  0
  186.2630  178.4580  142.8190 C   0  0  0  0  0  2  0  0  0  0  0  0
  190.0750  175.5660  143.0670 C   0  0  0  0  0  1  0  0  0  0  0  0
  190.1810  177.7390  140.3620 C   0  0  0  0  0  0  0  0  0  0  0  0
  190.9950  177.3100  144.5980 C   0  0  0  0  0  2  0  0  0  0  0  0
  189.9060  177.9730  145.4380 C   0  0  0  0  0  2  0  0  0  0  0  0
  189.5270  177.0840  146.6130 C   0  0  0  0  0  2  0  0  0  0  0  0
  188.2130  177.4890  147.2090 C   0  0  0  0  0  0  0  0  0  0  0  0
  187.0320  177.6720  146.3190 C   0  0  0  0  0  1  0  0  0  0  0  0
  188.1340  177.8970  148.5830 S   0  0  0  0  0  0  0  0  0  0  0  0
  1  2  1  0  0  0  0
  1  4  1  0  0  0  0
  2 12  1  0  0  0  0
  3  7  2  0  0  0  0
  3 14  1  0  0  0  0
  4 17  1  0  0  0  0
  5 18  1  6  0  0  0
  5 20  1  0  0  0  0
  6 13  1  0  0  0  0
  7 19  1  0  0  0  0
  8  9  1  0  0  0  0
  8  4  2  0  0  0  0
  9  6  1  0  0  0  0
 10 16  1  0  0  0  0
 11 10  2  0  0  0  0
 12  5  1  0  0  0  0
 14  1  2  0  0  0  0
 15 14  1  0  0  0  0
 15  8  1  0  0  0  0
 16  5  1  0  0  0  0
 17 13  1  0  0  0  0
 19 10  1  0  0  0  0
 19  2  2  0  0  0  0
 20 21  1  0  0  0  0
 21 22  1  0  0  0  0
 22 23  1  0  0  0  0
 23 25  2  0  0  0  0
 24 23  1  0  0  0  0
M  END
>  <MODEL>
2

>  <REMARK>
 VINA RESULT:      -8.8      3.329      5.786
  Name = 
  4 active torsions:
  status: ('A' for Active; 'I' for Inactive)
    1  A    between atoms: C_2  and  C_21
    2  A    between atoms: C_6  and  C_15
    3  A    between atoms: C_15  and  C_25
    4  A    between atoms: C_21  and  C_25
                            x       y       z     vdW  Elec       q    Type
                         _______ _______ _______ _____ _____    ______ ____

>  <TORSDO>
F 4

$$$$
=
 OpenBabel10262419493D

 25 28  0  0  1  0  0  0  0  0999 V2000
  189.7060  177.5170  144.0110 C   0  0  0  0  0  0  0  0  0  0  0  0
  188.8850  177.8160  145.1010 C   0  0  0  0  0  0  0  0  0  0  0  0
  191.5110  176.7690  145.4390 C   0  0  0  0  0  3  0  0  0  0  0  0
  189.5200  177.6230  142.6500 C   0  0  0  0  0  0  0  0  0  0  0  0
  186.5510  178.0850  146.0480 C   0  0  2  0  0  0  0  0  0  0  0  0
  189.5770  177.1420  139.8530 C   0  0  0  0  0  2  0  0  0  0  0  0
  190.7140  177.0730  146.5570 C   0  0  0  0  0  3  0  0  0  0  0  0
  190.6830  177.1350  142.0830 C   0  0  0  0  0  0  0  0  0  0  0  0
  190.9150  177.0740  140.6050 C   0  0  0  0  0  2  0  0  0  0  0  0
  188.5660  177.9030  147.5600 C   0  0  0  0  0  0  0  0  0  0  0  0
  189.0350  177.8770  148.7270 O   0  0  0  0  0  0  0  0  0  0  0  0
  187.5310  178.4540  144.9200 C   0  0  0  0  0  2  0  0  0  0  0  0
  188.6820  178.2650  140.4010 C   0  0  0  0  0  2  0  0  0  0  0  0
  190.9720  177.0020  144.1760 C   0  0  0  0  0  0  0  0  0  0  0  0
  191.5470  176.7810  143.0150 O   0  0  0  0  0  0  0  0  0  0  0  0
  187.1940  178.2530  147.3510 N   0  0  0  0  0  2  0  0  0  0  0  0
  188.3040  178.0090  141.8670 C   0  0  0  0  0  2  0  0  0  0  0  0
  186.1110  176.6330  145.8990 C   0  0  0  0  0  1  0  0  0  0  0  0
  189.4090  177.5950  146.3950 C   0  0  0  0  0  0  0  0  0  0  0  0
  185.3300  179.0020  145.9940 C   0  0  0  0  0  2  0  0  0  0  0  0
  184.8870  179.3230  144.5690 C   0  0  0  0  0  2  0  0  0  0  0  0
  183.4110  179.0030  144.3850 C   0  0  0  0  0  2  0  0  0  0  0  0
  183.0870  178.7010  142.9540 C   0  0  0  0  0  0  0  0  0  0  0  0
  184.1780  178.2870  142.0290 C   0  0  0  0  0  1  0  0  0  0  0  0
  181.7860  179.0030  142.4260 S   0  0  0  0  0  0  0  0  0  0  0  0
  1 14  2  0  0  0  0
  1  2  1  0  0  0  0
  2 19  2  0  0  0  0
  3  7  2  0  0  0  0
  4  1  1  0  0  0  0
  5 18  1  6  0  0  0
  5 16  1  0  0  0  0
  6 13  1  0  0  0  0
  6  9  1  0  0  0  0
  8  4  2  0  0  0  0
  8 15  1  0  0  0  0
  9  8  1  0  0  0  0
 10 11  2  0  0  0  0
 12  2  1  0  0  0  0
 12  5  1  0  0  0  0
 13 17  1  0  0  0  0
 14  3  1  0  0  0  0
 15 14  1  0  0  0  0
 16 10  1  0  0  0  0
 17  4  1  0  0  0  0
 19  7  1  0  0  0  0
 19 10  1  0  0  0  0
 20  5  1  0  0  0  0
 21 20  1  0  0  0  0
 22 21  1  0  0  0  0
 23 22  1  0  0  0  0
 24 23  1  0  0  0  0
 25 23  2  0  0  0  0
M  END
>  <MODEL>
3

>  <REMARK>
 VINA RESULT:      -8.3      2.471      5.472
  Name = 
  4 active torsions:
  status: ('A' for Active; 'I' for Inactive)
    1  A    between atoms: C_2  and  C_21
    2  A    between atoms: C_6  and  C_15
    3  A    between atoms: C_15  and  C_25
    4  A    between atoms: C_21  and  C_25
                            x       y       z     vdW  Elec       q    Type
                         _______ _______ _______ _____ _____    ______ ____

>  <TORSDO>
F 4

$$$$
=
 OpenBabel10262419493D

 25 28  0  0  1  0  0  0  0  0999 V2000
  186.5060  178.4500  142.7610 C   0  0  0  0  0  0  0  0  0  0  0  0
  187.7590  178.2410  142.1770 C   0  0  0  0  0  0  0  0  0  0  0  0
  185.4160  178.6510  140.6100 C   0  0  0  0  0  3  0  0  0  0  0  0
  186.0900  178.5110  144.0730 C   0  0  0  0  0  0  0  0  0  0  0  0
  190.0830  177.2470  142.3300 C   0  0  2  0  0  0  0  0  0  0  0  0
  184.5740  178.2580  146.4590 C   0  0  0  0  0  2  0  0  0  0  0  0
  186.6640  178.4560  139.9920 C   0  0  0  0  0  3  0  0  0  0  0  0
  184.7230  178.7060  144.0150 C   0  0  0  0  0  0  0  0  0  0  0  0
  183.8600  178.8410  145.2300 C   0  0  0  0  0  2  0  0  0  0  0  0
  189.1380  178.0370  140.1250 C   0  0  0  0  0  0  0  0  0  0  0  0
  189.2880  178.1970  138.8860 O   0  0  0  0  0  0  0  0  0  0  0  0
  189.0080  178.1130  143.0100 C   0  0  0  0  0  2  0  0  0  0  0  0
  186.0280  178.7480  146.5460 C   0  0  0  0  0  2  0  0  0  0  0  0
  185.3730  178.6390  142.0010 C   0  0  0  0  0  0  0  0  0  0  0  0
  184.3140  178.7940  142.7640 O   0  0  0  0  0  0  0  0  0  0  0  0
  190.2540  177.6550  140.9350 N   0  0  0  0  0  2  0  0  0  0  0  0
  186.8490  178.2660  145.3410 C   0  0  0  0  0  2  0  0  0  0  0  0
  189.6670  175.7810  142.3670 C   0  0  0  0  0  1  0  0  0  0  0  0
  187.8310  178.2530  140.7650 C   0  0  0  0  0  0  0  0  0  0  0  0
  191.4200  177.4220  143.0470 C   0  0  0  0  0  2  0  0  0  0  0  0
  191.5170  176.6110  144.3370 C   0  0  0  0  0  2  0  0  0  0  0  0
  191.4230  177.5250  145.5490 C   0  0  0  0  0  2  0  0  0  0  0  0
  191.0790  176.7600  146.7910 C   0  0  0  0  0  0  0  0  0  0  0  0
  192.0600  175.7860  147.3450 C   0  0  0  0  0  1  0  0  0  0  0  0
  189.7470  176.8070  147.3260 S   0  0  0  0  0  0  0  0  0  0  0  0
  1  4  1  0  0  0  0
  2  1  1  0  0  0  0
  2 12  1  0  0  0  0
  3 14  1  0  0  0  0
  4 17  1  0  0  0  0
  5 18  1  1  0  0  0
  5 12  1  0  0  0  0
  5 20  1  0  0  0  0
  6 13  1  0  0  0  0
  7  3  2  0  0  0  0
  7 19  1  0  0  0  0
  8  4  2  0  0  0  0
  8  9  1  0  0  0  0
  9  6  1  0  0  0  0
 10 19  1  0  0  0  0
 10 16  1  0  0  0  0
 11 10  2  0  0  0  0
 14  1  2  0  0  0  0
 14 15  1  0  0  0  0
 15  8  1  0  0  0  0
 16  5  1  0  0  0  0
 17 13  1  0  0  0  0
 19  2  2  0  0  0  0
 20 21  1  0  0  0  0
 21 22  1  0  0  0  0
 22 23  1  0  0  0  0
 23 25  2  0  0  0  0
 23 24  1  0  0  0  0
M  END
>  <MODEL>
4

>  <REMARK>
 VINA RESULT:      -8.3      3.135      5.254
  Name = 
  4 active torsions:
  status: ('A' for Active; 'I' for Inactive)
    1  A    between atoms: C_2  and  C_21
    2  A    between atoms: C_6  and  C_15
    3  A    between atoms: C_15  and  C_25
    4  A    between atoms: C_21  and  C_25
                            x       y       z     vdW  Elec       q    Type
                         _______ _______ _______ _____ _____    ______ ____

>  <TORSDO>
F 4

$$$$
=
 OpenBabel10262419493D

 25 28  0  0  1  0  0  0  0  0999 V2000
  187.0670  178.0610  142.8300 C   0  0  0  0  0  0  0  0  0  0  0  0
  187.0150  177.8380  144.2090 C   0  0  0  0  0  0  0  0  0  0  0  0
  184.8860  179.1090  142.8080 C   0  0  0  0  0  3  0  0  0  0  0  0
  188.0210  177.7760  141.8780 C   0  0  0  0  0  0  0  0  0  0  0  0
  188.2430  177.5170  146.4010 C   0  0  2  0  0  0  0  0  0  0  0  0
  189.7290  177.9140  139.6150 C   0  0  0  0  0  2  0  0  0  0  0  0
  184.7970  178.8870  144.1940 C   0  0  0  0  0  3  0  0  0  0  0  0
  187.5140  178.2750  140.6920 C   0  0  0  0  0  0  0  0  0  0  0  0
  188.2320  178.1710  139.3830 C   0  0  0  0  0  2  0  0  0  0  0  0
  185.7700  178.0300  146.3460 C   0  0  0  0  0  0  0  0  0  0  0  0
  184.7000  178.2340  146.9760 O   0  0  0  0  0  0  0  0  0  0  0  0
  188.1040  177.0860  144.9300 C   0  0  0  0  0  2  0  0  0  0  0  0
  189.9520  176.8040  140.6530 C   0  0  0  0  0  2  0  0  0  0  0  0
  186.0410  178.6840  142.1560 C   0  0  0  0  0  0  0  0  0  0  0  0
  186.3190  178.8030  140.8770 O   0  0  0  0  0  0  0  0  0  0  0  0
  186.9280  177.5580  147.0420 N   0  0  0  0  0  2  0  0  0  0  0  0
  189.3980  177.2090  142.0270 C   0  0  0  0  0  2  0  0  0  0  0  0
  188.8710  178.9040  146.4780 C   0  0  0  0  0  1  0  0  0  0  0  0
  185.8510  178.2550  144.8950 C   0  0  0  0  0  0  0  0  0  0  0  0
  189.1130  176.5130  147.1560 C   0  0  0  0  0  2  0  0  0  0  0  0
  190.5400  177.0080  147.3780 C   0  0  0  0  0  2  0  0  0  0  0  0
  191.5370  176.0770  146.7070 C   0  0  0  0  0  2  0  0  0  0  0  0
  191.7280  176.4230  145.2620 C   0  0  0  0  0  0  0  0  0  0  0  0
  191.6790  177.8510  144.8400 C   0  0  0  0  0  1  0  0  0  0  0  0
  191.7520  175.3900  144.2650 S   0  0  0  0  0  0  0  0  0  0  0  0
  1  2  1  0  0  0  0
  2 19  2  0  0  0  0
  2 12  1  0  0  0  0
  3  7  2  0  0  0  0
  4 17  1  0  0  0  0
  4  1  1  0  0  0  0
  5 18  1  1  0  0  0
  5 16  1  0  0  0  0
  5 20  1  0  0  0  0
  6 13  1  0  0  0  0
  7 19  1  0  0  0  0
  8 15  1  0  0  0  0
  8  4  2  0  0  0  0
  9  6  1  0  0  0  0
  9  8  1  0  0  0  0
 10 11  2  0  0  0  0
 10 16  1  0  0  0  0
 12  5  1  0  0  0  0
 13 17  1  0  0  0  0
 14  3  1  0  0  0  0
 14  1  2  0  0  0  0
 15 14  1  0  0  0  0
 19 10  1  0  0  0  0
 20 21  1  0  0  0  0
 22 21  1  0  0  0  0
 23 22  1  0  0  0  0
 24 23  1  0  0  0  0
 25 23  2  0  0  0  0
M  END
>  <MODEL>
5

>  <REMARK>
 VINA RESULT:      -8.2      2.508      5.333
  Name = 
  4 active torsions:
  status: ('A' for Active; 'I' for Inactive)
    1  A    between atoms: C_2  and  C_21
    2  A    between atoms: C_6  and  C_15
    3  A    between atoms: C_15  and  C_25
    4  A    between atoms: C_21  and  C_25
                            x       y       z     vdW  Elec       q    Type
                         _______ _______ _______ _____ _____    ______ ____

>  <TORSDO>
F 4

$$$$
=
 OpenBabel10262419493D

 25 28  0  0  1  0  0  0  0  0999 V2000
  185.4640  178.5670  141.5570 C   0  0  0  0  0  0  0  0  0  0  0  0
  186.8510  178.3990  141.5960 C   0  0  0  0  0  0  0  0  0  0  0  0
  185.4120  178.4650  139.1390 C   0  0  0  0  0  3  0  0  0  0  0  0
  184.5180  178.7270  142.5450 C   0  0  0  0  0  0  0  0  0  0  0  0
  188.9050  177.6100  142.8510 C   0  0  2  0  0  0  0  0  0  0  0  0
  182.1240  178.5960  144.0640 C   0  0  0  0  0  2  0  0  0  0  0  0
  186.8090  178.3080  139.1440 C   0  0  0  0  0  3  0  0  0  0  0  0
  183.3070  178.8070  141.8840 C   0  0  0  0  0  0  0  0  0  0  0  0
  181.9980  178.9950  142.5850 C   0  0  0  0  0  2  0  0  0  0  0  0
  188.9900  178.0990  140.3750 C   0  0  0  0  0  0  0  0  0  0  0  0
  189.6590  178.1450  139.3100 O   0  0  0  0  0  0  0  0  0  0  0  0
  187.6180  178.4540  142.8920 C   0  0  0  0  0  2  0  0  0  0  0  0
  183.3820  179.2040  144.7030 C   0  0  0  0  0  2  0  0  0  0  0  0
  184.7690  178.5890  140.3680 C   0  0  0  0  0  0  0  0  0  0  0  0
  183.4800  178.7370  140.5780 O   0  0  0  0  0  0  0  0  0  0  0  0
  189.6530  177.8880  141.6260 N   0  0  0  0  0  2  0  0  0  0  0  0
  184.6570  178.6700  144.0350 C   0  0  0  0  0  2  0  0  0  0  0  0
  188.5530  176.1270  142.8880 C   0  0  0  0  0  1  0  0  0  0  0  0
  187.5290  178.2760  140.3620 C   0  0  0  0  0  0  0  0  0  0  0  0
  189.7920  177.9610  144.0450 C   0  0  0  0  0  2  0  0  0  0  0  0
  189.6070  177.0110  145.2260 C   0  0  0  0  0  2  0  0  0  0  0  0
  189.6430  177.7810  146.5370 C   0  0  0  0  0  2  0  0  0  0  0  0
  188.3290  177.7100  147.2530 C   0  0  0  0  0  0  0  0  0  0  0  0
  187.0760  177.5370  146.4670 C   0  0  0  0  0  1  0  0  0  0  0  0
  188.2490  178.0110  148.6550 S   0  0  0  0  0  0  0  0  0  0  0  0
  1  2  1  0  0  0  0
  1  4  1  0  0  0  0
  2 12  1  0  0  0  0
  3  7  2  0  0  0  0
  3 14  1  0  0  0  0
  4 17  1  0  0  0  0
  5 18  1  1  0  0  0
  5 12  1  0  0  0  0
  5 20  1  0  0  0  0
  6 13  1  0  0  0  0
  7 19  1  0  0  0  0
  8  4  2  0  0  0  0
  8  9  1  0  0  0  0
  9  6  1  0  0  0  0
 10 16  1  0  0  0  0
 11 10  2  0  0  0  0
 14 15  1  0  0  0  0
 14  1  2  0  0  0  0
 15  8  1  0  0  0  0
 16  5  1  0  0  0  0
 17 13  1  0  0  0  0
 19 10  1  0  0  0  0
 19  2  2  0  0  0  0
 20 21  1  0  0  0  0
 21 22  1  0  0  0  0
 22 23  1  0  0  0  0
 23 25  2  0  0  0  0
 24 23  1  0  0  0  0
M  END
>  <MODEL>
6

>  <REMARK>
 VINA RESULT:      -8.1      3.509      5.804
  Name = 
  4 active torsions:
  status: ('A' for Active; 'I' for Inactive)
    1  A    between atoms: C_2  and  C_21
    2  A    between atoms: C_6  and  C_15
    3  A    between atoms: C_15  and  C_25
    4  A    between atoms: C_21  and  C_25
                            x       y       z     vdW  Elec       q    Type
                         _______ _______ _______ _____ _____    ______ ____

>  <TORSDO>
F 4

$$$$
=
 OpenBabel10262419493D

 25 28  0  0  1  0  0  0  0  0999 V2000
  188.1590  177.7800  143.9920 C   0  0  0  0  0  0  0  0  0  0  0  0
  186.9280  178.0760  143.4000 C   0  0  0  0  0  0  0  0  0  0  0  0
  189.3520  178.0600  141.9050 C   0  0  0  0  0  3  0  0  0  0  0  0
  188.5170  177.4560  145.2830 C   0  0  0  0  0  0  0  0  0  0  0  0
  184.5660  178.9590  143.6370 C   0  0  2  0  0  0  0  0  0  0  0  0
  189.9140  177.2420  147.7440 C   0  0  0  0  0  2  0  0  0  0  0  0
  188.1270  178.3480  141.2770 C   0  0  0  0  0  3  0  0  0  0  0  0
  189.8920  177.3110  145.2560 C   0  0  0  0  0  0  0  0  0  0  0  0
  190.7030  176.9460  146.4600 C   0  0  0  0  0  2  0  0  0  0  0  0
  185.6370  178.6700  141.3680 C   0  0  0  0  0  0  0  0  0  0  0  0
  185.5480  178.7690  140.1160 O   0  0  0  0  0  0  0  0  0  0  0  0
  185.6380  177.9960  144.1760 C   0  0  0  0  0  2  0  0  0  0  0  0
  188.4750  176.7100  147.6520 C   0  0  0  0  0  2  0  0  0  0  0  0
  189.3310  177.7820  143.2700 C   0  0  0  0  0  0  0  0  0  0  0  0
  190.3600  177.4970  144.0370 O   0  0  0  0  0  0  0  0  0  0  0  0
  184.4730  178.8470  142.1810 N   0  0  0  0  0  2  0  0  0  0  0  0
  187.6940  177.4120  146.5330 C   0  0  0  0  0  2  0  0  0  0  0  0
  184.9290  180.3940  143.9980 C   0  0  0  0  0  1  0  0  0  0  0  0
  186.9200  178.3570  142.0150 C   0  0  0  0  0  0  0  0  0  0  0  0
  183.2040  178.6050  144.2320 C   0  0  0  0  0  2  0  0  0  0  0  0
  182.0390  179.2390  143.4770 C   0  0  0  0  0  2  0  0  0  0  0  0
  180.7320  178.5530  143.8430 C   0  0  0  0  0  2  0  0  0  0  0  0
  179.6810  178.7760  142.7980 C   0  0  0  0  0  0  0  0  0  0  0  0
  179.5650  177.8190  141.6630 C   0  0  0  0  0  1  0  0  0  0  0  0
  178.9310  180.0000  142.7730 S   0  0  0  0  0  0  0  0  0  0  0  0
  1  4  1  0  0  0  0
  2  1  1  0  0  0  0
  2 12  1  0  0  0  0
  3 14  1  0  0  0  0
  4 17  1  0  0  0  0
  5 18  1  1  0  0  0
  5 12  1  0  0  0  0
  5 20  1  0  0  0  0
  7  3  2  0  0  0  0
  7 19  1  0  0  0  0
  8  4  2  0  0  0  0
  8  9  1  0  0  0  0
  9  6  1  0  0  0  0
 10 19  1  0  0  0  0
 10 16  1  0  0  0  0
 11 10  2  0  0  0  0
 13  6  1  0  0  0  0
 14  1  2  0  0  0  0
 14 15  1  0  0  0  0
 15  8  1  0  0  0  0
 16  5  1  0  0  0  0
 17 13  1  0  0  0  0
 19  2  2  0  0  0  0
 21 22  1  0  0  0  0
 21 20  1  0  0  0  0
 23 22  1  0  0  0  0
 24 23  1  0  0  0  0
 25 23  2  0  0  0  0
M  END
>  <MODEL>
7

>  <REMARK>
 VINA RESULT:      -7.9      3.725      7.098
  Name = 
  4 active torsions:
  status: ('A' for Active; 'I' for Inactive)
    1  A    between atoms: C_2  and  C_21
    2  A    between atoms: C_6  and  C_15
    3  A    between atoms: C_15  and  C_25
    4  A    between atoms: C_21  and  C_25
                            x       y       z     vdW  Elec       q    Type
                         _______ _______ _______ _____ _____    ______ ____

>  <TORSDO>
F 4

$$$$
