=
 OpenBabel10262421133D

 32 37  0  0  1  0  0  0  0  0999 V2000
  186.4380  178.1270  143.2430 C   0  0  0  0  0  0  0  0  0  0  0  0
  186.6980  178.8130  140.9740 N   0  0  0  0  0  0  0  0  0  0  0  0
  185.4970  177.8180  144.3850 C   0  0  0  0  0  2  0  0  0  0  0  0
  185.9530  178.7370  142.1560 C   0  0  0  0  0  0  0  0  0  0  0  0
  185.7470  178.9200  139.9360 C   0  0  0  0  0  0  0  0  0  0  0  0
  189.5520  176.2970  138.1030 C   0  0  0  0  0  3  0  0  0  0  0  0
  187.8800  178.0490  140.8270 C   0  0  0  0  0  0  0  0  0  0  0  0
  187.6160  177.4820  137.1590 C   0  0  0  0  0  3  0  0  0  0  0  0
  187.4920  178.3210  138.4020 C   0  0  1  0  0  3  0  0  0  0  0  0
  184.5680  178.9690  141.9400 N   0  0  0  0  0  0  0  0  0  0  0  0
  186.0760  178.5880  138.7220 N   0  0  0  0  0  0  0  0  0  0  0  0
  183.5710  178.6390  142.9560 C   0  0  0  0  0  2  0  0  0  0  0  0
  188.4560  177.4780  142.0140 N   0  0  0  0  0  0  0  0  0  0  0  0
  187.8210  177.5360  143.1610 C   0  0  0  0  0  0  0  0  0  0  0  0
  188.2650  177.7270  139.5830 C   0  0  0  0  0  0  0  0  0  0  0  0
  184.3410  179.0390  140.4840 C   0  0  2  0  0  3  0  0  0  0  0  0
  184.2200  178.6780  144.3450 C   0  0  0  0  0  2  0  0  0  0  0  0
  188.5940  176.5810  137.0150 C   0  0  0  0  0  3  0  0  0  0  0  0
  189.3950  176.8210  139.3210 C   0  0  0  0  0  3  0  0  0  0  0  0
  190.9010  176.6180  145.0500 C   0  0  0  0  0  0  0  0  0  0  0  0
  192.0450  176.1350  144.8290 O   0  0  0  0  0  0  0  0  0  0  0  0
  188.3710  177.8560  145.5560 C   0  0  0  0  0  2  0  0  0  0  0  0
  190.6770  177.3850  146.3130 C   0  0  0  0  0  2  0  0  0  0  0  0
  188.4710  176.9070  144.3600 C   0  0  2  0  0  3  0  0  0  0  0  0
  189.8510  176.4790  144.0740 N   0  0  0  0  0  0  0  0  0  0  0  0
  190.0880  175.6340  142.9080 C   0  0  0  0  0  1  0  0  0  0  0  0
  189.2080  177.3410  146.7120 C   0  0  1  0  0  3  0  0  0  0  0  0
  188.0540  177.8670  148.8180 C   0  0  0  0  0  2  0  0  0  0  0  0
  188.9740  178.1970  147.9120 C   0  0  0  0  0  3  0  0  0  0  0  0
  183.4900  177.8560  140.0310 C   0  0  0  0  0  2  0  0  0  0  0  0
  182.1620  178.3420  139.4800 C   0  0  0  0  0  2  0  0  0  0  0  0
  182.3260  179.7470  138.9440 C   0  0  0  0  0  1  0  0  0  0  0  0
  1  3  1  0  0  0  0
  2  4  1  0  0  0  0
  4  1  2  0  0  0  0
  5 16  1  0  0  0  0
  5  2  1  0  0  0  0
  6 19  2  0  0  0  0
  7  2  1  0  0  0  0
  7 13  1  0  0  0  0
  9  8  1  6  0  0  0
  9 11  1  0  0  0  0
  9 15  1  0  0  0  0
 10  4  1  0  0  0  0
 10 12  1  0  0  0  0
 11  5  2  0  0  0  0
 12 17  1  0  0  0  0
 13 14  2  0  0  0  0
 14  1  1  0  0  0  0
 15  7  2  0  0  0  0
 16 30  1  6  0  0  0
 16 10  1  0  0  0  0
 17  3  1  0  0  0  0
 18  8  2  0  0  0  0
 18  6  1  0  0  0  0
 19 15  1  0  0  0  0
 20 23  1  0  0  0  0
 21 20  2  0  0  0  0
 22 27  1  0  0  0  0
 23 27  1  0  0  0  0
 24 14  1  6  0  0  0
 24 22  1  0  0  0  0
 25 24  1  0  0  0  0
 25 20  1  0  0  0  0
 26 25  1  0  0  0  0
 27 29  1  1  0  0  0
 29 28  2  0  0  0  0
 31 30  1  0  0  0  0
 32 31  1  0  0  0  0
M  END
>  <MODEL>
1

>  <REMARK>
 VINA RESULT:      -9.9      0.000      0.000
  Name = 
  4 active torsions:
  status: ('A' for Active; 'I' for Inactive)
    1  A    between atoms: C_13  and  C_18
    2  A    between atoms: C_15  and  C_26
    3  A    between atoms: C_18  and  C_29
    4  A    between atoms: C_20  and  C_27
                            x       y       z     vdW  Elec       q    Type
                         _______ _______ _______ _____ _____    ______ ____

>  <TORSDO>
F 4

$$$$
=
 OpenBabel10262421133D

 32 37  0  0  1  0  0  0  0  0999 V2000
  186.4230  178.0770  142.4970 C   0  0  0  0  0  0  0  0  0  0  0  0
  187.1140  178.6400  140.2850 N   0  0  0  0  0  0  0  0  0  0  0  0
  185.2800  177.8300  143.4550 C   0  0  0  0  0  2  0  0  0  0  0  0
  186.1600  178.6270  141.3070 C   0  0  0  0  0  0  0  0  0  0  0  0
  186.3780  178.6910  139.0820 C   0  0  0  0  0  0  0  0  0  0  0  0
  190.4320  175.9710  138.1420 C   0  0  0  0  0  3  0  0  0  0  0  0
  188.2950  177.8680  140.4040 C   0  0  0  0  0  0  0  0  0  0  0  0
  188.7220  177.1060  136.7880 C   0  0  0  0  0  3  0  0  0  0  0  0
  188.3750  178.0100  137.9390 C   0  0  1  0  0  3  0  0  0  0  0  0
  184.8420  178.8480  140.8210 N   0  0  0  0  0  0  0  0  0  0  0  0
  186.9270  178.2940  137.9710 N   0  0  0  0  0  0  0  0  0  0  0  0
  183.6680  178.5740  141.6460 C   0  0  0  0  0  2  0  0  0  0  0  0
  188.6300  177.3620  141.7080 N   0  0  0  0  0  0  0  0  0  0  0  0
  187.7910  177.4810  142.7090 C   0  0  0  0  0  0  0  0  0  0  0  0
  188.9050  177.4800  139.2750 C   0  0  0  0  0  0  0  0  0  0  0  0
  184.8950  178.8400  139.3470 C   0  0  2  0  0  3  0  0  0  0  0  0
  184.0430  178.6870  143.1290 C   0  0  0  0  0  2  0  0  0  0  0  0
  189.7000  176.1980  136.8790 C   0  0  0  0  0  3  0  0  0  0  0  0
  190.0540  176.5610  139.2800 C   0  0  0  0  0  3  0  0  0  0  0  0
  190.3670  177.0030  145.3610 C   0  0  0  0  0  0  0  0  0  0  0  0
  191.5930  176.7250  145.4570 O   0  0  0  0  0  0  0  0  0  0  0  0
  187.6200  177.7850  145.1630 C   0  0  0  0  0  2  0  0  0  0  0  0
  189.6880  177.6680  146.5140 C   0  0  0  0  0  2  0  0  0  0  0  0
  188.1950  176.9170  144.0410 C   0  0  2  0  0  3  0  0  0  0  0  0
  189.6540  176.7340  144.1380 N   0  0  0  0  0  0  0  0  0  0  0  0
  190.3320  175.9910  143.0830 C   0  0  0  0  0  1  0  0  0  0  0  0
  188.1950  177.3650  146.5040 C   0  0  1  0  0  3  0  0  0  0  0  0
  186.3170  178.6790  147.3900 C   0  0  0  0  0  2  0  0  0  0  0  0
  187.5080  178.1190  147.5930 C   0  0  0  0  0  3  0  0  0  0  0  0
  184.1320  177.6350  138.8040 C   0  0  0  0  0  2  0  0  0  0  0  0
  183.1870  178.0650  137.6980 C   0  0  0  0  0  2  0  0  0  0  0  0
  181.9990  178.7810  138.3030 C   0  0  0  0  0  1  0  0  0  0  0  0
  1 14  1  0  0  0  0
  1  3  1  0  0  0  0
  2  7  1  0  0  0  0
  2  4  1  0  0  0  0
  4  1  2  0  0  0  0
  5 16  1  0  0  0  0
  5  2  1  0  0  0  0
  6 19  2  0  0  0  0
  7 13  1  0  0  0  0
  8 18  2  0  0  0  0
  9  8  1  6  0  0  0
  9 11  1  0  0  0  0
  9 15  1  0  0  0  0
 10  4  1  0  0  0  0
 10 12  1  0  0  0  0
 11  5  2  0  0  0  0
 12 17  1  0  0  0  0
 13 14  2  0  0  0  0
 15 19  1  0  0  0  0
 15  7  2  0  0  0  0
 16 30  1  1  0  0  0
 16 10  1  0  0  0  0
 17  3  1  0  0  0  0
 18  6  1  0  0  0  0
 20 21  2  0  0  0  0
 20 23  1  0  0  0  0
 22 27  1  0  0  0  0
 24 14  1  6  0  0  0
 24 25  1  0  0  0  0
 24 22  1  0  0  0  0
 25 20  1  0  0  0  0
 26 25  1  0  0  0  0
 27 23  1  0  0  0  0
 27 29  1  1  0  0  0
 28 29  2  0  0  0  0
 31 32  1  0  0  0  0
 31 30  1  0  0  0  0
M  END
>  <MODEL>
2

>  <REMARK>
 VINA RESULT:      -9.3      1.043      1.103
  Name = 
  4 active torsions:
  status: ('A' for Active; 'I' for Inactive)
    1  A    between atoms: C_13  and  C_18
    2  A    between atoms: C_15  and  C_26
    3  A    between atoms: C_18  and  C_29
    4  A    between atoms: C_20  and  C_27
                            x       y       z     vdW  Elec       q    Type
                         _______ _______ _______ _____ _____    ______ ____

>  <TORSDO>
F 4

$$$$
=
 OpenBabel10262421133D

 32 37  0  0  1  0  0  0  0  0999 V2000
  185.6350  178.1080  144.5570 C   0  0  0  0  0  0  0  0  0  0  0  0
  187.5560  176.8200  143.9770 N   0  0  0  0  0  0  0  0  0  0  0  0
  184.8990  178.9010  145.6120 C   0  0  0  0  0  2  0  0  0  0  0  0
  186.6810  177.3610  144.9250 C   0  0  0  0  0  0  0  0  0  0  0  0
  188.7880  176.6620  144.6480 C   0  0  0  0  0  0  0  0  0  0  0  0
  189.8820  177.8150  139.9370 C   0  0  0  0  0  3  0  0  0  0  0  0
  187.4910  177.2390  142.6270 C   0  0  0  0  0  0  0  0  0  0  0  0
  191.1120  176.8840  141.8520 C   0  0  0  0  0  3  0  0  0  0  0  0
  189.8270  176.4430  142.4960 C   0  0  0  0  0  0  0  0  0  0  0  0
  187.2470  177.3940  146.2290 N   0  0  0  0  0  0  0  0  0  0  0  0
  189.8920  176.5890  143.9630 N   0  0  0  0  0  0  0  0  0  0  0  0
  186.6490  178.1860  147.3000 C   0  0  0  0  0  2  0  0  0  0  0  0
  186.3160  177.9540  142.2080 N   0  0  0  0  0  0  0  0  0  0  0  0
  185.4160  178.3360  143.0840 C   0  0  0  0  0  0  0  0  0  0  0  0
  188.6030  177.1350  141.8860 C   0  0  0  0  0  0  0  0  0  0  0  0
  188.6650  177.0030  146.1180 C   0  0  2  0  0  3  0  0  0  0  0  0
  185.1490  178.3640  147.0330 C   0  0  0  0  0  2  0  0  0  0  0  0
  191.1300  177.4780  140.6540 C   0  0  0  0  0  3  0  0  0  0  0  0
  188.6870  177.6700  140.5170 C   0  0  0  0  0  2  0  0  0  0  0  0
  182.6520  178.7310  140.6140 C   0  0  0  0  0  0  0  0  0  0  0  0
  182.4700  178.6510  139.3690 O   0  0  0  0  0  0  0  0  0  0  0  0
  183.0040  178.7690  143.4540 C   0  0  0  0  0  2  0  0  0  0  0  0
  181.4690  178.6320  141.5210 C   0  0  0  0  0  2  0  0  0  0  0  0
  184.2200  179.0940  142.5830 C   0  0  2  0  0  3  0  0  0  0  0  0
  183.9840  178.8580  141.1480 N   0  0  0  0  0  0  0  0  0  0  0  0
  185.0930  179.0550  140.2200 C   0  0  0  0  0  1  0  0  0  0  0  0
  181.7430  179.3450  142.8380 C   0  0  1  0  0  3  0  0  0  0  0  0
  180.0540  177.9470  143.9500 C   0  0  0  0  0  2  0  0  0  0  0  0
  180.6000  179.1500  143.7790 C   0  0  0  0  0  3  0  0  0  0  0  0
  189.5620  178.1870  146.4680 C   0  0  0  0  0  2  0  0  0  0  0  0
  190.3790  177.8800  147.7090 C   0  0  0  0  0  2  0  0  0  0  0  0
  191.2620  176.6800  147.4440 C   0  0  0  0  0  1  0  0  0  0  0  0
  1  4  2  0  0  0  0
  1  3  1  0  0  0  0
  2  5  1  0  0  0  0
  2  4  1  0  0  0  0
  3 17  1  0  0  0  0
  4 10  1  0  0  0  0
  5 16  1  0  0  0  0
  6 19  1  0  0  0  0
  6 18  2  0  0  0  0
  7  2  1  0  0  0  0
  8  9  2  0  0  0  0
  9 11  1  0  0  0  0
 10 12  1  0  0  0  0
 11  5  2  0  0  0  0
 13  7  1  0  0  0  0
 13 14  2  0  0  0  0
 14  1  1  0  0  0  0
 15  9  1  0  0  0  0
 15  7  2  0  0  0  0
 16 10  1  0  0  0  0
 16 30  1  6  0  0  0
 17 12  1  0  0  0  0
 18  8  1  0  0  0  0
 19 15  1  0  0  0  0
 20 25  1  0  0  0  0
 20 23  1  0  0  0  0
 21 20  2  0  0  0  0
 23 27  1  0  0  0  0
 24 14  1  1  0  0  0
 24 22  1  0  0  0  0
 25 24  1  0  0  0  0
 26 25  1  0  0  0  0
 27 22  1  0  0  0  0
 27 29  1  1  0  0  0
 29 28  2  0  0  0  0
 30 31  1  0  0  0  0
 32 31  1  0  0  0  0
M  END
>  <MODEL>
3

>  <REMARK>
 VINA RESULT:      -9.3      2.638      6.730
  Name = 
  4 active torsions:
  status: ('A' for Active; 'I' for Inactive)
    1  A    between atoms: C_13  and  C_18
    2  A    between atoms: C_15  and  C_26
    3  A    between atoms: C_18  and  C_29
    4  A    between atoms: C_20  and  C_27
                            x       y       z     vdW  Elec       q    Type
                         _______ _______ _______ _____ _____    ______ ____

>  <TORSDO>
F 4

$$$$
=
 OpenBabel10262421133D

 32 37  0  0  1  0  0  0  0  0999 V2000
  186.1210  178.2280  143.1930 C   0  0  0  0  0  0  0  0  0  0  0  0
  185.9870  178.9870  140.9360 N   0  0  0  0  0  0  0  0  0  0  0  0
  185.3880  177.8540  144.4610 C   0  0  0  0  0  2  0  0  0  0  0  0
  185.4480  178.8510  142.2200 C   0  0  0  0  0  0  0  0  0  0  0  0
  184.8770  179.0890  140.0700 C   0  0  0  0  0  0  0  0  0  0  0  0
  188.4080  176.6530  137.5580 C   0  0  0  0  0  3  0  0  0  0  0  0
  187.1520  178.2680  140.5730 C   0  0  0  0  0  0  0  0  0  0  0  0
  186.3100  177.7970  136.9800 C   0  0  0  0  0  3  0  0  0  0  0  0
  186.3650  178.5950  138.2540 C   0  0  1  0  0  3  0  0  0  0  0  0
  184.0390  179.0400  142.2390 N   0  0  0  0  0  0  0  0  0  0  0  0
  185.0130  178.8030  138.8080 N   0  0  0  0  0  0  0  0  0  0  0  0
  183.2320  178.6480  143.3910 C   0  0  0  0  0  2  0  0  0  0  0  0
  187.9300  177.6850  141.6320 N   0  0  0  0  0  0  0  0  0  0  0  0
  187.4900  177.6880  142.8680 C   0  0  0  0  0  0  0  0  0  0  0  0
  187.3380  177.9950  139.2740 C   0  0  0  0  0  0  0  0  0  0  0  0
  183.5760  179.1440  140.8420 C   0  0  2  0  0  3  0  0  0  0  0  0
  184.0980  178.6700  144.6580 C   0  0  0  0  0  2  0  0  0  0  0  0
  187.2770  176.9350  136.6490 C   0  0  0  0  0  3  0  0  0  0  0  0
  188.4370  177.1370  138.8020 C   0  0  0  0  0  3  0  0  0  0  0  0
  190.8270  177.1960  144.4540 C   0  0  0  0  0  0  0  0  0  0  0  0
  192.0250  177.0090  144.1110 O   0  0  0  0  0  0  0  0  0  0  0  0
  188.1410  177.7710  145.2580 C   0  0  0  0  0  2  0  0  0  0  0  0
  190.5450  177.7060  145.8300 C   0  0  0  0  0  2  0  0  0  0  0  0
  188.3440  177.0480  143.9240 C   0  0  2  0  0  3  0  0  0  0  0  0
  189.7580  176.9740  143.5150 N   0  0  0  0  0  0  0  0  0  0  0  0
  190.0750  176.3780  142.2220 C   0  0  0  0  0  1  0  0  0  0  0  0
  189.1520  177.2880  146.2820 C   0  0  1  0  0  3  0  0  0  0  0  0
  187.6900  177.6170  148.2300 C   0  0  0  0  0  2  0  0  0  0  0  0
  188.8370  177.8910  147.6100 C   0  0  0  0  0  3  0  0  0  0  0  0
  182.6980  177.9450  140.4940 C   0  0  0  0  0  2  0  0  0  0  0  0
  181.2600  178.3850  140.2960 C   0  0  0  0  0  2  0  0  0  0  0  0
  180.3960  177.1730  140.0250 C   0  0  0  0  0  1  0  0  0  0  0  0
  1  3  1  0  0  0  0
  2  4  1  0  0  0  0
  3 17  1  0  0  0  0
  4 10  1  0  0  0  0
  4  1  2  0  0  0  0
  5 16  1  0  0  0  0
  5  2  1  0  0  0  0
  6 19  2  0  0  0  0
  7  2  1  0  0  0  0
  7 13  1  0  0  0  0
  9  8  1  6  0  0  0
  9 11  1  0  0  0  0
  9 15  1  0  0  0  0
 10 12  1  0  0  0  0
 11  5  2  0  0  0  0
 12 17  1  0  0  0  0
 13 14  2  0  0  0  0
 14  1  1  0  0  0  0
 15  7  2  0  0  0  0
 16 30  1  6  0  0  0
 16 10  1  0  0  0  0
 18  8  2  0  0  0  0
 18  6  1  0  0  0  0
 19 15  1  0  0  0  0
 20 23  1  0  0  0  0
 21 20  2  0  0  0  0
 22 27  1  0  0  0  0
 23 27  1  0  0  0  0
 24 14  1  6  0  0  0
 24 22  1  0  0  0  0
 25 24  1  0  0  0  0
 25 20  1  0  0  0  0
 26 25  1  0  0  0  0
 27 29  1  1  0  0  0
 29 28  2  0  0  0  0
 31 30  1  0  0  0  0
 32 31  1  0  0  0  0
M  END
>  <MODEL>
4

>  <REMARK>
 VINA RESULT:      -8.8      0.864      1.032
  Name = 
  4 active torsions:
  status: ('A' for Active; 'I' for Inactive)
    1  A    between atoms: C_13  and  C_18
    2  A    between atoms: C_15  and  C_26
    3  A    between atoms: C_18  and  C_29
    4  A    between atoms: C_20  and  C_27
                            x       y       z     vdW  Elec       q    Type
                         _______ _______ _______ _____ _____    ______ ____

>  <TORSDO>
F 4

$$$$
=
 OpenBabel10262421133D

 32 37  0  0  1  0  0  0  0  0999 V2000
  185.5550  178.1670  143.7200 C   0  0  0  0  0  0  0  0  0  0  0  0
  187.5540  176.8860  143.9450 N   0  0  0  0  0  0  0  0  0  0  0  0
  184.5210  179.0490  144.3820 C   0  0  0  0  0  2  0  0  0  0  0  0
  186.4220  177.5010  144.4900 C   0  0  0  0  0  0  0  0  0  0  0  0
  188.5020  176.8460  144.9910 C   0  0  0  0  0  0  0  0  0  0  0  0
  191.0690  177.5000  140.7840 C   0  0  0  0  0  3  0  0  0  0  0  0
  187.9330  177.1500  142.6070 C   0  0  0  0  0  0  0  0  0  0  0  0
  191.6080  176.8310  143.0890 C   0  0  0  0  0  3  0  0  0  0  0  0
  190.1810  176.4230  143.3310 C   0  0  0  0  0  0  0  0  0  0  0  0
  186.5350  177.6990  145.8940 N   0  0  0  0  0  0  0  0  0  0  0  0
  189.7680  176.7330  144.7130 N   0  0  0  0  0  0  0  0  0  0  0  0
  185.6260  178.5860  146.6150 C   0  0  0  0  0  2  0  0  0  0  0  0
  186.9610  177.7740  141.7510 N   0  0  0  0  0  0  0  0  0  0  0  0
  185.8280  178.2220  142.2390 C   0  0  0  0  0  0  0  0  0  0  0  0
  189.2250  177.0010  142.2820 C   0  0  0  0  0  0  0  0  0  0  0  0
  187.9100  177.3450  146.2930 C   0  0  2  0  0  3  0  0  0  0  0  0
  184.2940  178.6830  145.8600 C   0  0  0  0  0  2  0  0  0  0  0  0
  192.0160  177.2870  141.8990 C   0  0  0  0  0  3  0  0  0  0  0  0
  189.7510  177.3810  140.9610 C   0  0  0  0  0  2  0  0  0  0  0  0
  184.0120  178.2430  138.9830 C   0  0  0  0  0  0  0  0  0  0  0  0
  184.2410  178.0160  137.7650 O   0  0  0  0  0  0  0  0  0  0  0  0
  183.4280  178.6160  141.7610 C   0  0  0  0  0  2  0  0  0  0  0  0
  182.5980  178.2100  139.4680 C   0  0  0  0  0  2  0  0  0  0  0  0
  184.8620  178.8780  141.2940 C   0  0  2  0  0  3  0  0  0  0  0  0
  185.1010  178.4730  139.8980 N   0  0  0  0  0  0  0  0  0  0  0  0
  186.4500  178.5990  139.3600 C   0  0  0  0  0  1  0  0  0  0  0  0
  182.4360  179.0780  140.7090 C   0  0  1  0  0  3  0  0  0  0  0  0
  180.8320  178.8730  142.5600 C   0  0  0  0  0  2  0  0  0  0  0  0
  181.0500  178.9540  141.2480 C   0  0  0  0  0  3  0  0  0  0  0  0
  188.6510  178.5900  146.7730 C   0  0  0  0  0  2  0  0  0  0  0  0
  189.2290  178.3580  148.1560 C   0  0  0  0  0  2  0  0  0  0  0  0
  188.1210  177.9430  149.1000 C   0  0  0  0  0  1  0  0  0  0  0  0
  1  3  1  0  0  0  0
  1  4  2  0  0  0  0
  2  4  1  0  0  0  0
  2  5  1  0  0  0  0
  3 17  1  0  0  0  0
  4 10  1  0  0  0  0
  5 16  1  0  0  0  0
  6 19  1  0  0  0  0
  6 18  2  0  0  0  0
  7  2  1  0  0  0  0
  8  9  2  0  0  0  0
  9 11  1  0  0  0  0
 10 16  1  0  0  0  0
 10 12  1  0  0  0  0
 11  5  2  0  0  0  0
 13 14  2  0  0  0  0
 13  7  1  0  0  0  0
 14  1  1  0  0  0  0
 15  7  2  0  0  0  0
 15  9  1  0  0  0  0
 16 30  1  6  0  0  0
 17 12  1  0  0  0  0
 18  8  1  0  0  0  0
 19 15  1  0  0  0  0
 20 23  1  0  0  0  0
 20 25  1  0  0  0  0
 21 20  2  0  0  0  0
 23 27  1  0  0  0  0
 24 22  1  0  0  0  0
 24 14  1  1  0  0  0
 25 24  1  0  0  0  0
 26 25  1  0  0  0  0
 27 29  1  1  0  0  0
 27 22  1  0  0  0  0
 29 28  2  0  0  0  0
 30 31  1  0  0  0  0
 31 32  1  0  0  0  0
M  END
>  <MODEL>
5

>  <REMARK>
 VINA RESULT:      -8.7      2.478      6.715
  Name = 
  4 active torsions:
  status: ('A' for Active; 'I' for Inactive)
    1  A    between atoms: C_13  and  C_18
    2  A    between atoms: C_15  and  C_26
    3  A    between atoms: C_18  and  C_29
    4  A    between atoms: C_20  and  C_27
                            x       y       z     vdW  Elec       q    Type
                         _______ _______ _______ _____ _____    ______ ____

>  <TORSDO>
F 4

$$$$
=
 OpenBabel10262421133D

 32 37  0  0  1  0  0  0  0  0999 V2000
  186.5900  178.2280  137.6770 C   0  0  0  0  0  0  0  0  0  0  0  0
  188.1880  178.4850  139.4280 N   0  0  0  0  0  0  0  0  0  0  0  0
  186.2810  177.6950  136.2970 C   0  0  0  0  0  2  0  0  0  0  0  0
  187.8620  178.2560  138.0880 C   0  0  0  0  0  0  0  0  0  0  0  0
  189.4380  177.8600  139.6250 C   0  0  0  0  0  0  0  0  0  0  0  0
  186.9330  177.3790  143.8920 C   0  0  0  0  0  3  0  0  0  0  0  0
  187.1780  178.4600  140.4200 C   0  0  0  0  0  0  0  0  0  0  0  0
  189.2770  177.1320  143.1900 C   0  0  0  0  0  3  0  0  0  0  0  0
  189.0340  177.9990  141.9860 C   0  0  1  0  0  3  0  0  0  0  0  0
  188.9320  177.6630  137.3630 N   0  0  0  0  0  0  0  0  0  0  0  0
  189.8120  177.5240  140.8250 N   0  0  0  0  0  0  0  0  0  0  0  0
  188.7220  177.0590  136.0500 C   0  0  0  0  0  2  0  0  0  0  0  0
  185.8110  178.5330  139.9810 N   0  0  0  0  0  0  0  0  0  0  0  0
  185.5130  178.4660  138.7040 C   0  0  0  0  0  0  0  0  0  0  0  0
  187.5420  178.1570  141.6750 C   0  0  0  0  0  0  0  0  0  0  0  0
  189.9930  177.3130  138.3270 C   0  0  2  0  0  3  0  0  0  0  0  0
  187.5110  177.7110  135.3710 C   0  0  0  0  0  2  0  0  0  0  0  0
  188.3130  176.8860  144.0850 C   0  0  0  0  0  3  0  0  0  0  0  0
  186.5580  177.9660  142.7530 C   0  0  0  0  0  3  0  0  0  0  0  0
  181.9750  177.4290  139.2510 C   0  0  0  0  0  0  0  0  0  0  0  0
  181.3180  176.3840  139.5080 O   0  0  0  0  0  0  0  0  0  0  0  0
  183.4540  179.8410  138.8190 C   0  0  0  0  0  2  0  0  0  0  0  0
  181.3480  178.7580  139.5280 C   0  0  0  0  0  2  0  0  0  0  0  0
  184.0650  178.5320  138.3120 C   0  0  2  0  0  3  0  0  0  0  0  0
  183.3240  177.3370  138.7540 N   0  0  0  0  0  0  0  0  0  0  0  0
  183.8510  176.0240  138.4020 C   0  0  0  0  0  1  0  0  0  0  0  0
  181.9490  179.8300  138.6290 C   0  0  1  0  0  3  0  0  0  0  0  0
  181.2040  182.1000  138.0510 C   0  0  0  0  0  2  0  0  0  0  0  0
  181.3970  181.1710  138.9860 C   0  0  0  0  0  3  0  0  0  0  0  0
  190.1450  175.7960  138.4080 C   0  0  0  0  0  2  0  0  0  0  0  0
  191.4790  175.3690  137.8270 C   0  0  0  0  0  2  0  0  0  0  0  0
  192.5220  176.4210  138.1370 C   0  0  0  0  0  1  0  0  0  0  0  0
  1  4  2  0  0  0  0
  1 14  1  0  0  0  0
  2  5  1  0  0  0  0
  2  7  1  0  0  0  0
  3  1  1  0  0  0  0
  4  2  1  0  0  0  0
  5 11  2  0  0  0  0
  6 18  1  0  0  0  0
  7 15  2  0  0  0  0
  8 18  2  0  0  0  0
  9  8  1  1  0  0  0
 10  4  1  0  0  0  0
 10 16  1  0  0  0  0
 11  9  1  0  0  0  0
 12 10  1  0  0  0  0
 13  7  1  0  0  0  0
 14 13  2  0  0  0  0
 15  9  1  0  0  0  0
 15 19  1  0  0  0  0
 16 30  1  1  0  0  0
 16  5  1  0  0  0  0
 17 12  1  0  0  0  0
 17  3  1  0  0  0  0
 19  6  2  0  0  0  0
 20 21  2  0  0  0  0
 20 23  1  0  0  0  0
 24 14  1  1  0  0  0
 24 25  1  0  0  0  0
 24 22  1  0  0  0  0
 25 20  1  0  0  0  0
 26 25  1  0  0  0  0
 27 22  1  0  0  0  0
 27 29  1  1  0  0  0
 27 23  1  0  0  0  0
 28 29  2  0  0  0  0
 31 32  1  0  0  0  0
 31 30  1  0  0  0  0
M  END
>  <MODEL>
6

>  <REMARK>
 VINA RESULT:      -8.6      2.955      7.886
  Name = 
  4 active torsions:
  status: ('A' for Active; 'I' for Inactive)
    1  A    between atoms: C_13  and  C_18
    2  A    between atoms: C_15  and  C_26
    3  A    between atoms: C_18  and  C_29
    4  A    between atoms: C_20  and  C_27
                            x       y       z     vdW  Elec       q    Type
                         _______ _______ _______ _____ _____    ______ ____

>  <TORSDO>
F 4

$$$$
=
 OpenBabel10262421133D

 32 37  0  0  1  0  0  0  0  0999 V2000
  187.2680  178.0240  141.6580 C   0  0  0  0  0  0  0  0  0  0  0  0
  187.4920  176.9510  143.7760 N   0  0  0  0  0  0  0  0  0  0  0  0
  186.4770  178.9670  140.7800 C   0  0  0  0  0  2  0  0  0  0  0  0
  186.7250  177.6020  142.8050 C   0  0  0  0  0  0  0  0  0  0  0  0
  186.8420  177.2040  145.0030 C   0  0  0  0  0  0  0  0  0  0  0  0
  191.7110  177.0550  145.9920 C   0  0  0  0  0  3  0  0  0  0  0  0
  188.9040  176.9310  143.6710 C   0  0  0  0  0  0  0  0  0  0  0  0
  189.6430  176.9530  147.3170 C   0  0  0  0  0  3  0  0  0  0  0  0
  188.8590  176.5230  146.1080 C   0  0  0  0  0  0  0  0  0  0  0  0
  185.5070  178.1150  143.3300 N   0  0  0  0  0  0  0  0  0  0  0  0
  187.5050  177.1090  146.1180 N   0  0  0  0  0  0  0  0  0  0  0  0
  184.7040  179.0840  142.5880 C   0  0  0  0  0  2  0  0  0  0  0  0
  189.4830  177.2870  142.4040 N   0  0  0  0  0  0  0  0  0  0  0  0
  188.7350  177.7630  141.4360 C   0  0  0  0  0  0  0  0  0  0  0  0
  189.6120  176.7920  144.8010 C   0  0  0  0  0  0  0  0  0  0  0  0
  185.5370  177.9440  144.7950 C   0  0  2  0  0  3  0  0  0  0  0  0
  184.9680  178.9280  141.0850 C   0  0  0  0  0  2  0  0  0  0  0  0
  190.9640  177.1560  147.2630 C   0  0  0  0  0  3  0  0  0  0  0  0
  191.0800  176.8990  144.8260 C   0  0  0  0  0  2  0  0  0  0  0  0
  191.0860  176.9210  138.6680 C   0  0  0  0  0  0  0  0  0  0  0  0
  192.2300  176.4160  138.5120 O   0  0  0  0  0  0  0  0  0  0  0  0
  188.4260  177.9310  138.9830 C   0  0  0  0  0  2  0  0  0  0  0  0
  190.1470  176.9490  137.5050 C   0  0  0  0  0  2  0  0  0  0  0  0
  189.4040  178.1310  140.1430 C   0  0  2  0  0  3  0  0  0  0  0  0
  190.6760  177.4100  139.9600 N   0  0  0  0  0  0  0  0  0  0  0  0
  191.6620  177.4570  141.0340 C   0  0  0  0  0  1  0  0  0  0  0  0
  189.1430  178.0830  137.6540 C   0  0  1  0  0  3  0  0  0  0  0  0
  186.8410  178.1610  136.7950 C   0  0  0  0  0  2  0  0  0  0  0  0
  188.1440  178.0370  136.5460 C   0  0  0  0  0  3  0  0  0  0  0  0
  185.5830  179.3070  145.4780 C   0  0  0  0  0  2  0  0  0  0  0  0
  185.2680  179.1670  146.9560 C   0  0  0  0  0  2  0  0  0  0  0  0
  186.3600  179.8280  147.7670 C   0  0  0  0  0  1  0  0  0  0  0  0
  1  4  2  0  0  0  0
  2  5  1  0  0  0  0
  3 17  1  0  0  0  0
  3  1  1  0  0  0  0
  4 10  1  0  0  0  0
  4  2  1  0  0  0  0
  5 11  2  0  0  0  0
  6 18  2  0  0  0  0
  7  2  1  0  0  0  0
  7 15  2  0  0  0  0
  9 11  1  0  0  0  0
  9  8  2  0  0  0  0
 10 16  1  0  0  0  0
 12 10  1  0  0  0  0
 13  7  1  0  0  0  0
 14  1  1  0  0  0  0
 14 13  2  0  0  0  0
 15 19  1  0  0  0  0
 15  9  1  0  0  0  0
 16  5  1  0  0  0  0
 16 30  1  1  0  0  0
 17 12  1  0  0  0  0
 18  8  1  0  0  0  0
 19  6  1  0  0  0  0
 20 25  1  0  0  0  0
 21 20  2  0  0  0  0
 22 24  1  0  0  0  0
 23 27  1  0  0  0  0
 23 20  1  0  0  0  0
 24 14  1  1  0  0  0
 25 24  1  0  0  0  0
 25 26  1  0  0  0  0
 27 29  1  6  0  0  0
 27 22  1  0  0  0  0
 29 28  2  0  0  0  0
 30 31  1  0  0  0  0
 31 32  1  0  0  0  0
M  END
>  <MODEL>
7

>  <REMARK>
 VINA RESULT:      -8.0      2.102      6.599
  Name = 
  4 active torsions:
  status: ('A' for Active; 'I' for Inactive)
    1  A    between atoms: C_13  and  C_18
    2  A    between atoms: C_15  and  C_26
    3  A    between atoms: C_18  and  C_29
    4  A    between atoms: C_20  and  C_27
                            x       y       z     vdW  Elec       q    Type
                         _______ _______ _______ _____ _____    ______ ____

>  <TORSDO>
F 4

$$$$
=
 OpenBabel10262421133D

 32 37  0  0  1  0  0  0  0  0999 V2000
  188.7180  177.2220  138.8780 C   0  0  0  0  0  0  0  0  0  0  0  0
  187.1810  178.5410  140.1360 N   0  0  0  0  0  0  0  0  0  0  0  0
  189.9530  176.3490  138.8790 C   0  0  0  0  0  2  0  0  0  0  0  0
  188.4290  177.9300  139.9750 C   0  0  0  0  0  0  0  0  0  0  0  0
  186.9850  178.6360  141.5310 C   0  0  0  0  0  0  0  0  0  0  0  0
  182.5020  177.8660  139.5240 C   0  0  0  0  0  3  0  0  0  0  0  0
  186.1180  178.2340  139.2530 C   0  0  0  0  0  0  0  0  0  0  0  0
  183.3460  178.6290  141.7030 C   0  0  0  0  0  3  0  0  0  0  0  0
  184.6600  179.0230  141.0850 C   0  0  0  0  0  0  0  0  0  0  0  0
  189.1250  177.7870  141.2060 N   0  0  0  0  0  0  0  0  0  0  0  0
  185.7800  178.7580  142.0080 N   0  0  0  0  0  0  0  0  0  0  0  0
  190.2900  176.9130  141.3270 C   0  0  0  0  0  2  0  0  0  0  0  0
  186.4460  177.5630  138.0250 N   0  0  0  0  0  0  0  0  0  0  0  0
  187.6610  177.1160  137.8090 C   0  0  0  0  0  0  0  0  0  0  0  0
  184.8660  178.3910  139.7050 C   0  0  0  0  0  0  0  0  0  0  0  0
  188.2090  178.1770  142.2940 C   0  0  2  0  0  3  0  0  0  0  0  0
  190.9680  176.7670  139.9580 C   0  0  0  0  0  2  0  0  0  0  0  0
  182.3440  178.1350  140.9680 C   0  0  0  0  0  3  0  0  0  0  0  0
  183.6910  177.9700  138.9240 C   0  0  0  0  0  2  0  0  0  0  0  0
  190.0750  175.9480  135.2200 C   0  0  0  0  0  0  0  0  0  0  0  0
  191.0830  176.3770  134.5970 O   0  0  0  0  0  0  0  0  0  0  0  0
  187.8840  174.8950  136.7310 C   0  0  0  0  0  2  0  0  0  0  0  0
  189.8500  174.4720  135.2930 C   0  0  0  0  0  2  0  0  0  0  0  0
  187.9340  176.4100  136.5130 C   0  0  2  0  0  3  0  0  0  0  0  0
  189.1930  176.8640  135.8960 N   0  0  0  0  0  0  0  0  0  0  0  0
  189.3950  178.2960  135.7080 C   0  0  0  0  0  1  0  0  0  0  0  0
  188.3720  174.1650  135.4940 C   0  0  1  0  0  3  0  0  0  0  0  0
  187.7900  172.2000  136.8490 C   0  0  0  0  0  2  0  0  0  0  0  0
  188.1690  172.6980  135.6740 C   0  0  0  0  0  3  0  0  0  0  0  0
  187.8770  176.9630  143.1570 C   0  0  0  0  0  2  0  0  0  0  0  0
  188.2420  177.2290  144.6050 C   0  0  0  0  0  2  0  0  0  0  0  0
  186.9830  177.5000  145.3990 C   0  0  0  0  0  1  0  0  0  0  0  0
  1  3  1  0  0  0  0
  1  4  2  0  0  0  0
  2  5  1  0  0  0  0
  3 17  1  0  0  0  0
  4  2  1  0  0  0  0
  4 10  1  0  0  0  0
  5 11  2  0  0  0  0
  5 16  1  0  0  0  0
  6 18  2  0  0  0  0
  7 15  2  0  0  0  0
  7  2  1  0  0  0  0
  9  8  2  0  0  0  0
  9 11  1  0  0  0  0
 10 12  1  0  0  0  0
 10 16  1  0  0  0  0
 13  7  1  0  0  0  0
 14 13  2  0  0  0  0
 14  1  1  0  0  0  0
 15  9  1  0  0  0  0
 16 30  1  1  0  0  0
 17 12  1  0  0  0  0
 18  8  1  0  0  0  0
 19  6  1  0  0  0  0
 19 15  1  0  0  0  0
 20 23  1  0  0  0  0
 20 25  1  0  0  0  0
 21 20  2  0  0  0  0
 23 27  1  0  0  0  0
 24 22  1  0  0  0  0
 24 14  1  1  0  0  0
 25 24  1  0  0  0  0
 26 25  1  0  0  0  0
 27 29  1  1  0  0  0
 27 22  1  0  0  0  0
 29 28  2  0  0  0  0
 30 31  1  0  0  0  0
 31 32  1  0  0  0  0
M  END
>  <MODEL>
8

>  <REMARK>
 VINA RESULT:      -7.9      2.646      7.498
  Name = 
  4 active torsions:
  status: ('A' for Active; 'I' for Inactive)
    1  A    between atoms: C_13  and  C_18
    2  A    between atoms: C_15  and  C_26
    3  A    between atoms: C_18  and  C_29
    4  A    between atoms: C_20  and  C_27
                            x       y       z     vdW  Elec       q    Type
                         _______ _______ _______ _____ _____    ______ ____

>  <TORSDO>
F 4

$$$$
=
 OpenBabel10262421133D

 32 37  0  0  1  0  0  0  0  0999 V2000
  186.0720  178.4860  139.6300 C   0  0  0  0  0  0  0  0  0  0  0  0
  186.6720  179.0750  141.8610 N   0  0  0  0  0  0  0  0  0  0  0  0
  186.4260  177.7330  138.3680 C   0  0  0  0  0  2  0  0  0  0  0  0
  187.0040  178.6280  140.5780 C   0  0  0  0  0  0  0  0  0  0  0  0
  187.6590  178.5380  142.7150 C   0  0  0  0  0  0  0  0  0  0  0  0
  183.4300  178.6280  145.3280 C   0  0  0  0  0  3  0  0  0  0  0  0
  185.3150  179.1640  142.2550 C   0  0  0  0  0  0  0  0  0  0  0  0
  185.8180  178.3680  145.8540 C   0  0  0  0  0  3  0  0  0  0  0  0
  186.2020  179.0270  144.5570 C   0  0  0  0  0  0  0  0  0  0  0  0
  188.2640  177.9720  140.5420 N   0  0  0  0  0  0  0  0  0  0  0  0
  187.4140  178.4080  143.9860 N   0  0  0  0  0  0  0  0  0  0  0  0
  188.6710  177.1630  139.3950 C   0  0  0  0  0  2  0  0  0  0  0  0
  184.3170  179.1140  141.2210 N   0  0  0  0  0  0  0  0  0  0  0  0
  184.6500  178.8380  139.9820 C   0  0  0  0  0  0  0  0  0  0  0  0
  185.0360  179.0760  143.5630 C   0  0  0  0  0  0  0  0  0  0  0  0
  188.7360  177.8180  141.9310 C   0  0  2  0  0  3  0  0  0  0  0  0
  187.9460  177.6540  138.1360 C   0  0  0  0  0  2  0  0  0  0  0  0
  184.5390  178.2260  146.2190 C   0  0  0  0  0  3  0  0  0  0  0  0
  183.6560  179.0150  144.0700 C   0  0  0  0  0  2  0  0  0  0  0  0
  181.1630  177.9300  139.0230 C   0  0  0  0  0  0  0  0  0  0  0  0
  180.3530  176.9760  139.1730 O   0  0  0  0  0  0  0  0  0  0  0  0
  182.9290  180.1720  138.7970 C   0  0  0  0  0  2  0  0  0  0  0  0
  180.6280  179.2780  138.6610 C   0  0  0  0  0  2  0  0  0  0  0  0
  183.5580  178.7850  138.9520 C   0  0  2  0  0  3  0  0  0  0  0  0
  182.5720  177.7320  139.2540 N   0  0  0  0  0  0  0  0  0  0  0  0
  183.0550  176.3790  139.5020 C   0  0  0  0  0  1  0  0  0  0  0  0
  181.6850  180.0960  137.9310 C   0  0  1  0  0  3  0  0  0  0  0  0
  179.9020  181.7870  137.8790 C   0  0  0  0  0  2  0  0  0  0  0  0
  181.1800  181.4760  137.6690 C   0  0  0  0  0  3  0  0  0  0  0  0
  188.7740  176.3400  142.3090 C   0  0  0  0  0  2  0  0  0  0  0  0
  190.1800  175.9340  142.7060 C   0  0  0  0  0  2  0  0  0  0  0  0
  190.6710  176.8390  143.8140 C   0  0  0  0  0  1  0  0  0  0  0  0
  1 14  1  0  0  0  0
  1  4  2  0  0  0  0
  2  7  1  0  0  0  0
  2  5  1  0  0  0  0
  3  1  1  0  0  0  0
  4  2  1  0  0  0  0
  5 11  2  0  0  0  0
  6 18  2  0  0  0  0
  7 15  2  0  0  0  0
  8 18  1  0  0  0  0
  9  8  2  0  0  0  0
 10  4  1  0  0  0  0
 10 16  1  0  0  0  0
 11  9  1  0  0  0  0
 12 10  1  0  0  0  0
 13  7  1  0  0  0  0
 14 13  2  0  0  0  0
 15 19  1  0  0  0  0
 15  9  1  0  0  0  0
 16 30  1  1  0  0  0
 16  5  1  0  0  0  0
 17  3  1  0  0  0  0
 17 12  1  0  0  0  0
 19  6  1  0  0  0  0
 20 21  2  0  0  0  0
 20 25  1  0  0  0  0
 22 24  1  0  0  0  0
 23 20  1  0  0  0  0
 24 25  1  0  0  0  0
 24 14  1  1  0  0  0
 25 26  1  0  0  0  0
 27 29  1  1  0  0  0
 27 23  1  0  0  0  0
 27 22  1  0  0  0  0
 29 28  2  0  0  0  0
 30 31  1  0  0  0  0
 31 32  1  0  0  0  0
M  END
>  <MODEL>
9

>  <REMARK>
 VINA RESULT:      -7.8      2.920      8.231
  Name = 
  4 active torsions:
  status: ('A' for Active; 'I' for Inactive)
    1  A    between atoms: C_13  and  C_18
    2  A    between atoms: C_15  and  C_26
    3  A    between atoms: C_18  and  C_29
    4  A    between atoms: C_20  and  C_27
                            x       y       z     vdW  Elec       q    Type
                         _______ _______ _______ _____ _____    ______ ____

>  <TORSDO>
F 4

$$$$
