=
 OpenBabel10262419483D

 25 28  0  0  0  0  0  0  0  0999 V2000
  187.0200  177.8600  145.1280 C   0  0  0  0  0  0  0  0  0  0  0  0
  188.2470  177.4140  144.5920 C   0  0  0  0  0  0  0  0  0  0  0  0
  187.9310  177.7930  147.3900 C   0  0  0  0  0  3  0  0  0  0  0  0
  185.8270  178.1720  144.4460 C   0  0  0  0  0  0  0  0  0  0  0  0
  190.1120  176.8530  141.4370 C   0  0  0  0  0  0  0  0  0  0  0  0
  183.3090  178.8790  143.4540 C   0  0  0  0  0  3  0  0  0  0  0  0
  189.1500  177.3490  146.8670 C   0  0  0  0  0  3  0  0  0  0  0  0
  184.8060  178.5840  145.3020 C   0  0  0  0  0  0  0  0  0  0  0  0
  183.5450  178.9410  144.8350 C   0  0  0  0  0  3  0  0  0  0  0  0
  190.6250  176.7050  144.9530 C   0  0  0  0  0  0  0  0  0  0  0  0
  191.9470  176.3070  146.0400 Cl  0  0  0  0  0  0  0  0  0  0  0  0
  190.3960  176.7850  140.1650 C   0  0  0  0  0  3  0  0  0  0  0  0
  188.4000  177.1560  143.1150 C   0  0  0  0  0  2  0  0  0  0  0  0
  184.3270  178.4670  142.5750 C   0  0  0  0  0  3  0  0  0  0  0  0
  186.8900  178.0410  146.5060 C   0  0  0  0  0  0  0  0  0  0  0  0
  185.3400  178.5760  146.8990 S   0  0  0  0  0  0  0  0  0  0  0  0
  190.8310  176.6190  143.6740 N   0  0  0  0  0  0  0  0  0  0  0  0
  185.5920  178.1110  143.0670 C   0  0  0  0  0  3  0  0  0  0  0  0
  189.8220  176.9210  142.7060 C   0  0  0  0  0  0  0  0  0  0  0  0
  189.3190  177.1550  145.4820 C   0  0  0  0  0  0  0  0  0  0  0  0
  189.3970  177.0840  139.1280 C   0  0  0  0  0  0  0  0  0  0  0  0
  189.1570  176.2490  138.2130 O   0  0  0  0  0  0  0  0  0  0  0  0
  188.6760  178.3620  139.1560 C   0  0  0  0  0  0  0  0  0  0  0  0
  187.5610  178.5220  139.9710 O   0  0  0  0  0  1  0  0  0  0  0  0
  189.0610  179.3240  138.4390 O   0  0  0  0  0  0  0  0  0  0  0  0
  1 15  1  0  0  0  0
  2  1  2  0  0  0  0
  2 20  1  0  0  0  0
  4  1  1  0  0  0  0
  4  8  1  0  0  0  0
  5 19  2  0  0  0  0
  6  9  1  0  0  0  0
  7  3  1  0  0  0  0
  8 16  1  0  0  0  0
  9  8  2  0  0  0  0
 10 20  1  0  0  0  0
 10 11  1  0  0  0  0
 12  5  2  0  0  0  0
 13  2  1  0  0  0  0
 14 18  1  0  0  0  0
 14  6  2  0  0  0  0
 15 16  1  0  0  0  0
 15  3  2  0  0  0  0
 17 10  2  0  0  0  0
 18  4  2  0  0  0  0
 19 13  1  0  0  0  0
 19 17  1  0  0  0  0
 20  7  2  0  0  0  0
 21 23  1  0  0  0  0
 21 12  1  0  0  0  0
 22 21  2  0  0  0  0
 23 24  1  0  0  0  0
 25 23  2  0  0  0  0
M  END
>  <MODEL>
1

>  <REMARK>
 VINA RESULT:     -11.5      0.000      0.000
  Name = 
  2 active torsions:
  status: ('A' for Active; 'I' for Inactive)
    1  A    between atoms: C_2  and  C_21
    2  A    between atoms: C_15  and  C_21
                            x       y       z     vdW  Elec       q    Type
                         _______ _______ _______ _____ _____    ______ ____

>  <TORSDO>
F 2

$$$$
=
 OpenBabel10262419483D

 25 28  0  0  0  0  0  0  0  0999 V2000
  186.7990  177.9500  145.0620 C   0  0  0  0  0  0  0  0  0  0  0  0
  188.0800  177.5850  144.5930 C   0  0  0  0  0  0  0  0  0  0  0  0
  187.5570  177.8080  147.3770 C   0  0  0  0  0  3  0  0  0  0  0  0
  185.6420  178.2420  144.3140 C   0  0  0  0  0  0  0  0  0  0  0  0
  190.1800  177.2670  141.5540 C   0  0  0  0  0  0  0  0  0  0  0  0
  183.1670  178.8860  143.1810 C   0  0  0  0  0  3  0  0  0  0  0  0
  188.8280  177.4460  146.9210 C   0  0  0  0  0  3  0  0  0  0  0  0
  184.5470  178.5650  145.1140 C   0  0  0  0  0  0  0  0  0  0  0  0
  183.3050  178.8890  144.5770 C   0  0  0  0  0  3  0  0  0  0  0  0
  190.4590  176.9650  145.0880 C   0  0  0  0  0  0  0  0  0  0  0  0
  191.7220  176.5720  146.2450 Cl  0  0  0  0  0  0  0  0  0  0  0  0
  190.5530  177.2760  140.3040 C   0  0  0  0  0  3  0  0  0  0  0  0
  188.3460  177.4090  143.1210 C   0  0  0  0  0  2  0  0  0  0  0  0
  184.2610  178.5640  142.3580 C   0  0  0  0  0  3  0  0  0  0  0  0
  186.5670  178.0540  146.4340 C   0  0  0  0  0  0  0  0  0  0  0  0
  184.9700  178.4990  146.7430 S   0  0  0  0  0  0  0  0  0  0  0  0
  190.7550  176.9530  143.8240 N   0  0  0  0  0  0  0  0  0  0  0  0
  185.5050  178.2400  142.9200 C   0  0  0  0  0  3  0  0  0  0  0  0
  189.8020  177.2580  142.8020 C   0  0  0  0  0  0  0  0  0  0  0  0
  189.1000  177.3300  145.5440 C   0  0  0  0  0  0  0  0  0  0  0  0
  189.6150  177.5820  139.2150 C   0  0  0  0  0  0  0  0  0  0  0  0
  188.4810  178.0750  139.4690 O   0  0  0  0  0  0  0  0  0  0  0  0
  189.9970  177.3120  137.8230 C   0  0  0  0  0  0  0  0  0  0  0  0
  189.1290  177.6250  136.7830 O   0  0  0  0  0  0  0  0  0  0  0  0
  191.1140  176.7930  137.5620 O   0  0  0  0  0  1  0  0  0  0  0  0
  1 15  1  0  0  0  0
  2  1  2  0  0  0  0
  2 20  1  0  0  0  0
  4  1  1  0  0  0  0
  4  8  1  0  0  0  0
  5 19  2  0  0  0  0
  6  9  1  0  0  0  0
  7  3  1  0  0  0  0
  8 16  1  0  0  0  0
  9  8  2  0  0  0  0
 10 20  1  0  0  0  0
 10 11  1  0  0  0  0
 12  5  2  0  0  0  0
 13  2  1  0  0  0  0
 14 18  1  0  0  0  0
 14  6  2  0  0  0  0
 15 16  1  0  0  0  0
 15  3  2  0  0  0  0
 17 10  2  0  0  0  0
 18  4  2  0  0  0  0
 19 13  1  0  0  0  0
 19 17  1  0  0  0  0
 20  7  2  0  0  0  0
 21 22  2  0  0  0  0
 21 12  1  0  0  0  0
 23 21  1  0  0  0  0
 24 23  2  0  0  0  0
 25 23  1  0  0  0  0
M  END
>  <MODEL>
2

>  <REMARK>
 VINA RESULT:     -10.6      0.762      1.223
  Name = 
  2 active torsions:
  status: ('A' for Active; 'I' for Inactive)
    1  A    between atoms: C_2  and  C_21
    2  A    between atoms: C_15  and  C_21
                            x       y       z     vdW  Elec       q    Type
                         _______ _______ _______ _____ _____    ______ ____

>  <TORSDO>
F 2

$$$$
=
 OpenBabel10262419483D

 25 28  0  0  0  0  0  0  0  0999 V2000
  186.2350  178.2850  144.3090 C   0  0  0  0  0  0  0  0  0  0  0  0
  186.3460  178.4260  142.9090 C   0  0  0  0  0  0  0  0  0  0  0  0
  183.8630  178.8490  144.2230 C   0  0  0  0  0  3  0  0  0  0  0  0
  187.2370  177.9430  145.2390 C   0  0  0  0  0  0  0  0  0  0  0  0
  188.6030  177.9000  140.0150 C   0  0  0  0  0  0  0  0  0  0  0  0
  188.9400  177.2950  147.3610 C   0  0  0  0  0  3  0  0  0  0  0  0
  183.9640  178.9910  142.8360 C   0  0  0  0  0  3  0  0  0  0  0  0
  186.7660  177.8980  146.5500 C   0  0  0  0  0  0  0  0  0  0  0  0
  187.5920  177.5790  147.6240 C   0  0  0  0  0  3  0  0  0  0  0  0
  185.2660  178.9230  140.7010 C   0  0  0  0  0  0  0  0  0  0  0  0
  183.8660  179.4400  139.7720 Cl  0  0  0  0  0  0  0  0  0  0  0  0
  189.6570  177.5910  139.3090 C   0  0  0  0  0  3  0  0  0  0  0  0
  187.6740  178.2590  142.2160 C   0  0  0  0  0  2  0  0  0  0  0  0
  189.4330  177.3360  146.0440 C   0  0  0  0  0  3  0  0  0  0  0  0
  185.0040  178.4970  144.9320 C   0  0  0  0  0  0  0  0  0  0  0  0
  185.1250  178.2710  146.5990 S   0  0  0  0  0  0  0  0  0  0  0  0
  186.3600  178.6380  140.0630 N   0  0  0  0  0  0  0  0  0  0  0  0
  188.5830  177.6610  144.9750 C   0  0  0  0  0  3  0  0  0  0  0  0
  187.5530  178.2080  140.7230 C   0  0  0  0  0  0  0  0  0  0  0  0
  185.1900  178.7860  142.1720 C   0  0  0  0  0  0  0  0  0  0  0  0
  190.9080  177.1440  139.9380 C   0  0  0  0  0  0  0  0  0  0  0  0
  191.9250  176.9000  139.2320 O   0  0  0  0  0  0  0  0  0  0  0  0
  190.9760  176.9790  141.3950 C   0  0  0  0  0  0  0  0  0  0  0  0
  190.3880  175.8780  142.0060 O   0  0  0  0  0  0  0  0  0  0  0  0
  191.5670  177.8360  142.1040 O   0  0  0  0  0  1  0  0  0  0  0  0
  1 15  2  0  0  0  0
  1  4  1  0  0  0  0
  2  1  1  0  0  0  0
  3 15  1  0  0  0  0
  4  8  1  0  0  0  0
  5 19  2  0  0  0  0
  6  9  1  0  0  0  0
  7  3  2  0  0  0  0
  8 16  1  0  0  0  0
  8  9  2  0  0  0  0
 10 20  1  0  0  0  0
 11 10  1  0  0  0  0
 12 21  1  0  0  0  0
 12  5  2  0  0  0  0
 13  2  1  0  0  0  0
 14  6  2  0  0  0  0
 15 16  1  0  0  0  0
 17 10  2  0  0  0  0
 17 19  1  0  0  0  0
 18  4  2  0  0  0  0
 18 14  1  0  0  0  0
 19 13  1  0  0  0  0
 20  7  1  0  0  0  0
 20  2  2  0  0  0  0
 21 23  1  0  0  0  0
 22 21  2  0  0  0  0
 23 24  2  0  0  0  0
 23 25  1  0  0  0  0
M  END
>  <MODEL>
3

>  <REMARK>
 VINA RESULT:     -10.5      2.938      4.669
  Name = 
  2 active torsions:
  status: ('A' for Active; 'I' for Inactive)
    1  A    between atoms: C_2  and  C_21
    2  A    between atoms: C_15  and  C_21
                            x       y       z     vdW  Elec       q    Type
                         _______ _______ _______ _____ _____    ______ ____

>  <TORSDO>
F 2

$$$$
=
 OpenBabel10262419483D

 25 28  0  0  0  0  0  0  0  0999 V2000
  189.4400  177.4130  144.0160 C   0  0  0  0  0  0  0  0  0  0  0  0
  188.4250  177.7330  144.9430 C   0  0  0  0  0  0  0  0  0  0  0  0
  190.9700  176.8290  145.8240 C   0  0  0  0  0  3  0  0  0  0  0  0
  189.3950  177.4760  142.6090 C   0  0  0  0  0  0  0  0  0  0  0  0
  184.8370  178.6050  145.2760 C   0  0  0  0  0  0  0  0  0  0  0  0
  189.6810  177.4680  139.8270 C   0  0  0  0  0  3  0  0  0  0  0  0
  189.9710  177.1440  146.7490 C   0  0  0  0  0  3  0  0  0  0  0  0
  190.5910  177.0840  142.0110 C   0  0  0  0  0  0  0  0  0  0  0  0
  190.7610  177.0710  140.6290 C   0  0  0  0  0  3  0  0  0  0  0  0
  187.6580  177.9020  147.3250 C   0  0  0  0  0  0  0  0  0  0  0  0
  188.0020  177.8110  149.0460 Cl  0  0  0  0  0  0  0  0  0  0  0  0
  183.6010  178.8900  144.9690 C   0  0  0  0  0  3  0  0  0  0  0  0
  187.0940  178.2670  144.4820 C   0  0  0  0  0  2  0  0  0  0  0  0
  188.4660  177.8670  140.4130 C   0  0  0  0  0  3  0  0  0  0  0  0
  190.6820  176.9690  144.4730 C   0  0  0  0  0  0  0  0  0  0  0  0
  191.7210  176.6540  143.1830 S   0  0  0  0  0  0  0  0  0  0  0  0
  186.4560  178.2200  146.9520 N   0  0  0  0  0  0  0  0  0  0  0  0
  188.3170  177.8730  141.8080 C   0  0  0  0  0  3  0  0  0  0  0  0
  186.0730  178.3210  145.5770 C   0  0  0  0  0  0  0  0  0  0  0  0
  188.7050  177.5950  146.3260 C   0  0  0  0  0  0  0  0  0  0  0  0
  183.1540  179.0060  143.5730 C   0  0  0  0  0  0  0  0  0  0  0  0
  181.9530  179.2890  143.3080 O   0  0  0  0  0  0  0  0  0  0  0  0
  184.1100  178.7900  142.4790 C   0  0  0  0  0  0  0  0  0  0  0  0
  185.0800  179.7440  142.1950 O   0  0  0  0  0  1  0  0  0  0  0  0
  184.0560  177.7380  141.7890 O   0  0  0  0  0  0  0  0  0  0  0  0
  1 15  1  0  0  0  0
  1  2  2  0  0  0  0
  2 20  1  0  0  0  0
  3  7  1  0  0  0  0
  4  1  1  0  0  0  0
  5 19  2  0  0  0  0
  6 14  2  0  0  0  0
  6  9  1  0  0  0  0
  8  4  1  0  0  0  0
  8 16  1  0  0  0  0
  9  8  2  0  0  0  0
 10 11  1  0  0  0  0
 12  5  2  0  0  0  0
 13  2  1  0  0  0  0
 13 19  1  0  0  0  0
 14 18  1  0  0  0  0
 15  3  2  0  0  0  0
 16 15  1  0  0  0  0
 17 10  2  0  0  0  0
 18  4  2  0  0  0  0
 19 17  1  0  0  0  0
 20  7  2  0  0  0  0
 20 10  1  0  0  0  0
 21 12  1  0  0  0  0
 22 21  2  0  0  0  0
 23 21  1  0  0  0  0
 24 23  1  0  0  0  0
 25 23  2  0  0  0  0
M  END
>  <MODEL>
4

>  <REMARK>
 VINA RESULT:     -10.4      2.938      5.586
  Name = 
  2 active torsions:
  status: ('A' for Active; 'I' for Inactive)
    1  A    between atoms: C_2  and  C_21
    2  A    between atoms: C_15  and  C_21
                            x       y       z     vdW  Elec       q    Type
                         _______ _______ _______ _____ _____    ______ ____

>  <TORSDO>
F 2

$$$$
=
 OpenBabel10262419483D

 25 28  0  0  0  0  0  0  0  0999 V2000
  187.6970  177.8240  145.6870 C   0  0  0  0  0  0  0  0  0  0  0  0
  186.9430  178.1900  144.5510 C   0  0  0  0  0  0  0  0  0  0  0  0
  185.7620  178.1580  147.1350 C   0  0  0  0  0  3  0  0  0  0  0  0
  189.0520  177.4440  145.7550 C   0  0  0  0  0  0  0  0  0  0  0  0
  186.9880  178.3430  140.8470 C   0  0  0  0  0  0  0  0  0  0  0  0
  191.6800  176.6470  146.2830 C   0  0  0  0  0  3  0  0  0  0  0  0
  185.0080  178.5220  146.0150 C   0  0  0  0  0  3  0  0  0  0  0  0
  189.4670  177.1500  147.0530 C   0  0  0  0  0  0  0  0  0  0  0  0
  190.7690  176.7520  147.3440 C   0  0  0  0  0  3  0  0  0  0  0  0
  184.7560  178.9130  143.5580 C   0  0  0  0  0  0  0  0  0  0  0  0
  183.0880  179.4260  143.7590 Cl  0  0  0  0  0  0  0  0  0  0  0  0
  187.3980  178.2520  139.6110 C   0  0  0  0  0  3  0  0  0  0  0  0
  187.5800  178.2640  143.1870 C   0  0  0  0  0  2  0  0  0  0  0  0
  191.2790  176.9390  144.9670 C   0  0  0  0  0  3  0  0  0  0  0  0
  187.0940  177.8140  146.9460 C   0  0  0  0  0  0  0  0  0  0  0  0
  188.1930  177.3470  148.1360 S   0  0  0  0  0  0  0  0  0  0  0  0
  185.2390  178.8400  142.3550 N   0  0  0  0  0  0  0  0  0  0  0  0
  189.9620  177.3390  144.6960 C   0  0  0  0  0  3  0  0  0  0  0  0
  186.5830  178.4330  142.0830 C   0  0  0  0  0  0  0  0  0  0  0  0
  185.5820  178.5430  144.7280 C   0  0  0  0  0  0  0  0  0  0  0  0
  188.7690  177.8400  139.2760 C   0  0  0  0  0  0  0  0  0  0  0  0
  189.4350  177.1270  140.0760 O   0  0  0  0  0  0  0  0  0  0  0  0
  189.3680  178.2610  138.0030 C   0  0  0  0  0  0  0  0  0  0  0  0
  189.0520  179.4970  137.4530 O   0  0  0  0  0  1  0  0  0  0  0  0
  190.1730  177.5030  137.4000 O   0  0  0  0  0  0  0  0  0  0  0  0
  1  4  1  0  0  0  0
  1 15  2  0  0  0  0
  2 20  2  0  0  0  0
  2  1  1  0  0  0  0
  4  8  1  0  0  0  0
  5 19  2  0  0  0  0
  6  9  1  0  0  0  0
  7  3  2  0  0  0  0
  8  9  2  0  0  0  0
  8 16  1  0  0  0  0
 10 11  1  0  0  0  0
 10 20  1  0  0  0  0
 12  5  2  0  0  0  0
 13  2  1  0  0  0  0
 14  6  2  0  0  0  0
 15  3  1  0  0  0  0
 15 16  1  0  0  0  0
 17 10  2  0  0  0  0
 18 14  1  0  0  0  0
 18  4  2  0  0  0  0
 19 17  1  0  0  0  0
 19 13  1  0  0  0  0
 20  7  1  0  0  0  0
 21 12  1  0  0  0  0
 21 22  2  0  0  0  0
 23 21  1  0  0  0  0
 24 23  1  0  0  0  0
 25 23  2  0  0  0  0
M  END
>  <MODEL>
5

>  <REMARK>
 VINA RESULT:     -10.3      2.719      4.705
  Name = 
  2 active torsions:
  status: ('A' for Active; 'I' for Inactive)
    1  A    between atoms: C_2  and  C_21
    2  A    between atoms: C_15  and  C_21
                            x       y       z     vdW  Elec       q    Type
                         _______ _______ _______ _____ _____    ______ ____

>  <TORSDO>
F 2

$$$$
=
 OpenBabel10262419483D

 25 28  0  0  0  0  0  0  0  0999 V2000
  186.5480  178.2410  144.3070 C   0  0  0  0  0  0  0  0  0  0  0  0
  186.6520  178.3940  142.9080 C   0  0  0  0  0  0  0  0  0  0  0  0
  184.1660  178.7650  144.2330 C   0  0  0  0  0  3  0  0  0  0  0  0
  187.5590  177.9100  145.2310 C   0  0  0  0  0  0  0  0  0  0  0  0
  188.9070  177.9280  140.0020 C   0  0  0  0  0  0  0  0  0  0  0  0
  189.2800  177.2760  147.3420 C   0  0  0  0  0  3  0  0  0  0  0  0
  184.2610  178.9190  142.8460 C   0  0  0  0  0  3  0  0  0  0  0  0
  187.0930  177.8470  146.5430 C   0  0  0  0  0  0  0  0  0  0  0  0
  187.9280  177.5340  147.6130 C   0  0  0  0  0  3  0  0  0  0  0  0
  185.5560  178.8890  140.7070 C   0  0  0  0  0  0  0  0  0  0  0  0
  184.1450  179.3890  139.7870 Cl  0  0  0  0  0  0  0  0  0  0  0  0
  189.9640  177.6430  139.2910 C   0  0  0  0  0  3  0  0  0  0  0  0
  187.9800  178.2560  142.2090 C   0  0  0  0  0  2  0  0  0  0  0  0
  189.7670  177.3350  146.0250 C   0  0  0  0  0  3  0  0  0  0  0  0
  185.3160  178.4280  144.9350 C   0  0  0  0  0  0  0  0  0  0  0  0
  185.4460  178.1920  146.6000 S   0  0  0  0  0  0  0  0  0  0  0  0
  186.6520  178.6280  140.0630 N   0  0  0  0  0  0  0  0  0  0  0  0
  188.9080  177.6530  144.9610 C   0  0  0  0  0  3  0  0  0  0  0  0
  187.8550  178.2130  140.7170 C   0  0  0  0  0  0  0  0  0  0  0  0
  185.4880  178.7400  142.1770 C   0  0  0  0  0  0  0  0  0  0  0  0
  191.2250  177.2130  139.9120 C   0  0  0  0  0  0  0  0  0  0  0  0
  191.3210  177.1210  141.1670 O   0  0  0  0  0  0  0  0  0  0  0  0
  192.3820  176.8890  139.0680 C   0  0  0  0  0  0  0  0  0  0  0  0
  192.2000  176.3230  137.8120 O   0  0  0  0  0  0  0  0  0  0  0  0
  193.5500  177.1220  139.4780 O   0  0  0  0  0  1  0  0  0  0  0  0
  1 15  2  0  0  0  0
  1  4  1  0  0  0  0
  2  1  1  0  0  0  0
  3 15  1  0  0  0  0
  4  8  1  0  0  0  0
  5 19  2  0  0  0  0
  6  9  1  0  0  0  0
  7  3  2  0  0  0  0
  8 16  1  0  0  0  0
  8  9  2  0  0  0  0
 10 20  1  0  0  0  0
 11 10  1  0  0  0  0
 12 21  1  0  0  0  0
 12  5  2  0  0  0  0
 13  2  1  0  0  0  0
 14  6  2  0  0  0  0
 15 16  1  0  0  0  0
 17 10  2  0  0  0  0
 17 19  1  0  0  0  0
 18  4  2  0  0  0  0
 18 14  1  0  0  0  0
 19 13  1  0  0  0  0
 20  7  1  0  0  0  0
 20  2  2  0  0  0  0
 21 22  2  0  0  0  0
 23 25  1  0  0  0  0
 23 21  1  0  0  0  0
 24 23  2  0  0  0  0
M  END
>  <MODEL>
6

>  <REMARK>
 VINA RESULT:     -10.1      2.927      4.737
  Name = 
  2 active torsions:
  status: ('A' for Active; 'I' for Inactive)
    1  A    between atoms: C_2  and  C_21
    2  A    between atoms: C_15  and  C_21
                            x       y       z     vdW  Elec       q    Type
                         _______ _______ _______ _____ _____    ______ ____

>  <TORSDO>
F 2

$$$$
=
 OpenBabel10262419483D

 25 28  0  0  0  0  0  0  0  0999 V2000
  186.9210  178.1330  142.4050 C   0  0  0  0  0  0  0  0  0  0  0  0
  186.9800  177.9140  143.7980 C   0  0  0  0  0  0  0  0  0  0  0  0
  184.6150  178.9110  142.5780 C   0  0  0  0  0  3  0  0  0  0  0  0
  187.9250  177.9180  141.4400 C   0  0  0  0  0  0  0  0  0  0  0  0
  189.2510  177.0780  146.6070 C   0  0  0  0  0  0  0  0  0  0  0  0
  189.6520  177.6260  139.2590 C   0  0  0  0  0  3  0  0  0  0  0  0
  184.6640  178.6960  143.9590 C   0  0  0  0  0  3  0  0  0  0  0  0
  187.5140  178.2450  140.1480 C   0  0  0  0  0  0  0  0  0  0  0  0
  188.3520  178.1090  139.0460 C   0  0  0  0  0  3  0  0  0  0  0  0
  185.8620  178.0010  146.0420 C   0  0  0  0  0  0  0  0  0  0  0  0
  184.4290  178.2780  147.0190 Cl  0  0  0  0  0  0  0  0  0  0  0  0
  190.3270  176.7600  147.2730 C   0  0  0  0  0  3  0  0  0  0  0  0
  188.2110  177.3310  144.4400 C   0  0  0  0  0  2  0  0  0  0  0  0
  190.0840  177.2910  140.5550 C   0  0  0  0  0  3  0  0  0  0  0  0
  185.7490  178.6250  141.8290 C   0  0  0  0  0  0  0  0  0  0  0  0
  185.9240  178.8000  140.1610 S   0  0  0  0  0  0  0  0  0  0  0  0
  186.9570  177.6440  146.6390 N   0  0  0  0  0  0  0  0  0  0  0  0
  189.2220  177.4360  141.6530 C   0  0  0  0  0  3  0  0  0  0  0  0
  188.1780  177.3940  145.9370 C   0  0  0  0  0  0  0  0  0  0  0  0
  185.8300  178.2000  144.5760 C   0  0  0  0  0  0  0  0  0  0  0  0
  191.6060  176.4930  146.6010 C   0  0  0  0  0  0  0  0  0  0  0  0
  192.6020  176.0860  147.2600 O   0  0  0  0  0  0  0  0  0  0  0  0
  191.7280  176.7020  145.1520 C   0  0  0  0  0  0  0  0  0  0  0  0
  191.7690  177.9890  144.6300 O   0  0  0  0  0  1  0  0  0  0  0  0
  191.7960  175.7160  144.3720 O   0  0  0  0  0  0  0  0  0  0  0  0
  1  2  2  0  0  0  0
  2 13  1  0  0  0  0
  2 20  1  0  0  0  0
  3  7  1  0  0  0  0
  4 18  1  0  0  0  0
  4  1  1  0  0  0  0
  5 12  2  0  0  0  0
  6 14  1  0  0  0  0
  7 20  2  0  0  0  0
  8 16  1  0  0  0  0
  8  4  2  0  0  0  0
  9  6  2  0  0  0  0
  9  8  1  0  0  0  0
 10 17  2  0  0  0  0
 10 11  1  0  0  0  0
 13 19  1  0  0  0  0
 14 18  2  0  0  0  0
 15  1  1  0  0  0  0
 15  3  2  0  0  0  0
 16 15  1  0  0  0  0
 19  5  2  0  0  0  0
 19 17  1  0  0  0  0
 20 10  1  0  0  0  0
 21 22  2  0  0  0  0
 21 12  1  0  0  0  0
 23 21  1  0  0  0  0
 24 23  1  0  0  0  0
 25 23  2  0  0  0  0
M  END
>  <MODEL>
7

>  <REMARK>
 VINA RESULT:     -10.1      3.619      5.936
  Name = 
  2 active torsions:
  status: ('A' for Active; 'I' for Inactive)
    1  A    between atoms: C_2  and  C_21
    2  A    between atoms: C_15  and  C_21
                            x       y       z     vdW  Elec       q    Type
                         _______ _______ _______ _____ _____    ______ ____

>  <TORSDO>
F 2

$$$$
=
 OpenBabel10262419483D

 25 28  0  0  0  0  0  0  0  0999 V2000
  188.7760  177.6440  143.3880 C   0  0  0  0  0  0  0  0  0  0  0  0
  187.4230  177.9180  143.6840 C   0  0  0  0  0  0  0  0  0  0  0  0
  189.2930  177.4030  145.7600 C   0  0  0  0  0  3  0  0  0  0  0  0
  189.4020  177.5820  142.1270 C   0  0  0  0  0  0  0  0  0  0  0  0
  184.0620  178.3810  142.1890 C   0  0  0  0  0  0  0  0  0  0  0  0
  190.9800  177.3720  139.8280 C   0  0  0  0  0  3  0  0  0  0  0  0
  187.9560  177.6740  146.0620 C   0  0  0  0  0  3  0  0  0  0  0  0
  190.7620  177.2870  142.2130 C   0  0  0  0  0  0  0  0  0  0  0  0
  191.5700  177.1770  141.0850 C   0  0  0  0  0  3  0  0  0  0  0  0
  185.6040  178.1970  145.3890 C   0  0  0  0  0  0  0  0  0  0  0  0
  185.0920  178.2940  147.0670 Cl  0  0  0  0  0  0  0  0  0  0  0  0
  183.1060  178.4890  141.3070 C   0  0  0  0  0  3  0  0  0  0  0  0
  186.4410  178.2490  142.5910 C   0  0  0  0  0  2  0  0  0  0  0  0
  189.6100  177.6710  139.7220 C   0  0  0  0  0  3  0  0  0  0  0  0
  189.6760  177.3930  144.4250 C   0  0  0  0  0  0  0  0  0  0  0  0
  191.2220  177.0960  143.8220 S   0  0  0  0  0  0  0  0  0  0  0  0
  184.7080  178.3360  144.4600 N   0  0  0  0  0  0  0  0  0  0  0  0
  188.8130  177.7780  140.8730 C   0  0  0  0  0  3  0  0  0  0  0  0
  185.0200  178.2730  143.0660 C   0  0  0  0  0  0  0  0  0  0  0  0
  187.0180  177.9330  145.0430 C   0  0  0  0  0  0  0  0  0  0  0  0
  183.3720  178.4330  139.8620 C   0  0  0  0  0  0  0  0  0  0  0  0
  182.6860  177.6820  139.1150 O   0  0  0  0  0  0  0  0  0  0  0  0
  184.4440  179.2520  139.2840 C   0  0  0  0  0  0  0  0  0  0  0  0
  185.7010  178.7040  139.0520 O   0  0  0  0  0  1  0  0  0  0  0  0
  184.2330  180.4600  138.9940 O   0  0  0  0  0  0  0  0  0  0  0  0
  1  2  2  0  0  0  0
  1 15  1  0  0  0  0
  2 20  1  0  0  0  0
  3  7  1  0  0  0  0
  4  8  1  0  0  0  0
  4  1  1  0  0  0  0
  5 19  2  0  0  0  0
  6  9  1  0  0  0  0
  8 16  1  0  0  0  0
  9  8  2  0  0  0  0
 10 11  1  0  0  0  0
 12  5  2  0  0  0  0
 13 19  1  0  0  0  0
 13  2  1  0  0  0  0
 14  6  2  0  0  0  0
 14 18  1  0  0  0  0
 15  3  2  0  0  0  0
 16 15  1  0  0  0  0
 17 10  2  0  0  0  0
 18  4  2  0  0  0  0
 19 17  1  0  0  0  0
 20 10  1  0  0  0  0
 20  7  2  0  0  0  0
 21 12  1  0  0  0  0
 22 21  2  0  0  0  0
 23 21  1  0  0  0  0
 24 23  1  0  0  0  0
 25 23  2  0  0  0  0
M  END
>  <MODEL>
8

>  <REMARK>
 VINA RESULT:     -10.0      2.992      5.411
  Name = 
  2 active torsions:
  status: ('A' for Active; 'I' for Inactive)
    1  A    between atoms: C_2  and  C_21
    2  A    between atoms: C_15  and  C_21
                            x       y       z     vdW  Elec       q    Type
                         _______ _______ _______ _____ _____    ______ ____

>  <TORSDO>
F 2

$$$$
=
 OpenBabel10262419483D

 25 28  0  0  0  0  0  0  0  0999 V2000
  189.1190  177.6250  143.7530 C   0  0  0  0  0  0  0  0  0  0  0  0
  188.1060  177.8680  144.7060 C   0  0  0  0  0  0  0  0  0  0  0  0
  190.7010  177.0440  145.5170 C   0  0  0  0  0  3  0  0  0  0  0  0
  189.0480  177.7350  142.3500 C   0  0  0  0  0  0  0  0  0  0  0  0
  184.4900  178.5730  145.1210 C   0  0  0  0  0  0  0  0  0  0  0  0
  189.2900  177.8360  139.5660 C   0  0  0  0  0  3  0  0  0  0  0  0
  189.7040  177.2840  146.4670 C   0  0  0  0  0  3  0  0  0  0  0  0
  190.2510  177.4160  141.7220 C   0  0  0  0  0  0  0  0  0  0  0  0
  190.3990  177.4580  140.3380 C   0  0  0  0  0  3  0  0  0  0  0  0
  187.3710  177.9220  147.1030 C   0  0  0  0  0  0  0  0  0  0  0  0
  187.7450  177.7850  148.8140 Cl  0  0  0  0  0  0  0  0  0  0  0  0
  183.2380  178.8150  144.8420 C   0  0  0  0  0  3  0  0  0  0  0  0
  186.7460  178.3610  144.2840 C   0  0  0  0  0  2  0  0  0  0  0  0
  188.0690  178.1610  140.1830 C   0  0  0  0  0  3  0  0  0  0  0  0
  190.3860  177.2190  144.1760 C   0  0  0  0  0  0  0  0  0  0  0  0
  191.4170  176.9940  142.8610 S   0  0  0  0  0  0  0  0  0  0  0  0
  186.1500  178.2000  146.7590 N   0  0  0  0  0  0  0  0  0  0  0  0
  187.9420  178.1120  141.5800 C   0  0  0  0  0  3  0  0  0  0  0  0
  185.7410  178.3320  145.3940 C   0  0  0  0  0  0  0  0  0  0  0  0
  188.4130  177.6940  146.0790 C   0  0  0  0  0  0  0  0  0  0  0  0
  182.7650  178.9600  143.4580 C   0  0  0  0  0  0  0  0  0  0  0  0
  183.5820  178.9360  142.4970 O   0  0  0  0  0  0  0  0  0  0  0  0
  181.3320  179.1380  143.1900 C   0  0  0  0  0  0  0  0  0  0  0  0
  180.7850  180.4130  143.1100 O   0  0  0  0  0  1  0  0  0  0  0  0
  180.5870  178.1350  143.0330 O   0  0  0  0  0  0  0  0  0  0  0  0
  1 15  1  0  0  0  0
  1  2  2  0  0  0  0
  2 20  1  0  0  0  0
  3  7  1  0  0  0  0
  4  1  1  0  0  0  0
  5 19  2  0  0  0  0
  6 14  2  0  0  0  0
  6  9  1  0  0  0  0
  8  4  1  0  0  0  0
  8 16  1  0  0  0  0
  9  8  2  0  0  0  0
 10 11  1  0  0  0  0
 12  5  2  0  0  0  0
 13  2  1  0  0  0  0
 13 19  1  0  0  0  0
 14 18  1  0  0  0  0
 15  3  2  0  0  0  0
 16 15  1  0  0  0  0
 17 10  2  0  0  0  0
 18  4  2  0  0  0  0
 19 17  1  0  0  0  0
 20  7  2  0  0  0  0
 20 10  1  0  0  0  0
 21 12  1  0  0  0  0
 22 21  2  0  0  0  0
 23 21  1  0  0  0  0
 24 23  1  0  0  0  0
 25 23  2  0  0  0  0
M  END
>  <MODEL>
9

>  <REMARK>
 VINA RESULT:      -9.8      3.325      5.948
  Name = 
  2 active torsions:
  status: ('A' for Active; 'I' for Inactive)
    1  A    between atoms: C_2  and  C_21
    2  A    between atoms: C_15  and  C_21
                            x       y       z     vdW  Elec       q    Type
                         _______ _______ _______ _____ _____    ______ ____

>  <TORSDO>
F 2

$$$$
