=
 OpenBabel10262421493D

 30 32  0  0  1  0  0  0  0  0999 V2000
  190.7150  177.4500  144.1170 C   0  0  0  0  0  0  0  0  0  0  0  0
  191.2700  176.9430  145.2930 C   0  0  0  0  0  3  0  0  0  0  0  0
  191.7730  177.6480  142.7280 Cl  0  0  0  0  0  0  0  0  0  0  0  0
  188.5410  177.6120  145.2210 C   0  0  0  0  0  0  0  0  0  0  0  0
  190.4830  176.7780  146.4300 C   0  0  0  0  0  3  0  0  0  0  0  0
  189.3510  177.8090  144.0730 C   0  0  0  0  0  0  0  0  0  0  0  0
  189.1300  177.1060  146.3910 C   0  0  0  0  0  3  0  0  0  0  0  0
  184.4910  179.3400  145.6970 N   0  0  0  0  0  0  0  0  0  0  0  0
  184.5390  179.3340  144.3990 C   0  0  0  0  0  3  0  0  0  0  0  0
  184.9990  178.2640  146.5320 C   0  0  0  0  0  2  0  0  0  0  0  0
  186.3230  177.6720  143.9640 C   0  0  0  0  0  3  0  0  0  0  0  0
  186.4780  178.1370  146.3870 C   0  0  0  0  0  3  0  0  0  0  0  0
  185.1850  178.2730  143.5920 C   0  0  0  0  0  0  0  0  0  0  0  0
  187.0820  177.8700  145.2240 C   0  0  0  0  0  0  0  0  0  0  0  0
  185.5790  179.7780  141.0840 O   0  0  0  0  0  0  0  0  0  0  0  0
  184.9280  178.7000  141.0770 C   0  0  0  0  0  0  0  0  0  0  0  0
  184.6900  177.9620  142.2830 N   0  0  0  0  0  2  0  0  0  0  0  0
  184.3800  178.1890  139.7940 C   0  0  0  0  0  1  0  0  0  0  0  0
  188.6860  178.5810  142.5820 S   0  0  0  0  0  0  0  0  0  0  0  0
  188.8460  177.1370  141.6660 O   0  0  0  0  0  0  0  0  0  0  0  0
  188.2650  177.4140  140.4270 C   0  0  0  0  0  2  0  0  0  0  0  0
  188.9250  177.3010  137.8600 C   0  0  1  0  0  3  0  0  0  0  0  0
  189.4840  178.5590  138.5160 C   0  0  0  0  0  2  0  0  0  0  0  0
  189.3210  177.2990  139.3320 C   0  0  1  0  0  0  0  0  0  0  0  0
  190.6320  176.6010  139.6380 C   0  0  0  0  0  1  0  0  0  0  0  0
  187.4260  177.4490  137.6270 C   0  0  2  0  0  3  0  0  0  0  0  0
  186.8430  176.1810  137.5810 O   0  0  0  0  0  1  0  0  0  0  0  0
  188.0960  177.7430  135.3490 O   0  0  0  0  0  1  0  0  0  0  0  0
  187.1770  178.1700  136.3090 C   0  0  2  0  0  3  0  0  0  0  0  0
  187.3030  179.5370  136.4780 F   0  0  0  0  0  0  0  0  0  0  0  0
  1  2  1  0  0  0  0
  2  5  2  0  0  0  0
  3  1  1  0  0  0  0
  4 14  1  0  0  0  0
  4  7  2  0  0  0  0
  6  1  2  0  0  0  0
  6  4  1  0  0  0  0
  7  5  1  0  0  0  0
  8 10  1  0  0  0  0
  9  8  2  0  0  0  0
 11 14  1  0  0  0  0
 12 10  1  0  0  0  0
 13 11  2  0  0  0  0
 13  9  1  0  0  0  0
 14 12  2  0  0  0  0
 16 15  2  0  0  0  0
 16 17  1  0  0  0  0
 17 13  1  0  0  0  0
 18 16  1  0  0  0  0
 19  6  1  0  0  0  0
 20 19  1  0  0  0  0
 21 20  1  0  0  0  0
 22 26  1  1  0  0  0
 22 23  1  0  0  0  0
 22 24  1  0  0  0  0
 23 24  1  0  0  0  0
 24 25  1  1  0  0  0
 24 21  1  0  0  0  0
 26 27  1  6  0  0  0
 29 28  1  6  0  0  0
 29 30  1  0  0  0  0
 29 26  1  0  0  0  0
M  END
>  <MODEL>
1

>  <REMARK>
 VINA RESULT:      -8.0      0.000      0.000
  Name = 
  8 active torsions:
  status: ('A' for Active; 'I' for Inactive)
    1  A    between atoms: O_1  and  C_4
    2  A    between atoms: O_1  and  S_5
    3  A    between atoms: C_4  and  C_27
    4  A    between atoms: S_5  and  C_22
    5  A    between atoms: C_8  and  C_12
    6  A    between atoms: C_9  and  C_12
    7  A    between atoms: N_16  and  C_25
    8  A    between atoms: C_19  and  C_29
                            x       y       z     vdW  Elec       q    Type
                         _______ _______ _______ _____ _____    ______ ____

>  <TORSDO>
F 8

$$$$
=
 OpenBabel10262421493D

 30 32  0  0  1  0  0  0  0  0999 V2000
  190.0310  177.4280  145.1170 C   0  0  0  0  0  0  0  0  0  0  0  0
  191.3020  177.9890  145.2530 C   0  0  0  0  0  3  0  0  0  0  0  0
  189.1950  176.9260  146.5790 Cl  0  0  0  0  0  0  0  0  0  0  0  0
  190.1790  177.6940  142.6930 C   0  0  0  0  0  0  0  0  0  0  0  0
  192.0170  178.3920  144.1280 C   0  0  0  0  0  3  0  0  0  0  0  0
  189.4640  177.2560  143.8360 C   0  0  0  0  0  0  0  0  0  0  0  0
  191.4590  178.2490  142.8600 C   0  0  0  0  0  3  0  0  0  0  0  0
  188.6930  178.6170  138.6230 N   0  0  0  0  0  0  0  0  0  0  0  0
  189.7070  177.8790  138.2880 C   0  0  0  0  0  3  0  0  0  0  0  0
  187.8130  178.3250  139.7440 C   0  0  0  0  0  2  0  0  0  0  0  0
  190.1360  176.6230  140.3790 C   0  0  0  0  0  3  0  0  0  0  0  0
  188.5570  178.4080  141.0340 C   0  0  0  0  0  3  0  0  0  0  0  0
  190.1570  176.6850  139.0410 C   0  0  0  0  0  0  0  0  0  0  0  0
  189.6120  177.6390  141.3250 C   0  0  0  0  0  0  0  0  0  0  0  0
  192.9390  176.5140  138.0710 O   0  0  0  0  0  0  0  0  0  0  0  0
  192.1590  175.5360  137.9250 C   0  0  0  0  0  0  0  0  0  0  0  0
  190.7940  175.5990  138.3550 N   0  0  0  0  0  2  0  0  0  0  0  0
  192.6600  174.2960  137.2790 C   0  0  0  0  0  1  0  0  0  0  0  0
  187.8760  176.4110  143.6780 S   0  0  0  0  0  0  0  0  0  0  0  0
  186.9910  177.8310  144.0680 O   0  0  0  0  0  0  0  0  0  0  0  0
  186.0330  177.4290  145.0010 C   0  0  0  0  0  2  0  0  0  0  0  0
  184.2400  179.3530  144.6470 C   0  0  1  0  0  3  0  0  0  0  0  0
  183.8100  178.3970  145.7550 C   0  0  0  0  0  2  0  0  0  0  0  0
  185.2790  178.6520  145.5150 C   0  0  1  0  0  0  0  0  0  0  0  0
  185.9220  179.5280  146.5710 C   0  0  0  0  0  1  0  0  0  0  0  0
  184.0400  178.7030  143.2830 C   0  0  2  0  0  3  0  0  0  0  0  0
  184.7880  179.3980  142.3310 O   0  0  0  0  0  1  0  0  0  0  0  0
  182.4320  178.7850  141.5120 O   0  0  0  0  0  1  0  0  0  0  0  0
  182.5650  178.7470  142.9010 C   0  0  2  0  0  3  0  0  0  0  0  0
  181.9630  179.8680  143.4440 F   0  0  0  0  0  0  0  0  0  0  0  0
  1  2  1  0  0  0  0
  1  3  1  0  0  0  0
  4  7  2  0  0  0  0
  4  6  1  0  0  0  0
  5  2  2  0  0  0  0
  6  1  2  0  0  0  0
  7  5  1  0  0  0  0
  8 10  1  0  0  0  0
  9  8  2  0  0  0  0
  9 13  1  0  0  0  0
 10 12  1  0  0  0  0
 11 14  1  0  0  0  0
 12 14  2  0  0  0  0
 13 11  2  0  0  0  0
 14  4  1  0  0  0  0
 16 15  2  0  0  0  0
 16 17  1  0  0  0  0
 17 13  1  0  0  0  0
 18 16  1  0  0  0  0
 19  6  1  0  0  0  0
 19 20  1  0  0  0  0
 20 21  1  0  0  0  0
 21 24  1  0  0  0  0
 22 26  1  6  0  0  0
 22 24  1  0  0  0  0
 22 23  1  0  0  0  0
 24 23  1  0  0  0  0
 24 25  1  1  0  0  0
 26 27  1  6  0  0  0
 29 28  1  6  0  0  0
 29 26  1  0  0  0  0
 29 30  1  0  0  0  0
M  END
>  <MODEL>
2

>  <REMARK>
 VINA RESULT:      -7.8      3.373      6.601
  Name = 
  8 active torsions:
  status: ('A' for Active; 'I' for Inactive)
    1  A    between atoms: O_1  and  C_4
    2  A    between atoms: O_1  and  S_5
    3  A    between atoms: C_4  and  C_27
    4  A    between atoms: S_5  and  C_22
    5  A    between atoms: C_8  and  C_12
    6  A    between atoms: C_9  and  C_12
    7  A    between atoms: N_16  and  C_25
    8  A    between atoms: C_19  and  C_29
                            x       y       z     vdW  Elec       q    Type
                         _______ _______ _______ _____ _____    ______ ____

>  <TORSDO>
F 8

$$$$
=
 OpenBabel10262421493D

 30 32  0  0  1  0  0  0  0  0999 V2000
  186.0220  178.3220  146.5970 C   0  0  0  0  0  0  0  0  0  0  0  0
  186.4640  178.6120  147.8880 C   0  0  0  0  0  3  0  0  0  0  0  0
  184.3110  178.5250  146.2510 Cl  0  0  0  0  0  0  0  0  0  0  0  0
  188.3030  177.7290  145.9550 C   0  0  0  0  0  0  0  0  0  0  0  0
  187.8070  178.4570  148.2240 C   0  0  0  0  0  3  0  0  0  0  0  0
  186.9300  177.8580  145.6220 C   0  0  0  0  0  0  0  0  0  0  0  0
  188.7180  178.0230  147.2640 C   0  0  0  0  0  3  0  0  0  0  0  0
  191.3110  175.5970  143.4990 N   0  0  0  0  0  0  0  0  0  0  0  0
  190.4190  175.7890  142.5750 C   0  0  0  0  0  3  0  0  0  0  0  0
  191.6630  176.5870  144.5050 C   0  0  0  0  0  2  0  0  0  0  0  0
  189.0890  177.6480  143.5310 C   0  0  0  0  0  3  0  0  0  0  0  0
  190.5030  176.8640  145.4000 C   0  0  0  0  0  3  0  0  0  0  0  0
  189.5820  177.0060  142.4620 C   0  0  0  0  0  0  0  0  0  0  0  0
  189.3340  177.3430  144.9620 C   0  0  0  0  0  0  0  0  0  0  0  0
  191.1840  177.5450  140.0430 O   0  0  0  0  0  0  0  0  0  0  0  0
  189.9320  177.6730  140.0110 C   0  0  0  0  0  0  0  0  0  0  0  0
  189.1280  177.4520  141.1770 N   0  0  0  0  0  2  0  0  0  0  0  0
  189.2730  178.0800  138.7430 C   0  0  0  0  0  1  0  0  0  0  0  0
  186.3120  177.3670  143.9980 S   0  0  0  0  0  0  0  0  0  0  0  0
  185.6830  178.9310  143.6760 O   0  0  0  0  0  0  0  0  0  0  0  0
  185.4810  178.9760  142.2950 C   0  0  0  0  0  2  0  0  0  0  0  0
  183.4790  178.8420  140.5600 C   0  0  1  0  0  3  0  0  0  0  0  0
  183.7370  177.4860  141.2080 C   0  0  0  0  0  2  0  0  0  0  0  0
  184.0040  178.7510  141.9880 C   0  0  1  0  0  0  0  0  0  0  0  0
  182.9730  179.0290  143.0640 C   0  0  0  0  0  1  0  0  0  0  0  0
  184.5580  179.1460  139.5270 C   0  0  2  0  0  3  0  0  0  0  0  0
  184.3760  180.4430  139.0430 O   0  0  0  0  0  1  0  0  0  0  0  0
  185.6310  178.1930  137.6120 O   0  0  0  0  0  1  0  0  0  0  0  0
  184.4620  178.1560  138.3730 C   0  0  2  0  0  3  0  0  0  0  0  0
  183.3850  178.4660  137.5630 F   0  0  0  0  0  0  0  0  0  0  0  0
  1  2  1  0  0  0  0
  2  5  2  0  0  0  0
  3  1  1  0  0  0  0
  4  7  2  0  0  0  0
  6  4  1  0  0  0  0
  6  1  2  0  0  0  0
  7  5  1  0  0  0  0
  8 10  1  0  0  0  0
  9  8  2  0  0  0  0
 10 12  1  0  0  0  0
 11 14  1  0  0  0  0
 13  9  1  0  0  0  0
 13 11  2  0  0  0  0
 14 12  2  0  0  0  0
 14  4  1  0  0  0  0
 16 15  2  0  0  0  0
 16 17  1  0  0  0  0
 17 13  1  0  0  0  0
 18 16  1  0  0  0  0
 19  6  1  0  0  0  0
 20 19  1  0  0  0  0
 21 20  1  0  0  0  0
 22 26  1  6  0  0  0
 22 23  1  0  0  0  0
 22 24  1  0  0  0  0
 23 24  1  0  0  0  0
 24 21  1  0  0  0  0
 24 25  1  1  0  0  0
 26 27  1  6  0  0  0
 28 29  1  0  0  0  0
 29 30  1  6  0  0  0
 29 26  1  0  0  0  0
M  END
>  <MODEL>
3

>  <REMARK>
 VINA RESULT:      -7.6      2.806      5.174
  Name = 
  8 active torsions:
  status: ('A' for Active; 'I' for Inactive)
    1  A    between atoms: O_1  and  C_4
    2  A    between atoms: O_1  and  S_5
    3  A    between atoms: C_4  and  C_27
    4  A    between atoms: S_5  and  C_22
    5  A    between atoms: C_8  and  C_12
    6  A    between atoms: C_9  and  C_12
    7  A    between atoms: N_16  and  C_25
    8  A    between atoms: C_19  and  C_29
                            x       y       z     vdW  Elec       q    Type
                         _______ _______ _______ _____ _____    ______ ____

>  <TORSDO>
F 8

$$$$
=
 OpenBabel10262421493D

 30 32  0  0  1  0  0  0  0  0999 V2000
  185.4780  178.1820  144.2850 C   0  0  0  0  0  0  0  0  0  0  0  0
  184.8310  178.6100  145.4450 C   0  0  0  0  0  3  0  0  0  0  0  0
  184.5420  178.1210  142.7990 Cl  0  0  0  0  0  0  0  0  0  0  0  0
  187.5430  177.8790  145.5560 C   0  0  0  0  0  0  0  0  0  0  0  0
  185.5180  178.6660  146.6550 C   0  0  0  0  0  3  0  0  0  0  0  0
  186.8340  177.7930  144.3300 C   0  0  0  0  0  0  0  0  0  0  0  0
  186.8630  178.3070  146.7080 C   0  0  0  0  0  3  0  0  0  0  0  0
  191.5020  176.0300  146.2770 N   0  0  0  0  0  0  0  0  0  0  0  0
  191.5600  176.0910  144.9820 C   0  0  0  0  0  3  0  0  0  0  0  0
  190.9520  177.0830  147.1150 C   0  0  0  0  0  2  0  0  0  0  0  0
  189.8530  177.8150  144.4790 C   0  0  0  0  0  3  0  0  0  0  0  0
  189.4930  177.2540  146.8590 C   0  0  0  0  0  3  0  0  0  0  0  0
  191.0040  177.2010  144.1720 C   0  0  0  0  0  0  0  0  0  0  0  0
  188.9910  177.5830  145.6640 C   0  0  0  0  0  0  0  0  0  0  0  0
  190.5330  176.0100  141.5140 O   0  0  0  0  0  0  0  0  0  0  0  0
  191.3330  176.9740  141.6400 C   0  0  0  0  0  0  0  0  0  0  0  0
  191.6090  177.5530  142.9210 N   0  0  0  0  0  2  0  0  0  0  0  0
  192.0190  177.5120  140.4370 C   0  0  0  0  0  1  0  0  0  0  0  0
  187.6120  177.1220  142.8450 S   0  0  0  0  0  0  0  0  0  0  0  0
  187.3640  178.5740  141.9620 O   0  0  0  0  0  0  0  0  0  0  0  0
  188.0160  178.3860  140.7420 C   0  0  0  0  0  2  0  0  0  0  0  0
  187.3960  178.3080  138.1640 C   0  0  1  0  0  3  0  0  0  0  0  0
  187.1280  176.9640  138.8350 C   0  0  0  0  0  2  0  0  0  0  0  0
  186.9830  178.2400  139.6300 C   0  0  1  0  0  0  0  0  0  0  0  0
  185.5410  178.6230  139.9030 C   0  0  0  0  0  1  0  0  0  0  0  0
  188.8930  178.5040  137.9560 C   0  0  2  0  0  3  0  0  0  0  0  0
  189.1390  179.8390  137.6310 O   0  0  0  0  0  1  0  0  0  0  0  0
  190.6560  177.1240  137.1120 O   0  0  0  0  0  1  0  0  0  0  0  0
  189.3790  177.6070  136.8240 C   0  0  2  0  0  3  0  0  0  0  0  0
  189.4210  178.3140  135.6370 F   0  0  0  0  0  0  0  0  0  0  0  0
  1  6  2  0  0  0  0
  1  2  1  0  0  0  0
  2  5  2  0  0  0  0
  3  1  1  0  0  0  0
  4 14  1  0  0  0  0
  4  7  2  0  0  0  0
  5  7  1  0  0  0  0
  6  4  1  0  0  0  0
  8 10  1  0  0  0  0
  9  8  2  0  0  0  0
 11 14  1  0  0  0  0
 12 10  1  0  0  0  0
 13 11  2  0  0  0  0
 13  9  1  0  0  0  0
 14 12  2  0  0  0  0
 15 16  2  0  0  0  0
 16 17  1  0  0  0  0
 17 13  1  0  0  0  0
 18 16  1  0  0  0  0
 19  6  1  0  0  0  0
 20 19  1  0  0  0  0
 21 20  1  0  0  0  0
 22 26  1  1  0  0  0
 22 23  1  0  0  0  0
 22 24  1  0  0  0  0
 23 24  1  0  0  0  0
 24 25  1  1  0  0  0
 24 21  1  0  0  0  0
 26 27  1  6  0  0  0
 29 30  1  6  0  0  0
 29 28  1  0  0  0  0
 29 26  1  0  0  0  0
M  END
>  <MODEL>
4

>  <REMARK>
 VINA RESULT:      -7.3      2.777      4.758
  Name = 
  8 active torsions:
  status: ('A' for Active; 'I' for Inactive)
    1  A    between atoms: O_1  and  C_4
    2  A    between atoms: O_1  and  S_5
    3  A    between atoms: C_4  and  C_27
    4  A    between atoms: S_5  and  C_22
    5  A    between atoms: C_8  and  C_12
    6  A    between atoms: C_9  and  C_12
    7  A    between atoms: N_16  and  C_25
    8  A    between atoms: C_19  and  C_29
                            x       y       z     vdW  Elec       q    Type
                         _______ _______ _______ _____ _____    ______ ____

>  <TORSDO>
F 8

$$$$
=
 OpenBabel10262421493D

 30 32  0  0  1  0  0  0  0  0999 V2000
  187.6400  177.6720  146.4480 C   0  0  0  0  0  0  0  0  0  0  0  0
  187.1060  178.2450  147.6030 C   0  0  0  0  0  3  0  0  0  0  0  0
  189.1290  176.7510  146.6010 Cl  0  0  0  0  0  0  0  0  0  0  0  0
  185.7940  178.5980  145.1430 C   0  0  0  0  0  0  0  0  0  0  0  0
  185.9360  178.9970  147.5400 C   0  0  0  0  0  3  0  0  0  0  0  0
  187.0030  177.8580  145.2030 C   0  0  0  0  0  0  0  0  0  0  0  0
  185.2840  179.1680  146.3210 C   0  0  0  0  0  3  0  0  0  0  0  0
  183.8360  178.0410  141.2090 N   0  0  0  0  0  0  0  0  0  0  0  0
  182.7660  178.0900  141.9430 C   0  0  0  0  0  3  0  0  0  0  0  0
  184.9950  178.8960  141.4060 C   0  0  0  0  0  2  0  0  0  0  0  0
  183.6050  179.2090  143.9880 C   0  0  0  0  0  3  0  0  0  0  0  0
  185.6410  178.6150  142.7200 C   0  0  0  0  0  3  0  0  0  0  0  0
  182.6060  178.9640  143.1280 C   0  0  0  0  0  0  0  0  0  0  0  0
  185.0130  178.7540  143.8920 C   0  0  0  0  0  0  0  0  0  0  0  0
  180.2310  177.4210  143.9580 O   0  0  0  0  0  0  0  0  0  0  0  0
  180.1840  178.6790  143.9200 C   0  0  0  0  0  0  0  0  0  0  0  0
  181.3090  179.4560  143.4900 N   0  0  0  0  0  2  0  0  0  0  0  0
  178.9310  179.3730  144.3140 C   0  0  0  0  0  1  0  0  0  0  0  0
  187.7800  177.2150  143.7050 S   0  0  0  0  0  0  0  0  0  0  0  0
  189.2430  178.0630  144.0050 O   0  0  0  0  0  0  0  0  0  0  0  0
  189.7840  178.3320  142.7460 C   0  0  0  0  0  2  0  0  0  0  0  0
  190.5010  176.7080  140.7750 C   0  0  1  0  0  3  0  0  0  0  0  0
  191.7080  177.4450  141.3460 C   0  0  0  0  0  2  0  0  0  0  0  0
  190.5430  177.1070  142.2450 C   0  0  1  0  0  0  0  0  0  0  0  0
  190.8290  175.9690  143.2060 C   0  0  0  0  0  1  0  0  0  0  0  0
  189.6720  177.6480  139.9070 C   0  0  2  0  0  3  0  0  0  0  0  0
  188.3160  177.4320  140.1640 O   0  0  0  0  0  1  0  0  0  0  0  0
  188.8790  176.7090  137.8530 O   0  0  0  0  0  1  0  0  0  0  0  0
  189.9580  177.3780  138.4350 C   0  0  2  0  0  3  0  0  0  0  0  0
  191.0950  176.6030  138.3010 F   0  0  0  0  0  0  0  0  0  0  0  0
  1  3  1  0  0  0  0
  1  2  1  0  0  0  0
  4  6  1  0  0  0  0
  4  7  2  0  0  0  0
  5  2  2  0  0  0  0
  6  1  2  0  0  0  0
  7  5  1  0  0  0  0
  8 10  1  0  0  0  0
  8  9  2  0  0  0  0
  9 13  1  0  0  0  0
 10 12  1  0  0  0  0
 12 14  2  0  0  0  0
 13 17  1  0  0  0  0
 13 11  2  0  0  0  0
 14 11  1  0  0  0  0
 14  4  1  0  0  0  0
 16 15  2  0  0  0  0
 16 18  1  0  0  0  0
 17 16  1  0  0  0  0
 19 20  1  0  0  0  0
 19  6  1  0  0  0  0
 21 20  1  0  0  0  0
 22 26  1  6  0  0  0
 22 23  1  0  0  0  0
 22 24  1  0  0  0  0
 23 24  1  0  0  0  0
 24 21  1  0  0  0  0
 24 25  1  1  0  0  0
 26 27  1  6  0  0  0
 29 28  1  1  0  0  0
 29 26  1  0  0  0  0
 30 29  1  0  0  0  0
M  END
>  <MODEL>
5

>  <REMARK>
 VINA RESULT:      -7.3      2.688      4.068
  Name = 
  8 active torsions:
  status: ('A' for Active; 'I' for Inactive)
    1  A    between atoms: O_1  and  C_4
    2  A    between atoms: O_1  and  S_5
    3  A    between atoms: C_4  and  C_27
    4  A    between atoms: S_5  and  C_22
    5  A    between atoms: C_8  and  C_12
    6  A    between atoms: C_9  and  C_12
    7  A    between atoms: N_16  and  C_25
    8  A    between atoms: C_19  and  C_29
                            x       y       z     vdW  Elec       q    Type
                         _______ _______ _______ _____ _____    ______ ____

>  <TORSDO>
F 8

$$$$
=
 OpenBabel10262421493D

 30 32  0  0  1  0  0  0  0  0999 V2000
  190.9730  177.2340  144.4210 C   0  0  0  0  0  0  0  0  0  0  0  0
  191.4920  176.6900  145.5970 C   0  0  0  0  0  3  0  0  0  0  0  0
  192.0580  177.4090  143.0490 Cl  0  0  0  0  0  0  0  0  0  0  0  0
  188.7930  177.4660  145.4980 C   0  0  0  0  0  0  0  0  0  0  0  0
  190.6830  176.5400  146.7210 C   0  0  0  0  0  3  0  0  0  0  0  0
  189.6250  177.6470  144.3640 C   0  0  0  0  0  0  0  0  0  0  0  0
  189.3440  176.9210  146.6690 C   0  0  0  0  0  3  0  0  0  0  0  0
  184.8080  179.3510  145.9310 N   0  0  0  0  0  0  0  0  0  0  0  0
  184.8700  179.3440  144.6340 C   0  0  0  0  0  3  0  0  0  0  0  0
  185.2640  178.2550  146.7710 C   0  0  0  0  0  2  0  0  0  0  0  0
  186.5930  177.6140  144.2170 C   0  0  0  0  0  3  0  0  0  0  0  0
  186.7380  178.0700  146.6420 C   0  0  0  0  0  3  0  0  0  0  0  0
  185.4830  178.2590  143.8330 C   0  0  0  0  0  0  0  0  0  0  0  0
  187.3440  177.7810  145.4850 C   0  0  0  0  0  0  0  0  0  0  0  0
  185.9620  179.7500  141.3320 O   0  0  0  0  0  0  0  0  0  0  0  0
  185.2700  178.6980  141.3160 C   0  0  0  0  0  0  0  0  0  0  0  0
  184.9910  177.9690  142.5180 N   0  0  0  0  0  2  0  0  0  0  0  0
  184.7170  178.2110  140.0260 C   0  0  0  0  0  1  0  0  0  0  0  0
  189.0120  178.4650  142.8760 S   0  0  0  0  0  0  0  0  0  0  0  0
  188.9750  176.9960  141.9870 O   0  0  0  0  0  0  0  0  0  0  0  0
  190.0960  177.0330  141.1560 C   0  0  0  0  0  2  0  0  0  0  0  0
  190.5940  177.1200  138.5520 C   0  0  1  0  0  3  0  0  0  0  0  0
  189.4460  176.1640  138.8610 C   0  0  0  0  0  2  0  0  0  0  0  0
  189.6670  177.3760  139.7340 C   0  0  1  0  0  0  0  0  0  0  0  0
  188.6450  178.4750  139.5140 C   0  0  0  0  0  1  0  0  0  0  0  0
  191.9250  176.4880  138.9420 C   0  0  2  0  0  3  0  0  0  0  0  0
  192.7590  177.4710  139.4790 O   0  0  0  0  0  1  0  0  0  0  0  0
  193.9740  175.8700  137.8710 O   0  0  0  0  0  1  0  0  0  0  0  0
  192.5870  175.8770  137.7130 C   0  0  2  0  0  3  0  0  0  0  0  0
  192.2640  176.6050  136.5830 F   0  0  0  0  0  0  0  0  0  0  0  0
  1  2  1  0  0  0  0
  2  5  2  0  0  0  0
  3  1  1  0  0  0  0
  4  7  2  0  0  0  0
  6  1  2  0  0  0  0
  6  4  1  0  0  0  0
  7  5  1  0  0  0  0
  8 10  1  0  0  0  0
  9  8  2  0  0  0  0
 11 14  1  0  0  0  0
 12 10  1  0  0  0  0
 13 11  2  0  0  0  0
 13  9  1  0  0  0  0
 14  4  1  0  0  0  0
 14 12  2  0  0  0  0
 16 15  2  0  0  0  0
 16 17  1  0  0  0  0
 17 13  1  0  0  0  0
 18 16  1  0  0  0  0
 19  6  1  0  0  0  0
 20 19  1  0  0  0  0
 21 20  1  0  0  0  0
 22 23  1  0  0  0  0
 22 26  1  1  0  0  0
 22 24  1  0  0  0  0
 23 24  1  0  0  0  0
 24 25  1  6  0  0  0
 24 21  1  0  0  0  0
 26 27  1  6  0  0  0
 29 30  1  6  0  0  0
 29 28  1  0  0  0  0
 29 26  1  0  0  0  0
M  END
>  <MODEL>
6

>  <REMARK>
 VINA RESULT:      -7.2      2.056      2.593
  Name = 
  8 active torsions:
  status: ('A' for Active; 'I' for Inactive)
    1  A    between atoms: O_1  and  C_4
    2  A    between atoms: O_1  and  S_5
    3  A    between atoms: C_4  and  C_27
    4  A    between atoms: S_5  and  C_22
    5  A    between atoms: C_8  and  C_12
    6  A    between atoms: C_9  and  C_12
    7  A    between atoms: N_16  and  C_25
    8  A    between atoms: C_19  and  C_29
                            x       y       z     vdW  Elec       q    Type
                         _______ _______ _______ _____ _____    ______ ____

>  <TORSDO>
F 8

$$$$
=
 OpenBabel10262421493D

 30 32  0  0  1  0  0  0  0  0999 V2000
  190.7190  177.4060  142.8070 C   0  0  0  0  0  0  0  0  0  0  0  0
  191.4550  176.9020  143.8800 C   0  0  0  0  0  3  0  0  0  0  0  0
  191.5370  177.5840  141.2620 Cl  0  0  0  0  0  0  0  0  0  0  0  0
  188.7570  177.5960  144.2510 C   0  0  0  0  0  0  0  0  0  0  0  0
  190.8630  176.7510  145.1320 C   0  0  0  0  0  3  0  0  0  0  0  0
  189.3690  177.7770  142.9840 C   0  0  0  0  0  0  0  0  0  0  0  0
  189.5250  177.0920  145.3130 C   0  0  0  0  0  3  0  0  0  0  0  0
  184.8540  179.3610  145.3790 N   0  0  0  0  0  0  0  0  0  0  0  0
  184.6910  179.3580  144.0920 C   0  0  0  0  0  3  0  0  0  0  0  0
  185.4810  178.2780  146.1200 C   0  0  0  0  0  2  0  0  0  0  0  0
  186.3650  177.6810  143.3710 C   0  0  0  0  0  3  0  0  0  0  0  0
  186.9150  178.1370  145.7370 C   0  0  0  0  0  3  0  0  0  0  0  0
  185.1870  178.2940  143.1890 C   0  0  0  0  0  0  0  0  0  0  0  0
  187.3200  177.8680  144.4910 C   0  0  0  0  0  0  0  0  0  0  0  0
  185.2680  179.7430  140.6190 O   0  0  0  0  0  0  0  0  0  0  0  0
  184.5710  178.7000  140.7340 C   0  0  0  0  0  0  0  0  0  0  0  0
  184.4840  177.9920  141.9760 N   0  0  0  0  0  2  0  0  0  0  0  0
  183.8090  178.2020  139.5600 C   0  0  0  0  0  1  0  0  0  0  0  0
  188.4750  178.5460  141.6160 S   0  0  0  0  0  0  0  0  0  0  0  0
  189.2670  177.5700  140.4450 O   0  0  0  0  0  0  0  0  0  0  0  0
  188.2940  177.2700  139.4900 C   0  0  0  0  0  2  0  0  0  0  0  0
  189.5960  176.6890  137.2520 C   0  0  1  0  0  3  0  0  0  0  0  0
  188.1150  176.9320  136.9790 C   0  0  0  0  0  2  0  0  0  0  0  0
  188.8000  177.6680  138.1060 C   0  0  1  0  0  0  0  0  0  0  0  0
  189.0580  179.1320  137.8050 C   0  0  0  0  0  1  0  0  0  0  0  0
  189.7950  175.3260  137.9050 C   0  0  2  0  0  3  0  0  0  0  0  0
  190.9320  175.3680  138.7150 O   0  0  0  0  0  1  0  0  0  0  0  0
  188.9560  173.3130  136.9210 O   0  0  0  0  0  1  0  0  0  0  0  0
  189.9760  174.2610  136.8310 C   0  0  2  0  0  3  0  0  0  0  0  0
  191.1960  173.6280  136.9840 F   0  0  0  0  0  0  0  0  0  0  0  0
  1  6  2  0  0  0  0
  1  2  1  0  0  0  0
  2  5  2  0  0  0  0
  3  1  1  0  0  0  0
  4 14  1  0  0  0  0
  4  7  2  0  0  0  0
  5  7  1  0  0  0  0
  6  4  1  0  0  0  0
  8 10  1  0  0  0  0
  9  8  2  0  0  0  0
 11 14  1  0  0  0  0
 12 10  1  0  0  0  0
 13 11  2  0  0  0  0
 13  9  1  0  0  0  0
 14 12  2  0  0  0  0
 15 16  2  0  0  0  0
 16 17  1  0  0  0  0
 17 13  1  0  0  0  0
 18 16  1  0  0  0  0
 19  6  1  0  0  0  0
 20 19  1  0  0  0  0
 21 20  1  0  0  0  0
 22 26  1  1  0  0  0
 22 24  1  0  0  0  0
 23 22  1  0  0  0  0
 23 24  1  0  0  0  0
 24 25  1  6  0  0  0
 24 21  1  0  0  0  0
 26 27  1  1  0  0  0
 29 28  1  1  0  0  0
 29 30  1  0  0  0  0
 29 26  1  0  0  0  0
M  END
>  <MODEL>
7

>  <REMARK>
 VINA RESULT:      -7.1      1.952      2.354
  Name = 
  8 active torsions:
  status: ('A' for Active; 'I' for Inactive)
    1  A    between atoms: O_1  and  C_4
    2  A    between atoms: O_1  and  S_5
    3  A    between atoms: C_4  and  C_27
    4  A    between atoms: S_5  and  C_22
    5  A    between atoms: C_8  and  C_12
    6  A    between atoms: C_9  and  C_12
    7  A    between atoms: N_16  and  C_25
    8  A    between atoms: C_19  and  C_29
                            x       y       z     vdW  Elec       q    Type
                         _______ _______ _______ _____ _____    ______ ____

>  <TORSDO>
F 8

$$$$
=
 OpenBabel10262421493D

 30 32  0  0  1  0  0  0  0  0999 V2000
  182.9080  177.2610  138.8560 C   0  0  0  0  0  0  0  0  0  0  0  0
  182.4720  176.2080  138.0500 C   0  0  0  0  0  3  0  0  0  0  0  0
  181.7680  177.9370  140.0100 Cl  0  0  0  0  0  0  0  0  0  0  0  0
  185.0990  177.1710  137.7790 C   0  0  0  0  0  0  0  0  0  0  0  0
  183.3280  175.6410  137.1080 C   0  0  0  0  0  3  0  0  0  0  0  0
  184.2180  177.7670  138.7160 C   0  0  0  0  0  0  0  0  0  0  0  0
  184.6300  176.1170  136.9770 C   0  0  0  0  0  3  0  0  0  0  0  0
  188.8970  179.4080  137.3480 N   0  0  0  0  0  0  0  0  0  0  0  0
  189.0950  178.9350  138.5400 C   0  0  0  0  0  3  0  0  0  0  0  0
  188.2940  178.6490  136.2640 C   0  0  0  0  0  2  0  0  0  0  0  0
  187.5080  177.0340  138.6020 C   0  0  0  0  0  3  0  0  0  0  0  0
  186.8780  178.3100  136.5820 C   0  0  0  0  0  3  0  0  0  0  0  0
  188.6660  177.5890  138.9870 C   0  0  0  0  0  0  0  0  0  0  0  0
  186.5170  177.5790  137.6420 C   0  0  0  0  0  0  0  0  0  0  0  0
  188.9740  178.2750  141.8410 O   0  0  0  0  0  0  0  0  0  0  0  0
  189.5150  177.2350  141.3800 C   0  0  0  0  0  0  0  0  0  0  0  0
  189.4120  176.8920  139.9920 N   0  0  0  0  0  2  0  0  0  0  0  0
  190.2910  176.3540  142.2900 C   0  0  0  0  0  1  0  0  0  0  0  0
  184.7150  179.2120  139.6790 S   0  0  0  0  0  0  0  0  0  0  0  0
  185.0210  178.2700  141.0830 O   0  0  0  0  0  0  0  0  0  0  0  0
  185.3930  179.1830  142.0710 C   0  0  0  0  0  2  0  0  0  0  0  0
  185.2570  178.2300  144.5430 C   0  0  1  0  0  3  0  0  0  0  0  0
  185.0430  179.7400  144.5240 C   0  0  0  0  0  2  0  0  0  0  0  0
  184.6010  178.9060  143.3450 C   0  0  1  0  0  0  0  0  0  0  0  0
  183.0980  178.7280  143.2580 C   0  0  0  0  0  1  0  0  0  0  0  0
  186.7310  177.9040  144.3330 C   0  0  2  0  0  3  0  0  0  0  0  0
  186.8400  176.6670  143.6960 O   0  0  0  0  0  1  0  0  0  0  0  0
  188.6080  177.0830  145.5710 O   0  0  0  0  0  1  0  0  0  0  0  0
  187.4440  177.8460  145.6790 C   0  0  2  0  0  3  0  0  0  0  0  0
  186.6200  177.2810  146.6340 F   0  0  0  0  0  0  0  0  0  0  0  0
  1  3  1  0  0  0  0
  2  1  2  0  0  0  0
  4  6  2  0  0  0  0
  5  2  1  0  0  0  0
  6  1  1  0  0  0  0
  6 19  1  0  0  0  0
  7  5  2  0  0  0  0
  7  4  1  0  0  0  0
  8  9  2  0  0  0  0
  9 13  1  0  0  0  0
 10 12  1  0  0  0  0
 10  8  1  0  0  0  0
 11 13  2  0  0  0  0
 12 14  2  0  0  0  0
 13 17  1  0  0  0  0
 14  4  1  0  0  0  0
 14 11  1  0  0  0  0
 16 15  2  0  0  0  0
 16 18  1  0  0  0  0
 17 16  1  0  0  0  0
 19 20  1  0  0  0  0
 20 21  1  0  0  0  0
 21 24  1  0  0  0  0
 22 26  1  6  0  0  0
 23 22  1  0  0  0  0
 24 25  1  6  0  0  0
 24 23  1  0  0  0  0
 24 22  1  0  0  0  0
 26 27  1  1  0  0  0
 26 29  1  0  0  0  0
 29 28  1  6  0  0  0
 29 30  1  0  0  0  0
M  END
>  <MODEL>
8

>  <REMARK>
 VINA RESULT:      -7.0      3.903      8.083
  Name = 
  8 active torsions:
  status: ('A' for Active; 'I' for Inactive)
    1  A    between atoms: O_1  and  C_4
    2  A    between atoms: O_1  and  S_5
    3  A    between atoms: C_4  and  C_27
    4  A    between atoms: S_5  and  C_22
    5  A    between atoms: C_8  and  C_12
    6  A    between atoms: C_9  and  C_12
    7  A    between atoms: N_16  and  C_25
    8  A    between atoms: C_19  and  C_29
                            x       y       z     vdW  Elec       q    Type
                         _______ _______ _______ _____ _____    ______ ____

>  <TORSDO>
F 8

$$$$
=
 OpenBabel10262421493D

 30 32  0  0  1  0  0  0  0  0999 V2000
  184.6090  178.9120  144.9300 C   0  0  0  0  0  0  0  0  0  0  0  0
  184.5890  178.5890  146.2870 C   0  0  0  0  0  3  0  0  0  0  0  0
  183.2400  179.8000  144.2770 Cl  0  0  0  0  0  0  0  0  0  0  0  0
  186.7770  177.8080  144.7050 C   0  0  0  0  0  0  0  0  0  0  0  0
  185.6400  177.8740  146.8570 C   0  0  0  0  0  3  0  0  0  0  0  0
  185.6920  178.5090  144.1190 C   0  0  0  0  0  0  0  0  0  0  0  0
  186.7260  177.4910  146.0720 C   0  0  0  0  0  3  0  0  0  0  0  0
  190.2900  177.7170  142.0090 N   0  0  0  0  0  0  0  0  0  0  0  0
  190.9240  177.6770  143.1410 C   0  0  0  0  0  3  0  0  0  0  0  0
  189.0630  176.9850  141.7400 C   0  0  0  0  0  2  0  0  0  0  0  0
  189.1550  176.8890  144.6860 C   0  0  0  0  0  3  0  0  0  0  0  0
  187.9540  177.4770  142.6080 C   0  0  0  0  0  3  0  0  0  0  0  0
  190.4490  176.9470  144.3390 C   0  0  0  0  0  0  0  0  0  0  0  0
  187.9940  177.4370  143.9440 C   0  0  0  0  0  0  0  0  0  0  0  0
  190.4360  177.1600  147.2820 O   0  0  0  0  0  0  0  0  0  0  0  0
  191.3380  176.5000  146.7020 C   0  0  0  0  0  0  0  0  0  0  0  0
  191.3910  176.4050  145.2730 N   0  0  0  0  0  2  0  0  0  0  0  0
  192.3790  175.8190  147.5140 C   0  0  0  0  0  1  0  0  0  0  0  0
  185.6340  178.8260  142.3430 S   0  0  0  0  0  0  0  0  0  0  0  0
  184.2000  177.9030  142.1430 O   0  0  0  0  0  0  0  0  0  0  0  0
  183.2810  178.7650  141.5430 C   0  0  0  0  0  2  0  0  0  0  0  0
  183.3040  178.0080  139.0010 C   0  0  1  0  0  3  0  0  0  0  0  0
  183.3310  176.8010  139.9340 C   0  0  0  0  0  2  0  0  0  0  0  0
  182.6190  178.0630  140.3610 C   0  0  1  0  0  0  0  0  0  0  0  0
  181.1080  177.9500  140.3180 C   0  0  0  0  0  1  0  0  0  0  0  0
  184.6710  178.6830  138.9730 C   0  0  2  0  0  3  0  0  0  0  0  0
  184.4960  180.0680  138.9240 O   0  0  0  0  0  1  0  0  0  0  0  0
  184.6200  177.4790  136.9060 O   0  0  0  0  0  1  0  0  0  0  0  0
  185.4480  178.2260  137.7450 C   0  0  2  0  0  3  0  0  0  0  0  0
  186.5280  177.4490  138.1230 F   0  0  0  0  0  0  0  0  0  0  0  0
  1  2  1  0  0  0  0
  2  5  2  0  0  0  0
  3  1  1  0  0  0  0
  4  7  2  0  0  0  0
  6  4  1  0  0  0  0
  6  1  2  0  0  0  0
  7  5  1  0  0  0  0
  8  9  2  0  0  0  0
  9 13  1  0  0  0  0
 10  8  1  0  0  0  0
 10 12  1  0  0  0  0
 12 14  2  0  0  0  0
 13 11  2  0  0  0  0
 13 17  1  0  0  0  0
 14 11  1  0  0  0  0
 14  4  1  0  0  0  0
 16 15  2  0  0  0  0
 16 18  1  0  0  0  0
 17 16  1  0  0  0  0
 19  6  1  0  0  0  0
 20 19  1  0  0  0  0
 21 20  1  0  0  0  0
 22 26  1  1  0  0  0
 22 23  1  0  0  0  0
 22 24  1  0  0  0  0
 23 24  1  0  0  0  0
 24 25  1  6  0  0  0
 24 21  1  0  0  0  0
 26 27  1  6  0  0  0
 29 28  1  6  0  0  0
 29 30  1  0  0  0  0
 29 26  1  0  0  0  0
M  END
>  <MODEL>
9

>  <REMARK>
 VINA RESULT:      -7.0      3.134      5.998
  Name = 
  8 active torsions:
  status: ('A' for Active; 'I' for Inactive)
    1  A    between atoms: O_1  and  C_4
    2  A    between atoms: O_1  and  S_5
    3  A    between atoms: C_4  and  C_27
    4  A    between atoms: S_5  and  C_22
    5  A    between atoms: C_8  and  C_12
    6  A    between atoms: C_9  and  C_12
    7  A    between atoms: N_16  and  C_25
    8  A    between atoms: C_19  and  C_29
                            x       y       z     vdW  Elec       q    Type
                         _______ _______ _______ _____ _____    ______ ____

>  <TORSDO>
F 8

$$$$
