=
 OpenBabel10262420473D

 28 31  0  0  1  0  0  0  0  0999 V2000
  189.2140  178.0660  145.3720 C   0  0  2  0  0  3  0  0  0  0  0  0
  187.7240  177.8380  149.4100 C   0  0  0  0  0  1  0  0  0  0  0  0
  185.4580  178.5890  144.8940 C   0  0  0  0  0  0  0  0  0  0  0  0
  187.2230  177.7780  146.9470 C   0  0  0  0  0  0  0  0  0  0  0  0
  186.8370  178.5170  144.6650 C   0  0  0  0  0  3  0  0  0  0  0  0
  189.5960  177.6830  147.8080 C   0  0  0  0  0  2  0  0  0  0  0  0
  185.8380  177.8080  147.1640 C   0  0  0  0  0  3  0  0  0  0  0  0
  188.1410  177.2960  148.0520 C   0  0  1  0  0  3  0  0  0  0  0  0
  184.9660  178.2110  146.1520 C   0  0  0  0  0  3  0  0  0  0  0  0
  190.0120  177.2710  146.4060 C   0  0  0  0  0  2  0  0  0  0  0  0
  187.7250  178.0870  145.6610 C   0  0  0  0  0  0  0  0  0  0  0  0
  183.2380  179.2110  144.1160 C   0  0  0  0  0  3  0  0  0  0  0  0
  184.4090  177.9610  141.5370 C   0  0  0  0  0  2  0  0  0  0  0  0
  181.9740  178.3160  142.1720 C   0  0  2  0  0  3  0  0  0  0  0  0
  184.5270  179.0060  143.8100 C   0  0  0  0  0  0  0  0  0  0  0  0
  186.3450  179.2070  142.2160 O   0  0  0  0  0  1  0  0  0  0  0  0
  183.0040  178.2930  141.0440 C   0  0  0  0  0  2  0  0  0  0  0  0
  184.9600  179.1140  142.3620 C   0  0  1  0  0  3  0  0  0  0  0  0
  180.5890  178.3980  141.5690 C   0  0  0  0  0  1  0  0  0  0  0  0
  182.1850  179.5150  143.0930 C   0  0  0  0  0  2  0  0  0  0  0  0
  189.5360  177.5920  143.9790 C   0  0  0  0  0  0  0  0  0  0  0  0
  188.7920  176.6440  143.3960 C   0  0  0  0  0  3  0  0  0  0  0  0
  191.0520  177.6920  141.8760 C   0  0  1  0  0  3  0  0  0  0  0  0
  189.0590  176.1960  142.0200 C   0  0  0  0  0  3  0  0  0  0  0  0
  191.2800  179.1830  143.7270 O   0  0  0  0  0  0  0  0  0  0  0  0
  190.6460  178.2140  143.2290 C   0  0  0  0  0  0  0  0  0  0  0  0
  192.3080  177.1220  141.9570 F   0  0  0  0  0  0  0  0  0  0  0  0
  190.0840  176.6840  141.3160 C   0  0  0  0  0  3  0  0  0  0  0  0
  1 21  1  6  0  0  0
  1 11  1  0  0  0  0
  1 10  1  0  0  0  0
  3  9  1  0  0  0  0
  4  7  1  0  0  0  0
  4  8  1  0  0  0  0
  5  3  2  0  0  0  0
  5 11  1  0  0  0  0
  6  8  1  0  0  0  0
  8  2  1  1  0  0  0
  9  7  2  0  0  0  0
 10  6  1  0  0  0  0
 11  4  2  0  0  0  0
 13 18  1  0  0  0  0
 14 19  1  6  0  0  0
 14 20  1  0  0  0  0
 15 12  2  0  0  0  0
 15  3  1  0  0  0  0
 17 13  1  0  0  0  0
 17 14  1  0  0  0  0
 18 16  1  1  0  0  0
 18 15  1  0  0  0  0
 20 12  1  0  0  0  0
 22 21  2  0  0  0  0
 23 27  1  1  0  0  0
 23 26  1  0  0  0  0
 24 22  1  0  0  0  0
 26 25  2  0  0  0  0
 26 21  1  0  0  0  0
 28 23  1  0  0  0  0
 28 24  2  0  0  0  0
M  END
>  <MODEL>
1

>  <REMARK>
 VINA RESULT:     -10.0      0.000      0.000
  Name = 
  2 active torsions:
  status: ('A' for Active; 'I' for Inactive)
    1  A    between atoms: C_1  and  C_2
    2  A    between atoms: C_10  and  C_13
                            x       y       z     vdW  Elec       q    Type
                         _______ _______ _______ _____ _____    ______ ____

>  <TORSDO>
F 2

$$$$
=
 OpenBabel10262420473D

 28 31  0  0  1  0  0  0  0  0999 V2000
  188.6320  176.7870  144.4600 C   0  0  2  0  0  3  0  0  0  0  0  0
  190.5420  176.6990  140.5970 C   0  0  0  0  0  1  0  0  0  0  0  0
  186.0650  178.5370  142.2330 C   0  0  0  0  0  0  0  0  0  0  0  0
  188.7530  177.6760  142.0680 C   0  0  0  0  0  0  0  0  0  0  0  0
  186.6830  177.9070  143.3210 C   0  0  0  0  0  3  0  0  0  0  0  0
  190.5940  176.2340  143.0210 C   0  0  0  0  0  2  0  0  0  0  0  0
  188.1480  178.3470  140.9940 C   0  0  0  0  0  3  0  0  0  0  0  0
  190.2080  177.2660  141.9670 C   0  0  1  0  0  3  0  0  0  0  0  0
  186.8210  178.7700  141.0750 C   0  0  0  0  0  3  0  0  0  0  0  0
  190.1580  176.7100  144.3960 C   0  0  0  0  0  2  0  0  0  0  0  0
  188.0240  177.5010  143.2690 C   0  0  0  0  0  0  0  0  0  0  0  0
  184.0730  179.0540  143.5310 C   0  0  0  0  0  3  0  0  0  0  0  0
  182.7920  178.2290  140.8360 C   0  0  0  0  0  2  0  0  0  0  0  0
  181.7380  178.2940  143.1480 C   0  0  2  0  0  3  0  0  0  0  0  0
  184.6540  179.0000  142.3230 C   0  0  0  0  0  0  0  0  0  0  0  0
  184.5960  179.5470  139.9600 O   0  0  0  0  0  1  0  0  0  0  0  0
  181.5280  178.4950  141.6480 C   0  0  0  0  0  2  0  0  0  0  0  0
  183.8210  179.3180  141.0970 C   0  0  1  0  0  3  0  0  0  0  0  0
  180.3930  178.3280  143.8400 C   0  0  0  0  0  1  0  0  0  0  0  0
  182.6260  179.3870  143.7370 C   0  0  0  0  0  2  0  0  0  0  0  0
  188.1870  177.3610  145.7790 C   0  0  0  0  0  0  0  0  0  0  0  0
  187.0500  178.0630  145.8650 C   0  0  0  0  0  3  0  0  0  0  0  0
  188.6140  177.7490  148.3090 C   0  0  1  0  0  3  0  0  0  0  0  0
  186.5720  178.5970  147.1510 C   0  0  0  0  0  3  0  0  0  0  0  0
  189.9910  176.3530  146.9470 O   0  0  0  0  0  0  0  0  0  0  0  0
  188.9810  177.1050  146.9990 C   0  0  0  0  0  0  0  0  0  0  0  0
  189.5900  178.6590  148.6680 F   0  0  0  0  0  0  0  0  0  0  0  0
  187.2780  178.4430  148.2740 C   0  0  0  0  0  3  0  0  0  0  0  0
  1 21  1  1  0  0  0
  3 15  1  0  0  0  0
  3  5  1  0  0  0  0
  4 11  1  0  0  0  0
  6 10  1  0  0  0  0
  7  9  1  0  0  0  0
  7  4  2  0  0  0  0
  8  2  1  6  0  0  0
  8  4  1  0  0  0  0
  8  6  1  0  0  0  0
  9  3  2  0  0  0  0
 10  1  1  0  0  0  0
 11  5  2  0  0  0  0
 11  1  1  0  0  0  0
 12 20  1  0  0  0  0
 13 18  1  0  0  0  0
 13 17  1  0  0  0  0
 14 20  1  0  0  0  0
 14 19  1  1  0  0  0
 15 12  2  0  0  0  0
 17 14  1  0  0  0  0
 18 16  1  6  0  0  0
 18 15  1  0  0  0  0
 21 22  2  0  0  0  0
 21 26  1  0  0  0  0
 22 24  1  0  0  0  0
 23 27  1  6  0  0  0
 24 28  2  0  0  0  0
 25 26  2  0  0  0  0
 26 23  1  0  0  0  0
 28 23  1  0  0  0  0
M  END
>  <MODEL>
2

>  <REMARK>
 VINA RESULT:      -9.8      2.114      4.464
  Name = 
  2 active torsions:
  status: ('A' for Active; 'I' for Inactive)
    1  A    between atoms: C_1  and  C_2
    2  A    between atoms: C_10  and  C_13
                            x       y       z     vdW  Elec       q    Type
                         _______ _______ _______ _____ _____    ______ ____

>  <TORSDO>
F 2

$$$$
=
 OpenBabel10262420473D

 28 31  0  0  1  0  0  0  0  0999 V2000
  186.8920  177.2830  144.9930 C   0  0  2  0  0  3  0  0  0  0  0  0
  190.5390  177.1390  147.2870 C   0  0  0  0  0  1  0  0  0  0  0  0
  189.5650  177.8740  142.3260 C   0  0  0  0  0  0  0  0  0  0  0  0
  189.3910  177.7890  145.1460 C   0  0  0  0  0  0  0  0  0  0  0  0
  188.3430  177.6190  142.9600 C   0  0  0  0  0  3  0  0  0  0  0  0
  188.0720  177.0880  147.1820 C   0  0  0  0  0  2  0  0  0  0  0  0
  190.6060  178.0880  144.5110 C   0  0  0  0  0  3  0  0  0  0  0  0
  189.3180  177.7950  146.6590 C   0  0  1  0  0  3  0  0  0  0  0  0
  190.6930  178.1270  143.1190 C   0  0  0  0  0  3  0  0  0  0  0  0
  186.8380  177.6300  146.4810 C   0  0  0  0  0  2  0  0  0  0  0  0
  188.2300  177.6040  144.3580 C   0  0  0  0  0  0  0  0  0  0  0  0
  188.5630  178.2800  140.1460 C   0  0  0  0  0  3  0  0  0  0  0  0
  190.6980  176.1670  139.3990 C   0  0  0  0  0  2  0  0  0  0  0  0
  188.5940  176.8210  138.1340 C   0  0  2  0  0  3  0  0  0  0  0  0
  189.6540  177.9280  140.8410 C   0  0  0  0  0  0  0  0  0  0  0  0
  192.0400  177.4870  140.8880 O   0  0  0  0  0  1  0  0  0  0  0  0
  190.0490  176.3660  138.0330 C   0  0  0  0  0  2  0  0  0  0  0  0
  190.8990  177.5100  140.0850 C   0  0  1  0  0  3  0  0  0  0  0  0
  187.9620  176.7480  136.7610 C   0  0  0  0  0  1  0  0  0  0  0  0
  188.4950  178.2550  138.6490 C   0  0  0  0  0  2  0  0  0  0  0  0
  185.7300  177.9050  144.2640 C   0  0  0  0  0  0  0  0  0  0  0  0
  185.5610  177.6960  142.9530 C   0  0  0  0  0  3  0  0  0  0  0  0
  183.6270  179.4240  144.2890 C   0  0  1  0  0  3  0  0  0  0  0  0
  184.4100  178.2570  142.2270 C   0  0  0  0  0  3  0  0  0  0  0  0
  184.8290  178.8190  146.2610 O   0  0  0  0  0  0  0  0  0  0  0  0
  184.7390  178.7090  145.0090 C   0  0  0  0  0  0  0  0  0  0  0  0
  183.8170  180.7890  144.3830 F   0  0  0  0  0  0  0  0  0  0  0  0
  183.5150  179.0360  142.8380 C   0  0  0  0  0  3  0  0  0  0  0  0
  1 21  1  6  0  0  0
  1 10  1  0  0  0  0
  3  5  2  0  0  0  0
  3  9  1  0  0  0  0
  4  8  1  0  0  0  0
  5 11  1  0  0  0  0
  7  4  1  0  0  0  0
  8  6  1  0  0  0  0
  8  2  1  1  0  0  0
  9  7  2  0  0  0  0
 10  6  1  0  0  0  0
 11  1  1  0  0  0  0
 11  4  2  0  0  0  0
 12 15  2  0  0  0  0
 13 18  1  0  0  0  0
 14 19  1  6  0  0  0
 14 20  1  0  0  0  0
 15  3  1  0  0  0  0
 17 14  1  0  0  0  0
 17 13  1  0  0  0  0
 18 15  1  0  0  0  0
 18 16  1  1  0  0  0
 20 12  1  0  0  0  0
 21 26  1  0  0  0  0
 22 21  2  0  0  0  0
 23 27  1  6  0  0  0
 23 26  1  0  0  0  0
 24 28  2  0  0  0  0
 24 22  1  0  0  0  0
 26 25  2  0  0  0  0
 28 23  1  0  0  0  0
M  END
>  <MODEL>
3

>  <REMARK>
 VINA RESULT:      -9.5      2.779      5.879
  Name = 
  2 active torsions:
  status: ('A' for Active; 'I' for Inactive)
    1  A    between atoms: C_1  and  C_2
    2  A    between atoms: C_10  and  C_13
                            x       y       z     vdW  Elec       q    Type
                         _______ _______ _______ _____ _____    ______ ____

>  <TORSDO>
F 2

$$$$
=
 OpenBabel10262420473D

 28 31  0  0  1  0  0  0  0  0999 V2000
  189.6230  177.8760  139.6300 C   0  0  2  0  0  3  0  0  0  0  0  0
  191.6560  177.1800  143.3670 C   0  0  0  0  0  1  0  0  0  0  0  0
  186.8400  178.4190  142.1940 C   0  0  0  0  0  0  0  0  0  0  0  0
  189.4740  177.3950  142.1350 C   0  0  0  0  0  0  0  0  0  0  0  0
  187.5680  178.3850  140.9980 C   0  0  0  0  0  3  0  0  0  0  0  0
  191.6700  177.2230  140.8980 C   0  0  0  0  0  2  0  0  0  0  0  0
  188.7300  177.3890  143.3240 C   0  0  0  0  0  3  0  0  0  0  0  0
  190.8680  176.7990  142.1230 C   0  0  1  0  0  3  0  0  0  0  0  0
  187.4300  177.8960  143.3540 C   0  0  0  0  0  3  0  0  0  0  0  0
  190.8590  176.9760  139.6380 C   0  0  0  0  0  2  0  0  0  0  0  0
  188.8640  177.8520  140.9430 C   0  0  0  0  0  0  0  0  0  0  0  0
  184.8890  179.2130  143.4130 C   0  0  0  0  0  3  0  0  0  0  0  0
  183.5370  178.0370  140.8890 C   0  0  0  0  0  2  0  0  0  0  0  0
  182.5210  178.5010  143.1720 C   0  0  2  0  0  3  0  0  0  0  0  0
  185.4500  178.9490  142.2240 C   0  0  0  0  0  0  0  0  0  0  0  0
  185.3800  179.1260  139.8050 O   0  0  0  0  0  1  0  0  0  0  0  0
  182.2970  178.4770  141.6610 C   0  0  0  0  0  2  0  0  0  0  0  0
  184.6130  179.1090  140.9700 C   0  0  1  0  0  3  0  0  0  0  0  0
  181.1890  178.6980  143.8610 C   0  0  0  0  0  1  0  0  0  0  0  0
  183.4610  179.6340  143.5770 C   0  0  0  0  0  2  0  0  0  0  0  0
  188.7510  177.5660  138.4410 C   0  0  0  0  0  0  0  0  0  0  0  0
  188.1690  176.3670  138.3210 C   0  0  0  0  0  3  0  0  0  0  0  0
  187.7080  178.2960  136.1810 C   0  0  1  0  0  3  0  0  0  0  0  0
  187.2780  176.0550  137.1920 C   0  0  0  0  0  3  0  0  0  0  0  0
  188.9450  179.7740  137.5900 O   0  0  0  0  0  0  0  0  0  0  0  0
  188.4920  178.6090  137.4270 C   0  0  0  0  0  0  0  0  0  0  0  0
  188.5390  178.3710  135.0800 F   0  0  0  0  0  0  0  0  0  0  0  0
  187.0530  176.9400  136.2180 C   0  0  0  0  0  3  0  0  0  0  0  0
  1 21  1  6  0  0  0
  1 10  1  0  0  0  0
  1 11  1  0  0  0  0
  3 15  1  0  0  0  0
  3  9  1  0  0  0  0
  4  7  1  0  0  0  0
  5  3  2  0  0  0  0
  6  8  1  0  0  0  0
  7  9  2  0  0  0  0
  8  4  1  0  0  0  0
  8  2  1  1  0  0  0
 10  6  1  0  0  0  0
 11  5  1  0  0  0  0
 11  4  2  0  0  0  0
 12 20  1  0  0  0  0
 13 18  1  0  0  0  0
 13 17  1  0  0  0  0
 14 20  1  0  0  0  0
 14 19  1  1  0  0  0
 15 12  2  0  0  0  0
 17 14  1  0  0  0  0
 18 16  1  6  0  0  0
 18 15  1  0  0  0  0
 22 21  2  0  0  0  0
 23 27  1  6  0  0  0
 23 28  1  0  0  0  0
 23 26  1  0  0  0  0
 24 22  1  0  0  0  0
 26 25  2  0  0  0  0
 26 21  1  0  0  0  0
 28 24  2  0  0  0  0
M  END
>  <MODEL>
4

>  <REMARK>
 VINA RESULT:      -9.3      3.148      4.908
  Name = 
  2 active torsions:
  status: ('A' for Active; 'I' for Inactive)
    1  A    between atoms: C_1  and  C_2
    2  A    between atoms: C_10  and  C_13
                            x       y       z     vdW  Elec       q    Type
                         _______ _______ _______ _____ _____    ______ ____

>  <TORSDO>
F 2

$$$$
=
 OpenBabel10262420473D

 28 31  0  0  1  0  0  0  0  0999 V2000
  188.7000  177.8680  145.8300 C   0  0  2  0  0  3  0  0  0  0  0  0
  184.5000  178.7910  145.5350 C   0  0  0  0  0  1  0  0  0  0  0  0
  188.1710  178.0970  142.0510 C   0  0  0  0  0  0  0  0  0  0  0  0
  186.5910  177.9900  144.3920 C   0  0  0  0  0  0  0  0  0  0  0  0
  188.7690  178.0080  143.3140 C   0  0  0  0  0  3  0  0  0  0  0  0
  186.4780  178.2350  146.9040 C   0  0  0  0  0  2  0  0  0  0  0  0
  185.9920  178.0350  143.1250 C   0  0  0  0  0  3  0  0  0  0  0  0
  185.7190  177.8870  145.6280 C   0  0  1  0  0  3  0  0  0  0  0  0
  186.7710  178.0900  141.9690 C   0  0  0  0  0  3  0  0  0  0  0  0
  187.7720  177.4420  146.9680 C   0  0  0  0  0  2  0  0  0  0  0  0
  188.0020  177.9220  144.4850 C   0  0  0  0  0  0  0  0  0  0  0  0
  188.4020  178.4090  139.6490 C   0  0  0  0  0  3  0  0  0  0  0  0
  190.7340  176.4460  140.1880 C   0  0  0  0  0  2  0  0  0  0  0  0
  189.5370  176.9360  138.0010 C   0  0  2  0  0  3  0  0  0  0  0  0
  189.0030  178.1430  140.8180 C   0  0  0  0  0  0  0  0  0  0  0  0
  191.0510  177.8740  142.0910 O   0  0  0  0  0  1  0  0  0  0  0  0
  190.8630  176.5850  138.6740 C   0  0  0  0  0  2  0  0  0  0  0  0
  190.4810  177.8070  140.8190 C   0  0  1  0  0  3  0  0  0  0  0  0
  189.7000  176.8040  136.5020 C   0  0  0  0  0  1  0  0  0  0  0  0
  189.1090  178.3640  138.3280 C   0  0  0  0  0  2  0  0  0  0  0  0
  189.9410  177.0160  145.8140 C   0  0  0  0  0  0  0  0  0  0  0  0
  190.3280  176.4020  144.6890 C   0  0  0  0  0  3  0  0  0  0  0  0
  191.9570  175.9740  147.0720 C   0  0  1  0  0  3  0  0  0  0  0  0
  191.5620  175.6000  144.6370 C   0  0  0  0  0  3  0  0  0  0  0  0
  190.4730  177.5610  148.0630 O   0  0  0  0  0  0  0  0  0  0  0  0
  190.7690  176.8980  147.0320 C   0  0  0  0  0  0  0  0  0  0  0  0
  191.7060  174.9340  147.9460 F   0  0  0  0  0  0  0  0  0  0  0  0
  192.3170  175.4130  145.7220 C   0  0  0  0  0  3  0  0  0  0  0  0
  1 21  1  6  0  0  0
  1 10  1  0  0  0  0
  3  5  1  0  0  0  0
  4 11  1  0  0  0  0
  4  8  1  0  0  0  0
  5 11  2  0  0  0  0
  6 10  1  0  0  0  0
  7  4  2  0  0  0  0
  8  2  1  6  0  0  0
  8  6  1  0  0  0  0
  9  3  2  0  0  0  0
  9  7  1  0  0  0  0
 11  1  1  0  0  0  0
 12 15  2  0  0  0  0
 13 18  1  0  0  0  0
 14 19  1  6  0  0  0
 14 20  1  0  0  0  0
 14 17  1  0  0  0  0
 15 18  1  0  0  0  0
 15  3  1  0  0  0  0
 17 13  1  0  0  0  0
 18 16  1  1  0  0  0
 20 12  1  0  0  0  0
 21 26  1  0  0  0  0
 22 21  2  0  0  0  0
 23 27  1  1  0  0  0
 24 22  1  0  0  0  0
 24 28  2  0  0  0  0
 26 23  1  0  0  0  0
 26 25  2  0  0  0  0
 28 23  1  0  0  0  0
M  END
>  <MODEL>
5

>  <REMARK>
 VINA RESULT:      -9.2      2.586      5.310
  Name = 
  2 active torsions:
  status: ('A' for Active; 'I' for Inactive)
    1  A    between atoms: C_1  and  C_2
    2  A    between atoms: C_10  and  C_13
                            x       y       z     vdW  Elec       q    Type
                         _______ _______ _______ _____ _____    ______ ____

>  <TORSDO>
F 2

$$$$
=
 OpenBabel10262420473D

 28 31  0  0  1  0  0  0  0  0999 V2000
  185.3150  178.9940  145.0280 C   0  0  2  0  0  3  0  0  0  0  0  0
  181.7210  179.1150  142.6510 C   0  0  0  0  0  1  0  0  0  0  0  0
  186.6510  178.4480  141.4880 C   0  0  0  0  0  0  0  0  0  0  0  0
  184.1520  178.4920  142.8090 C   0  0  0  0  0  0  0  0  0  0  0  0
  186.5730  178.6910  142.8650 C   0  0  0  0  0  3  0  0  0  0  0  0
  182.8320  179.1610  144.8560 C   0  0  0  0  0  2  0  0  0  0  0  0
  184.2330  178.2060  141.4390 C   0  0  0  0  0  3  0  0  0  0  0  0
  182.8030  178.4650  143.5000 C   0  0  1  0  0  3  0  0  0  0  0  0
  185.4660  178.1860  140.7860 C   0  0  0  0  0  3  0  0  0  0  0  0
  183.9850  178.6260  145.6870 C   0  0  0  0  0  2  0  0  0  0  0  0
  185.3460  178.6860  143.5440 C   0  0  0  0  0  0  0  0  0  0  0  0
  187.9870  178.4760  139.4560 C   0  0  0  0  0  3  0  0  0  0  0  0
  189.8240  176.8170  141.3140 C   0  0  0  0  0  2  0  0  0  0  0  0
  189.7990  176.9180  138.7750 C   0  0  2  0  0  3  0  0  0  0  0  0
  187.9660  178.4150  140.7950 C   0  0  0  0  0  0  0  0  0  0  0  0
  189.1700  178.4950  142.9000 O   0  0  0  0  0  1  0  0  0  0  0  0
  190.6530  176.7760  140.0340 C   0  0  0  0  0  2  0  0  0  0  0  0
  189.2730  178.2170  141.5370 C   0  0  1  0  0  3  0  0  0  0  0  0
  190.6560  176.6140  137.5660 C   0  0  0  0  0  1  0  0  0  0  0  0
  189.2370  178.3310  138.6420 C   0  0  0  0  0  2  0  0  0  0  0  0
  186.4650  178.3790  145.7810 C   0  0  0  0  0  0  0  0  0  0  0  0
  187.2440  177.4600  145.1960 C   0  0  0  0  0  3  0  0  0  0  0  0
  187.8500  178.1610  147.9630 C   0  0  1  0  0  3  0  0  0  0  0  0
  188.4010  176.8770  145.8950 C   0  0  0  0  0  3  0  0  0  0  0  0
  186.1130  179.7720  147.6700 O   0  0  0  0  0  0  0  0  0  0  0  0
  186.7710  178.8290  147.1540 C   0  0  0  0  0  0  0  0  0  0  0  0
  187.2820  177.4840  149.0250 F   0  0  0  0  0  0  0  0  0  0  0  0
  188.6900  177.2060  147.1570 C   0  0  0  0  0  3  0  0  0  0  0  0
  1 10  1  0  0  0  0
  1 21  1  1  0  0  0
  3  5  1  0  0  0  0
  4  8  1  0  0  0  0
  4 11  1  0  0  0  0
  5 11  2  0  0  0  0
  6 10  1  0  0  0  0
  7  4  2  0  0  0  0
  8  2  1  6  0  0  0
  8  6  1  0  0  0  0
  9  7  1  0  0  0  0
  9  3  2  0  0  0  0
 11  1  1  0  0  0  0
 12 15  2  0  0  0  0
 13 18  1  0  0  0  0
 14 19  1  6  0  0  0
 14 17  1  0  0  0  0
 15  3  1  0  0  0  0
 15 18  1  0  0  0  0
 17 13  1  0  0  0  0
 18 16  1  1  0  0  0
 20 14  1  0  0  0  0
 20 12  1  0  0  0  0
 21 26  1  0  0  0  0
 22 21  2  0  0  0  0
 22 24  1  0  0  0  0
 23 27  1  1  0  0  0
 24 28  2  0  0  0  0
 26 25  2  0  0  0  0
 26 23  1  0  0  0  0
 28 23  1  0  0  0  0
M  END
>  <MODEL>
6

>  <REMARK>
 VINA RESULT:      -9.2      2.598      6.228
  Name = 
  2 active torsions:
  status: ('A' for Active; 'I' for Inactive)
    1  A    between atoms: C_1  and  C_2
    2  A    between atoms: C_10  and  C_13
                            x       y       z     vdW  Elec       q    Type
                         _______ _______ _______ _____ _____    ______ ____

>  <TORSDO>
F 2

$$$$
=
 OpenBabel10262420473D

 28 31  0  0  1  0  0  0  0  0999 V2000
  187.7680  178.2270  144.1930 C   0  0  2  0  0  3  0  0  0  0  0  0
  183.5810  179.1570  144.6250 C   0  0  0  0  0  1  0  0  0  0  0  0
  186.5570  178.2740  140.5670 C   0  0  0  0  0  0  0  0  0  0  0  0
  185.4320  178.2890  143.1600 C   0  0  0  0  0  0  0  0  0  0  0  0
  187.3760  178.2440  141.7030 C   0  0  0  0  0  3  0  0  0  0  0  0
  185.7780  178.6580  145.6350 C   0  0  0  0  0  2  0  0  0  0  0  0
  184.6110  178.2760  142.0230 C   0  0  0  0  0  3  0  0  0  0  0  0
  184.8000  178.2520  144.5370 C   0  0  1  0  0  3  0  0  0  0  0  0
  185.1660  178.2700  140.7430 C   0  0  0  0  0  3  0  0  0  0  0  0
  187.0650  177.8620  145.5010 C   0  0  0  0  0  2  0  0  0  0  0  0
  186.8360  178.2190  142.9970 C   0  0  0  0  0  0  0  0  0  0  0  0
  186.3240  178.2530  138.1450 C   0  0  0  0  0  3  0  0  0  0  0  0
  189.0130  176.7530  138.4650 C   0  0  0  0  0  2  0  0  0  0  0  0
  187.3990  176.7310  136.5020 C   0  0  2  0  0  3  0  0  0  0  0  0
  187.1490  178.2550  139.2020 C   0  0  0  0  0  0  0  0  0  0  0  0
  189.3980  178.4800  140.0860 O   0  0  0  0  0  1  0  0  0  0  0  0
  188.8590  176.6810  136.9490 C   0  0  0  0  0  2  0  0  0  0  0  0
  188.6420  178.1410  138.9630 C   0  0  1  0  0  3  0  0  0  0  0  0
  187.3280  176.4020  135.0270 C   0  0  0  0  0  1  0  0  0  0  0  0
  186.7960  178.1150  136.7300 C   0  0  0  0  0  2  0  0  0  0  0  0
  188.9890  177.3690  143.9920 C   0  0  0  0  0  0  0  0  0  0  0  0
  188.8770  176.1430  143.4650 C   0  0  0  0  0  3  0  0  0  0  0  0
  191.5500  177.0290  144.2330 C   0  0  1  0  0  3  0  0  0  0  0  0
  190.0600  175.3030  143.2190 C   0  0  0  0  0  3  0  0  0  0  0  0
  190.4500  179.0920  144.7200 O   0  0  0  0  0  0  0  0  0  0  0  0
  190.3260  177.9010  144.3290 C   0  0  0  0  0  0  0  0  0  0  0  0
  192.0550  176.8000  145.4970 F   0  0  0  0  0  0  0  0  0  0  0  0
  191.2860  175.7100  143.5550 C   0  0  0  0  0  3  0  0  0  0  0  0
  1 21  1  6  0  0  0
  1 10  1  0  0  0  0
  3  9  2  0  0  0  0
  3  5  1  0  0  0  0
  4  8  1  0  0  0  0
  5 11  2  0  0  0  0
  7  4  2  0  0  0  0
  8  2  1  6  0  0  0
  8  6  1  0  0  0  0
  9  7  1  0  0  0  0
 10  6  1  0  0  0  0
 11  4  1  0  0  0  0
 11  1  1  0  0  0  0
 12 15  2  0  0  0  0
 13 18  1  0  0  0  0
 14 19  1  6  0  0  0
 14 20  1  0  0  0  0
 14 17  1  0  0  0  0
 15  3  1  0  0  0  0
 17 13  1  0  0  0  0
 18 15  1  0  0  0  0
 18 16  1  1  0  0  0
 20 12  1  0  0  0  0
 21 26  1  0  0  0  0
 22 21  2  0  0  0  0
 23 26  1  0  0  0  0
 23 27  1  1  0  0  0
 24 22  1  0  0  0  0
 24 28  2  0  0  0  0
 26 25  2  0  0  0  0
 28 23  1  0  0  0  0
M  END
>  <MODEL>
7

>  <REMARK>
 VINA RESULT:      -9.1      2.927      4.879
  Name = 
  2 active torsions:
  status: ('A' for Active; 'I' for Inactive)
    1  A    between atoms: C_1  and  C_2
    2  A    between atoms: C_10  and  C_13
                            x       y       z     vdW  Elec       q    Type
                         _______ _______ _______ _____ _____    ______ ____

>  <TORSDO>
F 2

$$$$
=
 OpenBabel10262420473D

 28 31  0  0  1  0  0  0  0  0999 V2000
  187.5610  177.1710  144.4890 C   0  0  2  0  0  3  0  0  0  0  0  0
  191.6820  177.0780  145.7490 C   0  0  0  0  0  1  0  0  0  0  0  0
  189.4390  177.1680  141.1600 C   0  0  0  0  0  0  0  0  0  0  0  0
  190.0260  177.5010  143.9050 C   0  0  0  0  0  0  0  0  0  0  0  0
  188.4240  177.1010  142.1220 C   0  0  0  0  0  3  0  0  0  0  0  0
  189.2780  177.2020  146.2980 C   0  0  0  0  0  2  0  0  0  0  0  0
  191.0360  177.6120  142.9370 C   0  0  0  0  0  3  0  0  0  0  0  0
  190.3620  177.7290  145.3650 C   0  0  1  0  0  3  0  0  0  0  0  0
  190.7470  177.4450  141.5820 C   0  0  0  0  0  3  0  0  0  0  0  0
  187.9220  177.7300  145.8660 C   0  0  0  0  0  2  0  0  0  0  0  0
  188.6910  177.2940  143.4850 C   0  0  0  0  0  0  0  0  0  0  0  0
  189.7330  176.0150  139.0370 C   0  0  0  0  0  3  0  0  0  0  0  0
  189.0490  178.8640  138.0400 C   0  0  0  0  0  2  0  0  0  0  0  0
  190.2360  176.9860  136.8070 C   0  0  2  0  0  3  0  0  0  0  0  0
  189.1290  177.0020  139.7140 C   0  0  0  0  0  0  0  0  0  0  0  0
  187.4230  178.7250  139.8000 O   0  0  0  0  0  1  0  0  0  0  0  0
  189.2810  178.1740  136.6990 C   0  0  0  0  0  2  0  0  0  0  0  0
  188.2340  177.9650  138.9580 C   0  0  1  0  0  3  0  0  0  0  0  0
  190.6050  176.5270  135.4120 C   0  0  0  0  0  1  0  0  0  0  0  0
  189.5940  175.8230  137.5580 C   0  0  0  0  0  2  0  0  0  0  0  0
  186.2700  177.7700  143.9970 C   0  0  0  0  0  0  0  0  0  0  0  0
  186.0440  177.9120  142.6850 C   0  0  0  0  0  3  0  0  0  0  0  0
  183.9660  178.8480  144.5080 C   0  0  1  0  0  3  0  0  0  0  0  0
  184.7720  178.4530  142.1790 C   0  0  0  0  0  3  0  0  0  0  0  0
  185.3810  177.9230  146.1930 O   0  0  0  0  0  0  0  0  0  0  0  0
  185.2220  178.1560  144.9650 C   0  0  0  0  0  0  0  0  0  0  0  0
  183.9500  180.1430  144.9870 F   0  0  0  0  0  0  0  0  0  0  0  0
  183.8130  178.8690  143.0100 C   0  0  0  0  0  3  0  0  0  0  0  0
  1 21  1  6  0  0  0
  1 10  1  0  0  0  0
  3  9  2  0  0  0  0
  3  5  1  0  0  0  0
  4  8  1  0  0  0  0
  5 11  2  0  0  0  0
  7  4  2  0  0  0  0
  8  2  1  1  0  0  0
  8  6  1  0  0  0  0
  9  7  1  0  0  0  0
 10  6  1  0  0  0  0
 11  4  1  0  0  0  0
 11  1  1  0  0  0  0
 12 15  2  0  0  0  0
 13 18  1  0  0  0  0
 14 19  1  6  0  0  0
 14 20  1  0  0  0  0
 15  3  1  0  0  0  0
 17 14  1  0  0  0  0
 17 13  1  0  0  0  0
 18 15  1  0  0  0  0
 18 16  1  1  0  0  0
 20 12  1  0  0  0  0
 21 26  1  0  0  0  0
 22 21  2  0  0  0  0
 23 26  1  0  0  0  0
 23 27  1  6  0  0  0
 24 22  1  0  0  0  0
 24 28  2  0  0  0  0
 26 25  2  0  0  0  0
 28 23  1  0  0  0  0
M  END
>  <MODEL>
8

>  <REMARK>
 VINA RESULT:      -9.0      3.065      6.313
  Name = 
  2 active torsions:
  status: ('A' for Active; 'I' for Inactive)
    1  A    between atoms: C_1  and  C_2
    2  A    between atoms: C_10  and  C_13
                            x       y       z     vdW  Elec       q    Type
                         _______ _______ _______ _____ _____    ______ ____

>  <TORSDO>
F 2

$$$$
=
 OpenBabel10262420473D

 28 31  0  0  1  0  0  0  0  0999 V2000
  190.2720  177.7170  143.1560 C   0  0  2  0  0  3  0  0  0  0  0  0
  190.5790  176.8260  147.3620 C   0  0  0  0  0  1  0  0  0  0  0  0
  186.7000  178.3030  144.3830 C   0  0  0  0  0  0  0  0  0  0  0  0
  189.0990  177.1700  145.3590 C   0  0  0  0  0  0  0  0  0  0  0  0
  187.8520  178.2730  143.5880 C   0  0  0  0  0  3  0  0  0  0  0  0
  191.6030  176.9410  145.1180 C   0  0  0  0  0  2  0  0  0  0  0  0
  187.9340  177.1610  146.1390 C   0  0  0  0  0  3  0  0  0  0  0  0
  190.3590  176.5150  145.8900 C   0  0  1  0  0  3  0  0  0  0  0  0
  186.7490  177.7220  145.6590 C   0  0  0  0  0  3  0  0  0  0  0  0
  191.3720  176.7660  143.6280 C   0  0  0  0  0  2  0  0  0  0  0  0
  189.0420  177.6870  144.0420 C   0  0  0  0  0  0  0  0  0  0  0  0
  184.4230  179.0890  144.7240 C   0  0  0  0  0  3  0  0  0  0  0  0
  184.2640  178.1650  141.7740 C   0  0  0  0  0  2  0  0  0  0  0  0
  182.3770  178.5030  143.4420 C   0  0  2  0  0  3  0  0  0  0  0  0
  185.4340  178.8900  143.8670 C   0  0  0  0  0  0  0  0  0  0  0  0
  186.4020  179.2500  141.6710 O   0  0  0  0  0  1  0  0  0  0  0  0
  182.8170  178.6020  141.9820 C   0  0  0  0  0  2  0  0  0  0  0  0
  185.2120  179.1800  142.3950 C   0  0  1  0  0  3  0  0  0  0  0  0
  180.8790  178.7070  143.5150 C   0  0  0  0  0  1  0  0  0  0  0  0
  183.0640  179.5590  144.3030 C   0  0  0  0  0  2  0  0  0  0  0  0
  189.9560  177.4800  141.7030 C   0  0  0  0  0  0  0  0  0  0  0  0
  188.6850  177.3700  141.2950 C   0  0  0  0  0  3  0  0  0  0  0  0
  190.7680  177.0850  139.2710 C   0  0  1  0  0  3  0  0  0  0  0  0
  188.3490  177.1820  139.8740 C   0  0  0  0  0  3  0  0  0  0  0  0
  192.2390  177.6340  141.0710 O   0  0  0  0  0  0  0  0  0  0  0  0
  191.0490  177.4200  140.7120 C   0  0  0  0  0  0  0  0  0  0  0  0
  191.3200  175.8560  138.9650 F   0  0  0  0  0  0  0  0  0  0  0  0
  189.2990  177.0650  138.9430 C   0  0  0  0  0  3  0  0  0  0  0  0
  1 21  1  6  0  0  0
  1 10  1  0  0  0  0
  1 11  1  0  0  0  0
  3  9  1  0  0  0  0
  4  8  1  0  0  0  0
  4  7  1  0  0  0  0
  5 11  1  0  0  0  0
  5  3  2  0  0  0  0
  6  8  1  0  0  0  0
  8  2  1  1  0  0  0
  9  7  2  0  0  0  0
 10  6  1  0  0  0  0
 11  4  2  0  0  0  0
 13 17  1  0  0  0  0
 13 18  1  0  0  0  0
 14 19  1  6  0  0  0
 14 20  1  0  0  0  0
 15  3  1  0  0  0  0
 15 12  2  0  0  0  0
 17 14  1  0  0  0  0
 18 16  1  6  0  0  0
 18 15  1  0  0  0  0
 20 12  1  0  0  0  0
 22 21  2  0  0  0  0
 23 27  1  1  0  0  0
 23 26  1  0  0  0  0
 24 22  1  0  0  0  0
 26 25  2  0  0  0  0
 26 21  1  0  0  0  0
 28 23  1  0  0  0  0
 28 24  2  0  0  0  0
M  END
>  <MODEL>
9

>  <REMARK>
 VINA RESULT:      -8.9      1.529      2.292
  Name = 
  2 active torsions:
  status: ('A' for Active; 'I' for Inactive)
    1  A    between atoms: C_1  and  C_2
    2  A    between atoms: C_10  and  C_13
                            x       y       z     vdW  Elec       q    Type
                         _______ _______ _______ _____ _____    ______ ____

>  <TORSDO>
F 2

$$$$
