=
 OpenBabel10262420113D

 27 31  0  0  0  0  0  0  0  0999 V2000
  186.4010  178.7590  140.7860 C   0  0  0  0  0  3  0  0  0  0  0  0
  185.8160  178.4300  143.1810 C   0  0  0  0  0  0  0  0  0  0  0  0
  187.9610  177.2000  142.8040 N   0  0  0  0  0  0  0  0  0  0  0  0
  186.5970  178.4540  147.3170 C   0  0  0  0  0  3  0  0  0  0  0  0
  187.9970  177.8380  149.2180 N   0  0  0  0  0  1  0  0  0  0  0  0
  184.9420  179.0590  144.0830 C   0  0  0  0  0  3  0  0  0  0  0  0
  188.6380  177.2070  146.9490 C   0  0  0  0  0  3  0  0  0  0  0  0
  191.2050  176.4660  139.5350 F   0  0  0  0  0  0  0  0  0  0  0  0
  188.3910  177.2000  145.5740 C   0  0  0  0  0  3  0  0  0  0  0  0
  190.0560  177.0770  139.9110 C   0  0  0  0  0  0  0  0  0  0  0  0
  187.2430  177.8170  145.0520 C   0  0  0  0  0  0  0  0  0  0  0  0
  185.4600  178.3810  141.7930 N   0  0  0  0  0  0  0  0  0  0  0  0
  187.7430  177.8320  147.8190 C   0  0  0  0  0  0  0  0  0  0  0  0
  186.3430  178.4510  145.9420 C   0  0  0  0  0  0  0  0  0  0  0  0
  187.6520  178.3130  140.6760 C   0  0  0  0  0  0  0  0  0  0  0  0
  186.9930  177.8270  143.6610 C   0  0  0  0  0  0  0  0  0  0  0  0
  189.4670  176.7670  141.1350 C   0  0  0  0  0  3  0  0  0  0  0  0
  185.2020  179.0740  145.4510 C   0  0  0  0  0  3  0  0  0  0  0  0
  189.4860  178.0520  139.0970 C   0  0  0  0  0  3  0  0  0  0  0  0
  188.2880  178.6550  139.4760 C   0  0  0  0  0  3  0  0  0  0  0  0
  188.2900  177.3990  141.5600 C   0  0  0  0  0  0  0  0  0  0  0  0
  181.4210  177.7910  140.5760 C   0  0  0  0  0  3  0  0  0  0  0  0
  184.0870  178.1680  141.3930 C   0  0  0  0  0  0  0  0  0  0  0  0
  183.7840  177.3680  140.2770 C   0  0  0  0  0  3  0  0  0  0  0  0
  182.4600  177.1780  139.8730 C   0  0  0  0  0  3  0  0  0  0  0  0
  181.7060  178.5970  141.6810 C   0  0  0  0  0  3  0  0  0  0  0  0
  183.0300  178.7870  142.0850 C   0  0  0  0  0  3  0  0  0  0  0  0
  1 12  1  0  0  0  0
  2 16  2  0  0  0  0
  2  6  1  0  0  0  0
  3 16  1  0  0  0  0
  4 13  1  0  0  0  0
  6 18  2  0  0  0  0
  7 13  2  0  0  0  0
  8 10  1  0  0  0  0
  9  7  1  0  0  0  0
 10 17  2  0  0  0  0
 11  9  2  0  0  0  0
 11 14  1  0  0  0  0
 12  2  1  0  0  0  0
 13  5  1  0  0  0  0
 14  4  2  0  0  0  0
 15  1  2  0  0  0  0
 15 21  1  0  0  0  0
 16 11  1  0  0  0  0
 17 21  1  0  0  0  0
 18 14  1  0  0  0  0
 19 20  2  0  0  0  0
 19 10  1  0  0  0  0
 20 15  1  0  0  0  0
 21  3  2  0  0  0  0
 22 26  1  0  0  0  0
 23 12  1  0  0  0  0
 23 27  1  0  0  0  0
 24 23  2  0  0  0  0
 25 24  1  0  0  0  0
 25 22  2  0  0  0  0
 26 27  2  0  0  0  0
M  END
>  <MODEL>
1

>  <REMARK>
 VINA RESULT:     -10.0      0.000      0.000
  Name = 
  1 active torsions:
  status: ('A' for Active; 'I' for Inactive)
    1  A    between atoms: C_9  and  N_15
                            x       y       z     vdW  Elec       q    Type
                         _______ _______ _______ _____ _____    ______ ____

>  <TORSDO>
F 1

$$$$
=
 OpenBabel10262420113D

 27 31  0  0  0  0  0  0  0  0999 V2000
  187.9720  178.7270  141.2440 C   0  0  0  0  0  3  0  0  0  0  0  0
  188.4410  177.8550  143.5250 C   0  0  0  0  0  0  0  0  0  0  0  0
  189.8400  176.5030  141.9520 N   0  0  0  0  0  0  0  0  0  0  0  0
  190.9450  176.6840  146.7000 C   0  0  0  0  0  3  0  0  0  0  0  0
  192.8470  175.4120  147.5480 N   0  0  0  0  0  1  0  0  0  0  0  0
  188.2320  178.3300  144.8320 C   0  0  0  0  0  3  0  0  0  0  0  0
  192.2520  175.3270  145.1830 C   0  0  0  0  0  3  0  0  0  0  0  0
  191.0350  176.2500  137.4520 F   0  0  0  0  0  0  0  0  0  0  0  0
  191.4320  175.7150  144.1210 C   0  0  0  0  0  3  0  0  0  0  0  0
  190.3510  176.8820  138.4350 C   0  0  0  0  0  0  0  0  0  0  0  0
  190.3550  176.5910  144.3350 C   0  0  0  0  0  0  0  0  0  0  0  0
  187.5110  178.2210  142.4990 N   0  0  0  0  0  0  0  0  0  0  0  0
  192.0090  175.8090  146.4700 C   0  0  0  0  0  0  0  0  0  0  0  0
  190.1190  177.0770  145.6430 C   0  0  0  0  0  0  0  0  0  0  0  0
  188.9010  178.1700  140.4680 C   0  0  0  0  0  0  0  0  0  0  0  0
  189.5290  177.0000  143.2640 C   0  0  0  0  0  0  0  0  0  0  0  0
  190.3060  176.3370  139.7170 C   0  0  0  0  0  3  0  0  0  0  0  0
  189.0630  177.9490  145.8810 C   0  0  0  0  0  3  0  0  0  0  0  0
  189.7310  178.1020  138.1800 C   0  0  0  0  0  3  0  0  0  0  0  0
  189.0040  178.7330  139.1890 C   0  0  0  0  0  3  0  0  0  0  0  0
  189.6240  176.9800  140.7600 C   0  0  0  0  0  0  0  0  0  0  0  0
  183.3430  178.5040  143.3280 C   0  0  0  0  0  3  0  0  0  0  0  0
  186.0950  178.2990  142.7820 C   0  0  0  0  0  0  0  0  0  0  0  0
  185.1610  178.3850  141.7360 C   0  0  0  0  0  3  0  0  0  0  0  0
  183.7930  178.4830  142.0070 C   0  0  0  0  0  3  0  0  0  0  0  0
  184.2600  178.4300  144.3800 C   0  0  0  0  0  3  0  0  0  0  0  0
  185.6270  178.3310  144.1090 C   0  0  0  0  0  3  0  0  0  0  0  0
  1 12  1  0  0  0  0
  2  6  1  0  0  0  0
  3 16  1  0  0  0  0
  6 18  2  0  0  0  0
  7 13  2  0  0  0  0
  8 10  1  0  0  0  0
  9 11  2  0  0  0  0
  9  7  1  0  0  0  0
 10 17  2  0  0  0  0
 11 14  1  0  0  0  0
 12 23  1  0  0  0  0
 12  2  1  0  0  0  0
 13  4  1  0  0  0  0
 13  5  1  0  0  0  0
 14 18  1  0  0  0  0
 14  4  2  0  0  0  0
 15 21  1  0  0  0  0
 15  1  2  0  0  0  0
 16  2  2  0  0  0  0
 16 11  1  0  0  0  0
 17 21  1  0  0  0  0
 19 10  1  0  0  0  0
 19 20  2  0  0  0  0
 20 15  1  0  0  0  0
 21  3  2  0  0  0  0
 22 26  1  0  0  0  0
 23 27  1  0  0  0  0
 24 25  1  0  0  0  0
 24 23  2  0  0  0  0
 25 22  2  0  0  0  0
 27 26  2  0  0  0  0
M  END
>  <MODEL>
2

>  <REMARK>
 VINA RESULT:      -9.5      2.147      3.139
  Name = 
  1 active torsions:
  status: ('A' for Active; 'I' for Inactive)
    1  A    between atoms: C_9  and  N_15
                            x       y       z     vdW  Elec       q    Type
                         _______ _______ _______ _____ _____    ______ ____

>  <TORSDO>
F 1

$$$$
=
 OpenBabel10262420113D

 27 31  0  0  0  0  0  0  0  0999 V2000
  190.0690  178.0930  142.2780 C   0  0  0  0  0  3  0  0  0  0  0  0
  187.6400  178.0970  141.7440 C   0  0  0  0  0  0  0  0  0  0  0  0
  187.8390  177.3230  144.1140 N   0  0  0  0  0  0  0  0  0  0  0  0
  183.6030  179.0660  142.4380 C   0  0  0  0  0  3  0  0  0  0  0  0
  181.6590  179.1410  143.9100 N   0  0  0  0  0  1  0  0  0  0  0  0
  186.8470  178.6750  140.7380 C   0  0  0  0  0  3  0  0  0  0  0  0
  183.7880  178.2530  144.7090 C   0  0  0  0  0  3  0  0  0  0  0  0
  191.0010  176.7240  147.4890 F   0  0  0  0  0  0  0  0  0  0  0  0
  185.1300  177.9350  144.4910 C   0  0  0  0  0  3  0  0  0  0  0  0
  190.7150  177.1260  146.2280 C   0  0  0  0  0  0  0  0  0  0  0  0
  185.7270  178.1750  143.2420 C   0  0  0  0  0  0  0  0  0  0  0  0
  188.9840  177.7120  141.4290 N   0  0  0  0  0  0  0  0  0  0  0  0
  183.0250  178.8170  143.6850 C   0  0  0  0  0  0  0  0  0  0  0  0
  184.9460  178.7500  142.2110 C   0  0  0  0  0  0  0  0  0  0  0  0
  190.1280  177.9220  143.5980 C   0  0  0  0  0  0  0  0  0  0  0  0
  187.0880  177.8690  143.0180 C   0  0  0  0  0  0  0  0  0  0  0  0
  189.4390  176.9280  145.7030 C   0  0  0  0  0  3  0  0  0  0  0  0
  185.5140  179.0030  140.9680 C   0  0  0  0  0  3  0  0  0  0  0  0
  191.6800  177.7810  145.4680 C   0  0  0  0  0  3  0  0  0  0  0  0
  191.3880  178.1650  144.1610 C   0  0  0  0  0  3  0  0  0  0  0  0
  189.1070  177.3530  144.4090 C   0  0  0  0  0  0  0  0  0  0  0  0
  189.9410  176.0430  137.6290 C   0  0  0  0  0  3  0  0  0  0  0  0
  189.3010  177.1300  140.1430 C   0  0  0  0  0  0  0  0  0  0  0  0
  190.5750  176.5900  139.8990 C   0  0  0  0  0  3  0  0  0  0  0  0
  190.8930  176.0460  138.6500 C   0  0  0  0  0  3  0  0  0  0  0  0
  188.6740  176.5860  137.8530 C   0  0  0  0  0  3  0  0  0  0  0  0
  188.3570  177.1280  139.1010 C   0  0  0  0  0  3  0  0  0  0  0  0
  1 15  2  0  0  0  0
  2 16  1  0  0  0  0
  3 21  2  0  0  0  0
  4 13  2  0  0  0  0
  6 18  1  0  0  0  0
  6  2  2  0  0  0  0
  9  7  2  0  0  0  0
 10  8  1  0  0  0  0
 11  9  1  0  0  0  0
 12  2  1  0  0  0  0
 12  1  1  0  0  0  0
 13  5  1  0  0  0  0
 13  7  1  0  0  0  0
 14  4  1  0  0  0  0
 14 11  1  0  0  0  0
 15 20  1  0  0  0  0
 15 21  1  0  0  0  0
 16 11  2  0  0  0  0
 16  3  1  0  0  0  0
 17 10  2  0  0  0  0
 18 14  2  0  0  0  0
 19 10  1  0  0  0  0
 20 19  2  0  0  0  0
 21 17  1  0  0  0  0
 22 26  2  0  0  0  0
 22 25  1  0  0  0  0
 23 12  1  0  0  0  0
 24 23  1  0  0  0  0
 25 24  2  0  0  0  0
 26 27  1  0  0  0  0
 27 23  2  0  0  0  0
M  END
>  <MODEL>
3

>  <REMARK>
 VINA RESULT:      -9.0      2.582      5.600
  Name = 
  1 active torsions:
  status: ('A' for Active; 'I' for Inactive)
    1  A    between atoms: C_9  and  N_15
                            x       y       z     vdW  Elec       q    Type
                         _______ _______ _______ _____ _____    ______ ____

>  <TORSDO>
F 1

$$$$
=
 OpenBabel10262420113D

 27 31  0  0  0  0  0  0  0  0999 V2000
  187.9720  176.8960  143.5030 C   0  0  0  0  0  3  0  0  0  0  0  0
  185.7900  178.0420  143.1710 C   0  0  0  0  0  0  0  0  0  0  0  0
  187.1950  178.6100  141.1810 N   0  0  0  0  0  0  0  0  0  0  0  0
  182.3440  179.0850  140.9910 C   0  0  0  0  0  3  0  0  0  0  0  0
  181.2900  179.9230  138.9560 N   0  0  0  0  0  1  0  0  0  0  0  0
  184.5080  177.9150  143.7310 C   0  0  0  0  0  3  0  0  0  0  0  0
  183.7170  179.6950  139.0940 C   0  0  0  0  0  3  0  0  0  0  0  0
  191.3170  177.6170  139.2380 F   0  0  0  0  0  0  0  0  0  0  0  0
  184.8660  179.3440  139.8060 C   0  0  0  0  0  3  0  0  0  0  0  0
  190.4270  177.4090  140.2380 C   0  0  0  0  0  0  0  0  0  0  0  0
  184.7700  178.8620  141.1220 C   0  0  0  0  0  0  0  0  0  0  0  0
  186.9330  177.7500  143.9850 N   0  0  0  0  0  0  0  0  0  0  0  0
  182.4580  179.5660  139.6840 C   0  0  0  0  0  0  0  0  0  0  0  0
  183.4900  178.7330  141.7110 C   0  0  0  0  0  0  0  0  0  0  0  0
  188.5980  177.0070  142.3320 C   0  0  0  0  0  0  0  0  0  0  0  0
  185.9270  178.4920  141.8440 C   0  0  0  0  0  0  0  0  0  0  0  0
  189.2760  178.1900  140.3230 C   0  0  0  0  0  3  0  0  0  0  0  0
  183.3670  178.2530  143.0090 C   0  0  0  0  0  3  0  0  0  0  0  0
  190.6350  176.3830  141.1550 C   0  0  0  0  0  3  0  0  0  0  0  0
  189.7310  176.1930  142.1980 C   0  0  0  0  0  3  0  0  0  0  0  0
  188.3260  177.9830  141.3340 C   0  0  0  0  0  0  0  0  0  0  0  0
  186.9760  178.8100  148.1100 C   0  0  0  0  0  3  0  0  0  0  0  0
  186.9570  178.1250  145.3820 C   0  0  0  0  0  0  0  0  0  0  0  0
  187.9220  177.5880  146.2500 C   0  0  0  0  0  3  0  0  0  0  0  0
  187.9350  177.9310  147.6050 C   0  0  0  0  0  3  0  0  0  0  0  0
  186.0030  179.3450  147.2630 C   0  0  0  0  0  3  0  0  0  0  0  0
  185.9910  179.0030  145.9090 C   0  0  0  0  0  3  0  0  0  0  0  0
  1 12  1  0  0  0  0
  2  6  1  0  0  0  0
  2 12  1  0  0  0  0
  3 21  2  0  0  0  0
  3 16  1  0  0  0  0
  4 14  1  0  0  0  0
  5 13  1  0  0  0  0
  7 13  1  0  0  0  0
  7  9  2  0  0  0  0
  8 10  1  0  0  0  0
  9 11  1  0  0  0  0
 10 17  2  0  0  0  0
 10 19  1  0  0  0  0
 11 14  2  0  0  0  0
 11 16  1  0  0  0  0
 12 23  1  0  0  0  0
 13  4  2  0  0  0  0
 14 18  1  0  0  0  0
 15  1  2  0  0  0  0
 16  2  2  0  0  0  0
 17 21  1  0  0  0  0
 18  6  2  0  0  0  0
 19 20  2  0  0  0  0
 20 15  1  0  0  0  0
 21 15  1  0  0  0  0
 23 27  2  0  0  0  0
 23 24  1  0  0  0  0
 24 25  2  0  0  0  0
 25 22  1  0  0  0  0
 26 22  2  0  0  0  0
 27 26  1  0  0  0  0
M  END
>  <MODEL>
4

>  <REMARK>
 VINA RESULT:      -8.7      1.606      5.798
  Name = 
  1 active torsions:
  status: ('A' for Active; 'I' for Inactive)
    1  A    between atoms: C_9  and  N_15
                            x       y       z     vdW  Elec       q    Type
                         _______ _______ _______ _____ _____    ______ ____

>  <TORSDO>
F 1

$$$$
=
 OpenBabel10262420113D

 27 31  0  0  0  0  0  0  0  0999 V2000
  189.8170  176.7580  140.7360 C   0  0  0  0  0  3  0  0  0  0  0  0
  187.9300  177.6370  142.0960 C   0  0  0  0  0  0  0  0  0  0  0  0
  187.6170  178.5450  139.7860 N   0  0  0  0  0  0  0  0  0  0  0  0
  183.8720  178.4050  142.9100 C   0  0  0  0  0  3  0  0  0  0  0  0
  181.6940  179.2660  142.2250 N   0  0  0  0  0  1  0  0  0  0  0  0
  187.3600  177.3010  143.3360 C   0  0  0  0  0  3  0  0  0  0  0  0
  183.5950  179.3410  140.6960 C   0  0  0  0  0  3  0  0  0  0  0  0
  189.4120  178.2550  135.4920 F   0  0  0  0  0  0  0  0  0  0  0  0
  184.9390  179.0840  140.4130 C   0  0  0  0  0  3  0  0  0  0  0  0
  189.4300  177.8520  136.7850 C   0  0  0  0  0  0  0  0  0  0  0  0
  185.7680  178.4860  141.3770 C   0  0  0  0  0  0  0  0  0  0  0  0
  189.3350  177.4290  141.9020 N   0  0  0  0  0  0  0  0  0  0  0  0
  183.0620  179.0030  141.9410 C   0  0  0  0  0  0  0  0  0  0  0  0
  185.2180  178.1450  142.6350 C   0  0  0  0  0  0  0  0  0  0  0  0
  189.4930  177.0460  139.4760 C   0  0  0  0  0  0  0  0  0  0  0  0
  187.1250  178.2100  141.0930 C   0  0  0  0  0  0  0  0  0  0  0  0
  188.6020  178.4680  137.7210 C   0  0  0  0  0  3  0  0  0  0  0  0
  186.0160  177.5470  143.6030 C   0  0  0  0  0  3  0  0  0  0  0  0
  190.2410  176.7880  137.1730 C   0  0  0  0  0  3  0  0  0  0  0  0
  190.2760  176.3990  138.5110 C   0  0  0  0  0  3  0  0  0  0  0  0
  188.5830  178.0580  139.0620 C   0  0  0  0  0  0  0  0  0  0  0  0
  192.0550  178.1880  145.0900 C   0  0  0  0  0  3  0  0  0  0  0  0
  190.2720  177.6880  142.9720 C   0  0  0  0  0  0  0  0  0  0  0  0
  190.7900  176.6300  143.7390 C   0  0  0  0  0  3  0  0  0  0  0  0
  191.6800  176.8780  144.7890 C   0  0  0  0  0  3  0  0  0  0  0  0
  191.5420  179.2510  144.3440 C   0  0  0  0  0  3  0  0  0  0  0  0
  190.6530  179.0030  143.2940 C   0  0  0  0  0  3  0  0  0  0  0  0
  1 12  1  0  0  0  0
  2  6  1  0  0  0  0
  3 16  1  0  0  0  0
  6 18  2  0  0  0  0
  7 13  1  0  0  0  0
  8 10  1  0  0  0  0
  9  7  2  0  0  0  0
  9 11  1  0  0  0  0
 10 19  1  0  0  0  0
 10 17  2  0  0  0  0
 11 14  2  0  0  0  0
 12  2  1  0  0  0  0
 12 23  1  0  0  0  0
 13  5  1  0  0  0  0
 13  4  2  0  0  0  0
 14  4  1  0  0  0  0
 14 18  1  0  0  0  0
 15  1  2  0  0  0  0
 16 11  1  0  0  0  0
 16  2  2  0  0  0  0
 17 21  1  0  0  0  0
 19 20  2  0  0  0  0
 20 15  1  0  0  0  0
 21 15  1  0  0  0  0
 21  3  2  0  0  0  0
 23 27  2  0  0  0  0
 23 24  1  0  0  0  0
 24 25  2  0  0  0  0
 25 22  1  0  0  0  0
 26 22  2  0  0  0  0
 27 26  1  0  0  0  0
M  END
>  <MODEL>
5

>  <REMARK>
 VINA RESULT:      -8.6      2.656      6.005
  Name = 
  1 active torsions:
  status: ('A' for Active; 'I' for Inactive)
    1  A    between atoms: C_9  and  N_15
                            x       y       z     vdW  Elec       q    Type
                         _______ _______ _______ _____ _____    ______ ____

>  <TORSDO>
F 1

$$$$
=
 OpenBabel10262420113D

 27 31  0  0  0  0  0  0  0  0999 V2000
  189.1540  176.5680  143.9860 C   0  0  0  0  0  3  0  0  0  0  0  0
  187.0320  177.5980  144.7760 C   0  0  0  0  0  0  0  0  0  0  0  0
  187.3760  178.4010  142.4320 N   0  0  0  0  0  0  0  0  0  0  0  0
  182.9520  178.5860  144.4770 C   0  0  0  0  0  3  0  0  0  0  0  0
  181.0750  179.5080  143.2180 N   0  0  0  0  0  1  0  0  0  0  0  0
  186.1430  177.3500  145.8350 C   0  0  0  0  0  3  0  0  0  0  0  0
  183.3070  179.4210  142.2340 C   0  0  0  0  0  3  0  0  0  0  0  0
  190.1990  177.8160  138.7660 F   0  0  0  0  0  0  0  0  0  0  0  0
  184.6620  179.0900  142.3210 C   0  0  0  0  0  3  0  0  0  0  0  0
  189.8610  177.4780  140.0330 C   0  0  0  0  0  0  0  0  0  0  0  0
  185.1800  178.5050  143.4880 C   0  0  0  0  0  0  0  0  0  0  0  0
  188.4250  177.3180  144.9610 N   0  0  0  0  0  0  0  0  0  0  0  0
  182.4540  179.1700  143.3100 C   0  0  0  0  0  0  0  0  0  0  0  0
  184.3060  178.2530  144.5710 C   0  0  0  0  0  0  0  0  0  0  0  0
  189.1820  176.8060  142.6750 C   0  0  0  0  0  0  0  0  0  0  0  0
  186.5460  178.1550  143.5770 C   0  0  0  0  0  0  0  0  0  0  0  0
  188.8550  178.1770  140.6980 C   0  0  0  0  0  3  0  0  0  0  0  0
  184.7920  177.6700  145.7350 C   0  0  0  0  0  3  0  0  0  0  0  0
  190.4820  176.4000  140.6580 C   0  0  0  0  0  3  0  0  0  0  0  0
  190.1500  176.0770  141.9720 C   0  0  0  0  0  3  0  0  0  0  0  0
  188.4680  177.8360  142.0020 C   0  0  0  0  0  0  0  0  0  0  0  0
  190.3050  178.0630  148.7100 C   0  0  0  0  0  3  0  0  0  0  0  0
  189.0680  177.5880  146.2280 C   0  0  0  0  0  0  0  0  0  0  0  0
  190.3720  177.1280  146.4800 C   0  0  0  0  0  3  0  0  0  0  0  0
  190.9890  177.3670  147.7110 C   0  0  0  0  0  3  0  0  0  0  0  0
  189.0050  178.5180  148.4790 C   0  0  0  0  0  3  0  0  0  0  0  0
  188.3890  178.2790  147.2480 C   0  0  0  0  0  3  0  0  0  0  0  0
  1 12  1  0  0  0  0
  2 12  1  0  0  0  0
  2  6  1  0  0  0  0
  3 16  1  0  0  0  0
  4 14  1  0  0  0  0
  5 13  1  0  0  0  0
  7  9  2  0  0  0  0
  7 13  1  0  0  0  0
  8 10  1  0  0  0  0
  9 11  1  0  0  0  0
 10 19  1  0  0  0  0
 10 17  2  0  0  0  0
 11 16  1  0  0  0  0
 11 14  2  0  0  0  0
 12 23  1  0  0  0  0
 13  4  2  0  0  0  0
 14 18  1  0  0  0  0
 15  1  2  0  0  0  0
 16  2  2  0  0  0  0
 17 21  1  0  0  0  0
 18  6  2  0  0  0  0
 19 20  2  0  0  0  0
 20 15  1  0  0  0  0
 21  3  2  0  0  0  0
 21 15  1  0  0  0  0
 23 24  2  0  0  0  0
 23 27  1  0  0  0  0
 24 25  1  0  0  0  0
 25 22  2  0  0  0  0
 26 22  1  0  0  0  0
 27 26  2  0  0  0  0
M  END
>  <MODEL>
6

>  <REMARK>
 VINA RESULT:      -8.5      1.784      5.827
  Name = 
  1 active torsions:
  status: ('A' for Active; 'I' for Inactive)
    1  A    between atoms: C_9  and  N_15
                            x       y       z     vdW  Elec       q    Type
                         _______ _______ _______ _____ _____    ______ ____

>  <TORSDO>
F 1

$$$$
=
 OpenBabel10262420113D

 27 31  0  0  0  0  0  0  0  0999 V2000
  184.4200  177.7280  141.1460 C   0  0  0  0  0  3  0  0  0  0  0  0
  186.3210  177.8280  142.7470 C   0  0  0  0  0  0  0  0  0  0  0  0
  184.4440  179.1010  143.8010 N   0  0  0  0  0  0  0  0  0  0  0  0
  188.1240  177.4230  146.5290 C   0  0  0  0  0  3  0  0  0  0  0  0
  188.1510  177.8680  148.9280 N   0  0  0  0  0  1  0  0  0  0  0  0
  187.5190  177.1110  142.9100 C   0  0  0  0  0  3  0  0  0  0  0  0
  186.3380  178.7130  147.5290 C   0  0  0  0  0  3  0  0  0  0  0  0
  179.9490  180.1580  143.1470 F   0  0  0  0  0  0  0  0  0  0  0  0
  185.7280  178.8460  146.2800 C   0  0  0  0  0  3  0  0  0  0  0  0
  181.0600  179.5080  142.7260 C   0  0  0  0  0  0  0  0  0  0  0  0
  186.3090  178.2720  145.1370 C   0  0  0  0  0  0  0  0  0  0  0  0
  185.7940  178.0030  141.4250 N   0  0  0  0  0  0  0  0  0  0  0  0
  187.5330  178.0030  147.6540 C   0  0  0  0  0  0  0  0  0  0  0  0
  187.5200  177.5530  145.2750 C   0  0  0  0  0  0  0  0  0  0  0  0
  183.3740  178.1890  141.8300 C   0  0  0  0  0  0  0  0  0  0  0  0
  185.6910  178.3910  143.8720 C   0  0  0  0  0  0  0  0  0  0  0  0
  182.2740  179.6980  143.3820 C   0  0  0  0  0  3  0  0  0  0  0  0
  188.1130  176.9710  144.1610 C   0  0  0  0  0  3  0  0  0  0  0  0
  180.9810  178.6090  141.6650 C   0  0  0  0  0  3  0  0  0  0  0  0
  182.1340  177.9650  141.2180 C   0  0  0  0  0  3  0  0  0  0  0  0
  183.4350  179.0220  142.9820 C   0  0  0  0  0  0  0  0  0  0  0  0
  188.4030  178.6600  138.1230 C   0  0  0  0  0  3  0  0  0  0  0  0
  186.6790  178.2450  140.3070 C   0  0  0  0  0  0  0  0  0  0  0  0
  186.1860  178.2270  138.9910 C   0  0  0  0  0  3  0  0  0  0  0  0
  187.0420  178.4380  137.9050 C   0  0  0  0  0  3  0  0  0  0  0  0
  188.9100  178.6700  139.4240 C   0  0  0  0  0  3  0  0  0  0  0  0
  188.0540  178.4610  140.5090 C   0  0  0  0  0  3  0  0  0  0  0  0
  1 12  1  0  0  0  0
  1 15  2  0  0  0  0
  2  6  2  0  0  0  0
  2 16  1  0  0  0  0
  3 16  1  0  0  0  0
  4 13  2  0  0  0  0
  6 18  1  0  0  0  0
  7 13  1  0  0  0  0
  9  7  2  0  0  0  0
 10  8  1  0  0  0  0
 10 17  2  0  0  0  0
 11 14  1  0  0  0  0
 11  9  1  0  0  0  0
 12  2  1  0  0  0  0
 13  5  1  0  0  0  0
 14  4  1  0  0  0  0
 15 21  1  0  0  0  0
 16 11  2  0  0  0  0
 18 14  2  0  0  0  0
 19 10  1  0  0  0  0
 20 19  2  0  0  0  0
 20 15  1  0  0  0  0
 21 17  1  0  0  0  0
 21  3  2  0  0  0  0
 22 26  1  0  0  0  0
 23 27  1  0  0  0  0
 23 12  1  0  0  0  0
 24 23  2  0  0  0  0
 25 22  2  0  0  0  0
 25 24  1  0  0  0  0
 26 27  2  0  0  0  0
M  END
>  <MODEL>
7

>  <REMARK>
 VINA RESULT:      -8.4      2.634      5.245
  Name = 
  1 active torsions:
  status: ('A' for Active; 'I' for Inactive)
    1  A    between atoms: C_9  and  N_15
                            x       y       z     vdW  Elec       q    Type
                         _______ _______ _______ _____ _____    ______ ____

>  <TORSDO>
F 1

$$$$
=
 OpenBabel10262420113D

 27 31  0  0  0  0  0  0  0  0999 V2000
  187.1510  177.1560  142.1620 C   0  0  0  0  0  3  0  0  0  0  0  0
  189.4180  176.8480  143.1360 C   0  0  0  0  0  0  0  0  0  0  0  0
  188.1060  178.1650  144.8090 N   0  0  0  0  0  0  0  0  0  0  0  0
  192.1330  175.7700  146.1670 C   0  0  0  0  0  3  0  0  0  0  0  0
  192.8910  175.8960  148.4830 N   0  0  0  0  0  1  0  0  0  0  0  0
  190.5040  175.9940  142.8720 C   0  0  0  0  0  3  0  0  0  0  0  0
  190.8940  177.1000  147.7640 C   0  0  0  0  0  3  0  0  0  0  0  0
  183.7980  179.7650  145.6050 F   0  0  0  0  0  0  0  0  0  0  0  0
  189.9830  177.4580  146.7670 C   0  0  0  0  0  3  0  0  0  0  0  0
  184.6460  179.0610  144.8170 C   0  0  0  0  0  0  0  0  0  0  0  0
  190.1370  176.9780  145.4550 C   0  0  0  0  0  0  0  0  0  0  0  0
  188.5730  177.2470  142.0500 N   0  0  0  0  0  0  0  0  0  0  0  0
  191.9670  176.2580  147.4650 C   0  0  0  0  0  0  0  0  0  0  0  0
  191.2260  176.1240  145.1640 C   0  0  0  0  0  0  0  0  0  0  0  0
  186.4120  177.6330  143.1630 C   0  0  0  0  0  0  0  0  0  0  0  0
  189.2120  177.3240  144.4440 C   0  0  0  0  0  0  0  0  0  0  0  0
  186.0100  179.0360  145.1040 C   0  0  0  0  0  3  0  0  0  0  0  0
  191.3980  175.6310  143.8750 C   0  0  0  0  0  3  0  0  0  0  0  0
  184.1500  178.3200  143.7480 C   0  0  0  0  0  3  0  0  0  0  0  0
  185.0310  177.6220  142.9230 C   0  0  0  0  0  3  0  0  0  0  0  0
  186.9070  178.2980  144.3190 C   0  0  0  0  0  0  0  0  0  0  0  0
  190.1880  178.0650  138.1950 C   0  0  0  0  0  3  0  0  0  0  0  0
  189.1330  177.5360  140.7490 C   0  0  0  0  0  0  0  0  0  0  0  0
  188.5210  178.4740  139.9000 C   0  0  0  0  0  3  0  0  0  0  0  0
  189.0470  178.7400  138.6320 C   0  0  0  0  0  3  0  0  0  0  0  0
  190.8030  177.1230  139.0230 C   0  0  0  0  0  3  0  0  0  0  0  0
  190.2770  176.8570  140.2900 C   0  0  0  0  0  3  0  0  0  0  0  0
  1 15  2  0  0  0  0
  2 16  1  0  0  0  0
  4 13  2  0  0  0  0
  6  2  2  0  0  0  0
  6 18  1  0  0  0  0
  9  7  2  0  0  0  0
 10 17  2  0  0  0  0
 10  8  1  0  0  0  0
 11  9  1  0  0  0  0
 12  1  1  0  0  0  0
 12  2  1  0  0  0  0
 13  7  1  0  0  0  0
 13  5  1  0  0  0  0
 14 11  1  0  0  0  0
 14  4  1  0  0  0  0
 15 21  1  0  0  0  0
 16  3  1  0  0  0  0
 16 11  2  0  0  0  0
 18 14  2  0  0  0  0
 19 10  1  0  0  0  0
 20 15  1  0  0  0  0
 20 19  2  0  0  0  0
 21  3  2  0  0  0  0
 21 17  1  0  0  0  0
 22 25  2  0  0  0  0
 22 26  1  0  0  0  0
 23 12  1  0  0  0  0
 24 23  2  0  0  0  0
 25 24  1  0  0  0  0
 26 27  2  0  0  0  0
 27 23  1  0  0  0  0
M  END
>  <MODEL>
8

>  <REMARK>
 VINA RESULT:      -8.4      2.890      5.742
  Name = 
  1 active torsions:
  status: ('A' for Active; 'I' for Inactive)
    1  A    between atoms: C_9  and  N_15
                            x       y       z     vdW  Elec       q    Type
                         _______ _______ _______ _____ _____    ______ ____

>  <TORSDO>
F 1

$$$$
=
 OpenBabel10262420113D

 27 31  0  0  0  0  0  0  0  0999 V2000
  182.7090  178.6280  141.1960 C   0  0  0  0  0  3  0  0  0  0  0  0
  184.2860  178.5490  139.2750 C   0  0  0  0  0  0  0  0  0  0  0  0
  185.6570  179.1180  141.2890 N   0  0  0  0  0  0  0  0  0  0  0  0
  187.7870  177.3200  137.2860 C   0  0  0  0  0  3  0  0  0  0  0  0
  190.2070  177.0170  137.2370 N   0  0  0  0  0  1  0  0  0  0  0  0
  184.2380  178.0240  137.9730 C   0  0  0  0  0  3  0  0  0  0  0  0
  189.1110  177.9350  139.2160 C   0  0  0  0  0  3  0  0  0  0  0  0
  185.3020  179.5710  145.9170 F   0  0  0  0  0  0  0  0  0  0  0  0
  187.9550  178.3390  139.8870 C   0  0  0  0  0  3  0  0  0  0  0  0
  184.7150  179.2700  144.7340 C   0  0  0  0  0  0  0  0  0  0  0  0
  186.6990  178.2410  139.2660 C   0  0  0  0  0  0  0  0  0  0  0  0
  183.0760  179.0270  139.8740 N   0  0  0  0  0  0  0  0  0  0  0  0
  189.0280  177.4270  137.9180 C   0  0  0  0  0  0  0  0  0  0  0  0
  186.6250  177.7230  137.9510 C   0  0  0  0  0  0  0  0  0  0  0  0
  183.4880  178.6830  142.2760 C   0  0  0  0  0  0  0  0  0  0  0  0
  185.5220  178.6340  139.9440 C   0  0  0  0  0  0  0  0  0  0  0  0
  185.4140  179.4490  143.5410 C   0  0  0  0  0  3  0  0  0  0  0  0
  185.3940  177.6100  137.3160 C   0  0  0  0  0  3  0  0  0  0  0  0
  183.4310  178.7340  144.7090 C   0  0  0  0  0  3  0  0  0  0  0  0
  182.8220  178.4540  143.4870 C   0  0  0  0  0  3  0  0  0  0  0  0
  184.8400  179.1250  142.3040 C   0  0  0  0  0  0  0  0  0  0  0  0
  180.1660  181.1400  137.5920 C   0  0  0  0  0  3  0  0  0  0  0  0
  182.0940  179.7370  139.0840 C   0  0  0  0  0  0  0  0  0  0  0  0
  182.3060  181.0780  138.7190 C   0  0  0  0  0  3  0  0  0  0  0  0
  181.3490  181.7740  137.9740 C   0  0  0  0  0  3  0  0  0  0  0  0
  179.9360  179.8110  137.9550 C   0  0  0  0  0  3  0  0  0  0  0  0
  180.8920  179.1150  138.6990 C   0  0  0  0  0  3  0  0  0  0  0  0
  1 15  2  0  0  0  0
  2 12  1  0  0  0  0
  2 16  1  0  0  0  0
  3 21  2  0  0  0  0
  4 13  2  0  0  0  0
  4 14  1  0  0  0  0
  5 13  1  0  0  0  0
  6  2  2  0  0  0  0
  7  9  2  0  0  0  0
 10  8  1  0  0  0  0
 11  9  1  0  0  0  0
 11 16  2  0  0  0  0
 12  1  1  0  0  0  0
 13  7  1  0  0  0  0
 14 11  1  0  0  0  0
 15 21  1  0  0  0  0
 15 20  1  0  0  0  0
 16  3  1  0  0  0  0
 17 10  2  0  0  0  0
 18 14  2  0  0  0  0
 18  6  1  0  0  0  0
 19 10  1  0  0  0  0
 20 19  2  0  0  0  0
 21 17  1  0  0  0  0
 22 26  2  0  0  0  0
 22 25  1  0  0  0  0
 23 12  1  0  0  0  0
 24 23  1  0  0  0  0
 25 24  2  0  0  0  0
 26 27  1  0  0  0  0
 27 23  2  0  0  0  0
M  END
>  <MODEL>
9

>  <REMARK>
 VINA RESULT:      -8.2      3.268      6.541
  Name = 
  1 active torsions:
  status: ('A' for Active; 'I' for Inactive)
    1  A    between atoms: C_9  and  N_15
                            x       y       z     vdW  Elec       q    Type
                         _______ _______ _______ _____ _____    ______ ____

>  <TORSDO>
F 1

$$$$
