=
 OpenBabel10262419453D

 25 27  0  0  1  0  0  0  0  0999 V2000
  187.0430  177.4430  145.0810 C   0  0  1  0  0  3  0  0  0  0  0  0
  188.5040  177.7390  144.6800 C   0  0  2  0  0  3  0  0  0  0  0  0
  187.8750  177.7130  147.4620 C   0  0  0  0  0  2  0  0  0  0  0  0
  189.2350  177.2960  146.9990 C   0  0  0  0  0  3  0  0  0  0  0  0
  190.9130  176.9650  145.2760 C   0  0  0  0  0  0  0  0  0  0  0  0
  191.8860  177.2260  146.0350 O   0  0  0  0  0  0  0  0  0  0  0  0
  188.7540  177.2410  143.2550 C   0  0  0  0  0  2  0  0  0  0  0  0
  186.8230  177.0750  146.5630 C   0  0  0  0  0  2  0  0  0  0  0  0
  191.2310  176.2490  143.6660 S   0  0  0  0  0  0  0  0  0  0  0  0
  190.1970  177.4780  142.8270 C   0  0  1  0  0  3  0  0  0  0  0  0
  189.5330  177.2670  145.6960 C   0  0  0  0  0  0  0  0  0  0  0  0
  186.0870  178.5350  144.5850 C   0  0  2  0  0  3  0  0  0  0  0  0
  183.2800  178.7910  143.7230 C   0  0  0  0  0  2  0  0  0  0  0  0
  184.9600  178.8460  145.5590 C   0  0  0  0  0  0  0  0  0  0  0  0
  183.6980  179.0040  145.1480 C   0  0  0  0  0  3  0  0  0  0  0  0
  184.4310  179.0840  142.7700 C   0  0  0  0  0  2  0  0  0  0  0  0
  185.2510  179.0580  146.9000 O   0  0  0  0  0  1  0  0  0  0  0  0
  185.6130  178.2090  143.1630 C   0  0  0  0  0  2  0  0  0  0  0  0
  190.3270  177.2990  141.3510 C   0  0  0  0  0  3  0  0  0  0  0  0
  189.5340  177.9640  140.5110 C   0  0  0  0  0  3  0  0  0  0  0  0
  189.6630  177.7860  139.0320 C   0  0  1  0  0  3  0  0  0  0  0  0
  189.4740  176.3250  138.6770 C   0  0  0  0  0  1  0  0  0  0  0  0
  188.6630  178.6230  138.3010 C   0  0  0  0  0  0  0  0  0  0  0  0
  187.3020  178.4750  138.5480 O   0  0  0  0  0  1  0  0  0  0  0  0
  189.0550  179.4680  137.4560 O   0  0  0  0  0  0  0  0  0  0  0  0
  1  8  1  1  0  0  0
  2  7  1  6  0  0  0
  2  1  1  0  0  0  0
  2 11  1  0  0  0  0
  4  3  1  0  0  0  0
  5 11  1  0  0  0  0
  5  6  2  0  0  0  0
  8  3  1  0  0  0  0
  9  5  1  0  0  0  0
 10 19  1  6  0  0  0
 10  7  1  0  0  0  0
 10  9  1  0  0  0  0
 11  4  2  0  0  0  0
 12 18  1  6  0  0  0
 12  1  1  0  0  0  0
 12 14  1  0  0  0  0
 13 15  1  0  0  0  0
 14 17  1  0  0  0  0
 15 14  2  0  0  0  0
 16 18  1  0  0  0  0
 16 13  1  0  0  0  0
 20 19  2  0  0  0  0
 21 22  1  1  0  0  0
 21 20  1  0  0  0  0
 23 24  1  0  0  0  0
 23 21  1  0  0  0  0
 25 23  2  0  0  0  0
M  END
>  <MODEL>
1

>  <REMARK>
 VINA RESULT:     -10.1      0.000      0.000
  Name = 
  4 active torsions:
  status: ('A' for Active; 'I' for Inactive)
    1  A    between atoms: C_1  and  C_5
    2  A    between atoms: C_2  and  C_21
    3  A    between atoms: C_6  and  C_23
    4  A    between atoms: C_15  and  C_21
                            x       y       z     vdW  Elec       q    Type
                         _______ _______ _______ _____ _____    ______ ____

>  <TORSDO>
F 4

$$$$
=
 OpenBabel10262419453D

 25 27  0  0  1  0  0  0  0  0999 V2000
  187.0920  177.4830  145.2810 C   0  0  1  0  0  3  0  0  0  0  0  0
  188.5310  177.6640  144.7500 C   0  0  2  0  0  3  0  0  0  0  0  0
  188.0910  178.0670  147.5390 C   0  0  0  0  0  2  0  0  0  0  0  0
  189.4040  177.5380  147.0590 C   0  0  0  0  0  3  0  0  0  0  0  0
  190.9540  176.8990  145.3020 C   0  0  0  0  0  0  0  0  0  0  0  0
  191.9810  177.2310  145.9510 O   0  0  0  0  0  0  0  0  0  0  0  0
  188.6710  176.9550  143.4020 C   0  0  0  0  0  2  0  0  0  0  0  0
  186.9640  177.3440  146.8120 C   0  0  0  0  0  2  0  0  0  0  0  0
  191.1420  175.9440  143.7980 S   0  0  0  0  0  0  0  0  0  0  0  0
  190.0870  177.0750  142.8530 C   0  0  1  0  0  3  0  0  0  0  0  0
  189.6130  177.3080  145.7580 C   0  0  0  0  0  0  0  0  0  0  0  0
  186.1350  178.5250  144.6910 C   0  0  2  0  0  3  0  0  0  0  0  0
  183.3570  178.6740  143.7140 C   0  0  0  0  0  2  0  0  0  0  0  0
  184.9670  178.8670  145.6040 C   0  0  0  0  0  0  0  0  0  0  0  0
  183.7180  178.9740  145.1390 C   0  0  0  0  0  3  0  0  0  0  0  0
  184.5370  178.9360  142.7890 C   0  0  0  0  0  2  0  0  0  0  0  0
  185.2040  179.1590  146.9410 O   0  0  0  0  0  1  0  0  0  0  0  0
  185.7200  178.1110  143.2730 C   0  0  0  0  0  2  0  0  0  0  0  0
  190.1120  176.6770  141.4150 C   0  0  0  0  0  3  0  0  0  0  0  0
  189.5100  177.4250  140.4910 C   0  0  0  0  0  3  0  0  0  0  0  0
  189.5350  177.0290  139.0480 C   0  0  1  0  0  3  0  0  0  0  0  0
  189.3780  178.2620  138.1800 C   0  0  0  0  0  1  0  0  0  0  0  0
  190.8070  176.3230  138.7070 C   0  0  0  0  0  0  0  0  0  0  0  0
  190.8020  174.9690  138.3880 O   0  0  0  0  0  0  0  0  0  0  0  0
  191.8930  176.9590  138.7080 O   0  0  0  0  0  1  0  0  0  0  0  0
  1  8  1  1  0  0  0
  2  7  1  6  0  0  0
  2  1  1  0  0  0  0
  2 11  1  0  0  0  0
  4  3  1  0  0  0  0
  5 11  1  0  0  0  0
  5  6  2  0  0  0  0
  8  3  1  0  0  0  0
  9  5  1  0  0  0  0
 10 19  1  6  0  0  0
 10  7  1  0  0  0  0
 10  9  1  0  0  0  0
 11  4  2  0  0  0  0
 12 18  1  6  0  0  0
 12  1  1  0  0  0  0
 12 14  1  0  0  0  0
 13 15  1  0  0  0  0
 14 17  1  0  0  0  0
 15 14  2  0  0  0  0
 16 18  1  0  0  0  0
 16 13  1  0  0  0  0
 20 19  2  0  0  0  0
 21 22  1  6  0  0  0
 21 20  1  0  0  0  0
 23 25  1  0  0  0  0
 23 21  1  0  0  0  0
 24 23  2  0  0  0  0
M  END
>  <MODEL>
2

>  <REMARK>
 VINA RESULT:     -10.1      1.340      1.509
  Name = 
  4 active torsions:
  status: ('A' for Active; 'I' for Inactive)
    1  A    between atoms: C_1  and  C_5
    2  A    between atoms: C_2  and  C_21
    3  A    between atoms: C_6  and  C_23
    4  A    between atoms: C_15  and  C_21
                            x       y       z     vdW  Elec       q    Type
                         _______ _______ _______ _____ _____    ______ ____

>  <TORSDO>
F 4

$$$$
=
 OpenBabel10262419453D

 25 27  0  0  1  0  0  0  0  0999 V2000
  186.7460  177.5100  144.7090 C   0  0  1  0  0  3  0  0  0  0  0  0
  188.0850  177.8230  144.0070 C   0  0  2  0  0  3  0  0  0  0  0  0
  188.0460  177.8660  146.8590 C   0  0  0  0  0  2  0  0  0  0  0  0
  189.2910  177.4640  146.1340 C   0  0  0  0  0  3  0  0  0  0  0  0
  190.5850  177.1160  144.1100 C   0  0  0  0  0  0  0  0  0  0  0  0
  191.6860  177.4180  144.6430 O   0  0  0  0  0  0  0  0  0  0  0  0
  188.0490  177.2890  142.5740 C   0  0  0  0  0  2  0  0  0  0  0  0
  186.8480  177.1810  146.2130 C   0  0  0  0  0  2  0  0  0  0  0  0
  190.5810  176.3600  142.4860 S   0  0  0  0  0  0  0  0  0  0  0  0
  189.3650  177.5430  141.8500 C   0  0  1  0  0  3  0  0  0  0  0  0
  189.3140  177.4020  144.7990 C   0  0  0  0  0  0  0  0  0  0  0  0
  185.6810  178.5670  144.3960 C   0  0  2  0  0  3  0  0  0  0  0  0
  182.7600  178.7220  144.0310 C   0  0  0  0  0  2  0  0  0  0  0  0
  184.7280  178.8330  145.5520 C   0  0  0  0  0  0  0  0  0  0  0  0
  183.4090  178.9450  145.3650 C   0  0  0  0  0  3  0  0  0  0  0  0
  183.7190  179.0600  142.8980 C   0  0  0  0  0  2  0  0  0  0  0  0
  185.2380  179.0500  146.8250 O   0  0  0  0  0  1  0  0  0  0  0  0
  184.9820  178.2290  143.0730 C   0  0  0  0  0  2  0  0  0  0  0  0
  189.1920  177.3230  140.3840 C   0  0  0  0  0  3  0  0  0  0  0  0
  188.1500  177.8430  139.7360 C   0  0  0  0  0  3  0  0  0  0  0  0
  187.9740  177.6240  138.2660 C   0  0  1  0  0  3  0  0  0  0  0  0
  186.5730  178.0320  137.8550 C   0  0  0  0  0  1  0  0  0  0  0  0
  188.9820  178.4020  137.4840 C   0  0  0  0  0  0  0  0  0  0  0  0
  189.8830  177.7520  136.6460 O   0  0  0  0  0  0  0  0  0  0  0  0
  189.0170  179.6560  137.5830 O   0  0  0  0  0  1  0  0  0  0  0  0
  1  8  1  1  0  0  0
  2  7  1  6  0  0  0
  2  1  1  0  0  0  0
  2 11  1  0  0  0  0
  4  3  1  0  0  0  0
  5  6  2  0  0  0  0
  5 11  1  0  0  0  0
  8  3  1  0  0  0  0
  9  5  1  0  0  0  0
 10 19  1  6  0  0  0
 10  9  1  0  0  0  0
 10  7  1  0  0  0  0
 11  4  2  0  0  0  0
 12 18  1  6  0  0  0
 12  1  1  0  0  0  0
 12 14  1  0  0  0  0
 13 15  1  0  0  0  0
 14 17  1  0  0  0  0
 15 14  2  0  0  0  0
 16 18  1  0  0  0  0
 16 13  1  0  0  0  0
 20 19  2  0  0  0  0
 21 22  1  6  0  0  0
 21 20  1  0  0  0  0
 23 25  1  0  0  0  0
 23 21  1  0  0  0  0
 24 23  2  0  0  0  0
M  END
>  <MODEL>
3

>  <REMARK>
 VINA RESULT:      -9.8      1.026      1.336
  Name = 
  4 active torsions:
  status: ('A' for Active; 'I' for Inactive)
    1  A    between atoms: C_1  and  C_5
    2  A    between atoms: C_2  and  C_21
    3  A    between atoms: C_6  and  C_23
    4  A    between atoms: C_15  and  C_21
                            x       y       z     vdW  Elec       q    Type
                         _______ _______ _______ _____ _____    ______ ____

>  <TORSDO>
F 4

$$$$
=
 OpenBabel10262419453D

 25 27  0  0  1  0  0  0  0  0999 V2000
  188.9550  178.1100  145.3110 C   0  0  1  0  0  3  0  0  0  0  0  0
  187.4440  177.8230  145.1750 C   0  0  2  0  0  3  0  0  0  0  0  0
  188.6280  177.4840  147.7480 C   0  0  0  0  0  2  0  0  0  0  0  0
  187.2010  177.9140  147.6330 C   0  0  0  0  0  3  0  0  0  0  0  0
  185.2040  178.4230  146.3490 C   0  0  0  0  0  0  0  0  0  0  0  0
  184.4080  178.0270  147.2430 O   0  0  0  0  0  0  0  0  0  0  0  0
  186.9050  178.5050  143.9160 C   0  0  0  0  0  2  0  0  0  0  0  0
  189.4710  178.2760  146.7550 C   0  0  0  0  0  2  0  0  0  0  0  0
  184.5600  179.3450  144.9550 S   0  0  0  0  0  0  0  0  0  0  0  0
  185.4070  178.2800  143.7580 C   0  0  1  0  0  3  0  0  0  0  0  0
  186.6420  178.1140  146.4350 C   0  0  0  0  0  0  0  0  0  0  0  0
  189.7950  177.1310  144.4830 C   0  0  2  0  0  3  0  0  0  0  0  0
  190.3600  176.5520  141.6480 C   0  0  0  0  0  2  0  0  0  0  0  0
  190.9360  177.7950  143.7270 C   0  0  0  0  0  0  0  0  0  0  0  0
  191.2090  177.4900  142.4540 C   0  0  0  0  0  3  0  0  0  0  0  0
  189.6820  175.5260  142.5460 C   0  0  0  0  0  2  0  0  0  0  0  0
  191.7760  178.6800  144.3900 O   0  0  0  0  0  1  0  0  0  0  0  0
  188.8790  176.2700  143.6030 C   0  0  0  0  0  2  0  0  0  0  0  0
  184.9770  178.6580  142.3800 C   0  0  0  0  0  3  0  0  0  0  0  0
  184.2410  177.8260  141.6440 C   0  0  0  0  0  3  0  0  0  0  0  0
  183.8080  178.2030  140.2620 C   0  0  1  0  0  3  0  0  0  0  0  0
  182.4760  178.9240  140.3260 C   0  0  0  0  0  1  0  0  0  0  0  0
  184.8270  179.0710  139.5980 C   0  0  0  0  0  0  0  0  0  0  0  0
  186.1160  178.6010  139.3700 O   0  0  0  0  0  1  0  0  0  0  0  0
  184.5160  180.2370  139.2410 O   0  0  0  0  0  0  0  0  0  0  0  0
  1  8  1  1  0  0  0
  2  7  1  6  0  0  0
  2  1  1  0  0  0  0
  2 11  1  0  0  0  0
  4  3  1  0  0  0  0
  5 11  1  0  0  0  0
  5  6  2  0  0  0  0
  8  3  1  0  0  0  0
  9  5  1  0  0  0  0
 10 19  1  6  0  0  0
 10  7  1  0  0  0  0
 10  9  1  0  0  0  0
 11  4  2  0  0  0  0
 12 18  1  6  0  0  0
 12  1  1  0  0  0  0
 13 15  1  0  0  0  0
 13 16  1  0  0  0  0
 14 17  1  0  0  0  0
 14 12  1  0  0  0  0
 15 14  2  0  0  0  0
 16 18  1  0  0  0  0
 20 19  2  0  0  0  0
 21 22  1  1  0  0  0
 21 20  1  0  0  0  0
 23 21  1  0  0  0  0
 24 23  1  0  0  0  0
 25 23  2  0  0  0  0
M  END
>  <MODEL>
4

>  <REMARK>
 VINA RESULT:      -9.1      2.351      5.263
  Name = 
  4 active torsions:
  status: ('A' for Active; 'I' for Inactive)
    1  A    between atoms: C_1  and  C_5
    2  A    between atoms: C_2  and  C_21
    3  A    between atoms: C_6  and  C_23
    4  A    between atoms: C_15  and  C_21
                            x       y       z     vdW  Elec       q    Type
                         _______ _______ _______ _____ _____    ______ ____

>  <TORSDO>
F 4

$$$$
=
 OpenBabel10262419453D

 25 27  0  0  1  0  0  0  0  0999 V2000
  189.3620  176.8710  143.7230 C   0  0  1  0  0  3  0  0  0  0  0  0
  188.9400  177.8390  142.5960 C   0  0  2  0  0  3  0  0  0  0  0  0
  191.6210  176.8630  142.5660 C   0  0  0  0  0  2  0  0  0  0  0  0
  190.9270  177.1800  141.2810 C   0  0  0  0  0  3  0  0  0  0  0  0
  189.0400  178.0190  140.0040 C   0  0  0  0  0  0  0  0  0  0  0  0
  189.7480  178.4630  139.0610 O   0  0  0  0  0  0  0  0  0  0  0  0
  187.4150  177.8620  142.4860 C   0  0  0  0  0  2  0  0  0  0  0  0
  190.6680  176.0900  143.4710 C   0  0  0  0  0  2  0  0  0  0  0  0
  187.2640  177.9240  139.7910 S   0  0  0  0  0  0  0  0  0  0  0  0
  186.9510  178.7770  141.3600 C   0  0  1  0  0  3  0  0  0  0  0  0
  189.6590  177.6030  141.2750 C   0  0  0  0  0  0  0  0  0  0  0  0
  189.3240  177.5500  145.0960 C   0  0  2  0  0  3  0  0  0  0  0  0
  188.6780  176.8580  147.8880 C   0  0  0  0  0  2  0  0  0  0  0  0
  190.3680  177.0210  146.0670 C   0  0  0  0  0  0  0  0  0  0  0  0
  190.0720  176.7530  147.3440 C   0  0  0  0  0  3  0  0  0  0  0  0
  187.8740  177.9010  147.1250 C   0  0  0  0  0  2  0  0  0  0  0  0
  191.6870  176.8900  145.6520 O   0  0  0  0  0  1  0  0  0  0  0  0
  187.8920  177.5350  145.6480 C   0  0  0  0  0  2  0  0  0  0  0  0
  185.4870  179.0400  141.4870 C   0  0  0  0  0  3  0  0  0  0  0  0
  184.9010  179.0630  142.6840 C   0  0  0  0  0  3  0  0  0  0  0  0
  183.4340  179.3280  142.8150 C   0  0  1  0  0  3  0  0  0  0  0  0
  182.6790  178.5310  141.7700 C   0  0  0  0  0  1  0  0  0  0  0  0
  182.9440  178.9730  144.1810 C   0  0  0  0  0  0  0  0  0  0  0  0
  183.7680  179.1270  145.2910 O   0  0  0  0  0  1  0  0  0  0  0  0
  181.7760  178.5290  144.3280 O   0  0  0  0  0  0  0  0  0  0  0  0
  1  8  1  6  0  0  0
  1 12  1  0  0  0  0
  2  7  1  6  0  0  0
  2  1  1  0  0  0  0
  3  8  1  0  0  0  0
  4  3  1  0  0  0  0
  5 11  1  0  0  0  0
  6  5  2  0  0  0  0
  9  5  1  0  0  0  0
  9 10  1  0  0  0  0
 10 19  1  1  0  0  0
 10  7  1  0  0  0  0
 11  4  2  0  0  0  0
 11  2  1  0  0  0  0
 12 18  1  1  0  0  0
 12 14  1  0  0  0  0
 14 15  2  0  0  0  0
 15 13  1  0  0  0  0
 16 13  1  0  0  0  0
 17 14  1  0  0  0  0
 18 16  1  0  0  0  0
 19 20  2  0  0  0  0
 20 21  1  0  0  0  0
 21 22  1  6  0  0  0
 21 23  1  0  0  0  0
 23 25  2  0  0  0  0
 23 24  1  0  0  0  0
M  END
>  <MODEL>
5

>  <REMARK>
 VINA RESULT:      -8.9      1.913      6.010
  Name = 
  4 active torsions:
  status: ('A' for Active; 'I' for Inactive)
    1  A    between atoms: C_1  and  C_5
    2  A    between atoms: C_2  and  C_21
    3  A    between atoms: C_6  and  C_23
    4  A    between atoms: C_15  and  C_21
                            x       y       z     vdW  Elec       q    Type
                         _______ _______ _______ _____ _____    ______ ____

>  <TORSDO>
F 4

$$$$
=
 OpenBabel10262419453D

 25 27  0  0  1  0  0  0  0  0999 V2000
  187.6570  177.2800  144.0110 C   0  0  1  0  0  3  0  0  0  0  0  0
  186.7380  178.2300  143.2130 C   0  0  2  0  0  3  0  0  0  0  0  0
  189.2850  177.6040  142.0920 C   0  0  0  0  0  2  0  0  0  0  0  0
  188.1220  177.8810  141.1950 C   0  0  0  0  0  3  0  0  0  0  0  0
  185.8140  178.5230  140.8010 C   0  0  0  0  0  0  0  0  0  0  0  0
  186.0560  179.0910  139.7020 O   0  0  0  0  0  0  0  0  0  0  0  0
  185.2940  178.0630  143.6890 C   0  0  0  0  0  2  0  0  0  0  0  0
  188.8390  176.6810  143.2200 C   0  0  0  0  0  2  0  0  0  0  0  0
  184.1120  178.2130  141.2660 S   0  0  0  0  0  0  0  0  0  0  0  0
  184.3410  178.9550  142.9040 C   0  0  1  0  0  3  0  0  0  0  0  0
  186.9130  178.1390  141.7040 C   0  0  0  0  0  0  0  0  0  0  0  0
  188.0810  177.8940  145.3500 C   0  0  2  0  0  3  0  0  0  0  0  0
  188.2470  177.1110  148.1880 C   0  0  0  0  0  2  0  0  0  0  0  0
  189.3250  177.2540  145.9480 C   0  0  0  0  0  0  0  0  0  0  0  0
  189.4040  176.9450  147.2460 C   0  0  0  0  0  3  0  0  0  0  0  0
  187.3320  178.2380  147.7290 C   0  0  0  0  0  2  0  0  0  0  0  0
  190.4460  177.0600  145.1520 O   0  0  0  0  0  1  0  0  0  0  0  0
  186.8810  177.9420  146.3070 C   0  0  0  0  0  2  0  0  0  0  0  0
  183.0210  179.0260  143.5950 C   0  0  0  0  0  3  0  0  0  0  0  0
  181.8940  179.1780  142.8990 C   0  0  0  0  0  3  0  0  0  0  0  0
  180.5690  179.2480  143.5900 C   0  0  1  0  0  3  0  0  0  0  0  0
  179.7310  180.3470  142.9690 C   0  0  0  0  0  1  0  0  0  0  0  0
  179.8470  177.9430  143.5000 C   0  0  0  0  0  0  0  0  0  0  0  0
  179.6720  177.1510  144.6310 O   0  0  0  0  0  1  0  0  0  0  0  0
  179.3930  177.5560  142.3920 O   0  0  0  0  0  0  0  0  0  0  0  0
  1  8  1  6  0  0  0
  1 12  1  0  0  0  0
  2  7  1  6  0  0  0
  2  1  1  0  0  0  0
  3  8  1  0  0  0  0
  4 11  2  0  0  0  0
  4  3  1  0  0  0  0
  5  9  1  0  0  0  0
  5 11  1  0  0  0  0
  6  5  2  0  0  0  0
  9 10  1  0  0  0  0
 10 19  1  1  0  0  0
 10  7  1  0  0  0  0
 11  2  1  0  0  0  0
 12 14  1  0  0  0  0
 12 18  1  1  0  0  0
 14 15  2  0  0  0  0
 15 13  1  0  0  0  0
 16 13  1  0  0  0  0
 17 14  1  0  0  0  0
 18 16  1  0  0  0  0
 20 21  1  0  0  0  0
 20 19  2  0  0  0  0
 21 22  1  6  0  0  0
 23 21  1  0  0  0  0
 23 24  1  0  0  0  0
 25 23  2  0  0  0  0
M  END
>  <MODEL>
6

>  <REMARK>
 VINA RESULT:      -8.8      2.981      7.009
  Name = 
  4 active torsions:
  status: ('A' for Active; 'I' for Inactive)
    1  A    between atoms: C_1  and  C_5
    2  A    between atoms: C_2  and  C_21
    3  A    between atoms: C_6  and  C_23
    4  A    between atoms: C_15  and  C_21
                            x       y       z     vdW  Elec       q    Type
                         _______ _______ _______ _____ _____    ______ ____

>  <TORSDO>
F 4

$$$$
=
 OpenBabel10262419453D

 25 27  0  0  1  0  0  0  0  0999 V2000
  187.8480  178.0960  145.3900 C   0  0  1  0  0  3  0  0  0  0  0  0
  186.9990  177.8150  144.1310 C   0  0  2  0  0  3  0  0  0  0  0  0
  185.6600  177.8480  146.6500 C   0  0  0  0  0  2  0  0  0  0  0  0
  184.9370  178.2780  145.4140 C   0  0  0  0  0  3  0  0  0  0  0  0
  184.7930  178.6190  143.0140 C   0  0  0  0  0  0  0  0  0  0  0  0
  183.5580  178.3740  142.9530 O   0  0  0  0  0  0  0  0  0  0  0  0
  187.7450  178.3080  142.8900 C   0  0  0  0  0  2  0  0  0  0  0  0
  187.0510  178.4690  146.6570 C   0  0  0  0  0  2  0  0  0  0  0  0
  185.6130  179.3310  141.5890 S   0  0  0  0  0  0  0  0  0  0  0  0
  186.9290  178.0850  141.6240 C   0  0  1  0  0  3  0  0  0  0  0  0
  185.5610  178.3040  144.2320 C   0  0  0  0  0  0  0  0  0  0  0  0
  188.8820  176.9910  145.6340 C   0  0  2  0  0  3  0  0  0  0  0  0
  191.7310  176.7480  146.3530 C   0  0  0  0  0  2  0  0  0  0  0  0
  189.3540  176.9070  147.0780 C   0  0  0  0  0  0  0  0  0  0  0  0
  190.6460  176.7520  147.3890 C   0  0  0  0  0  3  0  0  0  0  0  0
  191.2040  176.2400  145.0180 C   0  0  0  0  0  2  0  0  0  0  0  0
  188.4210  176.9040  148.1060 O   0  0  0  0  0  1  0  0  0  0  0  0
  190.0190  177.1020  144.6090 C   0  0  0  0  0  2  0  0  0  0  0  0
  187.7950  178.2590  140.4210 C   0  0  0  0  0  3  0  0  0  0  0  0
  188.9840  177.6610  140.3460 C   0  0  0  0  0  3  0  0  0  0  0  0
  189.8540  177.8320  139.1410 C   0  0  1  0  0  3  0  0  0  0  0  0
  190.5820  176.5350  138.8520 C   0  0  0  0  0  1  0  0  0  0  0  0
  189.0490  178.2420  137.9510 C   0  0  0  0  0  0  0  0  0  0  0  0
  188.9820  179.5780  137.5680 O   0  0  0  0  0  1  0  0  0  0  0  0
  188.4250  177.3720  137.2900 O   0  0  0  0  0  0  0  0  0  0  0  0
  1 12  1  0  0  0  0
  1  8  1  1  0  0  0
  2  7  1  6  0  0  0
  2 11  1  0  0  0  0
  2  1  1  0  0  0  0
  3  8  1  0  0  0  0
  4  3  1  0  0  0  0
  5 11  1  0  0  0  0
  6  5  2  0  0  0  0
  9 10  1  0  0  0  0
  9  5  1  0  0  0  0
 10 19  1  6  0  0  0
 10  7  1  0  0  0  0
 11  4  2  0  0  0  0
 12 18  1  6  0  0  0
 12 14  1  0  0  0  0
 13 15  1  0  0  0  0
 14 15  2  0  0  0  0
 14 17  1  0  0  0  0
 16 13  1  0  0  0  0
 18 16  1  0  0  0  0
 20 19  2  0  0  0  0
 21 22  1  6  0  0  0
 21 20  1  0  0  0  0
 23 21  1  0  0  0  0
 24 23  1  0  0  0  0
 25 23  2  0  0  0  0
M  END
>  <MODEL>
7

>  <REMARK>
 VINA RESULT:      -8.7      2.101      4.620
  Name = 
  4 active torsions:
  status: ('A' for Active; 'I' for Inactive)
    1  A    between atoms: C_1  and  C_5
    2  A    between atoms: C_2  and  C_21
    3  A    between atoms: C_6  and  C_23
    4  A    between atoms: C_15  and  C_21
                            x       y       z     vdW  Elec       q    Type
                         _______ _______ _______ _____ _____    ______ ____

>  <TORSDO>
F 4

$$$$
=
 OpenBabel10262419453D

 25 27  0  0  1  0  0  0  0  0999 V2000
  185.0730  178.8590  143.9460 C   0  0  1  0  0  3  0  0  0  0  0  0
  184.7670  178.3380  142.5250 C   0  0  2  0  0  3  0  0  0  0  0  0
  182.5750  178.6290  144.3270 C   0  0  0  0  0  2  0  0  0  0  0  0
  182.3660  178.8220  142.8590 C   0  0  0  0  0  3  0  0  0  0  0  0
  183.1340  178.8050  140.5560 C   0  0  0  0  0  0  0  0  0  0  0  0
  182.0180  178.4620  140.0820 O   0  0  0  0  0  0  0  0  0  0  0  0
  185.9180  178.7030  141.5870 C   0  0  0  0  0  2  0  0  0  0  0  0
  183.8510  179.3480  144.7500 C   0  0  0  0  0  2  0  0  0  0  0  0
  184.4200  179.3660  139.4420 S   0  0  0  0  0  0  0  0  0  0  0  0
  185.6450  178.2410  140.1620 C   0  0  1  0  0  3  0  0  0  0  0  0
  183.3900  178.7260  142.0050 C   0  0  0  0  0  0  0  0  0  0  0  0
  185.9550  177.8810  144.7300 C   0  0  2  0  0  3  0  0  0  0  0  0
  188.5440  177.8820  146.1400 C   0  0  0  0  0  2  0  0  0  0  0  0
  186.0790  178.2210  146.2070 C   0  0  0  0  0  0  0  0  0  0  0  0
  187.2530  178.1750  146.8450 C   0  0  0  0  0  3  0  0  0  0  0  0
  188.3080  177.0050  144.9180 C   0  0  0  0  0  2  0  0  0  0  0  0
  184.9360  178.5080  146.9440 O   0  0  0  0  0  1  0  0  0  0  0  0
  187.3010  177.7010  144.0150 C   0  0  0  0  0  2  0  0  0  0  0  0
  186.8990  178.3060  139.3550 C   0  0  0  0  0  3  0  0  0  0  0  0
  188.0930  178.2440  139.9450 C   0  0  0  0  0  3  0  0  0  0  0  0
  189.3510  178.3080  139.1380 C   0  0  1  0  0  3  0  0  0  0  0  0
  190.1130  177.0060  139.2820 C   0  0  0  0  0  1  0  0  0  0  0  0
  189.0520  178.5680  137.6970 C   0  0  0  0  0  0  0  0  0  0  0  0
  188.8380  177.5130  136.8170 O   0  0  0  0  0  0  0  0  0  0  0  0
  188.9940  179.7530  137.2760 O   0  0  0  0  0  1  0  0  0  0  0  0
  1 12  1  0  0  0  0
  1  8  1  1  0  0  0
  2  7  1  6  0  0  0
  2  1  1  0  0  0  0
  3  8  1  0  0  0  0
  4  3  1  0  0  0  0
  5 11  1  0  0  0  0
  6  5  2  0  0  0  0
  9 10  1  0  0  0  0
  9  5  1  0  0  0  0
 10 19  1  6  0  0  0
 10  7  1  0  0  0  0
 11  2  1  0  0  0  0
 11  4  2  0  0  0  0
 12 18  1  6  0  0  0
 12 14  1  0  0  0  0
 13 15  1  0  0  0  0
 14 15  2  0  0  0  0
 14 17  1  0  0  0  0
 16 13  1  0  0  0  0
 18 16  1  0  0  0  0
 19 20  2  0  0  0  0
 21 22  1  6  0  0  0
 21 20  1  0  0  0  0
 23 21  1  0  0  0  0
 24 23  2  0  0  0  0
 25 23  1  0  0  0  0
M  END
>  <MODEL>
8

>  <REMARK>
 VINA RESULT:      -8.7      2.615      5.088
  Name = 
  4 active torsions:
  status: ('A' for Active; 'I' for Inactive)
    1  A    between atoms: C_1  and  C_5
    2  A    between atoms: C_2  and  C_21
    3  A    between atoms: C_6  and  C_23
    4  A    between atoms: C_15  and  C_21
                            x       y       z     vdW  Elec       q    Type
                         _______ _______ _______ _____ _____    ______ ____

>  <TORSDO>
F 4

$$$$
=
 OpenBabel10262419453D

 25 27  0  0  1  0  0  0  0  0999 V2000
  185.3770  178.1290  142.5130 C   0  0  1  0  0  3  0  0  0  0  0  0
  186.0480  178.5140  143.8490 C   0  0  2  0  0  3  0  0  0  0  0  0
  183.3700  179.3950  143.4120 C   0  0  0  0  0  2  0  0  0  0  0  0
  183.8390  179.0890  144.7980 C   0  0  0  0  0  3  0  0  0  0  0  0
  185.5500  178.4570  146.4000 C   0  0  0  0  0  0  0  0  0  0  0  0
  185.0670  179.1460  147.3380 O   0  0  0  0  0  0  0  0  0  0  0  0
  187.2320  177.5830  144.1130 C   0  0  0  0  0  2  0  0  0  0  0  0
  183.8440  178.2960  142.4690 C   0  0  0  0  0  2  0  0  0  0  0  0
  186.8420  177.2700  146.7660 S   0  0  0  0  0  0  0  0  0  0  0  0
  187.9060  177.9020  145.4420 C   0  0  1  0  0  3  0  0  0  0  0  0
  185.0790  178.6390  145.0160 C   0  0  0  0  0  0  0  0  0  0  0  0
  186.0850  178.7740  141.3160 C   0  0  2  0  0  3  0  0  0  0  0  0
  187.2670  177.9560  138.7420 C   0  0  0  0  0  2  0  0  0  0  0  0
  185.2770  178.7220  140.0280 C   0  0  0  0  0  0  0  0  0  0  0  0
  185.8360  178.3920  138.8590 C   0  0  0  0  0  3  0  0  0  0  0  0
  188.1160  178.5810  139.8400 C   0  0  0  0  0  2  0  0  0  0  0  0
  183.9420  179.1060  140.0390 O   0  0  0  0  0  1  0  0  0  0  0  0
  187.5080  178.2130  141.1860 C   0  0  0  0  0  2  0  0  0  0  0  0
  189.2320  177.2210  145.5170 C   0  0  0  0  0  3  0  0  0  0  0  0
  190.3150  177.7770  144.9730 C   0  0  0  0  0  3  0  0  0  0  0  0
  191.6450  177.0970  145.0480 C   0  0  1  0  0  3  0  0  0  0  0  0
  191.7680  176.3640  146.3690 C   0  0  0  0  0  1  0  0  0  0  0  0
  191.8240  176.1400  143.9140 C   0  0  0  0  0  0  0  0  0  0  0  0
  191.6810  176.5660  142.5980 O   0  0  0  0  0  0  0  0  0  0  0  0
  192.1070  174.9370  144.1520 O   0  0  0  0  0  1  0  0  0  0  0  0
  1  8  1  1  0  0  0
  1  2  1  0  0  0  0
  2  7  1  1  0  0  0
  2 11  1  0  0  0  0
  3  4  1  0  0  0  0
  4 11  2  0  0  0  0
  5  9  1  0  0  0  0
  5  6  2  0  0  0  0
  7 10  1  0  0  0  0
  8  3  1  0  0  0  0
 10 19  1  6  0  0  0
 10  9  1  0  0  0  0
 11  5  1  0  0  0  0
 12 18  1  6  0  0  0
 12  1  1  0  0  0  0
 13 15  1  0  0  0  0
 13 16  1  0  0  0  0
 14 17  1  0  0  0  0
 14 12  1  0  0  0  0
 15 14  2  0  0  0  0
 16 18  1  0  0  0  0
 20 21  1  0  0  0  0
 20 19  2  0  0  0  0
 21 22  1  1  0  0  0
 23 25  1  0  0  0  0
 23 21  1  0  0  0  0
 24 23  2  0  0  0  0
M  END
>  <MODEL>
9

>  <REMARK>
 VINA RESULT:      -8.7      2.318      5.602
  Name = 
  4 active torsions:
  status: ('A' for Active; 'I' for Inactive)
    1  A    between atoms: C_1  and  C_5
    2  A    between atoms: C_2  and  C_21
    3  A    between atoms: C_6  and  C_23
    4  A    between atoms: C_15  and  C_21
                            x       y       z     vdW  Elec       q    Type
                         _______ _______ _______ _____ _____    ______ ____

>  <TORSDO>
F 4

$$$$
