=
 OpenBabel10252414493D

 34 40  0  0  1  0  0  0  0  0999 V2000
  184.9810  178.3610  143.4690 C   0  0  0  0  0  0  0  0  0  0  0  0
  185.3200  178.6030  141.0630 C   0  0  0  0  0  0  0  0  0  0  0  0
  187.1900  178.0660  142.5180 C   0  0  0  0  0  0  0  0  0  0  0  0
  189.3210  177.7730  141.4520 C   0  0  0  0  0  0  0  0  0  0  0  0
  183.1400  178.8930  142.0600 C   0  0  0  0  0  3  0  0  0  0  0  0
  183.9590  178.8810  140.9210 C   0  0  0  0  0  3  0  0  0  0  0  0
  187.4830  178.2890  140.1420 C   0  0  0  0  0  0  0  0  0  0  0  0
  185.8310  178.3440  142.3560 C   0  0  0  0  0  0  0  0  0  0  0  0
  190.1200  177.8140  139.8520 S   0  0  0  0  0  0  0  0  0  0  0  0
  183.6600  178.6360  143.2970 N   0  0  0  0  0  0  0  0  0  0  0  0
  187.7480  177.8050  143.7860 C   0  0  0  0  0  0  0  0  0  0  0  0
  185.5070  178.0920  144.7390 C   0  0  0  0  0  3  0  0  0  0  0  0
  186.1570  178.5730  139.9790 N   0  0  0  0  0  0  0  0  0  0  0  0
  189.9240  177.5070  142.6860 C   0  0  0  0  0  3  0  0  0  0  0  0
  189.1500  177.5220  143.8770 C   0  0  0  0  0  0  0  0  0  0  0  0
  188.4980  178.2170  139.0450 C   0  0  1  0  0  3  0  0  0  0  0  0
  187.9910  178.0440  141.3900 C   0  0  0  0  0  0  0  0  0  0  0  0
  186.8780  177.8130  144.8950 C   0  0  0  0  0  3  0  0  0  0  0  0
  189.9760  177.4020  147.5920 C   0  0  0  0  0  0  0  0  0  0  0  0
  191.2130  176.7550  147.5740 C   0  0  0  0  0  3  0  0  0  0  0  0
  189.8450  177.2450  145.1640 C   0  0  0  0  0  0  0  0  0  0  0  0
  191.7750  176.3580  146.3590 C   0  0  0  0  0  3  0  0  0  0  0  0
  189.2990  177.6480  146.3950 C   0  0  0  0  0  3  0  0  0  0  0  0
  191.0970  176.6040  145.1620 C   0  0  0  0  0  3  0  0  0  0  0  0
  189.4320  177.7920  148.7700 F   0  0  0  0  0  0  0  0  0  0  0  0
  188.1210  177.1190  138.0660 C   0  0  0  0  0  2  0  0  0  0  0  0
  189.1130  177.0430  137.0050 N   0  0  0  0  0  2  0  0  0  0  0  0
  190.4700  176.6090  134.5950 F   0  0  0  0  0  0  0  0  0  0  0  0
  189.9070  175.8750  136.7800 C   0  0  0  0  0  0  0  0  0  0  0  0
  190.9380  175.8910  135.6810 C   0  0  1  0  0  3  0  0  0  0  0  0
  191.6720  173.6460  136.4460 C   0  0  0  0  0  2  0  0  0  0  0  0
  190.5780  173.6890  137.4090 N   0  0  0  0  0  2  0  0  0  0  0  0
  189.7900  174.8440  137.5670 N   0  0  0  0  0  0  0  0  0  0  0  0
  191.2970  174.4780  135.2320 C   0  0  0  0  0  2  0  0  0  0  0  0
  1 12  1  0  0  0  0
  2  8  1  0  0  0  0
  3 11  2  0  0  0  0
  4 14  1  0  0  0  0
  5 10  2  0  0  0  0
  6  2  2  0  0  0  0
  6  5  1  0  0  0  0
  7 17  1  0  0  0  0
  8  3  1  0  0  0  0
  8  1  2  0  0  0  0
  9  4  1  0  0  0  0
 10  1  1  0  0  0  0
 11 15  1  0  0  0  0
 11 18  1  0  0  0  0
 12 18  2  0  0  0  0
 13  7  2  0  0  0  0
 13  2  1  0  0  0  0
 14 15  2  0  0  0  0
 15 21  1  0  0  0  0
 16 26  1  6  0  0  0
 16  9  1  0  0  0  0
 16  7  1  0  0  0  0
 17  4  2  0  0  0  0
 17  3  1  0  0  0  0
 19 25  1  0  0  0  0
 20 19  1  0  0  0  0
 21 23  1  0  0  0  0
 22 20  2  0  0  0  0
 23 19  2  0  0  0  0
 24 21  2  0  0  0  0
 24 22  1  0  0  0  0
 27 26  1  0  0  0  0
 29 27  1  0  0  0  0
 29 33  2  0  0  0  0
 30 28  1  6  0  0  0
 30 29  1  0  0  0  0
 31 32  1  0  0  0  0
 32 33  1  0  0  0  0
 34 30  1  0  0  0  0
 34 31  1  0  0  0  0
M  END
>  <MODEL>
1

>  <REMARK>
 VINA RESULT:     -11.2      0.000      0.000
  Name = 
  3 active torsions:
  status: ('A' for Active; 'I' for Inactive)
    1  A    between atoms: N_3  and  C_17
    2  A    between atoms: C_12  and  C_28
    3  A    between atoms: C_17  and  C_29
                            x       y       z     vdW  Elec       q    Type
                         _______ _______ _______ _____ _____    ______ ____

>  <TORSDO>
F 3

$$$$
=
 OpenBabel10252414493D

 34 40  0  0  1  0  0  0  0  0999 V2000
  183.9160  178.7040  142.5310 C   0  0  0  0  0  0  0  0  0  0  0  0
  184.8580  178.7110  140.2780 C   0  0  0  0  0  0  0  0  0  0  0  0
  186.2840  178.3050  142.2030 C   0  0  0  0  0  0  0  0  0  0  0  0
  188.6050  177.8970  141.7440 C   0  0  0  0  0  0  0  0  0  0  0  0
  182.5070  179.1090  140.6580 C   0  0  0  0  0  3  0  0  0  0  0  0
  183.5860  178.9810  139.7700 C   0  0  0  0  0  3  0  0  0  0  0  0
  187.1730  178.2950  139.9690 C   0  0  0  0  0  0  0  0  0  0  0  0
  185.0180  178.5740  141.6760 C   0  0  0  0  0  0  0  0  0  0  0  0
  189.7820  177.7780  140.4040 S   0  0  0  0  0  0  0  0  0  0  0  0
  182.6900  178.9680  142.0040 N   0  0  0  0  0  0  0  0  0  0  0  0
  186.4960  178.1640  143.5900 C   0  0  0  0  0  0  0  0  0  0  0  0
  184.0970  178.5550  143.9120 C   0  0  0  0  0  3  0  0  0  0  0  0
  185.9400  178.5710  139.4490 N   0  0  0  0  0  0  0  0  0  0  0  0
  188.8680  177.7480  143.1100 C   0  0  0  0  0  3  0  0  0  0  0  0
  187.8190  177.8830  144.0590 C   0  0  0  0  0  0  0  0  0  0  0  0
  188.4280  178.1120  139.1780 C   0  0  1  0  0  3  0  0  0  0  0  0
  187.3420  178.1690  141.3230 C   0  0  0  0  0  0  0  0  0  0  0  0
  185.3750  178.2840  144.4360 C   0  0  0  0  0  3  0  0  0  0  0  0
  189.6790  177.0160  147.2670 C   0  0  0  0  0  0  0  0  0  0  0  0
  188.7450  177.3950  148.2330 C   0  0  0  0  0  3  0  0  0  0  0  0
  188.1590  177.7270  145.5010 C   0  0  0  0  0  0  0  0  0  0  0  0
  187.5160  177.9310  147.8430 C   0  0  0  0  0  3  0  0  0  0  0  0
  189.3860  177.1780  145.9100 C   0  0  0  0  0  3  0  0  0  0  0  0
  187.2240  178.0940  146.4850 C   0  0  0  0  0  3  0  0  0  0  0  0
  190.8690  176.4910  147.6440 F   0  0  0  0  0  0  0  0  0  0  0  0
  188.2780  176.9270  138.2400 C   0  0  0  0  0  2  0  0  0  0  0  0
  189.2660  177.0100  137.1760 N   0  0  0  0  0  2  0  0  0  0  0  0
  190.6940  176.7500  134.7820 F   0  0  0  0  0  0  0  0  0  0  0  0
  190.2970  176.0340  137.0090 C   0  0  0  0  0  0  0  0  0  0  0  0
  191.3040  176.2140  135.9020 C   0  0  1  0  0  3  0  0  0  0  0  0
  192.5100  174.2310  136.7840 C   0  0  0  0  0  2  0  0  0  0  0  0
  191.4290  174.0870  137.7530 N   0  0  0  0  0  2  0  0  0  0  0  0
  190.4060  175.0480  137.8530 N   0  0  0  0  0  0  0  0  0  0  0  0
  191.9660  174.8920  135.5290 C   0  0  0  0  0  2  0  0  0  0  0  0
  1 12  1  0  0  0  0
  2  8  1  0  0  0  0
  3 11  2  0  0  0  0
  4 14  1  0  0  0  0
  5 10  2  0  0  0  0
  6  2  2  0  0  0  0
  6  5  1  0  0  0  0
  7 17  1  0  0  0  0
  8  3  1  0  0  0  0
  8  1  2  0  0  0  0
  9  4  1  0  0  0  0
 10  1  1  0  0  0  0
 11 15  1  0  0  0  0
 11 18  1  0  0  0  0
 12 18  2  0  0  0  0
 13  7  2  0  0  0  0
 13  2  1  0  0  0  0
 14 15  2  0  0  0  0
 15 21  1  0  0  0  0
 16 26  1  6  0  0  0
 16  7  1  0  0  0  0
 16  9  1  0  0  0  0
 17  4  2  0  0  0  0
 17  3  1  0  0  0  0
 19 25  1  0  0  0  0
 19 20  1  0  0  0  0
 21 23  1  0  0  0  0
 21 24  2  0  0  0  0
 22 20  2  0  0  0  0
 23 19  2  0  0  0  0
 24 22  1  0  0  0  0
 27 26  1  0  0  0  0
 29 27  1  0  0  0  0
 29 33  2  0  0  0  0
 30 28  1  6  0  0  0
 30 29  1  0  0  0  0
 31 32  1  0  0  0  0
 32 33  1  0  0  0  0
 34 30  1  0  0  0  0
 34 31  1  0  0  0  0
M  END
>  <MODEL>
2

>  <REMARK>
 VINA RESULT:     -11.0      1.033      1.592
  Name = 
  3 active torsions:
  status: ('A' for Active; 'I' for Inactive)
    1  A    between atoms: N_3  and  C_17
    2  A    between atoms: C_12  and  C_28
    3  A    between atoms: C_17  and  C_29
                            x       y       z     vdW  Elec       q    Type
                         _______ _______ _______ _____ _____    ______ ____

>  <TORSDO>
F 3

$$$$
=
 OpenBabel10252414493D

 34 40  0  0  1  0  0  0  0  0999 V2000
  189.4560  177.1830  146.6460 C   0  0  0  0  0  0  0  0  0  0  0  0
  191.1430  176.5970  144.9810 C   0  0  0  0  0  0  0  0  0  0  0  0
  188.9010  177.2240  144.2870 C   0  0  0  0  0  0  0  0  0  0  0  0
  188.4850  177.2520  141.9230 C   0  0  0  0  0  0  0  0  0  0  0  0
  191.6440  176.5660  147.3430 C   0  0  0  0  0  3  0  0  0  0  0  0
  192.0560  176.3780  146.0150 C   0  0  0  0  0  3  0  0  0  0  0  0
  190.5950  176.6640  142.6740 C   0  0  0  0  0  0  0  0  0  0  0  0
  189.8290  177.0020  145.3080 C   0  0  0  0  0  0  0  0  0  0  0  0
  189.2710  176.9500  140.3450 S   0  0  0  0  0  0  0  0  0  0  0  0
  190.3690  176.9610  147.6300 N   0  0  0  0  0  0  0  0  0  0  0  0
  187.5780  177.6260  144.5610 C   0  0  0  0  0  0  0  0  0  0  0  0
  188.1500  177.5950  146.9450 C   0  0  0  0  0  3  0  0  0  0  0  0
  191.5020  176.4330  143.6690 N   0  0  0  0  0  0  0  0  0  0  0  0
  187.1620  177.6510  142.1410 C   0  0  0  0  0  3  0  0  0  0  0  0
  186.6820  177.8410  143.4640 C   0  0  0  0  0  0  0  0  0  0  0  0
  190.8590  176.5290  141.2090 C   0  0  1  0  0  3  0  0  0  0  0  0
  189.3160  177.0490  142.9790 C   0  0  0  0  0  0  0  0  0  0  0  0
  187.2210  177.8170  145.9120 C   0  0  0  0  0  3  0  0  0  0  0  0
  183.0630  178.7630  142.7210 C   0  0  0  0  0  0  0  0  0  0  0  0
  182.5990  179.0890  143.9960 C   0  0  0  0  0  3  0  0  0  0  0  0
  185.2620  178.2530  143.6380 C   0  0  0  0  0  0  0  0  0  0  0  0
  183.4580  179.0060  145.0930 C   0  0  0  0  0  3  0  0  0  0  0  0
  184.3870  178.3520  142.5430 C   0  0  0  0  0  3  0  0  0  0  0  0
  184.7810  178.5940  144.9150 C   0  0  0  0  0  3  0  0  0  0  0  0
  182.2320  178.8470  141.6540 F   0  0  0  0  0  0  0  0  0  0  0  0
  191.9470  177.5030  140.7900 C   0  0  0  0  0  2  0  0  0  0  0  0
  192.1330  177.4450  139.3480 N   0  0  0  0  0  2  0  0  0  0  0  0
  192.0650  176.7530  136.6370 F   0  0  0  0  0  0  0  0  0  0  0  0
  193.1610  176.6600  138.7390 C   0  0  0  0  0  0  0  0  0  0  0  0
  193.3080  176.6830  137.2390 C   0  0  1  0  0  3  0  0  0  0  0  0
  195.3450  175.2870  137.4980 C   0  0  0  0  0  2  0  0  0  0  0  0
  195.0550  175.2450  138.9260 N   0  0  0  0  0  2  0  0  0  0  0  0
  194.0030  175.9970  139.4800 N   0  0  0  0  0  0  0  0  0  0  0  0
  194.0440  175.4470  136.7320 C   0  0  0  0  0  2  0  0  0  0  0  0
  1 12  1  0  0  0  0
  1 10  1  0  0  0  0
  2  8  1  0  0  0  0
  2  6  2  0  0  0  0
  3 11  1  0  0  0  0
  3  8  1  0  0  0  0
  4 14  2  0  0  0  0
  4 17  1  0  0  0  0
  5 10  2  0  0  0  0
  6  5  1  0  0  0  0
  7 17  1  0  0  0  0
  7 13  2  0  0  0  0
  8  1  2  0  0  0  0
  9 16  1  0  0  0  0
  9  4  1  0  0  0  0
 11 18  1  0  0  0  0
 13  2  1  0  0  0  0
 14 15  1  0  0  0  0
 15 21  1  0  0  0  0
 15 11  2  0  0  0  0
 16 26  1  6  0  0  0
 16  7  1  0  0  0  0
 17  3  2  0  0  0  0
 18 12  2  0  0  0  0
 19 20  1  0  0  0  0
 20 22  2  0  0  0  0
 21 24  2  0  0  0  0
 23 19  2  0  0  0  0
 23 21  1  0  0  0  0
 24 22  1  0  0  0  0
 25 19  1  0  0  0  0
 27 26  1  0  0  0  0
 29 27  1  0  0  0  0
 29 33  2  0  0  0  0
 30 28  1  6  0  0  0
 30 29  1  0  0  0  0
 31 32  1  0  0  0  0
 32 33  1  0  0  0  0
 34 30  1  0  0  0  0
 34 31  1  0  0  0  0
M  END
>  <MODEL>
3

>  <REMARK>
 VINA RESULT:     -10.9      3.274      5.690
  Name = 
  3 active torsions:
  status: ('A' for Active; 'I' for Inactive)
    1  A    between atoms: N_3  and  C_17
    2  A    between atoms: C_12  and  C_28
    3  A    between atoms: C_17  and  C_29
                            x       y       z     vdW  Elec       q    Type
                         _______ _______ _______ _____ _____    ______ ____

>  <TORSDO>
F 3

$$$$
=
 OpenBabel10252414493D

 34 40  0  0  1  0  0  0  0  0999 V2000
  185.4670  178.4220  142.8260 C   0  0  0  0  0  0  0  0  0  0  0  0
  186.0420  178.5080  140.4540 C   0  0  0  0  0  0  0  0  0  0  0  0
  187.7310  177.9410  142.1060 C   0  0  0  0  0  0  0  0  0  0  0  0
  189.9270  177.4600  141.2640 C   0  0  0  0  0  0  0  0  0  0  0  0
  183.8030  178.9840  141.2230 C   0  0  0  0  0  3  0  0  0  0  0  0
  184.7210  178.8590  140.1700 C   0  0  0  0  0  3  0  0  0  0  0  0
  188.2560  178.0120  139.7600 C   0  0  0  0  0  0  0  0  0  0  0  0
  186.4130  178.2910  141.8010 C   0  0  0  0  0  0  0  0  0  0  0  0
  190.8710  177.3630  139.7480 S   0  0  0  0  0  0  0  0  0  0  0  0
  184.1880  178.7650  142.5150 N   0  0  0  0  0  0  0  0  0  0  0  0
  188.1510  177.7170  143.4330 C   0  0  0  0  0  0  0  0  0  0  0  0
  185.8560  178.1920  144.1520 C   0  0  0  0  0  3  0  0  0  0  0  0
  186.9710  178.3670  139.4570 N   0  0  0  0  0  0  0  0  0  0  0  0
  190.3950  177.2270  142.5620 C   0  0  0  0  0  3  0  0  0  0  0  0
  189.5170  177.3560  143.6710 C   0  0  0  0  0  0  0  0  0  0  0  0
  189.3600  177.8190  138.7710 C   0  0  1  0  0  3  0  0  0  0  0  0
  188.6290  177.8070  141.0620 C   0  0  0  0  0  0  0  0  0  0  0  0
  187.1850  177.8400  144.4520 C   0  0  0  0  0  3  0  0  0  0  0  0
  189.9330  177.3050  147.4560 C   0  0  0  0  0  0  0  0  0  0  0  0
  191.1740  176.6780  147.5840 C   0  0  0  0  0  3  0  0  0  0  0  0
  190.0710  177.1100  145.0310 C   0  0  0  0  0  0  0  0  0  0  0  0
  191.8710  176.2720  146.4450 C   0  0  0  0  0  3  0  0  0  0  0  0
  189.3880  177.5220  146.1880 C   0  0  0  0  0  3  0  0  0  0  0  0
  191.3240  176.4890  145.1770 C   0  0  0  0  0  3  0  0  0  0  0  0
  189.2580  177.7040  148.5600 F   0  0  0  0  0  0  0  0  0  0  0  0
  189.0040  176.6920  137.8160 C   0  0  0  0  0  2  0  0  0  0  0  0
  188.3830  177.2370  136.6190 N   0  0  0  0  0  2  0  0  0  0  0  0
  186.8750  178.7300  134.7930 F   0  0  0  0  0  0  0  0  0  0  0  0
  187.1050  176.7980  136.1510 C   0  0  0  0  0  0  0  0  0  0  0  0
  186.5480  177.3890  134.8820 C   0  0  1  0  0  3  0  0  0  0  0  0
  184.6610  175.7840  135.0580 C   0  0  0  0  0  2  0  0  0  0  0  0
  185.2320  175.3540  136.3280 N   0  0  0  0  0  2  0  0  0  0  0  0
  186.4720  175.8460  136.7750 N   0  0  0  0  0  0  0  0  0  0  0  0
  185.0320  177.2370  134.8140 C   0  0  0  0  0  2  0  0  0  0  0  0
  1 12  1  0  0  0  0
  2  8  1  0  0  0  0
  3 11  2  0  0  0  0
  4 14  1  0  0  0  0
  5 10  2  0  0  0  0
  6  2  2  0  0  0  0
  6  5  1  0  0  0  0
  7 17  1  0  0  0  0
  8  3  1  0  0  0  0
  8  1  2  0  0  0  0
  9  4  1  0  0  0  0
 10  1  1  0  0  0  0
 11 15  1  0  0  0  0
 11 18  1  0  0  0  0
 12 18  2  0  0  0  0
 13  7  2  0  0  0  0
 13  2  1  0  0  0  0
 14 15  2  0  0  0  0
 15 21  1  0  0  0  0
 16 26  1  6  0  0  0
 16  9  1  0  0  0  0
 16  7  1  0  0  0  0
 17  4  2  0  0  0  0
 17  3  1  0  0  0  0
 19 20  1  0  0  0  0
 19 25  1  0  0  0  0
 21 24  2  0  0  0  0
 21 23  1  0  0  0  0
 22 20  2  0  0  0  0
 23 19  2  0  0  0  0
 24 22  1  0  0  0  0
 27 26  1  0  0  0  0
 29 27  1  0  0  0  0
 29 33  2  0  0  0  0
 30 28  1  1  0  0  0
 30 29  1  0  0  0  0
 31 32  1  0  0  0  0
 32 33  1  0  0  0  0
 34 30  1  0  0  0  0
 34 31  1  0  0  0  0
M  END
>  <MODEL>
4

>  <REMARK>
 VINA RESULT:     -10.9      1.858      2.490
  Name = 
  3 active torsions:
  status: ('A' for Active; 'I' for Inactive)
    1  A    between atoms: N_3  and  C_17
    2  A    between atoms: C_12  and  C_28
    3  A    between atoms: C_17  and  C_29
                            x       y       z     vdW  Elec       q    Type
                         _______ _______ _______ _____ _____    ______ ____

>  <TORSDO>
F 3

$$$$
=
 OpenBabel10252414493D

 34 40  0  0  1  0  0  0  0  0999 V2000
  184.2790  178.6870  142.2290 C   0  0  0  0  0  0  0  0  0  0  0  0
  185.3320  178.6870  140.0260 C   0  0  0  0  0  0  0  0  0  0  0  0
  186.6570  178.2680  142.0190 C   0  0  0  0  0  0  0  0  0  0  0  0
  188.9940  177.8410  141.6750 C   0  0  0  0  0  0  0  0  0  0  0  0
  182.9690  179.1050  140.2880 C   0  0  0  0  0  3  0  0  0  0  0  0
  184.0900  178.9690  139.4560 C   0  0  0  0  0  3  0  0  0  0  0  0
  187.6560  178.2520  139.8310 C   0  0  0  0  0  0  0  0  0  0  0  0
  185.4220  178.5480  141.4300 C   0  0  0  0  0  0  0  0  0  0  0  0
  190.2360  177.7130  140.3940 S   0  0  0  0  0  0  0  0  0  0  0  0
  183.0830  178.9620  141.6420 N   0  0  0  0  0  0  0  0  0  0  0  0
  186.7990  178.1240  143.4140 C   0  0  0  0  0  0  0  0  0  0  0  0
  184.3900  178.5360  143.6170 C   0  0  0  0  0  3  0  0  0  0  0  0
  186.4530  178.5380  139.2510 N   0  0  0  0  0  0  0  0  0  0  0  0
  189.1890  177.6880  143.0520 C   0  0  0  0  0  3  0  0  0  0  0  0
  188.0950  177.8310  143.9480 C   0  0  0  0  0  0  0  0  0  0  0  0
  188.9480  178.0590  139.1030 C   0  0  1  0  0  3  0  0  0  0  0  0
  187.7570  178.1240  141.1910 C   0  0  0  0  0  0  0  0  0  0  0  0
  185.6380  178.2530  144.2040 C   0  0  0  0  0  3  0  0  0  0  0  0
  189.8460  177.0960  147.2490 C   0  0  0  0  0  0  0  0  0  0  0  0
  188.8140  177.3250  148.1600 C   0  0  0  0  0  3  0  0  0  0  0  0
  188.3620  177.6720  145.4050 C   0  0  0  0  0  0  0  0  0  0  0  0
  187.5550  177.7190  147.7030 C   0  0  0  0  0  3  0  0  0  0  0  0
  189.6200  177.2650  145.8800 C   0  0  0  0  0  3  0  0  0  0  0  0
  187.3290  177.8880  146.3340 C   0  0  0  0  0  3  0  0  0  0  0  0
  191.0670  176.7090  147.6900 F   0  0  0  0  0  0  0  0  0  0  0  0
  188.8340  176.8750  138.1580 C   0  0  0  0  0  2  0  0  0  0  0  0
  188.3430  177.3230  136.8630 N   0  0  0  0  0  2  0  0  0  0  0  0
  187.0010  178.6280  134.7820 F   0  0  0  0  0  0  0  0  0  0  0  0
  187.1670  176.7790  136.2600 C   0  0  0  0  0  0  0  0  0  0  0  0
  186.7470  177.2730  134.9000 C   0  0  1  0  0  3  0  0  0  0  0  0
  184.9540  175.5540  134.9180 C   0  0  0  0  0  2  0  0  0  0  0  0
  185.3790  175.2210  136.2720 N   0  0  0  0  0  2  0  0  0  0  0  0
  186.5170  175.8150  136.8480 N   0  0  0  0  0  0  0  0  0  0  0  0
  185.2640  177.0160  134.6460 C   0  0  0  0  0  2  0  0  0  0  0  0
  1 12  1  0  0  0  0
  2  8  1  0  0  0  0
  3 11  2  0  0  0  0
  4 14  1  0  0  0  0
  5 10  2  0  0  0  0
  6  2  2  0  0  0  0
  6  5  1  0  0  0  0
  7 17  1  0  0  0  0
  8  3  1  0  0  0  0
  8  1  2  0  0  0  0
  9  4  1  0  0  0  0
 10  1  1  0  0  0  0
 11 15  1  0  0  0  0
 11 18  1  0  0  0  0
 12 18  2  0  0  0  0
 13  7  2  0  0  0  0
 13  2  1  0  0  0  0
 14 15  2  0  0  0  0
 15 21  1  0  0  0  0
 16 26  1  6  0  0  0
 16  7  1  0  0  0  0
 16  9  1  0  0  0  0
 17  4  2  0  0  0  0
 17  3  1  0  0  0  0
 19 25  1  0  0  0  0
 19 20  1  0  0  0  0
 21 23  1  0  0  0  0
 21 24  2  0  0  0  0
 22 20  2  0  0  0  0
 23 19  2  0  0  0  0
 24 22  1  0  0  0  0
 27 26  1  0  0  0  0
 29 33  2  0  0  0  0
 29 27  1  0  0  0  0
 30 28  1  1  0  0  0
 30 29  1  0  0  0  0
 31 32  1  0  0  0  0
 32 33  1  0  0  0  0
 34 30  1  0  0  0  0
 34 31  1  0  0  0  0
M  END
>  <MODEL>
5

>  <REMARK>
 VINA RESULT:     -10.7      1.973      2.763
  Name = 
  3 active torsions:
  status: ('A' for Active; 'I' for Inactive)
    1  A    between atoms: N_3  and  C_17
    2  A    between atoms: C_12  and  C_28
    3  A    between atoms: C_17  and  C_29
                            x       y       z     vdW  Elec       q    Type
                         _______ _______ _______ _____ _____    ______ ____

>  <TORSDO>
F 3

$$$$
=
 OpenBabel10252414493D

 34 40  0  0  1  0  0  0  0  0999 V2000
  189.4220  177.0700  145.6970 C   0  0  0  0  0  0  0  0  0  0  0  0
  187.1680  178.0010  145.8230 C   0  0  0  0  0  0  0  0  0  0  0  0
  188.2620  177.7220  143.6710 C   0  0  0  0  0  0  0  0  0  0  0  0
  186.9980  178.3800  141.7390 C   0  0  0  0  0  0  0  0  0  0  0  0
  188.3680  177.3430  147.8120 C   0  0  0  0  0  3  0  0  0  0  0  0
  187.2150  177.8710  147.2120 C   0  0  0  0  0  3  0  0  0  0  0  0
  186.0340  178.6130  143.8300 C   0  0  0  0  0  0  0  0  0  0  0  0
  188.2890  177.5970  145.0620 C   0  0  0  0  0  0  0  0  0  0  0  0
  185.4220  179.0660  141.2450 S   0  0  0  0  0  0  0  0  0  0  0  0
  189.4350  176.9570  147.0520 N   0  0  0  0  0  0  0  0  0  0  0  0
  189.3550  177.3360  142.8690 C   0  0  0  0  0  0  0  0  0  0  0  0
  190.5170  176.6670  144.9220 C   0  0  0  0  0  3  0  0  0  0  0  0
  186.0600  178.5050  145.1920 N   0  0  0  0  0  0  0  0  0  0  0  0
  188.0550  178.0120  140.8990 C   0  0  0  0  0  3  0  0  0  0  0  0
  189.2550  177.4880  141.4490 C   0  0  0  0  0  0  0  0  0  0  0  0
  184.8900  179.1370  143.0230 C   0  0  1  0  0  3  0  0  0  0  0  0
  187.1180  178.2320  143.0840 C   0  0  0  0  0  0  0  0  0  0  0  0
  190.4830  176.7960  143.5210 C   0  0  0  0  0  3  0  0  0  0  0  0
  192.6980  177.1760  139.8520 C   0  0  0  0  0  0  0  0  0  0  0  0
  192.3930  176.4730  138.6850 C   0  0  0  0  0  3  0  0  0  0  0  0
  190.3530  177.1260  140.5090 C   0  0  0  0  0  0  0  0  0  0  0  0
  191.0740  176.1000  138.4200 C   0  0  0  0  0  3  0  0  0  0  0  0
  191.6840  177.5030  140.7560 C   0  0  0  0  0  3  0  0  0  0  0  0
  190.0600  176.4270  139.3250 C   0  0  0  0  0  3  0  0  0  0  0  0
  193.9770  177.5430  140.1080 F   0  0  0  0  0  0  0  0  0  0  0  0
  183.6680  178.2590  143.2300 C   0  0  0  0  0  2  0  0  0  0  0  0
  182.8530  178.2530  142.0250 N   0  0  0  0  0  2  0  0  0  0  0  0
  181.6960  178.8140  139.5390 F   0  0  0  0  0  0  0  0  0  0  0  0
  181.6630  179.0340  141.9020 C   0  0  0  0  0  0  0  0  0  0  0  0
  180.8560  178.9430  140.6310 C   0  0  1  0  0  3  0  0  0  0  0  0
  179.1550  180.4010  141.7020 C   0  0  0  0  0  2  0  0  0  0  0  0
  180.0570  180.5030  142.8430 N   0  0  0  0  0  2  0  0  0  0  0  0
  181.2440  179.7510  142.9050 N   0  0  0  0  0  0  0  0  0  0  0  0
  179.9720  180.1720  140.4430 C   0  0  0  0  0  2  0  0  0  0  0  0
  1 10  1  0  0  0  0
  2  6  2  0  0  0  0
  3  8  1  0  0  0  0
  4 17  1  0  0  0  0
  6  5  1  0  0  0  0
  7 13  2  0  0  0  0
  8  1  2  0  0  0  0
  8  2  1  0  0  0  0
  9  4  1  0  0  0  0
  9 16  1  0  0  0  0
 10  5  2  0  0  0  0
 11 18  1  0  0  0  0
 11  3  1  0  0  0  0
 12  1  1  0  0  0  0
 13  2  1  0  0  0  0
 14 15  1  0  0  0  0
 14  4  2  0  0  0  0
 15 11  2  0  0  0  0
 16 26  1  6  0  0  0
 16  7  1  0  0  0  0
 17  3  2  0  0  0  0
 17  7  1  0  0  0  0
 18 12  2  0  0  0  0
 19 25  1  0  0  0  0
 19 23  1  0  0  0  0
 20 19  2  0  0  0  0
 21 23  2  0  0  0  0
 21 15  1  0  0  0  0
 22 20  1  0  0  0  0
 22 24  2  0  0  0  0
 24 21  1  0  0  0  0
 27 26  1  0  0  0  0
 29 27  1  0  0  0  0
 29 33  2  0  0  0  0
 30 28  1  6  0  0  0
 30 29  1  0  0  0  0
 31 32  1  0  0  0  0
 32 33  1  0  0  0  0
 34 30  1  0  0  0  0
 34 31  1  0  0  0  0
M  END
>  <MODEL>
6

>  <REMARK>
 VINA RESULT:     -10.4      3.865      7.655
  Name = 
  3 active torsions:
  status: ('A' for Active; 'I' for Inactive)
    1  A    between atoms: N_3  and  C_17
    2  A    between atoms: C_12  and  C_28
    3  A    between atoms: C_17  and  C_29
                            x       y       z     vdW  Elec       q    Type
                         _______ _______ _______ _____ _____    ______ ____

>  <TORSDO>
F 3

$$$$
=
 OpenBabel10252414493D

 34 40  0  0  1  0  0  0  0  0999 V2000
  185.5520  178.1220  143.6230 C   0  0  0  0  0  0  0  0  0  0  0  0
  185.5350  178.6410  141.2380 C   0  0  0  0  0  0  0  0  0  0  0  0
  187.5710  177.8610  142.3090 C   0  0  0  0  0  0  0  0  0  0  0  0
  189.4960  177.6190  140.8940 C   0  0  0  0  0  0  0  0  0  0  0  0
  183.5520  178.8900  142.5920 C   0  0  0  0  0  3  0  0  0  0  0  0
  184.1860  178.9850  141.3440 C   0  0  0  0  0  3  0  0  0  0  0  0
  187.5120  178.3590  139.9570 C   0  0  0  0  0  0  0  0  0  0  0  0
  186.2210  178.2080  142.3950 C   0  0  0  0  0  0  0  0  0  0  0  0
  190.0440  177.8230  139.2040 S   0  0  0  0  0  0  0  0  0  0  0  0
  184.2380  178.4640  143.6930 N   0  0  0  0  0  0  0  0  0  0  0  0
  188.3000  177.4270  143.4350 C   0  0  0  0  0  0  0  0  0  0  0  0
  186.2500  177.6800  144.7560 C   0  0  0  0  0  3  0  0  0  0  0  0
  186.1950  178.7110  140.0380 N   0  0  0  0  0  0  0  0  0  0  0  0
  190.2630  177.1820  141.9790 C   0  0  0  0  0  3  0  0  0  0  0  0
  189.6810  177.0820  143.2720 C   0  0  0  0  0  0  0  0  0  0  0  0
  188.3430  178.3830  138.7140 C   0  0  1  0  0  3  0  0  0  0  0  0
  188.1890  177.9450  141.0740 C   0  0  0  0  0  0  0  0  0  0  0  0
  187.6100  177.3330  144.6610 C   0  0  0  0  0  3  0  0  0  0  0  0
  192.1330  175.0440  145.3520 C   0  0  0  0  0  0  0  0  0  0  0  0
  192.1290  175.7570  146.5530 C   0  0  0  0  0  3  0  0  0  0  0  0
  190.5470  176.6250  144.3930 C   0  0  0  0  0  0  0  0  0  0  0  0
  191.3330  176.8970  146.6840 C   0  0  0  0  0  3  0  0  0  0  0  0
  191.3450  175.4730  144.2810 C   0  0  0  0  0  3  0  0  0  0  0  0
  190.5450  177.3260  145.6120 C   0  0  0  0  0  3  0  0  0  0  0  0
  192.9010  173.9350  145.2250 F   0  0  0  0  0  0  0  0  0  0  0  0
  187.7610  177.4270  137.6870 C   0  0  0  0  0  2  0  0  0  0  0  0
  188.6860  176.3270  137.4580 N   0  0  0  0  0  2  0  0  0  0  0  0
  190.3790  174.4070  136.3250 F   0  0  0  0  0  0  0  0  0  0  0  0
  188.2410  175.0000  137.1670 C   0  0  0  0  0  0  0  0  0  0  0  0
  189.2640  173.9100  136.9780 C   0  0  1  0  0  3  0  0  0  0  0  0
  187.3900  172.2890  136.8130 C   0  0  0  0  0  2  0  0  0  0  0  0
  186.4850  173.4280  136.9040 N   0  0  0  0  0  2  0  0  0  0  0  0
  186.9670  174.7270  137.1450 N   0  0  0  0  0  0  0  0  0  0  0  0
  188.6940  172.7420  136.1790 C   0  0  0  0  0  2  0  0  0  0  0  0
  1 10  1  0  0  0  0
  1 12  1  0  0  0  0
  2  6  2  0  0  0  0
  2  8  1  0  0  0  0
  3  8  1  0  0  0  0
  3 11  2  0  0  0  0
  4 17  2  0  0  0  0
  4 14  1  0  0  0  0
  5 10  2  0  0  0  0
  6  5  1  0  0  0  0
  7 13  2  0  0  0  0
  7 17  1  0  0  0  0
  8  1  2  0  0  0  0
  9  4  1  0  0  0  0
 11 18  1  0  0  0  0
 13  2  1  0  0  0  0
 14 15  2  0  0  0  0
 15 11  1  0  0  0  0
 15 21  1  0  0  0  0
 16 26  1  6  0  0  0
 16  9  1  0  0  0  0
 16  7  1  0  0  0  0
 17  3  1  0  0  0  0
 18 12  2  0  0  0  0
 19 20  1  0  0  0  0
 20 22  2  0  0  0  0
 21 24  2  0  0  0  0
 23 21  1  0  0  0  0
 23 19  2  0  0  0  0
 24 22  1  0  0  0  0
 25 19  1  0  0  0  0
 27 26  1  0  0  0  0
 29 27  1  0  0  0  0
 30 28  1  6  0  0  0
 30 29  1  0  0  0  0
 31 32  1  0  0  0  0
 32 33  1  0  0  0  0
 33 29  2  0  0  0  0
 34 31  1  0  0  0  0
 34 30  1  0  0  0  0
M  END
>  <MODEL>
7

>  <REMARK>
 VINA RESULT:     -10.4      1.888      2.159
  Name = 
  3 active torsions:
  status: ('A' for Active; 'I' for Inactive)
    1  A    between atoms: N_3  and  C_17
    2  A    between atoms: C_12  and  C_28
    3  A    between atoms: C_17  and  C_29
                            x       y       z     vdW  Elec       q    Type
                         _______ _______ _______ _____ _____    ______ ____

>  <TORSDO>
F 3

$$$$
=
 OpenBabel10252414493D

 34 40  0  0  1  0  0  0  0  0999 V2000
  186.9480  178.2150  147.3080 C   0  0  0  0  0  0  0  0  0  0  0  0
  189.0360  177.6070  146.1990 C   0  0  0  0  0  0  0  0  0  0  0  0
  187.0110  177.9470  144.9000 C   0  0  0  0  0  0  0  0  0  0  0  0
  187.2100  177.6770  142.5230 C   0  0  0  0  0  0  0  0  0  0  0  0
  188.9200  177.8800  148.5950 C   0  0  0  0  0  3  0  0  0  0  0  0
  189.6660  177.5860  147.4440 C   0  0  0  0  0  3  0  0  0  0  0  0
  189.0900  177.3700  143.8390 C   0  0  0  0  0  0  0  0  0  0  0  0
  187.6590  177.9230  146.1370 C   0  0  0  0  0  0  0  0  0  0  0  0
  188.3880  177.2770  141.2380 S   0  0  0  0  0  0  0  0  0  0  0  0
  187.5910  178.1870  148.5060 N   0  0  0  0  0  0  0  0  0  0  0  0
  185.6390  178.2530  144.7870 C   0  0  0  0  0  0  0  0  0  0  0  0
  185.5860  178.5360  147.2220 C   0  0  0  0  0  3  0  0  0  0  0  0
  189.7270  177.3330  145.0470 N   0  0  0  0  0  0  0  0  0  0  0  0
  185.8530  177.9750  142.3560 C   0  0  0  0  0  3  0  0  0  0  0  0
  185.0410  178.2640  143.4850 C   0  0  0  0  0  0  0  0  0  0  0  0
  189.7270  177.1000  142.5130 C   0  0  1  0  0  3  0  0  0  0  0  0
  187.7550  177.6670  143.7680 C   0  0  0  0  0  0  0  0  0  0  0  0
  184.9390  178.5580  145.9720 C   0  0  0  0  0  3  0  0  0  0  0  0
  181.7300  178.9850  141.7490 C   0  0  0  0  0  0  0  0  0  0  0  0
  180.8860  179.1790  142.8440 C   0  0  0  0  0  3  0  0  0  0  0  0
  183.6010  178.5610  143.2510 C   0  0  0  0  0  0  0  0  0  0  0  0
  181.3910  179.0730  144.1410 C   0  0  0  0  0  3  0  0  0  0  0  0
  183.0790  178.6820  141.9520 C   0  0  0  0  0  3  0  0  0  0  0  0
  182.7400  178.7690  144.3430 C   0  0  0  0  0  3  0  0  0  0  0  0
  181.2420  179.0920  140.4900 F   0  0  0  0  0  0  0  0  0  0  0  0
  190.8240  178.1170  142.2520 C   0  0  0  0  0  2  0  0  0  0  0  0
  191.9350  177.4790  141.5630 N   0  0  0  0  0  2  0  0  0  0  0  0
  194.2650  176.9360  140.1090 F   0  0  0  0  0  0  0  0  0  0  0  0
  191.9070  177.1950  140.1630 C   0  0  0  0  0  0  0  0  0  0  0  0
  193.0850  176.4990  139.5320 C   0  0  1  0  0  3  0  0  0  0  0  0
  191.7940  176.4030  137.4130 C   0  0  0  0  0  2  0  0  0  0  0  0
  190.7540  177.1680  138.0900 N   0  0  0  0  0  2  0  0  0  0  0  0
  190.8430  177.4670  139.4620 N   0  0  0  0  0  0  0  0  0  0  0  0
  193.1410  176.7450  138.0280 C   0  0  0  0  0  2  0  0  0  0  0  0
  1 10  1  0  0  0  0
  2  6  2  0  0  0  0
  3  8  1  0  0  0  0
  4 17  1  0  0  0  0
  6  5  1  0  0  0  0
  7 13  2  0  0  0  0
  8  2  1  0  0  0  0
  8  1  2  0  0  0  0
  9 16  1  0  0  0  0
  9  4  1  0  0  0  0
 10  5  2  0  0  0  0
 11  3  1  0  0  0  0
 11 18  1  0  0  0  0
 12  1  1  0  0  0  0
 13  2  1  0  0  0  0
 14  4  2  0  0  0  0
 14 15  1  0  0  0  0
 15 11  2  0  0  0  0
 16 26  1  6  0  0  0
 16  7  1  0  0  0  0
 17  7  1  0  0  0  0
 17  3  2  0  0  0  0
 18 12  2  0  0  0  0
 19 23  2  0  0  0  0
 19 20  1  0  0  0  0
 20 22  2  0  0  0  0
 21 15  1  0  0  0  0
 21 24  2  0  0  0  0
 22 24  1  0  0  0  0
 23 21  1  0  0  0  0
 25 19  1  0  0  0  0
 27 26  1  0  0  0  0
 29 27  1  0  0  0  0
 30 28  1  1  0  0  0
 30 29  1  0  0  0  0
 31 34  1  0  0  0  0
 31 32  1  0  0  0  0
 32 33  1  0  0  0  0
 33 29  2  0  0  0  0
 34 30  1  0  0  0  0
M  END
>  <MODEL>
8

>  <REMARK>
 VINA RESULT:     -10.3      3.366      6.141
  Name = 
  3 active torsions:
  status: ('A' for Active; 'I' for Inactive)
    1  A    between atoms: N_3  and  C_17
    2  A    between atoms: C_12  and  C_28
    3  A    between atoms: C_17  and  C_29
                            x       y       z     vdW  Elec       q    Type
                         _______ _______ _______ _____ _____    ______ ____

>  <TORSDO>
F 3

$$$$
=
 OpenBabel10252414493D

 34 40  0  0  1  0  0  0  0  0999 V2000
  184.3340  178.4520  144.6210 C   0  0  0  0  0  0  0  0  0  0  0  0
  183.9770  178.8430  142.2370 C   0  0  0  0  0  0  0  0  0  0  0  0
  186.1810  178.2460  143.0660 C   0  0  0  0  0  0  0  0  0  0  0  0
  187.9200  178.0470  141.4230 C   0  0  0  0  0  0  0  0  0  0  0  0
  182.1700  179.0420  143.8270 C   0  0  0  0  0  3  0  0  0  0  0  0
  182.6330  179.1100  142.5040 C   0  0  0  0  0  3  0  0  0  0  0  0
  185.7880  178.6150  140.7220 C   0  0  0  0  0  0  0  0  0  0  0  0
  184.8320  178.5140  143.3130 C   0  0  0  0  0  0  0  0  0  0  0  0
  188.2320  178.1960  139.6680 S   0  0  0  0  0  0  0  0  0  0  0  0
  183.0190  178.7170  144.8470 N   0  0  0  0  0  0  0  0  0  0  0  0
  187.0750  177.9160  144.1040 C   0  0  0  0  0  0  0  0  0  0  0  0
  185.1980  178.1140  145.6700 C   0  0  0  0  0  3  0  0  0  0  0  0
  184.4710  178.8900  140.9600 N   0  0  0  0  0  0  0  0  0  0  0  0
  188.8480  177.7160  142.4160 C   0  0  0  0  0  3  0  0  0  0  0  0
  188.4440  177.6490  143.7770 C   0  0  0  0  0  0  0  0  0  0  0  0
  186.4490  178.6240  139.3810 C   0  0  1  0  0  3  0  0  0  0  0  0
  186.6280  178.3030  141.7580 C   0  0  0  0  0  0  0  0  0  0  0  0
  186.5560  177.8450  145.4130 C   0  0  0  0  0  3  0  0  0  0  0  0
  190.2980  177.3290  147.0870 C   0  0  0  0  0  0  0  0  0  0  0  0
  191.4700  176.6880  146.6810 C   0  0  0  0  0  3  0  0  0  0  0  0
  189.4750  177.3040  144.7940 C   0  0  0  0  0  0  0  0  0  0  0  0
  191.6550  176.3590  145.3370 C   0  0  0  0  0  3  0  0  0  0  0  0
  189.3090  177.6380  146.1490 C   0  0  0  0  0  3  0  0  0  0  0  0
  190.6650  176.6680  144.4000 C   0  0  0  0  0  3  0  0  0  0  0  0
  190.1190  177.6540  148.3900 F   0  0  0  0  0  0  0  0  0  0  0  0
  185.8060  177.5820  138.4830 C   0  0  0  0  0  2  0  0  0  0  0  0
  184.5760  178.1110  137.9140 N   0  0  0  0  0  2  0  0  0  0  0  0
  182.1150  179.3760  137.4920 F   0  0  0  0  0  0  0  0  0  0  0  0
  183.3380  177.3990  137.9680 C   0  0  0  0  0  0  0  0  0  0  0  0
  182.1170  178.0030  137.3230 C   0  0  1  0  0  3  0  0  0  0  0  0
  180.8980  175.9060  137.8540 C   0  0  0  0  0  2  0  0  0  0  0  0
  182.1030  175.4570  138.5410 N   0  0  0  0  0  2  0  0  0  0  0  0
  183.2900  176.2120  138.5020 N   0  0  0  0  0  0  0  0  0  0  0  0
  180.8330  177.4220  137.9060 C   0  0  0  0  0  2  0  0  0  0  0  0
  1 10  1  0  0  0  0
  1 12  1  0  0  0  0
  2  6  2  0  0  0  0
  2  8  1  0  0  0  0
  3  8  1  0  0  0  0
  3 11  2  0  0  0  0
  4 17  2  0  0  0  0
  4 14  1  0  0  0  0
  5 10  2  0  0  0  0
  6  5  1  0  0  0  0
  7 13  2  0  0  0  0
  7 17  1  0  0  0  0
  8  1  2  0  0  0  0
  9  4  1  0  0  0  0
 11 18  1  0  0  0  0
 13  2  1  0  0  0  0
 14 15  2  0  0  0  0
 15 11  1  0  0  0  0
 15 21  1  0  0  0  0
 16 26  1  6  0  0  0
 16  9  1  0  0  0  0
 16  7  1  0  0  0  0
 17  3  1  0  0  0  0
 18 12  2  0  0  0  0
 19 25  1  0  0  0  0
 20 19  1  0  0  0  0
 21 23  1  0  0  0  0
 22 20  2  0  0  0  0
 23 19  2  0  0  0  0
 24 21  2  0  0  0  0
 24 22  1  0  0  0  0
 27 29  1  0  0  0  0
 27 26  1  0  0  0  0
 29 33  2  0  0  0  0
 30 28  1  1  0  0  0
 30 34  1  0  0  0  0
 30 29  1  0  0  0  0
 31 34  1  0  0  0  0
 31 32  1  0  0  0  0
 33 32  1  0  0  0  0
M  END
>  <MODEL>
9

>  <REMARK>
 VINA RESULT:     -10.1      3.433      4.414
  Name = 
  3 active torsions:
  status: ('A' for Active; 'I' for Inactive)
    1  A    between atoms: N_3  and  C_17
    2  A    between atoms: C_12  and  C_28
    3  A    between atoms: C_17  and  C_29
                            x       y       z     vdW  Elec       q    Type
                         _______ _______ _______ _____ _____    ______ ____

>  <TORSDO>
F 3

$$$$
