=
 OpenBabel10262420413D

 55 56  0  0  1  0  0  0  0  0999 V2000
  183.6930  179.8380  140.0930 O   0  0  0  0  0  0  0  0  0  0  0  0
  182.4760  178.7490  141.7690 N   0  0  0  0  0  0  0  0  0  0  0  0
  182.6620  179.1840  140.4040 C   0  0  0  0  0  0  0  0  0  0  0  0
  183.6510  178.6660  142.6550 C   0  0  2  0  0  3  0  0  0  0  0  0
  184.0310  180.0400  143.2000 C   0  0  0  0  0  1  0  0  0  0  0  0
  185.4950  177.1660  143.0110 O   0  0  0  0  0  1  0  0  0  0  0  0
  184.8520  177.9310  142.0360 C   0  0  2  0  0  3  0  0  0  0  0  0
  185.8530  178.8770  141.3780 C   0  0  0  0  0  2  0  0  0  0  0  0
  187.1460  178.9180  142.1740 C   0  0  0  0  0  2  0  0  0  0  0  0
  188.3410  178.7490  141.2480 C   0  0  0  0  0  2  0  0  0  0  0  0
  188.7980  177.2910  141.2230 C   0  0  1  0  0  3  0  0  0  0  0  0
  189.3580  176.7270  138.8550 C   0  0  0  0  0  3  0  0  0  0  0  0
  191.6560  176.6270  138.0690 C   0  0  0  0  0  0  0  0  0  0  0  0
  191.1790  177.1760  140.3870 C   0  0  0  0  0  3  0  0  0  0  0  0
  192.0990  176.9610  139.3570 C   0  0  0  0  0  3  0  0  0  0  0  0
  190.2790  176.5120  137.8250 C   0  0  0  0  0  3  0  0  0  0  0  0
  189.8030  177.0590  140.1380 C   0  0  0  0  0  0  0  0  0  0  0  0
  192.6020  176.4070  137.0140 N   0  0  0  0  0  0  0  0  0  0  0  0
  193.9100  176.7110  137.1950 O   0  0  0  0  0  1  0  0  0  0  0  0
  192.1910  175.8760  135.7840 N   0  0  0  0  0  1  0  0  0  0  0  0
  189.3130  177.7150  143.4920 N   0  0  0  0  0  0  0  0  0  0  0  0
  189.3540  176.9080  142.5110 N   0  0  0  0  0  0  0  0  0  0  0  0
  191.1320  176.8400  144.8610 C   0  0  0  0  0  3  0  0  0  0  0  0
  189.6370  177.2360  147.1900 C   0  0  0  0  0  0  0  0  0  0  0  0
  189.0930  177.5690  145.9460 C   0  0  0  0  0  3  0  0  0  0  0  0
  191.6750  176.5080  146.1050 C   0  0  0  0  0  3  0  0  0  0  0  0
  189.8410  177.3720  144.7750 C   0  0  0  0  0  0  0  0  0  0  0  0
  188.9130  177.4290  148.3180 F   0  0  0  0  0  0  0  0  0  0  0  0
  190.9280  176.7060  147.2690 C   0  0  0  0  0  3  0  0  0  0  0  0
  181.1430  178.3860  142.2560 C   0  0  0  0  0  2  0  0  0  0  0  0
  179.4870  178.6510  144.1090 C   0  0  0  0  0  1  0  0  0  0  0  0
  180.7750  179.1740  143.5050 C   0  0  0  0  0  2  0  0  0  0  0  0
  181.6730  178.8690  139.3100 C   0  0  2  0  0  3  0  0  0  0  0  0
  180.4090  180.6940  140.2500 O   0  0  0  0  0  1  0  0  0  0  0  0
  180.6740  180.0040  139.0640 C   0  0  1  0  0  3  0  0  0  0  0  0
  181.9040  182.0850  138.4510 O   0  0  0  0  0  1  0  0  0  0  0  0
  181.1960  180.9640  138.0440 C   0  0  0  0  0  0  0  0  0  0  0  0
  180.9920  180.7650  136.8160 O   0  0  0  0  0  0  0  0  0  0  0  0
  180.9630  177.5360  139.5620 C   0  0  0  0  0  2  0  0  0  0  0  0
  181.0620  176.5630  138.3810 C   0  0  2  0  0  0  0  0  0  0  0  0
  182.9330  175.9050  139.8480 O   0  0  0  0  0  1  0  0  0  0  0  0
  182.4090  175.8010  138.5540 C   0  0  2  0  0  3  0  0  0  0  0  0
  183.4740  176.1410  137.4980 C   0  0  1  0  0  3  0  0  0  0  0  0
  184.5710  177.0450  138.0380 C   0  0  0  0  0  1  0  0  0  0  0  0
  184.2180  174.8040  135.6690 O   0  0  0  0  0  0  0  0  0  0  0  0
  184.0590  174.8950  136.9150 C   0  0  0  0  0  0  0  0  0  0  0  0
  184.4020  173.8250  137.7330 O   0  0  0  0  0  1  0  0  0  0  0  0
  181.0730  177.4460  137.1120 C   0  0  0  0  0  2  0  0  0  0  0  0
  179.8090  177.5880  136.5350 O   0  0  0  0  0  0  0  0  0  0  0  0
  179.9830  177.1880  135.2110 C   0  0  0  0  0  2  0  0  0  0  0  0
  181.3820  177.5440  134.7560 C   0  0  0  0  0  1  0  0  0  0  0  0
  179.9280  175.7060  138.4550 O   0  0  0  0  0  0  0  0  0  0  0  0
  180.2270  174.4130  137.9940 C   0  0  0  0  0  2  0  0  0  0  0  0
  179.0130  173.8140  137.3090 C   0  0  0  0  0  2  0  0  0  0  0  0
  179.1220  172.3030  137.2740 C   0  0  0  0  0  1  0  0  0  0  0  0
  1  3  2  0  0  0  0
  2 30  1  0  0  0  0
  2  4  1  0  0  0  0
  3  2  1  0  0  0  0
  4  5  1  6  0  0  0
  7  4  1  0  0  0  0
  7  6  1  1  0  0  0
  8  7  1  0  0  0  0
  8  9  1  0  0  0  0
 10  9  1  0  0  0  0
 11 10  1  1  0  0  0
 11 22  1  0  0  0  0
 12 17  1  0  0  0  0
 13 15  2  0  0  0  0
 15 14  1  0  0  0  0
 16 13  1  0  0  0  0
 16 12  2  0  0  0  0
 17 14  2  0  0  0  0
 17 11  1  0  0  0  0
 18 19  1  0  0  0  0
 18 13  1  0  0  0  0
 20 18  1  0  0  0  0
 21 27  1  0  0  0  0
 22 21  2  0  0  0  0
 23 26  1  0  0  0  0
 24 29  1  0  0  0  0
 24 28  1  0  0  0  0
 25 24  2  0  0  0  0
 26 29  2  0  0  0  0
 27 23  2  0  0  0  0
 27 25  1  0  0  0  0
 30 32  1  0  0  0  0
 32 31  1  0  0  0  0
 33 39  1  1  0  0  0
 33  3  1  0  0  0  0
 35 33  1  0  0  0  0
 35 34  1  1  0  0  0
 37 36  1  0  0  0  0
 37 35  1  0  0  0  0
 38 37  2  0  0  0  0
 40 48  1  6  0  0  0
 40 52  1  0  0  0  0
 40 42  1  0  0  0  0
 40 39  1  0  0  0  0
 42 41  1  1  0  0  0
 43 44  1  1  0  0  0
 43 42  1  0  0  0  0
 45 46  2  0  0  0  0
 46 43  1  0  0  0  0
 46 47  1  0  0  0  0
 49 48  1  0  0  0  0
 50 49  1  0  0  0  0
 51 50  1  0  0  0  0
 53 52  1  0  0  0  0
 54 53  1  0  0  0  0
 55 54  1  0  0  0  0
M  END
>  <MODEL>
1

>  <REMARK>
 VINA RESULT:      -5.3      0.000      0.000
  Name = 
  26 active torsions:
  status: ('A' for Active; 'I' for Inactive)
    1  A    between atoms: C_1  and  C_30
    2  A    between atoms: N_2  and  C_44
    3  A    between atoms: C_6  and  C_8
    4  A    between atoms: C_6  and  O_20
    5  A    between atoms: C_6  and  C_38
    6  A    between atoms: C_6  and  C_46
    7  A    between atoms: C_7  and  C_8
    8  A    between atoms: C_7  and  C_23
    9  A    between atoms: C_7  and  C_43
   10  A    between atoms: N_10  and  C_32
   11  A    between atoms: C_11  and  C_29
   12  A    between atoms: C_11  and  C_38
   13  A    between atoms: C_12  and  O_14
   14  A    between atoms: O_14  and  C_46
   15  A    between atoms: C_16  and  N_17
   16  A    between atoms: C_16  and  C_26
   17  A    between atoms: N_17  and  C_37
   18  A    between atoms: C_19  and  C_45
   19  A    between atoms: C_19  and  C_49
   20  A    between atoms: O_20  and  C_30
   21  A    between atoms: C_26  and  C_45
   22  A    between atoms: N_28  and  C_33
   23  A    between atoms: C_33  and  C_49
   24  A    between atoms: C_33  and  C_52
   25  A    between atoms: C_35  and  C_43
   26  A    between atoms: C_37  and  C_40
                            x       y       z     vdW  Elec       q    Type
                         _______ _______ _______ _____ _____    ______ ____

>  <TORSDO>
F 26

$$$$
=
 OpenBabel10262420413D

 55 56  0  0  1  0  0  0  0  0999 V2000
  183.2220  178.2660  135.9340 O   0  0  0  0  0  0  0  0  0  0  0  0
  184.4860  178.3110  137.9030 N   0  0  0  0  0  0  0  0  0  0  0  0
  183.2280  178.3020  137.1940 C   0  0  0  0  0  0  0  0  0  0  0  0
  185.6960  177.8290  137.2110 C   0  0  2  0  0  3  0  0  0  0  0  0
  185.8570  176.3190  137.3690 C   0  0  0  0  0  1  0  0  0  0  0  0
  187.1930  179.6270  136.6670 O   0  0  0  0  0  1  0  0  0  0  0  0
  186.9760  178.5960  137.5820 C   0  0  2  0  0  3  0  0  0  0  0  0
  188.2080  177.6970  137.6500 C   0  0  0  0  0  2  0  0  0  0  0  0
  189.2460  178.2890  138.5890 C   0  0  0  0  0  2  0  0  0  0  0  0
  189.3230  177.4740  139.8700 C   0  0  0  0  0  2  0  0  0  0  0  0
  190.7380  177.5130  140.4470 C   0  0  1  0  0  3  0  0  0  0  0  0
  189.7480  178.0200  142.6830 C   0  0  0  0  0  3  0  0  0  0  0  0
  190.6410  177.0580  144.7290 C   0  0  0  0  0  0  0  0  0  0  0  0
  191.6540  176.5280  142.5850 C   0  0  0  0  0  3  0  0  0  0  0  0
  191.6130  176.3850  143.9750 C   0  0  0  0  0  3  0  0  0  0  0  0
  189.7090  177.8760  144.0730 C   0  0  0  0  0  3  0  0  0  0  0  0
  190.7190  177.3480  141.9350 C   0  0  0  0  0  0  0  0  0  0  0  0
  190.6030  176.9090  146.1550 N   0  0  0  0  0  0  0  0  0  0  0  0
  189.4150  176.8240  146.8010 O   0  0  0  0  0  1  0  0  0  0  0  0
  191.7890  176.8480  146.8990 N   0  0  0  0  0  1  0  0  0  0  0  0
  192.2810  176.7500  138.8240 N   0  0  0  0  0  0  0  0  0  0  0  0
  191.5640  176.4820  139.8390 N   0  0  0  0  0  0  0  0  0  0  0  0
  192.6910  175.1720  137.0110 C   0  0  0  0  0  3  0  0  0  0  0  0
  195.1440  174.4400  138.1350 C   0  0  0  0  0  0  0  0  0  0  0  0
  194.3440  175.3970  138.7660 C   0  0  0  0  0  3  0  0  0  0  0  0
  193.4920  174.2160  136.3800 C   0  0  0  0  0  3  0  0  0  0  0  0
  193.1120  175.7670  138.2050 C   0  0  0  0  0  0  0  0  0  0  0  0
  196.3330  174.0870  138.6790 F   0  0  0  0  0  0  0  0  0  0  0  0
  194.7180  173.8500  136.9410 C   0  0  0  0  0  3  0  0  0  0  0  0
  184.5520  178.7790  139.2890 C   0  0  0  0  0  2  0  0  0  0  0  0
  186.0940  178.8760  141.2540 C   0  0  0  0  0  1  0  0  0  0  0  0
  185.6320  178.0470  140.0720 C   0  0  0  0  0  2  0  0  0  0  0  0
  181.8970  178.3140  137.9010 C   0  0  2  0  0  3  0  0  0  0  0  0
  181.9400  180.7040  138.2120 O   0  0  0  0  0  1  0  0  0  0  0  0
  181.7480  179.4880  138.8730 C   0  0  1  0  0  3  0  0  0  0  0  0
  179.2650  179.6900  138.7330 O   0  0  0  0  0  0  0  0  0  0  0  0
  180.3950  179.4860  139.5120 C   0  0  0  0  0  0  0  0  0  0  0  0
  180.2750  179.3050  140.7530 O   0  0  0  0  0  1  0  0  0  0  0  0
  181.6140  176.9740  138.5870 C   0  0  0  0  0  2  0  0  0  0  0  0
  180.9150  175.9600  137.6740 C   0  0  2  0  0  0  0  0  0  0  0  0
  182.3780  175.2560  135.8180 O   0  0  0  0  0  1  0  0  0  0  0  0
  182.0270  175.0050  137.1490 C   0  0  2  0  0  3  0  0  0  0  0  0
  181.7420  173.5100  137.3720 C   0  0  1  0  0  3  0  0  0  0  0  0
  180.5460  173.0130  136.5750 C   0  0  0  0  0  1  0  0  0  0  0  0
  184.0910  173.1040  137.4110 O   0  0  0  0  0  1  0  0  0  0  0  0
  182.9530  172.6880  137.0700 C   0  0  0  0  0  0  0  0  0  0  0  0
  182.8360  171.4820  136.3890 O   0  0  0  0  0  0  0  0  0  0  0  0
  180.2960  176.7900  136.5240 C   0  0  0  0  0  2  0  0  0  0  0  0
  179.2510  176.1300  135.8760 O   0  0  0  0  0  0  0  0  0  0  0  0
  178.9410  176.9470  134.7910 C   0  0  0  0  0  2  0  0  0  0  0  0
  179.2480  178.3880  135.1410 C   0  0  0  0  0  1  0  0  0  0  0  0
  179.9410  175.2920  138.4670 O   0  0  0  0  0  0  0  0  0  0  0  0
  179.4770  176.1090  139.5120 C   0  0  0  0  0  2  0  0  0  0  0  0
  179.4490  175.3230  140.8090 C   0  0  0  0  0  2  0  0  0  0  0  0
  179.4070  173.8360  140.5200 C   0  0  0  0  0  1  0  0  0  0  0  0
  1  3  2  0  0  0  0
  2 30  1  0  0  0  0
  3 33  1  0  0  0  0
  3  2  1  0  0  0  0
  4  5  1  1  0  0  0
  4  7  1  0  0  0  0
  4  2  1  0  0  0  0
  7  6  1  6  0  0  0
  7  8  1  0  0  0  0
  8  9  1  0  0  0  0
  9 10  1  0  0  0  0
 11 10  1  6  0  0  0
 11 17  1  0  0  0  0
 12 16  1  0  0  0  0
 13 18  1  0  0  0  0
 14 15  2  0  0  0  0
 15 13  1  0  0  0  0
 16 13  2  0  0  0  0
 17 14  1  0  0  0  0
 17 12  2  0  0  0  0
 18 19  1  0  0  0  0
 18 20  1  0  0  0  0
 21 22  2  0  0  0  0
 22 11  1  0  0  0  0
 23 27  1  0  0  0  0
 24 28  1  0  0  0  0
 24 25  1  0  0  0  0
 26 29  1  0  0  0  0
 26 23  2  0  0  0  0
 27 25  2  0  0  0  0
 27 21  1  0  0  0  0
 29 24  2  0  0  0  0
 30 32  1  0  0  0  0
 32 31  1  0  0  0  0
 33 39  1  1  0  0  0
 33 35  1  0  0  0  0
 35 34  1  6  0  0  0
 35 37  1  0  0  0  0
 36 37  2  0  0  0  0
 37 38  1  0  0  0  0
 40 48  1  6  0  0  0
 40 52  1  0  0  0  0
 40 39  1  0  0  0  0
 42 41  1  6  0  0  0
 42 43  1  0  0  0  0
 42 40  1  0  0  0  0
 43 44  1  6  0  0  0
 46 43  1  0  0  0  0
 46 45  1  0  0  0  0
 47 46  2  0  0  0  0
 49 48  1  0  0  0  0
 50 51  1  0  0  0  0
 50 49  1  0  0  0  0
 52 53  1  0  0  0  0
 53 54  1  0  0  0  0
 55 54  1  0  0  0  0
M  END
>  <MODEL>
2

>  <REMARK>
 VINA RESULT:      -4.7      2.958      5.670
  Name = 
  26 active torsions:
  status: ('A' for Active; 'I' for Inactive)
    1  A    between atoms: C_1  and  C_30
    2  A    between atoms: N_2  and  C_44
    3  A    between atoms: C_6  and  C_8
    4  A    between atoms: C_6  and  O_20
    5  A    between atoms: C_6  and  C_38
    6  A    between atoms: C_6  and  C_46
    7  A    between atoms: C_7  and  C_8
    8  A    between atoms: C_7  and  C_23
    9  A    between atoms: C_7  and  C_43
   10  A    between atoms: N_10  and  C_32
   11  A    between atoms: C_11  and  C_29
   12  A    between atoms: C_11  and  C_38
   13  A    between atoms: C_12  and  O_14
   14  A    between atoms: O_14  and  C_46
   15  A    between atoms: C_16  and  N_17
   16  A    between atoms: C_16  and  C_26
   17  A    between atoms: N_17  and  C_37
   18  A    between atoms: C_19  and  C_45
   19  A    between atoms: C_19  and  C_49
   20  A    between atoms: O_20  and  C_30
   21  A    between atoms: C_26  and  C_45
   22  A    between atoms: N_28  and  C_33
   23  A    between atoms: C_33  and  C_49
   24  A    between atoms: C_33  and  C_52
   25  A    between atoms: C_35  and  C_43
   26  A    between atoms: C_37  and  C_40
                            x       y       z     vdW  Elec       q    Type
                         _______ _______ _______ _____ _____    ______ ____

>  <TORSDO>
F 26

$$$$
=
 OpenBabel10262420413D

 55 56  0  0  1  0  0  0  0  0999 V2000
  187.5410  175.6510  143.1120 O   0  0  0  0  0  0  0  0  0  0  0  0
  189.1820  177.2800  143.4710 N   0  0  0  0  0  0  0  0  0  0  0  0
  187.8180  176.8080  143.5270 C   0  0  0  0  0  0  0  0  0  0  0  0
  190.2720  176.2930  143.3710 C   0  0  2  0  0  3  0  0  0  0  0  0
  191.1130  176.2670  144.6440 C   0  0  0  0  0  1  0  0  0  0  0  0
  192.3530  177.0370  142.4260 O   0  0  0  0  0  1  0  0  0  0  0  0
  191.1330  176.4390  142.1040 C   0  0  2  0  0  3  0  0  0  0  0  0
  190.4400  177.2370  141.0030 C   0  0  0  0  0  2  0  0  0  0  0  0
  191.2150  177.1270  139.7010 C   0  0  0  0  0  2  0  0  0  0  0  0
  190.6950  175.9600  138.8750 C   0  0  0  0  0  2  0  0  0  0  0  0
  191.0580  176.1420  137.4020 C   0  0  1  0  0  3  0  0  0  0  0  0
  192.6930  174.2570  137.5070 C   0  0  0  0  0  3  0  0  0  0  0  0
  194.9210  174.4370  136.5530 C   0  0  0  0  0  0  0  0  0  0  0  0
  193.3790  176.3110  136.4220 C   0  0  0  0  0  3  0  0  0  0  0  0
  194.6300  175.7480  136.1490 C   0  0  0  0  0  3  0  0  0  0  0  0
  193.9440  173.6960  137.2340 C   0  0  0  0  0  3  0  0  0  0  0  0
  192.4060  175.5640  137.1030 C   0  0  0  0  0  0  0  0  0  0  0  0
  196.2050  173.8640  136.2720 N   0  0  0  0  0  0  0  0  0  0  0  0
  196.8620  174.1850  135.1310 O   0  0  0  0  0  1  0  0  0  0  0  0
  196.7990  172.9650  137.1690 N   0  0  0  0  0  1  0  0  0  0  0  0
  188.8960  175.2640  137.0110 N   0  0  0  0  0  0  0  0  0  0  0  0
  190.0510  175.5300  136.5500 N   0  0  0  0  0  0  0  0  0  0  0  0
  186.8380  175.4730  135.7200 C   0  0  0  0  0  3  0  0  0  0  0  0
  186.9080  172.7530  135.0740 C   0  0  0  0  0  0  0  0  0  0  0  0
  187.9100  173.3070  135.8760 C   0  0  0  0  0  3  0  0  0  0  0  0
  185.8360  174.9180  134.9170 C   0  0  0  0  0  3  0  0  0  0  0  0
  187.8780  174.6710  136.2020 C   0  0  0  0  0  0  0  0  0  0  0  0
  186.9430  171.4360  134.7600 F   0  0  0  0  0  0  0  0  0  0  0  0
  185.8710  173.5600  134.5940 C   0  0  0  0  0  3  0  0  0  0  0  0
  189.4720  178.7150  143.5270 C   0  0  0  0  0  2  0  0  0  0  0  0
  191.6350  179.7830  144.1800 C   0  0  0  0  0  1  0  0  0  0  0  0
  190.4090  179.0470  144.6800 C   0  0  0  0  0  2  0  0  0  0  0  0
  186.6930  177.6410  144.0870 C   0  0  2  0  0  3  0  0  0  0  0  0
  187.6900  177.2850  146.2530 O   0  0  0  0  0  1  0  0  0  0  0  0
  186.4690  177.4120  145.5850 C   0  0  1  0  0  3  0  0  0  0  0  0
  184.5950  178.2690  146.9910 O   0  0  0  0  0  1  0  0  0  0  0  0
  185.6950  178.5400  146.1890 C   0  0  0  0  0  0  0  0  0  0  0  0
  186.0300  179.7340  145.9700 O   0  0  0  0  0  0  0  0  0  0  0  0
  185.4000  177.4480  143.2880 C   0  0  0  0  0  2  0  0  0  0  0  0
  184.9790  178.6960  142.5040 C   0  0  2  0  0  0  0  0  0  0  0  0
  184.0490  177.0720  140.8990 O   0  0  0  0  0  1  0  0  0  0  0  0
  183.7950  178.2610  141.5910 C   0  0  2  0  0  3  0  0  0  0  0  0
  183.2880  179.3570  140.6390 C   0  0  1  0  0  3  0  0  0  0  0  0
  183.9520  179.3020  139.2710 C   0  0  0  0  0  1  0  0  0  0  0  0
  181.2370  178.1890  140.3000 O   0  0  0  0  0  0  0  0  0  0  0  0
  181.8010  179.2960  140.5040 C   0  0  0  0  0  0  0  0  0  0  0  0
  181.0380  180.4560  140.5710 O   0  0  0  0  0  1  0  0  0  0  0  0
  186.2160  179.1010  141.6680 C   0  0  0  0  0  2  0  0  0  0  0  0
  186.6410  178.0940  140.7990 O   0  0  0  0  0  0  0  0  0  0  0  0
  187.7220  178.6520  140.1200 C   0  0  0  0  0  2  0  0  0  0  0  0
  187.7070  178.1870  138.6790 C   0  0  0  0  0  1  0  0  0  0  0  0
  184.6070  179.6800  143.4620 O   0  0  0  0  0  0  0  0  0  0  0  0
  183.2130  179.8530  143.5100 C   0  0  0  0  0  2  0  0  0  0  0  0
  182.6030  178.8670  144.4880 C   0  0  0  0  0  2  0  0  0  0  0  0
  181.1590  178.5910  144.1210 C   0  0  0  0  0  1  0  0  0  0  0  0
  1  3  2  0  0  0  0
  2 30  1  0  0  0  0
  2  3  1  0  0  0  0
  3 33  1  0  0  0  0
  4  2  1  0  0  0  0
  4  5  1  1  0  0  0
  7  6  1  1  0  0  0
  7  4  1  0  0  0  0
  8  7  1  0  0  0  0
  9  8  1  0  0  0  0
 10  9  1  0  0  0  0
 11 10  1  1  0  0  0
 13 16  2  0  0  0  0
 14 17  1  0  0  0  0
 15 14  2  0  0  0  0
 15 13  1  0  0  0  0
 16 12  1  0  0  0  0
 17 11  1  0  0  0  0
 17 12  2  0  0  0  0
 18 13  1  0  0  0  0
 18 20  1  0  0  0  0
 19 18  1  0  0  0  0
 22 21  2  0  0  0  0
 22 11  1  0  0  0  0
 23 27  1  0  0  0  0
 24 25  1  0  0  0  0
 25 27  2  0  0  0  0
 26 23  2  0  0  0  0
 27 21  1  0  0  0  0
 28 24  1  0  0  0  0
 29 26  1  0  0  0  0
 29 24  2  0  0  0  0
 30 32  1  0  0  0  0
 31 32  1  0  0  0  0
 33 39  1  6  0  0  0
 33 35  1  0  0  0  0
 35 37  1  0  0  0  0
 35 34  1  1  0  0  0
 37 36  1  0  0  0  0
 38 37  2  0  0  0  0
 40 48  1  6  0  0  0
 40 39  1  0  0  0  0
 40 52  1  0  0  0  0
 42 41  1  6  0  0  0
 42 40  1  0  0  0  0
 43 44  1  6  0  0  0
 43 42  1  0  0  0  0
 45 46  2  0  0  0  0
 46 47  1  0  0  0  0
 46 43  1  0  0  0  0
 49 48  1  0  0  0  0
 50 49  1  0  0  0  0
 51 50  1  0  0  0  0
 52 53  1  0  0  0  0
 53 54  1  0  0  0  0
 55 54  1  0  0  0  0
M  END
>  <MODEL>
3

>  <REMARK>
 VINA RESULT:      -4.5      3.736      7.911
  Name = 
  26 active torsions:
  status: ('A' for Active; 'I' for Inactive)
    1  A    between atoms: C_1  and  C_30
    2  A    between atoms: N_2  and  C_44
    3  A    between atoms: C_6  and  C_8
    4  A    between atoms: C_6  and  O_20
    5  A    between atoms: C_6  and  C_38
    6  A    between atoms: C_6  and  C_46
    7  A    between atoms: C_7  and  C_8
    8  A    between atoms: C_7  and  C_23
    9  A    between atoms: C_7  and  C_43
   10  A    between atoms: N_10  and  C_32
   11  A    between atoms: C_11  and  C_29
   12  A    between atoms: C_11  and  C_38
   13  A    between atoms: C_12  and  O_14
   14  A    between atoms: O_14  and  C_46
   15  A    between atoms: C_16  and  N_17
   16  A    between atoms: C_16  and  C_26
   17  A    between atoms: N_17  and  C_37
   18  A    between atoms: C_19  and  C_45
   19  A    between atoms: C_19  and  C_49
   20  A    between atoms: O_20  and  C_30
   21  A    between atoms: C_26  and  C_45
   22  A    between atoms: N_28  and  C_33
   23  A    between atoms: C_33  and  C_49
   24  A    between atoms: C_33  and  C_52
   25  A    between atoms: C_35  and  C_43
   26  A    between atoms: C_37  and  C_40
                            x       y       z     vdW  Elec       q    Type
                         _______ _______ _______ _____ _____    ______ ____

>  <TORSDO>
F 26

$$$$
=
 OpenBabel10262420413D

 55 56  0  0  1  0  0  0  0  0999 V2000
  185.9640  178.2690  141.1380 O   0  0  0  0  0  0  0  0  0  0  0  0
  183.6900  178.4130  141.6690 N   0  0  0  0  0  0  0  0  0  0  0  0
  185.0730  178.2050  142.0280 C   0  0  0  0  0  0  0  0  0  0  0  0
  183.3780  179.1260  140.4170 C   0  0  2  0  0  3  0  0  0  0  0  0
  181.9430  178.8600  139.9720 C   0  0  0  0  0  1  0  0  0  0  0  0
  184.7010  180.0900  138.6580 O   0  0  0  0  0  1  0  0  0  0  0  0
  184.3950  178.8830  139.2890 C   0  0  2  0  0  3  0  0  0  0  0  0
  183.9060  177.8700  138.2570 C   0  0  0  0  0  2  0  0  0  0  0  0
  184.8800  177.7860  137.0940 C   0  0  0  0  0  2  0  0  0  0  0  0
  186.1930  177.1660  137.5490 C   0  0  0  0  0  2  0  0  0  0  0  0
  186.7430  176.2270  136.4760 C   0  0  1  0  0  3  0  0  0  0  0  0
  188.9750  176.8930  135.5760 C   0  0  0  0  0  3  0  0  0  0  0  0
  191.0480  176.1110  136.5770 C   0  0  0  0  0  0  0  0  0  0  0  0
  188.9080  175.4220  137.4980 C   0  0  0  0  0  3  0  0  0  0  0  0
  190.3050  175.3920  137.5240 C   0  0  0  0  0  3  0  0  0  0  0  0
  190.3730  176.8620  135.6030 C   0  0  0  0  0  3  0  0  0  0  0  0
  188.2380  176.1740  136.5210 C   0  0  0  0  0  0  0  0  0  0  0  0
  192.4810  176.0790  136.6070 N   0  0  0  0  0  0  0  0  0  0  0  0
  193.1730  175.5090  135.5920 O   0  0  0  0  0  1  0  0  0  0  0  0
  193.1860  176.6350  137.6830 N   0  0  0  0  0  1  0  0  0  0  0  0
  185.2030  174.5190  135.9250 N   0  0  0  0  0  0  0  0  0  0  0  0
  186.1890  174.8920  136.6350 N   0  0  0  0  0  0  0  0  0  0  0  0
  185.2890  172.1290  135.4460 C   0  0  0  0  0  3  0  0  0  0  0  0
  182.9230  171.7060  136.8750 C   0  0  0  0  0  0  0  0  0  0  0  0
  183.4500  172.9960  136.7620 C   0  0  0  0  0  3  0  0  0  0  0  0
  184.7610  170.8390  135.5600 C   0  0  0  0  0  3  0  0  0  0  0  0
  184.6370  173.2120  136.0460 C   0  0  0  0  0  0  0  0  0  0  0  0
  181.7780  171.5020  137.5690 F   0  0  0  0  0  0  0  0  0  0  0  0
  183.5790  170.6280  136.2750 C   0  0  0  0  0  3  0  0  0  0  0  0
  182.6180  177.9320  142.5450 C   0  0  0  0  0  2  0  0  0  0  0  0
  181.1190  178.7310  144.3780 C   0  0  0  0  0  1  0  0  0  0  0  0
  181.7560  179.0810  143.0480 C   0  0  0  0  0  2  0  0  0  0  0  0
  185.5140  177.9310  143.4430 C   0  0  2  0  0  3  0  0  0  0  0  0
  185.1140  180.2990  143.6500 O   0  0  0  0  0  1  0  0  0  0  0  0
  185.7470  179.2090  144.2540 C   0  0  1  0  0  3  0  0  0  0  0  0
  184.1880  178.1840  145.9100 O   0  0  0  0  0  0  0  0  0  0  0  0
  185.2340  179.0570  145.6510 C   0  0  0  0  0  0  0  0  0  0  0  0
  185.7430  179.7200  146.5930 O   0  0  0  0  0  1  0  0  0  0  0  0
  186.7360  177.0070  143.4820 C   0  0  0  0  0  2  0  0  0  0  0  0
  188.0680  177.7580  143.3710 C   0  0  2  0  0  0  0  0  0  0  0  0
  188.6160  175.4040  142.8810 O   0  0  0  0  0  1  0  0  0  0  0  0
  189.1280  176.7050  142.9320 C   0  0  2  0  0  3  0  0  0  0  0  0
  190.4410  176.7510  143.7320 C   0  0  1  0  0  3  0  0  0  0  0  0
  191.0440  175.3720  143.9520 C   0  0  0  0  0  1  0  0  0  0  0  0
  191.7510  178.7400  143.6340 O   0  0  0  0  0  1  0  0  0  0  0  0
  191.4310  177.6580  143.0750 C   0  0  0  0  0  0  0  0  0  0  0  0
  191.9780  177.3320  141.8400 O   0  0  0  0  0  0  0  0  0  0  0  0
  188.3630  178.2970  144.7900 C   0  0  0  0  0  2  0  0  0  0  0  0
  188.2400  177.3210  145.7810 O   0  0  0  0  0  0  0  0  0  0  0  0
  188.9970  177.8070  146.8450 C   0  0  0  0  0  2  0  0  0  0  0  0
  189.9540  176.7330  147.3160 C   0  0  0  0  0  1  0  0  0  0  0  0
  187.8820  178.7900  142.4090 O   0  0  0  0  0  0  0  0  0  0  0  0
  188.9560  178.8530  141.5050 C   0  0  0  0  0  2  0  0  0  0  0  0
  188.6340  178.0440  140.2620 C   0  0  0  0  0  2  0  0  0  0  0  0
  189.0660  178.7970  139.0200 C   0  0  0  0  0  1  0  0  0  0  0  0
  1  3  2  0  0  0  0
  2  3  1  0  0  0  0
  2 30  1  0  0  0  0
  3 33  1  0  0  0  0
  4  5  1  6  0  0  0
  4  2  1  0  0  0  0
  7  6  1  6  0  0  0
  7  4  1  0  0  0  0
  8  7  1  0  0  0  0
  9 10  1  0  0  0  0
  9  8  1  0  0  0  0
 11 17  1  0  0  0  0
 11 22  1  0  0  0  0
 11 10  1  1  0  0  0
 12 16  2  0  0  0  0
 12 17  1  0  0  0  0
 13 18  1  0  0  0  0
 13 15  2  0  0  0  0
 14 15  1  0  0  0  0
 16 13  1  0  0  0  0
 17 14  2  0  0  0  0
 18 20  1  0  0  0  0
 19 18  1  0  0  0  0
 21 27  1  0  0  0  0
 21 22  2  0  0  0  0
 23 26  2  0  0  0  0
 23 27  1  0  0  0  0
 24 28  1  0  0  0  0
 25 24  1  0  0  0  0
 26 29  1  0  0  0  0
 27 25  2  0  0  0  0
 29 24  2  0  0  0  0
 30 32  1  0  0  0  0
 32 31  1  0  0  0  0
 33 39  1  6  0  0  0
 33 35  1  0  0  0  0
 35 34  1  6  0  0  0
 35 37  1  0  0  0  0
 37 36  2  0  0  0  0
 37 38  1  0  0  0  0
 40 39  1  1  0  0  0
 40 48  1  0  0  0  0
 42 41  1  1  0  0  0
 42 40  1  0  0  0  0
 42 43  1  0  0  0  0
 43 44  1  6  0  0  0
 46 45  1  0  0  0  0
 46 43  1  0  0  0  0
 47 46  2  0  0  0  0
 48 49  1  0  0  0  0
 49 50  1  0  0  0  0
 50 51  1  0  0  0  0
 52 40  1  0  0  0  0
 53 52  1  0  0  0  0
 54 53  1  0  0  0  0
 55 54  1  0  0  0  0
M  END
>  <MODEL>
4

>  <REMARK>
 VINA RESULT:      -4.5      3.566      8.383
  Name = 
  26 active torsions:
  status: ('A' for Active; 'I' for Inactive)
    1  A    between atoms: C_1  and  C_30
    2  A    between atoms: N_2  and  C_44
    3  A    between atoms: C_6  and  C_8
    4  A    between atoms: C_6  and  O_20
    5  A    between atoms: C_6  and  C_38
    6  A    between atoms: C_6  and  C_46
    7  A    between atoms: C_7  and  C_8
    8  A    between atoms: C_7  and  C_23
    9  A    between atoms: C_7  and  C_43
   10  A    between atoms: N_10  and  C_32
   11  A    between atoms: C_11  and  C_29
   12  A    between atoms: C_11  and  C_38
   13  A    between atoms: C_12  and  O_14
   14  A    between atoms: O_14  and  C_46
   15  A    between atoms: C_16  and  N_17
   16  A    between atoms: C_16  and  C_26
   17  A    between atoms: N_17  and  C_37
   18  A    between atoms: C_19  and  C_45
   19  A    between atoms: C_19  and  C_49
   20  A    between atoms: O_20  and  C_30
   21  A    between atoms: C_26  and  C_45
   22  A    between atoms: N_28  and  C_33
   23  A    between atoms: C_33  and  C_49
   24  A    between atoms: C_33  and  C_52
   25  A    between atoms: C_35  and  C_43
   26  A    between atoms: C_37  and  C_40
                            x       y       z     vdW  Elec       q    Type
                         _______ _______ _______ _____ _____    ______ ____

>  <TORSDO>
F 26

$$$$
=
 OpenBabel10262420413D

 55 56  0  0  1  0  0  0  0  0999 V2000
  183.9430  177.3910  139.8030 O   0  0  0  0  0  0  0  0  0  0  0  0
  185.6250  178.1710  138.3750 N   0  0  0  0  0  0  0  0  0  0  0  0
  184.2410  178.0510  138.7720 C   0  0  0  0  0  0  0  0  0  0  0  0
  186.6770  177.9300  139.3800 C   0  0  2  0  0  3  0  0  0  0  0  0
  186.6090  178.9560  140.5070 C   0  0  0  0  0  1  0  0  0  0  0  0
  188.4230  176.4570  138.6340 O   0  0  0  0  0  1  0  0  0  0  0  0
  188.0910  177.8040  138.7880 C   0  0  2  0  0  3  0  0  0  0  0  0
  189.1520  178.5050  139.6320 C   0  0  0  0  0  2  0  0  0  0  0  0
  188.7670  178.4750  141.1010 C   0  0  0  0  0  2  0  0  0  0  0  0
  189.8180  177.7290  141.9080 C   0  0  0  0  0  2  0  0  0  0  0  0
  189.1570  176.7460  142.8730 C   0  0  1  0  0  3  0  0  0  0  0  0
  191.2240  176.2010  144.1650 C   0  0  0  0  0  3  0  0  0  0  0  0
  191.3570  176.5280  146.5700 C   0  0  0  0  0  0  0  0  0  0  0  0
  189.3140  177.0720  145.3720 C   0  0  0  0  0  3  0  0  0  0  0  0
  190.0360  177.0000  146.5670 C   0  0  0  0  0  3  0  0  0  0  0  0
  191.9450  176.1290  145.3610 C   0  0  0  0  0  3  0  0  0  0  0  0
  189.9080  176.6720  144.1660 C   0  0  0  0  0  0  0  0  0  0  0  0
  192.0950  176.4550  147.7980 N   0  0  0  0  0  0  0  0  0  0  0  0
  191.9690  177.4310  148.7290 O   0  0  0  0  0  1  0  0  0  0  0  0
  192.9530  175.3770  148.0520 N   0  0  0  0  0  1  0  0  0  0  0  0
  187.4460  177.6830  144.2090 N   0  0  0  0  0  0  0  0  0  0  0  0
  187.7740  177.1230  143.1170 N   0  0  0  0  0  0  0  0  0  0  0  0
  185.7080  178.2980  145.8070 C   0  0  0  0  0  3  0  0  0  0  0  0
  183.8600  178.6480  143.7370 C   0  0  0  0  0  0  0  0  0  0  0  0
  185.1690  178.2520  143.4460 C   0  0  0  0  0  3  0  0  0  0  0  0
  184.4000  178.6940  146.0970 C   0  0  0  0  0  3  0  0  0  0  0  0
  186.0990  178.0760  144.4820 C   0  0  0  0  0  0  0  0  0  0  0  0
  182.9660  178.8190  142.7350 F   0  0  0  0  0  0  0  0  0  0  0  0
  183.4760  178.8700  145.0640 C   0  0  0  0  0  3  0  0  0  0  0  0
  185.9720  178.5380  137.0000 C   0  0  0  0  0  2  0  0  0  0  0  0
  187.7770  177.5490  135.5810 C   0  0  0  0  0  1  0  0  0  0  0  0
  186.4100  177.3220  136.1950 C   0  0  0  0  0  2  0  0  0  0  0  0
  183.1180  178.7070  138.0090 C   0  0  2  0  0  3  0  0  0  0  0  0
  182.6160  179.8040  140.0970 O   0  0  0  0  0  1  0  0  0  0  0  0
  182.0440  179.3030  138.9240 C   0  0  1  0  0  3  0  0  0  0  0  0
  180.4850  181.2500  138.9660 O   0  0  0  0  0  1  0  0  0  0  0  0
  181.3010  180.4010  138.2330 C   0  0  0  0  0  0  0  0  0  0  0  0
  181.4070  180.5580  136.9870 O   0  0  0  0  0  0  0  0  0  0  0  0
  182.5130  177.7560  136.9730 C   0  0  0  0  0  2  0  0  0  0  0  0
  181.5580  176.7220  137.5820 C   0  0  2  0  0  0  0  0  0  0  0  0
  183.6710  175.4830  137.2950 O   0  0  0  0  0  1  0  0  0  0  0  0
  182.2950  175.3520  137.5130 C   0  0  2  0  0  3  0  0  0  0  0  0
  181.6740  174.3430  136.5320 C   0  0  1  0  0  3  0  0  0  0  0  0
  182.6240  173.9520  135.4110 C   0  0  0  0  0  1  0  0  0  0  0  0
  180.1350  173.1930  137.9440 O   0  0  0  0  0  1  0  0  0  0  0  0
  181.1880  173.1290  137.2560 C   0  0  0  0  0  0  0  0  0  0  0  0
  181.9040  171.9390  137.2000 O   0  0  0  0  0  0  0  0  0  0  0  0
  180.3010  176.7330  136.6810 C   0  0  0  0  0  2  0  0  0  0  0  0
  179.8330  178.0200  136.4130 O   0  0  0  0  0  0  0  0  0  0  0  0
  179.3520  177.9520  135.1070 C   0  0  0  0  0  2  0  0  0  0  0  0
  178.9310  179.3330  134.6510 C   0  0  0  0  0  1  0  0  0  0  0  0
  181.2920  177.1410  138.9160 O   0  0  0  0  0  0  0  0  0  0  0  0
  180.7690  176.0920  139.6920 C   0  0  0  0  0  2  0  0  0  0  0  0
  179.3980  176.4730  140.2180 C   0  0  0  0  0  2  0  0  0  0  0  0
  179.5040  177.6760  141.1340 C   0  0  0  0  0  1  0  0  0  0  0  0
  2  3  1  0  0  0  0
  2  4  1  0  0  0  0
  3  1  2  0  0  0  0
  4  5  1  1  0  0  0
  7  6  1  1  0  0  0
  7  4  1  0  0  0  0
  7  8  1  0  0  0  0
  8  9  1  0  0  0  0
  9 10  1  0  0  0  0
 11 10  1  6  0  0  0
 11 22  1  0  0  0  0
 11 17  1  0  0  0  0
 12 17  2  0  0  0  0
 12 16  1  0  0  0  0
 13 18  1  0  0  0  0
 14 15  2  0  0  0  0
 15 13  1  0  0  0  0
 16 13  2  0  0  0  0
 17 14  1  0  0  0  0
 18 20  1  0  0  0  0
 18 19  1  0  0  0  0
 21 27  1  0  0  0  0
 22 21  2  0  0  0  0
 23 26  1  0  0  0  0
 24 29  1  0  0  0  0
 25 24  2  0  0  0  0
 25 27  1  0  0  0  0
 27 23  2  0  0  0  0
 28 24  1  0  0  0  0
 29 26  2  0  0  0  0
 30  2  1  0  0  0  0
 31 32  1  0  0  0  0
 32 30  1  0  0  0  0
 33 39  1  6  0  0  0
 33  3  1  0  0  0  0
 33 35  1  0  0  0  0
 35 34  1  1  0  0  0
 37 35  1  0  0  0  0
 37 36  1  0  0  0  0
 38 37  2  0  0  0  0
 39 40  1  0  0  0  0
 40 48  1  6  0  0  0
 40 52  1  0  0  0  0
 42 41  1  6  0  0  0
 42 40  1  0  0  0  0
 43 44  1  6  0  0  0
 43 46  1  0  0  0  0
 43 42  1  0  0  0  0
 46 45  1  0  0  0  0
 47 46  2  0  0  0  0
 49 48  1  0  0  0  0
 50 49  1  0  0  0  0
 51 50  1  0  0  0  0
 52 53  1  0  0  0  0
 53 54  1  0  0  0  0
 54 55  1  0  0  0  0
M  END
>  <MODEL>
5

>  <REMARK>
 VINA RESULT:      -4.0      2.765      5.394
  Name = 
  26 active torsions:
  status: ('A' for Active; 'I' for Inactive)
    1  A    between atoms: C_1  and  C_30
    2  A    between atoms: N_2  and  C_44
    3  A    between atoms: C_6  and  C_8
    4  A    between atoms: C_6  and  O_20
    5  A    between atoms: C_6  and  C_38
    6  A    between atoms: C_6  and  C_46
    7  A    between atoms: C_7  and  C_8
    8  A    between atoms: C_7  and  C_23
    9  A    between atoms: C_7  and  C_43
   10  A    between atoms: N_10  and  C_32
   11  A    between atoms: C_11  and  C_29
   12  A    between atoms: C_11  and  C_38
   13  A    between atoms: C_12  and  O_14
   14  A    between atoms: O_14  and  C_46
   15  A    between atoms: C_16  and  N_17
   16  A    between atoms: C_16  and  C_26
   17  A    between atoms: N_17  and  C_37
   18  A    between atoms: C_19  and  C_45
   19  A    between atoms: C_19  and  C_49
   20  A    between atoms: O_20  and  C_30
   21  A    between atoms: C_26  and  C_45
   22  A    between atoms: N_28  and  C_33
   23  A    between atoms: C_33  and  C_49
   24  A    between atoms: C_33  and  C_52
   25  A    between atoms: C_35  and  C_43
   26  A    between atoms: C_37  and  C_40
                            x       y       z     vdW  Elec       q    Type
                         _______ _______ _______ _____ _____    ______ ____

>  <TORSDO>
F 26

$$$$
=
 OpenBabel10262420413D

 55 56  0  0  1  0  0  0  0  0999 V2000
  190.1860  178.0510  136.7220 O   0  0  0  0  0  0  0  0  0  0  0  0
  188.7550  176.2730  137.2390 N   0  0  0  0  0  0  0  0  0  0  0  0
  190.0180  176.9660  137.3420 C   0  0  0  0  0  0  0  0  0  0  0  0
  187.5620  177.0260  136.8110 C   0  0  2  0  0  3  0  0  0  0  0  0
  187.7600  177.6310  135.4240 C   0  0  0  0  0  1  0  0  0  0  0  0
  187.8000  177.9340  139.0230 O   0  0  0  0  0  1  0  0  0  0  0  0
  187.0750  178.0630  137.8370 C   0  0  2  0  0  3  0  0  0  0  0  0
  185.5810  177.9520  138.1300 C   0  0  0  0  0  2  0  0  0  0  0  0
  184.7890  177.9060  136.8350 C   0  0  0  0  0  2  0  0  0  0  0  0
  183.3200  177.6380  137.1240 C   0  0  0  0  0  2  0  0  0  0  0  0
  183.1720  176.5860  138.2220 C   0  0  1  0  0  3  0  0  0  0  0  0
  182.8010  177.8540  140.3410 C   0  0  0  0  0  3  0  0  0  0  0  0
  180.6080  178.0050  141.3790 C   0  0  0  0  0  0  0  0  0  0  0  0
  180.9030  176.7500  139.3200 C   0  0  0  0  0  3  0  0  0  0  0  0
  180.0780  177.2170  140.3470 C   0  0  0  0  0  3  0  0  0  0  0  0
  181.9750  178.3200  141.3690 C   0  0  0  0  0  3  0  0  0  0  0  0
  182.2690  177.0690  139.3150 C   0  0  0  0  0  0  0  0  0  0  0  0
  179.7590  178.4830  142.4310 N   0  0  0  0  0  0  0  0  0  0  0  0
  179.7480  177.8620  143.6350 O   0  0  0  0  0  1  0  0  0  0  0  0
  178.9310  179.5950  142.2310 N   0  0  0  0  0  1  0  0  0  0  0  0
  183.4660  174.3890  137.3970 N   0  0  0  0  0  0  0  0  0  0  0  0
  182.6670  175.3390  137.6690 N   0  0  0  0  0  0  0  0  0  0  0  0
  181.7810  173.1070  136.1850 C   0  0  0  0  0  3  0  0  0  0  0  0
  183.2980  170.7720  136.4480 C   0  0  0  0  0  0  0  0  0  0  0  0
  183.7640  171.9730  136.9910 C   0  0  0  0  0  3  0  0  0  0  0  0
  181.3170  171.9050  135.6420 C   0  0  0  0  0  3  0  0  0  0  0  0
  183.0060  173.1460  136.8610 C   0  0  0  0  0  0  0  0  0  0  0  0
  184.0330  169.6410  136.5730 F   0  0  0  0  0  0  0  0  0  0  0  0
  182.0740  170.7390  135.7720 C   0  0  0  0  0  3  0  0  0  0  0  0
  188.6640  174.8480  137.5680 C   0  0  0  0  0  2  0  0  0  0  0  0
  187.4420  172.7780  136.8810 C   0  0  0  0  0  1  0  0  0  0  0  0
  187.3220  174.2660  137.1450 C   0  0  0  0  0  2  0  0  0  0  0  0
  191.1580  176.4570  138.1870 C   0  0  2  0  0  3  0  0  0  0  0  0
  190.4700  176.1800  140.4800 O   0  0  0  0  0  1  0  0  0  0  0  0
  191.1510  177.0310  139.6060 C   0  0  1  0  0  3  0  0  0  0  0  0
  193.4300  178.0210  139.3830 O   0  0  0  0  0  0  0  0  0  0  0  0
  192.5460  177.2350  140.1070 C   0  0  0  0  0  0  0  0  0  0  0  0
  192.9250  176.6920  141.1790 O   0  0  0  0  0  1  0  0  0  0  0  0
  192.5080  176.6730  137.4960 C   0  0  0  0  0  2  0  0  0  0  0  0
  192.9740  175.4620  136.6800 C   0  0  2  0  0  0  0  0  0  0  0  0
  194.9020  175.4970  138.2170 O   0  0  0  0  0  1  0  0  0  0  0  0
  193.9600  174.6730  137.5920 C   0  0  2  0  0  3  0  0  0  0  0  0
  194.6410  173.4750  136.9090 C   0  0  1  0  0  3  0  0  0  0  0  0
  195.4750  173.8800  135.7040 C   0  0  0  0  0  1  0  0  0  0  0  0
  196.6790  172.4710  137.6310 O   0  0  0  0  0  0  0  0  0  0  0  0
  195.4690  172.7070  137.8880 C   0  0  0  0  0  0  0  0  0  0  0  0
  194.9070  172.2260  139.0650 O   0  0  0  0  0  1  0  0  0  0  0  0
  193.6950  176.0440  135.4420 C   0  0  0  0  0  2  0  0  0  0  0  0
  194.8570  176.7470  135.7680 O   0  0  0  0  0  0  0  0  0  0  0  0
  195.2020  177.4140  134.5940 C   0  0  0  0  0  2  0  0  0  0  0  0
  196.1750  178.5280  134.9140 C   0  0  0  0  0  1  0  0  0  0  0  0
  191.8090  174.7150  136.3480 O   0  0  0  0  0  0  0  0  0  0  0  0
  192.1290  173.3970  135.9800 C   0  0  0  0  0  2  0  0  0  0  0  0
  191.5880  173.1010  134.5940 C   0  0  0  0  0  2  0  0  0  0  0  0
  190.3410  172.2460  134.6890 C   0  0  0  0  0  1  0  0  0  0  0  0
  1  3  2  0  0  0  0
  2  3  1  0  0  0  0
  2 30  1  0  0  0  0
  3 33  1  0  0  0  0
  4  5  1  6  0  0  0
  4  2  1  0  0  0  0
  4  7  1  0  0  0  0
  7  8  1  0  0  0  0
  7  6  1  1  0  0  0
  9 10  1  0  0  0  0
  9  8  1  0  0  0  0
 11 10  1  6  0  0  0
 11 17  1  0  0  0  0
 12 16  1  0  0  0  0
 13 18  1  0  0  0  0
 14 15  2  0  0  0  0
 15 13  1  0  0  0  0
 16 13  2  0  0  0  0
 17 14  1  0  0  0  0
 17 12  2  0  0  0  0
 18 19  1  0  0  0  0
 20 18  1  0  0  0  0
 21 22  2  0  0  0  0
 22 11  1  0  0  0  0
 23 27  1  0  0  0  0
 24 28  1  0  0  0  0
 24 25  1  0  0  0  0
 26 29  1  0  0  0  0
 26 23  2  0  0  0  0
 27 25  2  0  0  0  0
 27 21  1  0  0  0  0
 29 24  2  0  0  0  0
 31 32  1  0  0  0  0
 32 30  1  0  0  0  0
 33 39  1  6  0  0  0
 33 35  1  0  0  0  0
 35 37  1  0  0  0  0
 35 34  1  1  0  0  0
 36 37  2  0  0  0  0
 37 38  1  0  0  0  0
 40 48  1  6  0  0  0
 40 39  1  0  0  0  0
 40 42  1  0  0  0  0
 42 41  1  6  0  0  0
 43 44  1  6  0  0  0
 43 42  1  0  0  0  0
 43 46  1  0  0  0  0
 45 46  2  0  0  0  0
 46 47  1  0  0  0  0
 48 49  1  0  0  0  0
 50 51  1  0  0  0  0
 50 49  1  0  0  0  0
 52 40  1  0  0  0  0
 53 52  1  0  0  0  0
 54 55  1  0  0  0  0
 54 53  1  0  0  0  0
M  END
>  <MODEL>
6

>  <REMARK>
 VINA RESULT:      -3.8      4.506     11.357
  Name = 
  26 active torsions:
  status: ('A' for Active; 'I' for Inactive)
    1  A    between atoms: C_1  and  C_30
    2  A    between atoms: N_2  and  C_44
    3  A    between atoms: C_6  and  C_8
    4  A    between atoms: C_6  and  O_20
    5  A    between atoms: C_6  and  C_38
    6  A    between atoms: C_6  and  C_46
    7  A    between atoms: C_7  and  C_8
    8  A    between atoms: C_7  and  C_23
    9  A    between atoms: C_7  and  C_43
   10  A    between atoms: N_10  and  C_32
   11  A    between atoms: C_11  and  C_29
   12  A    between atoms: C_11  and  C_38
   13  A    between atoms: C_12  and  O_14
   14  A    between atoms: O_14  and  C_46
   15  A    between atoms: C_16  and  N_17
   16  A    between atoms: C_16  and  C_26
   17  A    between atoms: N_17  and  C_37
   18  A    between atoms: C_19  and  C_45
   19  A    between atoms: C_19  and  C_49
   20  A    between atoms: O_20  and  C_30
   21  A    between atoms: C_26  and  C_45
   22  A    between atoms: N_28  and  C_33
   23  A    between atoms: C_33  and  C_49
   24  A    between atoms: C_33  and  C_52
   25  A    between atoms: C_35  and  C_43
   26  A    between atoms: C_37  and  C_40
                            x       y       z     vdW  Elec       q    Type
                         _______ _______ _______ _____ _____    ______ ____

>  <TORSDO>
F 26

$$$$
=
 OpenBabel10262420413D

 55 56  0  0  1  0  0  0  0  0999 V2000
  183.8630  179.7440  141.3060 O   0  0  0  0  0  0  0  0  0  0  0  0
  182.2570  178.8410  142.7500 N   0  0  0  0  0  0  0  0  0  0  0  0
  182.8050  179.0700  141.4330 C   0  0  0  0  0  0  0  0  0  0  0  0
  183.1380  178.9870  143.9220 C   0  0  2  0  0  3  0  0  0  0  0  0
  183.7340  180.3910  143.9950 C   0  0  0  0  0  1  0  0  0  0  0  0
  185.1380  178.2370  145.0230 O   0  0  0  0  0  1  0  0  0  0  0  0
  184.2100  177.8900  144.0400 C   0  0  2  0  0  3  0  0  0  0  0  0
  184.9310  177.6200  142.7220 C   0  0  0  0  0  2  0  0  0  0  0  0
  186.2600  178.3550  142.6840 C   0  0  0  0  0  2  0  0  0  0  0  0
  187.3830  177.4390  143.1470 C   0  0  0  0  0  2  0  0  0  0  0  0
  188.7130  178.1900  143.1710 C   0  0  1  0  0  3  0  0  0  0  0  0
  190.8340  177.2190  144.0630 C   0  0  0  0  0  3  0  0  0  0  0  0
  191.1980  176.9050  146.4460 C   0  0  0  0  0  0  0  0  0  0  0  0
  189.1090  177.8500  145.6420 C   0  0  0  0  0  3  0  0  0  0  0  0
  189.9240  177.4320  146.6990 C   0  0  0  0  0  3  0  0  0  0  0  0
  191.6470  176.8010  145.1210 C   0  0  0  0  0  3  0  0  0  0  0  0
  189.5640  177.7440  144.3190 C   0  0  0  0  0  0  0  0  0  0  0  0
  192.0310  176.4770  147.5320 N   0  0  0  0  0  0  0  0  0  0  0  0
  192.0930  177.2050  148.6730 O   0  0  0  0  0  1  0  0  0  0  0  0
  192.7900  175.3030  147.4320 N   0  0  0  0  0  1  0  0  0  0  0  0
  188.8750  177.3880  140.9510 N   0  0  0  0  0  0  0  0  0  0  0  0
  189.4260  178.0040  141.9170 N   0  0  0  0  0  0  0  0  0  0  0  0
  190.6880  176.3960  139.6570 C   0  0  0  0  0  3  0  0  0  0  0  0
  189.7180  177.5640  137.3090 C   0  0  0  0  0  0  0  0  0  0  0  0
  189.0560  177.7780  138.5210 C   0  0  0  0  0  3  0  0  0  0  0  0
  191.3490  176.1810  138.4440 C   0  0  0  0  0  3  0  0  0  0  0  0
  189.5400  177.1940  139.7010 C   0  0  0  0  0  0  0  0  0  0  0  0
  189.2470  178.1280  136.1710 F   0  0  0  0  0  0  0  0  0  0  0  0
  190.8640  176.7640  137.2700 C   0  0  0  0  0  3  0  0  0  0  0  0
  180.8520  178.4590  142.9110 C   0  0  0  0  0  2  0  0  0  0  0  0
  179.4760  179.7600  144.5420 C   0  0  0  0  0  1  0  0  0  0  0  0
  179.9640  179.6790  143.1090 C   0  0  0  0  0  2  0  0  0  0  0  0
  182.1730  178.5150  140.1820 C   0  0  2  0  0  3  0  0  0  0  0  0
  180.7760  180.4490  139.8380 O   0  0  0  0  0  1  0  0  0  0  0  0
  181.7010  179.6060  139.2170 C   0  0  1  0  0  3  0  0  0  0  0  0
  182.6910  181.7800  138.4990 O   0  0  0  0  0  0  0  0  0  0  0  0
  182.8540  180.4210  138.7260 C   0  0  0  0  0  0  0  0  0  0  0  0
  183.9720  179.8810  138.5100 O   0  0  0  0  0  1  0  0  0  0  0  0
  181.0490  177.5280  140.5120 C   0  0  0  0  0  2  0  0  0  0  0  0
  180.5440  176.7510  139.2900 C   0  0  2  0  0  0  0  0  0  0  0  0
  182.8610  175.9810  139.6330 O   0  0  0  0  0  1  0  0  0  0  0  0
  181.7310  175.8620  138.8170 C   0  0  2  0  0  3  0  0  0  0  0  0
  182.1010  176.0280  137.3330 C   0  0  1  0  0  3  0  0  0  0  0  0
  183.3910  176.8080  137.1320 C   0  0  0  0  0  1  0  0  0  0  0  0
  181.5950  174.5280  135.5510 O   0  0  0  0  0  0  0  0  0  0  0  0
  182.1780  174.6990  136.6530 C   0  0  0  0  0  0  0  0  0  0  0  0
  182.8640  173.6440  137.2420 O   0  0  0  0  0  1  0  0  0  0  0  0
  180.1860  177.8220  138.2340 C   0  0  0  0  0  2  0  0  0  0  0  0
  178.9650  177.5780  137.6010 O   0  0  0  0  0  0  0  0  0  0  0  0
  179.1180  178.1200  136.3270 C   0  0  0  0  0  2  0  0  0  0  0  0
  180.3720  178.9670  136.2850 C   0  0  0  0  0  1  0  0  0  0  0  0
  179.4190  175.9920  139.7190 O   0  0  0  0  0  0  0  0  0  0  0  0
  179.6900  175.2960  140.9090 C   0  0  0  0  0  2  0  0  0  0  0  0
  178.9940  173.9480  140.8890 C   0  0  0  0  0  2  0  0  0  0  0  0
  179.2020  173.2700  139.5490 C   0  0  0  0  0  1  0  0  0  0  0  0
  1  3  2  0  0  0  0
  2 30  1  0  0  0  0
  2  4  1  0  0  0  0
  3  2  1  0  0  0  0
  4  5  1  6  0  0  0
  4  7  1  0  0  0  0
  7  6  1  1  0  0  0
  8  7  1  0  0  0  0
  9  8  1  0  0  0  0
  9 10  1  0  0  0  0
 11 10  1  6  0  0  0
 11 17  1  0  0  0  0
 12 17  2  0  0  0  0
 12 16  1  0  0  0  0
 13 15  1  0  0  0  0
 13 18  1  0  0  0  0
 14 15  2  0  0  0  0
 16 13  2  0  0  0  0
 17 14  1  0  0  0  0
 18 19  1  0  0  0  0
 20 18  1  0  0  0  0
 21 22  2  0  0  0  0
 22 11  1  0  0  0  0
 23 27  1  0  0  0  0
 24 25  1  0  0  0  0
 25 27  2  0  0  0  0
 26 23  2  0  0  0  0
 27 21  1  0  0  0  0
 28 24  1  0  0  0  0
 29 24  2  0  0  0  0
 29 26  1  0  0  0  0
 30 32  1  0  0  0  0
 32 31  1  0  0  0  0
 33 39  1  1  0  0  0
 33  3  1  0  0  0  0
 35 34  1  1  0  0  0
 35 33  1  0  0  0  0
 36 37  2  0  0  0  0
 37 35  1  0  0  0  0
 38 37  1  0  0  0  0
 40 48  1  6  0  0  0
 40 52  1  0  0  0  0
 40 39  1  0  0  0  0
 42 40  1  0  0  0  0
 42 41  1  1  0  0  0
 43 44  1  1  0  0  0
 43 42  1  0  0  0  0
 45 46  2  0  0  0  0
 46 47  1  0  0  0  0
 46 43  1  0  0  0  0
 49 48  1  0  0  0  0
 50 49  1  0  0  0  0
 51 50  1  0  0  0  0
 52 53  1  0  0  0  0
 54 53  1  0  0  0  0
 55 54  1  0  0  0  0
M  END
>  <MODEL>
7

>  <REMARK>
 VINA RESULT:      -3.4      2.789      4.837
  Name = 
  26 active torsions:
  status: ('A' for Active; 'I' for Inactive)
    1  A    between atoms: C_1  and  C_30
    2  A    between atoms: N_2  and  C_44
    3  A    between atoms: C_6  and  C_8
    4  A    between atoms: C_6  and  O_20
    5  A    between atoms: C_6  and  C_38
    6  A    between atoms: C_6  and  C_46
    7  A    between atoms: C_7  and  C_8
    8  A    between atoms: C_7  and  C_23
    9  A    between atoms: C_7  and  C_43
   10  A    between atoms: N_10  and  C_32
   11  A    between atoms: C_11  and  C_29
   12  A    between atoms: C_11  and  C_38
   13  A    between atoms: C_12  and  O_14
   14  A    between atoms: O_14  and  C_46
   15  A    between atoms: C_16  and  N_17
   16  A    between atoms: C_16  and  C_26
   17  A    between atoms: N_17  and  C_37
   18  A    between atoms: C_19  and  C_45
   19  A    between atoms: C_19  and  C_49
   20  A    between atoms: O_20  and  C_30
   21  A    between atoms: C_26  and  C_45
   22  A    between atoms: N_28  and  C_33
   23  A    between atoms: C_33  and  C_49
   24  A    between atoms: C_33  and  C_52
   25  A    between atoms: C_35  and  C_43
   26  A    between atoms: C_37  and  C_40
                            x       y       z     vdW  Elec       q    Type
                         _______ _______ _______ _____ _____    ______ ____

>  <TORSDO>
F 26

$$$$
=
 OpenBabel10262420413D

 55 56  0  0  1  0  0  0  0  0999 V2000
  184.2700  177.1960  134.9070 O   0  0  0  0  0  0  0  0  0  0  0  0
  185.7490  176.6010  136.6210 N   0  0  0  0  0  0  0  0  0  0  0  0
  184.4570  177.0370  136.1440 C   0  0  0  0  0  0  0  0  0  0  0  0
  186.6630  175.9240  135.6820 C   0  0  2  0  0  3  0  0  0  0  0  0
  186.5800  174.4070  135.8270 C   0  0  0  0  0  1  0  0  0  0  0  0
  188.2320  177.6040  134.9820 O   0  0  0  0  0  1  0  0  0  0  0  0
  188.1120  176.4380  135.7390 C   0  0  2  0  0  3  0  0  0  0  0  0
  189.1280  175.4050  135.2610 C   0  0  0  0  0  2  0  0  0  0  0  0
  190.4970  175.6940  135.8530 C   0  0  0  0  0  2  0  0  0  0  0  0
  190.4350  175.6580  137.3720 C   0  0  0  0  0  2  0  0  0  0  0  0
  191.2840  176.7780  137.9710 C   0  0  1  0  0  3  0  0  0  0  0  0
  189.8790  176.3790  139.9970 C   0  0  0  0  0  3  0  0  0  0  0  0
  190.5840  177.1000  142.2090 C   0  0  0  0  0  0  0  0  0  0  0  0
  191.9950  177.5240  140.2770 C   0  0  0  0  0  3  0  0  0  0  0  0
  191.7600  177.6220  141.6520 C   0  0  0  0  0  3  0  0  0  0  0  0
  189.6450  176.4780  141.3720 C   0  0  0  0  0  3  0  0  0  0  0  0
  191.0530  176.9000  139.4450 C   0  0  0  0  0  0  0  0  0  0  0  0
  190.3460  177.2020  143.6190 N   0  0  0  0  0  0  0  0  0  0  0  0
  189.1590  177.6650  144.0810 O   0  0  0  0  0  1  0  0  0  0  0  0
  191.3340  176.8260  144.5390 N   0  0  0  0  0  1  0  0  0  0  0  0
  193.0850  175.4280  137.2420 N   0  0  0  0  0  0  0  0  0  0  0  0
  192.6950  176.5470  137.7020 N   0  0  0  0  0  0  0  0  0  0  0  0
  194.9090  175.2390  135.6350 C   0  0  0  0  0  3  0  0  0  0  0  0
  196.7110  174.6090  137.6780 C   0  0  0  0  0  0  0  0  0  0  0  0
  195.3680  174.8490  137.9810 C   0  0  0  0  0  3  0  0  0  0  0  0
  196.2530  174.9990  135.3330 C   0  0  0  0  0  3  0  0  0  0  0  0
  194.4610  175.1660  136.9580 C   0  0  0  0  0  0  0  0  0  0  0  0
  197.5840  174.3050  138.6680 F   0  0  0  0  0  0  0  0  0  0  0  0
  197.1540  174.6850  136.3530 C   0  0  0  0  0  3  0  0  0  0  0  0
  186.1340  176.8180  138.0170 C   0  0  0  0  0  2  0  0  0  0  0  0
  186.4250  178.6030  139.7430 C   0  0  0  0  0  1  0  0  0  0  0  0
  186.5190  178.2690  138.2670 C   0  0  0  0  0  2  0  0  0  0  0  0
  183.2950  177.2960  137.0680 C   0  0  2  0  0  3  0  0  0  0  0  0
  183.4250  179.6610  137.5170 O   0  0  0  0  0  1  0  0  0  0  0  0
  183.5810  178.3970  138.0930 C   0  0  1  0  0  3  0  0  0  0  0  0
  181.3580  178.7230  139.1760 O   0  0  0  0  0  0  0  0  0  0  0  0
  182.6690  178.2800  139.2720 C   0  0  0  0  0  0  0  0  0  0  0  0
  183.0850  177.7870  140.3550 O   0  0  0  0  0  1  0  0  0  0  0  0
  182.8170  176.0060  137.7430 C   0  0  0  0  0  2  0  0  0  0  0  0
  181.4030  175.5890  137.3220 C   0  0  2  0  0  0  0  0  0  0  0  0
  181.8880  174.5080  135.1590 O   0  0  0  0  0  1  0  0  0  0  0  0
  181.5610  174.2760  136.5000 C   0  0  2  0  0  3  0  0  0  0  0  0
  180.3770  173.3020  136.6190 C   0  0  1  0  0  3  0  0  0  0  0  0
  179.2780  173.5850  135.6070 C   0  0  0  0  0  1  0  0  0  0  0  0
  180.0710  170.9480  136.8440 O   0  0  0  0  0  1  0  0  0  0  0  0
  180.8410  171.8850  136.5080 C   0  0  0  0  0  0  0  0  0  0  0  0
  182.1270  171.5960  136.0640 O   0  0  0  0  0  0  0  0  0  0  0  0
  180.8710  176.7440  136.4420 C   0  0  0  0  0  2  0  0  0  0  0  0
  179.5080  176.9850  136.6240 O   0  0  0  0  0  0  0  0  0  0  0  0
  179.2320  178.0720  135.7960 C   0  0  0  0  0  2  0  0  0  0  0  0
  180.5040  178.8540  135.5490 C   0  0  0  0  0  1  0  0  0  0  0  0
  180.6520  175.4060  138.5170 O   0  0  0  0  0  0  0  0  0  0  0  0
  181.4880  175.1460  139.6160 C   0  0  0  0  0  2  0  0  0  0  0  0
  180.6490  174.8760  140.8510 C   0  0  0  0  0  2  0  0  0  0  0  0
  179.5230  175.8860  140.9510 C   0  0  0  0  0  1  0  0  0  0  0  0
  1  3  2  0  0  0  0
  2 30  1  0  0  0  0
  3  2  1  0  0  0  0
  3 33  1  0  0  0  0
  4  7  1  0  0  0  0
  4  5  1  1  0  0  0
  4  2  1  0  0  0  0
  7  6  1  6  0  0  0
  8  7  1  0  0  0  0
  8  9  1  0  0  0  0
  9 10  1  0  0  0  0
 11 10  1  1  0  0  0
 11 17  1  0  0  0  0
 12 16  1  0  0  0  0
 13 18  1  0  0  0  0
 14 15  2  0  0  0  0
 15 13  1  0  0  0  0
 16 13  2  0  0  0  0
 17 12  2  0  0  0  0
 17 14  1  0  0  0  0
 18 19  1  0  0  0  0
 18 20  1  0  0  0  0
 21 22  2  0  0  0  0
 22 11  1  0  0  0  0
 23 27  1  0  0  0  0
 24 25  1  0  0  0  0
 24 28  1  0  0  0  0
 26 23  2  0  0  0  0
 26 29  1  0  0  0  0
 27 21  1  0  0  0  0
 27 25  2  0  0  0  0
 29 24  2  0  0  0  0
 30 32  1  0  0  0  0
 32 31  1  0  0  0  0
 33 39  1  1  0  0  0
 33 35  1  0  0  0  0
 35 34  1  6  0  0  0
 35 37  1  0  0  0  0
 36 37  2  0  0  0  0
 37 38  1  0  0  0  0
 40 48  1  6  0  0  0
 40 39  1  0  0  0  0
 40 52  1  0  0  0  0
 42 41  1  6  0  0  0
 42 43  1  0  0  0  0
 42 40  1  0  0  0  0
 43 44  1  6  0  0  0
 46 43  1  0  0  0  0
 46 45  1  0  0  0  0
 47 46  2  0  0  0  0
 48 49  1  0  0  0  0
 50 49  1  0  0  0  0
 51 50  1  0  0  0  0
 52 53  1  0  0  0  0
 53 54  1  0  0  0  0
 54 55  1  0  0  0  0
M  END
>  <MODEL>
8

>  <REMARK>
 VINA RESULT:      -3.4      3.278      6.470
  Name = 
  26 active torsions:
  status: ('A' for Active; 'I' for Inactive)
    1  A    between atoms: C_1  and  C_30
    2  A    between atoms: N_2  and  C_44
    3  A    between atoms: C_6  and  C_8
    4  A    between atoms: C_6  and  O_20
    5  A    between atoms: C_6  and  C_38
    6  A    between atoms: C_6  and  C_46
    7  A    between atoms: C_7  and  C_8
    8  A    between atoms: C_7  and  C_23
    9  A    between atoms: C_7  and  C_43
   10  A    between atoms: N_10  and  C_32
   11  A    between atoms: C_11  and  C_29
   12  A    between atoms: C_11  and  C_38
   13  A    between atoms: C_12  and  O_14
   14  A    between atoms: O_14  and  C_46
   15  A    between atoms: C_16  and  N_17
   16  A    between atoms: C_16  and  C_26
   17  A    between atoms: N_17  and  C_37
   18  A    between atoms: C_19  and  C_45
   19  A    between atoms: C_19  and  C_49
   20  A    between atoms: O_20  and  C_30
   21  A    between atoms: C_26  and  C_45
   22  A    between atoms: N_28  and  C_33
   23  A    between atoms: C_33  and  C_49
   24  A    between atoms: C_33  and  C_52
   25  A    between atoms: C_35  and  C_43
   26  A    between atoms: C_37  and  C_40
                            x       y       z     vdW  Elec       q    Type
                         _______ _______ _______ _____ _____    ______ ____

>  <TORSDO>
F 26

$$$$
=
 OpenBabel10262420413D

 55 56  0  0  1  0  0  0  0  0999 V2000
  190.0170  175.3840  138.3650 O   0  0  0  0  0  0  0  0  0  0  0  0
  188.4910  176.5760  137.0520 N   0  0  0  0  0  0  0  0  0  0  0  0
  189.5590  175.6180  137.2140 C   0  0  0  0  0  0  0  0  0  0  0  0
  187.6580  176.9180  138.2190 C   0  0  2  0  0  3  0  0  0  0  0  0
  186.1960  177.0970  137.8210 C   0  0  0  0  0  1  0  0  0  0  0  0
  189.1520  178.7980  138.3060 O   0  0  0  0  0  1  0  0  0  0  0  0
  188.1890  178.1050  139.0410 C   0  0  2  0  0  3  0  0  0  0  0  0
  188.7720  177.6810  140.3870 C   0  0  0  0  0  2  0  0  0  0  0  0
  188.1160  178.4580  141.5170 C   0  0  0  0  0  2  0  0  0  0  0  0
  186.6200  178.1870  141.5440 C   0  0  0  0  0  2  0  0  0  0  0  0
  185.9490  178.9900  142.6580 C   0  0  1  0  0  3  0  0  0  0  0  0
  183.7900  178.7820  143.8960 C   0  0  0  0  0  3  0  0  0  0  0  0
  181.6920  178.3380  142.7500 C   0  0  0  0  0  0  0  0  0  0  0  0
  183.7600  178.5220  141.4880 C   0  0  0  0  0  3  0  0  0  0  0  0
  182.3780  178.3140  141.5270 C   0  0  0  0  0  3  0  0  0  0  0  0
  182.4080  178.5730  143.9340 C   0  0  0  0  0  3  0  0  0  0  0  0
  184.4700  178.7580  142.6750 C   0  0  0  0  0  0  0  0  0  0  0  0
  180.2750  178.1240  142.7870 N   0  0  0  0  0  0  0  0  0  0  0  0
  179.5880  177.8960  141.6410 O   0  0  0  0  0  1  0  0  0  0  0  0
  179.5800  178.1460  144.0040 N   0  0  0  0  0  1  0  0  0  0  0  0
  187.6010  177.9770  144.0140 N   0  0  0  0  0  0  0  0  0  0  0  0
  186.5250  178.6490  143.9490 N   0  0  0  0  0  0  0  0  0  0  0  0
  189.5710  177.3470  145.3080 C   0  0  0  0  0  3  0  0  0  0  0  0
  188.0580  177.2510  147.6580 C   0  0  0  0  0  0  0  0  0  0  0  0
  187.4450  177.5810  146.4450 C   0  0  0  0  0  3  0  0  0  0  0  0
  190.1830  177.0180  146.5210 C   0  0  0  0  0  3  0  0  0  0  0  0
  188.2010  177.6310  145.2640 C   0  0  0  0  0  0  0  0  0  0  0  0
  187.3260  177.2060  148.7960 F   0  0  0  0  0  0  0  0  0  0  0  0
  189.4280  176.9700  147.6950 C   0  0  0  0  0  3  0  0  0  0  0  0
  188.2350  177.1860  135.7440 C   0  0  0  0  0  2  0  0  0  0  0  0
  186.4600  175.4560  135.4230 C   0  0  0  0  0  1  0  0  0  0  0  0
  187.6210  176.1840  134.7760 C   0  0  0  0  0  2  0  0  0  0  0  0
  190.1500  174.8550  136.0560 C   0  0  2  0  0  3  0  0  0  0  0  0
  189.5600  173.0170  137.5000 O   0  0  0  0  0  1  0  0  0  0  0  0
  190.1850  173.3420  136.2930 C   0  0  1  0  0  3  0  0  0  0  0  0
  190.0680  171.4410  134.6830 O   0  0  0  0  0  1  0  0  0  0  0  0
  189.5090  172.6100  135.1780 C   0  0  0  0  0  0  0  0  0  0  0  0
  188.4390  173.0510  134.6810 O   0  0  0  0  0  0  0  0  0  0  0  0
  191.5290  175.3980  135.6710 C   0  0  0  0  0  2  0  0  0  0  0  0
  192.6290  175.0270  136.6720 C   0  0  2  0  0  0  0  0  0  0  0  0
  193.7560  176.3910  134.9540 O   0  0  0  0  0  1  0  0  0  0  0  0
  193.9500  175.6380  136.1180 C   0  0  2  0  0  3  0  0  0  0  0  0
  195.0940  174.6270  135.9370 C   0  0  1  0  0  3  0  0  0  0  0  0
  195.8120  174.7830  134.6050 C   0  0  0  0  0  1  0  0  0  0  0  0
  195.7090  174.3570  138.2240 O   0  0  0  0  0  1  0  0  0  0  0  0
  196.0640  174.7150  137.0700 C   0  0  0  0  0  0  0  0  0  0  0  0
  197.3450  175.2150  136.8670 O   0  0  0  0  0  0  0  0  0  0  0  0
  192.6830  173.4810  136.6780 C   0  0  0  0  0  2  0  0  0  0  0  0
  193.4720  172.9580  135.6520 O   0  0  0  0  0  0  0  0  0  0  0  0
  194.1050  171.8570  136.2250 C   0  0  0  0  0  2  0  0  0  0  0  0
  194.3850  170.8230  135.1550 C   0  0  0  0  0  1  0  0  0  0  0  0
  192.2480  175.5770  137.9280 O   0  0  0  0  0  0  0  0  0  0  0  0
  193.1080  176.6190  138.3160 C   0  0  0  0  0  2  0  0  0  0  0  0
  193.4520  176.4840  139.7870 C   0  0  0  0  0  2  0  0  0  0  0  0
  192.1980  176.5900  140.6310 C   0  0  0  0  0  1  0  0  0  0  0  0
  2  3  1  0  0  0  0
  2  4  1  0  0  0  0
  3  1  2  0  0  0  0
  4  5  1  6  0  0  0
  4  7  1  0  0  0  0
  7  6  1  6  0  0  0
  7  8  1  0  0  0  0
  8  9  1  0  0  0  0
  9 10  1  0  0  0  0
 11 10  1  6  0  0  0
 11 17  1  0  0  0  0
 11 22  1  0  0  0  0
 12 16  1  0  0  0  0
 13 18  1  0  0  0  0
 13 16  2  0  0  0  0
 14 15  2  0  0  0  0
 14 17  1  0  0  0  0
 15 13  1  0  0  0  0
 17 12  2  0  0  0  0
 18 20  1  0  0  0  0
 19 18  1  0  0  0  0
 21 27  1  0  0  0  0
 22 21  2  0  0  0  0
 23 26  1  0  0  0  0
 24 29  1  0  0  0  0
 24 28  1  0  0  0  0
 25 24  2  0  0  0  0
 26 29  2  0  0  0  0
 27 23  2  0  0  0  0
 27 25  1  0  0  0  0
 30  2  1  0  0  0  0
 32 31  1  0  0  0  0
 32 30  1  0  0  0  0
 33 39  1  1  0  0  0
 33 35  1  0  0  0  0
 33  3  1  0  0  0  0
 35 34  1  1  0  0  0
 36 37  1  0  0  0  0
 37 35  1  0  0  0  0
 38 37  2  0  0  0  0
 40 39  1  6  0  0  0
 40 48  1  0  0  0  0
 40 52  1  0  0  0  0
 42 41  1  6  0  0  0
 42 40  1  0  0  0  0
 43 44  1  6  0  0  0
 43 42  1  0  0  0  0
 43 46  1  0  0  0  0
 46 45  1  0  0  0  0
 47 46  2  0  0  0  0
 49 50  1  0  0  0  0
 49 48  1  0  0  0  0
 51 50  1  0  0  0  0
 52 53  1  0  0  0  0
 53 54  1  0  0  0  0
 54 55  1  0  0  0  0
M  END
>  <MODEL>
9

>  <REMARK>
 VINA RESULT:      -3.1      3.511     10.072
  Name = 
  26 active torsions:
  status: ('A' for Active; 'I' for Inactive)
    1  A    between atoms: C_1  and  C_30
    2  A    between atoms: N_2  and  C_44
    3  A    between atoms: C_6  and  C_8
    4  A    between atoms: C_6  and  O_20
    5  A    between atoms: C_6  and  C_38
    6  A    between atoms: C_6  and  C_46
    7  A    between atoms: C_7  and  C_8
    8  A    between atoms: C_7  and  C_23
    9  A    between atoms: C_7  and  C_43
   10  A    between atoms: N_10  and  C_32
   11  A    between atoms: C_11  and  C_29
   12  A    between atoms: C_11  and  C_38
   13  A    between atoms: C_12  and  O_14
   14  A    between atoms: O_14  and  C_46
   15  A    between atoms: C_16  and  N_17
   16  A    between atoms: C_16  and  C_26
   17  A    between atoms: N_17  and  C_37
   18  A    between atoms: C_19  and  C_45
   19  A    between atoms: C_19  and  C_49
   20  A    between atoms: O_20  and  C_30
   21  A    between atoms: C_26  and  C_45
   22  A    between atoms: N_28  and  C_33
   23  A    between atoms: C_33  and  C_49
   24  A    between atoms: C_33  and  C_52
   25  A    between atoms: C_35  and  C_43
   26  A    between atoms: C_37  and  C_40
                            x       y       z     vdW  Elec       q    Type
                         _______ _______ _______ _____ _____    ______ ____

>  <TORSDO>
F 26

$$$$
