=
 OpenBabel10262422153D

 43 47  0  0  0  0  0  0  0  0999 V2000
  186.0720  177.8770  145.2880 C   0  0  0  0  0  3  0  0  0  0  0  0
  182.5550  178.6930  141.1600 C   0  0  0  0  0  0  0  0  0  0  0  0
  184.3520  178.2740  139.0430 C   0  0  0  0  0  0  0  0  0  0  0  0
  183.5020  178.8880  143.8180 C   0  0  0  0  0  0  0  0  0  0  0  0
  186.3590  177.6780  144.0020 C   0  0  0  0  0  3  0  0  0  0  0  0
  185.2790  179.0730  145.7040 C   0  0  0  0  0  2  0  0  0  0  0  0
  184.4280  178.6780  142.7540 C   0  0  0  0  0  0  0  0  0  0  0  0
  183.8220  178.8930  145.2970 C   0  0  0  0  0  2  0  0  0  0  0  0
  185.9230  178.6660  142.9660 C   0  0  0  0  0  2  0  0  0  0  0  0
  184.8240  178.3620  140.3540 C   0  0  0  0  0  3  0  0  0  0  0  0
  183.9430  178.5780  141.4270 C   0  0  0  0  0  0  0  0  0  0  0  0
  181.6710  178.8980  142.2210 C   0  0  0  0  0  3  0  0  0  0  0  0
  182.0810  178.6010  139.8330 C   0  0  0  0  0  0  0  0  0  0  0  0
  182.9860  178.3910  138.7880 C   0  0  0  0  0  3  0  0  0  0  0  0
  182.1400  178.9870  143.5260 C   0  0  0  0  0  3  0  0  0  0  0  0
  180.6240  178.7370  139.5000 C   0  0  0  0  0  2  0  0  0  0  0  0
  179.7170  181.1560  139.6840 C   0  0  0  0  0  2  0  0  0  0  0  0
  180.3260  180.0720  138.8260 C   0  0  0  0  0  0  0  0  0  0  0  0
  181.1740  181.2500  139.2390 C   0  0  0  0  0  2  0  0  0  0  0  0
  179.5700  181.1910  136.8740 C   0  0  0  0  0  3  0  0  0  0  0  0
  179.8910  180.0910  137.4530 N   0  0  0  0  0  0  0  0  0  0  0  0
  179.1470  181.1930  135.4420 C   0  0  0  0  0  2  0  0  0  0  0  0
  180.1430  181.9600  134.5950 C   0  0  0  0  0  2  0  0  0  0  0  0
  180.6860  183.1260  135.3920 C   0  0  0  0  0  1  0  0  0  0  0  0
  185.2900  178.0100  137.9120 C   0  0  0  0  0  2  0  0  0  0  0  0
  186.5810  178.6690  138.1500 N   0  0  0  0  0  2  0  0  0  0  0  0
  187.7890  177.8400  136.3010 C   0  0  0  0  0  1  0  0  0  0  0  0
  187.6770  177.8590  137.7540 N   0  0  0  0  0  0  0  0  0  0  0  0
  188.9240  178.3660  138.3240 C   0  0  0  0  0  2  0  0  0  0  0  0
  188.9700  178.0730  139.8090 C   0  0  0  0  0  2  0  0  0  0  0  0
  189.7050  176.7690  140.0450 C   0  0  0  0  0  2  0  0  0  0  0  0
  190.7770  176.9670  141.0100 N   0  0  0  0  0  0  0  0  0  0  0  0
  192.0170  177.5640  140.5440 C   0  0  0  0  0  1  0  0  0  0  0  0
  189.4570  176.2470  142.7990 O   0  0  0  0  0  0  0  0  0  0  0  0
  190.5700  176.6900  142.4060 C   0  0  0  0  0  0  0  0  0  0  0  0
  191.6460  176.9800  143.4120 C   0  0  0  0  0  2  0  0  0  0  0  0
  189.9630  177.7180  145.1240 C   0  0  0  0  0  3  0  0  0  0  0  0
  191.1170  176.9900  144.8090 C   0  0  0  0  0  0  0  0  0  0  0  0
  191.9540  175.6020  148.0870 F   0  0  0  0  0  0  0  0  0  0  0  0
  190.1510  177.0200  147.4340 C   0  0  0  0  0  3  0  0  0  0  0  0
  191.3020  176.2920  147.1200 C   0  0  0  0  0  0  0  0  0  0  0  0
  189.4820  177.7350  146.4360 C   0  0  0  0  0  3  0  0  0  0  0  0
  191.7870  176.2800  145.8090 C   0  0  0  0  0  3  0  0  0  0  0  0
  1  6  1  0  0  0  0
  2 11  1  0  0  0  0
  2 12  1  0  0  0  0
  3 10  1  0  0  0  0
  4  8  1  0  0  0  0
  5  1  2  0  0  0  0
  7  9  1  0  0  0  0
  7  4  2  0  0  0  0
  8  6  1  0  0  0  0
  9  5  1  0  0  0  0
 10 11  2  0  0  0  0
 11  7  1  0  0  0  0
 12 15  2  0  0  0  0
 13  2  2  0  0  0  0
 14  3  2  0  0  0  0
 14 13  1  0  0  0  0
 15  4  1  0  0  0  0
 16 13  1  0  0  0  0
 18 19  1  0  0  0  0
 18 16  1  0  0  0  0
 18 17  1  0  0  0  0
 19 17  1  0  0  0  0
 20 21  2  0  0  0  0
 21 18  1  0  0  0  0
 22 20  1  0  0  0  0
 23 24  1  0  0  0  0
 23 22  1  0  0  0  0
 25 26  1  0  0  0  0
 25  3  1  0  0  0  0
 27 28  1  0  0  0  0
 28 26  1  0  0  0  0
 28 29  1  0  0  0  0
 29 30  1  0  0  0  0
 30 31  1  0  0  0  0
 31 32  1  0  0  0  0
 32 35  1  0  0  0  0
 33 32  1  0  0  0  0
 35 34  2  0  0  0  0
 35 36  1  0  0  0  0
 36 38  1  0  0  0  0
 37 42  1  0  0  0  0
 38 37  2  0  0  0  0
 38 43  1  0  0  0  0
 41 40  1  0  0  0  0
 41 39  1  0  0  0  0
 42 40  2  0  0  0  0
 43 41  2  0  0  0  0
M  END
>  <MODEL>
1

>  <REMARK>
 VINA RESULT:      -9.2      0.000      0.000
  Name = 
  14 active torsions:
  status: ('A' for Active; 'I' for Inactive)
    1  A    between atoms: C_1  and  C_34
    2  A    between atoms: C_1  and  C_35
    3  A    between atoms: C_2  and  N_7
    4  A    between atoms: C_2  and  C_13
    5  A    between atoms: C_3  and  C_17
    6  A    between atoms: C_3  and  C_42
    7  A    between atoms: C_4  and  C_14
    8  A    between atoms: C_4  and  C_41
    9  A    between atoms: N_7  and  N_12
   10  A    between atoms: C_9  and  C_37
   11  A    between atoms: N_10  and  C_42
   12  A    between atoms: N_12  and  C_17
   13  A    between atoms: C_19  and  C_37
   14  A    between atoms: N_32  and  C_35
                            x       y       z     vdW  Elec       q    Type
                         _______ _______ _______ _____ _____    ______ ____

>  <TORSDO>
F 14

$$$$
=
 OpenBabel10262422153D

 43 47  0  0  0  0  0  0  0  0999 V2000
  186.5340  177.4440  145.6120 C   0  0  0  0  0  3  0  0  0  0  0  0
  182.8150  178.7730  141.8060 C   0  0  0  0  0  0  0  0  0  0  0  0
  184.4300  178.3750  139.5430 C   0  0  0  0  0  0  0  0  0  0  0  0
  183.9510  178.7240  144.3960 C   0  0  0  0  0  0  0  0  0  0  0  0
  186.7180  177.3130  144.2990 C   0  0  0  0  0  3  0  0  0  0  0  0
  185.8590  178.6610  146.1570 C   0  0  0  0  0  2  0  0  0  0  0  0
  184.7850  178.5240  143.2570 C   0  0  0  0  0  0  0  0  0  0  0  0
  184.3690  178.6080  145.8460 C   0  0  0  0  0  2  0  0  0  0  0  0
  186.2870  178.3950  143.3600 C   0  0  0  0  0  2  0  0  0  0  0  0
  184.9950  178.3430  140.8200 C   0  0  0  0  0  3  0  0  0  0  0  0
  184.2060  178.5460  141.9650 C   0  0  0  0  0  0  0  0  0  0  0  0
  182.0220  178.9660  142.9380 C   0  0  0  0  0  3  0  0  0  0  0  0
  182.2480  178.8030  140.5140 C   0  0  0  0  0  0  0  0  0  0  0  0
  183.0630  178.6020  139.3950 C   0  0  0  0  0  3  0  0  0  0  0  0
  182.5830  178.9360  144.2100 C   0  0  0  0  0  3  0  0  0  0  0  0
  180.7860  179.0590  140.2950 C   0  0  0  0  0  2  0  0  0  0  0  0
  180.3830  176.5090  140.5010 C   0  0  0  0  0  2  0  0  0  0  0  0
  180.0650  177.8090  139.8010 C   0  0  0  0  0  0  0  0  0  0  0  0
  179.0410  177.2010  140.7260 C   0  0  0  0  0  2  0  0  0  0  0  0
  180.3460  176.7660  137.6870 C   0  0  0  0  0  3  0  0  0  0  0  0
  179.7730  177.6680  138.3970 N   0  0  0  0  0  0  0  0  0  0  0  0
  180.0110  176.6190  136.2410 C   0  0  0  0  0  2  0  0  0  0  0  0
  180.5790  175.3230  135.6930 C   0  0  0  0  0  2  0  0  0  0  0  0
  181.1430  174.5020  136.8320 C   0  0  0  0  0  1  0  0  0  0  0  0
  185.2680  178.1240  138.3340 C   0  0  0  0  0  2  0  0  0  0  0  0
  186.6090  178.7000  138.5080 N   0  0  0  0  0  2  0  0  0  0  0  0
  187.6070  178.2840  136.4110 C   0  0  0  0  0  1  0  0  0  0  0  0
  187.6060  177.9510  137.8310 N   0  0  0  0  0  0  0  0  0  0  0  0
  188.9270  178.2300  138.3890 C   0  0  0  0  0  2  0  0  0  0  0  0
  188.8790  178.1420  139.9000 C   0  0  0  0  0  2  0  0  0  0  0  0
  189.3140  176.7600  140.3410 C   0  0  0  0  0  2  0  0  0  0  0  0
  190.4880  176.8530  141.1970 N   0  0  0  0  0  0  0  0  0  0  0  0
  191.6270  177.6160  140.7160 C   0  0  0  0  0  1  0  0  0  0  0  0
  189.4420  175.7190  142.9520 O   0  0  0  0  0  0  0  0  0  0  0  0
  190.4730  176.3090  142.5280 C   0  0  0  0  0  0  0  0  0  0  0  0
  191.6510  176.4850  143.4410 C   0  0  0  0  0  2  0  0  0  0  0  0
  190.2050  177.5640  145.1880 C   0  0  0  0  0  3  0  0  0  0  0  0
  191.2340  176.6720  144.8630 C   0  0  0  0  0  0  0  0  0  0  0  0
  192.1380  175.4450  148.1870 F   0  0  0  0  0  0  0  0  0  0  0  0
  190.4770  177.0290  147.5320 C   0  0  0  0  0  3  0  0  0  0  0  0
  191.5050  176.1360  147.2090 C   0  0  0  0  0  0  0  0  0  0  0  0
  189.8290  177.7440  146.5220 C   0  0  0  0  0  3  0  0  0  0  0  0
  191.8850  175.9610  145.8750 C   0  0  0  0  0  3  0  0  0  0  0  0
  1  6  1  0  0  0  0
  2 11  1  0  0  0  0
  2 12  1  0  0  0  0
  3 10  1  0  0  0  0
  4  8  1  0  0  0  0
  5  1  2  0  0  0  0
  7  9  1  0  0  0  0
  7  4  2  0  0  0  0
  8  6  1  0  0  0  0
  9  5  1  0  0  0  0
 10 11  2  0  0  0  0
 11  7  1  0  0  0  0
 12 15  2  0  0  0  0
 13  2  2  0  0  0  0
 14  3  2  0  0  0  0
 14 13  1  0  0  0  0
 15  4  1  0  0  0  0
 16 13  1  0  0  0  0
 17 19  1  0  0  0  0
 18 16  1  0  0  0  0
 18 17  1  0  0  0  0
 18 19  1  0  0  0  0
 20 21  2  0  0  0  0
 21 18  1  0  0  0  0
 22 20  1  0  0  0  0
 23 22  1  0  0  0  0
 23 24  1  0  0  0  0
 25 26  1  0  0  0  0
 25  3  1  0  0  0  0
 27 28  1  0  0  0  0
 28 29  1  0  0  0  0
 28 26  1  0  0  0  0
 29 30  1  0  0  0  0
 30 31  1  0  0  0  0
 31 32  1  0  0  0  0
 32 35  1  0  0  0  0
 33 32  1  0  0  0  0
 35 34  2  0  0  0  0
 35 36  1  0  0  0  0
 36 38  1  0  0  0  0
 37 42  1  0  0  0  0
 38 37  2  0  0  0  0
 38 43  1  0  0  0  0
 41 40  1  0  0  0  0
 41 39  1  0  0  0  0
 42 40  2  0  0  0  0
 43 41  2  0  0  0  0
M  END
>  <MODEL>
2

>  <REMARK>
 VINA RESULT:      -9.2      1.832      2.336
  Name = 
  14 active torsions:
  status: ('A' for Active; 'I' for Inactive)
    1  A    between atoms: C_1  and  C_34
    2  A    between atoms: C_1  and  C_35
    3  A    between atoms: C_2  and  N_7
    4  A    between atoms: C_2  and  C_13
    5  A    between atoms: C_3  and  C_17
    6  A    between atoms: C_3  and  C_42
    7  A    between atoms: C_4  and  C_14
    8  A    between atoms: C_4  and  C_41
    9  A    between atoms: N_7  and  N_12
   10  A    between atoms: C_9  and  C_37
   11  A    between atoms: N_10  and  C_42
   12  A    between atoms: N_12  and  C_17
   13  A    between atoms: C_19  and  C_37
   14  A    between atoms: N_32  and  C_35
                            x       y       z     vdW  Elec       q    Type
                         _______ _______ _______ _____ _____    ______ ____

>  <TORSDO>
F 14

$$$$
=
 OpenBabel10262422153D

 43 47  0  0  0  0  0  0  0  0999 V2000
  187.6270  177.1160  145.4520 C   0  0  0  0  0  3  0  0  0  0  0  0
  183.0940  178.8110  142.8720 C   0  0  0  0  0  0  0  0  0  0  0  0
  184.0220  178.5100  140.2390 C   0  0  0  0  0  0  0  0  0  0  0  0
  184.8790  178.5560  145.0520 C   0  0  0  0  0  0  0  0  0  0  0  0
  187.4460  177.0640  144.1330 C   0  0  0  0  0  3  0  0  0  0  0  0
  187.1840  178.3150  146.2250 C   0  0  0  0  0  2  0  0  0  0  0  0
  185.3660  178.4030  143.7200 C   0  0  0  0  0  0  0  0  0  0  0  0
  185.6650  178.3320  146.3260 C   0  0  0  0  0  2  0  0  0  0  0  0
  186.8320  178.2190  143.4070 C   0  0  0  0  0  2  0  0  0  0  0  0
  184.9060  178.3760  141.3110 C   0  0  0  0  0  3  0  0  0  0  0  0
  184.4640  178.5290  142.6360 C   0  0  0  0  0  0  0  0  0  0  0  0
  182.6440  178.9550  144.1860 C   0  0  0  0  0  3  0  0  0  0  0  0
  182.2040  178.9440  141.7850 C   0  0  0  0  0  0  0  0  0  0  0  0
  182.6780  178.7900  140.4790 C   0  0  0  0  0  3  0  0  0  0  0  0
  183.5240  178.8230  145.2540 C   0  0  0  0  0  3  0  0  0  0  0  0
  180.7510  179.2620  141.9850 C   0  0  0  0  0  2  0  0  0  0  0  0
  180.2220  177.2100  140.4960 C   0  0  0  0  0  2  0  0  0  0  0  0
  179.8840  178.6240  140.9040 C   0  0  0  0  0  0  0  0  0  0  0  0
  178.9770  177.4970  141.3330 C   0  0  0  0  0  2  0  0  0  0  0  0
  179.6590  180.6880  139.7540 C   0  0  0  0  0  3  0  0  0  0  0  0
  179.3700  179.4400  139.8340 N   0  0  0  0  0  0  0  0  0  0  0  0
  179.1380  181.5110  138.6230 C   0  0  0  0  0  2  0  0  0  0  0  0
  180.2750  181.9630  137.7270 C   0  0  0  0  0  2  0  0  0  0  0  0
  181.5960  181.6440  138.3940 C   0  0  0  0  0  1  0  0  0  0  0  0
  184.4920  178.3110  138.8360 C   0  0  0  0  0  2  0  0  0  0  0  0
  185.9260  178.6100  138.7270 N   0  0  0  0  0  2  0  0  0  0  0  0
  185.6120  176.8980  137.1340 C   0  0  0  0  0  1  0  0  0  0  0  0
  186.5830  177.7520  137.8060 N   0  0  0  0  0  0  0  0  0  0  0  0
  187.3090  178.5310  136.8050 C   0  0  0  0  0  2  0  0  0  0  0  0
  188.7850  178.1950  136.8600 C   0  0  0  0  0  2  0  0  0  0  0  0
  189.3840  178.7530  138.1350 C   0  0  0  0  0  2  0  0  0  0  0  0
  189.9950  177.6830  138.9120 N   0  0  0  0  0  0  0  0  0  0  0  0
  191.1120  176.9640  138.3270 C   0  0  0  0  0  1  0  0  0  0  0  0
  188.6610  178.1220  140.7800 O   0  0  0  0  0  0  0  0  0  0  0  0
  189.5810  177.4300  140.2660 C   0  0  0  0  0  0  0  0  0  0  0  0
  190.2720  176.3870  141.0960 C   0  0  0  0  0  2  0  0  0  0  0  0
  190.9730  176.0240  143.4800 C   0  0  0  0  0  3  0  0  0  0  0  0
  190.6550  176.9080  142.4420 C   0  0  0  0  0  0  0  0  0  0  0  0
  191.0540  180.1190  144.1460 F   0  0  0  0  0  0  0  0  0  0  0  0
  191.3470  177.8980  144.9660 C   0  0  0  0  0  3  0  0  0  0  0  0
  191.0300  178.7820  143.9300 C   0  0  0  0  0  0  0  0  0  0  0  0
  191.3160  176.5180  144.7410 C   0  0  0  0  0  3  0  0  0  0  0  0
  190.6800  178.2880  142.6700 C   0  0  0  0  0  3  0  0  0  0  0  0
  1  6  1  0  0  0  0
  2 12  1  0  0  0  0
  3 14  2  0  0  0  0
  3 10  1  0  0  0  0
  4 15  1  0  0  0  0
  4  8  1  0  0  0  0
  5  1  2  0  0  0  0
  6  8  1  0  0  0  0
  7  4  2  0  0  0  0
  9  7  1  0  0  0  0
  9  5  1  0  0  0  0
 10 11  2  0  0  0  0
 11  2  1  0  0  0  0
 11  7  1  0  0  0  0
 12 15  2  0  0  0  0
 13 16  1  0  0  0  0
 13  2  2  0  0  0  0
 14 13  1  0  0  0  0
 17 18  1  0  0  0  0
 17 19  1  0  0  0  0
 18 19  1  0  0  0  0
 18 16  1  0  0  0  0
 20 21  2  0  0  0  0
 21 18  1  0  0  0  0
 22 20  1  0  0  0  0
 23 24  1  0  0  0  0
 23 22  1  0  0  0  0
 25  3  1  0  0  0  0
 26 25  1  0  0  0  0
 27 28  1  0  0  0  0
 28 26  1  0  0  0  0
 29 30  1  0  0  0  0
 29 28  1  0  0  0  0
 30 31  1  0  0  0  0
 31 32  1  0  0  0  0
 32 35  1  0  0  0  0
 33 32  1  0  0  0  0
 35 34  2  0  0  0  0
 35 36  1  0  0  0  0
 36 38  1  0  0  0  0
 37 42  1  0  0  0  0
 38 43  1  0  0  0  0
 38 37  2  0  0  0  0
 41 39  1  0  0  0  0
 41 40  1  0  0  0  0
 42 40  2  0  0  0  0
 43 41  2  0  0  0  0
M  END
>  <MODEL>
3

>  <REMARK>
 VINA RESULT:      -9.0      1.770      2.668
  Name = 
  14 active torsions:
  status: ('A' for Active; 'I' for Inactive)
    1  A    between atoms: C_1  and  C_34
    2  A    between atoms: C_1  and  C_35
    3  A    between atoms: C_2  and  N_7
    4  A    between atoms: C_2  and  C_13
    5  A    between atoms: C_3  and  C_17
    6  A    between atoms: C_3  and  C_42
    7  A    between atoms: C_4  and  C_14
    8  A    between atoms: C_4  and  C_41
    9  A    between atoms: N_7  and  N_12
   10  A    between atoms: C_9  and  C_37
   11  A    between atoms: N_10  and  C_42
   12  A    between atoms: N_12  and  C_17
   13  A    between atoms: C_19  and  C_37
   14  A    between atoms: N_32  and  C_35
                            x       y       z     vdW  Elec       q    Type
                         _______ _______ _______ _____ _____    ______ ____

>  <TORSDO>
F 14

$$$$
=
 OpenBabel10262422153D

 43 47  0  0  0  0  0  0  0  0999 V2000
  186.0420  177.7660  145.4200 C   0  0  0  0  0  3  0  0  0  0  0  0
  182.7060  178.7690  141.1840 C   0  0  0  0  0  0  0  0  0  0  0  0
  184.6050  178.4940  139.1330 C   0  0  0  0  0  0  0  0  0  0  0  0
  183.5260  178.8250  143.8900 C   0  0  0  0  0  0  0  0  0  0  0  0
  186.3910  177.6450  144.1400 C   0  0  0  0  0  3  0  0  0  0  0  0
  185.2110  178.9260  145.8650 C   0  0  0  0  0  2  0  0  0  0  0  0
  184.5040  178.6880  142.8600 C   0  0  0  0  0  0  0  0  0  0  0  0
  183.7780  178.7510  145.3810 C   0  0  0  0  0  2  0  0  0  0  0  0
  185.9880  178.6830  143.1420 C   0  0  0  0  0  2  0  0  0  0  0  0
  185.0150  178.5140  140.4680 C   0  0  0  0  0  3  0  0  0  0  0  0
  184.0820  178.6570  141.5090 C   0  0  0  0  0  0  0  0  0  0  0  0
  181.7710  178.9020  142.2120 C   0  0  0  0  0  3  0  0  0  0  0  0
  182.2960  178.7470  139.8330 C   0  0  0  0  0  0  0  0  0  0  0  0
  183.2510  178.6080  138.8220 C   0  0  0  0  0  3  0  0  0  0  0  0
  182.1780  178.9230  143.5410 C   0  0  0  0  0  3  0  0  0  0  0  0
  180.8540  178.8820  139.4410 C   0  0  0  0  0  2  0  0  0  0  0  0
  181.1080  179.1030  136.8730 C   0  0  0  0  0  2  0  0  0  0  0  0
  180.6930  179.7290  138.1820 C   0  0  0  0  0  0  0  0  0  0  0  0
  179.6300  179.3010  137.2010 C   0  0  0  0  0  2  0  0  0  0  0  0
  180.1200  181.9760  137.6730 C   0  0  0  0  0  3  0  0  0  0  0  0
  180.9150  181.1520  138.2530 N   0  0  0  0  0  0  0  0  0  0  0  0
  180.3520  183.4470  137.7800 C   0  0  0  0  0  2  0  0  0  0  0  0
  181.2960  183.9160  136.6900 C   0  0  0  0  0  2  0  0  0  0  0  0
  180.7470  183.5050  135.3400 C   0  0  0  0  0  1  0  0  0  0  0  0
  185.5980  178.3070  138.0350 C   0  0  0  0  0  2  0  0  0  0  0  0
  186.9550  178.6080  138.5110 N   0  0  0  0  0  2  0  0  0  0  0  0
  188.9690  179.0120  137.3500 C   0  0  0  0  0  1  0  0  0  0  0  0
  187.9530  178.0230  137.6900 N   0  0  0  0  0  0  0  0  0  0  0  0
  188.5900  176.9000  138.3740 C   0  0  0  0  0  2  0  0  0  0  0  0
  190.0220  177.2520  138.7230 C   0  0  0  0  0  2  0  0  0  0  0  0
  190.5050  176.3530  139.8430 C   0  0  0  0  0  2  0  0  0  0  0  0
  191.0750  177.1550  140.9170 N   0  0  0  0  0  0  0  0  0  0  0  0
  192.4210  177.6720  140.7460 C   0  0  0  0  0  1  0  0  0  0  0  0
  189.0870  177.1280  142.1470 O   0  0  0  0  0  0  0  0  0  0  0  0
  190.2810  177.5240  142.0590 C   0  0  0  0  0  0  0  0  0  0  0  0
  190.8400  178.4250  143.1210 C   0  0  0  0  0  2  0  0  0  0  0  0
  191.6420  176.8300  144.8880 C   0  0  0  0  0  3  0  0  0  0  0  0
  190.7360  177.8170  144.4820 C   0  0  0  0  0  0  0  0  0  0  0  0
  188.6220  178.0580  147.4560 F   0  0  0  0  0  0  0  0  0  0  0  0
  190.5140  176.6710  147.0240 C   0  0  0  0  0  3  0  0  0  0  0  0
  189.6090  177.6580  146.6190 C   0  0  0  0  0  0  0  0  0  0  0  0
  191.5290  176.2560  146.1570 C   0  0  0  0  0  3  0  0  0  0  0  0
  189.7180  178.2280  145.3480 C   0  0  0  0  0  3  0  0  0  0  0  0
  1  6  1  0  0  0  0
  2 11  1  0  0  0  0
  2 12  1  0  0  0  0
  3 10  1  0  0  0  0
  4  8  1  0  0  0  0
  5  1  2  0  0  0  0
  7  9  1  0  0  0  0
  7  4  2  0  0  0  0
  8  6  1  0  0  0  0
  9  5  1  0  0  0  0
 10 11  2  0  0  0  0
 11  7  1  0  0  0  0
 12 15  2  0  0  0  0
 13  2  2  0  0  0  0
 14  3  2  0  0  0  0
 14 13  1  0  0  0  0
 15  4  1  0  0  0  0
 16 13  1  0  0  0  0
 17 19  1  0  0  0  0
 17 18  1  0  0  0  0
 18 21  1  0  0  0  0
 18 16  1  0  0  0  0
 19 18  1  0  0  0  0
 20 22  1  0  0  0  0
 20 21  2  0  0  0  0
 23 22  1  0  0  0  0
 24 23  1  0  0  0  0
 25 26  1  0  0  0  0
 25  3  1  0  0  0  0
 27 28  1  0  0  0  0
 28 29  1  0  0  0  0
 28 26  1  0  0  0  0
 29 30  1  0  0  0  0
 30 31  1  0  0  0  0
 31 32  1  0  0  0  0
 32 35  1  0  0  0  0
 33 32  1  0  0  0  0
 35 34  2  0  0  0  0
 35 36  1  0  0  0  0
 36 38  1  0  0  0  0
 37 42  1  0  0  0  0
 38 37  2  0  0  0  0
 38 43  1  0  0  0  0
 41 40  1  0  0  0  0
 41 39  1  0  0  0  0
 42 40  2  0  0  0  0
 43 41  2  0  0  0  0
M  END
>  <MODEL>
4

>  <REMARK>
 VINA RESULT:      -9.0      1.165      1.600
  Name = 
  14 active torsions:
  status: ('A' for Active; 'I' for Inactive)
    1  A    between atoms: C_1  and  C_34
    2  A    between atoms: C_1  and  C_35
    3  A    between atoms: C_2  and  N_7
    4  A    between atoms: C_2  and  C_13
    5  A    between atoms: C_3  and  C_17
    6  A    between atoms: C_3  and  C_42
    7  A    between atoms: C_4  and  C_14
    8  A    between atoms: C_4  and  C_41
    9  A    between atoms: N_7  and  N_12
   10  A    between atoms: C_9  and  C_37
   11  A    between atoms: N_10  and  C_42
   12  A    between atoms: N_12  and  C_17
   13  A    between atoms: C_19  and  C_37
   14  A    between atoms: N_32  and  C_35
                            x       y       z     vdW  Elec       q    Type
                         _______ _______ _______ _____ _____    ______ ____

>  <TORSDO>
F 14

$$$$
=
 OpenBabel10262422153D

 43 47  0  0  0  0  0  0  0  0999 V2000
  188.0350  176.9210  145.5660 C   0  0  0  0  0  3  0  0  0  0  0  0
  183.3150  178.7830  143.4860 C   0  0  0  0  0  0  0  0  0  0  0  0
  183.9080  178.3740  140.7720 C   0  0  0  0  0  0  0  0  0  0  0  0
  185.3300  178.4890  145.4480 C   0  0  0  0  0  0  0  0  0  0  0  0
  187.6970  176.8480  144.2790 C   0  0  0  0  0  3  0  0  0  0  0  0
  187.7440  178.1590  146.3490 C   0  0  0  0  0  2  0  0  0  0  0  0
  185.6490  178.2810  144.0740 C   0  0  0  0  0  0  0  0  0  0  0  0
  186.2500  178.2550  146.6270 C   0  0  0  0  0  2  0  0  0  0  0  0
  187.0570  178.0150  143.5960 C   0  0  0  0  0  2  0  0  0  0  0  0
  184.9060  178.2200  141.7370 C   0  0  0  0  0  3  0  0  0  0  0  0
  184.6320  178.4260  143.1000 C   0  0  0  0  0  0  0  0  0  0  0  0
  183.0310  178.9810  144.8390 C   0  0  0  0  0  3  0  0  0  0  0  0
  182.3090  178.9360  142.5080 C   0  0  0  0  0  0  0  0  0  0  0  0
  182.6170  178.7280  141.1590 C   0  0  0  0  0  3  0  0  0  0  0  0
  184.0230  178.8300  145.8000 C   0  0  0  0  0  3  0  0  0  0  0  0
  180.9070  179.3320  142.8670 C   0  0  0  0  0  2  0  0  0  0  0  0
  178.9330  179.9920  141.3250 C   0  0  0  0  0  2  0  0  0  0  0  0
  179.9170  178.9390  141.7750 C   0  0  0  0  0  0  0  0  0  0  0  0
  180.0970  179.5870  140.4240 C   0  0  0  0  0  2  0  0  0  0  0  0
  179.7990  176.7550  140.8520 C   0  0  0  0  0  3  0  0  0  0  0  0
  179.4000  177.5940  141.7370 N   0  0  0  0  0  0  0  0  0  0  0  0
  179.2720  175.3590  140.8450 C   0  0  0  0  0  2  0  0  0  0  0  0
  178.9820  174.9070  139.4260 C   0  0  0  0  0  2  0  0  0  0  0  0
  180.2600  174.9450  138.6170 C   0  0  0  0  0  1  0  0  0  0  0  0
  184.1990  178.1190  139.3300 C   0  0  0  0  0  2  0  0  0  0  0  0
  185.5650  178.5450  138.9970 N   0  0  0  0  0  2  0  0  0  0  0  0
  185.1080  177.0200  137.2560 C   0  0  0  0  0  1  0  0  0  0  0  0
  186.1470  177.7370  137.9860 N   0  0  0  0  0  0  0  0  0  0  0  0
  186.9110  178.5570  137.0480 C   0  0  0  0  0  2  0  0  0  0  0  0
  188.3300  178.0350  136.9440 C   0  0  0  0  0  2  0  0  0  0  0  0
  189.1860  178.6800  138.0140 C   0  0  0  0  0  2  0  0  0  0  0  0
  189.8580  177.6560  138.8020 N   0  0  0  0  0  0  0  0  0  0  0  0
  190.9920  176.9700  138.2090 C   0  0  0  0  0  1  0  0  0  0  0  0
  188.5460  178.0840  140.6880 O   0  0  0  0  0  0  0  0  0  0  0  0
  189.4840  177.4190  140.1700 C   0  0  0  0  0  0  0  0  0  0  0  0
  190.2360  176.4260  141.0090 C   0  0  0  0  0  2  0  0  0  0  0  0
  190.6160  178.3910  142.5270 C   0  0  0  0  0  3  0  0  0  0  0  0
  190.6570  177.0070  142.3190 C   0  0  0  0  0  0  0  0  0  0  0  0
  191.9430  175.8780  145.5510 F   0  0  0  0  0  0  0  0  0  0  0  0
  191.4690  178.0820  144.7710 C   0  0  0  0  0  3  0  0  0  0  0  0
  191.5080  176.7000  144.5650 C   0  0  0  0  0  0  0  0  0  0  0  0
  191.0240  178.9280  143.7500 C   0  0  0  0  0  3  0  0  0  0  0  0
  191.1060  176.1630  143.3390 C   0  0  0  0  0  3  0  0  0  0  0  0
  1  6  1  0  0  0  0
  2 12  1  0  0  0  0
  3 14  2  0  0  0  0
  3 10  1  0  0  0  0
  4 15  1  0  0  0  0
  4  8  1  0  0  0  0
  5  1  2  0  0  0  0
  6  8  1  0  0  0  0
  7  4  2  0  0  0  0
  9  7  1  0  0  0  0
  9  5  1  0  0  0  0
 10 11  2  0  0  0  0
 11  2  1  0  0  0  0
 11  7  1  0  0  0  0
 12 15  2  0  0  0  0
 13 16  1  0  0  0  0
 13  2  2  0  0  0  0
 14 13  1  0  0  0  0
 17 18  1  0  0  0  0
 18 16  1  0  0  0  0
 19 17  1  0  0  0  0
 19 18  1  0  0  0  0
 20 21  2  0  0  0  0
 21 18  1  0  0  0  0
 22 20  1  0  0  0  0
 23 22  1  0  0  0  0
 24 23  1  0  0  0  0
 25  3  1  0  0  0  0
 26 25  1  0  0  0  0
 27 28  1  0  0  0  0
 28 26  1  0  0  0  0
 29 28  1  0  0  0  0
 30 29  1  0  0  0  0
 30 31  1  0  0  0  0
 31 32  1  0  0  0  0
 32 35  1  0  0  0  0
 33 32  1  0  0  0  0
 35 34  2  0  0  0  0
 35 36  1  0  0  0  0
 36 38  1  0  0  0  0
 37 42  1  0  0  0  0
 38 37  2  0  0  0  0
 38 43  1  0  0  0  0
 41 40  1  0  0  0  0
 41 39  1  0  0  0  0
 42 40  2  0  0  0  0
 43 41  2  0  0  0  0
M  END
>  <MODEL>
5

>  <REMARK>
 VINA RESULT:      -8.9      2.302      3.467
  Name = 
  14 active torsions:
  status: ('A' for Active; 'I' for Inactive)
    1  A    between atoms: C_1  and  C_34
    2  A    between atoms: C_1  and  C_35
    3  A    between atoms: C_2  and  N_7
    4  A    between atoms: C_2  and  C_13
    5  A    between atoms: C_3  and  C_17
    6  A    between atoms: C_3  and  C_42
    7  A    between atoms: C_4  and  C_14
    8  A    between atoms: C_4  and  C_41
    9  A    between atoms: N_7  and  N_12
   10  A    between atoms: C_9  and  C_37
   11  A    between atoms: N_10  and  C_42
   12  A    between atoms: N_12  and  C_17
   13  A    between atoms: C_19  and  C_37
   14  A    between atoms: N_32  and  C_35
                            x       y       z     vdW  Elec       q    Type
                         _______ _______ _______ _____ _____    ______ ____

>  <TORSDO>
F 14

$$$$
=
 OpenBabel10262422153D

 43 47  0  0  0  0  0  0  0  0999 V2000
  188.4430  177.9450  147.1540 C   0  0  0  0  0  3  0  0  0  0  0  0
  190.6780  177.1880  142.2040 C   0  0  0  0  0  0  0  0  0  0  0  0
  188.4260  177.8560  140.6650 C   0  0  0  0  0  0  0  0  0  0  0  0
  190.4510  176.8770  145.0060 C   0  0  0  0  0  0  0  0  0  0  0  0
  187.8450  178.2460  146.0030 C   0  0  0  0  0  3  0  0  0  0  0  0
  189.2230  176.6780  147.2860 C   0  0  0  0  0  2  0  0  0  0  0  0
  189.2970  177.2130  144.2380 C   0  0  0  0  0  0  0  0  0  0  0  0
  190.5310  176.7940  146.5150 C   0  0  0  0  0  2  0  0  0  0  0  0
  187.9160  177.3040  144.8420 C   0  0  0  0  0  2  0  0  0  0  0  0
  188.3090  177.7110  142.0490 C   0  0  0  0  0  3  0  0  0  0  0  0
  189.4220  177.3710  142.8370 C   0  0  0  0  0  0  0  0  0  0  0  0
  191.7910  176.8590  142.9800 C   0  0  0  0  0  3  0  0  0  0  0  0
  190.7920  177.3380  140.8050 C   0  0  0  0  0  0  0  0  0  0  0  0
  189.6630  177.6720  140.0500 C   0  0  0  0  0  3  0  0  0  0  0  0
  191.6760  176.7130  144.3570 C   0  0  0  0  0  3  0  0  0  0  0  0
  192.0950  177.1340  140.0890 C   0  0  0  0  0  2  0  0  0  0  0  0
  192.6060  176.7550  137.5780 C   0  0  0  0  0  2  0  0  0  0  0  0
  191.9200  176.2810  138.8370 C   0  0  0  0  0  0  0  0  0  0  0  0
  193.1360  175.5410  138.3380 C   0  0  0  0  0  2  0  0  0  0  0  0
  190.1450  175.5550  137.4360 C   0  0  0  0  0  3  0  0  0  0  0  0
  190.6660  175.6080  138.6080 N   0  0  0  0  0  0  0  0  0  0  0  0
  188.8590  174.8310  137.2150 C   0  0  0  0  0  2  0  0  0  0  0  0
  189.1210  173.3840  136.8450 C   0  0  0  0  0  2  0  0  0  0  0  0
  187.8760  172.5660  137.1110 C   0  0  0  0  0  1  0  0  0  0  0  0
  187.2470  178.2510  139.8390 C   0  0  0  0  0  2  0  0  0  0  0  0
  187.6450  178.4560  138.4400 N   0  0  0  0  0  2  0  0  0  0  0  0
  186.6560  177.6870  136.4400 C   0  0  0  0  0  1  0  0  0  0  0  0
  186.5240  178.5880  137.5780 N   0  0  0  0  0  0  0  0  0  0  0  0
  185.2870  178.2800  138.2920 C   0  0  0  0  0  2  0  0  0  0  0  0
  184.4170  177.3710  137.4480 C   0  0  0  0  0  2  0  0  0  0  0  0
  182.9870  177.8720  137.4740 C   0  0  0  0  0  2  0  0  0  0  0  0
  182.3980  177.6360  138.7850 N   0  0  0  0  0  0  0  0  0  0  0  0
  182.2430  176.2630  139.2290 C   0  0  0  0  0  1  0  0  0  0  0  0
  182.3100  179.9180  139.2830 O   0  0  0  0  0  0  0  0  0  0  0  0
  182.0920  178.7350  139.6620 C   0  0  0  0  0  0  0  0  0  0  0  0
  181.5700  178.4870  141.0470 C   0  0  0  0  0  2  0  0  0  0  0  0
  183.9740  178.2590  141.7380 C   0  0  0  0  0  3  0  0  0  0  0  0
  182.6500  178.5680  142.0750 C   0  0  0  0  0  0  0  0  0  0  0  0
  183.0290  179.3770  145.6210 F   0  0  0  0  0  0  0  0  0  0  0  0
  184.6610  178.7020  144.0160 C   0  0  0  0  0  3  0  0  0  0  0  0
  183.3390  179.0130  144.3530 C   0  0  0  0  0  0  0  0  0  0  0  0
  184.9770  178.3230  142.7080 C   0  0  0  0  0  3  0  0  0  0  0  0
  182.3350  178.9430  143.3840 C   0  0  0  0  0  3  0  0  0  0  0  0
  1  6  1  0  0  0  0
  2 11  1  0  0  0  0
  2 12  1  0  0  0  0
  3 10  1  0  0  0  0
  4  8  1  0  0  0  0
  5  1  2  0  0  0  0
  7  9  1  0  0  0  0
  7  4  2  0  0  0  0
  8  6  1  0  0  0  0
  9  5  1  0  0  0  0
 10 11  2  0  0  0  0
 11  7  1  0  0  0  0
 12 15  2  0  0  0  0
 13  2  2  0  0  0  0
 14  3  2  0  0  0  0
 14 13  1  0  0  0  0
 15  4  1  0  0  0  0
 16 13  1  0  0  0  0
 17 19  1  0  0  0  0
 17 18  1  0  0  0  0
 18 16  1  0  0  0  0
 19 18  1  0  0  0  0
 20 21  2  0  0  0  0
 21 18  1  0  0  0  0
 22 20  1  0  0  0  0
 23 24  1  0  0  0  0
 23 22  1  0  0  0  0
 25  3  1  0  0  0  0
 26 25  1  0  0  0  0
 27 28  1  0  0  0  0
 28 29  1  0  0  0  0
 28 26  1  0  0  0  0
 30 31  1  0  0  0  0
 30 29  1  0  0  0  0
 31 32  1  0  0  0  0
 32 33  1  0  0  0  0
 32 35  1  0  0  0  0
 34 35  2  0  0  0  0
 35 36  1  0  0  0  0
 36 38  1  0  0  0  0
 37 38  2  0  0  0  0
 37 42  1  0  0  0  0
 38 43  1  0  0  0  0
 40 41  1  0  0  0  0
 41 39  1  0  0  0  0
 42 40  2  0  0  0  0
 43 41  2  0  0  0  0
M  END
>  <MODEL>
6

>  <REMARK>
 VINA RESULT:      -8.6      2.988      8.465
  Name = 
  14 active torsions:
  status: ('A' for Active; 'I' for Inactive)
    1  A    between atoms: C_1  and  C_34
    2  A    between atoms: C_1  and  C_35
    3  A    between atoms: C_2  and  N_7
    4  A    between atoms: C_2  and  C_13
    5  A    between atoms: C_3  and  C_17
    6  A    between atoms: C_3  and  C_42
    7  A    between atoms: C_4  and  C_14
    8  A    between atoms: C_4  and  C_41
    9  A    between atoms: N_7  and  N_12
   10  A    between atoms: C_9  and  C_37
   11  A    between atoms: N_10  and  C_42
   12  A    between atoms: N_12  and  C_17
   13  A    between atoms: C_19  and  C_37
   14  A    between atoms: N_32  and  C_35
                            x       y       z     vdW  Elec       q    Type
                         _______ _______ _______ _____ _____    ______ ____

>  <TORSDO>
F 14

$$$$
=
 OpenBabel10262422153D

 43 47  0  0  0  0  0  0  0  0999 V2000
  182.0510  179.3620  140.3680 C   0  0  0  0  0  3  0  0  0  0  0  0
  185.2410  178.4220  144.7280 C   0  0  0  0  0  0  0  0  0  0  0  0
  187.4690  177.4040  143.3550 C   0  0  0  0  0  0  0  0  0  0  0  0
  182.8040  178.8650  143.3630 C   0  0  0  0  0  0  0  0  0  0  0  0
  183.3250  178.9780  140.3010 C   0  0  0  0  0  3  0  0  0  0  0  0
  181.1340  178.7520  141.3770 C   0  0  0  0  0  2  0  0  0  0  0  0
  183.9250  178.3440  142.6520 C   0  0  0  0  0  0  0  0  0  0  0  0
  181.4740  179.2730  142.7660 C   0  0  0  0  0  2  0  0  0  0  0  0
  183.8420  177.9070  141.2090 C   0  0  0  0  0  2  0  0  0  0  0  0
  186.2710  177.6270  142.6750 C   0  0  0  0  0  3  0  0  0  0  0  0
  185.1420  178.1300  143.3440 C   0  0  0  0  0  0  0  0  0  0  0  0
  184.1280  178.9310  145.3990 C   0  0  0  0  0  3  0  0  0  0  0  0
  186.4550  178.1960  145.4120 C   0  0  0  0  0  0  0  0  0  0  0  0
  187.5580  177.6900  144.7170 C   0  0  0  0  0  3  0  0  0  0  0  0
  182.9330  179.1520  144.7230 C   0  0  0  0  0  3  0  0  0  0  0  0
  186.6010  178.4710  146.8800 C   0  0  0  0  0  2  0  0  0  0  0  0
  188.2600  178.2570  148.8570 C   0  0  0  0  0  2  0  0  0  0  0  0
  187.9250  177.9380  147.4210 C   0  0  0  0  0  0  0  0  0  0  0  0
  187.8480  176.8430  148.4560 C   0  0  0  0  0  2  0  0  0  0  0  0
  190.0340  177.0540  146.7840 C   0  0  0  0  0  3  0  0  0  0  0  0
  189.0690  177.8660  146.5480 N   0  0  0  0  0  0  0  0  0  0  0  0
  191.1990  176.9770  145.8550 C   0  0  0  0  0  2  0  0  0  0  0  0
  192.0710  175.7830  146.1940 C   0  0  0  0  0  2  0  0  0  0  0  0
  192.1280  175.6150  147.6970 C   0  0  0  0  0  1  0  0  0  0  0  0
  188.6740  176.9030  142.6300 C   0  0  0  0  0  2  0  0  0  0  0  0
  189.5820  178.0130  142.3120 N   0  0  0  0  0  2  0  0  0  0  0  0
  191.0090  176.7670  140.9050 C   0  0  0  0  0  1  0  0  0  0  0  0
  190.1110  177.9120  140.9990 N   0  0  0  0  0  0  0  0  0  0  0  0
  189.0360  177.7580  140.0200 C   0  0  0  0  0  2  0  0  0  0  0  0
  189.6200  177.6220  138.6290 C   0  0  0  0  0  2  0  0  0  0  0  0
  189.0480  178.7010  137.7330 C   0  0  0  0  0  2  0  0  0  0  0  0
  188.1480  178.1120  136.7510 N   0  0  0  0  0  0  0  0  0  0  0  0
  188.7320  177.4330  135.6080 C   0  0  0  0  0  1  0  0  0  0  0  0
  186.2490  178.6250  138.0130 O   0  0  0  0  0  0  0  0  0  0  0  0
  186.7270  178.0980  136.9720 C   0  0  0  0  0  0  0  0  0  0  0  0
  185.8080  177.4110  136.0030 C   0  0  0  0  0  2  0  0  0  0  0  0
  183.7740  177.0510  137.4320 C   0  0  0  0  0  3  0  0  0  0  0  0
  184.8370  176.5120  136.6960 C   0  0  0  0  0  0  0  0  0  0  0  0
  184.2610  172.9360  137.1970 F   0  0  0  0  0  0  0  0  0  0  0  0
  183.0390  174.8180  138.0080 C   0  0  0  0  0  3  0  0  0  0  0  0
  184.1000  174.2790  137.2730 C   0  0  0  0  0  0  0  0  0  0  0  0
  182.8780  176.2040  138.0890 C   0  0  0  0  0  3  0  0  0  0  0  0
  185.0000  175.1260  136.6200 C   0  0  0  0  0  3  0  0  0  0  0  0
  1  6  1  0  0  0  0
  2 12  1  0  0  0  0
  2 13  1  0  0  0  0
  3 14  1  0  0  0  0
  4 15  1  0  0  0  0
  5  1  2  0  0  0  0
  5  9  1  0  0  0  0
  6  8  1  0  0  0  0
  7 11  1  0  0  0  0
  7  4  2  0  0  0  0
  8  4  1  0  0  0  0
  9  7  1  0  0  0  0
 10 11  1  0  0  0  0
 10  3  2  0  0  0  0
 11  2  2  0  0  0  0
 13 16  1  0  0  0  0
 14 13  2  0  0  0  0
 15 12  2  0  0  0  0
 16 18  1  0  0  0  0
 18 19  1  0  0  0  0
 18 17  1  0  0  0  0
 19 17  1  0  0  0  0
 21 20  2  0  0  0  0
 21 18  1  0  0  0  0
 22 23  1  0  0  0  0
 22 20  1  0  0  0  0
 23 24  1  0  0  0  0
 25  3  1  0  0  0  0
 26 25  1  0  0  0  0
 27 28  1  0  0  0  0
 28 26  1  0  0  0  0
 29 28  1  0  0  0  0
 30 29  1  0  0  0  0
 31 30  1  0  0  0  0
 32 35  1  0  0  0  0
 32 31  1  0  0  0  0
 33 32  1  0  0  0  0
 35 34  2  0  0  0  0
 36 38  1  0  0  0  0
 36 35  1  0  0  0  0
 37 42  1  0  0  0  0
 38 37  2  0  0  0  0
 39 41  1  0  0  0  0
 40 42  2  0  0  0  0
 41 40  1  0  0  0  0
 43 38  1  0  0  0  0
 43 41  2  0  0  0  0
M  END
>  <MODEL>
7

>  <REMARK>
 VINA RESULT:      -8.5      3.446      8.982
  Name = 
  14 active torsions:
  status: ('A' for Active; 'I' for Inactive)
    1  A    between atoms: C_1  and  C_34
    2  A    between atoms: C_1  and  C_35
    3  A    between atoms: C_2  and  N_7
    4  A    between atoms: C_2  and  C_13
    5  A    between atoms: C_3  and  C_17
    6  A    between atoms: C_3  and  C_42
    7  A    between atoms: C_4  and  C_14
    8  A    between atoms: C_4  and  C_41
    9  A    between atoms: N_7  and  N_12
   10  A    between atoms: C_9  and  C_37
   11  A    between atoms: N_10  and  C_42
   12  A    between atoms: N_12  and  C_17
   13  A    between atoms: C_19  and  C_37
   14  A    between atoms: N_32  and  C_35
                            x       y       z     vdW  Elec       q    Type
                         _______ _______ _______ _____ _____    ______ ____

>  <TORSDO>
F 14

$$$$
=
 OpenBabel10262422153D

 43 47  0  0  0  0  0  0  0  0999 V2000
  184.3340  178.7430  144.3310 C   0  0  0  0  0  3  0  0  0  0  0  0
  182.7700  177.8420  139.1520 C   0  0  0  0  0  0  0  0  0  0  0  0
  185.3190  177.8770  137.9750 C   0  0  0  0  0  0  0  0  0  0  0  0
  182.4330  178.6250  141.8490 C   0  0  0  0  0  0  0  0  0  0  0  0
  185.1710  178.5310  143.3160 C   0  0  0  0  0  3  0  0  0  0  0  0
  183.1360  179.6150  144.1450 C   0  0  0  0  0  2  0  0  0  0  0  0
  183.7330  178.6510  141.2650 C   0  0  0  0  0  0  0  0  0  0  0  0
  182.0960  178.8910  143.3010 C   0  0  0  0  0  2  0  0  0  0  0  0
  184.9420  179.1910  141.9930 C   0  0  0  0  0  2  0  0  0  0  0  0
  185.1600  178.2580  139.3090 C   0  0  0  0  0  3  0  0  0  0  0  0
  183.8920  178.2530  139.9160 C   0  0  0  0  0  0  0  0  0  0  0  0
  181.5080  177.8250  139.7500 C   0  0  0  0  0  3  0  0  0  0  0  0
  182.9360  177.4560  137.8050 C   0  0  0  0  0  0  0  0  0  0  0  0
  184.2110  177.4760  137.2310 C   0  0  0  0  0  3  0  0  0  0  0  0
  181.3480  178.2050  141.0770 C   0  0  0  0  0  3  0  0  0  0  0  0
  181.7760  177.0320  136.9530 C   0  0  0  0  0  2  0  0  0  0  0  0
  181.0020  174.7310  137.8560 C   0  0  0  0  0  2  0  0  0  0  0  0
  181.7250  175.5160  136.7880 C   0  0  0  0  0  0  0  0  0  0  0  0
  180.3810  174.9080  136.4730 C   0  0  0  0  0  2  0  0  0  0  0  0
  182.8520  173.5520  136.0770 C   0  0  0  0  0  3  0  0  0  0  0  0
  182.8520  174.8280  136.2110 N   0  0  0  0  0  0  0  0  0  0  0  0
  184.0180  172.8600  135.4520 C   0  0  0  0  0  2  0  0  0  0  0  0
  185.2610  173.0410  136.3030 C   0  0  0  0  0  2  0  0  0  0  0  0
  184.8760  173.0030  137.7660 C   0  0  0  0  0  1  0  0  0  0  0  0
  186.6730  177.8510  137.3480 C   0  0  0  0  0  2  0  0  0  0  0  0
  187.6790  178.3900  138.2730 N   0  0  0  0  0  2  0  0  0  0  0  0
  189.4230  177.2720  137.1420 C   0  0  0  0  0  1  0  0  0  0  0  0
  188.7850  177.5150  138.4310 N   0  0  0  0  0  0  0  0  0  0  0  0
  189.7670  178.0860  139.3500 C   0  0  0  0  0  2  0  0  0  0  0  0
  189.4700  177.6390  140.7660 C   0  0  0  0  0  2  0  0  0  0  0  0
  190.7370  177.7100  141.5950 C   0  0  0  0  0  2  0  0  0  0  0  0
  190.5400  177.0310  142.8680 N   0  0  0  0  0  0  0  0  0  0  0  0
  190.1890  175.6220  142.8460 C   0  0  0  0  0  1  0  0  0  0  0  0
  191.1860  178.9090  144.1010 O   0  0  0  0  0  0  0  0  0  0  0  0
  190.8050  177.7070  144.1100 C   0  0  0  0  0  0  0  0  0  0  0  0
  190.6890  176.9790  145.4180 C   0  0  0  0  0  2  0  0  0  0  0  0
  188.2360  177.5100  145.5100 C   0  0  0  0  0  3  0  0  0  0  0  0
  189.4630  177.3760  146.1720 C   0  0  0  0  0  0  0  0  0  0  0  0
  188.4860  178.2540  149.5850 F   0  0  0  0  0  0  0  0  0  0  0  0
  187.1780  178.1440  147.5930 C   0  0  0  0  0  3  0  0  0  0  0  0
  188.4030  178.0100  148.2550 C   0  0  0  0  0  0  0  0  0  0  0  0
  187.0960  177.8960  146.2190 C   0  0  0  0  0  3  0  0  0  0  0  0
  189.5450  177.6300  147.5450 C   0  0  0  0  0  3  0  0  0  0  0  0
  2 12  1  0  0  0  0
  2 11  1  0  0  0  0
  3 10  1  0  0  0  0
  4  8  1  0  0  0  0
  5  1  2  0  0  0  0
  6  1  1  0  0  0  0
  7  4  2  0  0  0  0
  7  9  1  0  0  0  0
  8  6  1  0  0  0  0
  9  5  1  0  0  0  0
 10 11  2  0  0  0  0
 11  7  1  0  0  0  0
 12 15  2  0  0  0  0
 13  2  2  0  0  0  0
 14 13  1  0  0  0  0
 14  3  2  0  0  0  0
 15  4  1  0  0  0  0
 16 13  1  0  0  0  0
 18 16  1  0  0  0  0
 18 17  1  0  0  0  0
 19 18  1  0  0  0  0
 19 17  1  0  0  0  0
 20 21  2  0  0  0  0
 21 18  1  0  0  0  0
 22 20  1  0  0  0  0
 22 23  1  0  0  0  0
 23 24  1  0  0  0  0
 25  3  1  0  0  0  0
 25 26  1  0  0  0  0
 26 28  1  0  0  0  0
 27 28  1  0  0  0  0
 28 29  1  0  0  0  0
 29 30  1  0  0  0  0
 30 31  1  0  0  0  0
 31 32  1  0  0  0  0
 32 35  1  0  0  0  0
 33 32  1  0  0  0  0
 34 35  2  0  0  0  0
 35 36  1  0  0  0  0
 36 38  1  0  0  0  0
 37 38  2  0  0  0  0
 37 42  1  0  0  0  0
 38 43  1  0  0  0  0
 40 41  1  0  0  0  0
 41 39  1  0  0  0  0
 42 40  2  0  0  0  0
 43 41  2  0  0  0  0
M  END
>  <MODEL>
8

>  <REMARK>
 VINA RESULT:      -8.3      2.603      4.193
  Name = 
  14 active torsions:
  status: ('A' for Active; 'I' for Inactive)
    1  A    between atoms: C_1  and  C_34
    2  A    between atoms: C_1  and  C_35
    3  A    between atoms: C_2  and  N_7
    4  A    between atoms: C_2  and  C_13
    5  A    between atoms: C_3  and  C_17
    6  A    between atoms: C_3  and  C_42
    7  A    between atoms: C_4  and  C_14
    8  A    between atoms: C_4  and  C_41
    9  A    between atoms: N_7  and  N_12
   10  A    between atoms: C_9  and  C_37
   11  A    between atoms: N_10  and  C_42
   12  A    between atoms: N_12  and  C_17
   13  A    between atoms: C_19  and  C_37
   14  A    between atoms: N_32  and  C_35
                            x       y       z     vdW  Elec       q    Type
                         _______ _______ _______ _____ _____    ______ ____

>  <TORSDO>
F 14

$$$$
=
 OpenBabel10262422153D

 43 47  0  0  0  0  0  0  0  0999 V2000
  189.0630  176.7960  145.9910 C   0  0  0  0  0  3  0  0  0  0  0  0
  184.1780  178.6410  144.3160 C   0  0  0  0  0  0  0  0  0  0  0  0
  184.7060  178.6630  141.5580 C   0  0  0  0  0  0  0  0  0  0  0  0
  186.2690  178.1930  146.1660 C   0  0  0  0  0  0  0  0  0  0  0  0
  188.6880  176.8880  144.7160 C   0  0  0  0  0  3  0  0  0  0  0  0
  188.7260  177.8880  146.9530 C   0  0  0  0  0  2  0  0  0  0  0  0
  186.5550  178.2050  144.7690 C   0  0  0  0  0  0  0  0  0  0  0  0
  187.2380  177.8500  147.2770 C   0  0  0  0  0  2  0  0  0  0  0  0
  187.9600  178.0980  144.2240 C   0  0  0  0  0  2  0  0  0  0  0  0
  185.7420  178.4340  142.4660 C   0  0  0  0  0  3  0  0  0  0  0  0
  185.5000  178.4250  143.8510 C   0  0  0  0  0  0  0  0  0  0  0  0
  183.9260  178.6240  145.6890 C   0  0  0  0  0  3  0  0  0  0  0  0
  183.1330  178.8690  143.3930 C   0  0  0  0  0  0  0  0  0  0  0  0
  183.4100  178.8770  142.0230 C   0  0  0  0  0  3  0  0  0  0  0  0
  184.9560  178.3980  146.5940 C   0  0  0  0  0  3  0  0  0  0  0  0
  181.7230  179.1220  143.8390 C   0  0  0  0  0  2  0  0  0  0  0  0
  180.7410  177.7540  141.8710 C   0  0  0  0  0  2  0  0  0  0  0  0
  180.7430  179.0330  142.6740 C   0  0  0  0  0  0  0  0  0  0  0  0
  179.5900  178.0710  142.8220 C   0  0  0  0  0  2  0  0  0  0  0  0
  180.0160  180.1290  140.6970 C   0  0  0  0  0  3  0  0  0  0  0  0
  180.4500  180.2140  141.9020 N   0  0  0  0  0  0  0  0  0  0  0  0
  179.6940  181.3640  139.9240 C   0  0  0  0  0  2  0  0  0  0  0  0
  180.1440  181.2200  138.4820 C   0  0  0  0  0  2  0  0  0  0  0  0
  181.5580  181.7430  138.3440 C   0  0  0  0  0  1  0  0  0  0  0  0
  184.9640  178.6360  140.0870 C   0  0  0  0  0  2  0  0  0  0  0  0
  183.7110  178.8190  139.3420 N   0  0  0  0  0  2  0  0  0  0  0  0
  182.0090  177.7700  138.0900 C   0  0  0  0  0  1  0  0  0  0  0  0
  183.3900  177.6860  138.5490 N   0  0  0  0  0  0  0  0  0  0  0  0
  184.2750  177.6010  137.3900 C   0  0  0  0  0  2  0  0  0  0  0  0
  184.7800  176.1820  137.2280 C   0  0  0  0  0  2  0  0  0  0  0  0
  185.6840  176.1010  136.0150 C   0  0  0  0  0  2  0  0  0  0  0  0
  187.0790  176.1480  136.4270 N   0  0  0  0  0  0  0  0  0  0  0  0
  187.7160  174.9080  136.8340 C   0  0  0  0  0  1  0  0  0  0  0  0
  187.2830  178.4120  135.8830 O   0  0  0  0  0  0  0  0  0  0  0  0
  187.8370  177.3660  136.3160 C   0  0  0  0  0  0  0  0  0  0  0  0
  189.3000  177.3910  136.6550 C   0  0  0  0  0  2  0  0  0  0  0  0
  190.5370  176.6530  138.7120 C   0  0  0  0  0  3  0  0  0  0  0  0
  189.5300  177.4330  138.1300 C   0  0  0  0  0  0  0  0  0  0  0  0
  188.1480  179.0710  141.0930 F   0  0  0  0  0  0  0  0  0  0  0  0
  189.9350  177.5020  140.8980 C   0  0  0  0  0  3  0  0  0  0  0  0
  188.9300  178.2830  140.3170 C   0  0  0  0  0  0  0  0  0  0  0  0
  190.7370  176.6860  140.0950 C   0  0  0  0  0  3  0  0  0  0  0  0
  188.7250  178.2450  138.9350 C   0  0  0  0  0  3  0  0  0  0  0  0
  1  6  1  0  0  0  0
  2 12  1  0  0  0  0
  3 14  2  0  0  0  0
  3 10  1  0  0  0  0
  4 15  1  0  0  0  0
  4  8  1  0  0  0  0
  5  1  2  0  0  0  0
  6  8  1  0  0  0  0
  7  4  2  0  0  0  0
  9  5  1  0  0  0  0
  9  7  1  0  0  0  0
 10 11  2  0  0  0  0
 11  2  1  0  0  0  0
 11  7  1  0  0  0  0
 12 15  2  0  0  0  0
 13 16  1  0  0  0  0
 13  2  2  0  0  0  0
 14 13  1  0  0  0  0
 17 18  1  0  0  0  0
 17 19  1  0  0  0  0
 18 19  1  0  0  0  0
 18 16  1  0  0  0  0
 20 21  2  0  0  0  0
 21 18  1  0  0  0  0
 22 20  1  0  0  0  0
 23 22  1  0  0  0  0
 24 23  1  0  0  0  0
 25  3  1  0  0  0  0
 26 25  1  0  0  0  0
 27 28  1  0  0  0  0
 28 26  1  0  0  0  0
 29 28  1  0  0  0  0
 30 29  1  0  0  0  0
 31 32  1  0  0  0  0
 31 30  1  0  0  0  0
 32 33  1  0  0  0  0
 34 35  2  0  0  0  0
 35 32  1  0  0  0  0
 35 36  1  0  0  0  0
 36 38  1  0  0  0  0
 37 42  1  0  0  0  0
 38 37  2  0  0  0  0
 38 43  1  0  0  0  0
 41 40  1  0  0  0  0
 41 39  1  0  0  0  0
 42 40  2  0  0  0  0
 43 41  2  0  0  0  0
M  END
>  <MODEL>
9

>  <REMARK>
 VINA RESULT:      -8.2      2.684      5.017
  Name = 
  14 active torsions:
  status: ('A' for Active; 'I' for Inactive)
    1  A    between atoms: C_1  and  C_34
    2  A    between atoms: C_1  and  C_35
    3  A    between atoms: C_2  and  N_7
    4  A    between atoms: C_2  and  C_13
    5  A    between atoms: C_3  and  C_17
    6  A    between atoms: C_3  and  C_42
    7  A    between atoms: C_4  and  C_14
    8  A    between atoms: C_4  and  C_41
    9  A    between atoms: N_7  and  N_12
   10  A    between atoms: C_9  and  C_37
   11  A    between atoms: N_10  and  C_42
   12  A    between atoms: N_12  and  C_17
   13  A    between atoms: C_19  and  C_37
   14  A    between atoms: N_32  and  C_35
                            x       y       z     vdW  Elec       q    Type
                         _______ _______ _______ _____ _____    ______ ____

>  <TORSDO>
F 14

$$$$
